
     RDKit          3D

 42 43  0  0  0  0  0  0  0  0999 V2000
   11.0761   -8.7664  -15.2534 N   0  0  0  0  0  4  0  0  0  0  0  0
   12.4013   -9.1160  -14.8548 C   0  0  2  0  0  0  0  0  0  0  0  0
   12.6570  -10.4720  -14.4174 C   0  0  0  0  0  0  0  0  0  0  0  0
   11.6234  -11.2627  -14.5036 O   0  0  0  0  0  0  0  0  0  0  0  0
   12.9601   -8.0394  -13.9585 C   0  0  0  0  0  0  0  0  0  0  0  0
   13.6749   -6.9512  -14.6081 C   0  0  0  0  0  0  0  0  0  0  0  0
   13.1535   -5.6662  -14.6309 C   0  0  0  0  0  0  0  0  0  0  0  0
   14.8925   -7.1506  -15.2034 C   0  0  0  0  0  0  0  0  0  0  0  0
   13.8154   -4.5974  -15.2268 C   0  0  0  0  0  0  0  0  0  0  0  0
   15.5496   -6.0904  -15.7951 C   0  0  0  0  0  0  0  0  0  0  0  0
   15.0382   -4.8224  -15.8198 C   0  0  0  0  0  0  0  0  0  0  0  0
   13.8476  -11.0312  -13.9219 N   0  0  0  0  0  0  0  0  0  0  0  0
   14.2601  -12.3211  -13.4958 C   0  0  2  0  0  0  0  0  0  0  0  0
   13.8783  -12.7284  -12.1402 C   0  0  0  0  0  0  0  0  0  0  0  0
   14.1024  -11.9655  -11.1773 O   0  0  0  0  0  0  0  0  0  0  0  0
   15.7544  -12.4601  -13.7329 C   0  0  0  0  0  0  0  0  0  0  0  0
   16.0975  -11.1102  -14.3500 C   0  0  0  0  0  0  0  0  0  0  0  0
   15.0629  -10.1873  -13.7372 C   0  0  0  0  0  0  0  0  0  0  0  0
   13.2541  -13.9912  -11.9192 N   0  0  0  0  0  0  0  0  0  0  0  0
   12.6545  -14.4046  -10.6699 C   0  0  2  0  0  0  0  0  0  0  0  0
   13.7081  -14.8480   -9.7659 C   0  0  0  0  0  0  0  0  0  0  0  0
   13.3753  -15.1912   -8.5982 O   0  0  0  0  0  0  0  0  0  0  0  0
   11.6010  -15.4488  -10.9300 C   0  0  0  0  0  0  0  0  0  0  0  0
   15.0961  -14.9392  -10.0628 N   0  0  0  0  0  0  0  0  0  0  0  0
   16.0959  -15.2691   -9.0798 C   0  0  1  0  0  0  0  0  0  0  0  0
   17.4511  -15.5065   -9.6241 C   0  0  1  0  0  0  0  0  0  0  0  0
   17.5514  -16.6202  -10.6154 C   0  0  0  0  0  0  0  0  0  0  0  0
   17.9932  -14.3710  -10.2493 O   0  0  0  0  0  0  0  0  0  0  0  0
   19.6166  -14.5009  -10.5697 P   0  0  2  0  0  5  0  0  0  0  0  0
   20.4716  -14.5580   -9.1119 O   0  0  0  0  0  0  0  0  0  0  0  0
   20.1772  -13.2949  -11.3279 O   0  0  0  0  0  0  0  0  0  0  0  0
   20.0474  -15.8570  -11.4531 O   0  0  0  0  0  0  0  0  0  0  0  0
   16.0442  -14.3662   -7.8992 C   0  0  0  0  0  0  0  0  0  0  0  0
   15.4247  -13.2767   -7.9338 O   0  0  0  0  0  0  0  0  0  0  0  0
   16.6948  -14.6900   -6.6726 N   0  0  0  0  0  0  0  0  0  0  0  0
   16.6100  -13.7844   -5.5660 C   0  0  2  0  0  0  0  0  0  0  0  0
   17.7664  -13.9586   -4.6376 C   0  0  0  0  0  0  0  0  0  0  0  0
   17.9421  -13.1488   -3.7006 O   0  0  0  0  0  0  0  0  0  0  0  0
   15.3384  -13.8903   -4.7667 C   0  0  1  0  0  0  0  0  0  0  0  0
   14.8576  -15.3463   -4.7217 C   0  0  0  0  0  0  0  0  0  0  0  0
   15.4748  -13.3915   -3.3712 C   0  0  0  0  0  0  0  0  0  0  0  0
   18.6586  -15.0023   -4.7857 O   0  0  0  0  0  0  0  0  0  0  0  0
  2  1  1  1
  2  3  1  0
  2  5  1  0
  3  4  2  0
  3 12  1  0
  5  6  1  0
  6  7  2  0
  6  8  1  0
  7  9  1  0
  8 10  2  0
  9 11  2  0
 10 11  1  0
 12 13  1  0
 12 18  1  0
 13 14  1  1
 13 16  1  0
 14 15  2  0
 14 19  1  0
 16 17  1  0
 17 18  1  0
 19 20  1  0
 20 21  1  0
 20 23  1  6
 21 22  2  0
 21 24  1  0
 25 24  1  6
 25 26  1  0
 25 33  1  0
 26 27  1  6
 26 28  1  0
 28 29  1  0
 29 30  1  1
 29 31  2  0
 29 32  1  0
 33 34  2  0
 33 35  1  0
 36 35  1  6
 36 37  1  0
 36 39  1  0
 37 38  2  0
 37 42  1  0
 39 40  1  1
 39 41  1  0
M  CHG  1   1   1
M  END
$$$$
