
     RDKit          3D

 42 43  0  0  0  0  0  0  0  0999 V2000
   13.5325    7.2561   14.3525 N   0  0  0  0  0  4  0  0  0  0  0  0
   14.0721    8.5549   14.5954 C   0  0  2  0  0  0  0  0  0  0  0  0
   13.4775    9.6884   13.9194 C   0  0  0  0  0  0  0  0  0  0  0  0
   12.6305    9.3646   12.9820 O   0  0  0  0  0  0  0  0  0  0  0  0
   15.5780    8.4952   14.5389 C   0  0  0  0  0  0  0  0  0  0  0  0
   16.1877    8.5627   13.2194 C   0  0  0  0  0  0  0  0  0  0  0  0
   17.4158    9.1786   13.0298 C   0  0  0  0  0  0  0  0  0  0  0  0
   15.5825    8.0071   12.1230 C   0  0  0  0  0  0  0  0  0  0  0  0
   18.0377    9.2476   11.7872 C   0  0  0  0  0  0  0  0  0  0  0  0
   16.1992    8.0755   10.8897 C   0  0  0  0  0  0  0  0  0  0  0  0
   17.4096    8.6825   10.6992 C   0  0  0  0  0  0  0  0  0  0  0  0
   13.6927   11.0602   14.1377 N   0  0  0  0  0  0  0  0  0  0  0  0
   13.1761   12.2655   13.5937 C   0  0  2  0  0  0  0  0  0  0  0  0
   13.7290   12.7074   12.3098 C   0  0  0  0  0  0  0  0  0  0  0  0
   14.9457   12.5554   12.0733 O   0  0  0  0  0  0  0  0  0  0  0  0
   13.2540   13.3529   14.6520 C   0  0  0  0  0  0  0  0  0  0  0  0
   13.8523   12.5961   15.8310 C   0  0  0  0  0  0  0  0  0  0  0  0
   14.6802   11.5208   15.1555 C   0  0  0  0  0  0  0  0  0  0  0  0
   12.8827   13.3101   11.3333 N   0  0  0  0  0  0  0  0  0  0  0  0
   13.2290   13.4844    9.9401 C   0  0  2  0  0  0  0  0  0  0  0  0
   14.1550   14.6034    9.8215 C   0  0  0  0  0  0  0  0  0  0  0  0
   13.7669   15.7335   10.2269 O   0  0  0  0  0  0  0  0  0  0  0  0
   11.9769   13.6452    9.1189 C   0  0  0  0  0  0  0  0  0  0  0  0
   15.4736   14.5591    9.2903 N   0  0  0  0  0  0  0  0  0  0  0  0
   16.2735   15.7344    9.0579 C   0  0  1  0  0  0  0  0  0  0  0  0
   17.5601   15.7672    9.7877 C   0  0  1  0  0  0  0  0  0  0  0  0
   17.5320   16.4948   11.0926 C   0  0  0  0  0  0  0  0  0  0  0  0
   18.0636   14.4843   10.0612 O   0  0  0  0  0  0  0  0  0  0  0  0
   19.6833   14.3236    9.7363 P   0  0  2  0  0  5  0  0  0  0  0  0
   20.5762   15.0886   10.9518 O   0  0  0  0  0  0  0  0  0  0  0  0
   20.1037   15.0012    8.4295 O   0  0  0  0  0  0  0  0  0  0  0  0
   20.2229   12.7408    9.6433 O   0  0  0  0  0  0  0  0  0  0  0  0
   16.3632   16.0779    7.6137 C   0  0  0  0  0  0  0  0  0  0  0  0
   16.1006   15.2363    6.7222 O   0  0  0  0  0  0  0  0  0  0  0  0
   16.7525   17.3755    7.1696 N   0  0  0  0  0  0  0  0  0  0  0  0
   16.9574   17.6131    5.7720 C   0  0  2  0  0  0  0  0  0  0  0  0
   18.2853   18.2486    5.5227 C   0  0  0  0  0  0  0  0  0  0  0  0
   19.0219   18.5545    6.4864 O   0  0  0  0  0  0  0  0  0  0  0  0
   15.8960   18.4577    5.1185 C   0  0  1  0  0  0  0  0  0  0  0  0
   16.1424   18.5469    3.6071 C   0  0  0  0  0  0  0  0  0  0  0  0
   14.5152   17.9513    5.3458 C   0  0  0  0  0  0  0  0  0  0  0  0
   18.7295   18.5112    4.2416 O   0  0  0  0  0  0  0  0  0  0  0  0
  2  1  1  6
  2  3  1  0
  2  5  1  0
  3  4  2  0
  3 12  1  0
  5  6  1  0
  6  7  2  0
  6  8  1  0
  7  9  1  0
  8 10  2  0
  9 11  2  0
 10 11  1  0
 12 13  1  0
 12 18  1  0
 13 14  1  6
 13 16  1  0
 14 15  2  0
 14 19  1  0
 16 17  1  0
 17 18  1  0
 19 20  1  0
 20 21  1  0
 20 23  1  6
 21 22  2  0
 21 24  1  0
 25 24  1  6
 25 26  1  0
 25 33  1  0
 26 27  1  1
 26 28  1  0
 28 29  1  0
 29 30  1  1
 29 31  2  0
 29 32  1  0
 33 34  2  0
 33 35  1  0
 36 35  1  1
 36 37  1  0
 36 39  1  0
 37 38  2  0
 37 42  1  0
 39 40  1  6
 39 41  1  0
M  CHG  1   1   1
M  END
$$$$
