
     RDKit          3D

 42 43  0  0  0  0  0  0  0  0999 V2000
   15.0775   11.9872   17.5780 N   0  0  0  0  0  4  0  0  0  0  0  0
   14.2073   11.2236   16.7432 C   0  0  2  0  0  0  0  0  0  0  0  0
   14.3044   11.3888   15.3084 C   0  0  0  0  0  0  0  0  0  0  0  0
   15.4404   11.8871   14.9058 O   0  0  0  0  0  0  0  0  0  0  0  0
   12.8057   11.2695   17.2982 C   0  0  0  0  0  0  0  0  0  0  0  0
   12.3963   10.1538   18.1377 C   0  0  0  0  0  0  0  0  0  0  0  0
   12.9857    8.9053   18.0054 C   0  0  0  0  0  0  0  0  0  0  0  0
   11.4301   10.2987   19.0982 C   0  0  0  0  0  0  0  0  0  0  0  0
   12.6331    7.8199   18.8011 C   0  0  0  0  0  0  0  0  0  0  0  0
   11.0796    9.2218   19.8878 C   0  0  0  0  0  0  0  0  0  0  0  0
   11.6583    7.9895   19.7596 C   0  0  0  0  0  0  0  0  0  0  0  0
   13.3531   11.0895   14.3179 N   0  0  0  0  0  0  0  0  0  0  0  0
   13.3410   11.0694   12.8984 C   0  0  2  0  0  0  0  0  0  0  0  0
   13.1796   12.3566   12.2155 C   0  0  0  0  0  0  0  0  0  0  0  0
   13.5401   13.4091   12.7828 O   0  0  0  0  0  0  0  0  0  0  0  0
   12.3202   10.0451   12.4321 C   0  0  0  0  0  0  0  0  0  0  0  0
   11.7974    9.5033   13.7564 C   0  0  0  0  0  0  0  0  0  0  0  0
   11.9688   10.6823   14.6937 C   0  0  0  0  0  0  0  0  0  0  0  0
   12.6121   12.4095   10.9085 N   0  0  0  0  0  0  0  0  0  0  0  0
   12.6261   13.5750   10.0525 C   0  0  2  0  0  0  0  0  0  0  0  0
   13.9857   14.0958    9.9885 C   0  0  0  0  0  0  0  0  0  0  0  0
   14.7387   13.8979   10.9815 O   0  0  0  0  0  0  0  0  0  0  0  0
   11.6156   14.5792   10.5408 C   0  0  0  0  0  0  0  0  0  0  0  0
   14.5673   14.8148    8.9079 N   0  0  0  0  0  0  0  0  0  0  0  0
   15.9213   15.3062    8.9216 C   0  0  1  0  0  0  0  0  0  0  0  0
   16.9563   14.2755    9.1570 C   0  0  1  0  0  0  0  0  0  0  0  0
   16.7893   13.4826   10.4125 C   0  0  0  0  0  0  0  0  0  0  0  0
   17.0443   13.3432    8.1095 O   0  0  0  0  0  0  0  0  0  0  0  0
   18.2419   12.2143    8.3242 P   0  0  2  0  0  5  0  0  0  0  0  0
   17.8621   11.2423    9.6549 O   0  0  0  0  0  0  0  0  0  0  0  0
   19.6032   12.8367    8.6453 O   0  0  0  0  0  0  0  0  0  0  0  0
   18.4839   11.1960    7.0168 O   0  0  0  0  0  0  0  0  0  0  0  0
   16.1985   16.2245    7.7851 C   0  0  0  0  0  0  0  0  0  0  0  0
   15.2802   16.6408    7.0398 O   0  0  0  0  0  0  0  0  0  0  0  0
   17.5169   16.6759    7.4840 N   0  0  0  0  0  0  0  0  0  0  0  0
   17.7386   17.4925    6.3283 C   0  0  2  0  0  0  0  0  0  0  0  0
   19.1662   17.9204    6.2369 C   0  0  0  0  0  0  0  0  0  0  0  0
   19.9513   17.6810    7.1808 O   0  0  0  0  0  0  0  0  0  0  0  0
   16.8688   18.7192    6.2525 C   0  0  1  0  0  0  0  0  0  0  0  0
   17.5981   19.9269    6.8547 C   0  0  0  0  0  0  0  0  0  0  0  0
   16.4487   19.0606    4.8662 C   0  0  0  0  0  0  0  0  0  0  0  0
   19.6507   18.5811    5.1251 O   0  0  0  0  0  0  0  0  0  0  0  0
  2  1  1  1
  2  3  1  0
  2  5  1  0
  3  4  2  0
  3 12  1  0
  5  6  1  0
  6  7  2  0
  6  8  1  0
  7  9  1  0
  8 10  2  0
  9 11  2  0
 10 11  1  0
 12 13  1  0
 12 18  1  0
 13 14  1  6
 13 16  1  0
 14 15  2  0
 14 19  1  0
 16 17  1  0
 17 18  1  0
 19 20  1  0
 20 21  1  0
 20 23  1  1
 21 22  2  0
 21 24  1  0
 25 24  1  6
 25 26  1  0
 25 33  1  0
 26 27  1  1
 26 28  1  0
 28 29  1  0
 29 30  1  1
 29 31  2  0
 29 32  1  0
 33 34  2  0
 33 35  1  0
 36 35  1  1
 36 37  1  0
 36 39  1  0
 37 38  2  0
 37 42  1  0
 39 40  1  6
 39 41  1  0
M  CHG  1   1   1
M  END
$$$$
