
     RDKit          3D

 42 43  0  0  0  0  0  0  0  0999 V2000
   13.9131    7.9018   15.0980 N   0  0  0  0  0  4  0  0  0  0  0  0
   14.5594    8.5493   14.0025 C   0  0  2  0  0  0  0  0  0  0  0  0
   13.9523    9.7403   13.4471 C   0  0  0  0  0  0  0  0  0  0  0  0
   13.1930    9.5166   12.4105 O   0  0  0  0  0  0  0  0  0  0  0  0
   14.9893    7.5190   12.9885 C   0  0  0  0  0  0  0  0  0  0  0  0
   16.3506    7.6227   12.4852 C   0  0  0  0  0  0  0  0  0  0  0  0
   16.9231    6.5926   11.7541 C   0  0  0  0  0  0  0  0  0  0  0  0
   17.1082    8.7441   12.6986 C   0  0  0  0  0  0  0  0  0  0  0  0
   18.2149    6.6625   11.2421 C   0  0  0  0  0  0  0  0  0  0  0  0
   18.3901    8.8138   12.1910 C   0  0  0  0  0  0  0  0  0  0  0  0
   18.9578    7.7998   11.4702 C   0  0  0  0  0  0  0  0  0  0  0  0
   14.0750   11.0748   13.8710 N   0  0  0  0  0  0  0  0  0  0  0  0
   13.5085   12.3171   13.4820 C   0  0  2  0  0  0  0  0  0  0  0  0
   14.0845   12.9718   12.3034 C   0  0  0  0  0  0  0  0  0  0  0  0
   15.2672   12.7360   11.9790 O   0  0  0  0  0  0  0  0  0  0  0  0
   13.4780   13.2402   14.6885 C   0  0  0  0  0  0  0  0  0  0  0  0
   14.0733   12.3521   15.7736 C   0  0  0  0  0  0  0  0  0  0  0  0
   14.9913   11.4340   14.9911 C   0  0  0  0  0  0  0  0  0  0  0  0
   13.2995   13.8760   11.5293 N   0  0  0  0  0  0  0  0  0  0  0  0
   13.5500   14.2032   10.1431 C   0  0  2  0  0  0  0  0  0  0  0  0
   14.4479   15.3496   10.0847 C   0  0  0  0  0  0  0  0  0  0  0  0
   13.9461   16.4769    9.8213 O   0  0  0  0  0  0  0  0  0  0  0  0
   12.2438   14.4203    9.4257 C   0  0  0  0  0  0  0  0  0  0  0  0
   15.8541   15.3358   10.2978 N   0  0  0  0  0  0  0  0  0  0  0  0
   16.7680   16.2093    9.6074 C   0  0  1  0  0  0  0  0  0  0  0  0
   18.1971   15.9908    9.9220 C   0  0  1  0  0  0  0  0  0  0  0  0
   18.5548   16.1098   11.3680 C   0  0  0  0  0  0  0  0  0  0  0  0
   18.6607   14.7326    9.5024 O   0  0  0  0  0  0  0  0  0  0  0  0
   20.2556   14.4562    9.8698 P   0  0  2  0  0  5  0  0  0  0  0  0
   20.7512   13.0063    9.1544 O   0  0  0  0  0  0  0  0  0  0  0  0
   20.5043   14.2802   11.3700 O   0  0  0  0  0  0  0  0  0  0  0  0
   21.3083   15.6519    9.3529 O   0  0  0  0  0  0  0  0  0  0  0  0
   16.4552   16.3192    8.1576 C   0  0  0  0  0  0  0  0  0  0  0  0
   15.4496   15.7598    7.6598 O   0  0  0  0  0  0  0  0  0  0  0  0
   17.2796   17.0615    7.2621 N   0  0  0  0  0  0  0  0  0  0  0  0
   16.9134   17.1609    5.8809 C   0  0  2  0  0  0  0  0  0  0  0  0
   18.1215   17.2608    5.0091 C   0  0  0  0  0  0  0  0  0  0  0  0
   19.1165   17.9141    5.3936 O   0  0  0  0  0  0  0  0  0  0  0  0
   15.9973   18.3113    5.5574 C   0  0  1  0  0  0  0  0  0  0  0  0
   14.5551   17.9711    5.9544 C   0  0  0  0  0  0  0  0  0  0  0  0
   16.3869   19.5826    6.2259 C   0  0  0  0  0  0  0  0  0  0  0  0
   18.1724   16.6438    3.7746 O   0  0  0  0  0  0  0  0  0  0  0  0
  2  1  1  1
  2  3  1  0
  2  5  1  0
  3  4  2  0
  3 12  1  0
  5  6  1  0
  6  7  2  0
  6  8  1  0
  7  9  1  0
  8 10  2  0
  9 11  2  0
 10 11  1  0
 12 13  1  0
 12 18  1  0
 13 14  1  6
 13 16  1  0
 14 15  2  0
 14 19  1  0
 16 17  1  0
 17 18  1  0
 19 20  1  0
 20 21  1  0
 20 23  1  1
 21 22  2  0
 21 24  1  0
 25 24  1  6
 25 26  1  0
 25 33  1  0
 26 27  1  1
 26 28  1  0
 28 29  1  0
 29 30  1  6
 29 31  2  0
 29 32  1  0
 33 34  2  0
 33 35  1  0
 36 35  1  1
 36 37  1  0
 36 39  1  0
 37 38  2  0
 37 42  1  0
 39 40  1  1
 39 41  1  0
M  CHG  1   1   1
M  END
$$$$
