
     RDKit          3D

 42 43  0  0  0  0  0  0  0  0999 V2000
   13.2607    8.4030   15.3036 N   0  0  0  0  0  4  0  0  0  0  0  0
   12.2184    9.0306   14.5573 C   0  0  2  0  0  0  0  0  0  0  0  0
   12.5727    9.7842   13.3732 C   0  0  0  0  0  0  0  0  0  0  0  0
   13.7544    9.5038   12.8979 O   0  0  0  0  0  0  0  0  0  0  0  0
   11.2722    9.7302   15.5005 C   0  0  0  0  0  0  0  0  0  0  0  0
   11.8170   10.8338   16.2767 C   0  0  0  0  0  0  0  0  0  0  0  0
   11.1799   11.2849   17.4230 C   0  0  0  0  0  0  0  0  0  0  0  0
   12.9841   11.4539   15.9159 C   0  0  0  0  0  0  0  0  0  0  0  0
   11.6793   12.3253   18.2001 C   0  0  0  0  0  0  0  0  0  0  0  0
   13.4800   12.4864   16.6865 C   0  0  0  0  0  0  0  0  0  0  0  0
   12.8541   12.9341   17.8169 C   0  0  0  0  0  0  0  0  0  0  0  0
   11.8247   10.7572   12.6881 N   0  0  0  0  0  0  0  0  0  0  0  0
   12.0352   11.5820   11.5520 C   0  0  2  0  0  0  0  0  0  0  0  0
   12.8371   12.7936   11.7479 C   0  0  0  0  0  0  0  0  0  0  0  0
   12.4607   13.6610   12.5637 O   0  0  0  0  0  0  0  0  0  0  0  0
   10.6910   11.8858   10.9119 C   0  0  0  0  0  0  0  0  0  0  0  0
    9.7359   11.1190   11.8177 C   0  0  0  0  0  0  0  0  0  0  0  0
   10.4567   11.1277   13.1512 C   0  0  0  0  0  0  0  0  0  0  0  0
   14.0421   12.9839   11.0099 N   0  0  0  0  0  0  0  0  0  0  0  0
   15.0078   14.0291   11.2676 C   0  0  2  0  0  0  0  0  0  0  0  0
   15.2502   14.7615   10.0312 C   0  0  0  0  0  0  0  0  0  0  0  0
   15.1030   14.1416    8.9420 O   0  0  0  0  0  0  0  0  0  0  0  0
   16.2523   13.4363   11.8740 C   0  0  0  0  0  0  0  0  0  0  0  0
   15.6403   16.1244    9.9165 N   0  0  0  0  0  0  0  0  0  0  0  0
   16.8405   16.5505    9.2435 C   0  0  1  0  0  0  0  0  0  0  0  0
   18.0962   16.0006    9.8002 C   0  0  1  0  0  0  0  0  0  0  0  0
   18.0446   15.6407   11.2496 C   0  0  0  0  0  0  0  0  0  0  0  0
   18.5341   14.8502    9.1227 O   0  0  0  0  0  0  0  0  0  0  0  0
   20.0369   14.3309    9.5988 P   0  0  2  0  0  5  0  0  0  0  0  0
   20.4467   12.9365    8.7343 O   0  0  0  0  0  0  0  0  0  0  0  0
   20.0938   13.9305   11.0753 O   0  0  0  0  0  0  0  0  0  0  0  0
   21.2669   15.4428    9.3625 O   0  0  0  0  0  0  0  0  0  0  0  0
   16.7186   16.4605    7.7641 C   0  0  0  0  0  0  0  0  0  0  0  0
   15.9645   15.6205    7.2184 O   0  0  0  0  0  0  0  0  0  0  0  0
   17.4507   17.3195    6.8930 N   0  0  0  0  0  0  0  0  0  0  0  0
   17.2294   17.2494    5.4796 C   0  0  2  0  0  0  0  0  0  0  0  0
   18.1918   18.1189    4.7399 C   0  0  0  0  0  0  0  0  0  0  0  0
   18.2957   18.0189    3.4974 O   0  0  0  0  0  0  0  0  0  0  0  0
   15.8332   17.6096    5.0460 C   0  0  1  0  0  0  0  0  0  0  0  0
   14.9011   17.6849    6.2620 C   0  0  0  0  0  0  0  0  0  0  0  0
   15.7582   18.9003    4.3089 C   0  0  0  0  0  0  0  0  0  0  0  0
   18.9804   19.0428    5.3972 O   0  0  0  0  0  0  0  0  0  0  0  0
  2  1  1  1
  2  3  1  0
  2  5  1  0
  3  4  2  0
  3 12  1  0
  5  6  1  0
  6  7  2  0
  6  8  1  0
  7  9  1  0
  8 10  2  0
  9 11  2  0
 10 11  1  0
 12 13  1  0
 12 18  1  0
 13 14  1  1
 13 16  1  0
 14 15  2  0
 14 19  1  0
 16 17  1  0
 17 18  1  0
 19 20  1  0
 20 21  1  0
 20 23  1  6
 21 22  2  0
 21 24  1  0
 25 24  1  1
 25 26  1  0
 25 33  1  0
 26 27  1  1
 26 28  1  0
 28 29  1  0
 29 30  1  6
 29 31  2  0
 29 32  1  0
 33 34  2  0
 33 35  1  0
 36 35  1  1
 36 37  1  0
 36 39  1  0
 37 38  2  0
 37 42  1  0
 39 40  1  1
 39 41  1  0
M  CHG  1   1   1
M  END
$$$$
