
     RDKit          3D

 42 43  0  0  0  0  0  0  0  0999 V2000
   11.1198   -8.8936  -15.3010 N   0  0  0  0  0  4  0  0  0  0  0  0
   10.7254   -9.7925  -14.2648 C   0  0  2  0  0  0  0  0  0  0  0  0
   11.7550  -10.5058  -13.5391 C   0  0  0  0  0  0  0  0  0  0  0  0
   12.5621  -11.1934  -14.2986 O   0  0  0  0  0  0  0  0  0  0  0  0
    9.5756  -10.6428  -14.7438 C   0  0  0  0  0  0  0  0  0  0  0  0
    8.2360  -10.1778  -14.4172 C   0  0  0  0  0  0  0  0  0  0  0  0
    7.6348  -10.5169  -13.2143 C   0  0  0  0  0  0  0  0  0  0  0  0
    7.5287   -9.3766  -15.2744 C   0  0  0  0  0  0  0  0  0  0  0  0
    6.3633  -10.0775  -12.8598 C   0  0  0  0  0  0  0  0  0  0  0  0
    6.2668   -8.9405  -14.9232 C   0  0  0  0  0  0  0  0  0  0  0  0
    5.6709   -9.2734  -13.7382 C   0  0  0  0  0  0  0  0  0  0  0  0
   11.9891  -10.5523  -12.1539 N   0  0  0  0  0  0  0  0  0  0  0  0
   12.9202  -11.2072  -11.3056 C   0  0  2  0  0  0  0  0  0  0  0  0
   12.6563  -12.6136  -10.9871 C   0  0  0  0  0  0  0  0  0  0  0  0
   11.7756  -13.2371  -11.6158 O   0  0  0  0  0  0  0  0  0  0  0  0
   13.1177  -10.3671  -10.0550 C   0  0  0  0  0  0  0  0  0  0  0  0
   12.2046   -9.1796  -10.3316 C   0  0  0  0  0  0  0  0  0  0  0  0
   11.1275   -9.7812  -11.2125 C   0  0  0  0  0  0  0  0  0  0  0  0
   13.4003  -13.2694   -9.9626 N   0  0  0  0  0  0  0  0  0  0  0  0
   14.1938  -14.4625  -10.1582 C   0  0  2  0  0  0  0  0  0  0  0  0
   15.3590  -14.4014   -9.2851 C   0  0  0  0  0  0  0  0  0  0  0  0
   16.3061  -13.6382   -9.6207 O   0  0  0  0  0  0  0  0  0  0  0  0
   14.5375  -14.6137  -11.6167 C   0  0  0  0  0  0  0  0  0  0  0  0
   15.5476  -15.1207   -8.0727 N   0  0  0  0  0  0  0  0  0  0  0  0
   16.8403  -15.3458   -7.4786 C   0  0  1  0  0  0  0  0  0  0  0  0
   17.1223  -16.7515   -7.1131 C   0  0  1  0  0  0  0  0  0  0  0  0
   17.6300  -17.6080   -8.2274 C   0  0  0  0  0  0  0  0  0  0  0  0
   18.0563  -16.8658   -6.0697 O   0  0  0  0  0  0  0  0  0  0  0  0
   17.8568  -18.2307   -5.1466 P   0  0  2  0  0  5  0  0  0  0  0  0
   17.9795  -19.5973   -6.1351 O   0  0  0  0  0  0  0  0  0  0  0  0
   16.4744  -18.3179   -4.4947 O   0  0  0  0  0  0  0  0  0  0  0  0
   18.9742  -18.4076   -3.9116 O   0  0  0  0  0  0  0  0  0  0  0  0
   17.9298  -14.6617   -8.2248 C   0  0  0  0  0  0  0  0  0  0  0  0
   17.8817  -14.5178   -9.4693 O   0  0  0  0  0  0  0  0  0  0  0  0
   19.0812  -14.1378   -7.5672 N   0  0  0  0  0  0  0  0  0  0  0  0
   20.1029  -13.4924   -8.3361 C   0  0  2  0  0  0  0  0  0  0  0  0
   21.4407  -14.1009   -8.0726 C   0  0  0  0  0  0  0  0  0  0  0  0
   21.5767  -14.9340   -7.1495 O   0  0  0  0  0  0  0  0  0  0  0  0
   20.2054  -12.0061   -8.1183 C   0  0  1  0  0  0  0  0  0  0  0  0
   18.9298  -11.3074   -8.6062 C   0  0  0  0  0  0  0  0  0  0  0  0
   20.4381  -11.6321   -6.6968 C   0  0  0  0  0  0  0  0  0  0  0  0
   22.5465  -13.7659   -8.8293 O   0  0  0  0  0  0  0  0  0  0  0  0
  2  1  1  6
  2  3  1  0
  2  5  1  0
  3  4  2  0
  3 12  1  0
  5  6  1  0
  6  7  2  0
  6  8  1  0
  7  9  1  0
  8 10  2  0
  9 11  2  0
 10 11  1  0
 12 13  1  0
 12 18  1  0
 13 14  1  1
 13 16  1  0
 14 15  2  0
 14 19  1  0
 16 17  1  0
 17 18  1  0
 19 20  1  0
 20 21  1  0
 20 23  1  6
 21 22  2  0
 21 24  1  0
 25 24  1  6
 25 26  1  0
 25 33  1  0
 26 27  1  6
 26 28  1  0
 28 29  1  0
 29 30  1  6
 29 31  2  0
 29 32  1  0
 33 34  2  0
 33 35  1  0
 36 35  1  1
 36 37  1  0
 36 39  1  0
 37 38  2  0
 37 42  1  0
 39 40  1  1
 39 41  1  0
M  CHG  1   1   1
M  END
$$$$
