
     RDKit          3D

 42 43  0  0  0  0  0  0  0  0999 V2000
   15.7427   -7.7313   -9.0287 N   0  0  0  0  0  4  0  0  0  0  0  0
   14.7722   -7.6883  -10.0744 C   0  0  2  0  0  0  0  0  0  0  0  0
   14.2067   -8.9350  -10.5450 C   0  0  0  0  0  0  0  0  0  0  0  0
   12.9371   -9.0762  -10.2822 O   0  0  0  0  0  0  0  0  0  0  0  0
   15.2382   -6.7487  -11.1582 C   0  0  0  0  0  0  0  0  0  0  0  0
   16.5997   -6.9268  -11.6394 C   0  0  0  0  0  0  0  0  0  0  0  0
   17.4263   -7.9021  -11.1017 C   0  0  0  0  0  0  0  0  0  0  0  0
   17.1080   -6.1532  -12.6494 C   0  0  0  0  0  0  0  0  0  0  0  0
   18.7272   -8.1136  -11.5475 C   0  0  0  0  0  0  0  0  0  0  0  0
   18.3988   -6.3625  -13.0918 C   0  0  0  0  0  0  0  0  0  0  0  0
   19.2166   -7.3227  -12.5636 C   0  0  0  0  0  0  0  0  0  0  0  0
   14.8366   -9.9881  -11.2307 N   0  0  0  0  0  0  0  0  0  0  0  0
   14.4256  -11.2371  -11.7658 C   0  0  2  0  0  0  0  0  0  0  0  0
   14.2908  -12.3531  -10.8246 C   0  0  0  0  0  0  0  0  0  0  0  0
   15.0093  -12.3936   -9.8039 O   0  0  0  0  0  0  0  0  0  0  0  0
   15.3257  -11.5868  -12.9389 C   0  0  0  0  0  0  0  0  0  0  0  0
   16.2545  -10.3803  -12.9876 C   0  0  0  0  0  0  0  0  0  0  0  0
   16.2935   -9.9270  -11.5416 C   0  0  0  0  0  0  0  0  0  0  0  0
   13.3442  -13.3903  -11.0719 N   0  0  0  0  0  0  0  0  0  0  0  0
   12.9183  -14.3654  -10.0926 C   0  0  2  0  0  0  0  0  0  0  0  0
   14.0213  -15.2807   -9.8290 C   0  0  0  0  0  0  0  0  0  0  0  0
   13.7499  -16.3893   -9.2908 O   0  0  0  0  0  0  0  0  0  0  0  0
   11.6635  -15.0502  -10.5663 C   0  0  0  0  0  0  0  0  0  0  0  0
   15.3955  -15.0569  -10.1192 N   0  0  0  0  0  0  0  0  0  0  0  0
   16.4575  -15.8860   -9.6096 C   0  0  1  0  0  0  0  0  0  0  0  0
   17.8076  -15.5491  -10.1125 C   0  0  1  0  0  0  0  0  0  0  0  0
   17.8532  -15.0354  -11.5150 C   0  0  0  0  0  0  0  0  0  0  0  0
   18.4605  -14.5908   -9.3191 O   0  0  0  0  0  0  0  0  0  0  0  0
   19.9251  -14.1074   -9.9325 P   0  0  2  0  0  5  0  0  0  0  0  0
   20.9332  -15.4547  -10.1005 O   0  0  0  0  0  0  0  0  0  0  0  0
   20.6754  -13.1456   -9.0075 O   0  0  0  0  0  0  0  0  0  0  0  0
   19.8425  -13.3577  -11.4279 O   0  0  0  0  0  0  0  0  0  0  0  0
   16.3666  -16.0758   -8.1374 C   0  0  0  0  0  0  0  0  0  0  0  0
   15.4489  -15.5498   -7.4641 O   0  0  0  0  0  0  0  0  0  0  0  0
   17.3147  -16.8607   -7.4178 N   0  0  0  0  0  0  0  0  0  0  0  0
   17.1145  -17.1074   -6.0211 C   0  0  2  0  0  0  0  0  0  0  0  0
   18.3956  -17.4798   -5.3508 C   0  0  0  0  0  0  0  0  0  0  0  0
   19.3736  -17.8521   -6.0362 O   0  0  0  0  0  0  0  0  0  0  0  0
   16.0911  -18.1681   -5.7133 C   0  0  1  0  0  0  0  0  0  0  0  0
   16.3052  -18.7195   -4.2980 C   0  0  0  0  0  0  0  0  0  0  0  0
   14.6878  -17.6861   -5.8284 C   0  0  0  0  0  0  0  0  0  0  0  0
   18.5335  -17.4234   -3.9777 O   0  0  0  0  0  0  0  0  0  0  0  0
  2  1  1  1
  2  3  1  0
  2  5  1  0
  3  4  2  0
  3 12  1  0
  5  6  1  0
  6  7  2  0
  6  8  1  0
  7  9  1  0
  8 10  2  0
  9 11  2  0
 10 11  1  0
 12 13  1  0
 12 18  1  0
 13 14  1  1
 13 16  1  0
 14 15  2  0
 14 19  1  0
 16 17  1  0
 17 18  1  0
 19 20  1  0
 20 21  1  0
 20 23  1  6
 21 22  2  0
 21 24  1  0
 25 24  1  1
 25 26  1  0
 25 33  1  0
 26 27  1  6
 26 28  1  0
 28 29  1  0
 29 30  1  6
 29 31  2  0
 29 32  1  0
 33 34  2  0
 33 35  1  0
 36 35  1  6
 36 37  1  0
 36 39  1  0
 37 38  2  0
 37 42  1  0
 39 40  1  1
 39 41  1  0
M  CHG  1   1   1
M  END
$$$$
