
     RDKit          3D

 42 43  0  0  0  0  0  0  0  0999 V2000
   15.3149   -7.7327  -14.3777 N   0  0  0  0  0  4  0  0  0  0  0  0
   14.8887   -9.0492  -14.7273 C   0  0  2  0  0  0  0  0  0  0  0  0
   13.9990   -9.7503  -13.8260 C   0  0  0  0  0  0  0  0  0  0  0  0
   13.8231   -9.1527  -12.6802 O   0  0  0  0  0  0  0  0  0  0  0  0
   16.0706   -9.8515  -15.2108 C   0  0  0  0  0  0  0  0  0  0  0  0
   17.2963   -9.1153  -15.4810 C   0  0  0  0  0  0  0  0  0  0  0  0
   18.4416   -9.7673  -15.9130 C   0  0  0  0  0  0  0  0  0  0  0  0
   17.3594   -7.7544  -15.3364 C   0  0  0  0  0  0  0  0  0  0  0  0
   19.6263   -9.0956  -16.1978 C   0  0  0  0  0  0  0  0  0  0  0  0
   18.5347   -7.0874  -15.6187 C   0  0  0  0  0  0  0  0  0  0  0  0
   19.6659   -7.7272  -16.0443 C   0  0  0  0  0  0  0  0  0  0  0  0
   13.3184  -10.9644  -14.0227 N   0  0  0  0  0  0  0  0  0  0  0  0
   12.4356  -11.7667  -13.2530 C   0  0  2  0  0  0  0  0  0  0  0  0
   13.0390  -12.6358  -12.2382 C   0  0  0  0  0  0  0  0  0  0  0  0
   13.8953  -13.4802  -12.5748 O   0  0  0  0  0  0  0  0  0  0  0  0
   11.5271  -12.5375  -14.1960 C   0  0  0  0  0  0  0  0  0  0  0  0
   12.0058  -12.0482  -15.5569 C   0  0  0  0  0  0  0  0  0  0  0  0
   13.4628  -11.7166  -15.3020 C   0  0  0  0  0  0  0  0  0  0  0  0
   12.6505  -12.5202  -10.8713 N   0  0  0  0  0  0  0  0  0  0  0  0
   12.4891  -13.6356   -9.9652 C   0  0  2  0  0  0  0  0  0  0  0  0
   13.6804  -14.4724  -10.0316 C   0  0  0  0  0  0  0  0  0  0  0  0
   13.6880  -15.4198  -10.8650 O   0  0  0  0  0  0  0  0  0  0  0  0
   11.2141  -14.3714  -10.2831 C   0  0  0  0  0  0  0  0  0  0  0  0
   14.8578  -14.3338   -9.2459 N   0  0  0  0  0  0  0  0  0  0  0  0
   15.8756  -15.3493   -9.1587 C   0  0  1  0  0  0  0  0  0  0  0  0
   17.1048  -15.0682   -9.9328 C   0  0  1  0  0  0  0  0  0  0  0  0
   16.8900  -14.7775  -11.3827 C   0  0  0  0  0  0  0  0  0  0  0  0
   17.8373  -13.9858   -9.4169 O   0  0  0  0  0  0  0  0  0  0  0  0
   19.2451  -13.6832  -10.2425 P   0  0  2  0  0  5  0  0  0  0  0  0
   20.3904  -14.8626   -9.8462 O   0  0  0  0  0  0  0  0  0  0  0  0
   19.8862  -12.3450   -9.8658 O   0  0  0  0  0  0  0  0  0  0  0  0
   19.0896  -13.6805  -11.9100 O   0  0  0  0  0  0  0  0  0  0  0  0
   16.1051  -15.7979   -7.7595 C   0  0  0  0  0  0  0  0  0  0  0  0
   15.6452  -15.1600   -6.7829 O   0  0  0  0  0  0  0  0  0  0  0  0
   16.8580  -16.9702   -7.4568 N   0  0  0  0  0  0  0  0  0  0  0  0
   17.2178  -17.2490   -6.0988 C   0  0  2  0  0  0  0  0  0  0  0  0
   18.7003  -17.2355   -5.9207 C   0  0  0  0  0  0  0  0  0  0  0  0
   19.4467  -17.0798   -6.9122 O   0  0  0  0  0  0  0  0  0  0  0  0
   16.6869  -18.5533   -5.5658 C   0  0  1  0  0  0  0  0  0  0  0  0
   17.8080  -19.5985   -5.5030 C   0  0  0  0  0  0  0  0  0  0  0  0
   16.0728  -18.4334   -4.2155 C   0  0  0  0  0  0  0  0  0  0  0  0
   19.2780  -17.3913   -4.6759 O   0  0  0  0  0  0  0  0  0  0  0  0
  2  1  1  1
  2  3  1  0
  2  5  1  0
  3  4  2  0
  3 12  1  0
  5  6  1  0
  6  7  2  0
  6  8  1  0
  7  9  1  0
  8 10  2  0
  9 11  2  0
 10 11  1  0
 12 13  1  0
 12 18  1  0
 13 14  1  6
 13 16  1  0
 14 15  2  0
 14 19  1  0
 16 17  1  0
 17 18  1  0
 19 20  1  0
 20 21  1  0
 20 23  1  6
 21 22  2  0
 21 24  1  0
 25 24  1  1
 25 26  1  0
 25 33  1  0
 26 27  1  6
 26 28  1  0
 28 29  1  0
 29 30  1  6
 29 31  2  0
 29 32  1  0
 33 34  2  0
 33 35  1  0
 36 35  1  6
 36 37  1  0
 36 39  1  0
 37 38  2  0
 37 42  1  0
 39 40  1  1
 39 41  1  0
M  CHG  1   1   1
M  END
$$$$
