
     RDKit          3D

 42 43  0  0  0  0  0  0  0  0999 V2000
   12.8199    8.2561   15.7968 N   0  0  0  0  0  4  0  0  0  0  0  0
   12.0333    8.9066   14.7992 C   0  0  2  0  0  0  0  0  0  0  0  0
   12.7095    9.5150   13.6732 C   0  0  0  0  0  0  0  0  0  0  0  0
   13.8903    9.0179   13.4296 O   0  0  0  0  0  0  0  0  0  0  0  0
   10.9909    9.7717   15.4621 C   0  0  0  0  0  0  0  0  0  0  0  0
   11.4471   10.6414   16.5359 C   0  0  0  0  0  0  0  0  0  0  0  0
   12.7865   10.6962   16.8914 C   0  0  0  0  0  0  0  0  0  0  0  0
   10.5771   11.4481   17.2208 C   0  0  0  0  0  0  0  0  0  0  0  0
   13.2625   11.5276   17.9003 C   0  0  0  0  0  0  0  0  0  0  0  0
   11.0489   12.2731   18.2222 C   0  0  0  0  0  0  0  0  0  0  0  0
   12.3687   12.3293   18.5756 C   0  0  0  0  0  0  0  0  0  0  0  0
   12.2673   10.5494   12.8304 N   0  0  0  0  0  0  0  0  0  0  0  0
   12.8387   11.3130   11.7788 C   0  0  2  0  0  0  0  0  0  0  0  0
   13.7096   12.4282   12.1627 C   0  0  0  0  0  0  0  0  0  0  0  0
   13.9743   12.6218   13.3677 O   0  0  0  0  0  0  0  0  0  0  0  0
   11.7313   11.7534   10.8362 C   0  0  0  0  0  0  0  0  0  0  0  0
   10.5038   11.1276   11.4860 C   0  0  0  0  0  0  0  0  0  0  0  0
   10.8826   11.0887   12.9533 C   0  0  0  0  0  0  0  0  0  0  0  0
   14.2527   13.2908   11.1657 N   0  0  0  0  0  0  0  0  0  0  0  0
   15.6411   13.6885   11.0903 C   0  0  2  0  0  0  0  0  0  0  0  0
   15.8105   14.5953    9.9620 C   0  0  0  0  0  0  0  0  0  0  0  0
   15.5925   14.1415    8.8050 O   0  0  0  0  0  0  0  0  0  0  0  0
   16.5192   12.4669   11.0222 C   0  0  0  0  0  0  0  0  0  0  0  0
   16.2004   15.9616   10.0245 N   0  0  0  0  0  0  0  0  0  0  0  0
   17.1749   16.5480    9.1406 C   0  0  1  0  0  0  0  0  0  0  0  0
   18.5815   16.2105    9.4513 C   0  0  1  0  0  0  0  0  0  0  0  0
   18.9686   16.3599   10.8869 C   0  0  0  0  0  0  0  0  0  0  0  0
   18.9196   14.8967    9.0855 O   0  0  0  0  0  0  0  0  0  0  0  0
   20.5152   14.5237    9.3495 P   0  0  2  0  0  5  0  0  0  0  0  0
   20.8197   12.9521    8.8045 O   0  0  0  0  0  0  0  0  0  0  0  0
   20.8947   14.5250   10.8326 O   0  0  0  0  0  0  0  0  0  0  0  0
   21.6052   15.5370    8.5814 O   0  0  0  0  0  0  0  0  0  0  0  0
   16.7969   16.4024    7.7097 C   0  0  0  0  0  0  0  0  0  0  0  0
   15.8524   15.6586    7.3537 O   0  0  0  0  0  0  0  0  0  0  0  0
   17.4866   17.0964    6.6727 N   0  0  0  0  0  0  0  0  0  0  0  0
   17.1343   16.8567    5.3052 C   0  0  2  0  0  0  0  0  0  0  0  0
   17.6457   17.9439    4.4187 C   0  0  0  0  0  0  0  0  0  0  0  0
   18.0237   19.0281    4.9150 O   0  0  0  0  0  0  0  0  0  0  0  0
   15.6577   16.6969    5.0580 C   0  0  1  0  0  0  0  0  0  0  0  0
   15.0124   18.0622    4.7880 C   0  0  0  0  0  0  0  0  0  0  0  0
   15.3439   15.7897    3.9208 C   0  0  0  0  0  0  0  0  0  0  0  0
   17.7148   17.7841    3.0486 O   0  0  0  0  0  0  0  0  0  0  0  0
  2  1  1  1
  2  3  1  0
  2  5  1  0
  3  4  2  0
  3 12  1  0
  5  6  1  0
  6  7  2  0
  6  8  1  0
  7  9  1  0
  8 10  2  0
  9 11  2  0
 10 11  1  0
 12 13  1  0
 12 18  1  0
 13 14  1  1
 13 16  1  0
 14 15  2  0
 14 19  1  0
 16 17  1  0
 17 18  1  0
 19 20  1  0
 20 21  1  0
 20 23  1  6
 21 22  2  0
 21 24  1  0
 25 24  1  1
 25 26  1  0
 25 33  1  0
 26 27  1  1
 26 28  1  0
 28 29  1  0
 29 30  1  6
 29 31  2  0
 29 32  1  0
 33 34  2  0
 33 35  1  0
 36 35  1  1
 36 37  1  0
 36 39  1  0
 37 38  2  0
 37 42  1  0
 39 40  1  6
 39 41  1  0
M  CHG  1   1   1
M  END
$$$$
