
     RDKit          3D

 42 43  0  0  0  0  0  0  0  0999 V2000
   10.3578   -9.2777  -15.8548 N   0  0  0  0  0  4  0  0  0  0  0  0
   11.4079   -9.2945  -14.8882 C   0  0  2  0  0  0  0  0  0  0  0  0
   12.1371  -10.5277  -14.6806 C   0  0  0  0  0  0  0  0  0  0  0  0
   11.9711  -11.4098  -15.6268 O   0  0  0  0  0  0  0  0  0  0  0  0
   10.9467   -8.6052  -13.6287 C   0  0  0  0  0  0  0  0  0  0  0  0
    9.7598   -9.1451  -12.9829 C   0  0  0  0  0  0  0  0  0  0  0  0
    9.7198  -10.4605  -12.5451 C   0  0  0  0  0  0  0  0  0  0  0  0
    8.6489   -8.3727  -12.7680 C   0  0  0  0  0  0  0  0  0  0  0  0
    8.6099  -11.0069  -11.9084 C   0  0  0  0  0  0  0  0  0  0  0  0
    7.5473   -8.9145  -12.1365 C   0  0  0  0  0  0  0  0  0  0  0  0
    7.5043  -10.2111  -11.7042 C   0  0  0  0  0  0  0  0  0  0  0  0
   12.9794  -10.8876  -13.6144 N   0  0  0  0  0  0  0  0  0  0  0  0
   13.8862  -11.9484  -13.3538 C   0  0  2  0  0  0  0  0  0  0  0  0
   13.3112  -13.2228  -12.9126 C   0  0  0  0  0  0  0  0  0  0  0  0
   12.2505  -13.6355  -13.4265 O   0  0  0  0  0  0  0  0  0  0  0  0
   14.9626  -11.4499  -12.4043 C   0  0  0  0  0  0  0  0  0  0  0  0
   14.5458   -9.9994  -12.1970 C   0  0  0  0  0  0  0  0  0  0  0  0
   13.0421  -10.0517  -12.3813 C   0  0  0  0  0  0  0  0  0  0  0  0
   13.9583  -13.9897  -11.8995 N   0  0  0  0  0  0  0  0  0  0  0  0
   13.3645  -14.3401  -10.6283 C   0  0  2  0  0  0  0  0  0  0  0  0
   14.3437  -15.0751   -9.8379 C   0  0  0  0  0  0  0  0  0  0  0  0
   13.9839  -15.5050   -8.7075 O   0  0  0  0  0  0  0  0  0  0  0  0
   12.0807  -15.0941  -10.8549 C   0  0  0  0  0  0  0  0  0  0  0  0
   15.6852  -15.3671  -10.2095 N   0  0  0  0  0  0  0  0  0  0  0  0
   16.5874  -16.1287   -9.3844 C   0  0  1  0  0  0  0  0  0  0  0  0
   18.0078  -16.0694   -9.7944 C   0  0  1  0  0  0  0  0  0  0  0  0
   18.2989  -16.6096  -11.1569 C   0  0  0  0  0  0  0  0  0  0  0  0
   18.5283  -14.7646   -9.7670 O   0  0  0  0  0  0  0  0  0  0  0  0
   20.1789  -14.7047   -9.9308 P   0  0  2  0  0  5  0  0  0  0  0  0
   20.7869  -13.4281   -9.0032 O   0  0  0  0  0  0  0  0  0  0  0  0
   20.6299  -14.4209  -11.3659 O   0  0  0  0  0  0  0  0  0  0  0  0
   20.9791  -16.0950   -9.4497 O   0  0  0  0  0  0  0  0  0  0  0  0
   16.3443  -15.9098   -7.9336 C   0  0  0  0  0  0  0  0  0  0  0  0
   15.3447  -15.2726   -7.5254 O   0  0  0  0  0  0  0  0  0  0  0  0
   17.2320  -16.4092   -6.9361 N   0  0  0  0  0  0  0  0  0  0  0  0
   16.9799  -16.1206   -5.5559 C   0  0  2  0  0  0  0  0  0  0  0  0
   18.2490  -16.0983   -4.7697 C   0  0  0  0  0  0  0  0  0  0  0  0
   18.2555  -15.6350   -3.6078 O   0  0  0  0  0  0  0  0  0  0  0  0
   16.0208  -17.0669   -4.8837 C   0  0  1  0  0  0  0  0  0  0  0  0
   14.7475  -17.2212   -5.7251 C   0  0  0  0  0  0  0  0  0  0  0  0
   16.5965  -18.4177   -4.6409 C   0  0  0  0  0  0  0  0  0  0  0  0
   19.4312  -16.5814   -5.2956 O   0  0  0  0  0  0  0  0  0  0  0  0
  2  1  1  6
  2  3  1  0
  2  5  1  0
  3  4  2  0
  3 12  1  0
  5  6  1  0
  6  7  2  0
  6  8  1  0
  7  9  1  0
  8 10  2  0
  9 11  2  0
 10 11  1  0
 12 13  1  0
 12 18  1  0
 13 14  1  1
 13 16  1  0
 14 15  2  0
 14 19  1  0
 16 17  1  0
 17 18  1  0
 19 20  1  0
 20 21  1  0
 20 23  1  6
 21 22  2  0
 21 24  1  0
 25 24  1  6
 25 26  1  0
 25 33  1  0
 26 27  1  6
 26 28  1  0
 28 29  1  0
 29 30  1  1
 29 31  2  0
 29 32  1  0
 33 34  2  0
 33 35  1  0
 36 35  1  6
 36 37  1  0
 36 39  1  0
 37 38  2  0
 37 42  1  0
 39 40  1  6
 39 41  1  0
M  CHG  1   1   1
M  END
$$$$
