
     RDKit          3D

 42 43  0  0  0  0  0  0  0  0999 V2000
   14.0947    9.4137   16.8390 N   0  0  0  0  0  4  0  0  0  0  0  0
   14.1914    9.4546   15.4156 C   0  0  2  0  0  0  0  0  0  0  0  0
   14.8202   10.6028   14.7977 C   0  0  0  0  0  0  0  0  0  0  0  0
   14.6625   11.7158   15.4590 O   0  0  0  0  0  0  0  0  0  0  0  0
   12.8741    9.0431   14.8075 C   0  0  0  0  0  0  0  0  0  0  0  0
   11.8493   10.0711   14.7062 C   0  0  0  0  0  0  0  0  0  0  0  0
   12.1049   11.2751   14.0671 C   0  0  0  0  0  0  0  0  0  0  0  0
   10.5936    9.8818   15.2205 C   0  0  0  0  0  0  0  0  0  0  0  0
   11.1456   12.2742   13.9355 C   0  0  0  0  0  0  0  0  0  0  0  0
    9.6415   10.8730   15.0904 C   0  0  0  0  0  0  0  0  0  0  0  0
    9.8903   12.0614   14.4614 C   0  0  0  0  0  0  0  0  0  0  0  0
   15.5594   10.6699   13.6040 N   0  0  0  0  0  0  0  0  0  0  0  0
   16.2312   11.6933   12.8852 C   0  0  2  0  0  0  0  0  0  0  0  0
   15.4065   12.5730   12.0513 C   0  0  0  0  0  0  0  0  0  0  0  0
   14.1821   12.3533   11.9403 O   0  0  0  0  0  0  0  0  0  0  0  0
   17.3736   11.0708   12.1002 C   0  0  0  0  0  0  0  0  0  0  0  0
   17.2539    9.6030   12.4899 C   0  0  0  0  0  0  0  0  0  0  0  0
   15.7728    9.4498   12.7741 C   0  0  0  0  0  0  0  0  0  0  0  0
   15.9980   13.6754   11.3673 N   0  0  0  0  0  0  0  0  0  0  0  0
   15.2648   14.8041   10.8383 C   0  0  2  0  0  0  0  0  0  0  0  0
   16.2137   15.8292   10.4230 C   0  0  0  0  0  0  0  0  0  0  0  0
   17.0175   16.2721   11.2890 O   0  0  0  0  0  0  0  0  0  0  0  0
   14.2622   15.2834   11.8548 C   0  0  0  0  0  0  0  0  0  0  0  0
   16.3356   16.3941    9.1235 N   0  0  0  0  0  0  0  0  0  0  0  0
   16.9251   15.6969    8.0093 C   0  0  1  0  0  0  0  0  0  0  0  0
   16.9648   14.2242    8.1456 C   0  0  1  0  0  0  0  0  0  0  0  0
   15.7575   13.5061    7.6359 C   0  0  0  0  0  0  0  0  0  0  0  0
   18.0704   13.6473    7.4984 O   0  0  0  0  0  0  0  0  0  0  0  0
   19.3239   13.2825    8.5234 P   0  0  2  0  0  5  0  0  0  0  0  0
   20.7847   13.3788    7.6770 O   0  0  0  0  0  0  0  0  0  0  0  0
   19.2578   11.8531    9.0676 O   0  0  0  0  0  0  0  0  0  0  0  0
   19.4526   14.2901    9.8550 O   0  0  0  0  0  0  0  0  0  0  0  0
   16.4160   16.1917    6.7024 C   0  0  0  0  0  0  0  0  0  0  0  0
   15.2027   16.1082    6.3976 O   0  0  0  0  0  0  0  0  0  0  0  0
   17.2772   16.7824    5.7319 N   0  0  0  0  0  0  0  0  0  0  0  0
   16.7297   17.6589    4.7401 C   0  0  2  0  0  0  0  0  0  0  0  0
   16.7676   17.0306    3.3861 C   0  0  0  0  0  0  0  0  0  0  0  0
   16.2540   17.6201    2.4097 O   0  0  0  0  0  0  0  0  0  0  0  0
   17.3974   19.0059    4.6579 C   0  0  1  0  0  0  0  0  0  0  0  0
   17.2996   19.7315    6.0059 C   0  0  0  0  0  0  0  0  0  0  0  0
   18.8298   18.9319    4.2609 C   0  0  0  0  0  0  0  0  0  0  0  0
   17.3619   15.8013    3.1784 O   0  0  0  0  0  0  0  0  0  0  0  0
  2  1  1  1
  2  3  1  0
  2  5  1  0
  3  4  2  0
  3 12  1  0
  5  6  1  0
  6  7  2  0
  6  8  1  0
  7  9  1  0
  8 10  2  0
  9 11  2  0
 10 11  1  0
 12 13  1  0
 12 18  1  0
 13 14  1  6
 13 16  1  0
 14 15  2  0
 14 19  1  0
 16 17  1  0
 17 18  1  0
 19 20  1  0
 20 21  1  0
 20 23  1  1
 21 22  2  0
 21 24  1  0
 25 24  1  1
 25 26  1  0
 25 33  1  0
 26 27  1  6
 26 28  1  0
 28 29  1  0
 29 30  1  6
 29 31  2  0
 29 32  1  0
 33 34  2  0
 33 35  1  0
 36 35  1  1
 36 37  1  0
 36 39  1  0
 37 38  2  0
 37 42  1  0
 39 40  1  1
 39 41  1  0
M  CHG  1   1   1
M  END
$$$$
