
     RDKit          3D

 42 43  0  0  0  0  0  0  0  0999 V2000
   12.7064   -7.1019  -13.9543 N   0  0  0  0  0  4  0  0  0  0  0  0
   13.3244   -8.3083  -14.4014 C   0  0  2  0  0  0  0  0  0  0  0  0
   12.9020   -9.5613  -13.8122 C   0  0  0  0  0  0  0  0  0  0  0  0
   11.9608   -9.4382  -12.9178 O   0  0  0  0  0  0  0  0  0  0  0  0
   14.8174   -8.1115  -14.4824 C   0  0  0  0  0  0  0  0  0  0  0  0
   15.5620   -8.2246  -13.2374 C   0  0  0  0  0  0  0  0  0  0  0  0
   14.9098   -8.4229  -12.0296 C   0  0  0  0  0  0  0  0  0  0  0  0
   16.9302   -8.1574  -13.2141 C   0  0  0  0  0  0  0  0  0  0  0  0
   15.5882   -8.5530  -10.8219 C   0  0  0  0  0  0  0  0  0  0  0  0
   17.6039   -8.2862  -12.0159 C   0  0  0  0  0  0  0  0  0  0  0  0
   16.9639   -8.4814  -10.8233 C   0  0  0  0  0  0  0  0  0  0  0  0
   13.3669  -10.8619  -14.0734 N   0  0  0  0  0  0  0  0  0  0  0  0
   13.0452  -12.1644  -13.6095 C   0  0  2  0  0  0  0  0  0  0  0  0
   13.6031  -12.5671  -12.3149 C   0  0  0  0  0  0  0  0  0  0  0  0
   14.7201  -12.1359  -11.9599 O   0  0  0  0  0  0  0  0  0  0  0  0
   13.3664  -13.1672  -14.7049 C   0  0  0  0  0  0  0  0  0  0  0  0
   13.8792  -12.2595  -15.8157 C   0  0  0  0  0  0  0  0  0  0  0  0
   14.4695  -11.0916  -15.0505 C   0  0  0  0  0  0  0  0  0  0  0  0
   12.8754  -13.4487  -11.4627 N   0  0  0  0  0  0  0  0  0  0  0  0
   13.1176  -13.6089  -10.0460 C   0  0  2  0  0  0  0  0  0  0  0  0
   14.0896  -14.6774   -9.8524 C   0  0  0  0  0  0  0  0  0  0  0  0
   13.7061  -15.8637  -10.0468 O   0  0  0  0  0  0  0  0  0  0  0  0
   11.8139  -13.8391   -9.3280 C   0  0  0  0  0  0  0  0  0  0  0  0
   15.4489  -14.5255   -9.4625 N   0  0  0  0  0  0  0  0  0  0  0  0
   16.2962  -15.6318   -9.0975 C   0  0  1  0  0  0  0  0  0  0  0  0
   17.5832  -15.6977   -9.8243 C   0  0  1  0  0  0  0  0  0  0  0  0
   17.5936  -16.5968  -11.0178 C   0  0  0  0  0  0  0  0  0  0  0  0
   18.0199  -14.4399  -10.2731 O   0  0  0  0  0  0  0  0  0  0  0  0
   19.6201  -14.1388   -9.9509 P   0  0  2  0  0  5  0  0  0  0  0  0
   19.8667  -14.1565   -8.2781 O   0  0  0  0  0  0  0  0  0  0  0  0
   20.0766  -12.7545  -10.4189 O   0  0  0  0  0  0  0  0  0  0  0  0
   20.6869  -15.2410  -10.6232 O   0  0  0  0  0  0  0  0  0  0  0  0
   16.3997  -15.7993   -7.6234 C   0  0  0  0  0  0  0  0  0  0  0  0
   15.7891  -15.0412   -6.8331 O   0  0  0  0  0  0  0  0  0  0  0  0
   17.1962  -16.8248   -7.0346 N   0  0  0  0  0  0  0  0  0  0  0  0
   17.1924  -16.9949   -5.6124 C   0  0  2  0  0  0  0  0  0  0  0  0
   18.3438  -17.8349   -5.1674 C   0  0  0  0  0  0  0  0  0  0  0  0
   18.6626  -17.8671   -3.9582 O   0  0  0  0  0  0  0  0  0  0  0  0
   15.9263  -17.5910   -5.0567 C   0  0  1  0  0  0  0  0  0  0  0  0
   14.7007  -16.9586   -5.7285 C   0  0  0  0  0  0  0  0  0  0  0  0
   15.8480  -19.0682   -5.2193 C   0  0  0  0  0  0  0  0  0  0  0  0
   19.0760  -18.5877   -6.0645 O   0  0  0  0  0  0  0  0  0  0  0  0
  2  1  1  1
  2  3  1  0
  2  5  1  0
  3  4  2  0
  3 12  1  0
  5  6  1  0
  6  7  2  0
  6  8  1  0
  7  9  1  0
  8 10  2  0
  9 11  2  0
 10 11  1  0
 12 13  1  0
 12 18  1  0
 13 14  1  1
 13 16  1  0
 14 15  2  0
 14 19  1  0
 16 17  1  0
 17 18  1  0
 19 20  1  0
 20 21  1  0
 20 23  1  1
 21 22  2  0
 21 24  1  0
 25 24  1  1
 25 26  1  0
 25 33  1  0
 26 27  1  6
 26 28  1  0
 28 29  1  0
 29 30  1  1
 29 31  2  0
 29 32  1  0
 33 34  2  0
 33 35  1  0
 36 35  1  6
 36 37  1  0
 36 39  1  0
 37 38  2  0
 37 42  1  0
 39 40  1  6
 39 41  1  0
M  CHG  1   1   1
M  END
$$$$
