
     RDKit          3D

 42 43  0  0  0  0  0  0  0  0999 V2000
   12.7832    7.5261   13.9363 N   0  0  0  0  0  4  0  0  0  0  0  0
   13.1228    8.7711   14.5461 C   0  0  2  0  0  0  0  0  0  0  0  0
   12.7000    9.9957   13.9004 C   0  0  0  0  0  0  0  0  0  0  0  0
   11.7875    9.8264   12.9840 O   0  0  0  0  0  0  0  0  0  0  0  0
   14.5666    8.7437   14.9810 C   0  0  0  0  0  0  0  0  0  0  0  0
   15.5691    8.8701   13.9339 C   0  0  0  0  0  0  0  0  0  0  0  0
   16.8319    9.3729   14.2099 C   0  0  0  0  0  0  0  0  0  0  0  0
   15.3102    8.4824   12.6457 C   0  0  0  0  0  0  0  0  0  0  0  0
   17.8215    9.4925   13.2393 C   0  0  0  0  0  0  0  0  0  0  0  0
   16.2917    8.6011   11.6822 C   0  0  0  0  0  0  0  0  0  0  0  0
   17.5375    9.0969   11.9508 C   0  0  0  0  0  0  0  0  0  0  0  0
   13.1379   11.3118   14.1282 N   0  0  0  0  0  0  0  0  0  0  0  0
   12.8442   12.5865   13.5766 C   0  0  2  0  0  0  0  0  0  0  0  0
   13.4930   12.9284   12.3071 C   0  0  0  0  0  0  0  0  0  0  0  0
   14.5854   12.4026   12.0077 O   0  0  0  0  0  0  0  0  0  0  0  0
   13.0797   13.6459   14.6401 C   0  0  0  0  0  0  0  0  0  0  0  0
   13.5147   12.7997   15.8298 C   0  0  0  0  0  0  0  0  0  0  0  0
   14.1651   11.6001   15.1697 C   0  0  0  0  0  0  0  0  0  0  0  0
   12.8814   13.8587   11.4163 N   0  0  0  0  0  0  0  0  0  0  0  0
   13.1089   13.9015    9.9888 C   0  0  2  0  0  0  0  0  0  0  0  0
   14.1592   14.8721    9.7083 C   0  0  0  0  0  0  0  0  0  0  0  0
   13.9332   16.0811    9.9901 O   0  0  0  0  0  0  0  0  0  0  0  0
   11.8145   14.1866    9.2738 C   0  0  0  0  0  0  0  0  0  0  0  0
   15.4353   14.5996    9.1424 N   0  0  0  0  0  0  0  0  0  0  0  0
   16.3937   15.6253    8.8198 C   0  0  1  0  0  0  0  0  0  0  0  0
   17.7318   15.4404    9.4234 C   0  0  1  0  0  0  0  0  0  0  0  0
   17.7594   15.4339   10.9175 C   0  0  0  0  0  0  0  0  0  0  0  0
   18.3552   14.2506    9.0114 O   0  0  0  0  0  0  0  0  0  0  0  0
   19.8609   14.0264    9.6727 P   0  0  2  0  0  5  0  0  0  0  0  0
   20.8426   15.3489    9.2896 O   0  0  0  0  0  0  0  0  0  0  0  0
   20.5863   12.8003    9.1122 O   0  0  0  0  0  0  0  0  0  0  0  0
   19.8740   13.8628   11.3394 O   0  0  0  0  0  0  0  0  0  0  0  0
   16.4005   15.9535    7.3693 C   0  0  0  0  0  0  0  0  0  0  0  0
   15.7890   15.2458    6.5343 O   0  0  0  0  0  0  0  0  0  0  0  0
   17.1009   17.0836    6.8547 N   0  0  0  0  0  0  0  0  0  0  0  0
   17.2146   17.2607    5.4378 C   0  0  2  0  0  0  0  0  0  0  0  0
   18.5731   17.7548    5.0640 C   0  0  0  0  0  0  0  0  0  0  0  0
   18.9158   17.7892    3.8615 O   0  0  0  0  0  0  0  0  0  0  0  0
   16.1902   18.1873    4.8387 C   0  0  1  0  0  0  0  0  0  0  0  0
   16.5416   19.6463    5.1567 C   0  0  0  0  0  0  0  0  0  0  0  0
   16.0531   18.0421    3.3640 C   0  0  0  0  0  0  0  0  0  0  0  0
   19.4734   18.1810    6.0207 O   0  0  0  0  0  0  0  0  0  0  0  0
  2  1  1  6
  2  3  1  0
  2  5  1  0
  3  4  2  0
  3 12  1  0
  5  6  1  0
  6  7  2  0
  6  8  1  0
  7  9  1  0
  8 10  2  0
  9 11  2  0
 10 11  1  0
 12 13  1  0
 12 18  1  0
 13 14  1  6
 13 16  1  0
 14 15  2  0
 14 19  1  0
 16 17  1  0
 17 18  1  0
 19 20  1  0
 20 21  1  0
 20 23  1  6
 21 22  2  0
 21 24  1  0
 25 24  1  6
 25 26  1  0
 25 33  1  0
 26 27  1  1
 26 28  1  0
 28 29  1  0
 29 30  1  1
 29 31  2  0
 29 32  1  0
 33 34  2  0
 33 35  1  0
 36 35  1  1
 36 37  1  0
 36 39  1  0
 37 38  2  0
 37 42  1  0
 39 40  1  6
 39 41  1  0
M  CHG  1   1   1
M  END
$$$$
