
     RDKit          3D

 23 25  0  0  0  0  0  0  0  0999 V2000
    2.6504  -14.3069   12.4049 O   0  0  0  0  0  0  0  0  0  0  0  0
    2.9908  -13.3685   11.4099 C   0  0  0  0  0  0  0  0  0  0  0  0
    3.8147  -14.1042   10.4052 C   0  0  0  0  0  0  0  0  0  0  0  0
    3.8701  -15.4995   10.4285 C   0  0  0  0  0  0  0  0  0  0  0  0
    4.6376  -16.1454    9.4882 C   0  0  0  0  0  0  0  0  0  0  0  0
    5.3648  -15.4710    8.5106 C   0  0  0  0  0  0  0  0  0  0  0  0
    6.1535  -16.2121    7.5420 C   0  0  0  0  0  0  0  0  0  0  0  0
    7.5482  -16.1315    7.5235 C   0  0  0  0  0  0  0  0  0  0  0  0
    8.2975  -16.8216    6.6277 C   0  0  0  0  0  0  0  0  0  0  0  0
    9.7739  -16.8142    6.5233 C   0  0  1  0  0  0  0  0  0  0  0  0
   10.4784  -17.6516    7.5038 C   0  0  0  0  0  0  0  0  0  0  0  0
   10.7254  -19.0098    7.1873 N   0  0  0  0  0  0  0  0  0  0  0  0
   10.8649  -17.1813    8.6301 N   0  0  0  0  0  4  0  0  0  0  0  0
   10.3024  -17.1480    5.1336 C   0  0  0  0  0  0  0  0  0  0  0  0
   11.4596  -16.1974    5.5004 C   0  0  0  0  0  0  0  0  0  0  0  0
   10.3920  -15.4534    6.3174 C   0  0  0  0  0  0  0  0  0  0  0  0
    7.6254  -17.6270    5.7103 C   0  0  0  0  0  0  0  0  0  0  0  0
    6.2489  -17.7352    5.6939 C   0  0  0  0  0  0  0  0  0  0  0  0
    5.4072  -18.7482    4.5390 Cl  0  0  0  0  0  0  0  0  0  0  0  0
    5.5161  -17.0242    6.6141 C   0  0  0  0  0  0  0  0  0  0  0  0
    5.2877  -14.0960    8.5164 C   0  0  0  0  0  0  0  0  0  0  0  0
    4.5270  -13.4177    9.4455 C   0  0  0  0  0  0  0  0  0  0  0  0
    4.4213  -11.6694    9.4609 Cl  0  0  0  0  0  0  0  0  0  0  0  0
  2  1  1  6
  2  3  1  0
  3 22  2  0
  3  4  1  0
  4  5  2  0
  5  6  1  0
  6  7  1  0
  6 21  2  0
  7 20  1  0
  7  8  2  0
  8  9  1  0
 10  9  1  6
  9 17  2  0
 10 16  1  0
 10 11  1  0
 14 10  1  6
 11 12  1  0
 11 13  2  3
 15 14  1  6
 16 15  1  1
 17 18  1  0
 18 19  1  0
 18 20  2  0
 21 22  1  0
 22 23  1  0
M  CHG  1  13   1
M  END
$$$$
