
     RDKit          3D

 23 25  0  0  0  0  0  0  0  0999 V2000
    3.4549  -15.3817    6.6631 O   0  0  0  0  0  0  0  0  0  0  0  0
    3.2126  -16.4289    7.5749 C   0  0  0  0  0  0  0  0  0  0  0  0
    3.6649  -15.9349    8.9093 C   0  0  0  0  0  0  0  0  0  0  0  0
    4.1865  -14.6461    9.0414 C   0  0  0  0  0  0  0  0  0  0  0  0
    4.5928  -14.2226   10.2848 C   0  0  0  0  0  0  0  0  0  0  0  0
    4.5082  -15.0215   11.4223 C   0  0  0  0  0  0  0  0  0  0  0  0
    4.9503  -14.5135   12.7091 C   0  0  0  0  0  0  0  0  0  0  0  0
    6.2183  -14.8125   13.2139 C   0  0  0  0  0  0  0  0  0  0  0  0
    6.6460  -14.3413   14.4117 C   0  0  0  0  0  0  0  0  0  0  0  0
    7.9649  -14.5898   15.0360 C   0  0  1  0  0  0  0  0  0  0  0  0
    8.0361  -15.7704   15.9077 C   0  0  0  0  0  0  0  0  0  0  0  0
    6.9268  -16.0752   16.7338 N   0  0  0  0  0  0  0  0  0  0  0  0
    9.0747  -16.5184   15.9372 N   0  0  0  0  0  4  0  0  0  0  0  0
    9.1221  -14.6487   14.0463 C   0  0  0  0  0  0  0  0  0  0  0  0
    9.9559  -14.0644   15.2042 C   0  0  0  0  0  0  0  0  0  0  0  0
    8.6452  -13.3662   15.5984 C   0  0  0  0  0  0  0  0  0  0  0  0
    5.7698  -13.5367   15.1376 C   0  0  0  0  0  0  0  0  0  0  0  0
    4.5085  -13.2168   14.6758 C   0  0  0  0  0  0  0  0  0  0  0  0
    3.4093  -12.2054   15.5910 Cl  0  0  0  0  0  0  0  0  0  0  0  0
    4.1028  -13.7088   13.4581 C   0  0  0  0  0  0  0  0  0  0  0  0
    3.9891  -16.2862   11.2564 C   0  0  0  0  0  0  0  0  0  0  0  0
    3.5725  -16.7415   10.0231 C   0  0  0  0  0  0  0  0  0  0  0  0
    2.9099  -18.3477    9.8015 Cl  0  0  0  0  0  0  0  0  0  0  0  0
  2  1  1  6
  2  3  1  0
  3 22  2  0
  3  4  1  0
  4  5  2  0
  5  6  1  0
  6  7  1  0
  6 21  2  0
  7 20  1  0
  7  8  2  0
  8  9  1  0
 10  9  1  6
  9 17  2  0
 10 16  1  0
 10 11  1  0
 14 10  1  6
 11 12  1  0
 11 13  2  3
 15 14  1  6
 16 15  1  1
 17 18  1  0
 18 19  1  0
 18 20  2  0
 21 22  1  0
 22 23  1  0
M  CHG  1  13   1
M  END
$$$$
