
     RDKit          3D

 23 25  0  0  0  0  0  0  0  0999 V2000
   10.3249  -20.5922   15.6666 O   0  0  0  0  0  0  0  0  0  0  0  0
    9.1500  -20.0118   16.1855 C   0  0  0  0  0  0  0  0  0  0  0  0
    8.6083  -19.1301   15.1091 C   0  0  0  0  0  0  0  0  0  0  0  0
    8.6826  -19.5270   13.7722 C   0  0  0  0  0  0  0  0  0  0  0  0
    8.1733  -18.6915   12.8062 C   0  0  0  0  0  0  0  0  0  0  0  0
    7.5849  -17.4640   13.0998 C   0  0  0  0  0  0  0  0  0  0  0  0
    7.0610  -16.6287   12.0334 C   0  0  0  0  0  0  0  0  0  0  0  0
    7.8564  -16.2453   10.9506 C   0  0  0  0  0  0  0  0  0  0  0  0
    7.3790  -15.4695    9.9456 C   0  0  0  0  0  0  0  0  0  0  0  0
    8.1286  -15.0116    8.7543 C   0  0  1  0  0  0  0  0  0  0  0  0
    8.5108  -13.5928    8.7582 C   0  0  0  0  0  0  0  0  0  0  0  0
    9.7092  -13.2119    9.4099 N   0  0  0  0  0  0  0  0  0  0  0  0
    7.7846  -12.7029    8.1927 N   0  0  0  0  0  4  0  0  0  0  0  0
    9.3645  -15.8445    8.4370 C   0  0  0  0  0  0  0  0  0  0  0  0
    9.0527  -15.4895    6.9693 C   0  0  0  0  0  0  0  0  0  0  0  0
    7.5880  -15.5009    7.4334 C   0  0  0  0  0  0  0  0  0  0  0  0
    6.0499  -15.0581   10.0248 C   0  0  0  0  0  0  0  0  0  0  0  0
    5.2295  -15.4141   11.0769 C   0  0  0  0  0  0  0  0  0  0  0  0
    3.5593  -14.8950   11.1737 Cl  0  0  0  0  0  0  0  0  0  0  0  0
    5.7412  -16.2015   12.0807 C   0  0  0  0  0  0  0  0  0  0  0  0
    7.5280  -17.1037   14.4278 C   0  0  0  0  0  0  0  0  0  0  0  0
    8.0295  -17.9187   15.4209 C   0  0  0  0  0  0  0  0  0  0  0  0
    7.9611  -17.4704   17.1128 Cl  0  0  0  0  0  0  0  0  0  0  0  0
  2  1  1  6
  2  3  1  0
  3 22  2  0
  3  4  1  0
  4  5  2  0
  5  6  1  0
  6  7  1  0
  6 21  2  0
  7 20  1  0
  7  8  2  0
  8  9  1  0
 10  9  1  1
  9 17  2  0
 10 16  1  0
 10 11  1  0
 14 10  1  6
 11 12  1  0
 11 13  2  3
 15 14  1  6
 16 15  1  1
 17 18  1  0
 18 19  1  0
 18 20  2  0
 21 22  1  0
 22 23  1  0
M  CHG  1  13   1
M  END
$$$$
