
     RDKit          3D

 23 25  0  0  0  0  0  0  0  0999 V2000
    3.0946   -9.6678    6.2720 O   0  0  0  0  0  0  0  0  0  0  0  0
    3.0394  -11.0719    6.1618 C   0  0  0  0  0  0  0  0  0  0  0  0
    3.4773  -11.6128    7.4829 C   0  0  0  0  0  0  0  0  0  0  0  0
    4.4624  -10.9526    8.2205 C   0  0  0  0  0  0  0  0  0  0  0  0
    4.8415  -11.4774    9.4335 C   0  0  0  0  0  0  0  0  0  0  0  0
    4.2872  -12.6402    9.9625 C   0  0  0  0  0  0  0  0  0  0  0  0
    4.7279  -13.1410   11.2526 C   0  0  0  0  0  0  0  0  0  0  0  0
    5.2779  -14.4181   11.3893 C   0  0  0  0  0  0  0  0  0  0  0  0
    5.6978  -14.8968   12.5870 C   0  0  0  0  0  0  0  0  0  0  0  0
    6.2976  -16.2255   12.8430 C   0  0  1  0  0  0  0  0  0  0  0  0
    5.7390  -16.9582   13.9876 C   0  0  0  0  0  0  0  0  0  0  0  0
    4.4217  -17.4696   13.8918 N   0  0  0  0  0  0  0  0  0  0  0  0
    6.4133  -17.1367   15.0611 N   0  0  0  0  0  4  0  0  0  0  0  0
    6.3034  -17.1509   11.6325 C   0  0  0  0  0  0  0  0  0  0  0  0
    7.6054  -17.7079   12.2424 C   0  0  0  0  0  0  0  0  0  0  0  0
    7.8031  -16.2733   12.7558 C   0  0  0  0  0  0  0  0  0  0  0  0
    5.5626  -14.0648   13.6967 C   0  0  0  0  0  0  0  0  0  0  0  0
    5.0247  -12.7963   13.6059 C   0  0  0  0  0  0  0  0  0  0  0  0
    4.8560  -11.7531   15.0028 Cl  0  0  0  0  0  0  0  0  0  0  0  0
    4.6082  -12.3382   12.3786 C   0  0  0  0  0  0  0  0  0  0  0  0
    3.3187  -13.2656    9.2092 C   0  0  0  0  0  0  0  0  0  0  0  0
    2.9158  -12.7653    7.9888 C   0  0  0  0  0  0  0  0  0  0  0  0
    1.6842  -13.5523    7.0236 Cl  0  0  0  0  0  0  0  0  0  0  0  0
  2  1  1  6
  2  3  1  0
  3 22  2  0
  3  4  1  0
  4  5  2  0
  5  6  1  0
  6  7  1  0
  6 21  2  0
  7 20  1  0
  7  8  2  0
  8  9  1  0
 10  9  1  6
  9 17  2  0
 10 16  1  0
 10 11  1  0
 14 10  1  6
 11 12  1  0
 11 13  2  3
 15 14  1  6
 16 15  1  1
 17 18  1  0
 18 19  1  0
 18 20  2  0
 21 22  1  0
 22 23  1  0
M  CHG  1  13   1
M  END
$$$$
