
     RDKit          3D

 23 25  0  0  0  0  0  0  0  0999 V2000
   17.0616   -5.7098   -4.6417 O   0  0  0  0  0  0  0  0  0  0  0  0
   16.3602   -6.9191   -4.8212 C   0  0  0  0  0  0  0  0  0  0  0  0
   14.9424   -6.6403   -4.4453 C   0  0  0  0  0  0  0  0  0  0  0  0
   14.5639   -5.3611   -4.0318 C   0  0  0  0  0  0  0  0  0  0  0  0
   13.2498   -5.1385   -3.6938 C   0  0  0  0  0  0  0  0  0  0  0  0
   12.2756   -6.1323   -3.7447 C   0  0  0  0  0  0  0  0  0  0  0  0
   10.9026   -5.8320   -3.3788 C   0  0  0  0  0  0  0  0  0  0  0  0
   10.5954   -4.8070   -2.4804 C   0  0  0  0  0  0  0  0  0  0  0  0
    9.3176   -4.5126   -2.1333 C   0  0  0  0  0  0  0  0  0  0  0  0
    8.8809   -3.4496   -1.2005 C   0  0  1  0  0  0  0  0  0  0  0  0
    8.9074   -2.0849   -1.7445 C   0  0  0  0  0  0  0  0  0  0  0  0
   10.1186   -1.3529   -1.6892 N   0  0  0  0  0  0  0  0  0  0  0  0
    7.8642   -1.5493   -2.2581 N   0  0  0  0  0  4  0  0  0  0  0  0
    7.5141   -3.6937   -0.5727 C   0  0  0  0  0  0  0  0  0  0  0  0
    8.0955   -2.9430    0.6421 C   0  0  0  0  0  0  0  0  0  0  0  0
    9.4290   -3.5656    0.2004 C   0  0  0  0  0  0  0  0  0  0  0  0
    8.3021   -5.2745   -2.7079 C   0  0  0  0  0  0  0  0  0  0  0  0
    8.5615   -6.2961   -3.5999 C   0  0  0  0  0  0  0  0  0  0  0  0
    7.2826   -7.2522   -4.3200 Cl  0  0  0  0  0  0  0  0  0  0  0  0
    9.8665   -6.5711   -3.9329 C   0  0  0  0  0  0  0  0  0  0  0  0
   12.6831   -7.3816   -4.1567 C   0  0  0  0  0  0  0  0  0  0  0  0
   13.9932   -7.6380   -4.5028 C   0  0  0  0  0  0  0  0  0  0  0  0
   14.5215   -9.2229   -5.0291 Cl  0  0  0  0  0  0  0  0  0  0  0  0
  2  1  1  6
  2  3  1  0
  3 22  2  0
  3  4  1  0
  4  5  2  0
  5  6  1  0
  6  7  1  0
  6 21  2  0
  7 20  1  0
  7  8  2  0
  8  9  1  0
 10  9  1  6
  9 17  2  0
 10 16  1  0
 10 11  1  0
 14 10  1  6
 11 12  1  0
 11 13  2  3
 15 14  1  6
 16 15  1  1
 17 18  1  0
 18 19  1  0
 18 20  2  0
 21 22  1  0
 22 23  1  0
M  CHG  1  13   1
M  END
$$$$
