
     RDKit          3D

 23 25  0  0  0  0  0  0  0  0999 V2000
    5.4517  -14.9868   21.8010 O   0  0  0  0  0  0  0  0  0  0  0  0
    6.6085  -15.2998   21.0592 C   0  0  0  0  0  0  0  0  0  0  0  0
    6.3103  -14.9304   19.6435 C   0  0  0  0  0  0  0  0  0  0  0  0
    4.9973  -14.6659   19.2482 C   0  0  0  0  0  0  0  0  0  0  0  0
    4.7580  -14.3276   17.9372 C   0  0  0  0  0  0  0  0  0  0  0  0
    5.7672  -14.2363   16.9820 C   0  0  0  0  0  0  0  0  0  0  0  0
    5.4497  -13.8694   15.6131 C   0  0  0  0  0  0  0  0  0  0  0  0
    5.8452  -14.6652   14.5350 C   0  0  0  0  0  0  0  0  0  0  0  0
    5.5516  -14.3371   13.2520 C   0  0  0  0  0  0  0  0  0  0  0  0
    5.9145  -15.1068   12.0409 C   0  0  1  0  0  0  0  0  0  0  0  0
    4.9994  -16.2027   11.6940 C   0  0  0  0  0  0  0  0  0  0  0  0
    3.6316  -15.9055   11.4777 N   0  0  0  0  0  0  0  0  0  0  0  0
    5.4114  -17.4104   11.5894 N   0  0  0  0  0  4  0  0  0  0  0  0
    6.1353  -14.2499   10.8003 C   0  0  0  0  0  0  0  0  0  0  0  0
    7.1635  -15.3307   10.4105 C   0  0  0  0  0  0  0  0  0  0  0  0
    7.3759  -15.4641   11.9263 C   0  0  0  0  0  0  0  0  0  0  0  0
    4.8320  -13.1635   13.0356 C   0  0  0  0  0  0  0  0  0  0  0  0
    4.4218  -12.3485   14.0720 C   0  0  0  0  0  0  0  0  0  0  0  0
    3.5177  -10.8737   13.7965 Cl  0  0  0  0  0  0  0  0  0  0  0  0
    4.7338  -12.7070   15.3618 C   0  0  0  0  0  0  0  0  0  0  0  0
    7.0501  -14.5035   17.4057 C   0  0  0  0  0  0  0  0  0  0  0  0
    7.3239  -14.8454   18.7134 C   0  0  0  0  0  0  0  0  0  0  0  0
    8.9519  -15.1860   19.2627 Cl  0  0  0  0  0  0  0  0  0  0  0  0
  2  1  1  6
  2  3  1  0
  3 22  2  0
  3  4  1  0
  4  5  2  0
  5  6  1  0
  6  7  1  0
  6 21  2  0
  7 20  1  0
  7  8  2  0
  8  9  1  0
 10  9  1  1
  9 17  2  0
 10 16  1  0
 10 11  1  0
 14 10  1  6
 11 12  1  0
 11 13  2  3
 15 14  1  6
 16 15  1  1
 17 18  1  0
 18 19  1  0
 18 20  2  0
 21 22  1  0
 22 23  1  0
M  CHG  1  13   1
M  END
$$$$
