
     RDKit          3D

 23 25  0  0  0  0  0  0  0  0999 V2000
   -8.5311  -18.5162    5.7294 O   0  0  0  0  0  0  0  0  0  0  0  0
   -8.8468  -17.1427    5.7113 C   0  0  0  0  0  0  0  0  0  0  0  0
   -7.7314  -16.4665    4.9846 C   0  0  0  0  0  0  0  0  0  0  0  0
   -6.7742  -17.2239    4.3059 C   0  0  0  0  0  0  0  0  0  0  0  0
   -5.7609  -16.5692    3.6462 C   0  0  0  0  0  0  0  0  0  0  0  0
   -5.6441  -15.1818    3.6234 C   0  0  0  0  0  0  0  0  0  0  0  0
   -4.5521  -14.5500    2.9039 C   0  0  0  0  0  0  0  0  0  0  0  0
   -3.5650  -15.3064    2.2670 C   0  0  0  0  0  0  0  0  0  0  0  0
   -2.5423  -14.7299    1.5877 C   0  0  0  0  0  0  0  0  0  0  0  0
   -1.4515  -15.4323    0.8751 C   0  0  1  0  0  0  0  0  0  0  0  0
   -0.6007  -14.5815    0.0316 C   0  0  0  0  0  0  0  0  0  0  0  0
   -1.1123  -14.1202   -1.2058 N   0  0  0  0  0  0  0  0  0  0  0  0
    0.5849  -14.2571    0.3896 N   0  0  0  0  0  4  0  0  0  0  0  0
   -0.5543  -16.2695    1.7783 C   0  0  0  0  0  0  0  0  0  0  0  0
   -0.4116  -17.1872    0.5475 C   0  0  0  0  0  0  0  0  0  0  0  0
   -1.8471  -16.7388    0.2325 C   0  0  0  0  0  0  0  0  0  0  0  0
   -2.5028  -13.3376    1.5422 C   0  0  0  0  0  0  0  0  0  0  0  0
   -3.4576  -12.5526    2.1575 C   0  0  0  0  0  0  0  0  0  0  0  0
   -3.4049  -10.8026    2.0987 Cl  0  0  0  0  0  0  0  0  0  0  0  0
   -4.4826  -13.1652    2.8384 C   0  0  0  0  0  0  0  0  0  0  0  0
   -6.6046  -14.4658    4.3027 C   0  0  0  0  0  0  0  0  0  0  0  0
   -7.6339  -15.0917    4.9741 C   0  0  0  0  0  0  0  0  0  0  0  0
   -8.8611  -14.1905    5.8401 Cl  0  0  0  0  0  0  0  0  0  0  0  0
  2  1  1  6
  2  3  1  0
  3 22  2  0
  3  4  1  0
  4  5  2  0
  5  6  1  0
  6  7  1  0
  6 21  2  0
  7 20  1  0
  7  8  2  0
  8  9  1  0
 10  9  1  1
  9 17  2  0
 10 16  1  0
 10 11  1  0
 14 10  1  6
 11 12  1  0
 11 13  2  3
 15 14  1  6
 16 15  1  1
 17 18  1  0
 18 19  1  0
 18 20  2  0
 21 22  1  0
 22 23  1  0
M  CHG  1  13   1
M  END
$$$$
