
     RDKit          3D

 23 25  0  0  0  0  0  0  0  0999 V2000
    2.1379  -13.1546   14.3301 O   0  0  0  0  0  0  0  0  0  0  0  0
    3.1214  -14.0755   14.7438 C   0  0  0  0  0  0  0  0  0  0  0  0
    3.7931  -14.5571   13.5003 C   0  0  0  0  0  0  0  0  0  0  0  0
    3.3283  -14.1496   12.2480 C   0  0  0  0  0  0  0  0  0  0  0  0
    3.9706  -14.6111   11.1233 C   0  0  0  0  0  0  0  0  0  0  0  0
    5.0663  -15.4690   11.1748 C   0  0  0  0  0  0  0  0  0  0  0  0
    5.7042  -15.9175    9.9496 C   0  0  0  0  0  0  0  0  0  0  0  0
    7.0880  -15.8342    9.7757 C   0  0  0  0  0  0  0  0  0  0  0  0
    7.6974  -16.2536    8.6388 C   0  0  0  0  0  0  0  0  0  0  0  0
    9.1492  -16.2172    8.3527 C   0  0  1  0  0  0  0  0  0  0  0  0
    9.5414  -15.4094    7.1897 C   0  0  0  0  0  0  0  0  0  0  0  0
    9.7288  -16.0557    5.9435 N   0  0  0  0  0  0  0  0  0  0  0  0
    9.7198  -14.1451    7.2830 N   0  0  0  0  0  4  0  0  0  0  0  0
   10.0087  -15.8035    9.5410 C   0  0  0  0  0  0  0  0  0  0  0  0
   11.0654  -16.7399    8.9214 C   0  0  0  0  0  0  0  0  0  0  0  0
    9.8507  -17.5499    8.4427 C   0  0  0  0  0  0  0  0  0  0  0  0
    6.8905  -16.7788    7.6313 C   0  0  0  0  0  0  0  0  0  0  0  0
    5.5195  -16.8792    7.7619 C   0  0  0  0  0  0  0  0  0  0  0  0
    4.5080  -17.5395    6.4933 Cl  0  0  0  0  0  0  0  0  0  0  0  0
    4.9301  -16.4463    8.9258 C   0  0  0  0  0  0  0  0  0  0  0  0
    5.4984  -15.8509   12.4254 C   0  0  0  0  0  0  0  0  0  0  0  0
    4.8766  -15.4059   13.5732 C   0  0  0  0  0  0  0  0  0  0  0  0
    5.4189  -15.8847   15.1684 Cl  0  0  0  0  0  0  0  0  0  0  0  0
  2  1  1  6
  2  3  1  0
  3 22  2  0
  3  4  1  0
  4  5  2  0
  5  6  1  0
  6  7  1  0
  6 21  2  0
  7 20  1  0
  7  8  2  0
  8  9  1  0
 10  9  1  1
  9 17  2  0
 10 16  1  0
 10 11  1  0
 14 10  1  6
 11 12  1  0
 11 13  2  3
 15 14  1  6
 16 15  1  1
 17 18  1  0
 18 19  1  0
 18 20  2  0
 21 22  1  0
 22 23  1  0
M  CHG  1  13   1
M  END
$$$$
