
     RDKit          3D

 23 25  0  0  0  0  0  0  0  0999 V2000
    5.2281   -6.4757    7.6425 O   0  0  0  0  0  0  0  0  0  0  0  0
    6.0196   -7.4714    7.0354 C   0  0  0  0  0  0  0  0  0  0  0  0
    5.7417   -8.7369    7.7776 C   0  0  0  0  0  0  0  0  0  0  0  0
    6.7860   -9.4409    8.3813 C   0  0  0  0  0  0  0  0  0  0  0  0
    6.4949  -10.6021    9.0576 C   0  0  0  0  0  0  0  0  0  0  0  0
    5.2033  -11.1106    9.1690 C   0  0  0  0  0  0  0  0  0  0  0  0
    4.9607  -12.3409    9.9017 C   0  0  0  0  0  0  0  0  0  0  0  0
    5.6251  -12.6191   11.0989 C   0  0  0  0  0  0  0  0  0  0  0  0
    5.4050  -13.7618   11.7959 C   0  0  0  0  0  0  0  0  0  0  0  0
    6.0461  -14.1528   13.0714 C   0  0  1  0  0  0  0  0  0  0  0  0
    7.3797  -14.7567   12.9462 C   0  0  0  0  0  0  0  0  0  0  0  0
    8.4990  -13.9065   12.7726 N   0  0  0  0  0  0  0  0  0  0  0  0
    7.5458  -16.0255   12.9861 N   0  0  0  0  0  4  0  0  0  0  0  0
    6.1169  -13.0333   14.1027 C   0  0  0  0  0  0  0  0  0  0  0  0
    5.9835  -14.1695   15.1364 C   0  0  0  0  0  0  0  0  0  0  0  0
    5.1401  -14.8565   14.0513 C   0  0  0  0  0  0  0  0  0  0  0  0
    4.4817  -14.6664   11.2751 C   0  0  0  0  0  0  0  0  0  0  0  0
    3.8034  -14.4308   10.0957 C   0  0  0  0  0  0  0  0  0  0  0  0
    2.6437  -15.5703    9.4436 Cl  0  0  0  0  0  0  0  0  0  0  0  0
    4.0471  -13.2638    9.4115 C   0  0  0  0  0  0  0  0  0  0  0  0
    4.1977  -10.3915    8.5622 C   0  0  0  0  0  0  0  0  0  0  0  0
    4.4559   -9.2232    7.8763 C   0  0  0  0  0  0  0  0  0  0  0  0
    3.1841   -8.3007    7.1020 Cl  0  0  0  0  0  0  0  0  0  0  0  0
  2  1  1  6
  2  3  1  0
  3 22  2  0
  3  4  1  0
  4  5  2  0
  5  6  1  0
  6  7  1  0
  6 21  2  0
  7 20  1  0
  7  8  2  0
  8  9  1  0
 10  9  1  6
  9 17  2  0
 10 16  1  0
 10 11  1  0
 14 10  1  6
 11 12  1  0
 11 13  2  3
 15 14  1  6
 16 15  1  1
 17 18  1  0
 18 19  1  0
 18 20  2  0
 21 22  1  0
 22 23  1  0
M  CHG  1  13   1
M  END
$$$$
