
     RDKit          3D

 23 25  0  0  0  0  0  0  0  0999 V2000
   10.8624   -6.9415    8.1739 O   0  0  0  0  0  0  0  0  0  0  0  0
    9.4663   -7.0604    8.0210 C   0  0  0  0  0  0  0  0  0  0  0  0
    9.1289   -8.4779    8.3471 C   0  0  0  0  0  0  0  0  0  0  0  0
   10.1410   -9.3845    8.6698 C   0  0  0  0  0  0  0  0  0  0  0  0
    9.7953  -10.6819    8.9659 C   0  0  0  0  0  0  0  0  0  0  0  0
    8.4788  -11.1357    8.9588 C   0  0  0  0  0  0  0  0  0  0  0  0
    8.1784  -12.5186    9.2855 C   0  0  0  0  0  0  0  0  0  0  0  0
    7.0019  -12.8709    9.9517 C   0  0  0  0  0  0  0  0  0  0  0  0
    6.7065  -14.1586   10.2590 C   0  0  0  0  0  0  0  0  0  0  0  0
    5.4922  -14.6420   10.9538 C   0  0  1  0  0  0  0  0  0  0  0  0
    4.2603  -14.6253   10.1532 C   0  0  0  0  0  0  0  0  0  0  0  0
    4.0689  -15.6329    9.1764 N   0  0  0  0  0  0  0  0  0  0  0  0
    3.3677  -13.7223   10.3177 N   0  0  0  0  0  4  0  0  0  0  0  0
    5.6414  -16.0217   11.5832 C   0  0  0  0  0  0  0  0  0  0  0  0
    4.6536  -15.4898   12.6409 C   0  0  0  0  0  0  0  0  0  0  0  0
    5.3184  -14.1327   12.3633 C   0  0  0  0  0  0  0  0  0  0  0  0
    7.6254  -15.1373    9.8854 C   0  0  0  0  0  0  0  0  0  0  0  0
    8.7997  -14.8327    9.2260 C   0  0  0  0  0  0  0  0  0  0  0  0
    9.9530  -16.0653    8.7580 Cl  0  0  0  0  0  0  0  0  0  0  0  0
    9.0719  -13.5187    8.9276 C   0  0  0  0  0  0  0  0  0  0  0  0
    7.5060  -10.2157    8.6364 C   0  0  0  0  0  0  0  0  0  0  0  0
    7.8191   -8.9069    8.3345 C   0  0  0  0  0  0  0  0  0  0  0  0
    6.5896   -7.7289    7.9243 Cl  0  0  0  0  0  0  0  0  0  0  0  0
  2  1  1  6
  2  3  1  0
  3 22  2  0
  3  4  1  0
  4  5  2  0
  5  6  1  0
  6  7  1  0
  6 21  2  0
  7 20  1  0
  7  8  2  0
  8  9  1  0
 10  9  1  6
  9 17  2  0
 10 16  1  0
 10 11  1  0
 14 10  1  6
 11 12  1  0
 11 13  2  3
 15 14  1  6
 16 15  1  1
 17 18  1  0
 18 19  1  0
 18 20  2  0
 21 22  1  0
 22 23  1  0
M  CHG  1  13   1
M  END
$$$$
