
     RDKit          3D

 23 25  0  0  0  0  0  0  0  0999 V2000
    4.7297  -15.5664   15.4788 O   0  0  0  0  0  0  0  0  0  0  0  0
    4.7751  -14.3690   14.7367 C   0  0  0  0  0  0  0  0  0  0  0  0
    5.0556  -14.7627   13.3240 C   0  0  0  0  0  0  0  0  0  0  0  0
    4.7833  -16.0618   12.8895 C   0  0  0  0  0  0  0  0  0  0  0  0
    5.0528  -16.3906   11.5820 C   0  0  0  0  0  0  0  0  0  0  0  0
    5.5865  -15.4858   10.6677 C   0  0  0  0  0  0  0  0  0  0  0  0
    5.8443  -15.8940    9.2980 C   0  0  0  0  0  0  0  0  0  0  0  0
    4.8261  -16.3954    8.4832 C   0  0  0  0  0  0  0  0  0  0  0  0
    5.0516  -16.7760    7.2009 C   0  0  0  0  0  0  0  0  0  0  0  0
    4.0500  -17.3124    6.2522 C   0  0  1  0  0  0  0  0  0  0  0  0
    3.8827  -18.7720    6.2723 C   0  0  0  0  0  0  0  0  0  0  0  0
    4.9580  -19.5870    5.8418 N   0  0  0  0  0  0  0  0  0  0  0  0
    2.7912  -19.3148    6.6635 N   0  0  0  0  0  4  0  0  0  0  0  0
    2.6747  -16.6662    6.3660 C   0  0  0  0  0  0  0  0  0  0  0  0
    2.5795  -16.9357    4.8508 C   0  0  0  0  0  0  0  0  0  0  0  0
    4.1001  -16.7165    4.8670 C   0  0  0  0  0  0  0  0  0  0  0  0
    6.3500  -16.6508    6.7105 C   0  0  0  0  0  0  0  0  0  0  0  0
    7.3852  -16.1603    7.4815 C   0  0  0  0  0  0  0  0  0  0  0  0
    9.0163  -16.0047    6.8621 Cl  0  0  0  0  0  0  0  0  0  0  0  0
    7.1262  -15.7823    8.7775 C   0  0  0  0  0  0  0  0  0  0  0  0
    5.8428  -14.2139   11.1294 C   0  0  0  0  0  0  0  0  0  0  0  0
    5.5839  -13.8518   12.4347 C   0  0  0  0  0  0  0  0  0  0  0  0
    5.9052  -12.2367   13.0315 Cl  0  0  0  0  0  0  0  0  0  0  0  0
  2  1  1  6
  2  3  1  0
  3 22  2  0
  3  4  1  0
  4  5  2  0
  5  6  1  0
  6  7  1  0
  6 21  2  0
  7 20  1  0
  7  8  2  0
  8  9  1  0
 10  9  1  1
  9 17  2  0
 10 16  1  0
 10 11  1  0
 14 10  1  6
 11 12  1  0
 11 13  2  3
 15 14  1  6
 16 15  1  1
 17 18  1  0
 18 19  1  0
 18 20  2  0
 21 22  1  0
 22 23  1  0
M  CHG  1  13   1
M  END
$$$$
