
     RDKit          3D

 23 25  0  0  0  0  0  0  0  0999 V2000
   -5.7354  -13.3548    6.7380 O   0  0  0  0  0  0  0  0  0  0  0  0
   -6.4680  -12.3496    6.0752 C   0  0  0  0  0  0  0  0  0  0  0  0
   -5.6330  -11.9199    4.9143 C   0  0  0  0  0  0  0  0  0  0  0  0
   -4.4755  -12.6270    4.5817 C   0  0  0  0  0  0  0  0  0  0  0  0
   -3.7302  -12.2048    3.5061 C   0  0  0  0  0  0  0  0  0  0  0  0
   -4.0768  -11.1013    2.7306 C   0  0  0  0  0  0  0  0  0  0  0  0
   -3.2493  -10.7088    1.6034 C   0  0  0  0  0  0  0  0  0  0  0  0
   -2.6160  -11.6592    0.7985 C   0  0  0  0  0  0  0  0  0  0  0  0
   -1.8443  -11.3070   -0.2600 C   0  0  0  0  0  0  0  0  0  0  0  0
   -1.1356  -12.2268   -1.1779 C   0  0  1  0  0  0  0  0  0  0  0  0
   -1.8162  -12.4915   -2.4529 C   0  0  0  0  0  0  0  0  0  0  0  0
   -1.9219  -11.4430   -3.3992 N   0  0  0  0  0  0  0  0  0  0  0  0
   -2.3146  -13.6402   -2.7192 N   0  0  0  0  0  4  0  0  0  0  0  0
    0.3049  -11.8263   -1.4726 C   0  0  0  0  0  0  0  0  0  0  0  0
    0.5536  -13.3436   -1.5874 C   0  0  0  0  0  0  0  0  0  0  0  0
   -0.5506  -13.4546   -0.5247 C   0  0  0  0  0  0  0  0  0  0  0  0
   -1.6980   -9.9470   -0.5266 C   0  0  0  0  0  0  0  0  0  0  0  0
   -2.3061   -8.9753    0.2432 C   0  0  0  0  0  0  0  0  0  0  0  0
   -2.1199   -7.2666   -0.0944 Cl  0  0  0  0  0  0  0  0  0  0  0  0
   -3.0826   -9.3625    1.3093 C   0  0  0  0  0  0  0  0  0  0  0  0
   -5.2238  -10.4272    3.0862 C   0  0  0  0  0  0  0  0  0  0  0  0
   -5.9937  -10.8247    4.1592 C   0  0  0  0  0  0  0  0  0  0  0  0
   -7.4547   -9.9750    4.6192 Cl  0  0  0  0  0  0  0  0  0  0  0  0
  2  1  1  6
  2  3  1  0
  3 22  2  0
  3  4  1  0
  4  5  2  0
  5  6  1  0
  6  7  1  0
  6 21  2  0
  7 20  1  0
  7  8  2  0
  8  9  1  0
 10  9  1  1
  9 17  2  0
 10 16  1  0
 10 11  1  0
 14 10  1  6
 11 12  1  0
 11 13  2  3
 15 14  1  6
 16 15  1  1
 17 18  1  0
 18 19  1  0
 18 20  2  0
 21 22  1  0
 22 23  1  0
M  CHG  1  13   1
M  END
$$$$
