
     RDKit          3D

 23 25  0  0  0  0  0  0  0  0999 V2000
    4.8485  -14.3720   16.8050 O   0  0  0  0  0  0  0  0  0  0  0  0
    4.2486  -13.8942   15.6224 C   0  0  0  0  0  0  0  0  0  0  0  0
    4.9147  -14.6126   14.4956 C   0  0  0  0  0  0  0  0  0  0  0  0
    5.9266  -15.5398   14.7540 C   0  0  0  0  0  0  0  0  0  0  0  0
    6.5181  -16.1842   13.6932 C   0  0  0  0  0  0  0  0  0  0  0  0
    6.1542  -15.9546   12.3688 C   0  0  0  0  0  0  0  0  0  0  0  0
    6.8149  -16.6716   11.2924 C   0  0  0  0  0  0  0  0  0  0  0  0
    7.5963  -16.0052   10.3451 C   0  0  0  0  0  0  0  0  0  0  0  0
    8.2227  -16.6626    9.3374 C   0  0  0  0  0  0  0  0  0  0  0  0
    9.0752  -16.0596    8.2883 C   0  0  1  0  0  0  0  0  0  0  0  0
    9.0237  -14.5938    8.2011 C   0  0  0  0  0  0  0  0  0  0  0  0
    7.9046  -13.9871    7.5802 N   0  0  0  0  0  0  0  0  0  0  0  0
    9.9654  -13.8625    8.6674 N   0  0  0  0  0  4  0  0  0  0  0  0
   10.5358  -16.4896    8.3482 C   0  0  0  0  0  0  0  0  0  0  0  0
   10.5000  -16.3236    6.8157 C   0  0  0  0  0  0  0  0  0  0  0  0
    9.0327  -16.7586    6.9520 C   0  0  0  0  0  0  0  0  0  0  0  0
    8.0620  -18.0453    9.2722 C   0  0  0  0  0  0  0  0  0  0  0  0
    7.2989  -18.7427   10.1876 C   0  0  0  0  0  0  0  0  0  0  0  0
    7.0986  -20.4809   10.1026 Cl  0  0  0  0  0  0  0  0  0  0  0  0
    6.6762  -18.0495   11.1981 C   0  0  0  0  0  0  0  0  0  0  0  0
    5.1532  -15.0344   12.1499 C   0  0  0  0  0  0  0  0  0  0  0  0
    4.5394  -14.3710   13.1916 C   0  0  0  0  0  0  0  0  0  0  0  0
    3.2648  -13.1998   12.9240 Cl  0  0  0  0  0  0  0  0  0  0  0  0
  2  1  1  6
  2  3  1  0
  3 22  2  0
  3  4  1  0
  4  5  2  0
  5  6  1  0
  6  7  1  0
  6 21  2  0
  7 20  1  0
  7  8  2  0
  8  9  1  0
 10  9  1  1
  9 17  2  0
 10 16  1  0
 10 11  1  0
 14 10  1  6
 11 12  1  0
 11 13  2  3
 15 14  1  6
 16 15  1  1
 17 18  1  0
 18 19  1  0
 18 20  2  0
 21 22  1  0
 22 23  1  0
M  CHG  1  13   1
M  END
$$$$
