
     RDKit          3D

 23 25  0  0  0  0  0  0  0  0999 V2000
    3.0551  -19.2361    5.0397 O   0  0  0  0  0  0  0  0  0  0  0  0
    3.1807  -17.8581    4.7718 C   0  0  0  0  0  0  0  0  0  0  0  0
    3.6571  -17.2273    6.0386 C   0  0  0  0  0  0  0  0  0  0  0  0
    3.9572  -18.0201    7.1485 C   0  0  0  0  0  0  0  0  0  0  0  0
    4.3944  -17.4069    8.2988 C   0  0  0  0  0  0  0  0  0  0  0  0
    4.5522  -16.0277    8.4093 C   0  0  0  0  0  0  0  0  0  0  0  0
    5.0226  -15.4411    9.6518 C   0  0  0  0  0  0  0  0  0  0  0  0
    6.1598  -14.6302    9.6901 C   0  0  0  0  0  0  0  0  0  0  0  0
    6.6077  -14.0721   10.8424 C   0  0  0  0  0  0  0  0  0  0  0  0
    7.7916  -13.1970   10.9951 C   0  0  1  0  0  0  0  0  0  0  0  0
    9.0887  -13.8462   10.7602 C   0  0  0  0  0  0  0  0  0  0  0  0
    9.8110  -14.3469   11.8708 N   0  0  0  0  0  0  0  0  0  0  0  0
    9.5750  -13.9618    9.5816 N   0  0  0  0  0  4  0  0  0  0  0  0
    7.7334  -11.9190   10.1673 C   0  0  0  0  0  0  0  0  0  0  0  0
    8.5442  -11.3012   11.3241 C   0  0  0  0  0  0  0  0  0  0  0  0
    7.7647  -12.2922   12.2022 C   0  0  0  0  0  0  0  0  0  0  0  0
    5.8896  -14.3350   12.0074 C   0  0  0  0  0  0  0  0  0  0  0  0
    4.7609  -15.1305   12.0140 C   0  0  0  0  0  0  0  0  0  0  0  0
    3.8606  -15.4592   13.4802 Cl  0  0  0  0  0  0  0  0  0  0  0  0
    4.3306  -15.6821   10.8307 C   0  0  0  0  0  0  0  0  0  0  0  0
    4.2474  -15.2761    7.2963 C   0  0  0  0  0  0  0  0  0  0  0  0
    3.8067  -15.8600    6.1271 C   0  0  0  0  0  0  0  0  0  0  0  0
    3.4176  -14.9134    4.7057 Cl  0  0  0  0  0  0  0  0  0  0  0  0
  2  1  1  6
  2  3  1  0
  3 22  2  0
  3  4  1  0
  4  5  2  0
  5  6  1  0
  6  7  1  0
  6 21  2  0
  7 20  1  0
  7  8  2  0
  8  9  1  0
 10  9  1  1
  9 17  2  0
 10 16  1  0
 10 11  1  0
 14 10  1  6
 11 12  1  0
 11 13  2  3
 15 14  1  6
 16 15  1  1
 17 18  1  0
 18 19  1  0
 18 20  2  0
 21 22  1  0
 22 23  1  0
M  CHG  1  13   1
M  END
$$$$
