
     RDKit          3D

 23 25  0  0  0  0  0  0  0  0999 V2000
   -2.9967  -11.7734    8.6056 O   0  0  0  0  0  0  0  0  0  0  0  0
   -2.4947  -11.0192    9.6853 C   0  0  0  0  0  0  0  0  0  0  0  0
   -1.0117  -11.1913    9.6621 C   0  0  0  0  0  0  0  0  0  0  0  0
   -0.4106  -11.9725    8.6728 C   0  0  0  0  0  0  0  0  0  0  0  0
    0.9575  -12.1093    8.6802 C   0  0  0  0  0  0  0  0  0  0  0  0
    1.7744  -11.5033    9.6314 C   0  0  0  0  0  0  0  0  0  0  0  0
    3.2147  -11.6830    9.5819 C   0  0  0  0  0  0  0  0  0  0  0  0
    3.7993  -12.9381    9.7697 C   0  0  0  0  0  0  0  0  0  0  0  0
    5.1424  -13.1213    9.7215 C   0  0  0  0  0  0  0  0  0  0  0  0
    5.8637  -14.4015    9.8996 C   0  0  1  0  0  0  0  0  0  0  0  0
    5.9298  -14.8998   11.2803 C   0  0  0  0  0  0  0  0  0  0  0  0
    6.9557  -14.4183   12.1299 N   0  0  0  0  0  0  0  0  0  0  0  0
    5.0880  -15.7566   11.7233 N   0  0  0  0  0  4  0  0  0  0  0  0
    5.3657  -15.5279    9.0023 C   0  0  0  0  0  0  0  0  0  0  0  0
    6.8304  -16.0086    9.0330 C   0  0  0  0  0  0  0  0  0  0  0  0
    7.1632  -14.5125    9.1411 C   0  0  0  0  0  0  0  0  0  0  0  0
    5.9368  -12.0031    9.4754 C   0  0  0  0  0  0  0  0  0  0  0  0
    5.4003  -10.7453    9.2842 C   0  0  0  0  0  0  0  0  0  0  0  0
    6.4017   -9.3416    8.9754 Cl  0  0  0  0  0  0  0  0  0  0  0  0
    4.0355  -10.5904    9.3384 C   0  0  0  0  0  0  0  0  0  0  0  0
    1.1491  -10.7402   10.5922 C   0  0  0  0  0  0  0  0  0  0  0  0
   -0.2209  -10.5827   10.6129 C   0  0  0  0  0  0  0  0  0  0  0  0
   -1.0259   -9.6136   11.8298 Cl  0  0  0  0  0  0  0  0  0  0  0  0
  2  1  1  6
  2  3  1  0
  3 22  2  0
  3  4  1  0
  4  5  2  0
  5  6  1  0
  6  7  1  0
  6 21  2  0
  7 20  1  0
  7  8  2  0
  8  9  1  0
 10  9  1  1
  9 17  2  0
 10 16  1  0
 10 11  1  0
 14 10  1  6
 11 12  1  0
 11 13  2  3
 15 14  1  6
 16 15  1  1
 17 18  1  0
 18 19  1  0
 18 20  2  0
 21 22  1  0
 22 23  1  0
M  CHG  1  13   1
M  END
$$$$
