
     RDKit          3D

 23 25  0  0  0  0  0  0  0  0999 V2000
   12.1643   -4.3250   -7.8770 O   0  0  0  0  0  0  0  0  0  0  0  0
   11.6251   -5.5902   -7.5683 C   0  0  0  0  0  0  0  0  0  0  0  0
   11.5573   -5.6640   -6.0786 C   0  0  0  0  0  0  0  0  0  0  0  0
   12.3166   -4.7907   -5.2967 C   0  0  0  0  0  0  0  0  0  0  0  0
   12.2298   -4.8851   -3.9278 C   0  0  0  0  0  0  0  0  0  0  0  0
   11.4175   -5.8141   -3.2825 C   0  0  0  0  0  0  0  0  0  0  0  0
   11.3664   -5.8602   -1.8317 C   0  0  0  0  0  0  0  0  0  0  0  0
   12.4451   -5.4374   -1.0508 C   0  0  0  0  0  0  0  0  0  0  0  0
   12.4094   -5.4706    0.3047 C   0  0  0  0  0  0  0  0  0  0  0  0
   13.4874   -5.0437    1.2249 C   0  0  1  0  0  0  0  0  0  0  0  0
   13.4474   -3.6316    1.6289 C   0  0  0  0  0  0  0  0  0  0  0  0
   14.3269   -2.7176    0.9988 N   0  0  0  0  0  0  0  0  0  0  0  0
   12.6431   -3.2176    2.5349 N   0  0  0  0  0  4  0  0  0  0  0  0
   13.6141   -5.9019    2.4777 C   0  0  0  0  0  0  0  0  0  0  0  0
   15.1158   -5.5646    2.3848 C   0  0  0  0  0  0  0  0  0  0  0  0
   14.8654   -5.5444    0.8690 C   0  0  0  0  0  0  0  0  0  0  0  0
   11.2465   -5.9467    0.9072 C   0  0  0  0  0  0  0  0  0  0  0  0
   10.1579   -6.3742    0.1733 C   0  0  0  0  0  0  0  0  0  0  0  0
    8.6977   -6.9725    0.9337 Cl  0  0  0  0  0  0  0  0  0  0  0  0
   10.2231   -6.3285   -1.1990 C   0  0  0  0  0  0  0  0  0  0  0  0
   10.6825   -6.6596   -4.0834 C   0  0  0  0  0  0  0  0  0  0  0  0
   10.7467   -6.5909   -5.4593 C   0  0  0  0  0  0  0  0  0  0  0  0
    9.8153   -7.6606   -6.4869 Cl  0  0  0  0  0  0  0  0  0  0  0  0
  2  1  1  6
  2  3  1  0
  3 22  2  0
  3  4  1  0
  4  5  2  0
  5  6  1  0
  6  7  1  0
  6 21  2  0
  7 20  1  0
  7  8  2  0
  8  9  1  0
 10  9  1  6
  9 17  2  0
 10 16  1  0
 10 11  1  0
 14 10  1  6
 11 12  1  0
 11 13  2  3
 15 14  1  6
 16 15  1  1
 17 18  1  0
 18 19  1  0
 18 20  2  0
 21 22  1  0
 22 23  1  0
M  CHG  1  13   1
M  END
$$$$
