
     RDKit          3D

 23 25  0  0  0  0  0  0  0  0999 V2000
    0.7881   -8.9556    6.4583 O   0  0  0  0  0  0  0  0  0  0  0  0
    2.1224   -9.1064    6.0302 C   0  0  0  0  0  0  0  0  0  0  0  0
    2.7315  -10.1428    6.9158 C   0  0  0  0  0  0  0  0  0  0  0  0
    1.9438  -10.8199    7.8494 C   0  0  0  0  0  0  0  0  0  0  0  0
    2.5364  -11.7689    8.6485 C   0  0  0  0  0  0  0  0  0  0  0  0
    3.8898  -12.0874    8.5702 C   0  0  0  0  0  0  0  0  0  0  0  0
    4.4549  -13.1039    9.4401 C   0  0  0  0  0  0  0  0  0  0  0  0
    5.6923  -12.9236   10.0635 C   0  0  0  0  0  0  0  0  0  0  0  0
    6.2299  -13.8623   10.8819 C   0  0  0  0  0  0  0  0  0  0  0  0
    7.5240  -13.7725   11.5946 C   0  0  1  0  0  0  0  0  0  0  0  0
    7.7816  -14.8419   12.5687 C   0  0  0  0  0  0  0  0  0  0  0  0
    7.2803  -14.6990   13.8856 N   0  0  0  0  0  0  0  0  0  0  0  0
    8.4485  -15.8880   12.2528 N   0  0  0  0  0  4  0  0  0  0  0  0
    8.7344  -13.6525   10.6767 C   0  0  0  0  0  0  0  0  0  0  0  0
    9.3420  -12.8175   11.8216 C   0  0  0  0  0  0  0  0  0  0  0  0
    7.8888  -12.3924   12.0832 C   0  0  0  0  0  0  0  0  0  0  0  0
    5.5008  -15.0321   11.0869 C   0  0  0  0  0  0  0  0  0  0  0  0
    4.2747  -15.2507   10.4906 C   0  0  0  0  0  0  0  0  0  0  0  0
    3.3610  -16.7225   10.7501 Cl  0  0  0  0  0  0  0  0  0  0  0  0
    3.7551  -14.2810    9.6664 C   0  0  0  0  0  0  0  0  0  0  0  0
    4.6370  -11.4010    7.6391 C   0  0  0  0  0  0  0  0  0  0  0  0
    4.0733  -10.4434    6.8223 C   0  0  0  0  0  0  0  0  0  0  0  0
    5.0145   -9.5655    5.6342 Cl  0  0  0  0  0  0  0  0  0  0  0  0
  2  1  1  6
  2  3  1  0
  3 22  2  0
  3  4  1  0
  4  5  2  0
  5  6  1  0
  6  7  1  0
  6 21  2  0
  7 20  1  0
  7  8  2  0
  8  9  1  0
 10  9  1  6
  9 17  2  0
 10 16  1  0
 10 11  1  0
 14 10  1  6
 11 12  1  0
 11 13  2  3
 15 14  1  6
 16 15  1  1
 17 18  1  0
 18 19  1  0
 18 20  2  0
 21 22  1  0
 22 23  1  0
M  CHG  1  13   1
M  END
$$$$
