
     RDKit          3D

 23 25  0  0  0  0  0  0  0  0999 V2000
    5.1087  -14.1405   17.2657 O   0  0  0  0  0  0  0  0  0  0  0  0
    4.1904  -13.4810   16.4241 C   0  0  0  0  0  0  0  0  0  0  0  0
    4.5135  -13.9134   15.0320 C   0  0  0  0  0  0  0  0  0  0  0  0
    5.5394  -14.8328   14.8023 C   0  0  0  0  0  0  0  0  0  0  0  0
    5.8101  -15.2102   13.5082 C   0  0  0  0  0  0  0  0  0  0  0  0
    5.1067  -14.7168   12.4122 C   0  0  0  0  0  0  0  0  0  0  0  0
    5.4383  -15.1590   11.0691 C   0  0  0  0  0  0  0  0  0  0  0  0
    6.7506  -15.1174   10.5915 C   0  0  0  0  0  0  0  0  0  0  0  0
    7.0753  -15.5314    9.3413 C   0  0  0  0  0  0  0  0  0  0  0  0
    8.4272  -15.5365    8.7385 C   0  0  1  0  0  0  0  0  0  0  0  0
    9.0336  -14.2127    8.5419 C   0  0  0  0  0  0  0  0  0  0  0  0
    8.8599  -13.5620    7.2960 N   0  0  0  0  0  0  0  0  0  0  0  0
    9.7137  -13.6446    9.4660 N   0  0  0  0  0  4  0  0  0  0  0  0
    9.4301  -16.4251    9.4640 C   0  0  0  0  0  0  0  0  0  0  0  0
   10.0465  -16.6290    8.0655 C   0  0  0  0  0  0  0  0  0  0  0  0
    8.6006  -16.4740    7.5691 C   0  0  0  0  0  0  0  0  0  0  0  0
    6.0452  -16.0073    8.5323 C   0  0  0  0  0  0  0  0  0  0  0  0
    4.7352  -16.0654    8.9647 C   0  0  0  0  0  0  0  0  0  0  0  0
    3.4426  -16.6639    7.9451 Cl  0  0  0  0  0  0  0  0  0  0  0  0
    4.4365  -15.6392   10.2369 C   0  0  0  0  0  0  0  0  0  0  0  0
    4.1018  -13.8123   12.6745 C   0  0  0  0  0  0  0  0  0  0  0  0
    3.8050  -13.4131   13.9608 C   0  0  0  0  0  0  0  0  0  0  0  0
    2.5284  -12.2644   14.3053 Cl  0  0  0  0  0  0  0  0  0  0  0  0
  2  1  1  6
  2  3  1  0
  3 22  2  0
  3  4  1  0
  4  5  2  0
  5  6  1  0
  6  7  1  0
  6 21  2  0
  7 20  1  0
  7  8  2  0
  8  9  1  0
 10  9  1  1
  9 17  2  0
 10 16  1  0
 10 11  1  0
 14 10  1  6
 11 12  1  0
 11 13  2  3
 15 14  1  6
 16 15  1  1
 17 18  1  0
 18 19  1  0
 18 20  2  0
 21 22  1  0
 22 23  1  0
M  CHG  1  13   1
M  END
$$$$
