
     RDKit          3D

 34 37  0  0  0  0  0  0  0  0999 V2000
  -21.1824  -39.1036   -7.4944 C   0  0  0  0  0  0  0  0  0  0  0  0
  -20.6982  -38.7429   -8.7270 C   0  0  0  0  0  0  0  0  0  0  0  0
  -19.3280  -38.8568   -8.9844 C   0  0  0  0  0  0  0  0  0  0  0  0
  -18.4237  -39.3198   -8.0528 C   0  0  0  0  0  0  0  0  0  0  0  0
  -18.9479  -39.6700   -6.8313 C   0  0  0  0  0  0  0  0  0  0  0  0
  -16.9840  -39.4393   -8.3803 C   0  0  1  0  0  0  0  0  0  0  0  0
  -16.8536  -40.0920   -9.7320 C   0  0  1  0  0  0  0  0  0  0  0  0
  -13.9682  -39.9082   -6.4838 N   0  0  0  0  0  0  0  0  0  0  0  0
  -20.7285  -39.9617   -5.2424 N   0  0  0  0  0  0  0  0  0  0  0  0
  -21.3518  -44.1797   -0.3739 O   0  0  0  0  0  0  0  0  0  0  0  0
  -15.4864  -40.5862  -10.1031 C   0  0  0  0  0  0  0  0  0  0  0  0
  -20.5521  -41.7078   -2.9079 N   0  0  0  0  0  0  0  0  0  0  0  0
  -14.7662  -39.9064   -7.4620 C   0  0  0  0  0  0  0  0  0  0  0  0
  -21.5104  -41.1194   -5.0771 C   0  0  0  0  0  0  0  0  0  0  0  0
  -21.4788  -41.9276   -3.8491 C   0  0  0  0  0  0  0  0  0  0  0  0
  -20.5272  -42.4549   -1.7785 C   0  0  0  0  0  0  0  0  0  0  0  0
  -21.4377  -43.4594   -1.5471 C   0  0  0  0  0  0  0  0  0  0  0  0
  -22.3961  -42.9312   -3.6283 C   0  0  0  0  0  0  0  0  0  0  0  0
  -16.5020  -37.9929   -8.5769 C   0  0  0  0  0  0  0  0  0  0  0  0
  -20.0246  -46.0365   -0.5665 F   0  0  0  0  0  0  0  0  0  0  0  0
  -20.1016  -44.7788   -0.0173 C   0  0  0  0  0  0  0  0  0  0  0  0
  -22.3652  -43.6735   -2.4978 N   0  0  0  0  0  0  0  0  0  0  0  0
  -22.2729  -41.4927   -6.0074 O   0  0  0  0  0  0  0  0  0  0  0  0
  -20.3223  -39.5678   -6.5377 C   0  0  0  0  0  0  0  0  0  0  0  0
  -18.9575  -38.4570  -10.2064 F   0  0  0  0  0  0  0  0  0  0  0  0
  -16.1715  -40.0265   -7.3742 N   0  0  0  0  0  0  0  0  0  0  0  0
  -14.1546  -39.7587   -9.1376 S   0  0  0  0  0  0  0  0  0  0  0  0
  -17.7759  -41.2481   -9.8794 C   0  0  0  0  0  0  0  0  0  0  0  0
  -18.5666  -41.3997  -11.0024 C   0  0  0  0  0  0  0  0  0  0  0  0
  -19.4303  -42.4638  -11.1538 C   0  0  0  0  0  0  0  0  0  0  0  0
  -19.5344  -43.4185  -10.1831 C   0  0  0  0  0  0  0  0  0  0  0  0
  -18.7535  -43.2922   -9.0460 C   0  0  0  0  0  0  0  0  0  0  0  0
  -17.8909  -42.2171   -8.9097 C   0  0  0  0  0  0  0  0  0  0  0  0
  -13.7031  -40.7872   -6.0169 H   0  0  0  0  0  0  0  0  0  0  0  0
  1  2  2  0
 24  1  1  0
  2  3  1  0
  4  3  2  0
  3 25  1  0
  5  4  1  0
  6  4  1  1
 24  5  2  0
  6  7  1  0
 19  6  1  6
  6 26  1  0
  7 11  1  0
  7 28  1  1
 13  8  2  0
 14  9  1  0
  9 24  1  0
 17 10  1  0
 10 21  1  0
 11 27  1  6
 12 15  2  0
 16 12  1  0
 26 13  1  0
 13 27  1  0
 15 14  1  0
 14 23  2  0
 15 18  1  0
 16 17  2  0
 17 22  1  0
 18 22  2  0
 21 20  1  6
 28 29  2  0
 28 33  1  0
 29 30  1  0
 30 31  2  0
 31 32  1  0
 32 33  2  0
  8 34  1  0
M  END
$$$$
