
     RDKit          3D

 34 37  0  0  0  0  0  0  0  0999 V2000
  -21.5591  -40.0507   -7.5434 C   0  0  0  0  0  0  0  0  0  0  0  0
  -21.1279  -39.1190   -8.5016 C   0  0  0  0  0  0  0  0  0  0  0  0
  -19.8254  -38.9816   -8.8593 C   0  0  0  0  0  0  0  0  0  0  0  0
  -18.8646  -39.7861   -8.2643 C   0  0  0  0  0  0  0  0  0  0  0  0
  -19.2923  -40.6882   -7.3347 C   0  0  0  0  0  0  0  0  0  0  0  0
  -17.4418  -39.6830   -8.5791 C   0  0  1  0  0  0  0  0  0  0  0  0
  -17.0045  -40.0444   -9.9403 C   0  0  1  0  0  0  0  0  0  0  0  0
  -14.5961  -40.3163   -6.3416 N   0  0  0  0  0  0  0  0  0  0  0  0
  -20.9519  -41.8192   -5.9739 N   0  0  0  0  0  0  0  0  0  0  0  0
  -20.4757  -43.7805    0.0600 O   0  0  0  0  0  0  0  0  0  0  0  0
  -15.6011  -39.5411  -10.1960 C   0  0  0  0  0  0  0  0  0  0  0  0
  -20.1435  -42.3701   -3.2424 N   0  0  0  0  0  0  0  0  0  0  0  0
  -15.2720  -40.2347   -7.4273 C   0  0  0  0  0  0  0  0  0  0  0  0
  -21.7784  -41.5997   -4.8616 C   0  0  0  0  0  0  0  0  0  0  0  0
  -21.4263  -42.1818   -3.5483 C   0  0  0  0  0  0  0  0  0  0  0  0
  -19.8481  -42.8970   -2.0513 C   0  0  0  0  0  0  0  0  0  0  0  0
  -20.8496  -43.2319   -1.1734 C   0  0  0  0  0  0  0  0  0  0  0  0
  -22.4329  -42.5132   -2.6779 C   0  0  0  0  0  0  0  0  0  0  0  0
  -17.0636  -38.1900   -8.4257 C   0  0  0  0  0  0  0  0  0  0  0  0
  -22.0433  -43.8145    1.6987 F   0  0  0  0  0  0  0  0  0  0  0  0
  -21.3866  -44.6024    0.7527 C   0  0  0  0  0  0  0  0  0  0  0  0
  -22.1449  -43.0463   -1.4717 N   0  0  0  0  0  0  0  0  0  0  0  0
  -22.8206  -40.9210   -4.9294 O   0  0  0  0  0  0  0  0  0  0  0  0
  -20.6353  -40.8594   -6.9383 C   0  0  0  0  0  0  0  0  0  0  0  0
  -19.3802  -38.1125   -9.7745 F   0  0  0  0  0  0  0  0  0  0  0  0
  -16.6904  -40.2953   -7.4901 N   0  0  0  0  0  0  0  0  0  0  0  0
  -14.3948  -40.0347   -8.9689 S   0  0  0  0  0  0  0  0  0  0  0  0
  -17.0924  -41.4238  -10.3804 C   0  0  0  0  0  0  0  0  0  0  0  0
  -17.0484  -42.5437   -9.6211 C   0  0  0  0  0  0  0  0  0  0  0  0
  -17.1432  -43.8178  -10.1379 C   0  0  0  0  0  0  0  0  0  0  0  0
  -17.2906  -44.0123  -11.4861 C   0  0  0  0  0  0  0  0  0  0  0  0
  -17.3400  -42.8947  -12.2975 C   0  0  0  0  0  0  0  0  0  0  0  0
  -17.2436  -41.6329  -11.7605 C   0  0  0  0  0  0  0  0  0  0  0  0
  -14.2601  -41.1959   -5.9095 H   0  0  0  0  0  0  0  0  0  0  0  0
  1  2  2  0
 24  1  1  0
  2  3  1  0
  4  3  2  0
  3 25  1  0
  5  4  1  0
  4  6  1  0
 24  5  2  0
  6  7  1  0
  6 19  1  6
  6 26  1  0
  7 11  1  0
  7 28  1  1
 13  8  2  0
 14  9  1  0
  9 24  1  0
 17 10  1  0
 10 21  1  0
 11 27  1  0
 12 15  2  0
 16 12  1  0
 26 13  1  0
 13 27  1  0
 15 14  1  0
 14 23  2  0
 15 18  1  0
 16 17  2  0
 17 22  1  0
 18 22  2  0
 21 20  1  0
 28 29  2  0
 28 33  1  0
 29 30  1  0
 30 31  2  0
 31 32  1  0
 32 33  2  0
  8 34  1  0
M  END
$$$$
