
     RDKit          3D

 34 37  0  0  0  0  0  0  0  0999 V2000
  -21.4744  -39.5644   -7.3813 C   0  0  0  0  0  0  0  0  0  0  0  0
  -21.0193  -38.6222   -8.3180 C   0  0  0  0  0  0  0  0  0  0  0  0
  -19.7158  -38.5198   -8.6838 C   0  0  0  0  0  0  0  0  0  0  0  0
  -18.7784  -39.3726   -8.1194 C   0  0  0  0  0  0  0  0  0  0  0  0
  -19.2293  -40.2845   -7.2107 C   0  0  0  0  0  0  0  0  0  0  0  0
  -17.3555  -39.3096   -8.4444 C   0  0  1  0  0  0  0  0  0  0  0  0
  -16.9444  -39.6273   -9.8246 C   0  0  1  0  0  0  0  0  0  0  0  0
  -14.5165  -40.1476   -6.2666 N   0  0  0  0  0  0  0  0  0  0  0  0
  -20.9155  -41.3947   -5.8657 N   0  0  0  0  0  0  0  0  0  0  0  0
  -20.4876  -43.4220    0.1491 O   0  0  0  0  0  0  0  0  0  0  0  0
  -15.5251  -39.1667  -10.0728 C   0  0  0  0  0  0  0  0  0  0  0  0
  -20.2051  -41.5563   -2.9241 N   0  0  0  0  0  0  0  0  0  0  0  0
  -15.1984  -39.9929   -7.3404 C   0  0  0  0  0  0  0  0  0  0  0  0
  -21.7504  -41.1853   -4.7577 C   0  0  0  0  0  0  0  0  0  0  0  0
  -21.4093  -41.7808   -3.4476 C   0  0  0  0  0  0  0  0  0  0  0  0
  -19.9181  -42.1036   -1.7402 C   0  0  0  0  0  0  0  0  0  0  0  0
  -20.8485  -42.8758   -1.0892 C   0  0  0  0  0  0  0  0  0  0  0  0
  -22.3446  -42.5505   -2.8047 C   0  0  0  0  0  0  0  0  0  0  0  0
  -16.9192  -37.8402   -8.2302 C   0  0  0  0  0  0  0  0  0  0  0  0
  -22.0221  -43.4090    1.8191 F   0  0  0  0  0  0  0  0  0  0  0  0
  -21.4190  -44.2126    0.8509 C   0  0  0  0  0  0  0  0  0  0  0  0
  -22.0643  -43.1082   -1.6078 N   0  0  0  0  0  0  0  0  0  0  0  0
  -22.7913  -40.5047   -4.8269 O   0  0  0  0  0  0  0  0  0  0  0  0
  -20.5740  -40.4204   -6.8067 C   0  0  0  0  0  0  0  0  0  0  0  0
  -19.2485  -37.6417   -9.5793 F   0  0  0  0  0  0  0  0  0  0  0  0
  -16.6185  -39.9970   -7.3909 N   0  0  0  0  0  0  0  0  0  0  0  0
  -14.3278  -39.7588   -8.8810 S   0  0  0  0  0  0  0  0  0  0  0  0
  -17.0888  -40.9817  -10.3232 C   0  0  0  0  0  0  0  0  0  0  0  0
  -17.5285  -41.3775  -11.5410 C   0  0  0  0  0  0  0  0  0  0  0  0
  -17.6279  -42.6982  -11.9220 C   0  0  0  0  0  0  0  0  0  0  0  0
  -17.2747  -43.7002  -11.0567 C   0  0  0  0  0  0  0  0  0  0  0  0
  -16.8205  -43.3390   -9.8025 C   0  0  0  0  0  0  0  0  0  0  0  0
  -16.7293  -42.0152   -9.4435 C   0  0  0  0  0  0  0  0  0  0  0  0
  -14.5803  -40.9607   -5.6279 H   0  0  0  0  0  0  0  0  0  0  0  0
  1  2  2  0
 24  1  1  0
  2  3  1  0
  4  3  2  0
  3 25  1  0
  5  4  1  0
  4  6  1  0
 24  5  2  0
  6  7  1  0
  6 19  1  1
  6 26  1  0
  7 11  1  0
  7 28  1  1
 13  8  2  0
 14  9  1  0
  9 24  1  0
 17 10  1  0
 10 21  1  0
 11 27  1  0
 12 15  2  0
 16 12  1  0
 26 13  1  0
 13 27  1  0
 15 14  1  0
 14 23  2  0
 15 18  1  0
 16 17  2  0
 17 22  1  0
 18 22  2  0
 21 20  1  0
 28 29  2  0
 28 33  1  0
 29 30  1  0
 30 31  2  0
 31 32  1  0
 32 33  2  0
  8 34  1  0
M  END
$$$$
