
     RDKit          3D

 34 37  0  0  0  0  0  0  0  0999 V2000
  -17.9908  -37.2012   -9.1016 C   0  0  0  0  0  0  0  0  0  0  0  0
  -18.5481  -37.9606  -10.0999 C   0  0  0  0  0  0  0  0  0  0  0  0
  -18.4462  -39.3544  -10.0377 C   0  0  0  0  0  0  0  0  0  0  0  0
  -17.8071  -40.0167   -9.0117 C   0  0  0  0  0  0  0  0  0  0  0  0
  -17.2620  -39.2209   -8.0324 C   0  0  0  0  0  0  0  0  0  0  0  0
  -17.7420  -41.4963   -8.9821 C   0  0  1  0  0  0  0  0  0  0  0  0
  -19.1378  -42.0397   -9.1441 C   0  0  1  0  0  0  0  0  0  0  0  0
  -15.6498  -43.9242   -7.3573 N   0  0  0  0  0  0  0  0  0  0  0  0
  -16.7421  -37.1164   -6.9928 N   0  0  0  0  0  0  0  0  0  0  0  0
  -11.6918  -35.3233   -3.3645 O   0  0  0  0  0  0  0  0  0  0  0  0
  -19.3265  -43.4942   -8.8272 C   0  0  0  0  0  0  0  0  0  0  0  0
  -14.4678  -36.8156   -5.1639 N   0  0  0  0  0  0  0  0  0  0  0  0
  -16.6505  -43.4197   -7.9384 C   0  0  0  0  0  0  0  0  0  0  0  0
  -15.6404  -36.2770   -7.2387 C   0  0  0  0  0  0  0  0  0  0  0  0
  -14.6022  -36.0171   -6.2303 C   0  0  0  0  0  0  0  0  0  0  0  0
  -13.5099  -36.5720   -4.2379 C   0  0  0  0  0  0  0  0  0  0  0  0
  -12.6427  -35.5100   -4.3459 C   0  0  0  0  0  0  0  0  0  0  0  0
  -13.7392  -34.9501   -6.3493 C   0  0  0  0  0  0  0  0  0  0  0  0
  -17.0000  -41.8852  -10.2710 C   0  0  0  0  0  0  0  0  0  0  0  0
  -12.9101  -34.0655   -1.8881 F   0  0  0  0  0  0  0  0  0  0  0  0
  -12.1162  -35.1816   -2.0048 C   0  0  0  0  0  0  0  0  0  0  0  0
  -12.7849  -34.7129   -5.4204 N   0  0  0  0  0  0  0  0  0  0  0  0
  -15.5231  -35.7180   -8.3612 O   0  0  0  0  0  0  0  0  0  0  0  0
  -17.3456  -37.8145   -8.0633 C   0  0  0  0  0  0  0  0  0  0  0  0
  -19.0014  -39.9982  -11.0710 F   0  0  0  0  0  0  0  0  0  0  0  0
  -17.0260  -42.0582   -7.8917 N   0  0  0  0  0  0  0  0  0  0  0  0
  -17.7501  -44.4418   -8.9131 S   0  0  0  0  0  0  0  0  0  0  0  0
  -20.1212  -41.2950   -8.3152 C   0  0  0  0  0  0  0  0  0  0  0  0
  -19.9564  -41.1600   -6.9499 C   0  0  0  0  0  0  0  0  0  0  0  0
  -20.8608  -40.4759   -6.1654 C   0  0  0  0  0  0  0  0  0  0  0  0
  -21.9672  -39.9000   -6.7209 C   0  0  0  0  0  0  0  0  0  0  0  0
  -22.1583  -40.0193   -8.0877 C   0  0  0  0  0  0  0  0  0  0  0  0
  -21.2402  -40.7099   -8.8613 C   0  0  0  0  0  0  0  0  0  0  0  0
  -15.4074  -43.6591   -6.3919 H   0  0  0  0  0  0  0  0  0  0  0  0
  1  2  2  0
 24  1  1  0
  2  3  1  0
  4  3  2  0
  3 25  1  0
  5  4  1  0
  6  4  1  1
 24  5  2  0
  6  7  1  0
 19  6  1  6
  6 26  1  0
  7 11  1  0
  7 28  1  1
 13  8  2  0
 14  9  1  0
  9 24  1  0
 17 10  1  0
 10 21  1  0
 11 27  1  6
 12 15  2  0
 16 12  1  0
 26 13  1  0
 13 27  1  0
 15 14  1  0
 14 23  2  0
 15 18  1  0
 16 17  2  0
 17 22  1  0
 18 22  2  0
 21 20  1  6
 28 29  2  0
 28 33  1  0
 29 30  1  0
 30 31  2  0
 31 32  1  0
 32 33  2  0
  8 34  1  0
M  END
$$$$
