
     RDKit          3D

 34 37  0  0  0  0  0  0  0  0999 V2000
  -21.2324  -39.6689   -7.5862 C   0  0  0  0  0  0  0  0  0  0  0  0
  -20.8297  -38.8264   -8.6350 C   0  0  0  0  0  0  0  0  0  0  0  0
  -19.5326  -38.6911   -9.0126 C   0  0  0  0  0  0  0  0  0  0  0  0
  -18.5485  -39.4066   -8.3464 C   0  0  0  0  0  0  0  0  0  0  0  0
  -18.9485  -40.2224   -7.3290 C   0  0  0  0  0  0  0  0  0  0  0  0
  -17.1300  -39.2979   -8.6786 C   0  0  1  0  0  0  0  0  0  0  0  0
  -16.7141  -39.6164  -10.0572 C   0  0  1  0  0  0  0  0  0  0  0  0
  -14.2542  -40.0125   -6.5051 N   0  0  0  0  0  0  0  0  0  0  0  0
  -20.5724  -41.2554   -5.8521 N   0  0  0  0  0  0  0  0  0  0  0  0
  -21.9911  -43.6733   -0.1462 O   0  0  0  0  0  0  0  0  0  0  0  0
  -15.3127  -39.1096  -10.3171 C   0  0  0  0  0  0  0  0  0  0  0  0
  -22.9354  -42.5898   -3.4537 N   0  0  0  0  0  0  0  0  0  0  0  0
  -14.9457  -39.8935   -7.5774 C   0  0  0  0  0  0  0  0  0  0  0  0
  -21.7782  -41.2779   -5.1353 C   0  0  0  0  0  0  0  0  0  0  0  0
  -21.8390  -41.9190   -3.8039 C   0  0  0  0  0  0  0  0  0  0  0  0
  -22.9690  -43.1609   -2.2469 C   0  0  0  0  0  0  0  0  0  0  0  0
  -21.8950  -43.0524   -1.3980 C   0  0  0  0  0  0  0  0  0  0  0  0
  -20.7619  -41.8055   -2.9627 C   0  0  0  0  0  0  0  0  0  0  0  0
  -16.7441  -37.8119   -8.4827 C   0  0  0  0  0  0  0  0  0  0  0  0
  -20.2790  -43.3318    1.3016 F   0  0  0  0  0  0  0  0  0  0  0  0
  -20.8422  -44.2577    0.4228 C   0  0  0  0  0  0  0  0  0  0  0  0
  -20.7859  -42.3790   -1.7410 N   0  0  0  0  0  0  0  0  0  0  0  0
  -22.8263  -40.7709   -5.5781 O   0  0  0  0  0  0  0  0  0  0  0  0
  -20.2850  -40.3886   -6.9092 C   0  0  0  0  0  0  0  0  0  0  0  0
  -19.1141  -37.9061  -10.0126 F   0  0  0  0  0  0  0  0  0  0  0  0
  -16.3650  -39.9476   -7.6212 N   0  0  0  0  0  0  0  0  0  0  0  0
  -14.0904  -39.6465   -9.1245 S   0  0  0  0  0  0  0  0  0  0  0  0
  -16.8134  -40.9805  -10.5403 C   0  0  0  0  0  0  0  0  0  0  0  0
  -16.2923  -41.5008  -11.6763 C   0  0  0  0  0  0  0  0  0  0  0  0
  -16.4418  -42.8194  -12.0479 C   0  0  0  0  0  0  0  0  0  0  0  0
  -17.1473  -43.6889  -11.2581 C   0  0  0  0  0  0  0  0  0  0  0  0
  -17.6962  -43.1979  -10.0888 C   0  0  0  0  0  0  0  0  0  0  0  0
  -17.5346  -41.8787   -9.7376 C   0  0  0  0  0  0  0  0  0  0  0  0
  -14.6351  -39.9997   -5.5418 H   0  0  0  0  0  0  0  0  0  0  0  0
  1  2  2  0
 24  1  1  0
  2  3  1  0
  4  3  2  0
  3 25  1  0
  5  4  1  0
  4  6  1  0
 24  5  2  0
  6  7  1  0
  6 19  1  1
  6 26  1  0
  7 11  1  0
  7 28  1  1
 13  8  2  0
 14  9  1  0
  9 24  1  0
 17 10  1  0
 10 21  1  0
 11 27  1  0
 12 15  2  0
 16 12  1  0
 26 13  1  0
 13 27  1  0
 15 14  1  0
 14 23  2  0
 15 18  1  0
 16 17  2  0
 17 22  1  0
 18 22  2  0
 21 20  1  0
 28 29  2  0
 28 33  1  0
 29 30  1  0
 30 31  2  0
 31 32  1  0
 32 33  2  0
  8 34  1  0
M  END
$$$$
