
     RDKit          3D

 34 37  0  0  0  0  0  0  0  0999 V2000
  -21.6715  -39.6997   -7.8999 C   0  0  0  0  0  0  0  0  0  0  0  0
  -21.1044  -38.7403   -8.7009 C   0  0  0  0  0  0  0  0  0  0  0  0
  -19.7111  -38.6718   -8.8054 C   0  0  0  0  0  0  0  0  0  0  0  0
  -18.8638  -39.5297   -8.1376 C   0  0  0  0  0  0  0  0  0  0  0  0
  -19.4705  -40.4753   -7.3456 C   0  0  0  0  0  0  0  0  0  0  0  0
  -17.3944  -39.4279   -8.2958 C   0  0  1  0  0  0  0  0  0  0  0  0
  -17.0536  -39.6444   -9.7473 C   0  0  1  0  0  0  0  0  0  0  0  0
  -14.5500  -40.1768   -6.2317 N   0  0  0  0  0  0  0  0  0  0  0  0
  -21.3633  -41.5911   -6.3697 N   0  0  0  0  0  0  0  0  0  0  0  0
  -20.2561  -44.1290   -0.5153 O   0  0  0  0  0  0  0  0  0  0  0  0
  -15.6076  -39.8930  -10.0612 C   0  0  0  0  0  0  0  0  0  0  0  0
  -20.1450  -42.0628   -3.4968 N   0  0  0  0  0  0  0  0  0  0  0  0
  -15.2406  -39.9561   -7.2652 C   0  0  0  0  0  0  0  0  0  0  0  0
  -21.8253  -41.2658   -5.0816 C   0  0  0  0  0  0  0  0  0  0  0  0
  -21.4262  -42.0192   -3.8835 C   0  0  0  0  0  0  0  0  0  0  0  0
  -19.7824  -42.7581   -2.3925 C   0  0  0  0  0  0  0  0  0  0  0  0
  -20.6976  -43.4422   -1.6270 C   0  0  0  0  0  0  0  0  0  0  0  0
  -22.3519  -42.7006   -3.1244 C   0  0  0  0  0  0  0  0  0  0  0  0
  -17.0681  -37.9522   -8.0152 C   0  0  0  0  0  0  0  0  0  0  0  0
  -20.9534  -43.0678    1.3910 F   0  0  0  0  0  0  0  0  0  0  0  0
  -21.1045  -44.2060    0.6351 C   0  0  0  0  0  0  0  0  0  0  0  0
  -21.9825  -43.3931   -2.0226 N   0  0  0  0  0  0  0  0  0  0  0  0
  -22.6122  -40.2941   -4.9302 O   0  0  0  0  0  0  0  0  0  0  0  0
  -20.8704  -40.5727   -7.2169 C   0  0  0  0  0  0  0  0  0  0  0  0
  -19.2611  -37.6872   -9.5918 F   0  0  0  0  0  0  0  0  0  0  0  0
  -16.6238  -40.2134   -7.3977 N   0  0  0  0  0  0  0  0  0  0  0  0
  -14.4855  -39.2753   -8.7383 S   0  0  0  0  0  0  0  0  0  0  0  0
  -17.8146  -40.7799  -10.3309 C   0  0  0  0  0  0  0  0  0  0  0  0
  -18.0195  -41.9488   -9.6232 C   0  0  0  0  0  0  0  0  0  0  0  0
  -18.7196  -43.0132  -10.1508 C   0  0  0  0  0  0  0  0  0  0  0  0
  -19.2419  -42.9461  -11.4106 C   0  0  0  0  0  0  0  0  0  0  0  0
  -19.0519  -41.7861  -12.1435 C   0  0  0  0  0  0  0  0  0  0  0  0
  -18.3462  -40.7261  -11.5987 C   0  0  0  0  0  0  0  0  0  0  0  0
  -14.5218  -41.1126   -5.8023 H   0  0  0  0  0  0  0  0  0  0  0  0
  1  2  2  0
 24  1  1  0
  2  3  1  0
  4  3  2  0
  3 25  1  0
  5  4  1  0
  6  4  1  6
 24  5  2  0
  6  7  1  0
 19  6  1  6
  6 26  1  0
  7 11  1  0
  7 28  1  1
 13  8  2  0
 14  9  1  0
  9 24  1  0
 17 10  1  0
 10 21  1  0
 11 27  1  6
 12 15  2  0
 16 12  1  0
 26 13  1  0
 13 27  1  0
 15 14  1  0
 14 23  2  0
 15 18  1  0
 16 17  2  0
 17 22  1  0
 18 22  2  0
 21 20  1  6
 28 29  2  0
 28 33  1  0
 29 30  1  0
 30 31  2  0
 31 32  1  0
 32 33  2  0
  8 34  1  0
M  END
$$$$
