
     RDKit          3D

 34 37  0  0  0  0  0  0  0  0999 V2000
  -21.3402  -39.0925   -7.5180 C   0  0  0  0  0  0  0  0  0  0  0  0
  -20.7500  -38.1419   -8.3666 C   0  0  0  0  0  0  0  0  0  0  0  0
  -19.4708  -38.2456   -8.8097 C   0  0  0  0  0  0  0  0  0  0  0  0
  -18.6976  -39.3290   -8.4186 C   0  0  0  0  0  0  0  0  0  0  0  0
  -19.2789  -40.2474   -7.5944 C   0  0  0  0  0  0  0  0  0  0  0  0
  -17.3076  -39.4994   -8.8345 C   0  0  1  0  0  0  0  0  0  0  0  0
  -17.0429  -40.2317  -10.0868 C   0  0  1  0  0  0  0  0  0  0  0  0
  -14.3624  -39.9625   -6.6857 N   0  0  0  0  0  0  0  0  0  0  0  0
  -21.0886  -41.1775   -6.2734 N   0  0  0  0  0  0  0  0  0  0  0  0
  -21.6200  -43.9919   -0.5936 O   0  0  0  0  0  0  0  0  0  0  0  0
  -15.6196  -40.0007  -10.5438 C   0  0  0  0  0  0  0  0  0  0  0  0
  -20.8310  -41.6273   -3.1997 N   0  0  0  0  0  0  0  0  0  0  0  0
  -15.1211  -40.0510   -7.7147 C   0  0  0  0  0  0  0  0  0  0  0  0
  -21.9994  -40.9784   -5.2250 C   0  0  0  0  0  0  0  0  0  0  0  0
  -21.8943  -41.7812   -3.9873 C   0  0  0  0  0  0  0  0  0  0  0  0
  -20.7564  -42.3622   -2.0871 C   0  0  0  0  0  0  0  0  0  0  0  0
  -21.7561  -43.2501   -1.7740 C   0  0  0  0  0  0  0  0  0  0  0  0
  -22.8973  -42.6654   -3.6826 C   0  0  0  0  0  0  0  0  0  0  0  0
  -16.7438  -38.0791   -9.0804 C   0  0  0  0  0  0  0  0  0  0  0  0
  -20.4041  -43.4011    1.2275 F   0  0  0  0  0  0  0  0  0  0  0  0
  -20.3534  -44.0906    0.0155 C   0  0  0  0  0  0  0  0  0  0  0  0
  -22.8314  -43.4128   -2.5605 N   0  0  0  0  0  0  0  0  0  0  0  0
  -22.9151  -40.1364   -5.2887 O   0  0  0  0  0  0  0  0  0  0  0  0
  -20.6034  -40.1732   -7.1145 C   0  0  0  0  0  0  0  0  0  0  0  0
  -18.8796  -37.3650   -9.6261 F   0  0  0  0  0  0  0  0  0  0  0  0
  -16.5365  -39.9305   -7.6747 N   0  0  0  0  0  0  0  0  0  0  0  0
  -14.3720  -40.3468   -9.3076 S   0  0  0  0  0  0  0  0  0  0  0  0
  -17.3325  -41.6510  -10.1638 C   0  0  0  0  0  0  0  0  0  0  0  0
  -17.8240  -42.3439  -11.2179 C   0  0  0  0  0  0  0  0  0  0  0  0
  -18.0641  -43.7007  -11.1916 C   0  0  0  0  0  0  0  0  0  0  0  0
  -17.8076  -44.4306  -10.0607 C   0  0  0  0  0  0  0  0  0  0  0  0
  -17.3048  -43.7613   -8.9612 C   0  0  0  0  0  0  0  0  0  0  0  0
  -17.0728  -42.4071   -9.0096 C   0  0  0  0  0  0  0  0  0  0  0  0
  -14.3064  -40.6588   -5.9207 H   0  0  0  0  0  0  0  0  0  0  0  0
  1  2  2  0
 24  1  1  0
  2  3  1  0
  4  3  2  0
  3 25  1  0
  5  4  1  0
  4  6  1  0
 24  5  2  0
  6  7  1  0
  6 19  1  6
  6 26  1  0
  7 11  1  0
  7 28  1  1
 13  8  2  0
 14  9  1  0
  9 24  1  0
 17 10  1  0
 10 21  1  0
 11 27  1  0
 12 15  2  0
 16 12  1  0
 26 13  1  0
 13 27  1  0
 15 14  1  0
 14 23  2  0
 15 18  1  0
 16 17  2  0
 17 22  1  0
 18 22  2  0
 21 20  1  0
 28 29  2  0
 28 33  1  0
 29 30  1  0
 30 31  2  0
 31 32  1  0
 32 33  2  0
  8 34  1  0
M  END
$$$$
