
     RDKit          3D

 34 37  0  0  0  0  0  0  0  0999 V2000
  -21.8740  -39.2684   -7.8916 C   0  0  0  0  0  0  0  0  0  0  0  0
  -21.2291  -38.2876   -8.6028 C   0  0  0  0  0  0  0  0  0  0  0  0
  -19.8398  -38.3518   -8.7527 C   0  0  0  0  0  0  0  0  0  0  0  0
  -19.0715  -39.3631   -8.2170 C   0  0  0  0  0  0  0  0  0  0  0  0
  -19.7545  -40.3252   -7.5117 C   0  0  0  0  0  0  0  0  0  0  0  0
  -17.6045  -39.3962   -8.4194 C   0  0  1  0  0  0  0  0  0  0  0  0
  -17.3285  -39.5680   -9.8905 C   0  0  1  0  0  0  0  0  0  0  0  0
  -14.7897  -40.5253   -6.4922 N   0  0  0  0  0  0  0  0  0  0  0  0
  -21.7292  -41.3437   -6.5932 N   0  0  0  0  0  0  0  0  0  0  0  0
  -21.7612  -43.0583   -0.3512 O   0  0  0  0  0  0  0  0  0  0  0  0
  -15.9236  -39.9388  -10.2651 C   0  0  0  0  0  0  0  0  0  0  0  0
  -21.5497  -41.4455   -3.5955 N   0  0  0  0  0  0  0  0  0  0  0  0
  -15.4845  -40.1844   -7.4896 C   0  0  0  0  0  0  0  0  0  0  0  0
  -20.9056  -42.1920   -5.8311 C   0  0  0  0  0  0  0  0  0  0  0  0
  -21.1263  -42.4309   -4.3970 C   0  0  0  0  0  0  0  0  0  0  0  0
  -21.7515  -41.6706   -2.2752 C   0  0  0  0  0  0  0  0  0  0  0  0
  -21.5347  -42.9022   -1.7028 C   0  0  0  0  0  0  0  0  0  0  0  0
  -20.9058  -43.6690   -3.8348 C   0  0  0  0  0  0  0  0  0  0  0  0
  -17.1262  -37.9759   -8.0771 C   0  0  0  0  0  0  0  0  0  0  0  0
  -19.9703  -43.5144    1.0019 F   0  0  0  0  0  0  0  0  0  0  0  0
  -21.0478  -44.0759    0.3590 C   0  0  0  0  0  0  0  0  0  0  0  0
  -21.1094  -43.8866   -2.5153 N   0  0  0  0  0  0  0  0  0  0  0  0
  -19.9368  -42.7780   -6.3827 O   0  0  0  0  0  0  0  0  0  0  0  0
  -21.1529  -40.2916   -7.3407 C   0  0  0  0  0  0  0  0  0  0  0  0
  -19.3081  -37.3356   -9.4420 F   0  0  0  0  0  0  0  0  0  0  0  0
  -16.8896  -40.2989   -7.5880 N   0  0  0  0  0  0  0  0  0  0  0  0
  -14.7086  -39.5035   -8.9517 S   0  0  0  0  0  0  0  0  0  0  0  0
  -18.2141  -40.5919  -10.5038 C   0  0  0  0  0  0  0  0  0  0  0  0
  -18.3399  -41.8551   -9.9582 C   0  0  0  0  0  0  0  0  0  0  0  0
  -19.1538  -42.8181  -10.5163 C   0  0  0  0  0  0  0  0  0  0  0  0
  -19.8742  -42.5508  -11.6451 C   0  0  0  0  0  0  0  0  0  0  0  0
  -19.7676  -41.2923  -12.2141 C   0  0  0  0  0  0  0  0  0  0  0  0
  -18.9455  -40.3364  -11.6408 C   0  0  0  0  0  0  0  0  0  0  0  0
  -14.7629  -41.5045   -6.1739 H   0  0  0  0  0  0  0  0  0  0  0  0
  1  2  2  0
 24  1  1  0
  2  3  1  0
  4  3  2  0
  3 25  1  0
  5  4  1  0
  6  4  1  6
 24  5  2  0
  6  7  1  0
 19  6  1  6
  6 26  1  0
  7 11  1  0
  7 28  1  1
 13  8  2  0
 14  9  1  0
  9 24  1  0
 17 10  1  0
 10 21  1  0
 11 27  1  6
 12 15  2  0
 16 12  1  0
 26 13  1  0
 13 27  1  0
 15 14  1  0
 14 23  2  0
 15 18  1  0
 16 17  2  0
 17 22  1  0
 18 22  2  0
 21 20  1  6
 28 29  2  0
 28 33  1  0
 29 30  1  0
 30 31  2  0
 31 32  1  0
 32 33  2  0
  8 34  1  0
M  END
$$$$
