
     RDKit          3D

 34 37  0  0  0  0  0  0  0  0999 V2000
  -21.4633  -39.5920   -7.3357 C   0  0  0  0  0  0  0  0  0  0  0  0
  -21.0310  -38.6261   -8.2589 C   0  0  0  0  0  0  0  0  0  0  0  0
  -19.7316  -38.4927   -8.6293 C   0  0  0  0  0  0  0  0  0  0  0  0
  -18.7752  -39.3364   -8.0835 C   0  0  0  0  0  0  0  0  0  0  0  0
  -19.2039  -40.2715   -7.1876 C   0  0  0  0  0  0  0  0  0  0  0  0
  -17.3555  -39.2409   -8.4142 C   0  0  1  0  0  0  0  0  0  0  0  0
  -16.9676  -39.3145   -9.8351 C   0  0  1  0  0  0  0  0  0  0  0  0
  -14.5068  -40.5017   -6.4647 N   0  0  0  0  0  0  0  0  0  0  0  0
  -20.8617  -41.4357   -5.8529 N   0  0  0  0  0  0  0  0  0  0  0  0
  -20.7196  -43.7528    0.0703 O   0  0  0  0  0  0  0  0  0  0  0  0
  -15.5428  -38.8414  -10.0195 C   0  0  0  0  0  0  0  0  0  0  0  0
  -20.2500  -41.8485   -2.9560 N   0  0  0  0  0  0  0  0  0  0  0  0
  -15.1987  -40.1466   -7.4832 C   0  0  0  0  0  0  0  0  0  0  0  0
  -21.7491  -41.2800   -4.7774 C   0  0  0  0  0  0  0  0  0  0  0  0
  -21.4701  -41.9389   -3.4830 C   0  0  0  0  0  0  0  0  0  0  0  0
  -20.0199  -42.4510   -1.7865 C   0  0  0  0  0  0  0  0  0  0  0  0
  -21.0232  -43.1428   -1.1535 C   0  0  0  0  0  0  0  0  0  0  0  0
  -22.4780  -42.6275   -2.8580 C   0  0  0  0  0  0  0  0  0  0  0  0
  -16.8878  -37.8408   -7.9489 C   0  0  0  0  0  0  0  0  0  0  0  0
  -21.5884  -42.5416    1.7797 F   0  0  0  0  0  0  0  0  0  0  0  0
  -21.6845  -43.7547    1.0970 C   0  0  0  0  0  0  0  0  0  0  0  0
  -22.2557  -43.2400   -1.6757 N   0  0  0  0  0  0  0  0  0  0  0  0
  -22.7866  -40.5961   -4.8630 O   0  0  0  0  0  0  0  0  0  0  0  0
  -20.5437  -40.4398   -6.7795 C   0  0  0  0  0  0  0  0  0  0  0  0
  -19.2858  -37.5914   -9.5125 F   0  0  0  0  0  0  0  0  0  0  0  0
  -16.6192  -40.1175   -7.5115 N   0  0  0  0  0  0  0  0  0  0  0  0
  -14.3427  -39.6567   -8.9709 S   0  0  0  0  0  0  0  0  0  0  0  0
  -17.1447  -40.5558  -10.5645 C   0  0  0  0  0  0  0  0  0  0  0  0
  -17.4508  -40.7152  -11.8736 C   0  0  0  0  0  0  0  0  0  0  0  0
  -17.5961  -41.9457  -12.4768 C   0  0  0  0  0  0  0  0  0  0  0  0
  -17.4317  -43.0983  -11.7543 C   0  0  0  0  0  0  0  0  0  0  0  0
  -17.1185  -42.9800  -10.4136 C   0  0  0  0  0  0  0  0  0  0  0  0
  -16.9782  -41.7422   -9.8323 C   0  0  0  0  0  0  0  0  0  0  0  0
  -14.8895  -40.7236   -5.5279 H   0  0  0  0  0  0  0  0  0  0  0  0
  1  2  2  0
 24  1  1  0
  2  3  1  0
  4  3  2  0
  3 25  1  0
  5  4  1  0
  4  6  1  0
 24  5  2  0
  6  7  1  0
  6 19  1  1
  6 26  1  0
  7 11  1  0
  7 28  1  1
 13  8  2  0
 14  9  1  0
  9 24  1  0
 17 10  1  0
 10 21  1  0
 11 27  1  0
 12 15  2  0
 16 12  1  0
 26 13  1  0
 13 27  1  0
 15 14  1  0
 14 23  2  0
 15 18  1  0
 16 17  2  0
 17 22  1  0
 18 22  2  0
 21 20  1  0
 28 29  2  0
 28 33  1  0
 29 30  1  0
 30 31  2  0
 31 32  1  0
 32 33  2  0
  8 34  1  0
M  END
$$$$
