
     RDKit          3D

 34 37  0  0  0  0  0  0  0  0999 V2000
  -21.2915  -39.0156   -7.2014 C   0  0  0  0  0  0  0  0  0  0  0  0
  -20.9336  -38.5516   -8.4776 C   0  0  0  0  0  0  0  0  0  0  0  0
  -19.6655  -38.6238   -8.9572 C   0  0  0  0  0  0  0  0  0  0  0  0
  -18.6667  -39.1756   -8.1683 C   0  0  0  0  0  0  0  0  0  0  0  0
  -19.0232  -39.6237   -6.9302 C   0  0  0  0  0  0  0  0  0  0  0  0
  -17.2754  -39.2680   -8.6042 C   0  0  1  0  0  0  0  0  0  0  0  0
  -17.0025  -39.8345   -9.9381 C   0  0  1  0  0  0  0  0  0  0  0  0
  -14.3145  -39.9408   -6.5339 N   0  0  0  0  0  0  0  0  0  0  0  0
  -20.5722  -40.0584   -5.1146 N   0  0  0  0  0  0  0  0  0  0  0  0
  -20.8872  -44.0657   -0.1822 O   0  0  0  0  0  0  0  0  0  0  0  0
  -15.5852  -39.5229  -10.3650 C   0  0  0  0  0  0  0  0  0  0  0  0
  -20.2326  -41.7014   -2.8255 N   0  0  0  0  0  0  0  0  0  0  0  0
  -15.0753  -39.9146   -7.5648 C   0  0  0  0  0  0  0  0  0  0  0  0
  -21.4908  -41.0720   -4.8026 C   0  0  0  0  0  0  0  0  0  0  0  0
  -21.3258  -41.8695   -3.5680 C   0  0  0  0  0  0  0  0  0  0  0  0
  -20.1040  -42.4318   -1.7149 C   0  0  0  0  0  0  0  0  0  0  0  0
  -21.0801  -43.3294   -1.3580 C   0  0  0  0  0  0  0  0  0  0  0  0
  -22.3056  -42.7635   -3.2195 C   0  0  0  0  0  0  0  0  0  0  0  0
  -16.7378  -37.8182   -8.6729 C   0  0  0  0  0  0  0  0  0  0  0  0
  -21.9269  -44.9155    1.6456 F   0  0  0  0  0  0  0  0  0  0  0  0
  -21.6288  -43.7324    0.9685 C   0  0  0  0  0  0  0  0  0  0  0  0
  -22.1851  -43.5064   -2.0989 N   0  0  0  0  0  0  0  0  0  0  0  0
  -22.4629  -41.3387   -5.5343 O   0  0  0  0  0  0  0  0  0  0  0  0
  -20.3287  -39.5657   -6.3989 C   0  0  0  0  0  0  0  0  0  0  0  0
  -19.2907  -38.2011  -10.1705 F   0  0  0  0  0  0  0  0  0  0  0  0
  -16.4925  -39.8256   -7.5080 N   0  0  0  0  0  0  0  0  0  0  0  0
  -14.3271  -39.9971   -9.1832 S   0  0  0  0  0  0  0  0  0  0  0  0
  -17.2672  -41.2382  -10.1901 C   0  0  0  0  0  0  0  0  0  0  0  0
  -18.4609  -41.8765  -10.1694 C   0  0  0  0  0  0  0  0  0  0  0  0
  -18.6089  -43.2224  -10.4266 C   0  0  0  0  0  0  0  0  0  0  0  0
  -17.5189  -43.9976  -10.7239 C   0  0  0  0  0  0  0  0  0  0  0  0
  -16.2807  -43.3847  -10.7554 C   0  0  0  0  0  0  0  0  0  0  0  0
  -16.1563  -42.0405  -10.4956 C   0  0  0  0  0  0  0  0  0  0  0  0
  -14.6361  -40.0390   -5.5540 H   0  0  0  0  0  0  0  0  0  0  0  0
  1  2  2  0
 24  1  1  0
  2  3  1  0
  4  3  2  0
  3 25  1  0
  5  4  1  0
  4  6  1  0
 24  5  2  0
  6  7  1  0
  6 19  1  6
  6 26  1  0
  7 11  1  0
  7 28  1  1
 13  8  2  0
 14  9  1  0
  9 24  1  0
 17 10  1  0
 10 21  1  0
 11 27  1  0
 12 15  2  0
 16 12  1  0
 26 13  1  0
 13 27  1  0
 15 14  1  0
 14 23  2  0
 15 18  1  0
 16 17  2  0
 17 22  1  0
 18 22  2  0
 21 20  1  0
 28 29  2  0
 28 33  1  0
 29 30  1  0
 30 31  2  0
 31 32  1  0
 32 33  2  0
  8 34  1  0
M  END
$$$$
