
     RDKit          3D

 34 37  0  0  0  0  0  0  0  0999 V2000
  -21.7228  -39.3184   -7.7447 C   0  0  0  0  0  0  0  0  0  0  0  0
  -21.1747  -38.6345   -8.8419 C   0  0  0  0  0  0  0  0  0  0  0  0
  -19.8623  -38.7181   -9.1794 C   0  0  0  0  0  0  0  0  0  0  0  0
  -19.0102  -39.5071   -8.4204 C   0  0  0  0  0  0  0  0  0  0  0  0
  -19.5510  -40.1677   -7.3565 C   0  0  0  0  0  0  0  0  0  0  0  0
  -17.5828  -39.6303   -8.7059 C   0  0  1  0  0  0  0  0  0  0  0  0
  -17.1811  -40.0934  -10.0471 C   0  0  1  0  0  0  0  0  0  0  0  0
  -14.9079  -40.6229   -6.3896 N   0  0  0  0  0  0  0  0  0  0  0  0
  -21.3458  -40.8289   -5.8643 N   0  0  0  0  0  0  0  0  0  0  0  0
  -21.1846  -44.8609   -0.9454 O   0  0  0  0  0  0  0  0  0  0  0  0
  -15.7130  -39.8167  -10.2843 C   0  0  0  0  0  0  0  0  0  0  0  0
  -20.7605  -43.0449   -4.0321 N   0  0  0  0  0  0  0  0  0  0  0  0
  -15.5437  -40.4712   -7.4918 C   0  0  0  0  0  0  0  0  0  0  0  0
  -20.8501  -40.6783   -4.5604 C   0  0  0  0  0  0  0  0  0  0  0  0
  -20.9386  -41.7980   -3.5982 C   0  0  0  0  0  0  0  0  0  0  0  0
  -20.8447  -44.0408   -3.1463 C   0  0  0  0  0  0  0  0  0  0  0  0
  -21.1086  -43.7737   -1.8253 C   0  0  0  0  0  0  0  0  0  0  0  0
  -21.2025  -41.5220   -2.2811 C   0  0  0  0  0  0  0  0  0  0  0  0
  -16.9844  -38.2083   -8.5830 C   0  0  0  0  0  0  0  0  0  0  0  0
  -21.9464  -45.9862    0.8705 F   0  0  0  0  0  0  0  0  0  0  0  0
  -21.9908  -44.7602    0.2057 C   0  0  0  0  0  0  0  0  0  0  0  0
  -21.2896  -42.5214   -1.3780 N   0  0  0  0  0  0  0  0  0  0  0  0
  -20.3259  -39.6198   -4.1649 O   0  0  0  0  0  0  0  0  0  0  0  0
  -20.9080  -40.1053   -6.9761 C   0  0  0  0  0  0  0  0  0  0  0  0
  -19.3082  -38.0890  -10.2227 F   0  0  0  0  0  0  0  0  0  0  0  0
  -16.9534  -40.3176   -7.5847 N   0  0  0  0  0  0  0  0  0  0  0  0
  -14.6185  -40.4517   -9.0181 S   0  0  0  0  0  0  0  0  0  0  0  0
  -17.4701  -41.4557  -10.4530 C   0  0  0  0  0  0  0  0  0  0  0  0
  -18.5403  -42.2143  -10.1182 C   0  0  0  0  0  0  0  0  0  0  0  0
  -18.7257  -43.5063  -10.5606 C   0  0  0  0  0  0  0  0  0  0  0  0
  -17.8050  -44.0980  -11.3850 C   0  0  0  0  0  0  0  0  0  0  0  0
  -16.6969  -43.3577  -11.7509 C   0  0  0  0  0  0  0  0  0  0  0  0
  -16.5322  -42.0703  -11.2978 C   0  0  0  0  0  0  0  0  0  0  0  0
  -15.0434  -40.0516   -5.5360 H   0  0  0  0  0  0  0  0  0  0  0  0
  1  2  2  0
 24  1  1  0
  2  3  1  0
  4  3  2  0
  3 25  1  0
  5  4  1  0
  4  6  1  0
 24  5  2  0
  6  7  1  0
  6 19  1  6
  6 26  1  0
  7 11  1  0
  7 28  1  1
 13  8  2  0
 14  9  1  0
  9 24  1  0
 17 10  1  0
 10 21  1  0
 11 27  1  0
 12 15  2  0
 16 12  1  0
 26 13  1  0
 13 27  1  0
 15 14  1  0
 14 23  2  0
 15 18  1  0
 16 17  2  0
 17 22  1  0
 18 22  2  0
 21 20  1  0
 28 29  2  0
 28 33  1  0
 29 30  1  0
 30 31  2  0
 31 32  1  0
 32 33  2  0
  8 34  1  0
M  END
$$$$
