
     RDKit          3D

 34 37  0  0  0  0  0  0  0  0999 V2000
  -21.8527  -39.6880   -7.8591 C   0  0  0  0  0  0  0  0  0  0  0  0
  -21.2924  -38.7333   -8.6704 C   0  0  0  0  0  0  0  0  0  0  0  0
  -19.9023  -38.6923   -8.8203 C   0  0  0  0  0  0  0  0  0  0  0  0
  -19.0514  -39.5733   -8.1880 C   0  0  0  0  0  0  0  0  0  0  0  0
  -19.6512  -40.5134   -7.3843 C   0  0  0  0  0  0  0  0  0  0  0  0
  -17.5862  -39.5001   -8.3938 C   0  0  1  0  0  0  0  0  0  0  0  0
  -17.2976  -39.7147   -9.8568 C   0  0  1  0  0  0  0  0  0  0  0  0
  -14.6916  -40.3184   -6.4283 N   0  0  0  0  0  0  0  0  0  0  0  0
  -21.5336  -41.5990   -6.3557 N   0  0  0  0  0  0  0  0  0  0  0  0
  -20.3048  -43.5744   -0.3162 O   0  0  0  0  0  0  0  0  0  0  0  0
  -15.8679  -39.9905  -10.2194 C   0  0  0  0  0  0  0  0  0  0  0  0
  -20.4149  -42.4134   -3.7529 N   0  0  0  0  0  0  0  0  0  0  0  0
  -15.4110  -40.0777   -7.4373 C   0  0  0  0  0  0  0  0  0  0  0  0
  -22.0871  -41.2574   -5.1085 C   0  0  0  0  0  0  0  0  0  0  0  0
  -21.6311  -41.8615   -3.8477 C   0  0  0  0  0  0  0  0  0  0  0  0
  -19.9995  -42.9685   -2.5894 C   0  0  0  0  0  0  0  0  0  0  0  0
  -20.7938  -42.9919   -1.4668 C   0  0  0  0  0  0  0  0  0  0  0  0
  -22.4357  -41.8790   -2.7297 C   0  0  0  0  0  0  0  0  0  0  0  0
  -17.2210  -38.0330   -8.1162 C   0  0  0  0  0  0  0  0  0  0  0  0
  -21.7316  -45.1706    0.4978 F   0  0  0  0  0  0  0  0  0  0  0  0
  -21.2188  -43.9168    0.7309 C   0  0  0  0  0  0  0  0  0  0  0  0
  -22.0142  -42.4352   -1.5709 N   0  0  0  0  0  0  0  0  0  0  0  0
  -23.0102  -40.4026   -5.0510 O   0  0  0  0  0  0  0  0  0  0  0  0
  -21.0478  -40.5833   -7.2102 C   0  0  0  0  0  0  0  0  0  0  0  0
  -19.4580  -37.7101   -9.6129 F   0  0  0  0  0  0  0  0  0  0  0  0
  -16.8027  -40.3063   -7.5258 N   0  0  0  0  0  0  0  0  0  0  0  0
  -14.6909  -39.4034   -8.9308 S   0  0  0  0  0  0  0  0  0  0  0  0
  -18.1001  -40.8311  -10.4213 C   0  0  0  0  0  0  0  0  0  0  0  0
  -19.4513  -40.6907  -10.6738 C   0  0  0  0  0  0  0  0  0  0  0  0
  -20.2115  -41.7170  -11.1935 C   0  0  0  0  0  0  0  0  0  0  0  0
  -19.6448  -42.9257  -11.4804 C   0  0  0  0  0  0  0  0  0  0  0  0
  -18.2917  -43.0952  -11.2373 C   0  0  0  0  0  0  0  0  0  0  0  0
  -17.5424  -42.0540  -10.7150 C   0  0  0  0  0  0  0  0  0  0  0  0
  -14.9945  -40.9903   -5.7088 H   0  0  0  0  0  0  0  0  0  0  0  0
  1  2  2  0
 24  1  1  0
  2  3  1  0
  4  3  2  0
  3 25  1  0
  5  4  1  0
  6  4  1  6
 24  5  2  0
  6  7  1  0
 19  6  1  6
  6 26  1  0
  7 11  1  0
  7 28  1  1
 13  8  2  0
 14  9  1  0
  9 24  1  0
 17 10  1  0
 10 21  1  0
 11 27  1  6
 12 15  2  0
 16 12  1  0
 26 13  1  0
 13 27  1  0
 15 14  1  0
 14 23  2  0
 15 18  1  0
 16 17  2  0
 17 22  1  0
 18 22  2  0
 21 20  1  6
 28 29  2  0
 28 33  1  0
 29 30  1  0
 30 31  2  0
 31 32  1  0
 32 33  2  0
  8 34  1  0
M  END
$$$$
