
     RDKit          3D

 34 37  0  0  0  0  0  0  0  0999 V2000
  -21.7348  -40.0243   -7.8125 C   0  0  0  0  0  0  0  0  0  0  0  0
  -21.1524  -39.9773   -9.0545 C   0  0  0  0  0  0  0  0  0  0  0  0
  -19.7634  -39.8465   -9.1546 C   0  0  0  0  0  0  0  0  0  0  0  0
  -18.9348  -39.7617   -8.0564 C   0  0  0  0  0  0  0  0  0  0  0  0
  -19.5564  -39.8120   -6.8314 C   0  0  0  0  0  0  0  0  0  0  0  0
  -17.4668  -39.6425   -8.2151 C   0  0  1  0  0  0  0  0  0  0  0  0
  -17.1743  -38.4319   -9.0630 C   0  0  1  0  0  0  0  0  0  0  0  0
  -14.7232  -41.9575   -8.3753 N   0  0  0  0  0  0  0  0  0  0  0  0
  -21.4623  -39.9821   -5.3758 N   0  0  0  0  0  0  0  0  0  0  0  0
  -21.0774  -43.5395    0.0169 O   0  0  0  0  0  0  0  0  0  0  0  0
  -15.7777  -38.3168   -9.5992 C   0  0  0  0  0  0  0  0  0  0  0  0
  -20.7742  -41.4717   -2.9502 N   0  0  0  0  0  0  0  0  0  0  0  0
  -15.3903  -40.8962   -8.5254 C   0  0  0  0  0  0  0  0  0  0  0  0
  -22.1613  -41.1186   -4.9304 C   0  0  0  0  0  0  0  0  0  0  0  0
  -21.8881  -41.7592   -3.6353 C   0  0  0  0  0  0  0  0  0  0  0  0
  -20.5270  -42.0644   -1.7577 C   0  0  0  0  0  0  0  0  0  0  0  0
  -21.3942  -42.9756   -1.2014 C   0  0  0  0  0  0  0  0  0  0  0  0
  -22.7641  -42.6705   -3.0879 C   0  0  0  0  0  0  0  0  0  0  0  0
  -16.9445  -39.2944   -6.8119 C   0  0  0  0  0  0  0  0  0  0  0  0
  -22.6755  -43.2367    1.6295 F   0  0  0  0  0  0  0  0  0  0  0  0
  -22.1131  -44.1627    0.7835 C   0  0  0  0  0  0  0  0  0  0  0  0
  -22.5108  -43.2586   -1.8964 N   0  0  0  0  0  0  0  0  0  0  0  0
  -23.0595  -41.6203   -5.6568 O   0  0  0  0  0  0  0  0  0  0  0  0
  -20.9527  -39.9429   -6.6936 C   0  0  0  0  0  0  0  0  0  0  0  0
  -19.3004  -39.7866  -10.4086 F   0  0  0  0  0  0  0  0  0  0  0  0
  -16.7968  -40.8208   -8.6394 N   0  0  0  0  0  0  0  0  0  0  0  0
  -14.5686  -39.3094   -8.6278 S   0  0  0  0  0  0  0  0  0  0  0  0
  -18.0856  -38.3429  -10.2336 C   0  0  0  0  0  0  0  0  0  0  0  0
  -18.0046  -39.2425  -11.2792 C   0  0  0  0  0  0  0  0  0  0  0  0
  -18.8394  -39.1722  -12.3745 C   0  0  0  0  0  0  0  0  0  0  0  0
  -19.7891  -38.1953  -12.4634 C   0  0  0  0  0  0  0  0  0  0  0  0
  -19.8932  -37.2792  -11.4295 C   0  0  0  0  0  0  0  0  0  0  0  0
  -19.0469  -37.3640  -10.3364 C   0  0  0  0  0  0  0  0  0  0  0  0
  -13.8520  -42.1154   -8.9015 H   0  0  0  0  0  0  0  0  0  0  0  0
  1  2  2  0
 24  1  1  0
  2  3  1  0
  4  3  2  0
  3 25  1  0
  5  4  1  0
  6  4  1  1
 24  5  2  0
  6  7  1  0
 19  6  1  6
  6 26  1  0
  7 11  1  0
  7 28  1  6
 13  8  2  0
 14  9  1  0
  9 24  1  0
 17 10  1  0
 10 21  1  0
 11 27  1  6
 12 15  2  0
 16 12  1  0
 26 13  1  0
 13 27  1  0
 15 14  1  0
 14 23  2  0
 15 18  1  0
 16 17  2  0
 17 22  1  0
 18 22  2  0
 21 20  1  6
 28 29  2  0
 28 33  1  0
 29 30  1  0
 30 31  2  0
 31 32  1  0
 32 33  2  0
  8 34  1  0
M  END
$$$$
