
     RDKit          3D

 34 37  0  0  0  0  0  0  0  0999 V2000
  -21.4277  -39.2902   -7.8110 C   0  0  0  0  0  0  0  0  0  0  0  0
  -20.9562  -38.9417   -9.0520 C   0  0  0  0  0  0  0  0  0  0  0  0
  -19.5842  -39.0262   -9.3114 C   0  0  0  0  0  0  0  0  0  0  0  0
  -18.6660  -39.4480   -8.3739 C   0  0  0  0  0  0  0  0  0  0  0  0
  -19.1779  -39.7872   -7.1441 C   0  0  0  0  0  0  0  0  0  0  0  0
  -17.2247  -39.5377   -8.7037 C   0  0  1  0  0  0  0  0  0  0  0  0
  -17.0751  -40.3129   -9.9869 C   0  0  1  0  0  0  0  0  0  0  0  0
  -14.1791  -39.6913   -6.8030 N   0  0  0  0  0  0  0  0  0  0  0  0
  -20.9463  -40.0924   -5.5442 N   0  0  0  0  0  0  0  0  0  0  0  0
  -21.5759  -44.3562   -0.6934 O   0  0  0  0  0  0  0  0  0  0  0  0
  -15.6902  -40.7825  -10.3229 C   0  0  0  0  0  0  0  0  0  0  0  0
  -22.4045  -43.1738   -4.0230 N   0  0  0  0  0  0  0  0  0  0  0  0
  -14.9829  -39.8186   -7.7681 C   0  0  0  0  0  0  0  0  0  0  0  0
  -21.7405  -41.2384   -5.3586 C   0  0  0  0  0  0  0  0  0  0  0  0
  -21.6893  -42.0470   -4.1314 C   0  0  0  0  0  0  0  0  0  0  0  0
  -22.3540  -43.9151   -2.8906 C   0  0  0  0  0  0  0  0  0  0  0  0
  -21.5783  -43.5525   -1.8143 C   0  0  0  0  0  0  0  0  0  0  0  0
  -20.9085  -41.6738   -3.0597 C   0  0  0  0  0  0  0  0  0  0  0  0
  -16.8070  -38.0982   -9.0450 C   0  0  0  0  0  0  0  0  0  0  0  0
  -19.9102  -43.3239    0.4923 F   0  0  0  0  0  0  0  0  0  0  0  0
  -20.3525  -44.5393    0.0268 C   0  0  0  0  0  0  0  0  0  0  0  0
  -20.8629  -42.4191   -1.9318 N   0  0  0  0  0  0  0  0  0  0  0  0
  -22.5319  -41.6006   -6.2689 O   0  0  0  0  0  0  0  0  0  0  0  0
  -20.5537  -39.7138   -6.8482 C   0  0  0  0  0  0  0  0  0  0  0  0
  -19.2273  -38.6412  -10.5422 F   0  0  0  0  0  0  0  0  0  0  0  0
  -16.3810  -39.9891   -7.6541 N   0  0  0  0  0  0  0  0  0  0  0  0
  -14.3891  -39.8091   -9.4566 S   0  0  0  0  0  0  0  0  0  0  0  0
  -17.9474  -41.5159  -10.0116 C   0  0  0  0  0  0  0  0  0  0  0  0
  -18.6233  -41.8919  -11.1566 C   0  0  0  0  0  0  0  0  0  0  0  0
  -19.4396  -43.0025  -11.1959 C   0  0  0  0  0  0  0  0  0  0  0  0
  -19.6096  -43.7802  -10.0865 C   0  0  0  0  0  0  0  0  0  0  0  0
  -18.9442  -43.4271   -8.9241 C   0  0  0  0  0  0  0  0  0  0  0  0
  -18.1280  -42.3083   -8.9015 C   0  0  0  0  0  0  0  0  0  0  0  0
  -13.9201  -40.4986   -6.2182 H   0  0  0  0  0  0  0  0  0  0  0  0
  1  2  2  0
 24  1  1  0
  2  3  1  0
  4  3  2  0
  3 25  1  0
  5  4  1  0
  6  4  1  1
 24  5  2  0
  6  7  1  0
 19  6  1  6
  6 26  1  0
  7 11  1  0
  7 28  1  1
 13  8  2  0
 14  9  1  0
  9 24  1  0
 17 10  1  0
 10 21  1  0
 11 27  1  6
 12 15  2  0
 16 12  1  0
 26 13  1  0
 13 27  1  0
 15 14  1  0
 14 23  2  0
 15 18  1  0
 16 17  2  0
 17 22  1  0
 18 22  2  0
 21 20  1  6
 28 29  2  0
 28 33  1  0
 29 30  1  0
 30 31  2  0
 31 32  1  0
 32 33  2  0
  8 34  1  0
M  END
$$$$
