
     RDKit          3D

 34 37  0  0  0  0  0  0  0  0999 V2000
  -21.3002  -39.6832   -7.8824 C   0  0  0  0  0  0  0  0  0  0  0  0
  -20.7990  -38.7055   -8.7051 C   0  0  0  0  0  0  0  0  0  0  0  0
  -19.4160  -38.6105   -8.8916 C   0  0  0  0  0  0  0  0  0  0  0  0
  -18.5151  -39.4593   -8.2852 C   0  0  0  0  0  0  0  0  0  0  0  0
  -19.0565  -40.4239   -7.4691 C   0  0  0  0  0  0  0  0  0  0  0  0
  -17.0599  -39.3290   -8.5295 C   0  0  1  0  0  0  0  0  0  0  0  0
  -16.7927  -39.6082   -9.9858 C   0  0  1  0  0  0  0  0  0  0  0  0
  -14.0880  -39.9045   -6.5935 N   0  0  0  0  0  0  0  0  0  0  0  0
  -20.8675  -41.5841   -6.3947 N   0  0  0  0  0  0  0  0  0  0  0  0
  -21.5418  -43.7566   -0.3210 O   0  0  0  0  0  0  0  0  0  0  0  0
  -15.3596  -39.8359  -10.3675 C   0  0  0  0  0  0  0  0  0  0  0  0
  -22.7792  -42.5465   -3.5109 N   0  0  0  0  0  0  0  0  0  0  0  0
  -14.8395  -39.7522   -7.5963 C   0  0  0  0  0  0  0  0  0  0  0  0
  -21.7840  -41.3045   -5.3648 C   0  0  0  0  0  0  0  0  0  0  0  0
  -21.7085  -41.9436   -4.0426 C   0  0  0  0  0  0  0  0  0  0  0  0
  -22.7046  -43.1337   -2.2927 C   0  0  0  0  0  0  0  0  0  0  0  0
  -21.5442  -43.1391   -1.5544 C   0  0  0  0  0  0  0  0  0  0  0  0
  -20.5405  -41.9427   -3.3123 C   0  0  0  0  0  0  0  0  0  0  0  0
  -16.7595  -37.8336   -8.3384 C   0  0  0  0  0  0  0  0  0  0  0  0
  -19.4677  -44.2311    0.5270 F   0  0  0  0  0  0  0  0  0  0  0  0
  -20.5462  -43.3862    0.6385 C   0  0  0  0  0  0  0  0  0  0  0  0
  -20.4733  -42.5311   -2.0961 N   0  0  0  0  0  0  0  0  0  0  0  0
  -22.7118  -40.4770   -5.5660 O   0  0  0  0  0  0  0  0  0  0  0  0
  -20.4443  -40.5483   -7.2582 C   0  0  0  0  0  0  0  0  0  0  0  0
  -19.0313  -37.6098   -9.6923 F   0  0  0  0  0  0  0  0  0  0  0  0
  -16.2203  -40.0499   -7.6393 N   0  0  0  0  0  0  0  0  0  0  0  0
  -14.1847  -39.1262   -9.1400 S   0  0  0  0  0  0  0  0  0  0  0  0
  -17.5527  -40.7895  -10.4713 C   0  0  0  0  0  0  0  0  0  0  0  0
  -17.4093  -42.0304   -9.8806 C   0  0  0  0  0  0  0  0  0  0  0  0
  -18.1035  -43.1375  -10.3207 C   0  0  0  0  0  0  0  0  0  0  0  0
  -18.9697  -43.0425  -11.3719 C   0  0  0  0  0  0  0  0  0  0  0  0
  -19.1335  -41.8105  -11.9836 C   0  0  0  0  0  0  0  0  0  0  0  0
  -18.4285  -40.7084  -11.5292 C   0  0  0  0  0  0  0  0  0  0  0  0
  -13.9426  -40.8348   -6.1759 H   0  0  0  0  0  0  0  0  0  0  0  0
  1  2  2  0
 24  1  1  0
  2  3  1  0
  4  3  2  0
  3 25  1  0
  5  4  1  0
  6  4  1  1
 24  5  2  0
  6  7  1  0
 19  6  1  6
  6 26  1  0
  7 11  1  0
  7 28  1  1
 13  8  2  0
 14  9  1  0
  9 24  1  0
 17 10  1  0
 10 21  1  0
 11 27  1  6
 12 15  2  0
 16 12  1  0
 26 13  1  0
 13 27  1  0
 15 14  1  0
 14 23  2  0
 15 18  1  0
 16 17  2  0
 17 22  1  0
 18 22  2  0
 21 20  1  6
 28 29  2  0
 28 33  1  0
 29 30  1  0
 30 31  2  0
 31 32  1  0
 32 33  2  0
  8 34  1  0
M  END
$$$$
