
     RDKit          3D

 34 37  0  0  0  0  0  0  0  0999 V2000
  -21.1733  -39.6440   -7.1668 C   0  0  0  0  0  0  0  0  0  0  0  0
  -20.8349  -39.2745   -8.4446 C   0  0  0  0  0  0  0  0  0  0  0  0
  -19.4863  -39.2468   -8.8148 C   0  0  0  0  0  0  0  0  0  0  0  0
  -18.4628  -39.5765   -7.9524 C   0  0  0  0  0  0  0  0  0  0  0  0
  -18.8428  -39.9403   -6.6825 C   0  0  0  0  0  0  0  0  0  0  0  0
  -17.0504  -39.5490   -8.3982 C   0  0  1  0  0  0  0  0  0  0  0  0
  -16.9341  -40.3515   -9.6681 C   0  0  1  0  0  0  0  0  0  0  0  0
  -13.8608  -39.3662   -6.7536 N   0  0  0  0  0  0  0  0  0  0  0  0
  -20.4437  -40.3708   -4.9412 N   0  0  0  0  0  0  0  0  0  0  0  0
  -20.6517  -44.8538   -0.2782 O   0  0  0  0  0  0  0  0  0  0  0  0
  -15.5436  -40.7075  -10.1052 C   0  0  0  0  0  0  0  0  0  0  0  0
  -20.0086  -42.3710   -2.8459 N   0  0  0  0  0  0  0  0  0  0  0  0
  -14.7244  -39.5974   -7.6448 C   0  0  0  0  0  0  0  0  0  0  0  0
  -21.3243  -41.4363   -4.6804 C   0  0  0  0  0  0  0  0  0  0  0  0
  -21.1598  -42.3358   -3.5288 C   0  0  0  0  0  0  0  0  0  0  0  0
  -19.8621  -43.2012   -1.7859 C   0  0  0  0  0  0  0  0  0  0  0  0
  -20.8721  -44.0350   -1.3660 C   0  0  0  0  0  0  0  0  0  0  0  0
  -22.1788  -43.1665   -3.1175 C   0  0  0  0  0  0  0  0  0  0  0  0
  -16.7947  -38.0907   -8.8116 C   0  0  0  0  0  0  0  0  0  0  0  0
  -21.9960  -44.1209    1.4253 F   0  0  0  0  0  0  0  0  0  0  0  0
  -21.7501  -45.1772    0.5808 C   0  0  0  0  0  0  0  0  0  0  0  0
  -22.0253  -43.9931   -2.0578 N   0  0  0  0  0  0  0  0  0  0  0  0
  -22.2970  -41.6424   -5.4534 O   0  0  0  0  0  0  0  0  0  0  0  0
  -20.1914  -39.9789   -6.2756 C   0  0  0  0  0  0  0  0  0  0  0  0
  -19.2640  -38.8504  -10.0733 F   0  0  0  0  0  0  0  0  0  0  0  0
  -16.0875  -39.8874   -7.4105 N   0  0  0  0  0  0  0  0  0  0  0  0
  -14.2715  -39.5932   -9.3765 S   0  0  0  0  0  0  0  0  0  0  0  0
  -17.6920  -41.6274   -9.5878 C   0  0  0  0  0  0  0  0  0  0  0  0
  -18.9853  -41.6673   -9.1030 C   0  0  0  0  0  0  0  0  0  0  0  0
  -19.7015  -42.8426   -9.0179 C   0  0  0  0  0  0  0  0  0  0  0  0
  -19.1472  -44.0250   -9.4166 C   0  0  0  0  0  0  0  0  0  0  0  0
  -17.8517  -44.0151   -9.9070 C   0  0  0  0  0  0  0  0  0  0  0  0
  -17.1462  -42.8259   -9.9858 C   0  0  0  0  0  0  0  0  0  0  0  0
  -13.8312  -39.9215   -5.8866 H   0  0  0  0  0  0  0  0  0  0  0  0
  1  2  2  0
 24  1  1  0
  2  3  1  0
  4  3  2  0
  3 25  1  0
  5  4  1  0
  6  4  1  1
 24  5  2  0
  6  7  1  0
 19  6  1  6
  6 26  1  0
  7 11  1  0
  7 28  1  1
 13  8  2  0
 14  9  1  0
  9 24  1  0
 17 10  1  0
 10 21  1  0
 11 27  1  6
 12 15  2  0
 16 12  1  0
 26 13  1  0
 13 27  1  0
 15 14  1  0
 14 23  2  0
 15 18  1  0
 16 17  2  0
 17 22  1  0
 18 22  2  0
 21 20  1  6
 28 29  2  0
 28 33  1  0
 29 30  1  0
 30 31  2  0
 31 32  1  0
 32 33  2  0
  8 34  1  0
M  END
$$$$
