
     RDKit          3D

 34 37  0  0  0  0  0  0  0  0999 V2000
  -21.6895  -40.0168   -8.2590 C   0  0  0  0  0  0  0  0  0  0  0  0
  -21.0418  -39.9431   -9.4668 C   0  0  0  0  0  0  0  0  0  0  0  0
  -19.6436  -39.9074   -9.4927 C   0  0  0  0  0  0  0  0  0  0  0  0
  -18.8691  -39.9436   -8.3531 C   0  0  0  0  0  0  0  0  0  0  0  0
  -19.5553  -40.0167   -7.1643 C   0  0  0  0  0  0  0  0  0  0  0  0
  -17.3902  -39.9218   -8.4344 C   0  0  1  0  0  0  0  0  0  0  0  0
  -16.9528  -38.5323   -8.8188 C   0  0  1  0  0  0  0  0  0  0  0  0
  -14.8497  -42.3063   -9.3131 N   0  0  0  0  0  0  0  0  0  0  0  0
  -21.5412  -40.1293   -5.8138 N   0  0  0  0  0  0  0  0  0  0  0  0
  -20.6883  -42.9601   -0.0562 O   0  0  0  0  0  0  0  0  0  0  0  0
  -15.5260  -38.3815   -9.2581 C   0  0  0  0  0  0  0  0  0  0  0  0
  -20.5639  -41.2872   -3.2744 N   0  0  0  0  0  0  0  0  0  0  0  0
  -15.4152  -41.1962   -9.1094 C   0  0  0  0  0  0  0  0  0  0  0  0
  -21.9334  -41.3770   -5.2959 C   0  0  0  0  0  0  0  0  0  0  0  0
  -21.6171  -41.7994   -3.9234 C   0  0  0  0  0  0  0  0  0  0  0  0
  -20.2767  -41.6796   -2.0103 C   0  0  0  0  0  0  0  0  0  0  0  0
  -21.0405  -42.6081   -1.3424 C   0  0  0  0  0  0  0  0  0  0  0  0
  -22.3896  -42.7304   -3.2645 C   0  0  0  0  0  0  0  0  0  0  0  0
  -16.9120  -40.1147   -6.9863 C   0  0  0  0  0  0  0  0  0  0  0  0
  -22.5122  -42.6315    1.2899 F   0  0  0  0  0  0  0  0  0  0  0  0
  -21.6635  -43.5870    0.7835 C   0  0  0  0  0  0  0  0  0  0  0  0
  -22.0968  -43.1176   -2.0019 N   0  0  0  0  0  0  0  0  0  0  0  0
  -22.5815  -42.1759   -6.0225 O   0  0  0  0  0  0  0  0  0  0  0  0
  -20.9625  -40.0540   -7.1012 C   0  0  0  0  0  0  0  0  0  0  0  0
  -19.1133  -39.8117  -10.7175 F   0  0  0  0  0  0  0  0  0  0  0  0
  -16.8026  -40.9503   -9.2181 N   0  0  0  0  0  0  0  0  0  0  0  0
  -14.4569  -39.7542   -8.6553 S   0  0  0  0  0  0  0  0  0  0  0  0
  -17.7926  -37.9693   -9.9082 C   0  0  0  0  0  0  0  0  0  0  0  0
  -17.7059  -38.4442  -11.2028 C   0  0  0  0  0  0  0  0  0  0  0  0
  -18.4746  -37.9309  -12.2261 C   0  0  0  0  0  0  0  0  0  0  0  0
  -19.3613  -36.9198  -11.9898 C   0  0  0  0  0  0  0  0  0  0  0  0
  -19.4695  -36.4239  -10.7009 C   0  0  0  0  0  0  0  0  0  0  0  0
  -18.6900  -36.9507   -9.6845 C   0  0  0  0  0  0  0  0  0  0  0  0
  -14.8948  -42.7635  -10.2349 H   0  0  0  0  0  0  0  0  0  0  0  0
  1  2  2  0
 24  1  1  0
  2  3  1  0
  4  3  2  0
  3 25  1  0
  5  4  1  0
  6  4  1  1
 24  5  2  0
  6  7  1  0
 19  6  1  6
  6 26  1  0
  7 11  1  0
  7 28  1  6
 13  8  2  0
 14  9  1  0
  9 24  1  0
 17 10  1  0
 10 21  1  0
 11 27  1  6
 12 15  2  0
 16 12  1  0
 26 13  1  0
 13 27  1  0
 15 14  1  0
 14 23  2  0
 15 18  1  0
 16 17  2  0
 17 22  1  0
 18 22  2  0
 21 20  1  6
 28 29  2  0
 28 33  1  0
 29 30  1  0
 30 31  2  0
 31 32  1  0
 32 33  2  0
  8 34  1  0
M  END
$$$$
