
     RDKit          3D

 34 37  0  0  0  0  0  0  0  0999 V2000
  -21.5140  -39.1259   -8.0116 C   0  0  0  0  0  0  0  0  0  0  0  0
  -20.8809  -38.3218   -8.9732 C   0  0  0  0  0  0  0  0  0  0  0  0
  -19.5522  -38.4034   -9.2403 C   0  0  0  0  0  0  0  0  0  0  0  0
  -18.7696  -39.3131   -8.5443 C   0  0  0  0  0  0  0  0  0  0  0  0
  -19.3928  -40.0901   -7.6122 C   0  0  0  0  0  0  0  0  0  0  0  0
  -17.3305  -39.4446   -8.7585 C   0  0  1  0  0  0  0  0  0  0  0  0
  -16.8694  -40.0381  -10.0272 C   0  0  1  0  0  0  0  0  0  0  0  0
  -14.7428  -40.1532   -6.2471 N   0  0  0  0  0  0  0  0  0  0  0  0
  -21.2940  -40.8827   -6.3308 N   0  0  0  0  0  0  0  0  0  0  0  0
  -20.8765  -44.4319   -1.0663 O   0  0  0  0  0  0  0  0  0  0  0  0
  -15.3957  -39.7663  -10.2334 C   0  0  0  0  0  0  0  0  0  0  0  0
  -20.9462  -42.8251   -4.2941 N   0  0  0  0  0  0  0  0  0  0  0  0
  -15.3344  -40.1257   -7.3835 C   0  0  0  0  0  0  0  0  0  0  0  0
  -21.4490  -40.5514   -4.9763 C   0  0  0  0  0  0  0  0  0  0  0  0
  -21.2951  -41.5905   -3.9352 C   0  0  0  0  0  0  0  0  0  0  0  0
  -20.8128  -43.7478   -3.3378 C   0  0  0  0  0  0  0  0  0  0  0  0
  -21.0324  -43.4202   -2.0224 C   0  0  0  0  0  0  0  0  0  0  0  0
  -21.5163  -41.2544   -2.6242 C   0  0  0  0  0  0  0  0  0  0  0  0
  -16.7523  -38.0089   -8.7605 C   0  0  0  0  0  0  0  0  0  0  0  0
  -19.6723  -43.6377    0.6839 F   0  0  0  0  0  0  0  0  0  0  0  0
  -20.9320  -44.1008    0.3021 C   0  0  0  0  0  0  0  0  0  0  0  0
  -21.3841  -42.1797   -1.6503 N   0  0  0  0  0  0  0  0  0  0  0  0
  -21.7167  -39.3947   -4.5996 O   0  0  0  0  0  0  0  0  0  0  0  0
  -20.7691  -40.0337   -7.3081 C   0  0  0  0  0  0  0  0  0  0  0  0
  -18.9179  -37.6608  -10.1555 F   0  0  0  0  0  0  0  0  0  0  0  0
  -16.7406  -40.0029   -7.5478 N   0  0  0  0  0  0  0  0  0  0  0  0
  -14.3476  -40.2509   -8.8656 S   0  0  0  0  0  0  0  0  0  0  0  0
  -17.1275  -41.4392  -10.3004 C   0  0  0  0  0  0  0  0  0  0  0  0
  -16.7389  -42.5137   -9.5743 C   0  0  0  0  0  0  0  0  0  0  0  0
  -17.0383  -43.8139   -9.9192 C   0  0  0  0  0  0  0  0  0  0  0  0
  -17.7658  -44.0840  -11.0485 C   0  0  0  0  0  0  0  0  0  0  0  0
  -18.1823  -43.0148  -11.8186 C   0  0  0  0  0  0  0  0  0  0  0  0
  -17.8722  -41.7257  -11.4556 C   0  0  0  0  0  0  0  0  0  0  0  0
  -15.2134  -40.2410   -5.3284 H   0  0  0  0  0  0  0  0  0  0  0  0
  1  2  2  0
 24  1  1  0
  2  3  1  0
  4  3  2  0
  3 25  1  0
  5  4  1  0
  4  6  1  0
 24  5  2  0
  6  7  1  0
  6 19  1  6
  6 26  1  0
  7 11  1  0
  7 28  1  1
 13  8  2  0
 14  9  1  0
  9 24  1  0
 17 10  1  0
 10 21  1  0
 11 27  1  0
 12 15  2  0
 16 12  1  0
 26 13  1  0
 13 27  1  0
 15 14  1  0
 14 23  2  0
 15 18  1  0
 16 17  2  0
 17 22  1  0
 18 22  2  0
 21 20  1  0
 28 29  2  0
 28 33  1  0
 29 30  1  0
 30 31  2  0
 31 32  1  0
 32 33  2  0
  8 34  1  0
M  END
$$$$
