
     RDKit          3D

 34 37  0  0  0  0  0  0  0  0999 V2000
  -19.1994  -36.3762   -7.8067 C   0  0  0  0  0  0  0  0  0  0  0  0
  -18.6759  -36.4380   -9.1084 C   0  0  0  0  0  0  0  0  0  0  0  0
  -17.9121  -37.4720   -9.5452 C   0  0  0  0  0  0  0  0  0  0  0  0
  -17.6250  -38.5212   -8.6843 C   0  0  0  0  0  0  0  0  0  0  0  0
  -18.1374  -38.4529   -7.4220 C   0  0  0  0  0  0  0  0  0  0  0  0
  -16.7925  -39.6572   -9.0726 C   0  0  1  0  0  0  0  0  0  0  0  0
  -17.2800  -40.5383  -10.1500 C   0  0  1  0  0  0  0  0  0  0  0  0
  -14.6420  -41.7072   -6.9096 N   0  0  0  0  0  0  0  0  0  0  0  0
  -19.4028  -37.4383   -5.6180 N   0  0  0  0  0  0  0  0  0  0  0  0
  -18.9719  -38.3892    0.6579 O   0  0  0  0  0  0  0  0  0  0  0  0
  -16.1602  -41.4171  -10.6617 C   0  0  0  0  0  0  0  0  0  0  0  0
  -18.6034  -38.3346   -2.9291 N   0  0  0  0  0  0  0  0  0  0  0  0
  -15.4069  -41.3946   -7.8891 C   0  0  0  0  0  0  0  0  0  0  0  0
  -18.9696  -36.5967   -4.5825 C   0  0  0  0  0  0  0  0  0  0  0  0
  -18.9688  -37.0792   -3.1844 C   0  0  0  0  0  0  0  0  0  0  0  0
  -18.6100  -38.7494   -1.6597 C   0  0  0  0  0  0  0  0  0  0  0  0
  -18.9857  -37.8948   -0.6526 C   0  0  0  0  0  0  0  0  0  0  0  0
  -19.3455  -36.2188   -2.1851 C   0  0  0  0  0  0  0  0  0  0  0  0
  -15.4671  -39.0681   -9.6129 C   0  0  0  0  0  0  0  0  0  0  0  0
  -16.9300  -39.1560    1.2799 F   0  0  0  0  0  0  0  0  0  0  0  0
  -18.2271  -39.5493    0.9485 C   0  0  0  0  0  0  0  0  0  0  0  0
  -19.3556  -36.6284   -0.8990 N   0  0  0  0  0  0  0  0  0  0  0  0
  -18.5756  -35.4334   -4.7899 O   0  0  0  0  0  0  0  0  0  0  0  0
  -18.9342  -37.3963   -6.9333 C   0  0  0  0  0  0  0  0  0  0  0  0
  -17.4054  -37.5688  -10.7802 F   0  0  0  0  0  0  0  0  0  0  0  0
  -16.3477  -40.3300   -7.8581 N   0  0  0  0  0  0  0  0  0  0  0  0
  -15.3009  -42.3461   -9.3956 S   0  0  0  0  0  0  0  0  0  0  0  0
  -18.4541  -41.3609   -9.9292 C   0  0  0  0  0  0  0  0  0  0  0  0
  -19.7515  -40.9740   -9.9216 C   0  0  0  0  0  0  0  0  0  0  0  0
  -20.8022  -41.8386   -9.7028 C   0  0  0  0  0  0  0  0  0  0  0  0
  -20.5717  -43.1701   -9.4759 C   0  0  0  0  0  0  0  0  0  0  0  0
  -19.2605  -43.6067   -9.4752 C   0  0  0  0  0  0  0  0  0  0  0  0
  -18.2277  -42.7267   -9.6958 C   0  0  0  0  0  0  0  0  0  0  0  0
  -14.7612  -41.3892   -5.9309 H   0  0  0  0  0  0  0  0  0  0  0  0
  1  2  2  0
 24  1  1  0
  2  3  1  0
  4  3  2  0
  3 25  1  0
  5  4  1  0
  4  6  1  0
 24  5  2  0
  6  7  1  0
  6 19  1  6
  6 26  1  0
  7 11  1  0
  7 28  1  1
 13  8  2  0
 14  9  1  0
  9 24  1  0
 17 10  1  0
 10 21  1  0
 11 27  1  0
 12 15  2  0
 16 12  1  0
 26 13  1  0
 13 27  1  0
 15 14  1  0
 14 23  2  0
 15 18  1  0
 16 17  2  0
 17 22  1  0
 18 22  2  0
 21 20  1  0
 28 29  2  0
 28 33  1  0
 29 30  1  0
 30 31  2  0
 31 32  1  0
 32 33  2  0
  8 34  1  0
M  END
$$$$
