
     RDKit          3D

 34 37  0  0  0  0  0  0  0  0999 V2000
  -21.6727  -39.8181   -7.8060 C   0  0  0  0  0  0  0  0  0  0  0  0
  -21.1197  -38.9276   -8.7405 C   0  0  0  0  0  0  0  0  0  0  0  0
  -19.7857  -38.8484   -8.9803 C   0  0  0  0  0  0  0  0  0  0  0  0
  -18.9155  -39.6733   -8.2826 C   0  0  0  0  0  0  0  0  0  0  0  0
  -19.4612  -40.5350   -7.3769 C   0  0  0  0  0  0  0  0  0  0  0  0
  -17.4670  -39.6317   -8.4680 C   0  0  1  0  0  0  0  0  0  0  0  0
  -16.9308  -39.9233   -9.8104 C   0  0  1  0  0  0  0  0  0  0  0  0
  -14.8666  -40.5821   -6.0514 N   0  0  0  0  0  0  0  0  0  0  0  0
  -21.2810  -41.5682   -6.1497 N   0  0  0  0  0  0  0  0  0  0  0  0
  -20.8374  -44.2107   -0.3810 O   0  0  0  0  0  0  0  0  0  0  0  0
  -15.4860  -39.4862   -9.9092 C   0  0  0  0  0  0  0  0  0  0  0  0
  -20.4416  -41.8686   -3.0945 N   0  0  0  0  0  0  0  0  0  0  0  0
  -15.4390  -40.3867   -7.1812 C   0  0  0  0  0  0  0  0  0  0  0  0
  -21.8948  -41.2372   -4.9323 C   0  0  0  0  0  0  0  0  0  0  0  0
  -21.6086  -42.0293   -3.7166 C   0  0  0  0  0  0  0  0  0  0  0  0
  -20.2039  -42.5939   -1.9986 C   0  0  0  0  0  0  0  0  0  0  0  0
  -21.1459  -43.4792   -1.5350 C   0  0  0  0  0  0  0  0  0  0  0  0
  -22.5550  -42.9109   -3.2608 C   0  0  0  0  0  0  0  0  0  0  0  0
  -17.0266  -38.1773   -8.1738 C   0  0  0  0  0  0  0  0  0  0  0  0
  -21.8315  -43.0275    1.2790 F   0  0  0  0  0  0  0  0  0  0  0  0
  -20.6083  -43.5250    0.8284 C   0  0  0  0  0  0  0  0  0  0  0  0
  -22.3245  -43.6487   -2.1541 N   0  0  0  0  0  0  0  0  0  0  0  0
  -22.6892  -40.2839   -4.8241 O   0  0  0  0  0  0  0  0  0  0  0  0
  -20.8404  -40.6456   -7.1015 C   0  0  0  0  0  0  0  0  0  0  0  0
  -19.2251  -38.0198   -9.8695 F   0  0  0  0  0  0  0  0  0  0  0  0
  -16.8475  -40.3602   -7.3676 N   0  0  0  0  0  0  0  0  0  0  0  0
  -14.4200  -40.1324   -8.6245 S   0  0  0  0  0  0  0  0  0  0  0  0
  -17.0511  -41.2617  -10.3567 C   0  0  0  0  0  0  0  0  0  0  0  0
  -16.0917  -42.0046  -10.9572 C   0  0  0  0  0  0  0  0  0  0  0  0
  -16.3069  -43.2757  -11.4443 C   0  0  0  0  0  0  0  0  0  0  0  0
  -17.5411  -43.8613  -11.3386 C   0  0  0  0  0  0  0  0  0  0  0  0
  -18.5492  -43.1365  -10.7319 C   0  0  0  0  0  0  0  0  0  0  0  0
  -18.3122  -41.8699  -10.2530 C   0  0  0  0  0  0  0  0  0  0  0  0
  -13.9187  -40.9791   -5.9205 H   0  0  0  0  0  0  0  0  0  0  0  0
  1  2  2  0
 24  1  1  0
  2  3  1  0
  4  3  2  0
  3 25  1  0
  5  4  1  0
  4  6  1  0
 24  5  2  0
  6  7  1  0
  6 19  1  1
  6 26  1  0
  7 11  1  0
  7 28  1  1
 13  8  2  0
 14  9  1  0
  9 24  1  0
 17 10  1  0
 10 21  1  0
 11 27  1  0
 12 15  2  0
 16 12  1  0
 26 13  1  0
 13 27  1  0
 15 14  1  0
 14 23  2  0
 15 18  1  0
 16 17  2  0
 17 22  1  0
 18 22  2  0
 21 20  1  0
 28 29  2  0
 28 33  1  0
 29 30  1  0
 30 31  2  0
 31 32  1  0
 32 33  2  0
  8 34  1  0
M  END
$$$$
