
     RDKit          3D

 34 37  0  0  0  0  0  0  0  0999 V2000
  -21.5923  -40.1011   -7.2779 C   0  0  0  0  0  0  0  0  0  0  0  0
  -21.2538  -39.2150   -8.3135 C   0  0  0  0  0  0  0  0  0  0  0  0
  -19.9791  -39.0461   -8.7493 C   0  0  0  0  0  0  0  0  0  0  0  0
  -18.9534  -39.7701   -8.1592 C   0  0  0  0  0  0  0  0  0  0  0  0
  -19.2911  -40.6283   -7.1542 C   0  0  0  0  0  0  0  0  0  0  0  0
  -17.5549  -39.6276   -8.5568 C   0  0  1  0  0  0  0  0  0  0  0  0
  -17.2017  -39.9022   -9.9620 C   0  0  1  0  0  0  0  0  0  0  0  0
  -14.5648  -40.3483   -6.5454 N   0  0  0  0  0  0  0  0  0  0  0  0
  -20.8252  -41.7390   -5.6382 N   0  0  0  0  0  0  0  0  0  0  0  0
  -21.2568  -43.8616    0.3437 O   0  0  0  0  0  0  0  0  0  0  0  0
  -15.8232  -39.3640  -10.2757 C   0  0  0  0  0  0  0  0  0  0  0  0
  -20.5434  -42.0698   -2.7035 N   0  0  0  0  0  0  0  0  0  0  0  0
  -15.3098  -40.2134   -7.5794 C   0  0  0  0  0  0  0  0  0  0  0  0
  -21.8612  -41.6472   -4.6967 C   0  0  0  0  0  0  0  0  0  0  0  0
  -21.6959  -42.2369   -3.3505 C   0  0  0  0  0  0  0  0  0  0  0  0
  -20.4156  -42.6108   -1.4892 C   0  0  0  0  0  0  0  0  0  0  0  0
  -21.4523  -43.3187   -0.9326 C   0  0  0  0  0  0  0  0  0  0  0  0
  -22.7365  -42.9423   -2.8024 C   0  0  0  0  0  0  0  0  0  0  0  0
  -17.1842  -38.1407   -8.3394 C   0  0  0  0  0  0  0  0  0  0  0  0
  -22.9888  -43.5110    1.7654 F   0  0  0  0  0  0  0  0  0  0  0  0
  -22.3380  -44.4806    1.0018 C   0  0  0  0  0  0  0  0  0  0  0  0
  -22.6173  -43.4929   -1.5758 N   0  0  0  0  0  0  0  0  0  0  0  0
  -22.9407  -41.0782   -4.9469 O   0  0  0  0  0  0  0  0  0  0  0  0
  -20.6027  -40.8302   -6.6755 C   0  0  0  0  0  0  0  0  0  0  0  0
  -19.6217  -38.2191   -9.7390 F   0  0  0  0  0  0  0  0  0  0  0  0
  -16.7285  -40.2913   -7.5557 N   0  0  0  0  0  0  0  0  0  0  0  0
  -14.5355  -39.9105   -9.1588 S   0  0  0  0  0  0  0  0  0  0  0  0
  -17.3022  -41.2546  -10.4767 C   0  0  0  0  0  0  0  0  0  0  0  0
  -17.3440  -41.6515  -11.7704 C   0  0  0  0  0  0  0  0  0  0  0  0
  -17.4387  -42.9703  -12.1592 C   0  0  0  0  0  0  0  0  0  0  0  0
  -17.4965  -43.9690  -11.2229 C   0  0  0  0  0  0  0  0  0  0  0  0
  -17.4567  -43.6066   -9.8899 C   0  0  0  0  0  0  0  0  0  0  0  0
  -17.3620  -42.2847   -9.5246 C   0  0  0  0  0  0  0  0  0  0  0  0
  -13.6493  -40.8327   -6.5255 H   0  0  0  0  0  0  0  0  0  0  0  0
  1  2  2  0
 24  1  1  0
  2  3  1  0
  4  3  2  0
  3 25  1  0
  5  4  1  0
  4  6  1  0
 24  5  2  0
  6  7  1  0
  6 19  1  1
  6 26  1  0
  7 11  1  0
  7 28  1  1
 13  8  2  0
 14  9  1  0
  9 24  1  0
 17 10  1  0
 10 21  1  0
 11 27  1  0
 12 15  2  0
 16 12  1  0
 26 13  1  0
 13 27  1  0
 15 14  1  0
 14 23  2  0
 15 18  1  0
 16 17  2  0
 17 22  1  0
 18 22  2  0
 21 20  1  0
 28 29  2  0
 28 33  1  0
 29 30  1  0
 30 31  2  0
 31 32  1  0
 32 33  2  0
  8 34  1  0
M  END
$$$$
