
     RDKit          3D

 34 37  0  0  0  0  0  0  0  0999 V2000
  -21.5236  -39.4608   -7.9948 C   0  0  0  0  0  0  0  0  0  0  0  0
  -20.9807  -38.5833   -8.9474 C   0  0  0  0  0  0  0  0  0  0  0  0
  -19.6534  -38.5330   -9.2284 C   0  0  0  0  0  0  0  0  0  0  0  0
  -18.7800  -39.3757   -8.5566 C   0  0  0  0  0  0  0  0  0  0  0  0
  -19.3158  -40.2247   -7.6331 C   0  0  0  0  0  0  0  0  0  0  0  0
  -17.3374  -39.3655   -8.7866 C   0  0  1  0  0  0  0  0  0  0  0  0
  -16.8456  -39.7412  -10.1252 C   0  0  1  0  0  0  0  0  0  0  0  0
  -14.6771  -40.2126   -6.3969 N   0  0  0  0  0  0  0  0  0  0  0  0
  -21.1186  -41.2173   -6.3486 N   0  0  0  0  0  0  0  0  0  0  0  0
  -21.2636  -44.1752   -0.7170 O   0  0  0  0  0  0  0  0  0  0  0  0
  -15.3992  -39.3311  -10.2916 C   0  0  0  0  0  0  0  0  0  0  0  0
  -20.6682  -42.7004   -3.9536 N   0  0  0  0  0  0  0  0  0  0  0  0
  -15.2809  -40.0742   -7.5187 C   0  0  0  0  0  0  0  0  0  0  0  0
  -21.7395  -40.8737   -5.1383 C   0  0  0  0  0  0  0  0  0  0  0  0
  -21.6092  -41.7574   -3.9596 C   0  0  0  0  0  0  0  0  0  0  0  0
  -20.5681  -43.4872   -2.8791 C   0  0  0  0  0  0  0  0  0  0  0  0
  -21.4189  -43.3187   -1.8144 C   0  0  0  0  0  0  0  0  0  0  0  0
  -22.4631  -41.5820   -2.9009 C   0  0  0  0  0  0  0  0  0  0  0  0
  -16.8701  -37.9031   -8.5901 C   0  0  0  0  0  0  0  0  0  0  0  0
  -21.1361  -42.5749    0.8850 F   0  0  0  0  0  0  0  0  0  0  0  0
  -20.5294  -43.7348    0.4019 C   0  0  0  0  0  0  0  0  0  0  0  0
  -22.3701  -42.3720   -1.8103 N   0  0  0  0  0  0  0  0  0  0  0  0
  -22.4122  -39.8338   -5.0062 O   0  0  0  0  0  0  0  0  0  0  0  0
  -20.6878  -40.3053   -7.3151 C   0  0  0  0  0  0  0  0  0  0  0  0
  -19.1029  -37.7175  -10.1358 F   0  0  0  0  0  0  0  0  0  0  0  0
  -16.6940  -40.0384   -7.6647 N   0  0  0  0  0  0  0  0  0  0  0  0
  -14.3030  -39.9177   -9.0037 S   0  0  0  0  0  0  0  0  0  0  0  0
  -16.9992  -41.1069  -10.5895 C   0  0  0  0  0  0  0  0  0  0  0  0
  -18.0410  -41.6428  -11.2680 C   0  0  0  0  0  0  0  0  0  0  0  0
  -18.0911  -42.9604  -11.6689 C   0  0  0  0  0  0  0  0  0  0  0  0
  -17.0552  -43.8125  -11.3889 C   0  0  0  0  0  0  0  0  0  0  0  0
  -15.9716  -43.3052  -10.6974 C   0  0  0  0  0  0  0  0  0  0  0  0
  -15.9427  -41.9874  -10.3071 C   0  0  0  0  0  0  0  0  0  0  0  0
  -15.1357  -40.2361   -5.4683 H   0  0  0  0  0  0  0  0  0  0  0  0
  1  2  2  0
 24  1  1  0
  2  3  1  0
  4  3  2  0
  3 25  1  0
  5  4  1  0
  4  6  1  0
 24  5  2  0
  6  7  1  0
  6 19  1  1
  6 26  1  0
  7 11  1  0
  7 28  1  1
 13  8  2  0
 14  9  1  0
  9 24  1  0
 17 10  1  0
 10 21  1  0
 11 27  1  0
 12 15  2  0
 16 12  1  0
 26 13  1  0
 13 27  1  0
 15 14  1  0
 14 23  2  0
 15 18  1  0
 16 17  2  0
 17 22  1  0
 18 22  2  0
 21 20  1  0
 28 29  2  0
 28 33  1  0
 29 30  1  0
 30 31  2  0
 31 32  1  0
 32 33  2  0
  8 34  1  0
M  END
$$$$
