
     RDKit          3D

 34 37  0  0  0  0  0  0  0  0999 V2000
  -21.6041  -39.1153   -7.5153 C   0  0  0  0  0  0  0  0  0  0  0  0
  -21.1351  -38.8646   -8.7806 C   0  0  0  0  0  0  0  0  0  0  0  0
  -19.7667  -38.9923   -9.0412 C   0  0  0  0  0  0  0  0  0  0  0  0
  -18.8497  -39.3629   -8.0813 C   0  0  0  0  0  0  0  0  0  0  0  0
  -19.3589  -39.6045   -6.8275 C   0  0  0  0  0  0  0  0  0  0  0  0
  -17.4124  -39.5021   -8.4120 C   0  0  1  0  0  0  0  0  0  0  0  0
  -17.2853  -40.3737   -9.6343 C   0  0  1  0  0  0  0  0  0  0  0  0
  -14.3561  -39.5658   -6.5234 N   0  0  0  0  0  0  0  0  0  0  0  0
  -21.1212  -39.7627   -5.1998 N   0  0  0  0  0  0  0  0  0  0  0  0
  -20.8681  -43.6146   -0.0052 O   0  0  0  0  0  0  0  0  0  0  0  0
  -15.9110  -40.8912   -9.9424 C   0  0  0  0  0  0  0  0  0  0  0  0
  -20.4855  -41.3605   -2.8237 N   0  0  0  0  0  0  0  0  0  0  0  0
  -15.1690  -39.7511   -7.4714 C   0  0  0  0  0  0  0  0  0  0  0  0
  -21.7316  -40.9923   -4.8929 C   0  0  0  0  0  0  0  0  0  0  0  0
  -21.5155  -41.6863   -3.6146 C   0  0  0  0  0  0  0  0  0  0  0  0
  -20.2907  -42.0027   -1.6472 C   0  0  0  0  0  0  0  0  0  0  0  0
  -21.1279  -43.0045   -1.2147 C   0  0  0  0  0  0  0  0  0  0  0  0
  -22.3609  -42.6883   -3.1918 C   0  0  0  0  0  0  0  0  0  0  0  0
  -16.9730  -38.0997   -8.8628 C   0  0  0  0  0  0  0  0  0  0  0  0
  -21.1882  -45.6564   -0.9925 F   0  0  0  0  0  0  0  0  0  0  0  0
  -20.5142  -45.0015    0.0107 C   0  0  0  0  0  0  0  0  0  0  0  0
  -22.1602  -43.3255   -2.0155 N   0  0  0  0  0  0  0  0  0  0  0  0
  -22.4961  -41.5341   -5.7344 O   0  0  0  0  0  0  0  0  0  0  0  0
  -20.7311  -39.4851   -6.5297 C   0  0  0  0  0  0  0  0  0  0  0  0
  -19.4116  -38.7025  -10.2983 F   0  0  0  0  0  0  0  0  0  0  0  0
  -16.5689  -39.8882   -7.3365 N   0  0  0  0  0  0  0  0  0  0  0  0
  -14.5874  -39.8784   -9.1594 S   0  0  0  0  0  0  0  0  0  0  0  0
  -18.1779  -41.5599   -9.5634 C   0  0  0  0  0  0  0  0  0  0  0  0
  -17.8848  -42.6338   -8.7449 C   0  0  0  0  0  0  0  0  0  0  0  0
  -18.6996  -43.7436   -8.6699 C   0  0  0  0  0  0  0  0  0  0  0  0
  -19.8419  -43.8192   -9.4142 C   0  0  0  0  0  0  0  0  0  0  0  0
  -20.1610  -42.7570  -10.2440 C   0  0  0  0  0  0  0  0  0  0  0  0
  -19.3316  -41.6495  -10.3076 C   0  0  0  0  0  0  0  0  0  0  0  0
  -14.3651  -40.1720   -5.6907 H   0  0  0  0  0  0  0  0  0  0  0  0
  1  2  2  0
 24  1  1  0
  2  3  1  0
  4  3  2  0
  3 25  1  0
  5  4  1  0
  6  4  1  1
 24  5  2  0
  6  7  1  0
 19  6  1  6
  6 26  1  0
  7 11  1  0
  7 28  1  1
 13  8  2  0
 14  9  1  0
  9 24  1  0
 17 10  1  0
 10 21  1  0
 11 27  1  6
 12 15  2  0
 16 12  1  0
 26 13  1  0
 13 27  1  0
 15 14  1  0
 14 23  2  0
 15 18  1  0
 16 17  2  0
 17 22  1  0
 18 22  2  0
 21 20  1  6
 28 29  2  0
 28 33  1  0
 29 30  1  0
 30 31  2  0
 31 32  1  0
 32 33  2  0
  8 34  1  0
M  END
$$$$
