
     RDKit          3D

 34 37  0  0  0  0  0  0  0  0999 V2000
  -21.7166  -39.4035   -7.7140 C   0  0  0  0  0  0  0  0  0  0  0  0
  -21.1402  -38.3835   -8.4289 C   0  0  0  0  0  0  0  0  0  0  0  0
  -19.7488  -38.3457   -8.5674 C   0  0  0  0  0  0  0  0  0  0  0  0
  -18.9122  -39.2926   -8.0167 C   0  0  0  0  0  0  0  0  0  0  0  0
  -19.5278  -40.2968   -7.3082 C   0  0  0  0  0  0  0  0  0  0  0  0
  -17.4450  -39.2183   -8.2074 C   0  0  1  0  0  0  0  0  0  0  0  0
  -17.1507  -39.2855   -9.6835 C   0  0  1  0  0  0  0  0  0  0  0  0
  -14.5725  -40.2728   -6.3236 N   0  0  0  0  0  0  0  0  0  0  0  0
  -21.4291  -41.4514   -6.3959 N   0  0  0  0  0  0  0  0  0  0  0  0
  -19.9989  -43.8303   -0.5460 O   0  0  0  0  0  0  0  0  0  0  0  0
  -15.7227  -39.5417  -10.0662 C   0  0  0  0  0  0  0  0  0  0  0  0
  -20.1588  -41.8779   -3.6011 N   0  0  0  0  0  0  0  0  0  0  0  0
  -15.2830  -39.9201   -7.3057 C   0  0  0  0  0  0  0  0  0  0  0  0
  -21.9629  -41.2256   -5.1142 C   0  0  0  0  0  0  0  0  0  0  0  0
  -21.4600  -41.9118   -3.9148 C   0  0  0  0  0  0  0  0  0  0  0  0
  -19.7005  -42.5116   -2.4953 C   0  0  0  0  0  0  0  0  0  0  0  0
  -20.5358  -43.2093   -1.6544 C   0  0  0  0  0  0  0  0  0  0  0  0
  -22.3064  -42.6076   -3.0799 C   0  0  0  0  0  0  0  0  0  0  0  0
  -17.0625  -37.7925   -7.7790 C   0  0  0  0  0  0  0  0  0  0  0  0
  -20.8665  -43.1840    1.4730 F   0  0  0  0  0  0  0  0  0  0  0  0
  -20.8648  -44.1896    0.5358 C   0  0  0  0  0  0  0  0  0  0  0  0
  -21.8416  -43.2381   -1.9771 N   0  0  0  0  0  0  0  0  0  0  0  0
  -22.9090  -40.4068   -4.9702 O   0  0  0  0  0  0  0  0  0  0  0  0
  -20.9262  -40.3658   -7.1484 C   0  0  0  0  0  0  0  0  0  0  0  0
  -19.2882  -37.2986   -9.2616 F   0  0  0  0  0  0  0  0  0  0  0  0
  -16.6770  -40.1198   -7.4233 N   0  0  0  0  0  0  0  0  0  0  0  0
  -14.5456  -39.1058   -8.7189 S   0  0  0  0  0  0  0  0  0  0  0  0
  -17.9642  -40.3272  -10.3631 C   0  0  0  0  0  0  0  0  0  0  0  0
  -18.0014  -41.6282   -9.8992 C   0  0  0  0  0  0  0  0  0  0  0  0
  -18.7475  -42.6078  -10.5197 C   0  0  0  0  0  0  0  0  0  0  0  0
  -19.4863  -42.3198  -11.6312 C   0  0  0  0  0  0  0  0  0  0  0  0
  -19.4681  -41.0234  -12.1189 C   0  0  0  0  0  0  0  0  0  0  0  0
  -18.7132  -40.0512  -11.4837 C   0  0  0  0  0  0  0  0  0  0  0  0
  -14.7177  -41.1827   -5.8633 H   0  0  0  0  0  0  0  0  0  0  0  0
  1  2  2  0
 24  1  1  0
  2  3  1  0
  4  3  2  0
  3 25  1  0
  5  4  1  0
  6  4  1  6
 24  5  2  0
  6  7  1  0
 19  6  1  6
  6 26  1  0
  7 11  1  0
  7 28  1  1
 13  8  2  0
 14  9  1  0
  9 24  1  0
 17 10  1  0
 10 21  1  0
 11 27  1  6
 12 15  2  0
 16 12  1  0
 26 13  1  0
 13 27  1  0
 15 14  1  0
 14 23  2  0
 15 18  1  0
 16 17  2  0
 17 22  1  0
 18 22  2  0
 21 20  1  6
 28 29  2  0
 28 33  1  0
 29 30  1  0
 30 31  2  0
 31 32  1  0
 32 33  2  0
  8 34  1  0
M  END
$$$$
