
     RDKit          3D

 34 37  0  0  0  0  0  0  0  0999 V2000
  -21.9532  -39.1773   -8.1574 C   0  0  0  0  0  0  0  0  0  0  0  0
  -21.3366  -38.5444   -9.2489 C   0  0  0  0  0  0  0  0  0  0  0  0
  -20.0066  -38.6457   -9.5022 C   0  0  0  0  0  0  0  0  0  0  0  0
  -19.2057  -39.4015   -8.6585 C   0  0  0  0  0  0  0  0  0  0  0  0
  -19.8128  -40.0127   -7.6009 C   0  0  0  0  0  0  0  0  0  0  0  0
  -17.7642  -39.5403   -8.8513 C   0  0  1  0  0  0  0  0  0  0  0  0
  -17.2900  -40.2365  -10.0617 C   0  0  1  0  0  0  0  0  0  0  0  0
  -15.1898  -40.0134   -6.2717 N   0  0  0  0  0  0  0  0  0  0  0  0
  -21.6975  -40.6027   -6.1920 N   0  0  0  0  0  0  0  0  0  0  0  0
  -22.2304  -44.1877   -0.9633 O   0  0  0  0  0  0  0  0  0  0  0  0
  -15.8168  -39.9725  -10.2807 C   0  0  0  0  0  0  0  0  0  0  0  0
  -21.3031  -42.6684   -4.0997 N   0  0  0  0  0  0  0  0  0  0  0  0
  -15.7735  -40.0872   -7.4101 C   0  0  0  0  0  0  0  0  0  0  0  0
  -21.3104  -40.3655   -4.8645 C   0  0  0  0  0  0  0  0  0  0  0  0
  -21.5548  -41.3893   -3.8254 C   0  0  0  0  0  0  0  0  0  0  0  0
  -21.5309  -43.5762   -3.1471 C   0  0  0  0  0  0  0  0  0  0  0  0
  -22.0121  -43.1888   -1.9206 C   0  0  0  0  0  0  0  0  0  0  0  0
  -22.0353  -40.9933   -2.6036 C   0  0  0  0  0  0  0  0  0  0  0  0
  -17.1955  -38.1059   -8.9720 C   0  0  0  0  0  0  0  0  0  0  0  0
  -20.8808  -44.0284    0.8524 F   0  0  0  0  0  0  0  0  0  0  0  0
  -21.1259  -44.7656   -0.3066 C   0  0  0  0  0  0  0  0  0  0  0  0
  -22.2688  -41.9030   -1.6340 N   0  0  0  0  0  0  0  0  0  0  0  0
  -20.7568  -39.3073   -4.5106 O   0  0  0  0  0  0  0  0  0  0  0  0
  -21.1900  -39.9306   -7.3065 C   0  0  0  0  0  0  0  0  0  0  0  0
  -19.3875  -38.0652  -10.5371 F   0  0  0  0  0  0  0  0  0  0  0  0
  -17.1792  -39.9891   -7.5935 N   0  0  0  0  0  0  0  0  0  0  0  0
  -14.7753  -40.3311   -8.8696 S   0  0  0  0  0  0  0  0  0  0  0  0
  -17.5368  -41.6576  -10.2160 C   0  0  0  0  0  0  0  0  0  0  0  0
  -18.0123  -42.5247   -9.2914 C   0  0  0  0  0  0  0  0  0  0  0  0
  -18.2151  -43.8653   -9.5385 C   0  0  0  0  0  0  0  0  0  0  0  0
  -17.9351  -44.3956  -10.7705 C   0  0  0  0  0  0  0  0  0  0  0  0
  -17.4474  -43.5441  -11.7436 C   0  0  0  0  0  0  0  0  0  0  0  0
  -17.2528  -42.2100  -11.4752 C   0  0  0  0  0  0  0  0  0  0  0  0
  -14.2881  -40.4625   -6.0302 H   0  0  0  0  0  0  0  0  0  0  0  0
  1  2  2  0
 24  1  1  0
  2  3  1  0
  4  3  2  0
  3 25  1  0
  5  4  1  0
  4  6  1  0
 24  5  2  0
  6  7  1  0
  6 19  1  6
  6 26  1  0
  7 11  1  0
  7 28  1  1
 13  8  2  0
 14  9  1  0
  9 24  1  0
 17 10  1  0
 10 21  1  0
 11 27  1  0
 12 15  2  0
 16 12  1  0
 26 13  1  0
 13 27  1  0
 15 14  1  0
 14 23  2  0
 15 18  1  0
 16 17  2  0
 17 22  1  0
 18 22  2  0
 21 20  1  0
 28 29  2  0
 28 33  1  0
 29 30  1  0
 30 31  2  0
 31 32  1  0
 32 33  2  0
  8 34  1  0
M  END
$$$$
