
     RDKit          3D

 34 37  0  0  0  0  0  0  0  0999 V2000
  -21.5875  -39.8577   -7.6239 C   0  0  0  0  0  0  0  0  0  0  0  0
  -21.0885  -38.8432   -8.4022 C   0  0  0  0  0  0  0  0  0  0  0  0
  -19.7086  -38.7596   -8.6156 C   0  0  0  0  0  0  0  0  0  0  0  0
  -18.8088  -39.6553   -8.0790 C   0  0  0  0  0  0  0  0  0  0  0  0
  -19.3480  -40.6557   -7.3055 C   0  0  0  0  0  0  0  0  0  0  0  0
  -17.3575  -39.5344   -8.3498 C   0  0  1  0  0  0  0  0  0  0  0  0
  -17.1343  -39.6770   -9.8329 C   0  0  1  0  0  0  0  0  0  0  0  0
  -14.3526  -40.3608   -6.5612 N   0  0  0  0  0  0  0  0  0  0  0  0
  -21.1538  -41.8459   -6.2554 N   0  0  0  0  0  0  0  0  0  0  0  0
  -20.1406  -43.6357   -0.1142 O   0  0  0  0  0  0  0  0  0  0  0  0
  -15.7175  -39.8986  -10.2743 C   0  0  0  0  0  0  0  0  0  0  0  0
  -20.2368  -41.7640   -3.2220 N   0  0  0  0  0  0  0  0  0  0  0  0
  -15.1254  -40.0953   -7.5235 C   0  0  0  0  0  0  0  0  0  0  0  0
  -21.8415  -41.5872   -5.0560 C   0  0  0  0  0  0  0  0  0  0  0  0
  -21.4065  -42.1306   -3.7607 C   0  0  0  0  0  0  0  0  0  0  0  0
  -19.8405  -42.2673   -2.0287 C   0  0  0  0  0  0  0  0  0  0  0  0
  -20.6078  -43.1650   -1.3235 C   0  0  0  0  0  0  0  0  0  0  0  0
  -22.1836  -43.0292   -3.0635 C   0  0  0  0  0  0  0  0  0  0  0  0
  -17.0153  -38.0716   -8.0240 C   0  0  0  0  0  0  0  0  0  0  0  0
  -21.2314  -45.4665    0.7254 F   0  0  0  0  0  0  0  0  0  0  0  0
  -21.0806  -44.1065    0.8572 C   0  0  0  0  0  0  0  0  0  0  0  0
  -21.7814  -43.5278   -1.8721 N   0  0  0  0  0  0  0  0  0  0  0  0
  -22.8724  -40.8638   -5.0740 O   0  0  0  0  0  0  0  0  0  0  0  0
  -20.7325  -40.7699   -7.0694 C   0  0  0  0  0  0  0  0  0  0  0  0
  -19.3251  -37.7216   -9.3679 F   0  0  0  0  0  0  0  0  0  0  0  0
  -16.5137  -40.3567   -7.5566 N   0  0  0  0  0  0  0  0  0  0  0  0
  -14.4945  -39.3375   -9.0172 S   0  0  0  0  0  0  0  0  0  0  0  0
  -17.9355  -40.7885  -10.4087 C   0  0  0  0  0  0  0  0  0  0  0  0
  -18.8233  -40.5743  -11.4457 C   0  0  0  0  0  0  0  0  0  0  0  0
  -19.5772  -41.5930  -11.9890 C   0  0  0  0  0  0  0  0  0  0  0  0
  -19.4695  -42.8680  -11.5124 C   0  0  0  0  0  0  0  0  0  0  0  0
  -18.5871  -43.1123  -10.4729 C   0  0  0  0  0  0  0  0  0  0  0  0
  -17.8373  -42.0777   -9.9385 C   0  0  0  0  0  0  0  0  0  0  0  0
  -14.3424  -41.2969   -6.1316 H   0  0  0  0  0  0  0  0  0  0  0  0
  1  2  2  0
 24  1  1  0
  2  3  1  0
  4  3  2  0
  3 25  1  0
  5  4  1  0
  6  4  1  6
 24  5  2  0
  6  7  1  0
 19  6  1  6
  6 26  1  0
  7 11  1  0
  7 28  1  1
 13  8  2  0
 14  9  1  0
  9 24  1  0
 17 10  1  0
 10 21  1  0
 11 27  1  6
 12 15  2  0
 16 12  1  0
 26 13  1  0
 13 27  1  0
 15 14  1  0
 14 23  2  0
 15 18  1  0
 16 17  2  0
 17 22  1  0
 18 22  2  0
 21 20  1  6
 28 29  2  0
 28 33  1  0
 29 30  1  0
 30 31  2  0
 31 32  1  0
 32 33  2  0
  8 34  1  0
M  END
$$$$
