
     RDKit          3D

 34 37  0  0  0  0  0  0  0  0999 V2000
  -21.8366  -38.5694   -7.9962 C   0  0  0  0  0  0  0  0  0  0  0  0
  -21.0747  -37.9098   -8.9279 C   0  0  0  0  0  0  0  0  0  0  0  0
  -19.7075  -38.1913   -9.0176 C   0  0  0  0  0  0  0  0  0  0  0  0
  -19.0742  -39.1104   -8.2087 C   0  0  0  0  0  0  0  0  0  0  0  0
  -19.8714  -39.7488   -7.2888 C   0  0  0  0  0  0  0  0  0  0  0  0
  -17.6262  -39.3865   -8.3553 C   0  0  1  0  0  0  0  0  0  0  0  0
  -17.3642  -39.8250   -9.7727 C   0  0  1  0  0  0  0  0  0  0  0  0
  -15.0285  -40.5940   -6.1860 N   0  0  0  0  0  0  0  0  0  0  0  0
  -21.9544  -40.2163   -6.1829 N   0  0  0  0  0  0  0  0  0  0  0  0
  -21.3593  -42.8032   -0.2617 O   0  0  0  0  0  0  0  0  0  0  0  0
  -16.0259  -40.4491  -10.0394 C   0  0  0  0  0  0  0  0  0  0  0  0
  -20.9456  -42.9628   -3.8637 N   0  0  0  0  0  0  0  0  0  0  0  0
  -15.6555  -40.3170   -7.2462 C   0  0  0  0  0  0  0  0  0  0  0  0
  -21.4312  -41.4312   -5.7045 C   0  0  0  0  0  0  0  0  0  0  0  0
  -21.4174  -41.7795   -4.2759 C   0  0  0  0  0  0  0  0  0  0  0  0
  -20.9350  -43.2789   -2.5468 C   0  0  0  0  0  0  0  0  0  0  0  0
  -21.4009  -42.4139   -1.5843 C   0  0  0  0  0  0  0  0  0  0  0  0
  -21.8867  -40.9048   -3.3208 C   0  0  0  0  0  0  0  0  0  0  0  0
  -16.9466  -38.0143   -8.2199 C   0  0  0  0  0  0  0  0  0  0  0  0
  -19.9113  -44.3064    0.6817 F   0  0  0  0  0  0  0  0  0  0  0  0
  -21.1252  -44.1807    0.0493 C   0  0  0  0  0  0  0  0  0  0  0  0
  -21.8731  -41.2273   -2.0072 N   0  0  0  0  0  0  0  0  0  0  0  0
  -20.9518  -42.2649   -6.5177 O   0  0  0  0  0  0  0  0  0  0  0  0
  -21.2515  -39.4897   -7.1707 C   0  0  0  0  0  0  0  0  0  0  0  0
  -19.0530  -37.4774   -9.9408 F   0  0  0  0  0  0  0  0  0  0  0  0
  -17.0610  -40.2413   -7.3719 N   0  0  0  0  0  0  0  0  0  0  0  0
  -14.7729  -39.9933   -8.7694 S   0  0  0  0  0  0  0  0  0  0  0  0
  -18.3854  -40.7936  -10.2500 C   0  0  0  0  0  0  0  0  0  0  0  0
  -19.0812  -40.5855  -11.4255 C   0  0  0  0  0  0  0  0  0  0  0  0
  -20.0345  -41.4715  -11.8810 C   0  0  0  0  0  0  0  0  0  0  0  0
  -20.3271  -42.6024  -11.1739 C   0  0  0  0  0  0  0  0  0  0  0  0
  -19.6449  -42.8370   -9.9914 C   0  0  0  0  0  0  0  0  0  0  0  0
  -18.6903  -41.9368   -9.5479 C   0  0  0  0  0  0  0  0  0  0  0  0
  -14.6414  -41.5354   -6.0291 H   0  0  0  0  0  0  0  0  0  0  0  0
  1  2  2  0
 24  1  1  0
  2  3  1  0
  4  3  2  0
  3 25  1  0
  5  4  1  0
  6  4  1  1
 24  5  2  0
  6  7  1  0
 19  6  1  6
  6 26  1  0
  7 11  1  0
  7 28  1  1
 13  8  2  0
 14  9  1  0
  9 24  1  0
 17 10  1  0
 10 21  1  0
 11 27  1  6
 12 15  2  0
 16 12  1  0
 26 13  1  0
 13 27  1  0
 15 14  1  0
 14 23  2  0
 15 18  1  0
 16 17  2  0
 17 22  1  0
 18 22  2  0
 21 20  1  6
 28 29  2  0
 28 33  1  0
 29 30  1  0
 30 31  2  0
 31 32  1  0
 32 33  2  0
  8 34  1  0
M  END
$$$$
