
     RDKit          3D

 34 37  0  0  0  0  0  0  0  0999 V2000
  -21.6407  -39.9938   -7.5270 C   0  0  0  0  0  0  0  0  0  0  0  0
  -21.1766  -39.1112   -8.5159 C   0  0  0  0  0  0  0  0  0  0  0  0
  -19.8671  -39.0178   -8.8620 C   0  0  0  0  0  0  0  0  0  0  0  0
  -18.9323  -39.8195   -8.2232 C   0  0  0  0  0  0  0  0  0  0  0  0
  -19.3919  -40.6737   -7.2641 C   0  0  0  0  0  0  0  0  0  0  0  0
  -17.5038  -39.7613   -8.5236 C   0  0  1  0  0  0  0  0  0  0  0  0
  -17.0707  -40.0732   -9.8983 C   0  0  1  0  0  0  0  0  0  0  0  0
  -14.7060  -40.6244   -6.3025 N   0  0  0  0  0  0  0  0  0  0  0  0
  -21.0933  -41.7114   -5.8809 N   0  0  0  0  0  0  0  0  0  0  0  0
  -21.1513  -43.4595    0.2351 O   0  0  0  0  0  0  0  0  0  0  0  0
  -15.6454  -39.6179  -10.1198 C   0  0  0  0  0  0  0  0  0  0  0  0
  -20.7461  -41.5509   -2.7978 N   0  0  0  0  0  0  0  0  0  0  0  0
  -15.3689  -40.4607   -7.3870 C   0  0  0  0  0  0  0  0  0  0  0  0
  -22.0237  -41.4689   -4.8591 C   0  0  0  0  0  0  0  0  0  0  0  0
  -21.7873  -41.9980   -3.4984 C   0  0  0  0  0  0  0  0  0  0  0  0
  -20.5513  -42.0421   -1.5713 C   0  0  0  0  0  0  0  0  0  0  0  0
  -21.4089  -42.9832   -1.0567 C   0  0  0  0  0  0  0  0  0  0  0  0
  -22.6487  -42.9375   -2.9926 C   0  0  0  0  0  0  0  0  0  0  0  0
  -17.0645  -38.2951   -8.2938 C   0  0  0  0  0  0  0  0  0  0  0  0
  -20.4940  -45.5569   -0.3244 F   0  0  0  0  0  0  0  0  0  0  0  0
  -21.3376  -44.8279    0.5145 C   0  0  0  0  0  0  0  0  0  0  0  0
  -22.4606  -43.4402   -1.7541 N   0  0  0  0  0  0  0  0  0  0  0  0
  -23.0654  -40.8127   -5.0484 O   0  0  0  0  0  0  0  0  0  0  0  0
  -20.7431  -40.7985   -6.8785 C   0  0  0  0  0  0  0  0  0  0  0  0
  -19.3910  -38.1963   -9.8052 F   0  0  0  0  0  0  0  0  0  0  0  0
  -16.7880  -40.4579   -7.4616 N   0  0  0  0  0  0  0  0  0  0  0  0
  -14.4712  -40.2221   -8.9112 S   0  0  0  0  0  0  0  0  0  0  0  0
  -17.2128  -41.4242  -10.4069 C   0  0  0  0  0  0  0  0  0  0  0  0
  -17.0930  -42.5871   -9.7242 C   0  0  0  0  0  0  0  0  0  0  0  0
  -17.2497  -43.8285  -10.3020 C   0  0  0  0  0  0  0  0  0  0  0  0
  -17.5428  -43.9430  -11.6356 C   0  0  0  0  0  0  0  0  0  0  0  0
  -17.6736  -42.7794  -12.3695 C   0  0  0  0  0  0  0  0  0  0  0  0
  -17.5132  -41.5515  -11.7725 C   0  0  0  0  0  0  0  0  0  0  0  0
  -14.9996  -41.2157   -5.5042 H   0  0  0  0  0  0  0  0  0  0  0  0
  1  2  2  0
 24  1  1  0
  2  3  1  0
  4  3  2  0
  3 25  1  0
  5  4  1  0
  4  6  1  0
 24  5  2  0
  6  7  1  0
  6 19  1  1
  6 26  1  0
  7 11  1  0
  7 28  1  1
 13  8  2  0
 14  9  1  0
  9 24  1  0
 17 10  1  0
 10 21  1  0
 11 27  1  0
 12 15  2  0
 16 12  1  0
 26 13  1  0
 13 27  1  0
 15 14  1  0
 14 23  2  0
 15 18  1  0
 16 17  2  0
 17 22  1  0
 18 22  2  0
 21 20  1  0
 28 29  2  0
 28 33  1  0
 29 30  1  0
 30 31  2  0
 31 32  1  0
 32 33  2  0
  8 34  1  0
M  END
$$$$
