
     RDKit          3D

 34 37  0  0  0  0  0  0  0  0999 V2000
  -21.6707  -38.5352   -7.5931 C   0  0  0  0  0  0  0  0  0  0  0  0
  -20.9242  -37.8802   -8.5405 C   0  0  0  0  0  0  0  0  0  0  0  0
  -19.5620  -38.1740   -8.6620 C   0  0  0  0  0  0  0  0  0  0  0  0
  -18.9190  -39.1008   -7.8699 C   0  0  0  0  0  0  0  0  0  0  0  0
  -19.7009  -39.7343   -6.9334 C   0  0  0  0  0  0  0  0  0  0  0  0
  -17.4773  -39.3898   -8.0501 C   0  0  1  0  0  0  0  0  0  0  0  0
  -17.2513  -39.8250   -9.4747 C   0  0  1  0  0  0  0  0  0  0  0  0
  -14.8430  -40.6302   -5.9445 N   0  0  0  0  0  0  0  0  0  0  0  0
  -21.7623  -40.1854   -5.7815 N   0  0  0  0  0  0  0  0  0  0  0  0
  -20.3496  -43.2943   -0.2816 O   0  0  0  0  0  0  0  0  0  0  0  0
  -15.9253  -40.4604   -9.7738 C   0  0  0  0  0  0  0  0  0  0  0  0
  -20.4240  -41.2446   -3.2756 N   0  0  0  0  0  0  0  0  0  0  0  0
  -15.4910  -40.3432   -6.9892 C   0  0  0  0  0  0  0  0  0  0  0  0
  -21.3944  -41.5140   -5.5018 C   0  0  0  0  0  0  0  0  0  0  0  0
  -21.1270  -41.9909   -4.1367 C   0  0  0  0  0  0  0  0  0  0  0  0
  -20.1803  -41.6883   -2.0194 C   0  0  0  0  0  0  0  0  0  0  0  0
  -20.6358  -42.9073   -1.5742 C   0  0  0  0  0  0  0  0  0  0  0  0
  -21.5885  -43.2139   -3.7020 C   0  0  0  0  0  0  0  0  0  0  0  0
  -16.7819  -38.0246   -7.9248 C   0  0  0  0  0  0  0  0  0  0  0  0
  -21.9644  -44.3622    0.9425 F   0  0  0  0  0  0  0  0  0  0  0  0
  -20.8323  -44.5575    0.1877 C   0  0  0  0  0  0  0  0  0  0  0  0
  -21.3413  -43.6507   -2.4458 N   0  0  0  0  0  0  0  0  0  0  0  0
  -21.2851  -42.3407   -6.4456 O   0  0  0  0  0  0  0  0  0  0  0  0
  -21.0755  -39.4628   -6.7834 C   0  0  0  0  0  0  0  0  0  0  0  0
  -18.9222  -37.4637   -9.5982 F   0  0  0  0  0  0  0  0  0  0  0  0
  -16.8982  -40.2538   -7.0830 N   0  0  0  0  0  0  0  0  0  0  0  0
  -14.6399  -40.0215   -8.5306 S   0  0  0  0  0  0  0  0  0  0  0  0
  -18.2920  -40.7821   -9.9326 C   0  0  0  0  0  0  0  0  0  0  0  0
  -19.1795  -40.4534  -10.9394 C   0  0  0  0  0  0  0  0  0  0  0  0
  -20.1535  -41.3275  -11.3738 C   0  0  0  0  0  0  0  0  0  0  0  0
  -20.2750  -42.5670  -10.8142 C   0  0  0  0  0  0  0  0  0  0  0  0
  -19.3986  -42.9239   -9.8026 C   0  0  0  0  0  0  0  0  0  0  0  0
  -18.4260  -42.0339   -9.3780 C   0  0  0  0  0  0  0  0  0  0  0  0
  -14.7499  -41.6064   -5.6293 H   0  0  0  0  0  0  0  0  0  0  0  0
  1  2  2  0
 24  1  1  0
  2  3  1  0
  4  3  2  0
  3 25  1  0
  5  4  1  0
  6  4  1  1
 24  5  2  0
  6  7  1  0
 19  6  1  6
  6 26  1  0
  7 11  1  0
  7 28  1  1
 13  8  2  0
 14  9  1  0
  9 24  1  0
 17 10  1  0
 10 21  1  0
 11 27  1  6
 12 15  2  0
 16 12  1  0
 26 13  1  0
 13 27  1  0
 15 14  1  0
 14 23  2  0
 15 18  1  0
 16 17  2  0
 17 22  1  0
 18 22  2  0
 21 20  1  6
 28 29  2  0
 28 33  1  0
 29 30  1  0
 30 31  2  0
 31 32  1  0
 32 33  2  0
  8 34  1  0
M  END
$$$$
