
     RDKit          3D

 34 37  0  0  0  0  0  0  0  0999 V2000
  -21.5788  -39.9721   -7.8827 C   0  0  0  0  0  0  0  0  0  0  0  0
  -21.0742  -39.0844   -8.8468 C   0  0  0  0  0  0  0  0  0  0  0  0
  -19.7515  -38.9895   -9.1380 C   0  0  0  0  0  0  0  0  0  0  0  0
  -18.8440  -39.7947   -8.4653 C   0  0  0  0  0  0  0  0  0  0  0  0
  -19.3428  -40.6539   -7.5305 C   0  0  0  0  0  0  0  0  0  0  0  0
  -17.4043  -39.7353   -8.7060 C   0  0  1  0  0  0  0  0  0  0  0  0
  -16.9118  -40.0740  -10.0541 C   0  0  1  0  0  0  0  0  0  0  0  0
  -14.6996  -40.5361   -6.3504 N   0  0  0  0  0  0  0  0  0  0  0  0
  -21.1000  -41.6984   -6.2243 N   0  0  0  0  0  0  0  0  0  0  0  0
  -21.1042  -43.9284   -0.2662 O   0  0  0  0  0  0  0  0  0  0  0  0
  -15.4803  -39.6158  -10.2247 C   0  0  0  0  0  0  0  0  0  0  0  0
  -20.4751  -42.0937   -3.3065 N   0  0  0  0  0  0  0  0  0  0  0  0
  -15.3165  -40.3989   -7.4652 C   0  0  0  0  0  0  0  0  0  0  0  0
  -21.9232  -41.4035   -5.1271 C   0  0  0  0  0  0  0  0  0  0  0  0
  -21.7003  -42.0768   -3.8292 C   0  0  0  0  0  0  0  0  0  0  0  0
  -20.2963  -42.7070   -2.1337 C   0  0  0  0  0  0  0  0  0  0  0  0
  -21.3558  -43.3012   -1.4931 C   0  0  0  0  0  0  0  0  0  0  0  0
  -22.7640  -42.6675   -3.1966 C   0  0  0  0  0  0  0  0  0  0  0  0
  -16.9816  -38.2622   -8.4893 C   0  0  0  0  0  0  0  0  0  0  0  0
  -21.1780  -41.9393    0.8209 F   0  0  0  0  0  0  0  0  0  0  0  0
  -20.5416  -43.1805    0.7871 C   0  0  0  0  0  0  0  0  0  0  0  0
  -22.5938  -43.2899   -2.0110 N   0  0  0  0  0  0  0  0  0  0  0  0
  -22.8561  -40.5811   -5.1960 O   0  0  0  0  0  0  0  0  0  0  0  0
  -20.7088  -40.7803   -7.2018 C   0  0  0  0  0  0  0  0  0  0  0  0
  -19.2368  -38.1631  -10.0564 F   0  0  0  0  0  0  0  0  0  0  0  0
  -16.7311  -40.4054   -7.6000 N   0  0  0  0  0  0  0  0  0  0  0  0
  -14.3559  -40.1880   -8.9548 S   0  0  0  0  0  0  0  0  0  0  0  0
  -17.0261  -41.4362  -10.5393 C   0  0  0  0  0  0  0  0  0  0  0  0
  -16.6835  -41.9170  -11.7576 C   0  0  0  0  0  0  0  0  0  0  0  0
  -16.8301  -43.2375  -12.1235 C   0  0  0  0  0  0  0  0  0  0  0  0
  -17.3457  -44.1505  -11.2414 C   0  0  0  0  0  0  0  0  0  0  0  0
  -17.7085  -43.7008   -9.9860 C   0  0  0  0  0  0  0  0  0  0  0  0
  -17.5534  -42.3788   -9.6423 C   0  0  0  0  0  0  0  0  0  0  0  0
  -15.0243  -41.1116   -5.5526 H   0  0  0  0  0  0  0  0  0  0  0  0
  1  2  2  0
 24  1  1  0
  2  3  1  0
  4  3  2  0
  3 25  1  0
  5  4  1  0
  4  6  1  0
 24  5  2  0
  6  7  1  0
  6 19  1  1
  6 26  1  0
  7 11  1  0
  7 28  1  1
 13  8  2  0
 14  9  1  0
  9 24  1  0
 17 10  1  0
 10 21  1  0
 11 27  1  0
 12 15  2  0
 16 12  1  0
 26 13  1  0
 13 27  1  0
 15 14  1  0
 14 23  2  0
 15 18  1  0
 16 17  2  0
 17 22  1  0
 18 22  2  0
 21 20  1  0
 28 29  2  0
 28 33  1  0
 29 30  1  0
 30 31  2  0
 31 32  1  0
 32 33  2  0
  8 34  1  0
M  END
$$$$
