
     RDKit          3D

 34 37  0  0  0  0  0  0  0  0999 V2000
  -21.2936  -39.8921   -7.1693 C   0  0  0  0  0  0  0  0  0  0  0  0
  -21.0468  -39.2462   -8.3917 C   0  0  0  0  0  0  0  0  0  0  0  0
  -19.8069  -39.1536   -8.9370 C   0  0  0  0  0  0  0  0  0  0  0  0
  -18.7249  -39.7139   -8.2739 C   0  0  0  0  0  0  0  0  0  0  0  0
  -18.9737  -40.3392   -7.0874 C   0  0  0  0  0  0  0  0  0  0  0  0
  -17.3583  -39.6365   -8.7844 C   0  0  1  0  0  0  0  0  0  0  0  0
  -17.0990  -40.1287  -10.1502 C   0  0  1  0  0  0  0  0  0  0  0  0
  -14.2307  -40.0340   -6.8961 N   0  0  0  0  0  0  0  0  0  0  0  0
  -20.3770  -41.1211   -5.2696 N   0  0  0  0  0  0  0  0  0  0  0  0
  -21.6572  -44.3795    0.0433 O   0  0  0  0  0  0  0  0  0  0  0  0
  -15.7508  -39.6473  -10.6387 C   0  0  0  0  0  0  0  0  0  0  0  0
  -20.5648  -42.1707   -2.5898 N   0  0  0  0  0  0  0  0  0  0  0  0
  -15.0459  -40.0627   -7.8845 C   0  0  0  0  0  0  0  0  0  0  0  0
  -21.5961  -41.4785   -4.6743 C   0  0  0  0  0  0  0  0  0  0  0  0
  -21.6086  -42.2516   -3.4135 C   0  0  0  0  0  0  0  0  0  0  0  0
  -20.5969  -42.8771   -1.4569 C   0  0  0  0  0  0  0  0  0  0  0  0
  -21.6833  -43.6628   -1.1599 C   0  0  0  0  0  0  0  0  0  0  0  0
  -22.6976  -43.0336   -3.1252 C   0  0  0  0  0  0  0  0  0  0  0  0
  -16.9889  -38.1341   -8.8290 C   0  0  0  0  0  0  0  0  0  0  0  0
  -22.8948  -43.0592    1.4104 F   0  0  0  0  0  0  0  0  0  0  0  0
  -21.6518  -43.6759    1.2640 C   0  0  0  0  0  0  0  0  0  0  0  0
  -22.7398  -43.7514   -1.9828 N   0  0  0  0  0  0  0  0  0  0  0  0
  -22.6960  -41.1679   -5.1696 O   0  0  0  0  0  0  0  0  0  0  0  0
  -20.2467  -40.4554   -6.4907 C   0  0  0  0  0  0  0  0  0  0  0  0
  -19.5365  -38.5550  -10.1031 F   0  0  0  0  0  0  0  0  0  0  0  0
  -16.4588  -40.1351   -7.7511 N   0  0  0  0  0  0  0  0  0  0  0  0
  -14.3842  -40.0123   -9.5416 S   0  0  0  0  0  0  0  0  0  0  0  0
  -17.2206  -41.5451  -10.4383 C   0  0  0  0  0  0  0  0  0  0  0  0
  -17.4884  -42.5504   -9.5719 C   0  0  0  0  0  0  0  0  0  0  0  0
  -17.5861  -43.8728   -9.9472 C   0  0  0  0  0  0  0  0  0  0  0  0
  -17.4106  -44.2392  -11.2558 C   0  0  0  0  0  0  0  0  0  0  0  0
  -17.1352  -43.2431  -12.1732 C   0  0  0  0  0  0  0  0  0  0  0  0
  -17.0423  -41.9301  -11.7766 C   0  0  0  0  0  0  0  0  0  0  0  0
  -14.2412  -40.6863   -6.0915 H   0  0  0  0  0  0  0  0  0  0  0  0
  1  2  2  0
 24  1  1  0
  2  3  1  0
  4  3  2  0
  3 25  1  0
  5  4  1  0
  4  6  1  0
 24  5  2  0
  6  7  1  0
  6 19  1  6
  6 26  1  0
  7 11  1  0
  7 28  1  1
 13  8  2  0
 14  9  1  0
  9 24  1  0
 17 10  1  0
 10 21  1  0
 11 27  1  0
 12 15  2  0
 16 12  1  0
 26 13  1  0
 13 27  1  0
 15 14  1  0
 14 23  2  0
 15 18  1  0
 16 17  2  0
 17 22  1  0
 18 22  2  0
 21 20  1  0
 28 29  2  0
 28 33  1  0
 29 30  1  0
 30 31  2  0
 31 32  1  0
 32 33  2  0
  8 34  1  0
M  END
$$$$
