
     RDKit          3D

 34 37  0  0  0  0  0  0  0  0999 V2000
  -21.3839  -39.2149   -7.3213 C   0  0  0  0  0  0  0  0  0  0  0  0
  -20.9598  -38.8256   -8.6022 C   0  0  0  0  0  0  0  0  0  0  0  0
  -19.6732  -38.9458   -9.0187 C   0  0  0  0  0  0  0  0  0  0  0  0
  -18.7222  -39.4729   -8.1571 C   0  0  0  0  0  0  0  0  0  0  0  0
  -19.1429  -39.8483   -6.9150 C   0  0  0  0  0  0  0  0  0  0  0  0
  -17.3149  -39.6132   -8.5234 C   0  0  1  0  0  0  0  0  0  0  0  0
  -16.9959  -40.0971   -9.8794 C   0  0  1  0  0  0  0  0  0  0  0  0
  -14.5185  -40.6013   -6.3533 N   0  0  0  0  0  0  0  0  0  0  0  0
  -20.7803  -40.1583   -5.1521 N   0  0  0  0  0  0  0  0  0  0  0  0
  -20.7620  -43.8730    0.0138 O   0  0  0  0  0  0  0  0  0  0  0  0
  -15.5418  -39.8373  -10.2051 C   0  0  0  0  0  0  0  0  0  0  0  0
  -20.3384  -41.5758   -2.7338 N   0  0  0  0  0  0  0  0  0  0  0  0
  -15.2160  -40.4577   -7.4187 C   0  0  0  0  0  0  0  0  0  0  0  0
  -21.5227  -41.3056   -4.8343 C   0  0  0  0  0  0  0  0  0  0  0  0
  -21.3163  -41.9886   -3.5388 C   0  0  0  0  0  0  0  0  0  0  0  0
  -20.1697  -42.2067   -1.5688 C   0  0  0  0  0  0  0  0  0  0  0  0
  -20.9894  -43.2522   -1.2211 C   0  0  0  0  0  0  0  0  0  0  0  0
  -22.1395  -43.0316   -3.1999 C   0  0  0  0  0  0  0  0  0  0  0  0
  -16.6980  -38.1954   -8.4543 C   0  0  0  0  0  0  0  0  0  0  0  0
  -20.9841  -46.1125   -0.2680 F   0  0  0  0  0  0  0  0  0  0  0  0
  -21.5306  -44.9987    0.3706 C   0  0  0  0  0  0  0  0  0  0  0  0
  -21.9773  -43.6758   -2.0247 N   0  0  0  0  0  0  0  0  0  0  0  0
  -22.3685  -41.7883   -5.6109 O   0  0  0  0  0  0  0  0  0  0  0  0
  -20.4694  -39.7389   -6.4478 C   0  0  0  0  0  0  0  0  0  0  0  0
  -19.2359  -38.5949  -10.2340 F   0  0  0  0  0  0  0  0  0  0  0  0
  -16.6273  -40.2921   -7.4316 N   0  0  0  0  0  0  0  0  0  0  0  0
  -14.3810  -40.4664   -8.9963 S   0  0  0  0  0  0  0  0  0  0  0  0
  -17.3198  -41.4617  -10.2497 C   0  0  0  0  0  0  0  0  0  0  0  0
  -17.1672  -42.5837   -9.5077 C   0  0  0  0  0  0  0  0  0  0  0  0
  -17.5095  -43.8425   -9.9521 C   0  0  0  0  0  0  0  0  0  0  0  0
  -18.0362  -44.0185  -11.2048 C   0  0  0  0  0  0  0  0  0  0  0  0
  -18.2085  -42.8982  -11.9953 C   0  0  0  0  0  0  0  0  0  0  0  0
  -17.8600  -41.6518  -11.5316 C   0  0  0  0  0  0  0  0  0  0  0  0
  -14.8853  -40.5527   -5.3857 H   0  0  0  0  0  0  0  0  0  0  0  0
  1  2  2  0
 24  1  1  0
  2  3  1  0
  4  3  2  0
  3 25  1  0
  5  4  1  0
  4  6  1  0
 24  5  2  0
  6  7  1  0
  6 19  1  6
  6 26  1  0
  7 11  1  0
  7 28  1  1
 13  8  2  0
 14  9  1  0
  9 24  1  0
 17 10  1  0
 10 21  1  0
 11 27  1  0
 12 15  2  0
 16 12  1  0
 26 13  1  0
 13 27  1  0
 15 14  1  0
 14 23  2  0
 15 18  1  0
 16 17  2  0
 17 22  1  0
 18 22  2  0
 21 20  1  0
 28 29  2  0
 28 33  1  0
 29 30  1  0
 30 31  2  0
 31 32  1  0
 32 33  2  0
  8 34  1  0
M  END
$$$$
