
     RDKit          3D

 34 37  0  0  0  0  0  0  0  0999 V2000
  -21.5954  -38.6730   -7.3295 C   0  0  0  0  0  0  0  0  0  0  0  0
  -21.1185  -38.2709   -8.5520 C   0  0  0  0  0  0  0  0  0  0  0  0
  -19.8004  -38.5765   -8.9069 C   0  0  0  0  0  0  0  0  0  0  0  0
  -18.9414  -39.2712   -8.0826 C   0  0  0  0  0  0  0  0  0  0  0  0
  -19.4565  -39.6554   -6.8675 C   0  0  0  0  0  0  0  0  0  0  0  0
  -17.5592  -39.5862   -8.5122 C   0  0  1  0  0  0  0  0  0  0  0  0
  -17.5845  -40.8694   -9.3014 C   0  0  1  0  0  0  0  0  0  0  0  0
  -14.2787  -39.0331   -7.1542 N   0  0  0  0  0  0  0  0  0  0  0  0
  -21.1815  -39.8179   -5.2007 N   0  0  0  0  0  0  0  0  0  0  0  0
  -20.9321  -44.6522   -0.9052 O   0  0  0  0  0  0  0  0  0  0  0  0
  -16.2568  -41.5212   -9.5543 C   0  0  0  0  0  0  0  0  0  0  0  0
  -20.5532  -41.8911   -3.2299 N   0  0  0  0  0  0  0  0  0  0  0  0
  -15.2077  -39.5399   -7.8425 C   0  0  0  0  0  0  0  0  0  0  0  0
  -21.8932  -41.0253   -5.0805 C   0  0  0  0  0  0  0  0  0  0  0  0
  -21.6522  -41.9812   -3.9894 C   0  0  0  0  0  0  0  0  0  0  0  0
  -20.3357  -42.7741   -2.2261 C   0  0  0  0  0  0  0  0  0  0  0  0
  -21.2188  -43.7897   -1.9427 C   0  0  0  0  0  0  0  0  0  0  0  0
  -22.5440  -42.9946   -3.7149 C   0  0  0  0  0  0  0  0  0  0  0  0
  -17.2012  -38.4891   -9.5277 C   0  0  0  0  0  0  0  0  0  0  0  0
  -22.3990  -44.7007    0.8533 F   0  0  0  0  0  0  0  0  0  0  0  0
  -22.0034  -45.3680   -0.2816 C   0  0  0  0  0  0  0  0  0  0  0  0
  -22.3202  -43.8729   -2.7107 N   0  0  0  0  0  0  0  0  0  0  0  0
  -22.7749  -41.3147   -5.9319 O   0  0  0  0  0  0  0  0  0  0  0  0
  -20.7790  -39.3643   -6.4774 C   0  0  0  0  0  0  0  0  0  0  0  0
  -19.4285  -38.1188  -10.1080 F   0  0  0  0  0  0  0  0  0  0  0  0
  -16.5756  -39.5569   -7.4881 N   0  0  0  0  0  0  0  0  0  0  0  0
  -14.8539  -40.3379   -9.4051 S   0  0  0  0  0  0  0  0  0  0  0  0
  -18.4448  -41.8971   -8.6592 C   0  0  0  0  0  0  0  0  0  0  0  0
  -18.4221  -42.1039   -7.2932 C   0  0  0  0  0  0  0  0  0  0  0  0
  -19.2106  -43.0554   -6.6815 C   0  0  0  0  0  0  0  0  0  0  0  0
  -20.0537  -43.8376   -7.4175 C   0  0  0  0  0  0  0  0  0  0  0  0
  -20.0974  -43.6523   -8.7896 C   0  0  0  0  0  0  0  0  0  0  0  0
  -19.2988  -42.6921   -9.3883 C   0  0  0  0  0  0  0  0  0  0  0  0
  -13.8924  -39.5284   -6.3379 H   0  0  0  0  0  0  0  0  0  0  0  0
  1  2  2  0
 24  1  1  0
  2  3  1  0
  4  3  2  0
  3 25  1  0
  5  4  1  0
  6  4  1  1
 24  5  2  0
  6  7  1  0
 19  6  1  6
  6 26  1  0
  7 11  1  0
  7 28  1  1
 13  8  2  0
 14  9  1  0
  9 24  1  0
 17 10  1  0
 10 21  1  0
 11 27  1  6
 12 15  2  0
 16 12  1  0
 26 13  1  0
 13 27  1  0
 15 14  1  0
 14 23  2  0
 15 18  1  0
 16 17  2  0
 17 22  1  0
 18 22  2  0
 21 20  1  6
 28 29  2  0
 28 33  1  0
 29 30  1  0
 30 31  2  0
 31 32  1  0
 32 33  2  0
  8 34  1  0
M  END
$$$$
