
     RDKit          3D

 34 37  0  0  0  0  0  0  0  0999 V2000
  -21.2425  -39.2930   -7.6450 C   0  0  0  0  0  0  0  0  0  0  0  0
  -20.8289  -38.8581   -8.8794 C   0  0  0  0  0  0  0  0  0  0  0  0
  -19.4670  -38.8932   -9.1966 C   0  0  0  0  0  0  0  0  0  0  0  0
  -18.5028  -39.3488   -8.3233 C   0  0  0  0  0  0  0  0  0  0  0  0
  -18.9573  -39.7748   -7.0979 C   0  0  0  0  0  0  0  0  0  0  0  0
  -17.0743  -39.3831   -8.7136 C   0  0  1  0  0  0  0  0  0  0  0  0
  -16.9238  -40.3039   -9.8966 C   0  0  1  0  0  0  0  0  0  0  0  0
  -13.9467  -39.0888   -6.9689 N   0  0  0  0  0  0  0  0  0  0  0  0
  -20.6529  -40.2199   -5.4525 N   0  0  0  0  0  0  0  0  0  0  0  0
  -21.9058  -44.8121   -1.0679 O   0  0  0  0  0  0  0  0  0  0  0  0
  -15.5240  -40.7188  -10.2430 C   0  0  0  0  0  0  0  0  0  0  0  0
  -20.9356  -42.0052   -3.1538 N   0  0  0  0  0  0  0  0  0  0  0  0
  -14.7798  -39.3917   -7.8678 C   0  0  0  0  0  0  0  0  0  0  0  0
  -21.7269  -41.1129   -5.2863 C   0  0  0  0  0  0  0  0  0  0  0  0
  -21.7833  -42.0878   -4.1869 C   0  0  0  0  0  0  0  0  0  0  0  0
  -20.9915  -42.9056   -2.1436 C   0  0  0  0  0  0  0  0  0  0  0  0
  -21.9069  -43.9320   -2.1299 C   0  0  0  0  0  0  0  0  0  0  0  0
  -22.7047  -43.1117   -4.1841 C   0  0  0  0  0  0  0  0  0  0  0  0
  -16.7778  -37.9742   -9.2522 C   0  0  0  0  0  0  0  0  0  0  0  0
  -23.8452  -45.9749   -1.4322 F   0  0  0  0  0  0  0  0  0  0  0  0
  -22.4907  -46.1072   -1.2393 C   0  0  0  0  0  0  0  0  0  0  0  0
  -22.7548  -44.0075   -3.1717 N   0  0  0  0  0  0  0  0  0  0  0  0
  -22.6863  -41.0901   -6.1020 O   0  0  0  0  0  0  0  0  0  0  0  0
  -20.3214  -39.7531   -6.7448 C   0  0  0  0  0  0  0  0  0  0  0  0
  -19.1683  -38.4253  -10.4141 F   0  0  0  0  0  0  0  0  0  0  0  0
  -16.1556  -39.6395   -7.6611 N   0  0  0  0  0  0  0  0  0  0  0  0
  -14.2614  -39.5579   -9.5729 S   0  0  0  0  0  0  0  0  0  0  0  0
  -17.7062  -41.5560   -9.7264 C   0  0  0  0  0  0  0  0  0  0  0  0
  -18.4473  -42.0886  -10.7638 C   0  0  0  0  0  0  0  0  0  0  0  0
  -19.1819  -43.2469  -10.6222 C   0  0  0  0  0  0  0  0  0  0  0  0
  -19.2016  -43.9167   -9.4325 C   0  0  0  0  0  0  0  0  0  0  0  0
  -18.4678  -43.4057   -8.3746 C   0  0  0  0  0  0  0  0  0  0  0  0
  -17.7352  -42.2410   -8.5336 C   0  0  0  0  0  0  0  0  0  0  0  0
  -13.6062  -39.7953   -6.3013 H   0  0  0  0  0  0  0  0  0  0  0  0
  1  2  2  0
 24  1  1  0
  2  3  1  0
  4  3  2  0
  3 25  1  0
  5  4  1  0
  6  4  1  1
 24  5  2  0
  6  7  1  0
 19  6  1  6
  6 26  1  0
  7 11  1  0
  7 28  1  1
 13  8  2  0
 14  9  1  0
  9 24  1  0
 17 10  1  0
 10 21  1  0
 11 27  1  6
 12 15  2  0
 16 12  1  0
 26 13  1  0
 13 27  1  0
 15 14  1  0
 14 23  2  0
 15 18  1  0
 16 17  2  0
 17 22  1  0
 18 22  2  0
 21 20  1  6
 28 29  2  0
 28 33  1  0
 29 30  1  0
 30 31  2  0
 31 32  1  0
 32 33  2  0
  8 34  1  0
M  END
$$$$
