
     RDKit          3D

 40 45  0  0  0  0  0  0  0  0999 V2000
  -33.7183   10.8784  -18.5599 C   0  0  0  0  0  0  0  0  0  0  0  0
  -35.0685   10.7147  -18.7971 C   0  0  0  0  0  0  0  0  0  0  0  0
  -35.7773    9.6944  -18.1825 C   0  0  0  0  0  0  0  0  0  0  0  0
  -35.1253    8.8272  -17.3186 C   0  0  0  0  0  0  0  0  0  0  0  0
  -33.7924    8.9968  -17.0888 C   0  0  0  0  0  0  0  0  0  0  0  0
  -34.7477    4.8700  -15.4263 C   0  0  0  0  0  0  0  0  0  0  0  0
  -34.1253    6.2940  -13.6514 C   0  0  0  0  0  0  0  0  0  0  0  0
  -34.1373    5.2309  -12.7448 C   0  0  0  0  0  0  0  0  0  0  0  0
  -37.5028   12.0589  -21.4553 C   0  0  0  0  0  0  0  0  0  0  0  0
  -36.8453   11.1649  -20.4634 C   0  0  0  0  0  0  0  0  0  0  0  0
  -37.2718    9.9678  -20.3306 O   0  0  0  0  0  0  0  0  0  0  0  0
  -35.7617   11.6048  -19.6624 N   0  0  0  0  0  0  0  0  0  0  0  0
  -33.0929   10.0095  -17.7006 C   0  0  0  0  0  0  0  0  0  0  0  0
  -33.4423    8.0397  -16.2310 O   0  0  0  0  0  0  0  0  0  0  0  0
  -35.5161    7.7651  -16.5828 N   0  0  0  0  0  0  0  0  0  0  0  0
  -34.4572    7.2856  -15.9102 C   0  0  0  0  0  0  0  0  0  0  0  0
  -34.4244    6.1447  -14.9865 C   0  0  0  0  0  0  0  0  0  0  0  0
  -34.7529    3.8381  -14.5242 C   0  0  0  0  0  0  0  0  0  0  0  0
  -34.4535    4.0322  -13.2228 N   0  0  0  0  0  0  0  0  0  0  0  0
  -33.8560    5.4587  -11.3362 C   0  0  0  0  0  0  0  0  0  0  0  0
  -33.7732    6.7145  -10.9757 O   0  0  0  0  0  0  0  0  0  0  0  0
  -33.6622    4.5347  -10.3208 N   0  0  0  0  0  0  0  0  0  0  0  0
  -33.2721    3.1779  -10.6635 C   0  0  0  0  0  0  0  0  0  0  0  0
  -32.3553    2.5971   -9.5916 C   0  0  0  0  0  0  0  0  0  0  0  0
  -33.8215    4.8307   -8.9259 C   0  0  0  0  0  0  0  0  0  0  0  0
  -34.0279    3.5484   -8.1280 C   0  0  0  0  0  0  0  0  0  0  0  0
  -33.0138    2.5577   -8.3268 N   0  0  2  0  0  4  0  0  0  0  0  0
  -32.1116    2.5325   -7.1803 C   0  0  1  0  0  0  0  0  0  0  0  0
  -32.9290    2.6256   -5.9118 C   0  0  0  0  0  0  0  0  0  0  0  0
  -32.6985    3.5343   -4.9411 N   0  0  0  0  0  0  0  0  0  0  0  0
  -33.9671    1.8989   -5.5024 N   0  0  0  0  0  0  0  0  0  0  0  0
  -34.3403    2.3777   -4.3042 N   0  0  0  0  0  0  0  0  0  0  0  0
  -33.5621    3.3803   -3.9569 N   0  0  0  0  0  0  0  0  0  0  0  0
  -33.6546    4.1214   -2.7278 C   0  0  0  0  0  0  0  0  0  0  0  0
  -31.3041    1.3014   -7.0783 C   0  0  0  0  0  0  0  0  0  0  0  0
  -29.9437    1.3302   -6.7862 C   0  0  0  0  0  0  0  0  0  0  0  0
  -29.2219    0.1714   -6.6620 C   0  0  0  0  0  0  0  0  0  0  0  0
  -29.8027   -1.0762   -6.8187 C   0  0  0  0  0  0  0  0  0  0  0  0
  -31.1531   -1.0809   -7.1078 C   0  0  0  0  0  0  0  0  0  0  0  0
  -31.8977    0.0669   -7.2367 C   0  0  0  0  0  0  0  0  0  0  0  0
  2  1  2  0
 13  1  1  0
  3  2  1  0
  2 12  1  0
  4  3  2  0
  4  5  1  0
 15  4  1  0
  5 13  2  0
 14  5  1  0
 17  6  2  0
  6 18  1  0
  7  8  2  0
 17  7  1  0
  8 19  1  0
  8 20  1  0
  9 10  1  6
 10 11  2  0
 12 10  1  0
 16 14  1  0
 16 15  2  0
 16 17  1  0
 18 19  2  0
 20 21  2  0
 20 22  1  0
 23 22  1  1
 25 22  1  1
 24 23  1  1
 24 27  1  0
 26 25  1  1
 26 27  1  0
 27 28  1  1
 28 29  1  1
 28 35  1  0
 29 30  2  0
 29 31  1  0
 30 33  1  0
 31 32  2  0
 32 33  1  0
 34 33  1  6
 35 36  2  0
 35 40  1  0
 36 37  1  0
 37 38  2  0
 38 39  1  0
 39 40  2  0
M  CHG  1  27   1
M  END
$$$$
