
     RDKit          3D

 40 45  0  0  0  0  0  0  0  0999 V2000
  -11.2710  -11.7581  -17.5513 C   0  0  0  0  0  0  0  0  0  0  0  0
  -10.3118  -12.7507  -17.5283 C   0  0  0  0  0  0  0  0  0  0  0  0
   -9.2711  -12.7092  -16.6137 C   0  0  0  0  0  0  0  0  0  0  0  0
   -9.1906  -11.6602  -15.7101 C   0  0  0  0  0  0  0  0  0  0  0  0
  -10.1427  -10.6850  -15.7388 C   0  0  0  0  0  0  0  0  0  0  0  0
   -6.7327   -9.5512  -12.8297 C   0  0  0  0  0  0  0  0  0  0  0  0
   -8.8363   -8.7571  -12.1158 C   0  0  0  0  0  0  0  0  0  0  0  0
   -8.2619   -8.1122  -11.0174 C   0  0  0  0  0  0  0  0  0  0  0  0
   -9.7660  -16.2212  -19.0857 C   0  0  0  0  0  0  0  0  0  0  0  0
   -9.5554  -14.9855  -18.2832 C   0  0  0  0  0  0  0  0  0  0  0  0
   -8.5990  -14.9525  -17.4366 O   0  0  0  0  0  0  0  0  0  0  0  0
  -10.3863  -13.8466  -18.4311 N   0  0  0  0  0  0  0  0  0  0  0  0
  -11.1728  -10.7294  -16.6477 C   0  0  0  0  0  0  0  0  0  0  0  0
   -9.8183   -9.8257  -14.7740 O   0  0  0  0  0  0  0  0  0  0  0  0
   -8.3301  -11.3365  -14.7217 N   0  0  0  0  0  0  0  0  0  0  0  0
   -8.7345  -10.1919  -14.1472 C   0  0  0  0  0  0  0  0  0  0  0  0
   -8.1028   -9.4783  -13.0301 C   0  0  0  0  0  0  0  0  0  0  0  0
   -6.1852   -8.9113  -11.7482 C   0  0  0  0  0  0  0  0  0  0  0  0
   -6.9448   -8.2158  -10.8763 N   0  0  0  0  0  0  0  0  0  0  0  0
   -9.0948   -7.4022  -10.0597 C   0  0  0  0  0  0  0  0  0  0  0  0
  -10.3807   -7.6272  -10.1579 O   0  0  0  0  0  0  0  0  0  0  0  0
   -8.7205   -6.5201   -9.0576 N   0  0  0  0  0  0  0  0  0  0  0  0
   -7.4328   -5.8532   -9.1463 C   0  0  0  0  0  0  0  0  0  0  0  0
   -7.5137   -4.4508   -8.5517 C   0  0  0  0  0  0  0  0  0  0  0  0
   -9.5330   -6.2115   -7.9160 C   0  0  0  0  0  0  0  0  0  0  0  0
   -8.6794   -5.6321   -6.7938 C   0  0  0  0  0  0  0  0  0  0  0  0
   -7.8863   -4.5032   -7.1758 N   0  0  2  0  0  4  0  0  0  0  0  0
   -8.4924   -3.2757   -6.6704 C   0  0  1  0  0  0  0  0  0  0  0  0
   -8.7556   -3.4331   -5.1900 C   0  0  0  0  0  0  0  0  0  0  0  0
   -9.3332   -2.4794   -4.4297 N   0  0  0  0  0  0  0  0  0  0  0  0
   -8.5010   -4.4551   -4.3750 N   0  0  0  0  0  0  0  0  0  0  0  0
   -8.9253   -4.1029   -3.1503 N   0  0  0  0  0  0  0  0  0  0  0  0
   -9.4349   -2.8902   -3.1810 N   0  0  0  0  0  0  0  0  0  0  0  0
   -9.9675   -2.1800   -2.0494 C   0  0  0  0  0  0  0  0  0  0  0  0
   -7.6447   -2.0780   -6.8283 C   0  0  0  0  0  0  0  0  0  0  0  0
   -8.0002   -1.0243   -7.6650 C   0  0  0  0  0  0  0  0  0  0  0  0
   -7.2135    0.0936   -7.7684 C   0  0  0  0  0  0  0  0  0  0  0  0
   -6.0358    0.2319   -7.0527 C   0  0  0  0  0  0  0  0  0  0  0  0
   -5.7029   -0.8255   -6.2289 C   0  0  0  0  0  0  0  0  0  0  0  0
   -6.4751   -1.9557   -6.1082 C   0  0  0  0  0  0  0  0  0  0  0  0
  2  1  2  0
 13  1  1  0
  3  2  1  0
  2 12  1  0
  4  3  2  0
  4  5  1  0
 15  4  1  0
  5 13  2  0
 14  5  1  0
 17  6  2  0
  6 18  1  0
  7  8  2  0
 17  7  1  0
  8 19  1  0
  8 20  1  0
  9 10  1  6
 10 11  2  0
 12 10  1  0
 16 14  1  0
 16 15  2  0
 16 17  1  0
 18 19  2  0
 20 21  2  0
 20 22  1  0
 23 22  1  1
 25 22  1  1
 24 23  1  1
 24 27  1  0
 26 25  1  1
 26 27  1  0
 27 28  1  6
 28 29  1  1
 28 35  1  0
 29 30  2  0
 29 31  1  0
 30 33  1  0
 31 32  2  0
 32 33  1  0
 34 33  1  6
 35 36  2  0
 35 40  1  0
 36 37  1  0
 37 38  2  0
 38 39  1  0
 39 40  2  0
M  CHG  1  27   1
M  END
$$$$
