
     RDKit          3D

 40 45  0  0  0  0  0  0  0  0999 V2000
   13.3974   45.0727   26.2795 C   0  0  0  0  0  0  0  0  0  0  0  0
   13.7369   44.7489   27.5731 C   0  0  0  0  0  0  0  0  0  0  0  0
   14.5149   45.6265   28.2892 C   0  0  0  0  0  0  0  0  0  0  0  0
   14.9570   46.8167   27.7364 C   0  0  0  0  0  0  0  0  0  0  0  0
   14.6167   47.1486   26.4289 C   0  0  0  0  0  0  0  0  0  0  0  0
   17.1432   50.4861   28.3997 C   0  0  0  0  0  0  0  0  0  0  0  0
   16.6697   50.8105   26.1116 C   0  0  0  0  0  0  0  0  0  0  0  0
   17.3420   52.0169   26.0813 C   0  0  0  0  0  0  0  0  0  0  0  0
   12.6221   42.2121   30.1759 C   0  0  0  0  0  0  0  0  0  0  0  0
   13.1405   43.4468   29.5591 C   0  0  0  0  0  0  0  0  0  0  0  0
   13.4493   44.4168   30.2935 O   0  0  0  0  0  0  0  0  0  0  0  0
   13.2890   43.5359   28.1421 N   0  0  0  0  0  0  0  0  0  0  0  0
   13.8317   46.2631   25.7065 C   0  0  0  0  0  0  0  0  0  0  0  0
   15.1596   48.3001   26.1805 O   0  0  0  0  0  0  0  0  0  0  0  0
   15.7054   47.8393   28.1778 N   0  0  0  0  0  0  0  0  0  0  0  0
   15.8382   48.7681   27.2177 C   0  0  0  0  0  0  0  0  0  0  0  0
   16.5623   50.0416   27.2486 C   0  0  0  0  0  0  0  0  0  0  0  0
   17.8262   51.7060   28.3803 C   0  0  0  0  0  0  0  0  0  0  0  0
   17.9018   52.4267   27.2254 N   0  0  0  0  0  0  0  0  0  0  0  0
   17.3824   52.7119   24.8217 C   0  0  0  0  0  0  0  0  0  0  0  0
   16.5021   52.4396   23.9416 O   0  0  0  0  0  0  0  0  0  0  0  0
   18.3421   53.6685   24.5251 N   0  0  0  0  0  0  0  0  0  0  0  0
   19.4213   53.9602   25.4332 C   0  0  0  0  0  0  0  0  0  0  0  0
   20.7955   53.9203   24.7376 C   0  0  0  0  0  0  0  0  0  0  0  0
   18.3293   54.4435   23.2761 C   0  0  0  0  0  0  0  0  0  0  0  0
   19.7466   54.2143   22.6972 C   0  0  0  0  0  0  0  0  0  0  0  0
   20.6874   54.8180   23.6113 N   0  0  2  0  0  4  0  0  0  0  0  0
   21.8986   55.2902   23.0535 C   0  0  1  0  0  0  0  0  0  0  0  0
   21.6376   56.2981   21.9876 C   0  0  0  0  0  0  0  0  0  0  0  0
   21.4403   57.6132   22.2416 N   0  0  0  0  0  0  0  0  0  0  0  0
   21.5372   56.1757   20.6675 N   0  0  0  0  0  0  0  0  0  0  0  0
   21.2892   57.3782   20.1614 N   0  0  0  0  0  0  0  0  0  0  0  0
   21.2248   58.2792   21.1056 N   0  0  0  0  0  0  0  0  0  0  0  0
   20.9694   59.6995   20.9515 C   0  0  0  0  0  0  0  0  0  0  0  0
   22.9677   55.6989   23.9571 C   0  0  0  0  0  0  0  0  0  0  0  0
   22.8464   56.5891   24.9930 C   0  0  0  0  0  0  0  0  0  0  0  0
   23.9030   56.9435   25.8087 C   0  0  0  0  0  0  0  0  0  0  0  0
   25.1435   56.3986   25.6014 C   0  0  0  0  0  0  0  0  0  0  0  0
   25.3223   55.4906   24.5658 C   0  0  0  0  0  0  0  0  0  0  0  0
   24.2561   55.1716   23.7887 C   0  0  0  0  0  0  0  0  0  0  0  0
  2  1  2  0
 13  1  1  0
  3  2  1  0
  2 12  1  0
  4  3  2  0
  4  5  1  0
 15  4  1  0
  5 13  2  0
 14  5  1  0
 17  6  2  0
  6 18  1  0
  7  8  2  0
 17  7  1  0
  8 19  1  0
  8 20  1  0
 10  9  1  0
 10 11  2  0
 12 10  1  0
 16 14  1  0
 16 15  2  0
 16 17  1  0
 18 19  2  0
 20 21  2  0
 20 22  1  0
 22 23  1  0
 22 25  1  0
 23 24  1  0
 27 24  1  1
 25 26  1  0
 26 27  1  0
 27 28  1  0
 28 29  1  1
 28 35  1  0
 29 30  2  0
 29 31  1  0
 30 33  1  0
 31 32  2  0
 32 33  1  0
 33 34  1  0
 35 36  2  0
 35 40  1  0
 36 37  1  0
 37 38  2  0
 38 39  1  0
 39 40  2  0
M  CHG  1  27   1
M  END
$$$$
