
     RDKit          3D

 40 45  0  0  0  0  0  0  0  0999 V2000
   15.1367   43.8954   27.7353 C   0  0  0  0  0  0  0  0  0  0  0  0
   14.7813   44.0948   26.4210 C   0  0  0  0  0  0  0  0  0  0  0  0
   15.0518   45.3117   25.8429 C   0  0  0  0  0  0  0  0  0  0  0  0
   15.6687   46.3278   26.5532 C   0  0  0  0  0  0  0  0  0  0  0  0
   16.0300   46.1312   27.8824 C   0  0  0  0  0  0  0  0  0  0  0  0
   17.6630   49.9250   28.6887 C   0  0  0  0  0  0  0  0  0  0  0  0
   17.2155   50.3631   26.4143 C   0  0  0  0  0  0  0  0  0  0  0  0
   17.7319   51.6417   26.4965 C   0  0  0  0  0  0  0  0  0  0  0  0
   12.2636   42.3455   24.1891 C   0  0  0  0  0  0  0  0  0  0  0  0
   13.1262   43.3981   24.7564 C   0  0  0  0  0  0  0  0  0  0  0  0
   12.9487   44.5908   24.4081 O   0  0  0  0  0  0  0  0  0  0  0  0
   14.1512   43.0620   25.6915 N   0  0  0  0  0  0  0  0  0  0  0  0
   15.7570   44.9033   28.4655 C   0  0  0  0  0  0  0  0  0  0  0  0
   16.5799   47.2334   28.2888 O   0  0  0  0  0  0  0  0  0  0  0  0
   16.0485   47.5821   26.2651 N   0  0  0  0  0  0  0  0  0  0  0  0
   16.6165   48.1553   27.3379 C   0  0  0  0  0  0  0  0  0  0  0  0
   17.1741   49.5019   27.4877 C   0  0  0  0  0  0  0  0  0  0  0  0
   18.1880   51.2174   28.7830 C   0  0  0  0  0  0  0  0  0  0  0  0
   18.2043   52.0283   27.6871 N   0  0  0  0  0  0  0  0  0  0  0  0
   17.7194   52.4310   25.2931 C   0  0  0  0  0  0  0  0  0  0  0  0
   16.7835   52.2473   24.4480 O   0  0  0  0  0  0  0  0  0  0  0  0
   18.6860   53.3858   25.0141 N   0  0  0  0  0  0  0  0  0  0  0  0
   19.8264   53.5771   25.8728 C   0  0  0  0  0  0  0  0  0  0  0  0
   21.1539   53.5620   25.0910 C   0  0  0  0  0  0  0  0  0  0  0  0
   18.6192   54.2603   23.8344 C   0  0  0  0  0  0  0  0  0  0  0  0
   19.9915   54.0461   23.1510 C   0  0  0  0  0  0  0  0  0  0  0  0
   21.0031   54.5510   24.0493 N   0  0  2  0  0  4  0  0  0  0  0  0
   22.1909   55.0387   23.4559 C   0  0  1  0  0  0  0  0  0  0  0  0
   21.8838   55.9219   22.2958 C   0  0  0  0  0  0  0  0  0  0  0  0
   21.0997   57.0217   22.3872 N   0  0  0  0  0  0  0  0  0  0  0  0
   22.2541   55.8585   21.0204 N   0  0  0  0  0  0  0  0  0  0  0  0
   21.7064   56.8865   20.3824 N   0  0  0  0  0  0  0  0  0  0  0  0
   20.9926   57.6169   21.1977 N   0  0  0  0  0  0  0  0  0  0  0  0
   20.2414   58.8164   20.8768 C   0  0  0  0  0  0  0  0  0  0  0  0
   23.2233   55.5955   24.3222 C   0  0  0  0  0  0  0  0  0  0  0  0
   23.0312   56.5484   25.2893 C   0  0  0  0  0  0  0  0  0  0  0  0
   24.0556   57.0438   26.0721 C   0  0  0  0  0  0  0  0  0  0  0  0
   25.3351   56.5830   25.9011 C   0  0  0  0  0  0  0  0  0  0  0  0
   25.5858   55.6168   24.9354 C   0  0  0  0  0  0  0  0  0  0  0  0
   24.5491   55.1587   24.1886 C   0  0  0  0  0  0  0  0  0  0  0  0
  2  1  2  0
 13  1  1  0
  3  2  1  0
  2 12  1  0
  4  3  2  0
  4  5  1  0
 15  4  1  0
  5 13  2  0
 14  5  1  0
 17  6  2  0
  6 18  1  0
  7  8  2  0
 17  7  1  0
  8 19  1  0
  8 20  1  0
 10  9  1  0
 10 11  2  0
 12 10  1  0
 16 14  1  0
 16 15  2  0
 16 17  1  0
 18 19  2  0
 20 21  2  0
 20 22  1  0
 22 23  1  0
 22 25  1  0
 23 24  1  0
 27 24  1  1
 25 26  1  0
 26 27  1  0
 27 28  1  0
 28 29  1  6
 28 35  1  0
 29 30  2  0
 29 31  1  0
 30 33  1  0
 31 32  2  0
 32 33  1  0
 33 34  1  0
 35 36  2  0
 35 40  1  0
 36 37  1  0
 37 38  2  0
 38 39  1  0
 39 40  2  0
M  CHG  1  27   1
M  END
$$$$
