
     RDKit          3D

 40 45  0  0  0  0  0  0  0  0999 V2000
   16.1654   45.3633   29.5416 C   0  0  0  0  0  0  0  0  0  0  0  0
   15.0460   44.9841   28.8279 C   0  0  0  0  0  0  0  0  0  0  0  0
   14.6369   45.7042   27.7165 C   0  0  0  0  0  0  0  0  0  0  0  0
   15.3587   46.8181   27.3143 C   0  0  0  0  0  0  0  0  0  0  0  0
   16.4635   47.1846   28.0238 C   0  0  0  0  0  0  0  0  0  0  0  0
   16.0141   49.7284   24.1825 C   0  0  0  0  0  0  0  0  0  0  0  0
   17.2263   50.8267   25.8824 C   0  0  0  0  0  0  0  0  0  0  0  0
   17.5225   51.8954   25.0323 C   0  0  0  0  0  0  0  0  0  0  0  0
   12.7866   41.8742   28.6493 C   0  0  0  0  0  0  0  0  0  0  0  0
   13.5249   43.1099   28.2711 C   0  0  0  0  0  0  0  0  0  0  0  0
   13.4552   43.5284   27.0658 O   0  0  0  0  0  0  0  0  0  0  0  0
   14.3032   43.8334   29.2093 N   0  0  0  0  0  0  0  0  0  0  0  0
   16.8657   46.4683   29.1257 C   0  0  0  0  0  0  0  0  0  0  0  0
   16.9484   48.2666   27.4165 O   0  0  0  0  0  0  0  0  0  0  0  0
   15.2296   47.7067   26.3063 N   0  0  0  0  0  0  0  0  0  0  0  0
   16.2274   48.6024   26.3825 C   0  0  0  0  0  0  0  0  0  0  0  0
   16.4814   49.7387   25.4879 C   0  0  0  0  0  0  0  0  0  0  0  0
   16.3122   50.7855   23.3625 C   0  0  0  0  0  0  0  0  0  0  0  0
   17.0479   51.8316   23.7930 N   0  0  0  0  0  0  0  0  0  0  0  0
   18.3530   52.9968   25.4931 C   0  0  0  0  0  0  0  0  0  0  0  0
   18.3468   53.2026   26.7859 O   0  0  0  0  0  0  0  0  0  0  0  0
   19.1499   53.8606   24.7574 N   0  0  0  0  0  0  0  0  0  0  0  0
   19.6022   55.0990   25.3677 C   0  0  0  0  0  0  0  0  0  0  0  0
   20.9912   55.4711   24.8587 C   0  0  0  0  0  0  0  0  0  0  0  0
   19.5697   53.6117   23.4082 C   0  0  0  0  0  0  0  0  0  0  0  0
   19.9892   54.9112   22.7310 C   0  0  0  0  0  0  0  0  0  0  0  0
   20.9810   55.6573   23.4445 N   0  0  2  0  0  4  0  0  0  0  0  0
   22.2830   55.4905   22.8072 C   0  0  1  0  0  0  0  0  0  0  0  0
   22.1994   55.9933   21.3838 C   0  0  0  0  0  0  0  0  0  0  0  0
   22.3973   57.2819   21.0353 N   0  0  0  0  0  0  0  0  0  0  0  0
   21.9361   55.3386   20.2544 N   0  0  0  0  0  0  0  0  0  0  0  0
   21.9796   56.2351   19.2552 N   0  0  0  0  0  0  0  0  0  0  0  0
   22.2608   57.4287   19.7321 N   0  0  0  0  0  0  0  0  0  0  0  0
   22.3675   58.6340   18.9547 C   0  0  0  0  0  0  0  0  0  0  0  0
   23.3727   56.2405   23.4615 C   0  0  0  0  0  0  0  0  0  0  0  0
   24.5973   55.6533   23.7652 C   0  0  0  0  0  0  0  0  0  0  0  0
   25.6069   56.3798   24.3414 C   0  0  0  0  0  0  0  0  0  0  0  0
   25.4629   57.7228   24.6481 C   0  0  0  0  0  0  0  0  0  0  0  0
   24.2399   58.2845   24.3381 C   0  0  0  0  0  0  0  0  0  0  0  0
   23.2133   57.5772   23.7602 C   0  0  0  0  0  0  0  0  0  0  0  0
  2  1  2  0
 13  1  1  0
  3  2  1  0
  2 12  1  0
  4  3  2  0
  4  5  1  0
 15  4  1  0
  5 13  2  0
 14  5  1  0
 17  6  2  0
  6 18  1  0
  7  8  2  0
 17  7  1  0
  8 19  1  0
  8 20  1  0
  9 10  1  6
 10 11  2  0
 12 10  1  0
 16 14  1  0
 16 15  2  0
 16 17  1  0
 18 19  2  0
 20 21  2  0
 20 22  1  0
 23 22  1  1
 25 22  1  1
 24 23  1  1
 24 27  1  0
 26 25  1  1
 26 27  1  0
 27 28  1  6
 28 29  1  6
 28 35  1  0
 29 30  2  0
 29 31  1  0
 30 33  1  0
 31 32  2  0
 32 33  1  0
 34 33  1  6
 35 36  2  0
 35 40  1  0
 36 37  1  0
 37 38  2  0
 38 39  1  0
 39 40  2  0
M  CHG  1  27   1
M  END
$$$$
