
     RDKit          3D

 40 45  0  0  0  0  0  0  0  0999 V2000
  -34.2077   10.1785  -19.2850 C   0  0  0  0  0  0  0  0  0  0  0  0
  -34.8423   10.9447  -18.3279 C   0  0  0  0  0  0  0  0  0  0  0  0
  -34.9938   10.4771  -17.0320 C   0  0  0  0  0  0  0  0  0  0  0  0
  -34.5025    9.2259  -16.6901 C   0  0  0  0  0  0  0  0  0  0  0  0
  -33.8758    8.4766  -17.6409 C   0  0  0  0  0  0  0  0  0  0  0  0
  -33.6445    4.9239  -15.2404 C   0  0  0  0  0  0  0  0  0  0  0  0
  -33.4009    6.4856  -13.4891 C   0  0  0  0  0  0  0  0  0  0  0  0
  -33.2124    5.4643  -12.5543 C   0  0  0  0  0  0  0  0  0  0  0  0
  -35.0376   14.4811  -19.8063 C   0  0  0  0  0  0  0  0  0  0  0  0
  -34.7277   13.0332  -19.6552 C   0  0  0  0  0  0  0  0  0  0  0  0
  -33.8915   12.4921  -20.4556 O   0  0  0  0  0  0  0  0  0  0  0  0
  -35.3349   12.2389  -18.6503 N   0  0  0  0  0  0  0  0  0  0  0  0
  -33.7282    8.9436  -18.9252 C   0  0  0  0  0  0  0  0  0  0  0  0
  -33.5120    7.3461  -17.0376 O   0  0  0  0  0  0  0  0  0  0  0  0
  -34.4873    8.5026  -15.5505 N   0  0  0  0  0  0  0  0  0  0  0  0
  -33.8664    7.3345  -15.7822 C   0  0  0  0  0  0  0  0  0  0  0  0
  -33.6180    6.2472  -14.8271 C   0  0  0  0  0  0  0  0  0  0  0  0
  -33.4560    3.9344  -14.3108 C   0  0  0  0  0  0  0  0  0  0  0  0
  -33.2473    4.2159  -13.0077 N   0  0  0  0  0  0  0  0  0  0  0  0
  -33.0320    5.7771  -11.1455 C   0  0  0  0  0  0  0  0  0  0  0  0
  -32.3503    6.8661  -10.8946 O   0  0  0  0  0  0  0  0  0  0  0  0
  -33.4790    5.0852  -10.0302 N   0  0  0  0  0  0  0  0  0  0  0  0
  -32.9707    5.4516   -8.7194 C   0  0  0  0  0  0  0  0  0  0  0  0
  -34.0453    5.2570   -7.6545 C   0  0  0  0  0  0  0  0  0  0  0  0
  -34.4293    4.0115  -10.0800 C   0  0  0  0  0  0  0  0  0  0  0  0
  -34.3387    3.1591   -8.8195 C   0  0  0  0  0  0  0  0  0  0  0  0
  -34.4631    3.8943   -7.5975 N   0  0  2  0  0  4  0  0  0  0  0  0
  -35.7935    3.6970   -7.0315 C   0  0  1  0  0  0  0  0  0  0  0  0
  -35.9788    2.2300   -6.7160 C   0  0  0  0  0  0  0  0  0  0  0  0
  -36.8351    1.7711   -5.7794 N   0  0  0  0  0  0  0  0  0  0  0  0
  -35.3930    1.1564   -7.2428 N   0  0  0  0  0  0  0  0  0  0  0  0
  -35.9014    0.0800   -6.6207 N   0  0  0  0  0  0  0  0  0  0  0  0
  -36.7854    0.4548   -5.7210 N   0  0  0  0  0  0  0  0  0  0  0  0
  -37.5156   -0.4272   -4.8507 C   0  0  0  0  0  0  0  0  0  0  0  0
  -36.0281    4.4365   -5.7761 C   0  0  0  0  0  0  0  0  0  0  0  0
  -37.2950    4.8712   -5.3984 C   0  0  0  0  0  0  0  0  0  0  0  0
  -37.4936    5.5257   -4.2104 C   0  0  0  0  0  0  0  0  0  0  0  0
  -36.4544    5.7860   -3.3325 C   0  0  0  0  0  0  0  0  0  0  0  0
  -35.2065    5.3457   -3.7275 C   0  0  0  0  0  0  0  0  0  0  0  0
  -34.9826    4.6873   -4.9127 C   0  0  0  0  0  0  0  0  0  0  0  0
  2  1  2  0
 13  1  1  0
  3  2  1  0
  2 12  1  0
  4  3  2  0
  4  5  1  0
 15  4  1  0
  5 13  2  0
 14  5  1  0
 17  6  2  0
  6 18  1  0
  7  8  2  0
 17  7  1  0
  8 19  1  0
  8 20  1  0
  9 10  1  6
 10 11  2  0
 12 10  1  0
 16 14  1  0
 16 15  2  0
 16 17  1  0
 18 19  2  0
 20 21  2  0
 20 22  1  0
 23 22  1  1
 25 22  1  1
 24 23  1  1
 24 27  1  0
 26 25  1  1
 26 27  1  0
 27 28  1  6
 28 29  1  1
 28 35  1  0
 29 30  2  0
 29 31  1  0
 30 33  1  0
 31 32  2  0
 32 33  1  0
 34 33  1  6
 35 36  2  0
 35 40  1  0
 36 37  1  0
 37 38  2  0
 38 39  1  0
 39 40  2  0
M  CHG  1  27   1
M  END
$$$$
