
     RDKit          3D

 40 45  0  0  0  0  0  0  0  0999 V2000
   25.0442   56.7585   25.2555 C   0  0  0  0  0  0  0  0  0  0  0  0
   24.3523   57.1609   24.1306 C   0  0  0  0  0  0  0  0  0  0  0  0
   23.0949   56.6490   23.8513 C   0  0  0  0  0  0  0  0  0  0  0  0
   22.5229   55.7224   24.7102 C   0  0  0  0  0  0  0  0  0  0  0  0
   23.2123   55.3317   25.8194 C   0  0  0  0  0  0  0  0  0  0  0  0
   20.1186   52.9514   27.5462 C   0  0  0  0  0  0  0  0  0  0  0  0
   19.2952   52.8827   25.3365 C   0  0  0  0  0  0  0  0  0  0  0  0
   18.2828   51.9915   25.7017 C   0  0  0  0  0  0  0  0  0  0  0  0
   27.1201   58.8327   22.2141 C   0  0  0  0  0  0  0  0  0  0  0  0
   26.2465   58.5760   23.3914 C   0  0  0  0  0  0  0  0  0  0  0  0
   26.7162   58.7663   24.5643 O   0  0  0  0  0  0  0  0  0  0  0  0
   24.9102   58.1255   23.2474 N   0  0  0  0  0  0  0  0  0  0  0  0
   24.4592   55.8413   26.0926 C   0  0  0  0  0  0  0  0  0  0  0  0
   22.4312   54.4546   26.4479 O   0  0  0  0  0  0  0  0  0  0  0  0
   21.3503   55.0537   24.7238 N   0  0  0  0  0  0  0  0  0  0  0  0
   21.3073   54.2685   25.8125 C   0  0  0  0  0  0  0  0  0  0  0  0
   20.2198   53.3744   26.2296 C   0  0  0  0  0  0  0  0  0  0  0  0
   19.1185   52.0786   27.8879 C   0  0  0  0  0  0  0  0  0  0  0  0
   18.2341   51.6215   26.9769 N   0  0  0  0  0  0  0  0  0  0  0  0
   17.3620   51.4711   24.7035 C   0  0  0  0  0  0  0  0  0  0  0  0
   16.9044   52.3505   23.8486 O   0  0  0  0  0  0  0  0  0  0  0  0
   16.8993   50.1758   24.5291 N   0  0  0  0  0  0  0  0  0  0  0  0
   17.6433   49.0736   25.1144 C   0  0  0  0  0  0  0  0  0  0  0  0
   16.6964   47.9611   25.5531 C   0  0  0  0  0  0  0  0  0  0  0  0
   15.7116   49.8400   23.7976 C   0  0  0  0  0  0  0  0  0  0  0  0
   15.7429   48.3770   23.3708 C   0  0  0  0  0  0  0  0  0  0  0  0
   15.9609   47.4524   24.4417 N   0  0  2  0  0  4  0  0  0  0  0  0
   14.7053   46.8010   24.7999 C   0  0  1  0  0  0  0  0  0  0  0  0
   14.0142   46.3416   23.5361 C   0  0  0  0  0  0  0  0  0  0  0  0
   12.7112   45.9945   23.4827 N   0  0  0  0  0  0  0  0  0  0  0  0
   14.4906   46.1895   22.3019 N   0  0  0  0  0  0  0  0  0  0  0  0
   13.4766   45.7579   21.5341 N   0  0  0  0  0  0  0  0  0  0  0  0
   12.3839   45.6358   22.2569 N   0  0  0  0  0  0  0  0  0  0  0  0
   11.1098   45.1774   21.7722 C   0  0  0  0  0  0  0  0  0  0  0  0
   14.8693   45.6088   25.6542 C   0  0  0  0  0  0  0  0  0  0  0  0
   15.8500   44.6520   25.4101 C   0  0  0  0  0  0  0  0  0  0  0  0
   16.0056   43.5709   26.2383 C   0  0  0  0  0  0  0  0  0  0  0  0
   15.2035   43.3761   27.3505 C   0  0  0  0  0  0  0  0  0  0  0  0
   14.2376   44.3376   27.5735 C   0  0  0  0  0  0  0  0  0  0  0  0
   14.0626   45.4298   26.7582 C   0  0  0  0  0  0  0  0  0  0  0  0
  2  1  2  0
 13  1  1  0
  3  2  1  0
  2 12  1  0
  4  3  2  0
  4  5  1  0
 15  4  1  0
  5 13  2  0
 14  5  1  0
 17  6  2  0
  6 18  1  0
  7  8  2  0
 17  7  1  0
  8 19  1  0
  8 20  1  0
  9 10  1  6
 10 11  2  0
 12 10  1  0
 16 14  1  0
 16 15  2  0
 16 17  1  0
 18 19  2  0
 20 21  2  0
 20 22  1  0
 23 22  1  1
 25 22  1  1
 24 23  1  1
 24 27  1  0
 26 25  1  1
 26 27  1  0
 27 28  1  1
 28 29  1  6
 28 35  1  0
 29 30  2  0
 29 31  1  0
 30 33  1  0
 31 32  2  0
 32 33  1  0
 34 33  1  6
 35 36  2  0
 35 40  1  0
 36 37  1  0
 37 38  2  0
 38 39  1  0
 39 40  2  0
M  CHG  1  27   1
M  END
$$$$
