
     RDKit          3D

 40 45  0  0  0  0  0  0  0  0999 V2000
  -33.8127    7.7825  -18.7441 C   0  0  0  0  0  0  0  0  0  0  0  0
  -35.0562    8.1009  -18.2482 C   0  0  0  0  0  0  0  0  0  0  0  0
  -35.3173    7.8603  -16.9208 C   0  0  0  0  0  0  0  0  0  0  0  0
  -34.3607    7.3094  -16.0847 C   0  0  0  0  0  0  0  0  0  0  0  0
  -33.1020    6.9855  -16.5812 C   0  0  0  0  0  0  0  0  0  0  0  0
  -31.3007    5.8418  -12.9405 C   0  0  0  0  0  0  0  0  0  0  0  0
  -33.5244    5.6137  -12.1868 C   0  0  0  0  0  0  0  0  0  0  0  0
  -33.1216    5.1413  -10.9527 C   0  0  0  0  0  0  0  0  0  0  0  0
  -38.3985    8.6794  -19.9642 C   0  0  0  0  0  0  0  0  0  0  0  0
  -37.3332    8.0687  -19.1481 C   0  0  0  0  0  0  0  0  0  0  0  0
  -37.5798    7.0222  -18.5005 O   0  0  0  0  0  0  0  0  0  0  0  0
  -36.0361    8.6628  -19.0967 N   0  0  0  0  0  0  0  0  0  0  0  0
  -32.8387    7.2284  -17.9206 C   0  0  0  0  0  0  0  0  0  0  0  0
  -32.4228    6.4948  -15.5911 O   0  0  0  0  0  0  0  0  0  0  0  0
  -34.3269    6.9711  -14.7866 N   0  0  0  0  0  0  0  0  0  0  0  0
  -33.1259    6.4629  -14.4685 C   0  0  0  0  0  0  0  0  0  0  0  0
  -32.6378    5.9646  -13.1799 C   0  0  0  0  0  0  0  0  0  0  0  0
  -30.8820    5.3645  -11.6948 C   0  0  0  0  0  0  0  0  0  0  0  0
  -31.8041    5.0319  -10.7471 N   0  0  0  0  0  0  0  0  0  0  0  0
  -34.1565    4.8201  -10.0055 C   0  0  0  0  0  0  0  0  0  0  0  0
  -35.0145    5.7135   -9.7070 O   0  0  0  0  0  0  0  0  0  0  0  0
  -34.2590    3.5751   -9.4025 N   0  0  0  0  0  0  0  0  0  0  0  0
  -33.1825    2.6199   -9.4578 C   0  0  0  0  0  0  0  0  0  0  0  0
  -32.8187    2.0701   -8.0654 C   0  0  0  0  0  0  0  0  0  0  0  0
  -35.4587    3.1458   -8.6694 C   0  0  0  0  0  0  0  0  0  0  0  0
  -34.9014    2.7129   -7.2917 C   0  0  0  0  0  0  0  0  0  0  0  0
  -34.0535    1.5651   -7.5118 N   0  0  2  0  0  4  0  0  0  0  0  0
  -33.9442    0.6440   -6.4438 C   0  0  1  0  0  0  0  0  0  0  0  0
  -35.2897    0.2019   -5.9811 C   0  0  0  0  0  0  0  0  0  0  0  0
  -35.9052    0.7151   -4.8899 N   0  0  0  0  0  0  0  0  0  0  0  0
  -36.1295   -0.7092   -6.4630 N   0  0  0  0  0  0  0  0  0  0  0  0
  -37.2033   -0.7317   -5.6819 N   0  0  0  0  0  0  0  0  0  0  0  0
  -37.0921    0.1330   -4.7084 N   0  0  0  0  0  0  0  0  0  0  0  0
  -38.0525    0.3998   -3.6536 C   0  0  0  0  0  0  0  0  0  0  0  0
  -33.0077   -0.4660   -6.5757 C   0  0  0  0  0  0  0  0  0  0  0  0
  -31.7590   -0.5335   -6.0133 C   0  0  0  0  0  0  0  0  0  0  0  0
  -30.9132   -1.6116   -6.1850 C   0  0  0  0  0  0  0  0  0  0  0  0
  -31.3090   -2.6806   -6.9462 C   0  0  0  0  0  0  0  0  0  0  0  0
  -32.5649   -2.6647   -7.5389 C   0  0  0  0  0  0  0  0  0  0  0  0
  -33.3630   -1.5842   -7.3436 C   0  0  0  0  0  0  0  0  0  0  0  0
  2  1  2  0
 13  1  1  0
  3  2  1  0
  2 12  1  0
  4  3  2  0
  4  5  1  0
 15  4  1  0
  5 13  2  0
 14  5  1  0
 17  6  2  0
  6 18  1  0
  7  8  2  0
 17  7  1  0
  8 19  1  0
  8 20  1  0
 10  9  1  0
 10 11  2  0
 12 10  1  0
 16 14  1  0
 16 15  2  0
 16 17  1  0
 18 19  2  0
 20 21  2  0
 20 22  1  0
 22 23  1  0
 22 25  1  0
 23 24  1  0
 27 24  1  1
 25 26  1  0
 26 27  1  0
 27 28  1  0
 28 29  1  6
 28 35  1  0
 29 30  2  0
 29 31  1  0
 30 33  1  0
 31 32  2  0
 32 33  1  0
 33 34  1  0
 35 36  2  0
 35 40  1  0
 36 37  1  0
 37 38  2  0
 38 39  1  0
 39 40  2  0
M  CHG  1  27   1
M  END
$$$$
