
     RDKit          3D

 40 45  0  0  0  0  0  0  0  0999 V2000
   23.5029   57.5766   26.3856 C   0  0  0  0  0  0  0  0  0  0  0  0
   22.4684   58.1512   25.6746 C   0  0  0  0  0  0  0  0  0  0  0  0
   21.3057   57.4420   25.4175 C   0  0  0  0  0  0  0  0  0  0  0  0
   21.1772   56.1405   25.8791 C   0  0  0  0  0  0  0  0  0  0  0  0
   22.2029   55.5812   26.5815 C   0  0  0  0  0  0  0  0  0  0  0  0
   20.1535   51.9908   27.6651 C   0  0  0  0  0  0  0  0  0  0  0  0
   18.9088   52.4327   25.7105 C   0  0  0  0  0  0  0  0  0  0  0  0
   18.2279   51.2180   25.8244 C   0  0  0  0  0  0  0  0  0  0  0  0
   23.9493   61.4140   24.2876 C   0  0  0  0  0  0  0  0  0  0  0  0
   23.8278   60.1023   24.9804 C   0  0  0  0  0  0  0  0  0  0  0  0
   24.8886   59.5111   25.3775 O   0  0  0  0  0  0  0  0  0  0  0  0
   22.5695   59.4912   25.2101 N   0  0  0  0  0  0  0  0  0  0  0  0
   23.3546   56.2876   26.8340 C   0  0  0  0  0  0  0  0  0  0  0  0
   21.8055   54.3490   26.8946 O   0  0  0  0  0  0  0  0  0  0  0  0
   20.2040   55.2083   25.8007 N   0  0  0  0  0  0  0  0  0  0  0  0
   20.6094   54.0981   26.4385 C   0  0  0  0  0  0  0  0  0  0  0  0
   19.8690   52.8415   26.6078 C   0  0  0  0  0  0  0  0  0  0  0  0
   19.4750   50.8038   27.7630 C   0  0  0  0  0  0  0  0  0  0  0  0
   18.5413   50.4439   26.8578 N   0  0  0  0  0  0  0  0  0  0  0  0
   17.2550   50.8199   24.8193 C   0  0  0  0  0  0  0  0  0  0  0  0
   16.6083   51.8017   24.2434 O   0  0  0  0  0  0  0  0  0  0  0  0
   16.9145   49.5481   24.3847 N   0  0  0  0  0  0  0  0  0  0  0  0
   17.5735   48.3973   24.9781 C   0  0  0  0  0  0  0  0  0  0  0  0
   16.6175   47.2110   25.0511 C   0  0  0  0  0  0  0  0  0  0  0  0
   15.9353   49.2825   23.3702 C   0  0  0  0  0  0  0  0  0  0  0  0
   16.1404   47.8917   22.7809 C   0  0  0  0  0  0  0  0  0  0  0  0
   16.1712   46.8374   23.7487 N   0  0  2  0  0  4  0  0  0  0  0  0
   14.9061   46.1104   23.7328 C   0  0  1  0  0  0  0  0  0  0  0  0
   14.3139   46.1888   22.3439 C   0  0  0  0  0  0  0  0  0  0  0  0
   12.9961   46.0533   22.0864 N   0  0  0  0  0  0  0  0  0  0  0  0
   14.9040   46.3914   21.1674 N   0  0  0  0  0  0  0  0  0  0  0  0
   13.9412   46.3746   20.2310 N   0  0  0  0  0  0  0  0  0  0  0  0
   12.7697   46.1656   20.7924 N   0  0  0  0  0  0  0  0  0  0  0  0
   11.5162   46.0645   20.0946 C   0  0  0  0  0  0  0  0  0  0  0  0
   15.0324   44.6775   24.0626 C   0  0  0  0  0  0  0  0  0  0  0  0
   16.0625   44.1894   24.8610 C   0  0  0  0  0  0  0  0  0  0  0  0
   16.1390   42.8590   25.1826 C   0  0  0  0  0  0  0  0  0  0  0  0
   15.2045   41.9401   24.7346 C   0  0  0  0  0  0  0  0  0  0  0  0
   14.1914   42.4465   23.9443 C   0  0  0  0  0  0  0  0  0  0  0  0
   14.0933   43.7755   23.6088 C   0  0  0  0  0  0  0  0  0  0  0  0
  2  1  2  0
 13  1  1  0
  3  2  1  0
  2 12  1  0
  4  3  2  0
  4  5  1  0
 15  4  1  0
  5 13  2  0
 14  5  1  0
 17  6  2  0
  6 18  1  0
  7  8  2  0
 17  7  1  0
  8 19  1  0
  8 20  1  0
  9 10  1  6
 10 11  2  0
 12 10  1  0
 16 14  1  0
 16 15  2  0
 16 17  1  0
 18 19  2  0
 20 21  2  0
 20 22  1  0
 23 22  1  1
 25 22  1  1
 24 23  1  1
 24 27  1  0
 26 25  1  1
 26 27  1  0
 27 28  1  1
 28 29  1  6
 28 35  1  0
 29 30  2  0
 29 31  1  0
 30 33  1  0
 31 32  2  0
 32 33  1  0
 34 33  1  6
 35 36  2  0
 35 40  1  0
 36 37  1  0
 37 38  2  0
 38 39  1  0
 39 40  2  0
M  CHG  1  27   1
M  END
$$$$
