
     RDKit          3D

 40 45  0  0  0  0  0  0  0  0999 V2000
   10.0258  -18.2860  -33.8144 C   0  0  0  0  0  0  0  0  0  0  0  0
   10.4419  -17.5729  -34.9209 C   0  0  0  0  0  0  0  0  0  0  0  0
    9.7652  -16.4326  -35.3246 C   0  0  0  0  0  0  0  0  0  0  0  0
    8.6577  -16.0006  -34.6102 C   0  0  0  0  0  0  0  0  0  0  0  0
    8.2544  -16.7098  -33.5181 C   0  0  0  0  0  0  0  0  0  0  0  0
    5.3631  -13.8305  -32.2036 C   0  0  0  0  0  0  0  0  0  0  0  0
    5.1009  -13.4767  -34.5212 C   0  0  0  0  0  0  0  0  0  0  0  0
    4.0122  -12.6275  -34.3063 C   0  0  0  0  0  0  0  0  0  0  0  0
   12.9589  -17.9108  -37.7922 C   0  0  0  0  0  0  0  0  0  0  0  0
   11.9970  -17.3064  -36.8307 C   0  0  0  0  0  0  0  0  0  0  0  0
   11.5292  -16.1421  -37.0721 O   0  0  0  0  0  0  0  0  0  0  0  0
   11.5872  -17.9852  -35.6557 N   0  0  0  0  0  0  0  0  0  0  0  0
    8.9278  -17.8404  -33.1213 C   0  0  0  0  0  0  0  0  0  0  0  0
    7.1886  -16.0712  -33.0378 O   0  0  0  0  0  0  0  0  0  0  0  0
    7.8058  -14.9611  -34.7369 N   0  0  0  0  0  0  0  0  0  0  0  0
    6.8968  -15.0179  -33.7499 C   0  0  0  0  0  0  0  0  0  0  0  0
    5.7891  -14.0876  -33.4978 C   0  0  0  0  0  0  0  0  0  0  0  0
    4.2947  -12.9938  -32.0104 C   0  0  0  0  0  0  0  0  0  0  0  0
    3.6490  -12.4173  -33.0457 N   0  0  0  0  0  0  0  0  0  0  0  0
    3.2962  -12.0464  -35.4309 C   0  0  0  0  0  0  0  0  0  0  0  0
    3.1385  -12.8343  -36.4643 O   0  0  0  0  0  0  0  0  0  0  0  0
    2.7573  -10.7758  -35.5643 N   0  0  0  0  0  0  0  0  0  0  0  0
    2.6992   -9.9061  -34.4020 C   0  0  0  0  0  0  0  0  0  0  0  0
    2.8898   -8.4495  -34.8128 C   0  0  0  0  0  0  0  0  0  0  0  0
    2.2438  -10.2476  -36.7955 C   0  0  0  0  0  0  0  0  0  0  0  0
    1.3029   -9.0794  -36.5243 C   0  0  0  0  0  0  0  0  0  0  0  0
    1.8674   -8.0392  -35.7189 N   0  0  2  0  0  4  0  0  0  0  0  0
    2.2294   -6.9015  -36.5579 C   0  0  1  0  0  0  0  0  0  0  0  0
    1.1342   -6.6753  -37.5753 C   0  0  0  0  0  0  0  0  0  0  0  0
    0.4909   -5.4990  -37.7294 N   0  0  0  0  0  0  0  0  0  0  0  0
    0.6045   -7.5089  -38.4686 N   0  0  0  0  0  0  0  0  0  0  0  0
   -0.3391   -6.8273  -39.1387 N   0  0  0  0  0  0  0  0  0  0  0  0
   -0.4118   -5.5941  -38.6857 N   0  0  0  0  0  0  0  0  0  0  0  0
   -1.3246   -4.5858  -39.1534 C   0  0  0  0  0  0  0  0  0  0  0  0
    2.3914   -5.6358  -35.8165 C   0  0  0  0  0  0  0  0  0  0  0  0
    3.6146   -5.2418  -35.2824 C   0  0  0  0  0  0  0  0  0  0  0  0
    3.7484   -4.0448  -34.6279 C   0  0  0  0  0  0  0  0  0  0  0  0
    2.6841   -3.1733  -34.4657 C   0  0  0  0  0  0  0  0  0  0  0  0
    1.4804   -3.5844  -35.0036 C   0  0  0  0  0  0  0  0  0  0  0  0
    1.3218   -4.7790  -35.6641 C   0  0  0  0  0  0  0  0  0  0  0  0
  2  1  2  0
 13  1  1  0
  3  2  1  0
  2 12  1  0
  4  3  2  0
  4  5  1  0
 15  4  1  0
  5 13  2  0
 14  5  1  0
 17  6  2  0
  6 18  1  0
  7  8  2  0
 17  7  1  0
  8 19  1  0
  8 20  1  0
  9 10  1  6
 10 11  2  0
 12 10  1  0
 16 14  1  0
 16 15  2  0
 16 17  1  0
 18 19  2  0
 20 21  2  0
 20 22  1  0
 23 22  1  1
 25 22  1  1
 24 23  1  1
 24 27  1  0
 26 25  1  1
 26 27  1  0
 27 28  1  6
 28 29  1  6
 28 35  1  0
 29 30  2  0
 29 31  1  0
 30 33  1  0
 31 32  2  0
 32 33  1  0
 34 33  1  6
 35 36  2  0
 35 40  1  0
 36 37  1  0
 37 38  2  0
 38 39  1  0
 39 40  2  0
M  CHG  1  27   1
M  END
$$$$
