
     RDKit          3D

 40 45  0  0  0  0  0  0  0  0999 V2000
   14.5822   41.7976   23.4009 C   0  0  0  0  0  0  0  0  0  0  0  0
   14.0742   41.7950   22.1172 C   0  0  0  0  0  0  0  0  0  0  0  0
   14.0253   42.9628   21.3723 C   0  0  0  0  0  0  0  0  0  0  0  0
   14.4918   44.1485   21.9201 C   0  0  0  0  0  0  0  0  0  0  0  0
   14.9930   44.1418   23.1878 C   0  0  0  0  0  0  0  0  0  0  0  0
   15.4995   48.2775   21.1541 C   0  0  0  0  0  0  0  0  0  0  0  0
   15.6668   48.3628   23.5057 C   0  0  0  0  0  0  0  0  0  0  0  0
   15.9938   49.7209   23.4706 C   0  0  0  0  0  0  0  0  0  0  0  0
   12.5131   39.3853   19.5773 C   0  0  0  0  0  0  0  0  0  0  0  0
   13.3135   40.5050   20.1440 C   0  0  0  0  0  0  0  0  0  0  0  0
   13.7456   41.4162   19.3595 O   0  0  0  0  0  0  0  0  0  0  0  0
   13.6102   40.5873   21.5277 N   0  0  0  0  0  0  0  0  0  0  0  0
   15.0393   42.9818   23.9235 C   0  0  0  0  0  0  0  0  0  0  0  0
   15.3625   45.3958   23.4438 O   0  0  0  0  0  0  0  0  0  0  0  0
   14.5827   45.4183   21.4712 N   0  0  0  0  0  0  0  0  0  0  0  0
   15.1277   46.1835   22.4309 C   0  0  0  0  0  0  0  0  0  0  0  0
   15.4174   47.6218   22.3731 C   0  0  0  0  0  0  0  0  0  0  0  0
   15.8196   49.6102   21.1376 C   0  0  0  0  0  0  0  0  0  0  0  0
   16.0573   50.2967   22.2748 N   0  0  0  0  0  0  0  0  0  0  0  0
   16.2909   50.4407   24.6989 C   0  0  0  0  0  0  0  0  0  0  0  0
   15.7726   49.9315   25.7878 O   0  0  0  0  0  0  0  0  0  0  0  0
   17.0447   51.5901   24.8804 N   0  0  0  0  0  0  0  0  0  0  0  0
   17.1664   52.1534   26.2140 C   0  0  0  0  0  0  0  0  0  0  0  0
   18.5388   52.7919   26.4027 C   0  0  0  0  0  0  0  0  0  0  0  0
   17.7288   52.2761   23.8221 C   0  0  0  0  0  0  0  0  0  0  0  0
   18.0322   53.7143   24.2262 C   0  0  0  0  0  0  0  0  0  0  0  0
   18.7430   53.8446   25.4619 N   0  0  2  0  0  4  0  0  0  0  0  0
   20.1451   54.1518   25.1992 C   0  0  1  0  0  0  0  0  0  0  0  0
   20.2256   55.4491   24.4270 C   0  0  0  0  0  0  0  0  0  0  0  0
   20.4686   55.5139   23.1011 N   0  0  0  0  0  0  0  0  0  0  0  0
   20.0874   56.7070   24.8419 N   0  0  0  0  0  0  0  0  0  0  0  0
   20.2477   57.4998   23.7695 N   0  0  0  0  0  0  0  0  0  0  0  0
   20.4834   56.7699   22.7004 N   0  0  0  0  0  0  0  0  0  0  0  0
   20.7259   57.2810   21.3781 C   0  0  0  0  0  0  0  0  0  0  0  0
   20.9598   54.3286   26.4170 C   0  0  0  0  0  0  0  0  0  0  0  0
   22.2126   54.9341   26.3884 C   0  0  0  0  0  0  0  0  0  0  0  0
   22.9356   55.1188   27.5382 C   0  0  0  0  0  0  0  0  0  0  0  0
   22.4622   54.7171   28.7763 C   0  0  0  0  0  0  0  0  0  0  0  0
   21.2173   54.1191   28.7810 C   0  0  0  0  0  0  0  0  0  0  0  0
   20.4736   53.9234   27.6421 C   0  0  0  0  0  0  0  0  0  0  0  0
  2  1  2  0
 13  1  1  0
  3  2  1  0
  2 12  1  0
  4  3  2  0
  4  5  1  0
 15  4  1  0
  5 13  2  0
 14  5  1  0
 17  6  2  0
  6 18  1  0
  7  8  2  0
 17  7  1  0
  8 19  1  0
  8 20  1  0
  9 10  1  6
 10 11  2  0
 12 10  1  0
 16 14  1  0
 16 15  2  0
 16 17  1  0
 18 19  2  0
 20 21  2  0
 20 22  1  0
 23 22  1  1
 25 22  1  1
 24 23  1  1
 24 27  1  0
 26 25  1  1
 26 27  1  0
 27 28  1  6
 28 29  1  1
 28 35  1  0
 29 30  2  0
 29 31  1  0
 30 33  1  0
 31 32  2  0
 32 33  1  0
 34 33  1  6
 35 36  2  0
 35 40  1  0
 36 37  1  0
 37 38  2  0
 38 39  1  0
 39 40  2  0
M  CHG  1  27   1
M  END
$$$$
