
     RDKit          3D

 40 45  0  0  0  0  0  0  0  0999 V2000
   13.8921   41.4579   18.9627 C   0  0  0  0  0  0  0  0  0  0  0  0
   12.7871   42.1908   19.3472 C   0  0  0  0  0  0  0  0  0  0  0  0
   12.9234   43.4943   19.7982 C   0  0  0  0  0  0  0  0  0  0  0  0
   14.1828   44.0714   19.8644 C   0  0  0  0  0  0  0  0  0  0  0  0
   15.2683   43.3412   19.4815 C   0  0  0  0  0  0  0  0  0  0  0  0
   18.2588   46.2673   20.2688 C   0  0  0  0  0  0  0  0  0  0  0  0
   16.4290   47.6439   20.8364 C   0  0  0  0  0  0  0  0  0  0  0  0
   17.2794   48.7029   21.1645 C   0  0  0  0  0  0  0  0  0  0  0  0
    8.9578   41.8870   19.2972 C   0  0  0  0  0  0  0  0  0  0  0  0
   10.3297   42.3810   19.5955 C   0  0  0  0  0  0  0  0  0  0  0  0
   10.4690   43.5177   20.1622 O   0  0  0  0  0  0  0  0  0  0  0  0
   11.4844   41.6269   19.2675 N   0  0  0  0  0  0  0  0  0  0  0  0
   15.1291   42.0486   19.0353 C   0  0  0  0  0  0  0  0  0  0  0  0
   16.3236   44.1376   19.6448 O   0  0  0  0  0  0  0  0  0  0  0  0
   14.6417   45.2824   20.2453 N   0  0  0  0  0  0  0  0  0  0  0  0
   15.9768   45.3090   20.1022 C   0  0  0  0  0  0  0  0  0  0  0  0
   16.8866   46.4249   20.3905 C   0  0  0  0  0  0  0  0  0  0  0  0
   19.0787   47.3168   20.5931 C   0  0  0  0  0  0  0  0  0  0  0  0
   18.5845   48.4949   21.0277 N   0  0  0  0  0  0  0  0  0  0  0  0
   16.7388   49.9534   21.6736 C   0  0  0  0  0  0  0  0  0  0  0  0
   15.6958   50.4169   21.0325 O   0  0  0  0  0  0  0  0  0  0  0  0
   17.1715   50.7249   22.7413 N   0  0  0  0  0  0  0  0  0  0  0  0
   17.9843   50.1090   23.7760 C   0  0  0  0  0  0  0  0  0  0  0  0
   18.9916   51.1099   24.3329 C   0  0  0  0  0  0  0  0  0  0  0  0
   16.8684   52.1184   22.8987 C   0  0  0  0  0  0  0  0  0  0  0  0
   17.0442   52.5423   24.3524 C   0  0  0  0  0  0  0  0  0  0  0  0
   18.3267   52.2331   24.9082 N   0  0  2  0  0  4  0  0  0  0  0  0
   19.1417   53.4413   24.9808 C   0  0  1  0  0  0  0  0  0  0  0  0
   18.3389   54.5340   25.6496 C   0  0  0  0  0  0  0  0  0  0  0  0
   18.4663   55.8434   25.3490 N   0  0  0  0  0  0  0  0  0  0  0  0
   17.4088   54.4591   26.5997 N   0  0  0  0  0  0  0  0  0  0  0  0
   16.9961   55.7121   26.8525 N   0  0  0  0  0  0  0  0  0  0  0  0
   17.6449   56.5635   26.0874 N   0  0  0  0  0  0  0  0  0  0  0  0
   17.4775   57.9919   26.1000 C   0  0  0  0  0  0  0  0  0  0  0  0
   20.3825   53.2829   25.7640 C   0  0  0  0  0  0  0  0  0  0  0  0
   21.6398   53.5145   25.2143 C   0  0  0  0  0  0  0  0  0  0  0  0
   22.7762   53.3948   25.9716 C   0  0  0  0  0  0  0  0  0  0  0  0
   22.7331   53.0409   27.3100 C   0  0  0  0  0  0  0  0  0  0  0  0
   21.4754   52.8161   27.8343 C   0  0  0  0  0  0  0  0  0  0  0  0
   20.3223   52.9302   27.0957 C   0  0  0  0  0  0  0  0  0  0  0  0
  2  1  2  0
 13  1  1  0
  3  2  1  0
  2 12  1  0
  4  3  2  0
  4  5  1  0
 15  4  1  0
  5 13  2  0
 14  5  1  0
 17  6  2  0
  6 18  1  0
  7  8  2  0
 17  7  1  0
  8 19  1  0
  8 20  1  0
  9 10  1  6
 10 11  2  0
 12 10  1  0
 16 14  1  0
 16 15  2  0
 16 17  1  0
 18 19  2  0
 20 21  2  0
 20 22  1  0
 23 22  1  1
 25 22  1  1
 24 23  1  1
 24 27  1  0
 26 25  1  1
 26 27  1  0
 27 28  1  6
 28 29  1  1
 28 35  1  0
 29 30  2  0
 29 31  1  0
 30 33  1  0
 31 32  2  0
 32 33  1  0
 34 33  1  6
 35 36  2  0
 35 40  1  0
 36 37  1  0
 37 38  2  0
 38 39  1  0
 39 40  2  0
M  CHG  1  27   1
M  END
$$$$
