
     RDKit          3D

 40 45  0  0  0  0  0  0  0  0999 V2000
  -33.8695    6.8657  -18.6072 C   0  0  0  0  0  0  0  0  0  0  0  0
  -33.9524    8.2416  -18.5298 C   0  0  0  0  0  0  0  0  0  0  0  0
  -34.1347    8.8729  -17.3093 C   0  0  0  0  0  0  0  0  0  0  0  0
  -34.2346    8.1162  -16.1514 C   0  0  0  0  0  0  0  0  0  0  0  0
  -34.1503    6.7583  -16.2366 C   0  0  0  0  0  0  0  0  0  0  0  0
  -35.4050    7.9945  -11.9712 C   0  0  0  0  0  0  0  0  0  0  0  0
  -33.9070    6.1720  -11.9669 C   0  0  0  0  0  0  0  0  0  0  0  0
  -34.0050    6.0465  -10.5787 C   0  0  0  0  0  0  0  0  0  0  0  0
  -34.8727   10.7870  -21.2208 C   0  0  0  0  0  0  0  0  0  0  0  0
  -34.5908   10.2229  -19.8727 C   0  0  0  0  0  0  0  0  0  0  0  0
  -35.0459   10.8253  -18.8418 O   0  0  0  0  0  0  0  0  0  0  0  0
  -33.8313    9.0384  -19.7011 N   0  0  0  0  0  0  0  0  0  0  0  0
  -33.9701    6.1360  -17.4488 C   0  0  0  0  0  0  0  0  0  0  0  0
  -34.2733    6.3032  -14.9908 O   0  0  0  0  0  0  0  0  0  0  0  0
  -34.4081    8.4153  -14.8465 N   0  0  0  0  0  0  0  0  0  0  0  0
  -34.4294    7.2759  -14.1358 C   0  0  0  0  0  0  0  0  0  0  0  0
  -34.5889    7.1289  -12.6835 C   0  0  0  0  0  0  0  0  0  0  0  0
  -35.4911    7.8564  -10.6102 C   0  0  0  0  0  0  0  0  0  0  0  0
  -34.8023    6.9027   -9.9491 N   0  0  0  0  0  0  0  0  0  0  0  0
  -33.2246    5.0437   -9.8713 C   0  0  0  0  0  0  0  0  0  0  0  0
  -31.9396    5.0529  -10.1207 O   0  0  0  0  0  0  0  0  0  0  0  0
  -33.6485    4.0786   -8.9705 N   0  0  0  0  0  0  0  0  0  0  0  0
  -35.0502    4.0311   -8.5915 C   0  0  0  0  0  0  0  0  0  0  0  0
  -35.4883    2.5922   -8.3381 C   0  0  0  0  0  0  0  0  0  0  0  0
  -32.7826    3.1017   -8.3751 C   0  0  0  0  0  0  0  0  0  0  0  0
  -33.4090    2.5355   -7.1060 C   0  0  0  0  0  0  0  0  0  0  0  0
  -34.7284    2.0085   -7.2813 N   0  0  2  0  0  4  0  0  0  0  0  0
  -34.6819    0.5503   -7.3093 C   0  0  1  0  0  0  0  0  0  0  0  0
  -33.9296    0.0610   -6.0926 C   0  0  0  0  0  0  0  0  0  0  0  0
  -33.6249   -1.2357   -5.8758 N   0  0  0  0  0  0  0  0  0  0  0  0
  -33.4414    0.7366   -5.0541 N   0  0  0  0  0  0  0  0  0  0  0  0
  -32.8568   -0.1557   -4.2379 N   0  0  0  0  0  0  0  0  0  0  0  0
  -32.9696   -1.3670   -4.7392 N   0  0  0  0  0  0  0  0  0  0  0  0
  -32.4801   -2.5726   -4.1265 C   0  0  0  0  0  0  0  0  0  0  0  0
  -36.0093   -0.0938   -7.2781 C   0  0  0  0  0  0  0  0  0  0  0  0
  -36.6274   -0.4590   -6.0858 C   0  0  0  0  0  0  0  0  0  0  0  0
  -37.8762   -1.0241   -6.0802 C   0  0  0  0  0  0  0  0  0  0  0  0
  -38.5815   -1.2588   -7.2489 C   0  0  0  0  0  0  0  0  0  0  0  0
  -37.9493   -0.8887   -8.4197 C   0  0  0  0  0  0  0  0  0  0  0  0
  -36.6986   -0.3203   -8.4507 C   0  0  0  0  0  0  0  0  0  0  0  0
  2  1  2  0
 13  1  1  0
  3  2  1  0
  2 12  1  0
  4  3  2  0
  4  5  1  0
 15  4  1  0
  5 13  2  0
 14  5  1  0
 17  6  2  0
  6 18  1  0
  7  8  2  0
 17  7  1  0
  8 19  1  0
  8 20  1  0
  9 10  1  6
 10 11  2  0
 12 10  1  0
 16 14  1  0
 16 15  2  0
 16 17  1  0
 18 19  2  0
 20 21  2  0
 20 22  1  0
 23 22  1  1
 25 22  1  1
 24 23  1  1
 24 27  1  0
 26 25  1  1
 26 27  1  0
 27 28  1  6
 28 29  1  1
 28 35  1  0
 29 30  2  0
 29 31  1  0
 30 33  1  0
 31 32  2  0
 32 33  1  0
 34 33  1  6
 35 36  2  0
 35 40  1  0
 36 37  1  0
 37 38  2  0
 38 39  1  0
 39 40  2  0
M  CHG  1  27   1
M  END
$$$$
