
     RDKit          3D

 40 45  0  0  0  0  0  0  0  0999 V2000
   24.5445   56.4319   26.8938 C   0  0  0  0  0  0  0  0  0  0  0  0
   23.5438   57.3413   27.1491 C   0  0  0  0  0  0  0  0  0  0  0  0
   22.2686   57.0536   26.7258 C   0  0  0  0  0  0  0  0  0  0  0  0
   21.9783   55.8775   26.0549 C   0  0  0  0  0  0  0  0  0  0  0  0
   22.9865   54.9549   25.7942 C   0  0  0  0  0  0  0  0  0  0  0  0
   20.2819   53.0600   22.9454 C   0  0  0  0  0  0  0  0  0  0  0  0
   19.3333   52.4657   25.0219 C   0  0  0  0  0  0  0  0  0  0  0  0
   18.4647   51.5655   24.4360 C   0  0  0  0  0  0  0  0  0  0  0  0
   23.1158   60.3669   29.4111 C   0  0  0  0  0  0  0  0  0  0  0  0
   22.8593   59.0896   28.7209 C   0  0  0  0  0  0  0  0  0  0  0  0
   21.7754   58.4897   28.9229 O   0  0  0  0  0  0  0  0  0  0  0  0
   23.8343   58.5430   27.8329 N   0  0  0  0  0  0  0  0  0  0  0  0
   24.2731   55.2453   26.2214 C   0  0  0  0  0  0  0  0  0  0  0  0
   22.4352   53.9647   25.1633 O   0  0  0  0  0  0  0  0  0  0  0  0
   20.8636   55.3395   25.5367 N   0  0  0  0  0  0  0  0  0  0  0  0
   21.1362   54.1492   24.9791 C   0  0  0  0  0  0  0  0  0  0  0  0
   20.2376   53.2119   24.3001 C   0  0  0  0  0  0  0  0  0  0  0  0
   19.4071   52.1515   22.3420 C   0  0  0  0  0  0  0  0  0  0  0  0
   18.5316   51.4379   23.1058 N   0  0  0  0  0  0  0  0  0  0  0  0
   17.5780   50.8466   25.3125 C   0  0  0  0  0  0  0  0  0  0  0  0
   17.1726   51.4161   26.3778 O   0  0  0  0  0  0  0  0  0  0  0  0
   17.1450   49.5562   25.0451 N   0  0  0  0  0  0  0  0  0  0  0  0
   16.3844   48.8018   26.0077 C   0  0  0  0  0  0  0  0  0  0  0  0
   15.1005   48.2064   25.3988 C   0  0  0  0  0  0  0  0  0  0  0  0
   17.4256   48.8734   23.7739 C   0  0  0  0  0  0  0  0  0  0  0  0
   16.0248   48.4264   23.2901 C   0  0  0  0  0  0  0  0  0  0  0  0
   15.5300   47.4583   24.2404 N   0  0  2  0  0  4  0  0  0  0  0  0
   14.6345   46.4827   23.7430 C   0  0  1  0  0  0  0  0  0  0  0  0
   15.0123   46.0663   22.3631 C   0  0  0  0  0  0  0  0  0  0  0  0
   14.8735   44.7996   21.9058 N   0  0  0  0  0  0  0  0  0  0  0  0
   15.5284   46.7525   21.3480 N   0  0  0  0  0  0  0  0  0  0  0  0
   15.6881   45.9179   20.3274 N   0  0  0  0  0  0  0  0  0  0  0  0
   15.2939   44.7124   20.6424 N   0  0  0  0  0  0  0  0  0  0  0  0
   15.3132   43.5313   19.7995 C   0  0  0  0  0  0  0  0  0  0  0  0
   14.2986   45.3481   24.5952 C   0  0  0  0  0  0  0  0  0  0  0  0
   15.0130   44.1823   24.6977 C   0  0  0  0  0  0  0  0  0  0  0  0
   14.6353   43.1374   25.5181 C   0  0  0  0  0  0  0  0  0  0  0  0
   13.4995   43.2376   26.2789 C   0  0  0  0  0  0  0  0  0  0  0  0
   12.7383   44.3974   26.2138 C   0  0  0  0  0  0  0  0  0  0  0  0
   13.1469   45.3988   25.3936 C   0  0  0  0  0  0  0  0  0  0  0  0
  2  1  2  0
 13  1  1  0
  3  2  1  0
  2 12  1  0
  4  3  2  0
  4  5  1  0
 15  4  1  0
  5 13  2  0
 14  5  1  0
 17  6  2  0
  6 18  1  0
  7  8  2  0
 17  7  1  0
  8 19  1  0
  8 20  1  0
 10  9  1  0
 10 11  2  0
 12 10  1  0
 16 14  1  0
 16 15  2  0
 16 17  1  0
 18 19  2  0
 20 21  2  0
 20 22  1  0
 22 23  1  0
 22 25  1  0
 23 24  1  0
 27 24  1  1
 25 26  1  0
 26 27  1  0
 27 28  1  0
 28 29  1  6
 28 35  1  0
 29 30  2  0
 29 31  1  0
 30 33  1  0
 31 32  2  0
 32 33  1  0
 33 34  1  0
 35 36  2  0
 35 40  1  0
 36 37  1  0
 37 38  2  0
 38 39  1  0
 39 40  2  0
M  CHG  1  27   1
M  END
$$$$
