
     RDKit          3D

 40 45  0  0  0  0  0  0  0  0999 V2000
   22.7039   59.6528   27.0681 C   0  0  0  0  0  0  0  0  0  0  0  0
   21.4858   60.0568   26.5717 C   0  0  0  0  0  0  0  0  0  0  0  0
   20.6229   59.1034   26.0873 C   0  0  0  0  0  0  0  0  0  0  0  0
   20.9558   57.7593   26.0908 C   0  0  0  0  0  0  0  0  0  0  0  0
   22.1863   57.3457   26.5914 C   0  0  0  0  0  0  0  0  0  0  0  0
   21.7266   53.1904   26.0977 C   0  0  0  0  0  0  0  0  0  0  0  0
   19.7376   53.7647   24.9667 C   0  0  0  0  0  0  0  0  0  0  0  0
   19.4425   52.4441   24.6893 C   0  0  0  0  0  0  0  0  0  0  0  0
   21.7577   63.8068   26.0273 C   0  0  0  0  0  0  0  0  0  0  0  0
   22.1278   62.3894   26.1941 C   0  0  0  0  0  0  0  0  0  0  0  0
   23.3186   62.0399   26.0063 O   0  0  0  0  0  0  0  0  0  0  0  0
   21.1410   61.4269   26.5652 N   0  0  0  0  0  0  0  0  0  0  0  0
   23.0567   58.3078   27.0802 C   0  0  0  0  0  0  0  0  0  0  0  0
   22.2259   56.0548   26.4708 O   0  0  0  0  0  0  0  0  0  0  0  0
   20.3381   56.6351   25.6968 N   0  0  0  0  0  0  0  0  0  0  0  0
   21.1193   55.5683   25.9282 C   0  0  0  0  0  0  0  0  0  0  0  0
   20.8617   54.1507   25.6617 C   0  0  0  0  0  0  0  0  0  0  0  0
   21.4376   51.8505   25.8222 C   0  0  0  0  0  0  0  0  0  0  0  0
   20.3091   51.5248   25.1298 N   0  0  0  0  0  0  0  0  0  0  0  0
   18.2288   52.1840   23.9608 C   0  0  0  0  0  0  0  0  0  0  0  0
   17.6226   53.1596   23.4093 O   0  0  0  0  0  0  0  0  0  0  0  0
   17.6901   50.9121   23.8338 N   0  0  0  0  0  0  0  0  0  0  0  0
   18.3059   49.7673   24.4540 C   0  0  0  0  0  0  0  0  0  0  0  0
   17.3016   48.9411   25.2801 C   0  0  0  0  0  0  0  0  0  0  0  0
   16.4645   50.6432   23.0679 C   0  0  0  0  0  0  0  0  0  0  0  0
   15.5672   49.8902   24.0798 C   0  0  0  0  0  0  0  0  0  0  0  0
   16.2154   48.6349   24.3787 N   0  0  2  0  0  4  0  0  0  0  0  0
   15.3731   47.5567   24.7378 C   0  0  1  0  0  0  0  0  0  0  0  0
   14.8269   46.8807   23.5275 C   0  0  0  0  0  0  0  0  0  0  0  0
   13.5118   46.8821   23.2063 N   0  0  0  0  0  0  0  0  0  0  0  0
   15.4228   46.1790   22.5682 N   0  0  0  0  0  0  0  0  0  0  0  0
   14.4899   45.7808   21.7110 N   0  0  0  0  0  0  0  0  0  0  0  0
   13.3075   46.1987   22.0786 N   0  0  0  0  0  0  0  0  0  0  0  0
   12.0428   45.9656   21.4060 C   0  0  0  0  0  0  0  0  0  0  0  0
   15.8459   46.6087   25.7400 C   0  0  0  0  0  0  0  0  0  0  0  0
   15.6881   46.7302   27.0967 C   0  0  0  0  0  0  0  0  0  0  0  0
   16.1697   45.8000   27.9969 C   0  0  0  0  0  0  0  0  0  0  0  0
   16.8403   44.6924   27.5472 C   0  0  0  0  0  0  0  0  0  0  0  0
   17.0278   44.5194   26.1820 C   0  0  0  0  0  0  0  0  0  0  0  0
   16.5380   45.4589   25.3336 C   0  0  0  0  0  0  0  0  0  0  0  0
  2  1  2  0
 13  1  1  0
  3  2  1  0
  2 12  1  0
  4  3  2  0
  4  5  1  0
 15  4  1  0
  5 13  2  0
 14  5  1  0
 17  6  2  0
  6 18  1  0
  7  8  2  0
 17  7  1  0
  8 19  1  0
  8 20  1  0
 10  9  1  0
 10 11  2  0
 12 10  1  0
 16 14  1  0
 16 15  2  0
 16 17  1  0
 18 19  2  0
 20 21  2  0
 20 22  1  0
 22 23  1  0
 22 25  1  0
 23 24  1  0
 27 24  1  1
 25 26  1  0
 26 27  1  0
 27 28  1  0
 28 29  1  6
 28 35  1  0
 29 30  2  0
 29 31  1  0
 30 33  1  0
 31 32  2  0
 32 33  1  0
 33 34  1  0
 35 36  2  0
 35 40  1  0
 36 37  1  0
 37 38  2  0
 38 39  1  0
 39 40  2  0
M  CHG  1  27   1
M  END
$$$$
