
     RDKit          3D

 40 45  0  0  0  0  0  0  0  0999 V2000
   24.1053   56.4659   25.8527 C   0  0  0  0  0  0  0  0  0  0  0  0
   24.5399   55.6671   24.8199 C   0  0  0  0  0  0  0  0  0  0  0  0
   23.7439   54.6228   24.4150 C   0  0  0  0  0  0  0  0  0  0  0  0
   22.5264   54.3649   25.0224 C   0  0  0  0  0  0  0  0  0  0  0  0
   22.0826   55.1694   26.0671 C   0  0  0  0  0  0  0  0  0  0  0  0
   18.6167   52.9780   27.0684 C   0  0  0  0  0  0  0  0  0  0  0  0
   18.8348   52.0991   24.8901 C   0  0  0  0  0  0  0  0  0  0  0  0
   17.6649   51.3729   25.0007 C   0  0  0  0  0  0  0  0  0  0  0  0
   26.8983   56.0440   21.9448 C   0  0  0  0  0  0  0  0  0  0  0  0
   26.0562   55.3357   22.9262 C   0  0  0  0  0  0  0  0  0  0  0  0
   25.5851   54.2102   22.6316 O   0  0  0  0  0  0  0  0  0  0  0  0
   25.7813   55.9254   24.1969 N   0  0  0  0  0  0  0  0  0  0  0  0
   22.8858   56.2231   26.4754 C   0  0  0  0  0  0  0  0  0  0  0  0
   20.9306   54.7022   26.4373 O   0  0  0  0  0  0  0  0  0  0  0  0
   21.5632   53.4468   24.8488 N   0  0  0  0  0  0  0  0  0  0  0  0
   20.5654   53.6469   25.7241 C   0  0  0  0  0  0  0  0  0  0  0  0
   19.3190   52.8973   25.9020 C   0  0  0  0  0  0  0  0  0  0  0  0
   17.4313   52.2469   27.1910 C   0  0  0  0  0  0  0  0  0  0  0  0
   16.9978   51.4722   26.1562 N   0  0  0  0  0  0  0  0  0  0  0  0
   17.2727   50.5865   23.8609 C   0  0  0  0  0  0  0  0  0  0  0  0
   17.7473   50.8847   22.7165 O   0  0  0  0  0  0  0  0  0  0  0  0
   16.3974   49.5147   23.9564 N   0  0  0  0  0  0  0  0  0  0  0  0
   16.2887   48.5346   22.9068 C   0  0  0  0  0  0  0  0  0  0  0  0
   16.4119   47.0941   23.4391 C   0  0  0  0  0  0  0  0  0  0  0  0
   15.5289   49.3022   25.1232 C   0  0  0  0  0  0  0  0  0  0  0  0
   15.8534   47.8507   25.5522 C   0  0  0  0  0  0  0  0  0  0  0  0
   15.4217   46.9797   24.4844 N   0  0  2  0  0  4  0  0  0  0  0  0
   15.0315   45.6710   24.8530 C   0  0  1  0  0  0  0  0  0  0  0  0
   13.8045   45.6984   25.6979 C   0  0  0  0  0  0  0  0  0  0  0  0
   12.8471   44.7425   25.6478 N   0  0  0  0  0  0  0  0  0  0  0  0
   13.3827   46.5717   26.6073 N   0  0  0  0  0  0  0  0  0  0  0  0
   12.2163   46.1443   27.0769 N   0  0  0  0  0  0  0  0  0  0  0  0
   11.8639   45.0233   26.5051 N   0  0  0  0  0  0  0  0  0  0  0  0
   10.6592   44.2515   26.7482 C   0  0  0  0  0  0  0  0  0  0  0  0
   14.9727   44.6453   23.8181 C   0  0  0  0  0  0  0  0  0  0  0  0
   14.3723   44.7758   22.5923 C   0  0  0  0  0  0  0  0  0  0  0  0
   14.3417   43.7601   21.6569 C   0  0  0  0  0  0  0  0  0  0  0  0
   14.9296   42.5534   21.9341 C   0  0  0  0  0  0  0  0  0  0  0  0
   15.5527   42.3672   23.1613 C   0  0  0  0  0  0  0  0  0  0  0  0
   15.5583   43.3926   24.0506 C   0  0  0  0  0  0  0  0  0  0  0  0
  2  1  2  0
 13  1  1  0
  3  2  1  0
  2 12  1  0
  4  3  2  0
  4  5  1  0
 15  4  1  0
  5 13  2  0
 14  5  1  0
 17  6  2  0
  6 18  1  0
  7  8  2  0
 17  7  1  0
  8 19  1  0
  8 20  1  0
 10  9  1  0
 10 11  2  0
 12 10  1  0
 16 14  1  0
 16 15  2  0
 16 17  1  0
 18 19  2  0
 20 21  2  0
 20 22  1  0
 22 23  1  0
 22 25  1  0
 23 24  1  0
 27 24  1  6
 25 26  1  0
 26 27  1  0
 27 28  1  0
 28 29  1  6
 28 35  1  0
 29 30  2  0
 29 31  1  0
 30 33  1  0
 31 32  2  0
 32 33  1  0
 33 34  1  0
 35 36  2  0
 35 40  1  0
 36 37  1  0
 37 38  2  0
 38 39  1  0
 39 40  2  0
M  CHG  1  27   1
M  END
$$$$
