
     RDKit          3D

 40 45  0  0  0  0  0  0  0  0999 V2000
    7.9040  -20.1214  -35.5121 C   0  0  0  0  0  0  0  0  0  0  0  0
    6.6051  -20.0478  -35.9604 C   0  0  0  0  0  0  0  0  0  0  0  0
    5.9524  -18.8405  -35.8927 C   0  0  0  0  0  0  0  0  0  0  0  0
    6.5734  -17.7109  -35.3870 C   0  0  0  0  0  0  0  0  0  0  0  0
    7.8865  -17.7801  -34.9324 C   0  0  0  0  0  0  0  0  0  0  0  0
    8.2589  -13.5066  -34.7446 C   0  0  0  0  0  0  0  0  0  0  0  0
    6.2888  -13.7727  -33.4747 C   0  0  0  0  0  0  0  0  0  0  0  0
    6.2829  -12.4449  -33.0936 C   0  0  0  0  0  0  0  0  0  0  0  0
    3.9350  -22.6777  -36.6010 C   0  0  0  0  0  0  0  0  0  0  0  0
    4.6217  -21.4779  -36.0884 C   0  0  0  0  0  0  0  0  0  0  0  0
    4.0110  -20.7079  -35.3076 O   0  0  0  0  0  0  0  0  0  0  0  0
    5.9663  -21.1972  -36.4770 N   0  0  0  0  0  0  0  0  0  0  0  0
    8.5450  -18.9982  -35.0007 C   0  0  0  0  0  0  0  0  0  0  0  0
    8.2043  -16.5917  -34.5209 O   0  0  0  0  0  0  0  0  0  0  0  0
    6.2014  -16.4350  -35.2014 N   0  0  0  0  0  0  0  0  0  0  0  0
    7.2084  -15.7295  -34.6627 C   0  0  0  0  0  0  0  0  0  0  0  0
    7.2574  -14.3133  -34.2901 C   0  0  0  0  0  0  0  0  0  0  0  0
    8.2627  -12.1610  -34.3649 C   0  0  0  0  0  0  0  0  0  0  0  0
    7.2776  -11.6783  -33.5552 N   0  0  0  0  0  0  0  0  0  0  0  0
    5.2044  -12.0128  -32.2442 C   0  0  0  0  0  0  0  0  0  0  0  0
    4.9101  -12.7131  -31.2212 O   0  0  0  0  0  0  0  0  0  0  0  0
    4.4702  -10.8626  -32.4935 N   0  0  0  0  0  0  0  0  0  0  0  0
    3.2233  -10.6039  -31.8207 C   0  0  0  0  0  0  0  0  0  0  0  0
    3.1827   -9.1998  -31.1878 C   0  0  0  0  0  0  0  0  0  0  0  0
    4.9071   -9.8348  -33.4493 C   0  0  0  0  0  0  0  0  0  0  0  0
    4.8766   -8.5320  -32.6140 C   0  0  0  0  0  0  0  0  0  0  0  0
    3.5000   -8.2819  -32.2568 N   0  0  2  0  0  4  0  0  0  0  0  0
    3.1302   -6.9298  -32.0675 C   0  0  1  0  0  0  0  0  0  0  0  0
    3.4873   -6.1076  -33.2577 C   0  0  0  0  0  0  0  0  0  0  0  0
    4.1318   -4.9200  -33.1733 N   0  0  0  0  0  0  0  0  0  0  0  0
    3.2818   -6.3051  -34.5563 N   0  0  0  0  0  0  0  0  0  0  0  0
    3.7884   -5.2688  -35.2144 N   0  0  0  0  0  0  0  0  0  0  0  0
    4.3165   -4.4035  -34.3897 N   0  0  0  0  0  0  0  0  0  0  0  0
    4.9621   -3.1478  -34.7253 C   0  0  0  0  0  0  0  0  0  0  0  0
    1.7908   -6.6381  -31.5701 C   0  0  0  0  0  0  0  0  0  0  0  0
    1.4788   -6.2230  -30.3011 C   0  0  0  0  0  0  0  0  0  0  0  0
    0.1851   -5.9726  -29.8876 C   0  0  0  0  0  0  0  0  0  0  0  0
   -0.8588   -6.1360  -30.7608 C   0  0  0  0  0  0  0  0  0  0  0  0
   -0.5991   -6.5543  -32.0594 C   0  0  0  0  0  0  0  0  0  0  0  0
    0.6875   -6.7892  -32.4224 C   0  0  0  0  0  0  0  0  0  0  0  0
  2  1  2  0
 13  1  1  0
  3  2  1  0
  2 12  1  0
  4  3  2  0
  4  5  1  0
 15  4  1  0
  5 13  2  0
 14  5  1  0
 17  6  2  0
  6 18  1  0
  7  8  2  0
 17  7  1  0
  8 19  1  0
  8 20  1  0
 10  9  1  0
 10 11  2  0
 12 10  1  0
 16 14  1  0
 16 15  2  0
 16 17  1  0
 18 19  2  0
 20 21  2  0
 20 22  1  0
 22 23  1  0
 22 25  1  0
 23 24  1  0
 27 24  1  1
 25 26  1  0
 26 27  1  0
 27 28  1  0
 28 29  1  6
 28 35  1  0
 29 30  2  0
 29 31  1  0
 30 33  1  0
 31 32  2  0
 32 33  1  0
 33 34  1  0
 35 36  2  0
 35 40  1  0
 36 37  1  0
 37 38  2  0
 38 39  1  0
 39 40  2  0
M  CHG  1  27   1
M  END
$$$$
