
     RDKit          3D

 40 45  0  0  0  0  0  0  0  0999 V2000
   17.8990   54.3078   32.2556 C   0  0  0  0  0  0  0  0  0  0  0  0
   16.8408   53.4358   32.1399 C   0  0  0  0  0  0  0  0  0  0  0  0
   16.7420   52.6668   31.0054 C   0  0  0  0  0  0  0  0  0  0  0  0
   17.6788   52.7545   29.9894 C   0  0  0  0  0  0  0  0  0  0  0  0
   18.7504   53.6347   30.1015 C   0  0  0  0  0  0  0  0  0  0  0  0
   20.7359   52.6966   26.5090 C   0  0  0  0  0  0  0  0  0  0  0  0
   18.8047   51.4299   26.0287 C   0  0  0  0  0  0  0  0  0  0  0  0
   19.2884   51.0488   24.7923 C   0  0  0  0  0  0  0  0  0  0  0  0
   13.4204   53.3398   33.6975 C   0  0  0  0  0  0  0  0  0  0  0  0
   14.5551   52.9235   32.8532 C   0  0  0  0  0  0  0  0  0  0  0  0
   14.3410   52.1979   31.8516 O   0  0  0  0  0  0  0  0  0  0  0  0
   15.8818   53.3423   33.1732 N   0  0  0  0  0  0  0  0  0  0  0  0
   18.8501   54.4105   31.2463 C   0  0  0  0  0  0  0  0  0  0  0  0
   19.4556   53.5071   29.0203 O   0  0  0  0  0  0  0  0  0  0  0  0
   17.8399   52.1501   28.8023 N   0  0  0  0  0  0  0  0  0  0  0  0
   18.9423   52.6109   28.1904 C   0  0  0  0  0  0  0  0  0  0  0  0
   19.5071   52.2433   26.8893 C   0  0  0  0  0  0  0  0  0  0  0  0
   21.2352   52.3170   25.2594 C   0  0  0  0  0  0  0  0  0  0  0  0
   20.4965   51.5087   24.4469 N   0  0  0  0  0  0  0  0  0  0  0  0
   18.4509   50.1884   23.9988 C   0  0  0  0  0  0  0  0  0  0  0  0
   17.4011   49.6960   24.5272 O   0  0  0  0  0  0  0  0  0  0  0  0
   18.7396   49.8720   22.6795 N   0  0  0  0  0  0  0  0  0  0  0  0
   17.8432   49.0753   21.8820 C   0  0  0  0  0  0  0  0  0  0  0  0
   17.5249   49.7357   20.5270 C   0  0  0  0  0  0  0  0  0  0  0  0
   19.9658   50.3235   22.0062 C   0  0  0  0  0  0  0  0  0  0  0  0
   19.4378   51.0201   20.7287 C   0  0  0  0  0  0  0  0  0  0  0  0
   18.8054   50.0074   19.9165 N   0  0  2  0  0  4  0  0  0  0  0  0
   18.8129   50.2209   18.5181 C   0  0  1  0  0  0  0  0  0  0  0  0
   20.1970   50.1350   17.9730 C   0  0  0  0  0  0  0  0  0  0  0  0
   21.0321   49.1003   18.2272 N   0  0  0  0  0  0  0  0  0  0  0  0
   20.8873   50.9610   17.1927 N   0  0  0  0  0  0  0  0  0  0  0  0
   22.0884   50.4304   16.9942 N   0  0  0  0  0  0  0  0  0  0  0  0
   22.2042   49.2878   17.6178 N   0  0  0  0  0  0  0  0  0  0  0  0
   23.3616   48.4126   17.6446 C   0  0  0  0  0  0  0  0  0  0  0  0
   17.8457   49.4995   17.6992 C   0  0  0  0  0  0  0  0  0  0  0  0
   16.5931   49.9423   17.3598 C   0  0  0  0  0  0  0  0  0  0  0  0
   15.7176   49.2047   16.5872 C   0  0  0  0  0  0  0  0  0  0  0  0
   16.0860   47.9694   16.1213 C   0  0  0  0  0  0  0  0  0  0  0  0
   17.3445   47.4726   16.4350 C   0  0  0  0  0  0  0  0  0  0  0  0
   18.1722   48.2314   17.1975 C   0  0  0  0  0  0  0  0  0  0  0  0
  2  1  2  0
 13  1  1  0
  3  2  1  0
  2 12  1  0
  4  3  2  0
  4  5  1  0
 15  4  1  0
  5 13  2  0
 14  5  1  0
 17  6  2  0
  6 18  1  0
  7  8  2  0
 17  7  1  0
  8 19  1  0
  8 20  1  0
 10  9  1  0
 10 11  2  0
 12 10  1  0
 16 14  1  0
 16 15  2  0
 16 17  1  0
 18 19  2  0
 20 21  2  0
 20 22  1  0
 22 23  1  0
 22 25  1  0
 23 24  1  0
 27 24  1  1
 25 26  1  0
 26 27  1  0
 27 28  1  0
 28 29  1  6
 28 35  1  0
 29 30  2  0
 29 31  1  0
 30 33  1  0
 31 32  2  0
 32 33  1  0
 33 34  1  0
 35 36  2  0
 35 40  1  0
 36 37  1  0
 37 38  2  0
 38 39  1  0
 39 40  2  0
M  CHG  1  27   1
M  END
$$$$
