
     RDKit          3D

 40 45  0  0  0  0  0  0  0  0999 V2000
   24.1582   57.1763   26.3308 C   0  0  0  0  0  0  0  0  0  0  0  0
   24.7925   56.2986   25.4820 C   0  0  0  0  0  0  0  0  0  0  0  0
   24.0981   55.2031   25.0282 C   0  0  0  0  0  0  0  0  0  0  0  0
   22.7864   54.9715   25.4069 C   0  0  0  0  0  0  0  0  0  0  0  0
   22.1406   55.8560   26.2650 C   0  0  0  0  0  0  0  0  0  0  0  0
   18.4291   53.8940   26.5592 C   0  0  0  0  0  0  0  0  0  0  0  0
   19.3382   52.3981   24.9778 C   0  0  0  0  0  0  0  0  0  0  0  0
   18.1807   51.6452   24.9347 C   0  0  0  0  0  0  0  0  0  0  0  0
   27.8974   56.3296   23.3113 C   0  0  0  0  0  0  0  0  0  0  0  0
   26.6379   55.8759   23.9290 C   0  0  0  0  0  0  0  0  0  0  0  0
   26.0181   54.9100   23.4208 O   0  0  0  0  0  0  0  0  0  0  0  0
   26.1307   56.5295   25.0925 N   0  0  0  0  0  0  0  0  0  0  0  0
   22.8413   56.9613   26.7228 C   0  0  0  0  0  0  0  0  0  0  0  0
   20.9411   55.3963   26.4446 O   0  0  0  0  0  0  0  0  0  0  0  0
   21.8818   54.0186   25.1345 N   0  0  0  0  0  0  0  0  0  0  0  0
   20.7299   54.2726   25.7751 C   0  0  0  0  0  0  0  0  0  0  0  0
   19.4774   53.5121   25.7747 C   0  0  0  0  0  0  0  0  0  0  0  0
   17.2528   53.1390   26.5234 C   0  0  0  0  0  0  0  0  0  0  0  0
   17.1697   52.0443   25.7148 N   0  0  0  0  0  0  0  0  0  0  0  0
   18.1712   50.5101   24.0500 C   0  0  0  0  0  0  0  0  0  0  0  0
   18.8687   50.5560   22.9846 O   0  0  0  0  0  0  0  0  0  0  0  0
   17.4324   49.3651   24.3094 N   0  0  0  0  0  0  0  0  0  0  0  0
   16.2906   49.3876   25.1869 C   0  0  0  0  0  0  0  0  0  0  0  0
   15.0473   48.7452   24.5426 C   0  0  0  0  0  0  0  0  0  0  0  0
   17.7557   48.0610   23.7129 C   0  0  0  0  0  0  0  0  0  0  0  0
   16.4226   47.6262   23.0572 C   0  0  0  0  0  0  0  0  0  0  0  0
   15.4648   47.4287   24.1197 N   0  0  2  0  0  4  0  0  0  0  0  0
   14.4421   46.4807   23.8825 C   0  0  1  0  0  0  0  0  0  0  0  0
   13.9076   46.6080   22.4976 C   0  0  0  0  0  0  0  0  0  0  0  0
   12.5879   46.5445   22.2024 N   0  0  0  0  0  0  0  0  0  0  0  0
   14.5206   46.7895   21.3318 N   0  0  0  0  0  0  0  0  0  0  0  0
   13.5931   46.8314   20.3824 N   0  0  0  0  0  0  0  0  0  0  0  0
   12.3976   46.6837   20.8891 N   0  0  0  0  0  0  0  0  0  0  0  0
   11.1342   46.6701   20.1752 C   0  0  0  0  0  0  0  0  0  0  0  0
   14.6783   45.0929   24.2633 C   0  0  0  0  0  0  0  0  0  0  0  0
   14.3702   44.5298   25.4749 C   0  0  0  0  0  0  0  0  0  0  0  0
   14.6296   43.2076   25.7784 C   0  0  0  0  0  0  0  0  0  0  0  0
   15.2208   42.3927   24.8482 C   0  0  0  0  0  0  0  0  0  0  0  0
   15.5534   42.9119   23.6037 C   0  0  0  0  0  0  0  0  0  0  0  0
   15.2806   44.2169   23.3489 C   0  0  0  0  0  0  0  0  0  0  0  0
  2  1  2  0
 13  1  1  0
  3  2  1  0
  2 12  1  0
  4  3  2  0
  4  5  1  0
 15  4  1  0
  5 13  2  0
 14  5  1  0
 17  6  2  0
  6 18  1  0
  7  8  2  0
 17  7  1  0
  8 19  1  0
  8 20  1  0
 10  9  1  0
 10 11  2  0
 12 10  1  0
 16 14  1  0
 16 15  2  0
 16 17  1  0
 18 19  2  0
 20 21  2  0
 20 22  1  0
 22 23  1  0
 22 25  1  0
 23 24  1  0
 27 24  1  6
 25 26  1  0
 26 27  1  0
 27 28  1  0
 28 29  1  6
 28 35  1  0
 29 30  2  0
 29 31  1  0
 30 33  1  0
 31 32  2  0
 32 33  1  0
 33 34  1  0
 35 36  2  0
 35 40  1  0
 36 37  1  0
 37 38  2  0
 38 39  1  0
 39 40  2  0
M  CHG  1  27   1
M  END
$$$$
