
     RDKit          3D

 40 45  0  0  0  0  0  0  0  0999 V2000
   14.2206   41.1952   20.4107 C   0  0  0  0  0  0  0  0  0  0  0  0
   14.6389   41.9828   19.3569 C   0  0  0  0  0  0  0  0  0  0  0  0
   14.9917   43.3079   19.5590 C   0  0  0  0  0  0  0  0  0  0  0  0
   14.9252   43.8509   20.8335 C   0  0  0  0  0  0  0  0  0  0  0  0
   14.5124   43.0659   21.8686 C   0  0  0  0  0  0  0  0  0  0  0  0
   14.7424   45.9879   24.9564 C   0  0  0  0  0  0  0  0  0  0  0  0
   15.5936   47.3800   23.2525 C   0  0  0  0  0  0  0  0  0  0  0  0
   15.7087   48.4555   24.1371 C   0  0  0  0  0  0  0  0  0  0  0  0
   14.8618   39.4537   16.4693 C   0  0  0  0  0  0  0  0  0  0  0  0
   14.5985   40.0508   17.8069 C   0  0  0  0  0  0  0  0  0  0  0  0
   14.2378   39.2872   18.7658 O   0  0  0  0  0  0  0  0  0  0  0  0
   14.7352   41.4414   18.0457 N   0  0  0  0  0  0  0  0  0  0  0  0
   14.1629   41.7524   21.6640 C   0  0  0  0  0  0  0  0  0  0  0  0
   14.5505   43.8378   22.9536 O   0  0  0  0  0  0  0  0  0  0  0  0
   15.1921   45.0692   21.3499 N   0  0  0  0  0  0  0  0  0  0  0  0
   14.9549   45.0455   22.6716 C   0  0  0  0  0  0  0  0  0  0  0  0
   15.1170   46.1455   23.6307 C   0  0  0  0  0  0  0  0  0  0  0  0
   14.8636   47.0525   25.8112 C   0  0  0  0  0  0  0  0  0  0  0  0
   15.3356   48.2462   25.3950 N   0  0  0  0  0  0  0  0  0  0  0  0
   16.1772   49.7500   23.6683 C   0  0  0  0  0  0  0  0  0  0  0  0
   15.5225   50.2497   22.6508 O   0  0  0  0  0  0  0  0  0  0  0  0
   17.2194   50.5300   24.1456 N   0  0  0  0  0  0  0  0  0  0  0  0
   17.9005   51.4349   23.2356 C   0  0  0  0  0  0  0  0  0  0  0  0
   18.3521   52.6934   23.9696 C   0  0  0  0  0  0  0  0  0  0  0  0
   17.6814   50.5075   25.5037 C   0  0  0  0  0  0  0  0  0  0  0  0
   19.0964   51.0669   25.5960 C   0  0  0  0  0  0  0  0  0  0  0  0
   19.2564   52.3695   25.0242 N   0  0  2  0  0  4  0  0  0  0  0  0
   19.3290   53.3717   26.0823 C   0  0  1  0  0  0  0  0  0  0  0  0
   19.0489   52.7038   27.4094 C   0  0  0  0  0  0  0  0  0  0  0  0
   18.2922   53.2593   28.3789 N   0  0  0  0  0  0  0  0  0  0  0  0
   19.4485   51.5236   27.8795 N   0  0  0  0  0  0  0  0  0  0  0  0
   18.9307   51.3899   29.1117 N   0  0  0  0  0  0  0  0  0  0  0  0
   18.2221   52.4545   29.4210 N   0  0  0  0  0  0  0  0  0  0  0  0
   17.5394   52.6689   30.6686 C   0  0  0  0  0  0  0  0  0  0  0  0
   20.6473   54.0240   26.2026 C   0  0  0  0  0  0  0  0  0  0  0  0
   21.8347   53.2983   26.2088 C   0  0  0  0  0  0  0  0  0  0  0  0
   23.0493   53.9292   26.2863 C   0  0  0  0  0  0  0  0  0  0  0  0
   23.1574   55.3080   26.3612 C   0  0  0  0  0  0  0  0  0  0  0  0
   21.9668   56.0077   26.3533 C   0  0  0  0  0  0  0  0  0  0  0  0
   20.7377   55.3980   26.2760 C   0  0  0  0  0  0  0  0  0  0  0  0
  2  1  2  0
 13  1  1  0
  3  2  1  0
  2 12  1  0
  4  3  2  0
  4  5  1  0
 15  4  1  0
  5 13  2  0
 14  5  1  0
 17  6  2  0
  6 18  1  0
  7  8  2  0
 17  7  1  0
  8 19  1  0
  8 20  1  0
  9 10  1  6
 10 11  2  0
 12 10  1  0
 16 14  1  0
 16 15  2  0
 16 17  1  0
 18 19  2  0
 20 21  2  0
 20 22  1  0
 23 22  1  1
 25 22  1  1
 24 23  1  1
 24 27  1  0
 26 25  1  1
 26 27  1  0
 27 28  1  1
 28 29  1  1
 28 35  1  0
 29 30  2  0
 29 31  1  0
 30 33  1  0
 31 32  2  0
 32 33  1  0
 34 33  1  6
 35 36  2  0
 35 40  1  0
 36 37  1  0
 37 38  2  0
 38 39  1  0
 39 40  2  0
M  CHG  1  27   1
M  END
$$$$
