
     RDKit          3D

 40 45  0  0  0  0  0  0  0  0999 V2000
   24.1825   52.4854   17.8189 C   0  0  0  0  0  0  0  0  0  0  0  0
   24.5311   53.7372   18.2716 C   0  0  0  0  0  0  0  0  0  0  0  0
   23.7619   54.3221   19.2486 C   0  0  0  0  0  0  0  0  0  0  0  0
   22.6554   53.6795   19.7781 C   0  0  0  0  0  0  0  0  0  0  0  0
   22.2987   52.4139   19.3236 C   0  0  0  0  0  0  0  0  0  0  0  0
   19.2325   53.9862   22.4052 C   0  0  0  0  0  0  0  0  0  0  0  0
   19.0585   51.6846   21.9181 C   0  0  0  0  0  0  0  0  0  0  0  0
   17.9609   51.5313   22.7427 C   0  0  0  0  0  0  0  0  0  0  0  0
   28.0511   54.2161   16.9749 C   0  0  0  0  0  0  0  0  0  0  0  0
   26.7174   53.6203   17.1753 C   0  0  0  0  0  0  0  0  0  0  0  0
   26.5244   52.4238   16.8489 O   0  0  0  0  0  0  0  0  0  0  0  0
   25.6587   54.3976   17.7348 N   0  0  0  0  0  0  0  0  0  0  0  0
   23.0749   51.8239   18.3379 C   0  0  0  0  0  0  0  0  0  0  0  0
   21.2401   52.0620   19.9854 O   0  0  0  0  0  0  0  0  0  0  0  0
   21.7428   53.9907   20.7114 N   0  0  0  0  0  0  0  0  0  0  0  0
   20.8570   52.9914   20.8485 C   0  0  0  0  0  0  0  0  0  0  0  0
   19.6984   52.8905   21.7398 C   0  0  0  0  0  0  0  0  0  0  0  0
   18.1222   53.8422   23.2426 C   0  0  0  0  0  0  0  0  0  0  0  0
   17.5267   52.6236   23.3818 N   0  0  0  0  0  0  0  0  0  0  0  0
   17.3861   50.2146   22.8288 C   0  0  0  0  0  0  0  0  0  0  0  0
   17.6639   49.3629   21.9227 O   0  0  0  0  0  0  0  0  0  0  0  0
   16.5402   49.8332   23.8598 N   0  0  0  0  0  0  0  0  0  0  0  0
   16.0344   48.4885   23.9613 C   0  0  0  0  0  0  0  0  0  0  0  0
   16.2553   47.8866   25.3622 C   0  0  0  0  0  0  0  0  0  0  0  0
   16.1052   50.7619   24.9130 C   0  0  0  0  0  0  0  0  0  0  0  0
   16.4801   50.0227   26.2203 C   0  0  0  0  0  0  0  0  0  0  0  0
   15.6702   48.8291   26.2871 N   0  0  2  0  0  4  0  0  0  0  0  0
   15.3600   48.3456   27.5798 C   0  0  1  0  0  0  0  0  0  0  0  0
   14.0096   48.8044   28.0110 C   0  0  0  0  0  0  0  0  0  0  0  0
   13.2118   48.0895   28.8387 N   0  0  0  0  0  0  0  0  0  0  0  0
   13.3207   49.9040   27.7211 N   0  0  0  0  0  0  0  0  0  0  0  0
   12.1565   49.8385   28.3567 N   0  0  0  0  0  0  0  0  0  0  0  0
   12.0634   48.7350   29.0504 N   0  0  0  0  0  0  0  0  0  0  0  0
   10.9478   48.3028   29.8718 C   0  0  0  0  0  0  0  0  0  0  0  0
   15.5871   46.9341   27.8674 C   0  0  0  0  0  0  0  0  0  0  0  0
   16.6252   46.4219   28.6023 C   0  0  0  0  0  0  0  0  0  0  0  0
   16.7908   45.0699   28.8307 C   0  0  0  0  0  0  0  0  0  0  0  0
   15.8941   44.1712   28.3140 C   0  0  0  0  0  0  0  0  0  0  0  0
   14.8230   44.6361   27.5620 C   0  0  0  0  0  0  0  0  0  0  0  0
   14.6996   45.9730   27.3624 C   0  0  0  0  0  0  0  0  0  0  0  0
  2  1  2  0
 13  1  1  0
  3  2  1  0
  2 12  1  0
  4  3  2  0
  4  5  1  0
 15  4  1  0
  5 13  2  0
 14  5  1  0
 17  6  2  0
  6 18  1  0
  7  8  2  0
 17  7  1  0
  8 19  1  0
  8 20  1  0
 10  9  1  0
 10 11  2  0
 12 10  1  0
 16 14  1  0
 16 15  2  0
 16 17  1  0
 18 19  2  0
 20 21  2  0
 20 22  1  0
 22 23  1  0
 22 25  1  0
 23 24  1  0
 27 24  1  6
 25 26  1  0
 26 27  1  0
 27 28  1  0
 28 29  1  6
 28 35  1  0
 29 30  2  0
 29 31  1  0
 30 33  1  0
 31 32  2  0
 32 33  1  0
 33 34  1  0
 35 36  2  0
 35 40  1  0
 36 37  1  0
 37 38  2  0
 38 39  1  0
 39 40  2  0
M  CHG  1  27   1
M  END
$$$$
