
     RDKit          3D

 40 45  0  0  0  0  0  0  0  0999 V2000
    4.1105   -8.0070  -27.9731 C   0  0  0  0  0  0  0  0  0  0  0  0
    3.5124   -7.0887  -28.8053 C   0  0  0  0  0  0  0  0  0  0  0  0
    3.4949   -7.3377  -30.1565 C   0  0  0  0  0  0  0  0  0  0  0  0
    4.0624   -8.4839  -30.6872 C   0  0  0  0  0  0  0  0  0  0  0  0
    4.6683   -9.4154  -29.8501 C   0  0  0  0  0  0  0  0  0  0  0  0
    6.4856  -11.0847  -33.4678 C   0  0  0  0  0  0  0  0  0  0  0  0
    4.2674  -11.8827  -33.5559 C   0  0  0  0  0  0  0  0  0  0  0  0
    4.5562  -12.7493  -34.5921 C   0  0  0  0  0  0  0  0  0  0  0  0
    0.8993   -4.4572  -28.0069 C   0  0  0  0  0  0  0  0  0  0  0  0
    1.6391   -5.5143  -28.7204 C   0  0  0  0  0  0  0  0  0  0  0  0
    1.1194   -6.0544  -29.7272 O   0  0  0  0  0  0  0  0  0  0  0  0
    2.9322   -5.9174  -28.2694 N   0  0  0  0  0  0  0  0  0  0  0  0
    4.6860   -9.1641  -28.4868 C   0  0  0  0  0  0  0  0  0  0  0  0
    5.1063  -10.3725  -30.6082 O   0  0  0  0  0  0  0  0  0  0  0  0
    4.1944   -8.9827  -31.9260 N   0  0  0  0  0  0  0  0  0  0  0  0
    4.8427  -10.1575  -31.8888 C   0  0  0  0  0  0  0  0  0  0  0  0
    5.2090  -11.0537  -32.9887 C   0  0  0  0  0  0  0  0  0  0  0  0
    6.7888  -11.9581  -34.5166 C   0  0  0  0  0  0  0  0  0  0  0  0
    5.8167  -12.7577  -35.0407 N   0  0  0  0  0  0  0  0  0  0  0  0
    3.4766  -13.5644  -35.0835 C   0  0  0  0  0  0  0  0  0  0  0  0
    2.3106  -13.3973  -34.5975 O   0  0  0  0  0  0  0  0  0  0  0  0
    3.6529  -14.5267  -36.0669 N   0  0  0  0  0  0  0  0  0  0  0  0
    2.5741  -15.3851  -36.4834 C   0  0  0  0  0  0  0  0  0  0  0  0
    2.3975  -15.3987  -38.0139 C   0  0  0  0  0  0  0  0  0  0  0  0
    4.9379  -14.7365  -36.7492 C   0  0  0  0  0  0  0  0  0  0  0  0
    4.5683  -14.6358  -38.2490 C   0  0  0  0  0  0  0  0  0  0  0  0
    3.6929  -15.7435  -38.5518 N   0  0  2  0  0  4  0  0  0  0  0  0
    3.7232  -16.2304  -39.8796 C   0  0  1  0  0  0  0  0  0  0  0  0
    5.1192  -16.2783  -40.3982 C   0  0  0  0  0  0  0  0  0  0  0  0
    5.4263  -16.1817  -41.7132 N   0  0  0  0  0  0  0  0  0  0  0  0
    6.2847  -16.4184  -39.7739 N   0  0  0  0  0  0  0  0  0  0  0  0
    7.2456  -16.4047  -40.6905 N   0  0  0  0  0  0  0  0  0  0  0  0
    6.7466  -16.2605  -41.8897 N   0  0  0  0  0  0  0  0  0  0  0  0
    7.4731  -16.2025  -43.1446 C   0  0  0  0  0  0  0  0  0  0  0  0
    2.9698  -17.4385  -40.1947 C   0  0  0  0  0  0  0  0  0  0  0  0
    3.2209  -18.6926  -39.7002 C   0  0  0  0  0  0  0  0  0  0  0  0
    2.4746  -19.8018  -40.0468 C   0  0  0  0  0  0  0  0  0  0  0  0
    1.4273  -19.6787  -40.9224 C   0  0  0  0  0  0  0  0  0  0  0  0
    1.1287  -18.4306  -41.4533 C   0  0  0  0  0  0  0  0  0  0  0  0
    1.8889  -17.3680  -41.0852 C   0  0  0  0  0  0  0  0  0  0  0  0
  2  1  2  0
 13  1  1  0
  3  2  1  0
  2 12  1  0
  4  3  2  0
  4  5  1  0
 15  4  1  0
  5 13  2  0
 14  5  1  0
 17  6  2  0
  6 18  1  0
  7  8  2  0
 17  7  1  0
  8 19  1  0
  8 20  1  0
 10  9  1  0
 10 11  2  0
 12 10  1  0
 16 14  1  0
 16 15  2  0
 16 17  1  0
 18 19  2  0
 20 21  2  0
 20 22  1  0
 22 23  1  0
 22 25  1  0
 23 24  1  0
 27 24  1  6
 25 26  1  0
 26 27  1  0
 27 28  1  0
 28 29  1  1
 28 35  1  0
 29 30  2  0
 29 31  1  0
 30 33  1  0
 31 32  2  0
 32 33  1  0
 33 34  1  0
 35 36  2  0
 35 40  1  0
 36 37  1  0
 37 38  2  0
 38 39  1  0
 39 40  2  0
M  CHG  1  27   1
M  END
$$$$
