
     RDKit          3D

 40 45  0  0  0  0  0  0  0  0999 V2000
   21.6720   54.3481   28.9323 C   0  0  0  0  0  0  0  0  0  0  0  0
   21.8346   54.4655   27.5710 C   0  0  0  0  0  0  0  0  0  0  0  0
   21.0153   53.7351   26.7444 C   0  0  0  0  0  0  0  0  0  0  0  0
   20.0406   52.8934   27.2534 C   0  0  0  0  0  0  0  0  0  0  0  0
   19.8723   52.7710   28.6290 C   0  0  0  0  0  0  0  0  0  0  0  0
   16.9814   49.6939   28.5921 C   0  0  0  0  0  0  0  0  0  0  0  0
   16.5876   50.4223   26.3832 C   0  0  0  0  0  0  0  0  0  0  0  0
   15.5409   49.5369   26.2135 C   0  0  0  0  0  0  0  0  0  0  0  0
   23.6892   56.6789   25.1092 C   0  0  0  0  0  0  0  0  0  0  0  0
   22.8273   55.6109   25.6479 C   0  0  0  0  0  0  0  0  0  0  0  0
   22.0948   54.9595   24.8639 O   0  0  0  0  0  0  0  0  0  0  0  0
   22.8276   55.3225   27.0460 N   0  0  0  0  0  0  0  0  0  0  0  0
   20.6990   53.5081   29.4629 C   0  0  0  0  0  0  0  0  0  0  0  0
   18.9036   51.9287   28.8152 O   0  0  0  0  0  0  0  0  0  0  0  0
   19.1210   52.0807   26.7106 N   0  0  0  0  0  0  0  0  0  0  0  0
   18.4080   51.4750   27.6732 C   0  0  0  0  0  0  0  0  0  0  0  0
   17.3095   50.5129   27.5520 C   0  0  0  0  0  0  0  0  0  0  0  0
   15.9237   48.7939   28.4311 C   0  0  0  0  0  0  0  0  0  0  0  0
   15.2422   48.7467   27.2511 N   0  0  0  0  0  0  0  0  0  0  0  0
   14.8683   49.5551   24.9412 C   0  0  0  0  0  0  0  0  0  0  0  0
   13.9802   50.4437   24.7288 O   0  0  0  0  0  0  0  0  0  0  0  0
   15.1475   48.6432   23.9339 N   0  0  0  0  0  0  0  0  0  0  0  0
   16.0200   47.5190   24.1555 C   0  0  0  0  0  0  0  0  0  0  0  0
   15.3838   46.1897   23.7064 C   0  0  0  0  0  0  0  0  0  0  0  0
   14.5779   48.7550   22.5833 C   0  0  0  0  0  0  0  0  0  0  0  0
   13.9260   47.3701   22.3533 C   0  0  0  0  0  0  0  0  0  0  0  0
   14.9885   46.3924   22.3321 N   0  0  2  0  0  4  0  0  0  0  0  0
   14.7662   45.2319   21.5544 C   0  0  1  0  0  0  0  0  0  0  0  0
   15.1438   45.4630   20.1317 C   0  0  0  0  0  0  0  0  0  0  0  0
   14.5977   44.7798   19.0984 N   0  0  0  0  0  0  0  0  0  0  0  0
   16.0175   46.2986   19.5786 N   0  0  0  0  0  0  0  0  0  0  0  0
   15.9869   46.1137   18.2639 N   0  0  0  0  0  0  0  0  0  0  0  0
   15.1237   45.1870   17.9416 N   0  0  0  0  0  0  0  0  0  0  0  0
   14.8080   44.7022   16.6107 C   0  0  0  0  0  0  0  0  0  0  0  0
   15.2517   43.9529   22.0592 C   0  0  0  0  0  0  0  0  0  0  0  0
   16.5315   43.4759   21.9376 C   0  0  0  0  0  0  0  0  0  0  0  0
   16.9271   42.2477   22.4300 C   0  0  0  0  0  0  0  0  0  0  0  0
   16.0244   41.4436   23.0759 C   0  0  0  0  0  0  0  0  0  0  0  0
   14.7141   41.8783   23.2275 C   0  0  0  0  0  0  0  0  0  0  0  0
   14.3691   43.0921   22.7275 C   0  0  0  0  0  0  0  0  0  0  0  0
  2  1  2  0
 13  1  1  0
  3  2  1  0
  2 12  1  0
  4  3  2  0
  4  5  1  0
 15  4  1  0
  5 13  2  0
 14  5  1  0
 17  6  2  0
  6 18  1  0
  7  8  2  0
 17  7  1  0
  8 19  1  0
  8 20  1  0
 10  9  1  0
 10 11  2  0
 12 10  1  0
 16 14  1  0
 16 15  2  0
 16 17  1  0
 18 19  2  0
 20 21  2  0
 20 22  1  0
 22 23  1  0
 22 25  1  0
 23 24  1  0
 27 24  1  1
 25 26  1  0
 26 27  1  0
 27 28  1  0
 28 29  1  6
 28 35  1  0
 29 30  2  0
 29 31  1  0
 30 33  1  0
 31 32  2  0
 32 33  1  0
 33 34  1  0
 35 36  2  0
 35 40  1  0
 36 37  1  0
 37 38  2  0
 38 39  1  0
 39 40  2  0
M  CHG  1  27   1
M  END
$$$$
