
     RDKit          3D

 40 45  0  0  0  0  0  0  0  0999 V2000
   24.7295   56.3865   26.0800 C   0  0  0  0  0  0  0  0  0  0  0  0
   24.4937   56.3889   24.7243 C   0  0  0  0  0  0  0  0  0  0  0  0
   23.4226   55.6768   24.2408 C   0  0  0  0  0  0  0  0  0  0  0  0
   22.5872   54.9657   25.0858 C   0  0  0  0  0  0  0  0  0  0  0  0
   22.8215   54.9599   26.4572 C   0  0  0  0  0  0  0  0  0  0  0  0
   19.6090   52.5245   27.6645 C   0  0  0  0  0  0  0  0  0  0  0  0
   19.1248   52.3906   25.3596 C   0  0  0  0  0  0  0  0  0  0  0  0
   18.0314   51.5744   25.5750 C   0  0  0  0  0  0  0  0  0  0  0  0
   25.5385   58.5258   21.7844 C   0  0  0  0  0  0  0  0  0  0  0  0
   24.8722   57.4602   22.5553 C   0  0  0  0  0  0  0  0  0  0  0  0
   23.8883   56.8636   22.0539 O   0  0  0  0  0  0  0  0  0  0  0  0
   25.3428   57.1124   23.8574 N   0  0  0  0  0  0  0  0  0  0  0  0
   23.9022   55.6785   26.9450 C   0  0  0  0  0  0  0  0  0  0  0  0
   21.8972   54.2241   26.9928 O   0  0  0  0  0  0  0  0  0  0  0  0
   21.4983   54.2016   24.9096 N   0  0  0  0  0  0  0  0  0  0  0  0
   21.0606   53.7346   26.0895 C   0  0  0  0  0  0  0  0  0  0  0  0
   19.9147   52.8691   26.3807 C   0  0  0  0  0  0  0  0  0  0  0  0
   18.5044   51.6987   27.8939 C   0  0  0  0  0  0  0  0  0  0  0  0
   17.7562   51.2537   26.8445 N   0  0  0  0  0  0  0  0  0  0  0  0
   17.2897   51.1545   24.4153 C   0  0  0  0  0  0  0  0  0  0  0  0
   16.9188   52.0346   23.5718 O   0  0  0  0  0  0  0  0  0  0  0  0
   16.9611   49.8282   24.1768 N   0  0  0  0  0  0  0  0  0  0  0  0
   17.2170   48.8010   25.1533 C   0  0  0  0  0  0  0  0  0  0  0  0
   15.9713   47.9383   25.4323 C   0  0  0  0  0  0  0  0  0  0  0  0
   16.3329   49.3798   22.9257 C   0  0  0  0  0  0  0  0  0  0  0  0
   15.0773   48.6143   23.4091 C   0  0  0  0  0  0  0  0  0  0  0  0
   15.5345   47.4574   24.1423 N   0  0  2  0  0  4  0  0  0  0  0  0
   14.6835   46.3274   24.1376 C   0  0  1  0  0  0  0  0  0  0  0  0
   14.5792   45.7442   22.7704 C   0  0  0  0  0  0  0  0  0  0  0  0
   13.4890   45.8920   21.9815 N   0  0  0  0  0  0  0  0  0  0  0  0
   15.4300   45.0091   22.0609 N   0  0  0  0  0  0  0  0  0  0  0  0
   14.8599   44.7335   20.8936 N   0  0  0  0  0  0  0  0  0  0  0  0
   13.6678   45.2635   20.8182 N   0  0  0  0  0  0  0  0  0  0  0  0
   12.7366   45.1821   19.7080 C   0  0  0  0  0  0  0  0  0  0  0  0
   14.8731   45.3097   25.1646 C   0  0  0  0  0  0  0  0  0  0  0  0
   14.3148   45.3199   26.4170 C   0  0  0  0  0  0  0  0  0  0  0  0
   14.5424   44.3281   27.3508 C   0  0  0  0  0  0  0  0  0  0  0  0
   15.3583   43.2702   27.0441 C   0  0  0  0  0  0  0  0  0  0  0  0
   15.9495   43.2098   25.7889 C   0  0  0  0  0  0  0  0  0  0  0  0
   15.6982   44.2066   24.9025 C   0  0  0  0  0  0  0  0  0  0  0  0
  2  1  2  0
 13  1  1  0
  3  2  1  0
  2 12  1  0
  4  3  2  0
  4  5  1  0
 15  4  1  0
  5 13  2  0
 14  5  1  0
 17  6  2  0
  6 18  1  0
  7  8  2  0
 17  7  1  0
  8 19  1  0
  8 20  1  0
 10  9  1  0
 10 11  2  0
 12 10  1  0
 16 14  1  0
 16 15  2  0
 16 17  1  0
 18 19  2  0
 20 21  2  0
 20 22  1  0
 22 23  1  0
 22 25  1  0
 23 24  1  0
 27 24  1  1
 25 26  1  0
 26 27  1  0
 27 28  1  0
 28 29  1  6
 28 35  1  0
 29 30  2  0
 29 31  1  0
 30 33  1  0
 31 32  2  0
 32 33  1  0
 33 34  1  0
 35 36  2  0
 35 40  1  0
 36 37  1  0
 37 38  2  0
 38 39  1  0
 39 40  2  0
M  CHG  1  27   1
M  END
$$$$
