
     RDKit          3D

 40 45  0  0  0  0  0  0  0  0999 V2000
    8.1293  -18.7337  -33.5338 C   0  0  0  0  0  0  0  0  0  0  0  0
    9.3721  -18.3115  -33.9467 C   0  0  0  0  0  0  0  0  0  0  0  0
    9.5583  -16.9770  -34.2164 C   0  0  0  0  0  0  0  0  0  0  0  0
    8.5278  -16.0620  -34.0810 C   0  0  0  0  0  0  0  0  0  0  0  0
    7.2693  -16.4839  -33.6640 C   0  0  0  0  0  0  0  0  0  0  0  0
    7.3583  -11.8867  -33.8289 C   0  0  0  0  0  0  0  0  0  0  0  0
    5.2489  -12.8173  -34.3284 C   0  0  0  0  0  0  0  0  0  0  0  0
    4.6504  -11.5744  -34.4010 C   0  0  0  0  0  0  0  0  0  0  0  0
   12.3646  -20.0994  -35.4441 C   0  0  0  0  0  0  0  0  0  0  0  0
   11.4040  -19.0329  -35.1070 C   0  0  0  0  0  0  0  0  0  0  0  0
   11.4553  -17.9425  -35.7265 O   0  0  0  0  0  0  0  0  0  0  0  0
   10.4271  -19.2406  -34.0869 N   0  0  0  0  0  0  0  0  0  0  0  0
    7.0816  -17.8303  -33.3918 C   0  0  0  0  0  0  0  0  0  0  0  0
    6.5134  -15.4305  -33.6272 O   0  0  0  0  0  0  0  0  0  0  0  0
    8.4138  -14.7378  -34.2660 N   0  0  0  0  0  0  0  0  0  0  0  0
    7.1645  -14.3340  -33.9868 C   0  0  0  0  0  0  0  0  0  0  0  0
    6.5857  -12.9893  -34.0472 C   0  0  0  0  0  0  0  0  0  0  0  0
    6.7626  -10.6238  -33.8999 C   0  0  0  0  0  0  0  0  0  0  0  0
    5.4334  -10.5118  -34.1827 N   0  0  0  0  0  0  0  0  0  0  0  0
    3.2455  -11.5420  -34.7119 C   0  0  0  0  0  0  0  0  0  0  0  0
    2.5160  -12.5260  -34.3607 O   0  0  0  0  0  0  0  0  0  0  0  0
    2.6510  -10.4815  -35.3796 N   0  0  0  0  0  0  0  0  0  0  0  0
    1.4781  -10.6664  -36.1947 C   0  0  0  0  0  0  0  0  0  0  0  0
    0.3587   -9.6688  -35.8404 C   0  0  0  0  0  0  0  0  0  0  0  0
    3.1672   -9.1072  -35.3031 C   0  0  0  0  0  0  0  0  0  0  0  0
    1.9323   -8.2843  -34.8625 C   0  0  0  0  0  0  0  0  0  0  0  0
    0.9621   -8.3595  -35.9293 N   0  0  2  0  0  4  0  0  0  0  0  0
    0.0828   -7.2598  -36.0647 C   0  0  1  0  0  0  0  0  0  0  0  0
    0.8132   -5.9706  -35.9077 C   0  0  0  0  0  0  0  0  0  0  0  0
    0.3105   -4.9099  -35.2331 N   0  0  0  0  0  0  0  0  0  0  0  0
    2.0053   -5.5766  -36.3453 N   0  0  0  0  0  0  0  0  0  0  0  0
    2.1979   -4.3261  -35.9418 N   0  0  0  0  0  0  0  0  0  0  0  0
    1.1731   -3.8922  -35.2569 N   0  0  0  0  0  0  0  0  0  0  0  0
    1.0075   -2.5822  -34.6545 C   0  0  0  0  0  0  0  0  0  0  0  0
   -0.8413   -7.2429  -37.1927 C   0  0  0  0  0  0  0  0  0  0  0  0
   -0.4952   -7.0969  -38.5114 C   0  0  0  0  0  0  0  0  0  0  0  0
   -1.4218   -7.0786  -39.5354 C   0  0  0  0  0  0  0  0  0  0  0  0
   -2.7572   -7.2107  -39.2556 C   0  0  0  0  0  0  0  0  0  0  0  0
   -3.1631   -7.3622  -37.9361 C   0  0  0  0  0  0  0  0  0  0  0  0
   -2.2182   -7.3741  -36.9618 C   0  0  0  0  0  0  0  0  0  0  0  0
  2  1  2  0
 13  1  1  0
  3  2  1  0
  2 12  1  0
  4  3  2  0
  4  5  1  0
 15  4  1  0
  5 13  2  0
 14  5  1  0
 17  6  2  0
  6 18  1  0
  7  8  2  0
 17  7  1  0
  8 19  1  0
  8 20  1  0
 10  9  1  0
 10 11  2  0
 12 10  1  0
 16 14  1  0
 16 15  2  0
 16 17  1  0
 18 19  2  0
 20 21  2  0
 20 22  1  0
 22 23  1  0
 22 25  1  0
 23 24  1  0
 27 24  1  1
 25 26  1  0
 26 27  1  0
 27 28  1  0
 28 29  1  6
 28 35  1  0
 29 30  2  0
 29 31  1  0
 30 33  1  0
 31 32  2  0
 32 33  1  0
 33 34  1  0
 35 36  2  0
 35 40  1  0
 36 37  1  0
 37 38  2  0
 38 39  1  0
 39 40  2  0
M  CHG  1  27   1
M  END
$$$$
