
     RDKit          3D

 40 45  0  0  0  0  0  0  0  0999 V2000
   10.3612   46.6520   30.0221 C   0  0  0  0  0  0  0  0  0  0  0  0
    9.6234   46.3028   28.9087 C   0  0  0  0  0  0  0  0  0  0  0  0
   10.1529   46.4428   27.6354 C   0  0  0  0  0  0  0  0  0  0  0  0
   11.4384   46.9384   27.4754 C   0  0  0  0  0  0  0  0  0  0  0  0
   12.1605   47.2793   28.5802 C   0  0  0  0  0  0  0  0  0  0  0  0
   14.8183   47.4312   24.8065 C   0  0  0  0  0  0  0  0  0  0  0  0
   15.4376   49.0403   26.4166 C   0  0  0  0  0  0  0  0  0  0  0  0
   16.5673   49.4001   25.6772 C   0  0  0  0  0  0  0  0  0  0  0  0
    6.3259   44.5088   28.0956 C   0  0  0  0  0  0  0  0  0  0  0  0
    7.5872   45.2823   27.9346 C   0  0  0  0  0  0  0  0  0  0  0  0
    8.0289   45.5085   26.7571 O   0  0  0  0  0  0  0  0  0  0  0  0
    8.3117   45.7729   29.0498 N   0  0  0  0  0  0  0  0  0  0  0  0
   11.6316   47.1396   29.8411 C   0  0  0  0  0  0  0  0  0  0  0  0
   13.3373   47.7128   28.1311 O   0  0  0  0  0  0  0  0  0  0  0  0
   12.2220   47.1875   26.4048 N   0  0  0  0  0  0  0  0  0  0  0  0
   13.4019   47.6688   26.8290 C   0  0  0  0  0  0  0  0  0  0  0  0
   14.5535   48.0672   26.0098 C   0  0  0  0  0  0  0  0  0  0  0  0
   15.9298   47.7974   24.0928 C   0  0  0  0  0  0  0  0  0  0  0  0
   16.7702   48.7575   24.5321 N   0  0  0  0  0  0  0  0  0  0  0  0
   17.4900   50.4051   26.1809 C   0  0  0  0  0  0  0  0  0  0  0  0
   17.6808   50.3939   27.4760 O   0  0  0  0  0  0  0  0  0  0  0  0
   18.1958   51.3741   25.4844 N   0  0  0  0  0  0  0  0  0  0  0  0
   18.5089   52.6313   26.1418 C   0  0  0  0  0  0  0  0  0  0  0  0
   19.8541   53.1666   25.6616 C   0  0  0  0  0  0  0  0  0  0  0  0
   18.6500   51.2190   24.1323 C   0  0  0  0  0  0  0  0  0  0  0  0
   18.9337   52.5789   23.5047 C   0  0  0  0  0  0  0  0  0  0  0  0
   19.8348   53.4005   24.2546 N   0  0  2  0  0  4  0  0  0  0  0  0
   21.1520   53.3955   23.6266 C   0  0  1  0  0  0  0  0  0  0  0  0
   21.0338   53.9778   22.2364 C   0  0  0  0  0  0  0  0  0  0  0  0
   19.9484   54.6502   21.7994 N   0  0  0  0  0  0  0  0  0  0  0  0
   21.8951   53.9612   21.2209 N   0  0  0  0  0  0  0  0  0  0  0  0
   21.3195   54.6173   20.1999 N   0  0  0  0  0  0  0  0  0  0  0  0
   20.1241   55.0396   20.5520 N   0  0  0  0  0  0  0  0  0  0  0  0
   19.2116   55.7612   19.7064 C   0  0  0  0  0  0  0  0  0  0  0  0
   22.1615   54.2000   24.3419 C   0  0  0  0  0  0  0  0  0  0  0  0
   22.5003   55.4892   23.9418 C   0  0  0  0  0  0  0  0  0  0  0  0
   23.4157   56.2303   24.6431 C   0  0  0  0  0  0  0  0  0  0  0  0
   24.0449   55.7402   25.7754 C   0  0  0  0  0  0  0  0  0  0  0  0
   23.6936   54.4594   26.1542 C   0  0  0  0  0  0  0  0  0  0  0  0
   22.7788   53.6975   25.4679 C   0  0  0  0  0  0  0  0  0  0  0  0
  2  1  2  0
 13  1  1  0
  3  2  1  0
  2 12  1  0
  4  3  2  0
  4  5  1  0
 15  4  1  0
  5 13  2  0
 14  5  1  0
 17  6  2  0
  6 18  1  0
  7  8  2  0
 17  7  1  0
  8 19  1  0
  8 20  1  0
  9 10  1  6
 10 11  2  0
 12 10  1  0
 16 14  1  0
 16 15  2  0
 16 17  1  0
 18 19  2  0
 20 21  2  0
 20 22  1  0
 23 22  1  1
 25 22  1  1
 24 23  1  1
 24 27  1  0
 26 25  1  1
 26 27  1  0
 27 28  1  6
 28 29  1  6
 28 35  1  0
 29 30  2  0
 29 31  1  0
 30 33  1  0
 31 32  2  0
 32 33  1  0
 34 33  1  6
 35 36  2  0
 35 40  1  0
 36 37  1  0
 37 38  2  0
 38 39  1  0
 39 40  2  0
M  CHG  1  27   1
M  END
$$$$
