
     RDKit          3D

 40 45  0  0  0  0  0  0  0  0999 V2000
  -36.2631    7.1576  -21.7272 C   0  0  0  0  0  0  0  0  0  0  0  0
  -37.3973    6.4637  -21.3728 C   0  0  0  0  0  0  0  0  0  0  0  0
  -37.5522    6.0801  -20.0624 C   0  0  0  0  0  0  0  0  0  0  0  0
  -36.5969    6.3772  -19.1050 C   0  0  0  0  0  0  0  0  0  0  0  0
  -35.4484    7.0784  -19.4582 C   0  0  0  0  0  0  0  0  0  0  0  0
  -33.8397    7.5490  -15.5823 C   0  0  0  0  0  0  0  0  0  0  0  0
  -35.2115    5.7042  -15.0534 C   0  0  0  0  0  0  0  0  0  0  0  0
  -34.7341    5.6433  -13.7586 C   0  0  0  0  0  0  0  0  0  0  0  0
  -40.0355    4.5333  -23.3142 C   0  0  0  0  0  0  0  0  0  0  0  0
  -39.0258    4.8877  -22.2999 C   0  0  0  0  0  0  0  0  0  0  0  0
  -38.7457    4.0611  -21.3979 O   0  0  0  0  0  0  0  0  0  0  0  0
  -38.3750    6.1575  -22.3455 N   0  0  0  0  0  0  0  0  0  0  0  0
  -35.2922    7.4655  -20.7803 C   0  0  0  0  0  0  0  0  0  0  0  0
  -34.7432    7.2123  -18.3778 O   0  0  0  0  0  0  0  0  0  0  0  0
  -36.4769    6.1411  -17.7895 N   0  0  0  0  0  0  0  0  0  0  0  0
  -35.3270    6.6560  -17.3265 C   0  0  0  0  0  0  0  0  0  0  0  0
  -34.7805    6.6396  -15.9671 C   0  0  0  0  0  0  0  0  0  0  0  0
  -33.3496    7.4963  -14.2739 C   0  0  0  0  0  0  0  0  0  0  0  0
  -33.8124    6.5483  -13.4101 N   0  0  0  0  0  0  0  0  0  0  0  0
  -35.2793    4.6185  -12.9078 C   0  0  0  0  0  0  0  0  0  0  0  0
  -36.4988    4.2807  -13.0573 O   0  0  0  0  0  0  0  0  0  0  0  0
  -34.5305    3.9814  -11.9292 N   0  0  0  0  0  0  0  0  0  0  0  0
  -33.2385    4.4753  -11.5280 C   0  0  0  0  0  0  0  0  0  0  0  0
  -33.1213    4.6270   -9.9993 C   0  0  0  0  0  0  0  0  0  0  0  0
  -34.9965    2.7713  -11.2368 C   0  0  0  0  0  0  0  0  0  0  0  0
  -34.8800    3.1474   -9.7398 C   0  0  0  0  0  0  0  0  0  0  0  0
  -33.4779    3.3388   -9.4521 N   0  0  2  0  0  4  0  0  0  0  0  0
  -33.0606    3.0708   -8.1273 C   0  0  1  0  0  0  0  0  0  0  0  0
  -33.3937    1.6722   -7.7359 C   0  0  0  0  0  0  0  0  0  0  0  0
  -34.3898    1.3598   -6.8740 N   0  0  0  0  0  0  0  0  0  0  0  0
  -32.8552    0.5088   -8.0882 N   0  0  0  0  0  0  0  0  0  0  0  0
  -33.5121   -0.4561   -7.4550 N   0  0  0  0  0  0  0  0  0  0  0  0
  -34.4595    0.0383   -6.7029 N   0  0  0  0  0  0  0  0  0  0  0  0
  -35.3864   -0.6935   -5.8594 C   0  0  0  0  0  0  0  0  0  0  0  0
  -31.7098    3.4533   -7.7328 C   0  0  0  0  0  0  0  0  0  0  0  0
  -30.5507    3.0479   -8.3428 C   0  0  0  0  0  0  0  0  0  0  0  0
  -29.2975    3.4384   -7.9132 C   0  0  0  0  0  0  0  0  0  0  0  0
  -29.1707    4.2695   -6.8306 C   0  0  0  0  0  0  0  0  0  0  0  0
  -30.3130    4.7108   -6.1755 C   0  0  0  0  0  0  0  0  0  0  0  0
  -31.5241    4.3015   -6.6317 C   0  0  0  0  0  0  0  0  0  0  0  0
  2  1  2  0
 13  1  1  0
  3  2  1  0
  2 12  1  0
  4  3  2  0
  4  5  1  0
 15  4  1  0
  5 13  2  0
 14  5  1  0
 17  6  2  0
  6 18  1  0
  7  8  2  0
 17  7  1  0
  8 19  1  0
  8 20  1  0
 10  9  1  0
 10 11  2  0
 12 10  1  0
 16 14  1  0
 16 15  2  0
 16 17  1  0
 18 19  2  0
 20 21  2  0
 20 22  1  0
 22 23  1  0
 22 25  1  0
 23 24  1  0
 27 24  1  1
 25 26  1  0
 26 27  1  0
 27 28  1  0
 28 29  1  6
 28 35  1  0
 29 30  2  0
 29 31  1  0
 30 33  1  0
 31 32  2  0
 32 33  1  0
 33 34  1  0
 35 36  2  0
 35 40  1  0
 36 37  1  0
 37 38  2  0
 38 39  1  0
 39 40  2  0
M  CHG  1  27   1
M  END
$$$$
