
     RDKit          3D

 40 45  0  0  0  0  0  0  0  0999 V2000
  -34.9038    8.0890  -19.9623 C   0  0  0  0  0  0  0  0  0  0  0  0
  -35.3030    6.7724  -20.0773 C   0  0  0  0  0  0  0  0  0  0  0  0
  -35.1820    5.8993  -19.0076 C   0  0  0  0  0  0  0  0  0  0  0  0
  -34.6550    6.3511  -17.8070 C   0  0  0  0  0  0  0  0  0  0  0  0
  -34.2646    7.6529  -17.7016 C   0  0  0  0  0  0  0  0  0  0  0  0
  -32.7066    7.4554  -13.7388 C   0  0  0  0  0  0  0  0  0  0  0  0
  -33.7947    5.3632  -13.6767 C   0  0  0  0  0  0  0  0  0  0  0  0
  -33.3738    5.1413  -12.3628 C   0  0  0  0  0  0  0  0  0  0  0  0
  -37.3181    6.7953  -23.3142 C   0  0  0  0  0  0  0  0  0  0  0  0
  -36.2841    7.1800  -22.3151 C   0  0  0  0  0  0  0  0  0  0  0  0
  -35.7588    8.3428  -22.3840 O   0  0  0  0  0  0  0  0  0  0  0  0
  -35.8657    6.2929  -21.2918 N   0  0  0  0  0  0  0  0  0  0  0  0
  -34.3856    8.5155  -18.7648 C   0  0  0  0  0  0  0  0  0  0  0  0
  -33.8102    7.8012  -16.4582 O   0  0  0  0  0  0  0  0  0  0  0  0
  -34.4123    5.7729  -16.6115 N   0  0  0  0  0  0  0  0  0  0  0  0
  -33.8870    6.6887  -15.7814 C   0  0  0  0  0  0  0  0  0  0  0  0
  -33.4783    6.5008  -14.3837 C   0  0  0  0  0  0  0  0  0  0  0  0
  -32.3038    7.2228  -12.4495 C   0  0  0  0  0  0  0  0  0  0  0  0
  -32.6376    6.0907  -11.7954 N   0  0  0  0  0  0  0  0  0  0  0  0
  -33.7023    3.8986  -11.6824 C   0  0  0  0  0  0  0  0  0  0  0  0
  -33.9596    2.8808  -12.4644 O   0  0  0  0  0  0  0  0  0  0  0  0
  -33.7822    3.6388  -10.3228 N   0  0  0  0  0  0  0  0  0  0  0  0
  -33.1404    4.5485   -9.3894 C   0  0  0  0  0  0  0  0  0  0  0  0
  -33.9397    4.6383   -8.0934 C   0  0  0  0  0  0  0  0  0  0  0  0
  -34.4701    2.5121   -9.7607 C   0  0  0  0  0  0  0  0  0  0  0  0
  -33.9735    2.2342   -8.3465 C   0  0  0  0  0  0  0  0  0  0  0  0
  -34.0347    3.3609   -7.4655 N   0  0  2  0  0  4  0  0  0  0  0  0
  -35.1678    3.2209   -6.5569 C   0  0  1  0  0  0  0  0  0  0  0  0
  -35.1056    1.8592   -5.9029 C   0  0  0  0  0  0  0  0  0  0  0  0
  -35.8227    1.5234   -4.8101 N   0  0  0  0  0  0  0  0  0  0  0  0
  -34.3947    0.7810   -6.2274 N   0  0  0  0  0  0  0  0  0  0  0  0
  -34.6927   -0.1762   -5.3334 N   0  0  0  0  0  0  0  0  0  0  0  0
  -35.5676    0.2776   -4.4617 N   0  0  0  0  0  0  0  0  0  0  0  0
  -36.0992   -0.4638   -3.3499 C   0  0  0  0  0  0  0  0  0  0  0  0
  -35.1914    4.2168   -5.4680 C   0  0  0  0  0  0  0  0  0  0  0  0
  -36.2224    5.1417   -5.3325 C   0  0  0  0  0  0  0  0  0  0  0  0
  -36.2402    6.0342   -4.2923 C   0  0  0  0  0  0  0  0  0  0  0  0
  -35.2435    6.0620   -3.3310 C   0  0  0  0  0  0  0  0  0  0  0  0
  -34.2309    5.1355   -3.4851 C   0  0  0  0  0  0  0  0  0  0  0  0
  -34.1913    4.2309   -4.5187 C   0  0  0  0  0  0  0  0  0  0  0  0
  2  1  2  0
 13  1  1  0
  3  2  1  0
  2 12  1  0
  4  3  2  0
  4  5  1  0
 15  4  1  0
  5 13  2  0
 14  5  1  0
 17  6  2  0
  6 18  1  0
  7  8  2  0
 17  7  1  0
  8 19  1  0
  8 20  1  0
  9 10  1  6
 10 11  2  0
 12 10  1  0
 16 14  1  0
 16 15  2  0
 16 17  1  0
 18 19  2  0
 20 21  2  0
 20 22  1  0
 23 22  1  1
 25 22  1  1
 24 23  1  1
 24 27  1  0
 26 25  1  1
 26 27  1  0
 27 28  1  6
 28 29  1  1
 28 35  1  0
 29 30  2  0
 29 31  1  0
 30 33  1  0
 31 32  2  0
 32 33  1  0
 34 33  1  6
 35 36  2  0
 35 40  1  0
 36 37  1  0
 37 38  2  0
 38 39  1  0
 39 40  2  0
M  CHG  1  27   1
M  END
$$$$
