
     RDKit          3D

 40 45  0  0  0  0  0  0  0  0999 V2000
   14.7674   41.7208   21.7217 C   0  0  0  0  0  0  0  0  0  0  0  0
   13.5184   41.9039   21.1627 C   0  0  0  0  0  0  0  0  0  0  0  0
   13.0104   43.1783   20.9653 C   0  0  0  0  0  0  0  0  0  0  0  0
   13.7635   44.2837   21.3321 C   0  0  0  0  0  0  0  0  0  0  0  0
   14.9963   44.0940   21.8820 C   0  0  0  0  0  0  0  0  0  0  0  0
   14.7190   48.5232   20.7956 C   0  0  0  0  0  0  0  0  0  0  0  0
   15.2567   48.2706   23.0787 C   0  0  0  0  0  0  0  0  0  0  0  0
   15.5182   49.6372   23.2068 C   0  0  0  0  0  0  0  0  0  0  0  0
   12.5511   38.3733   19.9877 C   0  0  0  0  0  0  0  0  0  0  0  0
   13.3177   39.5058   20.5749 C   0  0  0  0  0  0  0  0  0  0  0  0
   14.5325   39.3168   20.9231 O   0  0  0  0  0  0  0  0  0  0  0  0
   12.7378   40.7860   20.7597 N   0  0  0  0  0  0  0  0  0  0  0  0
   15.4963   42.8286   22.0767 C   0  0  0  0  0  0  0  0  0  0  0  0
   15.4812   45.3104   22.1265 O   0  0  0  0  0  0  0  0  0  0  0  0
   13.5633   45.6174   21.2736 N   0  0  0  0  0  0  0  0  0  0  0  0
   14.6420   46.2438   21.7713 C   0  0  0  0  0  0  0  0  0  0  0  0
   14.8598   47.6906   21.8954 C   0  0  0  0  0  0  0  0  0  0  0  0
   14.9777   49.8616   20.9391 C   0  0  0  0  0  0  0  0  0  0  0  0
   15.3661   50.3863   22.1201 N   0  0  0  0  0  0  0  0  0  0  0  0
   15.9784   50.1852   24.4729 C   0  0  0  0  0  0  0  0  0  0  0  0
   15.5635   49.5543   25.5423 O   0  0  0  0  0  0  0  0  0  0  0  0
   16.7937   51.2817   24.7085 N   0  0  0  0  0  0  0  0  0  0  0  0
   16.9859   51.7406   26.0735 C   0  0  0  0  0  0  0  0  0  0  0  0
   18.3936   52.2982   26.2581 C   0  0  0  0  0  0  0  0  0  0  0  0
   17.4769   52.0094   23.6778 C   0  0  0  0  0  0  0  0  0  0  0  0
   17.8640   53.3986   24.1716 C   0  0  0  0  0  0  0  0  0  0  0  0
   18.6196   53.4054   25.3875 N   0  0  2  0  0  4  0  0  0  0  0  0
   20.0261   53.6643   25.0976 C   0  0  1  0  0  0  0  0  0  0  0  0
   20.1356   54.9541   24.3164 C   0  0  0  0  0  0  0  0  0  0  0  0
   20.8821   55.0887   23.2002 N   0  0  0  0  0  0  0  0  0  0  0  0
   19.5716   56.1409   24.5323 N   0  0  0  0  0  0  0  0  0  0  0  0
   19.9839   56.9618   23.5524 N   0  0  0  0  0  0  0  0  0  0  0  0
   20.7896   56.3188   22.7346 N   0  0  0  0  0  0  0  0  0  0  0  0
   21.4381   56.8876   21.5837 C   0  0  0  0  0  0  0  0  0  0  0  0
   20.8683   53.8204   26.2994 C   0  0  0  0  0  0  0  0  0  0  0  0
   22.1774   53.3511   26.3522 C   0  0  0  0  0  0  0  0  0  0  0  0
   22.9520   53.5389   27.4675 C   0  0  0  0  0  0  0  0  0  0  0  0
   22.4775   54.1992   28.5888 C   0  0  0  0  0  0  0  0  0  0  0  0
   21.1764   54.6563   28.5141 C   0  0  0  0  0  0  0  0  0  0  0  0
   20.3809   54.4805   27.4075 C   0  0  0  0  0  0  0  0  0  0  0  0
  2  1  2  0
 13  1  1  0
  3  2  1  0
  2 12  1  0
  4  3  2  0
  4  5  1  0
 15  4  1  0
  5 13  2  0
 14  5  1  0
 17  6  2  0
  6 18  1  0
  7  8  2  0
 17  7  1  0
  8 19  1  0
  8 20  1  0
  9 10  1  6
 10 11  2  0
 12 10  1  0
 16 14  1  0
 16 15  2  0
 16 17  1  0
 18 19  2  0
 20 21  2  0
 20 22  1  0
 23 22  1  1
 25 22  1  1
 24 23  1  1
 24 27  1  0
 26 25  1  1
 26 27  1  0
 27 28  1  6
 28 29  1  6
 28 35  1  0
 29 30  2  0
 29 31  1  0
 30 33  1  0
 31 32  2  0
 32 33  1  0
 34 33  1  6
 35 36  2  0
 35 40  1  0
 36 37  1  0
 37 38  2  0
 38 39  1  0
 39 40  2  0
M  CHG  1  27   1
M  END
$$$$
