
     RDKit          3D

 40 45  0  0  0  0  0  0  0  0999 V2000
   24.5347   55.6500   25.5670 C   0  0  0  0  0  0  0  0  0  0  0  0
   24.0578   56.5117   26.5280 C   0  0  0  0  0  0  0  0  0  0  0  0
   22.8095   56.2843   27.0556 C   0  0  0  0  0  0  0  0  0  0  0  0
   22.0338   55.2150   26.6406 C   0  0  0  0  0  0  0  0  0  0  0  0
   22.5113   54.3409   25.6691 C   0  0  0  0  0  0  0  0  0  0  0  0
   18.6457   52.5991   27.4275 C   0  0  0  0  0  0  0  0  0  0  0  0
   18.8528   52.2516   25.1034 C   0  0  0  0  0  0  0  0  0  0  0  0
   17.7213   51.4604   25.0597 C   0  0  0  0  0  0  0  0  0  0  0  0
   25.1874   59.5488   28.5157 C   0  0  0  0  0  0  0  0  0  0  0  0
   24.3572   58.4443   28.0014 C   0  0  0  0  0  0  0  0  0  0  0  0
   23.2187   58.2518   28.4935 O   0  0  0  0  0  0  0  0  0  0  0  0
   24.8448   57.6045   26.9550 N   0  0  0  0  0  0  0  0  0  0  0  0
   23.7708   54.5704   25.1369 C   0  0  0  0  0  0  0  0  0  0  0  0
   21.5884   53.4493   25.4800 O   0  0  0  0  0  0  0  0  0  0  0  0
   20.8158   54.7536   26.9637 N   0  0  0  0  0  0  0  0  0  0  0  0
   20.5282   53.6554   26.2475 C   0  0  0  0  0  0  0  0  0  0  0  0
   19.3230   52.8222   26.2648 C   0  0  0  0  0  0  0  0  0  0  0  0
   17.4991   51.7996   27.3946 C   0  0  0  0  0  0  0  0  0  0  0  0
   17.0780   51.2597   26.2156 N   0  0  0  0  0  0  0  0  0  0  0  0
   17.3394   50.9351   23.7753 C   0  0  0  0  0  0  0  0  0  0  0  0
   17.1954   51.7424   22.8000 O   0  0  0  0  0  0  0  0  0  0  0  0
   17.1211   49.5833   23.5543 N   0  0  0  0  0  0  0  0  0  0  0  0
   17.2008   48.6222   24.6240 C   0  0  0  0  0  0  0  0  0  0  0  0
   15.9585   47.7130   24.6847 C   0  0  0  0  0  0  0  0  0  0  0  0
   16.7940   49.0395   22.2283 C   0  0  0  0  0  0  0  0  0  0  0  0
   15.4944   48.2372   22.4803 C   0  0  0  0  0  0  0  0  0  0  0  0
   15.8277   47.1444   23.3634 N   0  0  2  0  0  4  0  0  0  0  0  0
   15.0419   45.9740   23.2475 C   0  0  1  0  0  0  0  0  0  0  0  0
   15.2080   45.3510   21.9043 C   0  0  0  0  0  0  0  0  0  0  0  0
   14.2104   44.7030   21.2579 N   0  0  0  0  0  0  0  0  0  0  0  0
   16.2594   45.2759   21.0940 N   0  0  0  0  0  0  0  0  0  0  0  0
   15.8932   44.6063   20.0072 N   0  0  0  0  0  0  0  0  0  0  0  0
   14.6401   44.2429   20.0814 N   0  0  0  0  0  0  0  0  0  0  0  0
   13.8802   43.4955   19.0966 C   0  0  0  0  0  0  0  0  0  0  0  0
   15.0906   44.9939   24.3263 C   0  0  0  0  0  0  0  0  0  0  0  0
   16.1195   44.1214   24.5717 C   0  0  0  0  0  0  0  0  0  0  0  0
   16.1007   43.2072   25.6068 C   0  0  0  0  0  0  0  0  0  0  0  0
   15.0193   43.1429   26.4466 C   0  0  0  0  0  0  0  0  0  0  0  0
   13.9491   44.0045   26.2435 C   0  0  0  0  0  0  0  0  0  0  0  0
   14.0102   44.8866   25.2137 C   0  0  0  0  0  0  0  0  0  0  0  0
  2  1  2  0
 13  1  1  0
  3  2  1  0
  2 12  1  0
  4  3  2  0
  4  5  1  0
 15  4  1  0
  5 13  2  0
 14  5  1  0
 17  6  2  0
  6 18  1  0
  7  8  2  0
 17  7  1  0
  8 19  1  0
  8 20  1  0
 10  9  1  0
 10 11  2  0
 12 10  1  0
 16 14  1  0
 16 15  2  0
 16 17  1  0
 18 19  2  0
 20 21  2  0
 20 22  1  0
 22 23  1  0
 22 25  1  0
 23 24  1  0
 27 24  1  1
 25 26  1  0
 26 27  1  0
 27 28  1  0
 28 29  1  6
 28 35  1  0
 29 30  2  0
 29 31  1  0
 30 33  1  0
 31 32  2  0
 32 33  1  0
 33 34  1  0
 35 36  2  0
 35 40  1  0
 36 37  1  0
 37 38  2  0
 38 39  1  0
 39 40  2  0
M  CHG  1  27   1
M  END
$$$$
