
     RDKit          3D

 25 27  0  0  0  0  0  0  0  0999 V2000
    4.1982    7.2485   85.4773 C   0  0  0  0  0  0  0  0  0  0  0  0
    1.9327    7.2596   84.5450 C   0  0  0  0  0  0  0  0  0  0  0  0
    2.9205    9.2834   84.9858 C   0  0  0  0  0  0  0  0  0  0  0  0
    1.8026    9.9434   84.5367 C   0  0  0  0  0  0  0  0  0  0  0  0
    0.7101    9.2207   84.0749 C   0  0  0  0  0  0  0  0  0  0  0  0
   -0.5380    9.5853   83.5719 C   0  0  0  0  0  0  0  0  0  0  0  0
   -1.2140    8.4207   83.2763 C   0  0  0  0  0  0  0  0  0  0  0  0
    0.7801    7.8532   84.0806 C   0  0  0  0  0  0  0  0  0  0  0  0
    5.1539    7.0587   84.3272 C   0  0  0  0  0  0  0  0  0  0  0  0
    6.7096    7.9566   82.6712 C   0  0  0  0  0  0  0  0  0  0  0  0
    5.9890    8.0093   83.9674 C   0  0  0  0  0  0  0  0  0  0  0  0
    2.9965    7.9467   84.9945 N   0  0  0  0  0  0  0  0  0  0  0  0
   -0.3925    7.4083   83.5944 N   0  0  0  0  0  0  0  0  0  0  0  0
    1.9809    6.0037   84.5436 O   0  0  0  0  0  0  0  0  0  0  0  0
    1.7217   11.4086   84.5150 C   0  0  0  0  0  0  0  0  0  0  0  0
    0.5308   12.0038   84.1597 C   0  0  0  0  0  0  0  0  0  0  0  0
    0.3790   13.3869   84.1246 C   0  0  0  0  0  0  0  0  0  0  0  0
    1.4594   14.1761   84.4570 C   0  0  0  0  0  0  0  0  0  0  0  0
    2.6663   13.6154   84.8173 C   0  0  0  0  0  0  0  0  0  0  0  0
    2.7671   12.2390   84.8373 C   0  0  0  0  0  0  0  0  0  0  0  0
    3.8006   14.4624   85.1688 C   0  0  0  0  0  0  0  0  0  0  0  0
    4.5739   14.1207   86.0978 O   0  0  0  0  0  0  0  0  0  0  0  0
    4.0630   15.6753   84.4876 N   0  0  0  0  0  0  0  0  0  0  0  0
    5.2250   16.4995   84.7744 C   0  0  0  0  0  0  0  0  0  0  0  0
    3.1579   16.1412   83.4597 C   0  0  0  0  0  0  0  0  0  0  0  0
  1  9  1  0
  1 12  1  6
  2  8  1  0
 12  2  1  0
  2 14  2  0
  3  4  2  0
  3 12  1  0
  4  5  1  0
  4 15  1  0
  5  6  1  0
  5  8  2  0
  6  7  2  0
  7 13  1  0
  8 13  1  0
  9 11  2  3
 10 11  1  1
 15 16  2  0
 15 20  1  0
 16 17  1  0
 17 18  2  0
 18 19  1  0
 19 20  2  0
 19 21  1  0
 21 22  2  0
 21 23  1  0
 24 23  1  1
 25 23  1  1
M  END
$$$$
