
     RDKit          3D

 25 27  0  0  0  0  0  0  0  0999 V2000
    4.5667    7.3531   83.3427 C   0  0  0  0  0  0  0  0  0  0  0  0
    2.2290    7.2603   83.9492 C   0  0  0  0  0  0  0  0  0  0  0  0
    3.2559    9.3256   83.7865 C   0  0  0  0  0  0  0  0  0  0  0  0
    2.0537    9.9579   84.1318 C   0  0  0  0  0  0  0  0  0  0  0  0
    0.9309    9.1970   84.3852 C   0  0  0  0  0  0  0  0  0  0  0  0
   -0.3705    9.5147   84.7358 C   0  0  0  0  0  0  0  0  0  0  0  0
   -1.0429    8.3111   84.8480 C   0  0  0  0  0  0  0  0  0  0  0  0
    0.9957    7.8154   84.2983 C   0  0  0  0  0  0  0  0  0  0  0  0
    5.7277    8.0596   83.9260 C   0  0  0  0  0  0  0  0  0  0  0  0
    8.1792    8.2436   84.2765 C   0  0  0  0  0  0  0  0  0  0  0  0
    6.9456    7.5589   83.8068 C   0  0  0  0  0  0  0  0  0  0  0  0
    3.3098    7.9839   83.7044 N   0  0  0  0  0  0  0  0  0  0  0  0
   -0.2013    7.2994   84.5803 N   0  0  0  0  0  0  0  0  0  0  0  0
    2.2833    6.0091   83.8722 O   0  0  0  0  0  0  0  0  0  0  0  0
    1.9815   11.4086   84.2384 C   0  0  0  0  0  0  0  0  0  0  0  0
    0.8841   12.1343   83.8341 C   0  0  0  0  0  0  0  0  0  0  0  0
    0.8027   13.4968   83.9224 C   0  0  0  0  0  0  0  0  0  0  0  0
    1.8792   14.1837   84.4459 C   0  0  0  0  0  0  0  0  0  0  0  0
    3.0107   13.5182   84.8704 C   0  0  0  0  0  0  0  0  0  0  0  0
    3.0495   12.1398   84.7622 C   0  0  0  0  0  0  0  0  0  0  0  0
    4.1535   14.2416   85.4266 C   0  0  0  0  0  0  0  0  0  0  0  0
    4.3604   14.1556   86.6571 O   0  0  0  0  0  0  0  0  0  0  0  0
    4.9964   15.0112   84.6086 N   0  0  0  0  0  0  0  0  0  0  0  0
    4.7317   15.2448   83.1917 C   0  0  0  0  0  0  0  0  0  0  0  0
    6.1928   15.6086   85.1933 C   0  0  0  0  0  0  0  0  0  0  0  0
  1  9  1  0
 12  1  1  0
  2  8  1  0
 12  2  1  0
  2 14  2  0
  3  4  2  0
  3 12  1  0
  4  5  1  0
  4 15  1  0
  5  6  1  0
  5  8  2  0
  6  7  2  0
  7 13  1  0
  8 13  1  0
  9 11  2  3
 11 10  1  0
 15 16  2  0
 15 20  1  0
 16 17  1  0
 17 18  2  0
 18 19  1  0
 19 20  2  0
 19 21  1  0
 21 22  2  0
 21 23  1  0
 23 24  1  0
 23 25  1  0
M  END
$$$$
