
     RDKit          3D

 25 27  0  0  0  0  0  0  0  0999 V2000
    4.7130    7.5133   84.3093 C   0  0  0  0  0  0  0  0  0  0  0  0
    2.2984    7.4194   84.2632 C   0  0  0  0  0  0  0  0  0  0  0  0
    3.3341    9.4853   84.1843 C   0  0  0  0  0  0  0  0  0  0  0  0
    2.0843   10.1169   84.1259 C   0  0  0  0  0  0  0  0  0  0  0  0
    0.9337    9.3554   84.1376 C   0  0  0  0  0  0  0  0  0  0  0  0
   -0.4134    9.6720   84.0881 C   0  0  0  0  0  0  0  0  0  0  0  0
   -1.0929    8.4678   84.1307 C   0  0  0  0  0  0  0  0  0  0  0  0
    1.0175    7.9739   84.2075 C   0  0  0  0  0  0  0  0  0  0  0  0
    5.7363    8.2955   83.5824 C   0  0  0  0  0  0  0  0  0  0  0  0
    8.0907    9.0758   83.4615 C   0  0  0  0  0  0  0  0  0  0  0  0
    7.0219    8.1096   83.8294 C   0  0  0  0  0  0  0  0  0  0  0  0
    3.4061    8.1436   84.2519 N   0  0  0  0  0  0  0  0  0  0  0  0
   -0.2118    7.4569   84.2026 N   0  0  0  0  0  0  0  0  0  0  0  0
    2.3696    6.1683   84.3270 O   0  0  0  0  0  0  0  0  0  0  0  0
    1.9881   11.5689   84.0659 C   0  0  0  0  0  0  0  0  0  0  0  0
    0.8392   12.2559   84.3857 C   0  0  0  0  0  0  0  0  0  0  0  0
    0.7309   13.6182   84.3295 C   0  0  0  0  0  0  0  0  0  0  0  0
    1.8336   14.3461   83.9307 C   0  0  0  0  0  0  0  0  0  0  0  0
    3.0170   13.7206   83.5961 C   0  0  0  0  0  0  0  0  0  0  0  0
    3.0813   12.3408   83.6673 C   0  0  0  0  0  0  0  0  0  0  0  0
    4.1884   14.4876   83.1740 C   0  0  0  0  0  0  0  0  0  0  0  0
    4.1753   14.9988   82.0325 O   0  0  0  0  0  0  0  0  0  0  0  0
    5.2972   14.6486   84.0205 N   0  0  0  0  0  0  0  0  0  0  0  0
    6.4820   15.4131   83.6412 C   0  0  0  0  0  0  0  0  0  0  0  0
    5.2719   14.0276   85.3411 C   0  0  0  0  0  0  0  0  0  0  0  0
  1  9  1  0
 12  1  1  0
  2  8  1  0
 12  2  1  0
  2 14  2  0
  3  4  2  0
  3 12  1  0
  4  5  1  0
  4 15  1  0
  5  6  1  0
  5  8  2  0
  6  7  2  0
  7 13  1  0
  8 13  1  0
  9 11  2  3
 11 10  1  0
 15 16  2  0
 15 20  1  0
 16 17  1  0
 17 18  2  0
 18 19  1  0
 19 20  2  0
 19 21  1  0
 21 22  2  0
 21 23  1  0
 23 24  1  0
 23 25  1  0
M  END
$$$$
