
     RDKit          3D

 25 27  0  0  0  0  0  0  0  0999 V2000
    4.3650    7.6225   83.1760 C   0  0  0  0  0  0  0  0  0  0  0  0
    2.0588    7.5341   83.8934 C   0  0  0  0  0  0  0  0  0  0  0  0
    3.0563    9.5999   83.6037 C   0  0  0  0  0  0  0  0  0  0  0  0
    1.8650   10.2352   83.9798 C   0  0  0  0  0  0  0  0  0  0  0  0
    0.7627    9.4756   84.3143 C   0  0  0  0  0  0  0  0  0  0  0  0
   -0.5243    9.7959   84.7123 C   0  0  0  0  0  0  0  0  0  0  0  0
   -1.1787    8.5921   84.9020 C   0  0  0  0  0  0  0  0  0  0  0  0
    0.8373    8.0922   84.2778 C   0  0  0  0  0  0  0  0  0  0  0  0
    5.4858    8.0062   84.0613 C   0  0  0  0  0  0  0  0  0  0  0  0
    7.9300    8.2653   84.4156 C   0  0  0  0  0  0  0  0  0  0  0  0
    6.7317    7.7123   83.7303 C   0  0  0  0  0  0  0  0  0  0  0  0
    3.1198    8.2565   83.5711 N   0  0  0  0  0  0  0  0  0  0  0  0
   -0.3402    7.5777   84.6348 N   0  0  0  0  0  0  0  0  0  0  0  0
    2.1220    6.2813   83.8624 O   0  0  0  0  0  0  0  0  0  0  0  0
    1.7831   11.6883   84.0336 C   0  0  0  0  0  0  0  0  0  0  0  0
    0.6835   12.3919   83.5975 C   0  0  0  0  0  0  0  0  0  0  0  0
    0.5932   13.7562   83.6361 C   0  0  0  0  0  0  0  0  0  0  0  0
    1.6625   14.4684   84.1402 C   0  0  0  0  0  0  0  0  0  0  0  0
    2.7957   13.8259   84.5945 C   0  0  0  0  0  0  0  0  0  0  0  0
    2.8436   12.4448   84.5364 C   0  0  0  0  0  0  0  0  0  0  0  0
    3.9308   14.5763   85.1304 C   0  0  0  0  0  0  0  0  0  0  0  0
    4.1042   14.5736   86.3690 O   0  0  0  0  0  0  0  0  0  0  0  0
    4.8029   15.2804   84.2845 N   0  0  0  0  0  0  0  0  0  0  0  0
    6.0530   15.8749   84.7492 C   0  0  0  0  0  0  0  0  0  0  0  0
    4.4518   15.4286   82.8756 C   0  0  0  0  0  0  0  0  0  0  0  0
  1  9  1  0
 12  1  1  0
  2  8  1  0
 12  2  1  0
  2 14  2  0
  3  4  2  0
  3 12  1  0
  4  5  1  0
  4 15  1  0
  5  6  1  0
  5  8  2  0
  6  7  2  0
  7 13  1  0
  8 13  1  0
  9 11  2  3
 11 10  1  0
 15 16  2  0
 15 20  1  0
 16 17  1  0
 17 18  2  0
 18 19  1  0
 19 20  2  0
 19 21  1  0
 21 22  2  0
 21 23  1  0
 23 24  1  0
 23 25  1  0
M  END
$$$$
