
     RDKit          3D

 25 27  0  0  0  0  0  0  0  0999 V2000
    4.2256    7.3788   83.4170 C   0  0  0  0  0  0  0  0  0  0  0  0
    1.8818    7.4631   84.1249 C   0  0  0  0  0  0  0  0  0  0  0  0
    3.0066    9.4508   83.9021 C   0  0  0  0  0  0  0  0  0  0  0  0
    1.8831   10.1457   84.2791 C   0  0  0  0  0  0  0  0  0  0  0  0
    0.7160    9.4598   84.5898 C   0  0  0  0  0  0  0  0  0  0  0  0
   -0.5542    9.8638   84.9985 C   0  0  0  0  0  0  0  0  0  0  0  0
   -1.3113    8.7233   85.1621 C   0  0  0  0  0  0  0  0  0  0  0  0
    0.7191    8.0928   84.5100 C   0  0  0  0  0  0  0  0  0  0  0  0
    5.3462    7.7081   84.3698 C   0  0  0  0  0  0  0  0  0  0  0  0
    7.6053    7.3956   85.2460 C   0  0  0  0  0  0  0  0  0  0  0  0
    6.4641    7.0148   84.3771 C   0  0  0  0  0  0  0  0  0  0  0  0
    3.0175    8.1144   83.8218 N   0  0  0  0  0  0  0  0  0  0  0  0
   -0.5144    7.6865   84.8604 N   0  0  0  0  0  0  0  0  0  0  0  0
    1.8679    6.2082   84.0566 O   0  0  0  0  0  0  0  0  0  0  0  0
    1.8654   11.6110   84.3562 C   0  0  0  0  0  0  0  0  0  0  0  0
    0.7027   12.2798   84.0403 C   0  0  0  0  0  0  0  0  0  0  0  0
    0.6107   13.6673   84.0984 C   0  0  0  0  0  0  0  0  0  0  0  0
    1.7227   14.3849   84.4847 C   0  0  0  0  0  0  0  0  0  0  0  0
    2.9027   13.7496   84.8080 C   0  0  0  0  0  0  0  0  0  0  0  0
    2.9442   12.3720   84.7352 C   0  0  0  0  0  0  0  0  0  0  0  0
    4.0709   14.5213   85.2174 C   0  0  0  0  0  0  0  0  0  0  0  0
    4.3329   14.6621   86.4378 O   0  0  0  0  0  0  0  0  0  0  0  0
    4.9325   15.1261   84.2709 N   0  0  0  0  0  0  0  0  0  0  0  0
    4.6672   15.1020   82.8423 C   0  0  0  0  0  0  0  0  0  0  0  0
    6.1332   15.8028   84.7104 C   0  0  0  0  0  0  0  0  0  0  0  0
  1  9  1  0
  1 12  1  6
  2  8  1  0
 12  2  1  0
  2 14  2  0
  3  4  2  0
  3 12  1  0
  4  5  1  0
  4 15  1  0
  5  6  1  0
  5  8  2  0
  6  7  2  0
  7 13  1  0
  8 13  1  0
  9 11  2  3
 10 11  1  1
 15 16  2  0
 15 20  1  0
 16 17  1  0
 17 18  2  0
 18 19  1  0
 19 20  2  0
 19 21  1  0
 21 22  2  0
 21 23  1  0
 24 23  1  1
 25 23  1  1
M  END
$$$$
