
     RDKit          3D

 25 27  0  0  0  0  0  0  0  0999 V2000
    4.9213    7.3740   83.5992 C   0  0  0  0  0  0  0  0  0  0  0  0
    2.4914    7.5085   83.8805 C   0  0  0  0  0  0  0  0  0  0  0  0
    3.6876    9.4660   83.9398 C   0  0  0  0  0  0  0  0  0  0  0  0
    2.5325   10.1829   84.1372 C   0  0  0  0  0  0  0  0  0  0  0  0
    1.3118    9.5242   84.2077 C   0  0  0  0  0  0  0  0  0  0  0  0
   -0.0006    9.9542   84.3989 C   0  0  0  0  0  0  0  0  0  0  0  0
   -0.8032    8.8335   84.3801 C   0  0  0  0  0  0  0  0  0  0  0  0
    1.2948    8.1613   84.0764 C   0  0  0  0  0  0  0  0  0  0  0  0
    5.9740    7.8742   84.5550 C   0  0  0  0  0  0  0  0  0  0  0  0
    8.0708    9.1149   84.7362 C   0  0  0  0  0  0  0  0  0  0  0  0
    7.2232    8.0339   84.1748 C   0  0  0  0  0  0  0  0  0  0  0  0
    3.6791    8.1334   83.8105 N   0  0  0  0  0  0  0  0  0  0  0  0
    0.0086    7.7828   84.1850 N   0  0  0  0  0  0  0  0  0  0  0  0
    2.4585    6.2577   83.7618 O   0  0  0  0  0  0  0  0  0  0  0  0
    2.5382   11.6446   84.2672 C   0  0  0  0  0  0  0  0  0  0  0  0
    1.4937   12.2580   84.9242 C   0  0  0  0  0  0  0  0  0  0  0  0
    1.4365   13.6386   85.0917 C   0  0  0  0  0  0  0  0  0  0  0  0
    2.4611   14.4063   84.5806 C   0  0  0  0  0  0  0  0  0  0  0  0
    3.5220   13.8271   83.9175 C   0  0  0  0  0  0  0  0  0  0  0  0
    3.5336   12.4542   83.7771 C   0  0  0  0  0  0  0  0  0  0  0  0
    4.6006   14.6515   83.3838 C   0  0  0  0  0  0  0  0  0  0  0  0
    5.4928   15.0903   84.1514 O   0  0  0  0  0  0  0  0  0  0  0  0
    4.6766   14.9786   82.0086 N   0  0  0  0  0  0  0  0  0  0  0  0
    3.6981   14.5173   81.0383 C   0  0  0  0  0  0  0  0  0  0  0  0
    5.7592   15.8029   81.5172 C   0  0  0  0  0  0  0  0  0  0  0  0
  1  9  1  0
  1 12  1  6
  2  8  1  0
 12  2  1  0
  2 14  2  0
  3  4  2  0
  3 12  1  0
  4  5  1  0
  4 15  1  0
  5  6  1  0
  5  8  2  0
  6  7  2  0
  7 13  1  0
  8 13  1  0
  9 11  2  3
 10 11  1  1
 15 16  2  0
 15 20  1  0
 16 17  1  0
 17 18  2  0
 18 19  1  0
 19 20  2  0
 19 21  1  0
 21 22  2  0
 21 23  1  0
 24 23  1  1
 25 23  1  1
M  END
$$$$
