
     RDKit          3D

 25 27  0  0  0  0  0  0  0  0999 V2000
    4.3477    7.3692   83.0703 C   0  0  0  0  0  0  0  0  0  0  0  0
    2.0230    7.3211   83.8417 C   0  0  0  0  0  0  0  0  0  0  0  0
    3.0519    9.3647   83.6651 C   0  0  0  0  0  0  0  0  0  0  0  0
    1.9096    9.9935   84.0973 C   0  0  0  0  0  0  0  0  0  0  0  0
    0.7832    9.2444   84.4121 C   0  0  0  0  0  0  0  0  0  0  0  0
   -0.4919    9.5752   84.8688 C   0  0  0  0  0  0  0  0  0  0  0  0
   -1.1928    8.3963   85.0088 C   0  0  0  0  0  0  0  0  0  0  0  0
    0.8447    7.8828   84.2806 C   0  0  0  0  0  0  0  0  0  0  0  0
    5.4013    7.4751   84.1430 C   0  0  0  0  0  0  0  0  0  0  0  0
    7.3866    8.4927   85.1391 C   0  0  0  0  0  0  0  0  0  0  0  0
    6.3313    8.4044   84.0994 C   0  0  0  0  0  0  0  0  0  0  0  0
    3.1199    8.0339   83.5340 N   0  0  0  0  0  0  0  0  0  0  0  0
   -0.3593    7.4085   84.6474 N   0  0  0  0  0  0  0  0  0  0  0  0
    2.0630    6.0702   83.7264 O   0  0  0  0  0  0  0  0  0  0  0  0
    1.8291   11.4528   84.2303 C   0  0  0  0  0  0  0  0  0  0  0  0
    0.6406   12.0833   83.9322 C   0  0  0  0  0  0  0  0  0  0  0  0
    0.4892   13.4624   84.0427 C   0  0  0  0  0  0  0  0  0  0  0  0
    1.5676   14.2111   84.4638 C   0  0  0  0  0  0  0  0  0  0  0  0
    2.7719   13.6144   84.7707 C   0  0  0  0  0  0  0  0  0  0  0  0
    2.8724   12.2436   84.6456 C   0  0  0  0  0  0  0  0  0  0  0  0
    3.9040   14.4186   85.2174 C   0  0  0  0  0  0  0  0  0  0  0  0
    4.1859   14.4795   86.4399 O   0  0  0  0  0  0  0  0  0  0  0  0
    4.7077   15.1437   84.3052 N   0  0  0  0  0  0  0  0  0  0  0  0
    5.9296   15.8215   84.7047 C   0  0  0  0  0  0  0  0  0  0  0  0
    4.3254   15.2332   82.9129 C   0  0  0  0  0  0  0  0  0  0  0  0
  1  9  1  0
  1 12  1  6
  2  8  1  0
 12  2  1  0
  2 14  2  0
  3  4  2  0
  3 12  1  0
  4  5  1  0
  4 15  1  0
  5  6  1  0
  5  8  2  0
  6  7  2  0
  7 13  1  0
  8 13  1  0
  9 11  2  3
 10 11  1  1
 15 16  2  0
 15 20  1  0
 16 17  1  0
 17 18  2  0
 18 19  1  0
 19 20  2  0
 19 21  1  0
 21 22  2  0
 21 23  1  0
 24 23  1  1
 25 23  1  1
M  END
$$$$
