
     RDKit          3D

 25 27  0  0  0  0  0  0  0  0999 V2000
    4.3260    7.4638   84.4197 C   0  0  0  0  0  0  0  0  0  0  0  0
    1.8820    7.6294   84.3889 C   0  0  0  0  0  0  0  0  0  0  0  0
    3.0903    9.5743   84.2362 C   0  0  0  0  0  0  0  0  0  0  0  0
    1.9303   10.3068   84.1673 C   0  0  0  0  0  0  0  0  0  0  0  0
    0.7005    9.6628   84.2122 C   0  0  0  0  0  0  0  0  0  0  0  0
   -0.6190   10.1109   84.1701 C   0  0  0  0  0  0  0  0  0  0  0  0
   -1.4296    8.9992   84.2586 C   0  0  0  0  0  0  0  0  0  0  0  0
    0.6798    8.2983   84.3251 C   0  0  0  0  0  0  0  0  0  0  0  0
    4.9440    7.3929   83.0468 C   0  0  0  0  0  0  0  0  0  0  0  0
    5.1684    6.3538   80.8470 C   0  0  0  0  0  0  0  0  0  0  0  0
    4.4298    6.6341   82.1032 C   0  0  0  0  0  0  0  0  0  0  0  0
    3.0783    8.2400   84.3467 N   0  0  0  0  0  0  0  0  0  0  0  0
   -0.6153    7.9363   84.3497 N   0  0  0  0  0  0  0  0  0  0  0  0
    1.8456    6.3774   84.4923 O   0  0  0  0  0  0  0  0  0  0  0  0
    1.9412   11.7682   84.0341 C   0  0  0  0  0  0  0  0  0  0  0  0
    0.8891   12.3856   83.3931 C   0  0  0  0  0  0  0  0  0  0  0  0
    0.8288   13.7673   83.2369 C   0  0  0  0  0  0  0  0  0  0  0  0
    1.8584   14.5322   83.7424 C   0  0  0  0  0  0  0  0  0  0  0  0
    2.9270   13.9489   84.3895 C   0  0  0  0  0  0  0  0  0  0  0  0
    2.9411   12.5750   84.5196 C   0  0  0  0  0  0  0  0  0  0  0  0
    4.0084   14.7706   84.9216 C   0  0  0  0  0  0  0  0  0  0  0  0
    4.0577   15.0223   86.1512 O   0  0  0  0  0  0  0  0  0  0  0  0
    5.0197   15.3021   84.0856 N   0  0  0  0  0  0  0  0  0  0  0  0
    6.1720   16.0174   84.6075 C   0  0  0  0  0  0  0  0  0  0  0  0
    4.9323   15.1443   82.6502 C   0  0  0  0  0  0  0  0  0  0  0  0
  1  9  1  0
  1 12  1  6
  2  8  1  0
 12  2  1  0
  2 14  2  0
  3  4  2  0
  3 12  1  0
  4  5  1  0
  4 15  1  0
  5  6  1  0
  5  8  2  0
  6  7  2  0
  7 13  1  0
  8 13  1  0
  9 11  2  3
 10 11  1  1
 15 16  2  0
 15 20  1  0
 16 17  1  0
 17 18  2  0
 18 19  1  0
 19 20  2  0
 19 21  1  0
 21 22  2  0
 21 23  1  0
 24 23  1  1
 25 23  1  1
M  END
$$$$
