
     RDKit          3D

 25 27  0  0  0  0  0  0  0  0999 V2000
    4.4128    7.4357   84.3610 C   0  0  0  0  0  0  0  0  0  0  0  0
    1.9716    7.6155   84.2608 C   0  0  0  0  0  0  0  0  0  0  0  0
    3.1943    9.5550   84.1642 C   0  0  0  0  0  0  0  0  0  0  0  0
    2.0407   10.2948   84.0694 C   0  0  0  0  0  0  0  0  0  0  0  0
    0.8067    9.6573   84.0715 C   0  0  0  0  0  0  0  0  0  0  0  0
   -0.5086   10.1133   83.9958 C   0  0  0  0  0  0  0  0  0  0  0  0
   -1.3274    9.0053   84.0488 C   0  0  0  0  0  0  0  0  0  0  0  0
    0.7754    8.2918   84.1692 C   0  0  0  0  0  0  0  0  0  0  0  0
    4.9265    7.1444   82.9742 C   0  0  0  0  0  0  0  0  0  0  0  0
    6.9408    7.2588   81.5963 C   0  0  0  0  0  0  0  0  0  0  0  0
    6.1721    6.7743   82.7696 C   0  0  0  0  0  0  0  0  0  0  0  0
    3.1719    8.2197   84.2600 N   0  0  0  0  0  0  0  0  0  0  0  0
   -0.5219    7.9369   84.1521 N   0  0  0  0  0  0  0  0  0  0  0  0
    1.9255    6.3627   84.3497 O   0  0  0  0  0  0  0  0  0  0  0  0
    2.0633   11.7574   83.9522 C   0  0  0  0  0  0  0  0  0  0  0  0
    1.0574   12.3840   83.2489 C   0  0  0  0  0  0  0  0  0  0  0  0
    1.0104   13.7674   83.1032 C   0  0  0  0  0  0  0  0  0  0  0  0
    2.0056   14.5244   83.6839 C   0  0  0  0  0  0  0  0  0  0  0  0
    3.0275   13.9318   84.3947 C   0  0  0  0  0  0  0  0  0  0  0  0
    3.0303   12.5566   84.5114 C   0  0  0  0  0  0  0  0  0  0  0  0
    4.0728   14.7452   85.0059 C   0  0  0  0  0  0  0  0  0  0  0  0
    4.0475   14.9738   86.2408 O   0  0  0  0  0  0  0  0  0  0  0  0
    5.1309   15.2940   84.2422 N   0  0  0  0  0  0  0  0  0  0  0  0
    6.2721   15.9586   84.8485 C   0  0  0  0  0  0  0  0  0  0  0  0
    5.1053   15.2067   82.7984 C   0  0  0  0  0  0  0  0  0  0  0  0
  1  9  1  0
  1 12  1  6
  2  8  1  0
 12  2  1  0
  2 14  2  0
  3  4  2  0
  3 12  1  0
  4  5  1  0
  4 15  1  0
  5  6  1  0
  5  8  2  0
  6  7  2  0
  7 13  1  0
  8 13  1  0
  9 11  2  3
 10 11  1  1
 15 16  2  0
 15 20  1  0
 16 17  1  0
 17 18  2  0
 18 19  1  0
 19 20  2  0
 19 21  1  0
 21 22  2  0
 21 23  1  0
 24 23  1  1
 25 23  1  1
M  END
$$$$
