
     RDKit          3D

 25 27  0  0  0  0  0  0  0  0999 V2000
    4.3062    7.0201   82.7665 C   0  0  0  0  0  0  0  0  0  0  0  0
    2.1318    7.2156   83.8780 C   0  0  0  0  0  0  0  0  0  0  0  0
    3.1860    9.1505   83.2369 C   0  0  0  0  0  0  0  0  0  0  0  0
    2.1472    9.8988   83.7349 C   0  0  0  0  0  0  0  0  0  0  0  0
    1.0606    9.2681   84.3271 C   0  0  0  0  0  0  0  0  0  0  0  0
   -0.1151    9.7330   84.9148 C   0  0  0  0  0  0  0  0  0  0  0  0
   -0.8232    8.6284   85.3380 C   0  0  0  0  0  0  0  0  0  0  0  0
    1.0563    7.9006   84.3982 C   0  0  0  0  0  0  0  0  0  0  0  0
    5.4719    7.1032   83.7186 C   0  0  0  0  0  0  0  0  0  0  0  0
    7.4506    8.3459   84.4321 C   0  0  0  0  0  0  0  0  0  0  0  0
    6.5741    7.7448   83.3964 C   0  0  0  0  0  0  0  0  0  0  0  0
    3.1891    7.8132   83.3027 N   0  0  0  0  0  0  0  0  0  0  0  0
   -0.0897    7.5532   85.0108 N   0  0  0  0  0  0  0  0  0  0  0  0
    2.1124    5.9611   83.9512 O   0  0  0  0  0  0  0  0  0  0  0  0
    2.1361   11.3640   83.6531 C   0  0  0  0  0  0  0  0  0  0  0  0
    1.2320   11.9764   82.8127 C   0  0  0  0  0  0  0  0  0  0  0  0
    1.1595   13.3610   82.6901 C   0  0  0  0  0  0  0  0  0  0  0  0
    2.0235   14.1337   83.4364 C   0  0  0  0  0  0  0  0  0  0  0  0
    2.9411   13.5555   84.2875 C   0  0  0  0  0  0  0  0  0  0  0  0
    2.9741   12.1785   84.3746 C   0  0  0  0  0  0  0  0  0  0  0  0
    3.8477   14.3855   85.0731 C   0  0  0  0  0  0  0  0  0  0  0  0
    3.7145   14.4521   86.3203 O   0  0  0  0  0  0  0  0  0  0  0  0
    4.8886   15.1297   84.4676 N   0  0  0  0  0  0  0  0  0  0  0  0
    5.0628   15.2041   83.0268 C   0  0  0  0  0  0  0  0  0  0  0  0
    5.8333   15.8563   85.2875 C   0  0  0  0  0  0  0  0  0  0  0  0
  1  9  1  0
  1 12  1  6
  2  8  1  0
 12  2  1  0
  2 14  2  0
  3  4  2  0
  3 12  1  0
  4  5  1  0
  4 15  1  0
  5  6  1  0
  5  8  2  0
  6  7  2  0
  7 13  1  0
  8 13  1  0
  9 11  2  3
 10 11  1  1
 15 16  2  0
 15 20  1  0
 16 17  1  0
 17 18  2  0
 18 19  1  0
 19 20  2  0
 19 21  1  0
 21 22  2  0
 21 23  1  0
 24 23  1  1
 25 23  1  1
M  END
$$$$
