
     RDKit          3D

 25 27  0  0  0  0  0  0  0  0999 V2000
    4.3339    7.2718   84.5085 C   0  0  0  0  0  0  0  0  0  0  0  0
    1.9260    7.3958   84.0744 C   0  0  0  0  0  0  0  0  0  0  0  0
    3.0760    9.3677   84.3097 C   0  0  0  0  0  0  0  0  0  0  0  0
    1.9200   10.0825   84.1102 C   0  0  0  0  0  0  0  0  0  0  0  0
    0.7230    9.4153   83.8845 C   0  0  0  0  0  0  0  0  0  0  0  0
   -0.5850    9.8416   83.6580 C   0  0  0  0  0  0  0  0  0  0  0  0
   -1.3606    8.7123   83.5042 C   0  0  0  0  0  0  0  0  0  0  0  0
    0.7299    8.0461   83.8670 C   0  0  0  0  0  0  0  0  0  0  0  0
    5.2737    7.5304   83.3588 C   0  0  0  0  0  0  0  0  0  0  0  0
    7.4715    8.3736   82.7047 C   0  0  0  0  0  0  0  0  0  0  0  0
    6.5785    7.5187   83.5257 C   0  0  0  0  0  0  0  0  0  0  0  0
    3.0908    8.0289   84.2940 N   0  0  0  0  0  0  0  0  0  0  0  0
   -0.5378    7.6602   83.6359 N   0  0  0  0  0  0  0  0  0  0  0  0
    1.9153    6.1392   84.0552 O   0  0  0  0  0  0  0  0  0  0  0  0
    1.9035   11.5500   84.1150 C   0  0  0  0  0  0  0  0  0  0  0  0
    0.8018   12.2045   83.6085 C   0  0  0  0  0  0  0  0  0  0  0  0
    0.7137   13.5934   83.5877 C   0  0  0  0  0  0  0  0  0  0  0  0
    1.7666   14.3270   84.0916 C   0  0  0  0  0  0  0  0  0  0  0  0
    2.8847   13.7062   84.6063 C   0  0  0  0  0  0  0  0  0  0  0  0
    2.9249   12.3266   84.6050 C   0  0  0  0  0  0  0  0  0  0  0  0
    3.9905   14.4949   85.1384 C   0  0  0  0  0  0  0  0  0  0  0  0
    4.0256   14.7801   86.3612 O   0  0  0  0  0  0  0  0  0  0  0  0
    5.0414   14.9569   84.3100 N   0  0  0  0  0  0  0  0  0  0  0  0
    6.1946   15.6705   84.8320 C   0  0  0  0  0  0  0  0  0  0  0  0
    4.9957   14.7257   82.8826 C   0  0  0  0  0  0  0  0  0  0  0  0
  1  9  1  0
  1 12  1  6
  2  8  1  0
 12  2  1  0
  2 14  2  0
  3  4  2  0
  3 12  1  0
  4  5  1  0
  4 15  1  0
  5  6  1  0
  5  8  2  0
  6  7  2  0
  7 13  1  0
  8 13  1  0
  9 11  2  3
 10 11  1  1
 15 16  2  0
 15 20  1  0
 16 17  1  0
 17 18  2  0
 18 19  1  0
 19 20  2  0
 19 21  1  0
 21 22  2  0
 21 23  1  0
 24 23  1  1
 25 23  1  1
M  END
$$$$
