
     RDKit          3D

 25 27  0  0  0  0  0  0  0  0999 V2000
    4.6157    7.3969   84.3170 C   0  0  0  0  0  0  0  0  0  0  0  0
    2.2010    7.4217   84.2188 C   0  0  0  0  0  0  0  0  0  0  0  0
    3.3371    9.4354   84.1920 C   0  0  0  0  0  0  0  0  0  0  0  0
    2.1210   10.1280   84.1166 C   0  0  0  0  0  0  0  0  0  0  0  0
    0.9348    9.4235   84.0930 C   0  0  0  0  0  0  0  0  0  0  0  0
   -0.3940    9.8061   84.0199 C   0  0  0  0  0  0  0  0  0  0  0  0
   -1.1318    8.6361   84.0305 C   0  0  0  0  0  0  0  0  0  0  0  0
    0.9500    8.0387   84.1443 C   0  0  0  0  0  0  0  0  0  0  0  0
    5.2524    7.2640   82.9887 C   0  0  0  0  0  0  0  0  0  0  0  0
    7.2950    6.8527   81.6377 C   0  0  0  0  0  0  0  0  0  0  0  0
    6.4793    6.7833   82.8791 C   0  0  0  0  0  0  0  0  0  0  0  0
    3.3425    8.0910   84.2414 N   0  0  0  0  0  0  0  0  0  0  0  0
   -0.3026    7.5825   84.1060 N   0  0  0  0  0  0  0  0  0  0  0  0
    2.2099    6.1678   84.2656 O   0  0  0  0  0  0  0  0  0  0  0  0
    2.0967   11.5836   84.0761 C   0  0  0  0  0  0  0  0  0  0  0  0
    0.9955   12.3235   84.4424 C   0  0  0  0  0  0  0  0  0  0  0  0
    0.9547   13.6902   84.4050 C   0  0  0  0  0  0  0  0  0  0  0  0
    2.0790   14.3666   83.9769 C   0  0  0  0  0  0  0  0  0  0  0  0
    3.2171   13.6866   83.5952 C   0  0  0  0  0  0  0  0  0  0  0  0
    3.2137   12.3045   83.6489 C   0  0  0  0  0  0  0  0  0  0  0  0
    4.4112   14.3990   83.1418 C   0  0  0  0  0  0  0  0  0  0  0  0
    4.4357   14.8119   81.9614 O   0  0  0  0  0  0  0  0  0  0  0  0
    5.5002   14.6157   84.0014 N   0  0  0  0  0  0  0  0  0  0  0  0
    5.5030   14.1989   85.4008 C   0  0  0  0  0  0  0  0  0  0  0  0
    6.6871   15.2864   83.4802 C   0  0  0  0  0  0  0  0  0  0  0  0
  1  9  1  0
 12  1  1  0
  2  8  1  0
 12  2  1  0
  2 14  2  0
  3  4  2  0
  3 12  1  0
  4  5  1  0
  4 15  1  0
  5  6  1  0
  5  8  2  0
  6  7  2  0
  7 13  1  0
  8 13  1  0
  9 11  2  3
 11 10  1  0
 15 16  2  0
 15 20  1  0
 16 17  1  0
 17 18  2  0
 18 19  1  0
 19 20  2  0
 19 21  1  0
 21 22  2  0
 21 23  1  0
 23 24  1  0
 23 25  1  0
M  END
$$$$
