
     RDKit          3D

 25 27  0  0  0  0  0  0  0  0999 V2000
    4.6390    7.4698   84.4796 C   0  0  0  0  0  0  0  0  0  0  0  0
    2.2270    7.4756   84.3266 C   0  0  0  0  0  0  0  0  0  0  0  0
    3.3508    9.4959   84.2769 C   0  0  0  0  0  0  0  0  0  0  0  0
    2.1323   10.1781   84.1577 C   0  0  0  0  0  0  0  0  0  0  0  0
    0.9514    9.4652   84.1244 C   0  0  0  0  0  0  0  0  0  0  0  0
   -0.3778    9.8368   84.0123 C   0  0  0  0  0  0  0  0  0  0  0  0
   -1.1082    8.6623   84.0344 C   0  0  0  0  0  0  0  0  0  0  0  0
    0.9742    8.0821   84.2093 C   0  0  0  0  0  0  0  0  0  0  0  0
    5.3540    7.4014   83.1867 C   0  0  0  0  0  0  0  0  0  0  0  0
    7.4588    7.0758   81.9097 C   0  0  0  0  0  0  0  0  0  0  0  0
    6.6301    7.0578   83.1443 C   0  0  0  0  0  0  0  0  0  0  0  0
    3.3635    8.1532   84.3588 N   0  0  0  0  0  0  0  0  0  0  0  0
   -0.2743    7.6165   84.1538 N   0  0  0  0  0  0  0  0  0  0  0  0
    2.2429    6.2233   84.4038 O   0  0  0  0  0  0  0  0  0  0  0  0
    2.0997   11.6322   84.0816 C   0  0  0  0  0  0  0  0  0  0  0  0
    0.9851   12.3729   84.4030 C   0  0  0  0  0  0  0  0  0  0  0  0
    0.9365   13.7380   84.3319 C   0  0  0  0  0  0  0  0  0  0  0  0
    2.0666   14.4118   83.9153 C   0  0  0  0  0  0  0  0  0  0  0  0
    3.2182   13.7309   83.5780 C   0  0  0  0  0  0  0  0  0  0  0  0
    3.2222   12.3505   83.6648 C   0  0  0  0  0  0  0  0  0  0  0  0
    4.4185   14.4406   83.1371 C   0  0  0  0  0  0  0  0  0  0  0  0
    4.5623   14.6458   81.9117 O   0  0  0  0  0  0  0  0  0  0  0  0
    5.3837   14.8805   84.0573 N   0  0  0  0  0  0  0  0  0  0  0  0
    5.2168   14.7591   85.5028 C   0  0  0  0  0  0  0  0  0  0  0  0
    6.6122   15.4871   83.5544 C   0  0  0  0  0  0  0  0  0  0  0  0
  1  9  1  0
 12  1  1  0
  2  8  1  0
 12  2  1  0
  2 14  2  0
  3  4  2  0
  3 12  1  0
  4  5  1  0
  4 15  1  0
  5  6  1  0
  5  8  2  0
  6  7  2  0
  7 13  1  0
  8 13  1  0
  9 11  2  3
 11 10  1  0
 15 16  2  0
 15 20  1  0
 16 17  1  0
 17 18  2  0
 18 19  1  0
 19 20  2  0
 19 21  1  0
 21 22  2  0
 21 23  1  0
 23 24  1  0
 23 25  1  0
M  END
$$$$
