
     RDKit          3D

 25 27  0  0  0  0  0  0  0  0999 V2000
    4.5252    7.3856   83.4875 C   0  0  0  0  0  0  0  0  0  0  0  0
    2.1532    7.3287   83.9472 C   0  0  0  0  0  0  0  0  0  0  0  0
    3.1873    9.3800   83.6838 C   0  0  0  0  0  0  0  0  0  0  0  0
    1.9649   10.0311   83.8982 C   0  0  0  0  0  0  0  0  0  0  0  0
    0.8284    9.2868   84.1395 C   0  0  0  0  0  0  0  0  0  0  0  0
   -0.4932    9.6242   84.3782 C   0  0  0  0  0  0  0  0  0  0  0  0
   -1.1707    8.4298   84.5443 C   0  0  0  0  0  0  0  0  0  0  0  0
    0.8995    7.9031   84.1695 C   0  0  0  0  0  0  0  0  0  0  0  0
    5.6497    8.3453   83.5319 C   0  0  0  0  0  0  0  0  0  0  0  0
    8.0874    8.8025   83.6551 C   0  0  0  0  0  0  0  0  0  0  0  0
    6.8972    7.9127   83.6015 C   0  0  0  0  0  0  0  0  0  0  0  0
    3.2472    8.0364   83.7148 N   0  0  0  0  0  0  0  0  0  0  0  0
   -0.3130    7.4047   84.4147 N   0  0  0  0  0  0  0  0  0  0  0  0
    2.2131    6.0757   83.9759 O   0  0  0  0  0  0  0  0  0  0  0  0
    1.8851   11.4853   83.8815 C   0  0  0  0  0  0  0  0  0  0  0  0
    0.7051   12.1714   84.0580 C   0  0  0  0  0  0  0  0  0  0  0  0
    0.6124   13.5359   84.0398 C   0  0  0  0  0  0  0  0  0  0  0  0
    1.7647   14.2670   83.8335 C   0  0  0  0  0  0  0  0  0  0  0  0
    2.9812   13.6426   83.6497 C   0  0  0  0  0  0  0  0  0  0  0  0
    3.0281   12.2605   83.6757 C   0  0  0  0  0  0  0  0  0  0  0  0
    4.2049   14.4130   83.4318 C   0  0  0  0  0  0  0  0  0  0  0  0
    4.4443   14.8197   82.2735 O   0  0  0  0  0  0  0  0  0  0  0  0
    5.0883   14.6908   84.4875 N   0  0  0  0  0  0  0  0  0  0  0  0
    6.3370   15.4255   84.3062 C   0  0  0  0  0  0  0  0  0  0  0  0
    4.7500   14.2284   85.8299 C   0  0  0  0  0  0  0  0  0  0  0  0
  1  9  1  0
 12  1  1  0
  2  8  1  0
 12  2  1  0
  2 14  2  0
  3  4  2  0
  3 12  1  0
  4  5  1  0
  4 15  1  0
  5  6  1  0
  5  8  2  0
  6  7  2  0
  7 13  1  0
  8 13  1  0
  9 11  2  3
 11 10  1  0
 15 16  2  0
 15 20  1  0
 16 17  1  0
 17 18  2  0
 18 19  1  0
 19 20  2  0
 19 21  1  0
 21 22  2  0
 21 23  1  0
 23 24  1  0
 23 25  1  0
M  END
$$$$
