
     RDKit          3D

 25 27  0  0  0  0  0  0  0  0999 V2000
    4.6416    7.6875   83.3117 C   0  0  0  0  0  0  0  0  0  0  0  0
    2.3267    7.6106   84.0019 C   0  0  0  0  0  0  0  0  0  0  0  0
    3.3459    9.6709   83.7512 C   0  0  0  0  0  0  0  0  0  0  0  0
    2.1562   10.3120   84.1225 C   0  0  0  0  0  0  0  0  0  0  0  0
    1.0434    9.5580   84.4342 C   0  0  0  0  0  0  0  0  0  0  0  0
   -0.2451    9.8847   84.8221 C   0  0  0  0  0  0  0  0  0  0  0  0
   -0.9124    8.6845   84.9882 C   0  0  0  0  0  0  0  0  0  0  0  0
    1.1060    8.1746   84.3800 C   0  0  0  0  0  0  0  0  0  0  0  0
    4.7714    6.3330   83.8914 C   0  0  0  0  0  0  0  0  0  0  0  0
    6.2365    4.5544   82.9658 C   0  0  0  0  0  0  0  0  0  0  0  0
    5.9322    5.7007   83.8629 C   0  0  0  0  0  0  0  0  0  0  0  0
    3.3977    8.3275   83.7012 N   0  0  0  0  0  0  0  0  0  0  0  0
   -0.0800    7.6662   84.7168 N   0  0  0  0  0  0  0  0  0  0  0  0
    2.3790    6.3578   83.9547 O   0  0  0  0  0  0  0  0  0  0  0  0
    2.0868   11.7649   84.1948 C   0  0  0  0  0  0  0  0  0  0  0  0
    1.3380   12.4317   85.1377 C   0  0  0  0  0  0  0  0  0  0  0  0
    1.2580   13.7949   85.2157 C   0  0  0  0  0  0  0  0  0  0  0  0
    1.9669   14.5451   84.2995 C   0  0  0  0  0  0  0  0  0  0  0  0
    2.7376   13.9407   83.3279 C   0  0  0  0  0  0  0  0  0  0  0  0
    2.7891   12.5591   83.2861 C   0  0  0  0  0  0  0  0  0  0  0  0
    3.4912   14.7314   82.3555 C   0  0  0  0  0  0  0  0  0  0  0  0
    2.8757   15.1894   81.3677 O   0  0  0  0  0  0  0  0  0  0  0  0
    4.8647   14.9725   82.5209 N   0  0  0  0  0  0  0  0  0  0  0  0
    5.6607   15.7270   81.5569 C   0  0  0  0  0  0  0  0  0  0  0  0
    5.5344   14.4492   83.7074 C   0  0  0  0  0  0  0  0  0  0  0  0
  1  9  1  0
 12  1  1  0
  2  8  1  0
 12  2  1  0
  2 14  2  0
  3  4  2  0
  3 12  1  0
  4  5  1  0
  4 15  1  0
  5  6  1  0
  5  8  2  0
  6  7  2  0
  7 13  1  0
  8 13  1  0
  9 11  2  3
 11 10  1  0
 15 16  2  0
 15 20  1  0
 16 17  1  0
 17 18  2  0
 18 19  1  0
 19 20  2  0
 19 21  1  0
 21 22  2  0
 21 23  1  0
 23 24  1  0
 23 25  1  0
M  END
$$$$
