
     RDKit          3D

 25 27  0  0  0  0  0  0  0  0999 V2000
    4.2927    7.2116   84.7918 C   0  0  0  0  0  0  0  0  0  0  0  0
    1.8866    7.4627   84.4053 C   0  0  0  0  0  0  0  0  0  0  0  0
    3.1660    9.3665   84.4736 C   0  0  0  0  0  0  0  0  0  0  0  0
    2.0529   10.1401   84.2504 C   0  0  0  0  0  0  0  0  0  0  0  0
    0.8100    9.5386   84.1002 C   0  0  0  0  0  0  0  0  0  0  0  0
   -0.4738   10.0330   83.8740 C   0  0  0  0  0  0  0  0  0  0  0  0
   -1.3238    8.9489   83.8186 C   0  0  0  0  0  0  0  0  0  0  0  0
    0.7292    8.1740   84.1797 C   0  0  0  0  0  0  0  0  0  0  0  0
    5.1834    7.2730   83.5773 C   0  0  0  0  0  0  0  0  0  0  0  0
    7.4694    7.8178   82.9092 C   0  0  0  0  0  0  0  0  0  0  0  0
    6.4709    7.0160   83.6591 C   0  0  0  0  0  0  0  0  0  0  0  0
    3.0950    8.0319   84.5526 N   0  0  0  0  0  0  0  0  0  0  0  0
   -0.5664    7.8569   84.0057 N   0  0  0  0  0  0  0  0  0  0  0  0
    1.7953    6.2112   84.4755 O   0  0  0  0  0  0  0  0  0  0  0  0
    2.1301   11.6022   84.1515 C   0  0  0  0  0  0  0  0  0  0  0  0
    2.8980   12.2911   85.0651 C   0  0  0  0  0  0  0  0  0  0  0  0
    3.0236   13.6767   85.0275 C   0  0  0  0  0  0  0  0  0  0  0  0
    2.3549   14.3715   84.0421 C   0  0  0  0  0  0  0  0  0  0  0  0
    1.5776   13.7156   83.1113 C   0  0  0  0  0  0  0  0  0  0  0  0
    1.4847   12.3408   83.1900 C   0  0  0  0  0  0  0  0  0  0  0  0
    0.8775   14.4631   82.0727 C   0  0  0  0  0  0  0  0  0  0  0  0
    1.5294   15.0300   81.1609 O   0  0  0  0  0  0  0  0  0  0  0  0
   -0.5338   14.5728   82.0578 N   0  0  0  0  0  0  0  0  0  0  0  0
   -1.3807   13.9222   83.0433 C   0  0  0  0  0  0  0  0  0  0  0  0
   -1.1904   15.3561   81.0339 C   0  0  0  0  0  0  0  0  0  0  0  0
  1  9  1  0
  1 12  1  6
  2  8  1  0
 12  2  1  0
  2 14  2  0
  3  4  2  0
  3 12  1  0
  4  5  1  0
  4 15  1  0
  5  6  1  0
  5  8  2  0
  6  7  2  0
  7 13  1  0
  8 13  1  0
  9 11  2  3
 10 11  1  1
 15 16  2  0
 15 20  1  0
 16 17  1  0
 17 18  2  0
 18 19  1  0
 19 20  2  0
 19 21  1  0
 21 22  2  0
 21 23  1  0
 24 23  1  1
 25 23  1  1
M  END
$$$$
