
     RDKit          3D

 25 27  0  0  0  0  0  0  0  0999 V2000
    4.3693    7.2053   83.0792 C   0  0  0  0  0  0  0  0  0  0  0  0
    2.1440    7.1330   84.1012 C   0  0  0  0  0  0  0  0  0  0  0  0
    3.0312    9.1912   83.6087 C   0  0  0  0  0  0  0  0  0  0  0  0
    1.9063    9.8095   84.0979 C   0  0  0  0  0  0  0  0  0  0  0  0
    0.8631    9.0473   84.6077 C   0  0  0  0  0  0  0  0  0  0  0  0
   -0.3742    9.3660   85.1656 C   0  0  0  0  0  0  0  0  0  0  0  0
   -0.9887    8.1777   85.4992 C   0  0  0  0  0  0  0  0  0  0  0  0
    0.9878    7.6837   84.6077 C   0  0  0  0  0  0  0  0  0  0  0  0
    5.5420    7.5553   83.9591 C   0  0  0  0  0  0  0  0  0  0  0  0
    7.3984    6.8915   85.4021 C   0  0  0  0  0  0  0  0  0  0  0  0
    6.0689    6.6728   84.7801 C   0  0  0  0  0  0  0  0  0  0  0  0
    3.1606    7.8586   83.6054 N   0  0  0  0  0  0  0  0  0  0  0  0
   -0.1426    7.1963   85.1498 N   0  0  0  0  0  0  0  0  0  0  0  0
    2.2428    5.8801   84.1085 O   0  0  0  0  0  0  0  0  0  0  0  0
    1.7573   11.2694   84.0916 C   0  0  0  0  0  0  0  0  0  0  0  0
    0.5438   11.8157   84.4491 C   0  0  0  0  0  0  0  0  0  0  0  0
    0.3324   13.1912   84.4733 C   0  0  0  0  0  0  0  0  0  0  0  0
    1.3755   14.0234   84.1268 C   0  0  0  0  0  0  0  0  0  0  0  0
    2.6033   13.5122   83.7638 C   0  0  0  0  0  0  0  0  0  0  0  0
    2.7638   12.1414   83.7555 C   0  0  0  0  0  0  0  0  0  0  0  0
    3.6990   14.4045   83.4018 C   0  0  0  0  0  0  0  0  0  0  0  0
    3.6609   15.0358   82.3166 O   0  0  0  0  0  0  0  0  0  0  0  0
    4.8211   14.5856   84.2457 N   0  0  0  0  0  0  0  0  0  0  0  0
    4.9662   13.8940   85.5155 C   0  0  0  0  0  0  0  0  0  0  0  0
    5.8831   15.4882   83.8578 C   0  0  0  0  0  0  0  0  0  0  0  0
  1  9  1  0
  1 12  1  6
  2  8  1  0
 12  2  1  0
  2 14  2  0
  3  4  2  0
  3 12  1  0
  4  5  1  0
  4 15  1  0
  5  6  1  0
  5  8  2  0
  6  7  2  0
  7 13  1  0
  8 13  1  0
  9 11  2  3
 10 11  1  1
 15 16  2  0
 15 20  1  0
 16 17  1  0
 17 18  2  0
 18 19  1  0
 19 20  2  0
 19 21  1  0
 21 22  2  0
 21 23  1  0
 24 23  1  1
 25 23  1  1
M  END
$$$$
