
     RDKit          3D

 25 27  0  0  0  0  0  0  0  0999 V2000
    4.2217    7.4223   84.2907 C   0  0  0  0  0  0  0  0  0  0  0  0
    1.7856    7.5144   84.0485 C   0  0  0  0  0  0  0  0  0  0  0  0
    2.9303    9.5015   84.1345 C   0  0  0  0  0  0  0  0  0  0  0  0
    1.7548   10.2010   84.0086 C   0  0  0  0  0  0  0  0  0  0  0  0
    0.5504    9.5179   83.8990 C   0  0  0  0  0  0  0  0  0  0  0  0
   -0.7758    9.9270   83.7665 C   0  0  0  0  0  0  0  0  0  0  0  0
   -1.5496    8.7875   83.7077 C   0  0  0  0  0  0  0  0  0  0  0  0
    0.5700    8.1489   83.9197 C   0  0  0  0  0  0  0  0  0  0  0  0
    5.2549    8.0401   83.3836 C   0  0  0  0  0  0  0  0  0  0  0  0
    7.6160    8.2592   82.7956 C   0  0  0  0  0  0  0  0  0  0  0  0
    6.4232    7.4683   83.1878 C   0  0  0  0  0  0  0  0  0  0  0  0
    2.9577    8.1630   84.1556 N   0  0  0  0  0  0  0  0  0  0  0  0
   -0.7080    7.7463   83.8025 N   0  0  0  0  0  0  0  0  0  0  0  0
    1.7863    6.2577   84.0658 O   0  0  0  0  0  0  0  0  0  0  0  0
    1.7236   11.6677   83.9732 C   0  0  0  0  0  0  0  0  0  0  0  0
    0.6086   12.2973   83.4640 C   0  0  0  0  0  0  0  0  0  0  0  0
    0.5063   13.6841   83.4062 C   0  0  0  0  0  0  0  0  0  0  0  0
    1.5584   14.4416   83.8752 C   0  0  0  0  0  0  0  0  0  0  0  0
    2.6896   13.8462   84.3915 C   0  0  0  0  0  0  0  0  0  0  0  0
    2.7436   12.4675   84.4276 C   0  0  0  0  0  0  0  0  0  0  0  0
    3.7944   14.6600   84.8864 C   0  0  0  0  0  0  0  0  0  0  0  0
    3.9346   14.8421   86.1213 O   0  0  0  0  0  0  0  0  0  0  0  0
    4.7281   15.2605   84.0080 N   0  0  0  0  0  0  0  0  0  0  0  0
    4.5760   15.2306   82.5631 C   0  0  0  0  0  0  0  0  0  0  0  0
    5.8909   15.9388   84.5378 C   0  0  0  0  0  0  0  0  0  0  0  0
  1  9  1  0
  1 12  1  6
  2  8  1  0
 12  2  1  0
  2 14  2  0
  3  4  2  0
  3 12  1  0
  4  5  1  0
  4 15  1  0
  5  6  1  0
  5  8  2  0
  6  7  2  0
  7 13  1  0
  8 13  1  0
  9 11  2  3
 10 11  1  1
 15 16  2  0
 15 20  1  0
 16 17  1  0
 17 18  2  0
 18 19  1  0
 19 20  2  0
 19 21  1  0
 21 22  2  0
 21 23  1  0
 24 23  1  1
 25 23  1  1
M  END
$$$$
