
     RDKit          3D

 25 27  0  0  0  0  0  0  0  0999 V2000
    4.1060    7.2516   82.8822 C   0  0  0  0  0  0  0  0  0  0  0  0
    1.8492    7.3194   83.8331 C   0  0  0  0  0  0  0  0  0  0  0  0
    2.8584    9.3164   83.3239 C   0  0  0  0  0  0  0  0  0  0  0  0
    1.7529   10.0037   83.7626 C   0  0  0  0  0  0  0  0  0  0  0  0
    0.6557    9.3091   84.2552 C   0  0  0  0  0  0  0  0  0  0  0  0
   -0.5799    9.7048   84.7656 C   0  0  0  0  0  0  0  0  0  0  0  0
   -1.2662    8.5584   85.1053 C   0  0  0  0  0  0  0  0  0  0  0  0
    0.7083    7.9412   84.2895 C   0  0  0  0  0  0  0  0  0  0  0  0
    5.2943    7.6524   83.7184 C   0  0  0  0  0  0  0  0  0  0  0  0
    7.6677    7.5323   84.2852 C   0  0  0  0  0  0  0  0  0  0  0  0
    6.4429    7.0184   83.6234 C   0  0  0  0  0  0  0  0  0  0  0  0
    2.9176    7.9791   83.3544 N   0  0  0  0  0  0  0  0  0  0  0  0
   -0.4625    7.5263   84.8055 N   0  0  0  0  0  0  0  0  0  0  0  0
    1.8815    6.0635   83.8714 O   0  0  0  0  0  0  0  0  0  0  0  0
    1.6812   11.4688   83.7191 C   0  0  0  0  0  0  0  0  0  0  0  0
    0.4434   12.0736   83.6900 C   0  0  0  0  0  0  0  0  0  0  0  0
    0.2992   13.4576   83.6558 C   0  0  0  0  0  0  0  0  0  0  0  0
    1.4359   14.2376   83.6508 C   0  0  0  0  0  0  0  0  0  0  0  0
    2.6907   13.6672   83.6793 C   0  0  0  0  0  0  0  0  0  0  0  0
    2.7818   12.2905   83.7129 C   0  0  0  0  0  0  0  0  0  0  0  0
    3.8850   14.5048   83.6760 C   0  0  0  0  0  0  0  0  0  0  0  0
    4.2906   15.0139   82.6018 O   0  0  0  0  0  0  0  0  0  0  0  0
    4.6132   14.7671   84.8613 N   0  0  0  0  0  0  0  0  0  0  0  0
    4.1785   14.3011   86.1673 C   0  0  0  0  0  0  0  0  0  0  0  0
    5.8431   15.5267   84.8046 C   0  0  0  0  0  0  0  0  0  0  0  0
  1  9  1  0
  1 12  1  6
  2  8  1  0
 12  2  1  0
  2 14  2  0
  3  4  2  0
  3 12  1  0
  4  5  1  0
  4 15  1  0
  5  6  1  0
  5  8  2  0
  6  7  2  0
  7 13  1  0
  8 13  1  0
  9 11  2  3
 10 11  1  1
 15 16  2  0
 15 20  1  0
 16 17  1  0
 17 18  2  0
 18 19  1  0
 19 20  2  0
 19 21  1  0
 21 22  2  0
 21 23  1  0
 24 23  1  1
 25 23  1  1
M  END
$$$$
