
     RDKit          3D

 25 27  0  0  0  0  0  0  0  0999 V2000
    4.4862    7.2122   83.8782 C   0  0  0  0  0  0  0  0  0  0  0  0
    2.1081    7.2383   84.3078 C   0  0  0  0  0  0  0  0  0  0  0  0
    3.1843    9.2397   83.8803 C   0  0  0  0  0  0  0  0  0  0  0  0
    1.9719    9.9290   84.0197 C   0  0  0  0  0  0  0  0  0  0  0  0
    0.8185    9.2291   84.3093 C   0  0  0  0  0  0  0  0  0  0  0  0
   -0.4992    9.6099   84.4991 C   0  0  0  0  0  0  0  0  0  0  0  0
   -1.2014    8.4469   84.7596 C   0  0  0  0  0  0  0  0  0  0  0  0
    0.8629    7.8524   84.4614 C   0  0  0  0  0  0  0  0  0  0  0  0
    4.7482    6.8400   82.4709 C   0  0  0  0  0  0  0  0  0  0  0  0
    6.1316    5.6382   80.7951 C   0  0  0  0  0  0  0  0  0  0  0  0
    5.6726    5.9417   82.1766 C   0  0  0  0  0  0  0  0  0  0  0  0
    3.2181    7.9032   84.0296 N   0  0  0  0  0  0  0  0  0  0  0  0
   -0.3618    7.3992   84.7323 N   0  0  0  0  0  0  0  0  0  0  0  0
    2.1437    5.9918   84.4470 O   0  0  0  0  0  0  0  0  0  0  0  0
    1.9200   11.3772   83.8746 C   0  0  0  0  0  0  0  0  0  0  0  0
    0.7736   12.0528   83.5233 C   0  0  0  0  0  0  0  0  0  0  0  0
    0.7095   13.4113   83.3777 C   0  0  0  0  0  0  0  0  0  0  0  0
    1.8568   14.1472   83.5950 C   0  0  0  0  0  0  0  0  0  0  0  0
    3.0403   13.5332   83.9498 C   0  0  0  0  0  0  0  0  0  0  0  0
    3.0590   12.1569   84.0856 C   0  0  0  0  0  0  0  0  0  0  0  0
    4.2582   14.3088   84.1821 C   0  0  0  0  0  0  0  0  0  0  0  0
    5.1718   14.2360   83.3310 O   0  0  0  0  0  0  0  0  0  0  0  0
    4.4029   15.1126   85.3244 N   0  0  0  0  0  0  0  0  0  0  0  0
    3.3511   15.2677   86.3252 C   0  0  0  0  0  0  0  0  0  0  0  0
    5.6585   15.8281   85.5284 C   0  0  0  0  0  0  0  0  0  0  0  0
  1  9  1  0
 12  1  1  0
  2  8  1  0
 12  2  1  0
  2 14  2  0
  3  4  2  0
  3 12  1  0
  4  5  1  0
  4 15  1  0
  5  6  1  0
  5  8  2  0
  6  7  2  0
  7 13  1  0
  8 13  1  0
  9 11  2  3
 11 10  1  0
 15 16  2  0
 15 20  1  0
 16 17  1  0
 17 18  2  0
 18 19  1  0
 19 20  2  0
 19 21  1  0
 21 22  2  0
 21 23  1  0
 23 24  1  0
 23 25  1  0
M  END
$$$$
