
     RDKit          3D

 25 27  0  0  0  0  0  0  0  0999 V2000
    4.3047    7.2482   83.3801 C   0  0  0  0  0  0  0  0  0  0  0  0
    1.9450    7.2624   84.0381 C   0  0  0  0  0  0  0  0  0  0  0  0
    3.0256    9.2805   83.8783 C   0  0  0  0  0  0  0  0  0  0  0  0
    1.8777    9.9406   84.2439 C   0  0  0  0  0  0  0  0  0  0  0  0
    0.7213    9.2210   84.5157 C   0  0  0  0  0  0  0  0  0  0  0  0
   -0.5668    9.5864   84.9043 C   0  0  0  0  0  0  0  0  0  0  0  0
   -1.2993    8.4251   85.0293 C   0  0  0  0  0  0  0  0  0  0  0  0
    0.7593    7.8563   84.4097 C   0  0  0  0  0  0  0  0  0  0  0  0
    5.3986    7.5920   84.3585 C   0  0  0  0  0  0  0  0  0  0  0  0
    7.7048    7.4558   85.1535 C   0  0  0  0  0  0  0  0  0  0  0  0
    6.5741    7.0040   84.3050 C   0  0  0  0  0  0  0  0  0  0  0  0
    3.0707    7.9465   83.7725 N   0  0  0  0  0  0  0  0  0  0  0  0
   -0.4711    7.4138   84.7252 N   0  0  0  0  0  0  0  0  0  0  0  0
    1.9632    6.0091   83.9454 O   0  0  0  0  0  0  0  0  0  0  0  0
    1.8227   11.4033   84.3488 C   0  0  0  0  0  0  0  0  0  0  0  0
    0.6318   12.0447   84.0859 C   0  0  0  0  0  0  0  0  0  0  0  0
    0.5039   13.4280   84.1729 C   0  0  0  0  0  0  0  0  0  0  0  0
    1.6088   14.1694   84.5338 C   0  0  0  0  0  0  0  0  0  0  0  0
    2.8164   13.5618   84.8041 C   0  0  0  0  0  0  0  0  0  0  0  0
    2.8929   12.1873   84.7043 C   0  0  0  0  0  0  0  0  0  0  0  0
    3.9767   14.3585   85.1871 C   0  0  0  0  0  0  0  0  0  0  0  0
    4.3100   14.4398   86.3954 O   0  0  0  0  0  0  0  0  0  0  0  0
    4.7516   15.0537   84.2278 N   0  0  0  0  0  0  0  0  0  0  0  0
    5.9887   15.7369   84.5660 C   0  0  0  0  0  0  0  0  0  0  0  0
    4.3223   15.1054   82.8472 C   0  0  0  0  0  0  0  0  0  0  0  0
  1  9  1  0
  1 12  1  6
  2  8  1  0
 12  2  1  0
  2 14  2  0
  3  4  2  0
  3 12  1  0
  4  5  1  0
  4 15  1  0
  5  6  1  0
  5  8  2  0
  6  7  2  0
  7 13  1  0
  8 13  1  0
  9 11  2  3
 10 11  1  1
 15 16  2  0
 15 20  1  0
 16 17  1  0
 17 18  2  0
 18 19  1  0
 19 20  2  0
 19 21  1  0
 21 22  2  0
 21 23  1  0
 24 23  1  1
 25 23  1  1
M  END
$$$$
