
     RDKit          3D

 25 27  0  0  0  0  0  0  0  0999 V2000
    4.6175    7.2777   83.4506 C   0  0  0  0  0  0  0  0  0  0  0  0
    2.2508    7.1739   83.9294 C   0  0  0  0  0  0  0  0  0  0  0  0
    3.2934    9.2377   83.9100 C   0  0  0  0  0  0  0  0  0  0  0  0
    2.0773    9.8622   84.2190 C   0  0  0  0  0  0  0  0  0  0  0  0
    0.9395    9.0984   84.3802 C   0  0  0  0  0  0  0  0  0  0  0  0
   -0.3772    9.4090   84.6756 C   0  0  0  0  0  0  0  0  0  0  0  0
   -1.0595    8.2061   84.7004 C   0  0  0  0  0  0  0  0  0  0  0  0
    1.0031    7.7214   84.2371 C   0  0  0  0  0  0  0  0  0  0  0  0
    5.6500    7.5703   84.4683 C   0  0  0  0  0  0  0  0  0  0  0  0
    8.0745    7.8156   84.9462 C   0  0  0  0  0  0  0  0  0  0  0  0
    6.9017    7.1873   84.2820 C   0  0  0  0  0  0  0  0  0  0  0  0
    3.3459    7.9005   83.7730 N   0  0  0  0  0  0  0  0  0  0  0  0
   -0.2092    7.2014   84.4336 N   0  0  0  0  0  0  0  0  0  0  0  0
    2.3039    5.9268   83.8014 O   0  0  0  0  0  0  0  0  0  0  0  0
    2.0056   11.3075   84.3842 C   0  0  0  0  0  0  0  0  0  0  0  0
    0.8185   12.0037   84.3690 C   0  0  0  0  0  0  0  0  0  0  0  0
    0.7345   13.3609   84.5173 C   0  0  0  0  0  0  0  0  0  0  0  0
    1.9035   14.0732   84.6923 C   0  0  0  0  0  0  0  0  0  0  0  0
    3.1279   13.4378   84.7176 C   0  0  0  0  0  0  0  0  0  0  0  0
    3.1656   12.0638   84.5635 C   0  0  0  0  0  0  0  0  0  0  0  0
    4.3692   14.1883   84.9038 C   0  0  0  0  0  0  0  0  0  0  0  0
    4.8920   14.1857   86.0400 O   0  0  0  0  0  0  0  0  0  0  0  0
    4.9607   14.8922   83.8425 N   0  0  0  0  0  0  0  0  0  0  0  0
    4.3518   14.9939   82.5193 C   0  0  0  0  0  0  0  0  0  0  0  0
    6.2417   15.5557   84.0638 C   0  0  0  0  0  0  0  0  0  0  0  0
  1  9  1  0
 12  1  1  0
  2  8  1  0
 12  2  1  0
  2 14  2  0
  3  4  2  0
  3 12  1  0
  4  5  1  0
  4 15  1  0
  5  6  1  0
  5  8  2  0
  6  7  2  0
  7 13  1  0
  8 13  1  0
  9 11  2  3
 11 10  1  0
 15 16  2  0
 15 20  1  0
 16 17  1  0
 17 18  2  0
 18 19  1  0
 19 20  2  0
 19 21  1  0
 21 22  2  0
 21 23  1  0
 23 24  1  0
 23 25  1  0
M  END
$$$$
