
     RDKit          3D

 25 27  0  0  0  0  0  0  0  0999 V2000
    4.3370    7.4030   83.2435 C   0  0  0  0  0  0  0  0  0  0  0  0
    2.0526    7.4305   84.1281 C   0  0  0  0  0  0  0  0  0  0  0  0
    3.0055    9.4385   83.5573 C   0  0  0  0  0  0  0  0  0  0  0  0
    1.8642   10.1038   83.9340 C   0  0  0  0  0  0  0  0  0  0  0  0
    0.7782    9.3922   84.4272 C   0  0  0  0  0  0  0  0  0  0  0  0
   -0.4848    9.7648   84.8851 C   0  0  0  0  0  0  0  0  0  0  0  0
   -1.1400    8.6103   85.2574 C   0  0  0  0  0  0  0  0  0  0  0  0
    0.8779    8.0300   84.5246 C   0  0  0  0  0  0  0  0  0  0  0  0
    5.5021    7.9490   84.0285 C   0  0  0  0  0  0  0  0  0  0  0  0
    7.8309    7.8969   84.7652 C   0  0  0  0  0  0  0  0  0  0  0  0
    6.6536    7.3146   84.0746 C   0  0  0  0  0  0  0  0  0  0  0  0
    3.1106    8.1070   83.6496 N   0  0  0  0  0  0  0  0  0  0  0  0
   -0.2922    7.5959   85.0265 N   0  0  0  0  0  0  0  0  0  0  0  0
    2.1279    6.1796   84.2239 O   0  0  0  0  0  0  0  0  0  0  0  0
    1.7424   11.5621   83.8225 C   0  0  0  0  0  0  0  0  0  0  0  0
    0.4849   12.1210   83.7520 C   0  0  0  0  0  0  0  0  0  0  0  0
    0.2933   13.4961   83.6527 C   0  0  0  0  0  0  0  0  0  0  0  0
    1.4023   14.3146   83.6245 C   0  0  0  0  0  0  0  0  0  0  0  0
    2.6756   13.7905   83.6930 C   0  0  0  0  0  0  0  0  0  0  0  0
    2.8139   12.4207   83.7908 C   0  0  0  0  0  0  0  0  0  0  0  0
    3.8401   14.6685   83.6645 C   0  0  0  0  0  0  0  0  0  0  0  0
    4.1120   15.3155   82.6227 O   0  0  0  0  0  0  0  0  0  0  0  0
    4.6870   14.8181   84.7889 N   0  0  0  0  0  0  0  0  0  0  0  0
    5.8628   15.6721   84.7762 C   0  0  0  0  0  0  0  0  0  0  0  0
    4.3987   14.1061   86.0148 C   0  0  0  0  0  0  0  0  0  0  0  0
  1  9  1  0
  1 12  1  6
  2  8  1  0
 12  2  1  0
  2 14  2  0
  3  4  2  0
  3 12  1  0
  4  5  1  0
  4 15  1  0
  5  6  1  0
  5  8  2  0
  6  7  2  0
  7 13  1  0
  8 13  1  0
  9 11  2  3
 10 11  1  1
 15 16  2  0
 15 20  1  0
 16 17  1  0
 17 18  2  0
 18 19  1  0
 19 20  2  0
 19 21  1  0
 21 22  2  0
 21 23  1  0
 24 23  1  1
 25 23  1  1
M  END
$$$$
