
     RDKit          3D

 25 27  0  0  0  0  0  0  0  0999 V2000
    4.6977    7.5011   84.6361 C   0  0  0  0  0  0  0  0  0  0  0  0
    2.2647    7.5999   84.3666 C   0  0  0  0  0  0  0  0  0  0  0  0
    3.4357    9.5707   84.2633 C   0  0  0  0  0  0  0  0  0  0  0  0
    2.2707   10.2692   84.0590 C   0  0  0  0  0  0  0  0  0  0  0  0
    1.0579    9.5941   84.0084 C   0  0  0  0  0  0  0  0  0  0  0  0
   -0.2617   10.0050   83.8252 C   0  0  0  0  0  0  0  0  0  0  0  0
   -1.0505    8.8753   83.8741 C   0  0  0  0  0  0  0  0  0  0  0  0
    1.0588    8.2338   84.1655 C   0  0  0  0  0  0  0  0  0  0  0  0
    5.5502    7.5982   83.3968 C   0  0  0  0  0  0  0  0  0  0  0  0
    6.8902    6.5925   81.6186 C   0  0  0  0  0  0  0  0  0  0  0  0
    5.8961    6.5256   82.7185 C   0  0  0  0  0  0  0  0  0  0  0  0
    3.4448    8.2408   84.4178 N   0  0  0  0  0  0  0  0  0  0  0  0
   -0.2238    7.8380   84.0788 N   0  0  0  0  0  0  0  0  0  0  0  0
    2.2483    6.3513   84.5090 O   0  0  0  0  0  0  0  0  0  0  0  0
    2.2596   11.7254   83.8774 C   0  0  0  0  0  0  0  0  0  0  0  0
    1.0599   12.3975   83.9649 C   0  0  0  0  0  0  0  0  0  0  0  0
    0.9749   13.7783   83.8112 C   0  0  0  0  0  0  0  0  0  0  0  0
    2.1323   14.4852   83.5638 C   0  0  0  0  0  0  0  0  0  0  0  0
    3.3503   13.8462   83.4697 C   0  0  0  0  0  0  0  0  0  0  0  0
    3.3831   12.4757   83.6298 C   0  0  0  0  0  0  0  0  0  0  0  0
    4.5674   14.6071   83.2100 C   0  0  0  0  0  0  0  0  0  0  0  0
    4.8672   14.9274   82.0330 O   0  0  0  0  0  0  0  0  0  0  0  0
    5.4354   15.0025   84.2560 N   0  0  0  0  0  0  0  0  0  0  0  0
    5.1103   14.8094   85.6591 C   0  0  0  0  0  0  0  0  0  0  0  0
    6.7040   15.6268   83.9498 C   0  0  0  0  0  0  0  0  0  0  0  0
  1  9  1  0
  1 12  1  6
  2  8  1  0
 12  2  1  0
  2 14  2  0
  3  4  2  0
  3 12  1  0
  4  5  1  0
  4 15  1  0
  5  6  1  0
  5  8  2  0
  6  7  2  0
  7 13  1  0
  8 13  1  0
  9 11  2  3
 10 11  1  1
 15 16  2  0
 15 20  1  0
 16 17  1  0
 17 18  2  0
 18 19  1  0
 19 20  2  0
 19 21  1  0
 21 22  2  0
 21 23  1  0
 24 23  1  1
 25 23  1  1
M  END
$$$$
