
     RDKit          3D

 25 27  0  0  0  0  0  0  0  0999 V2000
    4.3014    7.3456   83.2199 C   0  0  0  0  0  0  0  0  0  0  0  0
    1.9508    7.4188   83.9062 C   0  0  0  0  0  0  0  0  0  0  0  0
    3.0707    9.4113   83.7024 C   0  0  0  0  0  0  0  0  0  0  0  0
    1.9414   10.1007   84.0718 C   0  0  0  0  0  0  0  0  0  0  0  0
    0.7739    9.4094   84.3686 C   0  0  0  0  0  0  0  0  0  0  0  0
   -0.5015    9.8074   84.7672 C   0  0  0  0  0  0  0  0  0  0  0  0
   -1.2562    8.6636   84.9188 C   0  0  0  0  0  0  0  0  0  0  0  0
    0.7824    8.0428   84.2831 C   0  0  0  0  0  0  0  0  0  0  0  0
    5.4078    7.6632   84.1930 C   0  0  0  0  0  0  0  0  0  0  0  0
    7.7193    7.4780   84.9622 C   0  0  0  0  0  0  0  0  0  0  0  0
    6.5624    7.0346   84.1454 C   0  0  0  0  0  0  0  0  0  0  0  0
    3.0871    8.0753   83.6165 N   0  0  0  0  0  0  0  0  0  0  0  0
   -0.4528    7.6308   84.6202 N   0  0  0  0  0  0  0  0  0  0  0  0
    1.9420    6.1642   83.8325 O   0  0  0  0  0  0  0  0  0  0  0  0
    1.9179   11.5656   84.1549 C   0  0  0  0  0  0  0  0  0  0  0  0
    0.7284   12.2254   83.9342 C   0  0  0  0  0  0  0  0  0  0  0  0
    0.6299   13.6120   84.0040 C   0  0  0  0  0  0  0  0  0  0  0  0
    1.7630   14.3378   84.3036 C   0  0  0  0  0  0  0  0  0  0  0  0
    2.9701   13.7116   84.5304 C   0  0  0  0  0  0  0  0  0  0  0  0
    3.0170   12.3346   84.4500 C   0  0  0  0  0  0  0  0  0  0  0  0
    4.1607   14.4920   84.8488 C   0  0  0  0  0  0  0  0  0  0  0  0
    4.5312   14.6113   86.0430 O   0  0  0  0  0  0  0  0  0  0  0  0
    4.9242   15.1293   83.8413 N   0  0  0  0  0  0  0  0  0  0  0  0
    6.1705   15.8216   84.1228 C   0  0  0  0  0  0  0  0  0  0  0  0
    4.4734   15.1091   82.4668 C   0  0  0  0  0  0  0  0  0  0  0  0
  1  9  1  0
  1 12  1  6
  2  8  1  0
 12  2  1  0
  2 14  2  0
  3  4  2  0
  3 12  1  0
  4  5  1  0
  4 15  1  0
  5  6  1  0
  5  8  2  0
  6  7  2  0
  7 13  1  0
  8 13  1  0
  9 11  2  3
 10 11  1  1
 15 16  2  0
 15 20  1  0
 16 17  1  0
 17 18  2  0
 18 19  1  0
 19 20  2  0
 19 21  1  0
 21 22  2  0
 21 23  1  0
 24 23  1  1
 25 23  1  1
M  END
$$$$
