
     RDKit          3D

 25 27  0  0  0  0  0  0  0  0999 V2000
    4.8938    7.2591   84.4799 C   0  0  0  0  0  0  0  0  0  0  0  0
    2.4777    7.3153   84.4593 C   0  0  0  0  0  0  0  0  0  0  0  0
    3.6389    9.3116   84.3443 C   0  0  0  0  0  0  0  0  0  0  0  0
    2.4302   10.0191   84.2906 C   0  0  0  0  0  0  0  0  0  0  0  0
    1.2347    9.3309   84.3235 C   0  0  0  0  0  0  0  0  0  0  0  0
   -0.0907    9.7302   84.2837 C   0  0  0  0  0  0  0  0  0  0  0  0
   -0.8431    8.5713   84.3481 C   0  0  0  0  0  0  0  0  0  0  0  0
    1.2332    7.9478   84.4097 C   0  0  0  0  0  0  0  0  0  0  0  0
    5.5383    7.1804   83.1511 C   0  0  0  0  0  0  0  0  0  0  0  0
    7.4207    6.4394   81.7109 C   0  0  0  0  0  0  0  0  0  0  0  0
    6.7017    6.5691   83.0061 C   0  0  0  0  0  0  0  0  0  0  0  0
    3.6281    7.9690   84.4279 N   0  0  0  0  0  0  0  0  0  0  0  0
   -0.0259    7.5083   84.4236 N   0  0  0  0  0  0  0  0  0  0  0  0
    2.4717    6.0630   84.5379 O   0  0  0  0  0  0  0  0  0  0  0  0
    2.4238   11.4735   84.2137 C   0  0  0  0  0  0  0  0  0  0  0  0
    1.4904   12.2522   84.8592 C   0  0  0  0  0  0  0  0  0  0  0  0
    1.4674   13.6182   84.7927 C   0  0  0  0  0  0  0  0  0  0  0  0
    2.4328   14.2526   84.0375 C   0  0  0  0  0  0  0  0  0  0  0  0
    3.3982   13.5324   83.3648 C   0  0  0  0  0  0  0  0  0  0  0  0
    3.3833   12.1526   83.4601 C   0  0  0  0  0  0  0  0  0  0  0  0
    4.4238   14.2002   82.5642 C   0  0  0  0  0  0  0  0  0  0  0  0
    4.1313   14.5328   81.3945 O   0  0  0  0  0  0  0  0  0  0  0  0
    5.7001   14.4625   83.0877 N   0  0  0  0  0  0  0  0  0  0  0  0
    6.0852   14.1170   84.4532 C   0  0  0  0  0  0  0  0  0  0  0  0
    6.6927   15.1088   82.2349 C   0  0  0  0  0  0  0  0  0  0  0  0
  1  9  1  0
 12  1  1  0
  2  8  1  0
 12  2  1  0
  2 14  2  0
  3  4  2  0
  3 12  1  0
  4  5  1  0
  4 15  1  0
  5  6  1  0
  5  8  2  0
  6  7  2  0
  7 13  1  0
  8 13  1  0
  9 11  2  3
 11 10  1  0
 15 16  2  0
 15 20  1  0
 16 17  1  0
 17 18  2  0
 18 19  1  0
 19 20  2  0
 19 21  1  0
 21 22  2  0
 21 23  1  0
 23 24  1  0
 23 25  1  0
M  END
$$$$
