
     RDKit          3D

 25 27  0  0  0  0  0  0  0  0999 V2000
    4.6818    7.2189   84.9835 C   0  0  0  0  0  0  0  0  0  0  0  0
    2.3865    7.4065   84.1479 C   0  0  0  0  0  0  0  0  0  0  0  0
    3.4965    9.3439   84.6770 C   0  0  0  0  0  0  0  0  0  0  0  0
    2.3991   10.0880   84.3177 C   0  0  0  0  0  0  0  0  0  0  0  0
    1.2531    9.4538   83.8558 C   0  0  0  0  0  0  0  0  0  0  0  0
    0.0080    9.9138   83.4291 C   0  0  0  0  0  0  0  0  0  0  0  0
   -0.7397    8.8071   83.0872 C   0  0  0  0  0  0  0  0  0  0  0  0
    1.2503    8.0872   83.7706 C   0  0  0  0  0  0  0  0  0  0  0  0
    5.7218    7.3220   83.8974 C   0  0  0  0  0  0  0  0  0  0  0  0
    7.7682    8.3969   83.1063 C   0  0  0  0  0  0  0  0  0  0  0  0
    6.9386    7.7510   84.1537 C   0  0  0  0  0  0  0  0  0  0  0  0
    3.5016    8.0075   84.5966 N   0  0  0  0  0  0  0  0  0  0  0  0
    0.0382    7.7355   83.3054 N   0  0  0  0  0  0  0  0  0  0  0  0
    2.3677    6.1526   84.0637 O   0  0  0  0  0  0  0  0  0  0  0  0
    2.3956   11.5536   84.3937 C   0  0  0  0  0  0  0  0  0  0  0  0
    1.4749   12.1751   85.2091 C   0  0  0  0  0  0  0  0  0  0  0  0
    1.4182   13.5600   85.3363 C   0  0  0  0  0  0  0  0  0  0  0  0
    2.3151   14.3237   84.6200 C   0  0  0  0  0  0  0  0  0  0  0  0
    3.2500   13.7363   83.7945 C   0  0  0  0  0  0  0  0  0  0  0  0
    3.2666   12.3594   83.7020 C   0  0  0  0  0  0  0  0  0  0  0  0
    4.1946   14.5566   83.0442 C   0  0  0  0  0  0  0  0  0  0  0  0
    5.1470   15.1190   83.6394 O   0  0  0  0  0  0  0  0  0  0  0  0
    4.0717   14.7428   81.6463 N   0  0  0  0  0  0  0  0  0  0  0  0
    4.9746   15.5909   80.8865 C   0  0  0  0  0  0  0  0  0  0  0  0
    3.0160   14.0767   80.9151 C   0  0  0  0  0  0  0  0  0  0  0  0
  1  9  1  0
  1 12  1  6
  2  8  1  0
 12  2  1  0
  2 14  2  0
  3  4  2  0
  3 12  1  0
  4  5  1  0
  4 15  1  0
  5  6  1  0
  5  8  2  0
  6  7  2  0
  7 13  1  0
  8 13  1  0
  9 11  2  3
 10 11  1  1
 15 16  2  0
 15 20  1  0
 16 17  1  0
 17 18  2  0
 18 19  1  0
 19 20  2  0
 19 21  1  0
 21 22  2  0
 21 23  1  0
 24 23  1  1
 25 23  1  1
M  END
$$$$
