
     RDKit          3D

 25 27  0  0  0  0  0  0  0  0999 V2000
    4.4395    7.5778   83.1080 C   0  0  0  0  0  0  0  0  0  0  0  0
    2.1055    7.5599   83.8522 C   0  0  0  0  0  0  0  0  0  0  0  0
    3.0688    9.5914   83.3930 C   0  0  0  0  0  0  0  0  0  0  0  0
    1.8995   10.2356   83.7167 C   0  0  0  0  0  0  0  0  0  0  0  0
    0.7935    9.5007   84.1241 C   0  0  0  0  0  0  0  0  0  0  0  0
   -0.4990    9.8489   84.5138 C   0  0  0  0  0  0  0  0  0  0  0  0
   -1.1627    8.6787   84.8151 C   0  0  0  0  0  0  0  0  0  0  0  0
    0.9022    8.1374   84.1919 C   0  0  0  0  0  0  0  0  0  0  0  0
    5.5431    8.0934   83.9958 C   0  0  0  0  0  0  0  0  0  0  0  0
    7.8408    8.8766   84.2713 C   0  0  0  0  0  0  0  0  0  0  0  0
    6.8037    8.0352   83.6243 C   0  0  0  0  0  0  0  0  0  0  0  0
    3.1829    8.2589   83.4568 N   0  0  0  0  0  0  0  0  0  0  0  0
   -0.2912    7.6790   84.6100 N   0  0  0  0  0  0  0  0  0  0  0  0
    2.1887    6.3077   83.9198 O   0  0  0  0  0  0  0  0  0  0  0  0
    1.7685   11.6950   83.6360 C   0  0  0  0  0  0  0  0  0  0  0  0
    0.5092   12.2452   83.5345 C   0  0  0  0  0  0  0  0  0  0  0  0
    0.3087   13.6206   83.4615 C   0  0  0  0  0  0  0  0  0  0  0  0
    1.4106   14.4486   83.4923 C   0  0  0  0  0  0  0  0  0  0  0  0
    2.6854   13.9335   83.5931 C   0  0  0  0  0  0  0  0  0  0  0  0
    2.8326   12.5630   83.6629 C   0  0  0  0  0  0  0  0  0  0  0  0
    3.8421   14.8215   83.6270 C   0  0  0  0  0  0  0  0  0  0  0  0
    4.0944   15.5601   82.6428 O   0  0  0  0  0  0  0  0  0  0  0  0
    4.7032   14.8796   84.7491 N   0  0  0  0  0  0  0  0  0  0  0  0
    5.8685   15.7465   84.7985 C   0  0  0  0  0  0  0  0  0  0  0  0
    4.4408   14.0557   85.9089 C   0  0  0  0  0  0  0  0  0  0  0  0
  1  9  1  0
  1 12  1  6
  2  8  1  0
 12  2  1  0
  2 14  2  0
  3  4  2  0
  3 12  1  0
  4  5  1  0
  4 15  1  0
  5  6  1  0
  5  8  2  0
  6  7  2  0
  7 13  1  0
  8 13  1  0
  9 11  2  3
 10 11  1  1
 15 16  2  0
 15 20  1  0
 16 17  1  0
 17 18  2  0
 18 19  1  0
 19 20  2  0
 19 21  1  0
 21 22  2  0
 21 23  1  0
 24 23  1  1
 25 23  1  1
M  END
$$$$
