
     RDKit          3D

 25 27  0  0  0  0  0  0  0  0999 V2000
    4.3643    7.2430   83.3295 C   0  0  0  0  0  0  0  0  0  0  0  0
    2.0394    7.1743   83.9859 C   0  0  0  0  0  0  0  0  0  0  0  0
    3.0588    9.2316   83.7123 C   0  0  0  0  0  0  0  0  0  0  0  0
    1.8624    9.8771   84.0534 C   0  0  0  0  0  0  0  0  0  0  0  0
    0.7463    9.1269   84.3623 C   0  0  0  0  0  0  0  0  0  0  0  0
   -0.5485    9.4583   84.7244 C   0  0  0  0  0  0  0  0  0  0  0  0
   -1.2161    8.2600   84.9027 C   0  0  0  0  0  0  0  0  0  0  0  0
    0.8121    7.7429   84.3348 C   0  0  0  0  0  0  0  0  0  0  0  0
    5.4554    7.5950   84.2639 C   0  0  0  0  0  0  0  0  0  0  0  0
    7.8907    7.7654   84.7194 C   0  0  0  0  0  0  0  0  0  0  0  0
    6.6998    7.2276   84.0094 C   0  0  0  0  0  0  0  0  0  0  0  0
    3.1137    7.8877   83.6882 N   0  0  0  0  0  0  0  0  0  0  0  0
   -0.3780    7.2385   84.6630 N   0  0  0  0  0  0  0  0  0  0  0  0
    2.0946    5.9210   83.9629 O   0  0  0  0  0  0  0  0  0  0  0  0
    1.7895   11.3311   84.0976 C   0  0  0  0  0  0  0  0  0  0  0  0
    0.6794   12.0366   83.6926 C   0  0  0  0  0  0  0  0  0  0  0  0
    0.5969   13.4016   83.7227 C   0  0  0  0  0  0  0  0  0  0  0  0
    1.6859   14.1125   84.1848 C   0  0  0  0  0  0  0  0  0  0  0  0
    2.8306   13.4680   84.6064 C   0  0  0  0  0  0  0  0  0  0  0  0
    2.8699   12.0862   84.5583 C   0  0  0  0  0  0  0  0  0  0  0  0
    3.9866   14.2169   85.0977 C   0  0  0  0  0  0  0  0  0  0  0  0
    4.2132   14.2067   86.3277 O   0  0  0  0  0  0  0  0  0  0  0  0
    4.8205   14.9279   84.2196 N   0  0  0  0  0  0  0  0  0  0  0  0
    6.0634   15.5652   84.6453 C   0  0  0  0  0  0  0  0  0  0  0  0
    4.4351   15.0389   82.8163 C   0  0  0  0  0  0  0  0  0  0  0  0
  1  9  1  0
 12  1  1  0
  2  8  1  0
 12  2  1  0
  2 14  2  0
  3  4  2  0
  3 12  1  0
  4  5  1  0
  4 15  1  0
  5  6  1  0
  5  8  2  0
  6  7  2  0
  7 13  1  0
  8 13  1  0
  9 11  2  3
 11 10  1  0
 15 16  2  0
 15 20  1  0
 16 17  1  0
 17 18  2  0
 18 19  1  0
 19 20  2  0
 19 21  1  0
 21 22  2  0
 21 23  1  0
 23 24  1  0
 23 25  1  0
M  END
$$$$
