
     RDKit          3D

 26 27  0  0  0  0  0  0  0  0999 V2000
  -20.9060   38.6034    4.8816 C   0  0  1  0  0  0  0  0  0  0  0  0
  -20.3728   39.2771    6.1273 C   0  0  1  0  0  0  0  0  0  0  0  0
  -21.4889   39.1779    7.1382 C   0  0  2  0  0  0  0  0  0  0  0  0
  -22.7650   39.8065    6.5810 C   0  0  1  0  0  0  0  0  0  0  0  0
  -23.0285   39.4950    5.1796 C   0  0  1  0  0  0  0  0  0  0  0  0
  -23.8966   40.4971    4.4792 C   0  0  0  0  0  0  0  0  0  0  0  0
  -17.9212   39.4561    6.3150 C   0  0  0  0  0  0  0  0  0  0  0  0
  -17.9224   40.6896    5.4883 C   0  0  0  0  0  0  0  0  0  0  0  0
  -19.1444   38.7557    6.6140 N   0  0  0  0  0  0  0  0  0  0  0  0
  -21.1600   39.7321    8.3720 O   0  0  0  0  0  0  0  0  0  0  0  0
  -23.7763   39.2832    7.3917 O   0  0  0  0  0  0  0  0  0  0  0  0
  -21.8621   39.4533    4.3866 O   0  0  0  0  0  0  0  0  0  0  0  0
  -24.4336   40.2942    3.3045 O   0  0  0  0  0  0  0  0  0  0  0  0
  -16.8170   39.0425    6.7458 O   0  0  0  0  0  0  0  0  0  0  0  0
  -25.4023   41.0154    2.7380 C   0  0  1  0  0  0  0  0  0  0  0  0
  -25.2143   40.9916    1.1813 C   0  0  2  0  0  0  0  0  0  0  0  0
  -24.7653   39.5804    0.9277 C   0  0  1  0  0  0  0  0  0  0  0  0
  -25.7706   38.6193    1.4370 C   0  0  1  0  0  0  0  0  0  0  0  0
  -26.6342   39.0532    2.5371 C   0  0  2  0  0  0  0  0  0  0  0  0
  -28.0974   38.7034    2.2476 C   0  0  0  0  0  0  0  0  0  0  0  0
  -24.2659   41.9427    0.8301 O   0  0  0  0  0  0  0  0  0  0  0  0
  -24.4631   39.3558   -0.4144 O   0  0  0  0  0  0  0  0  0  0  0  0
  -26.5711   38.2282    0.3358 O   0  0  0  0  0  0  0  0  0  0  0  0
  -26.6170   40.3645    2.9021 O   0  0  0  0  0  0  0  0  0  0  0  0
  -20.3769   37.6306    2.1617 C   0  0  0  0  0  0  0  0  0  0  0  0
  -19.6376   38.3435    3.6468 S   0  0  0  0  0  0  0  0  0  0  0  0
  2  1  1  0
  1 12  1  0
  1 26  1  6
  2  3  1  0
  2  9  1  1
  3  4  1  0
  3 10  1  1
  4  5  1  0
  4 11  1  1
  5  6  1  6
 12  5  1  0
  6 13  1  0
  7  8  1  0
  7  9  1  0
  7 14  2  0
 15 13  1  1
 15 16  1  0
 15 24  1  0
 16 17  1  0
 16 21  1  1
 17 18  1  0
 17 22  1  6
 18 19  1  0
 18 23  1  6
 19 20  1  6
 19 24  1  0
 26 25  1  0
M  END
$$$$
