
     RDKit          3D

 26 27  0  0  0  0  0  0  0  0999 V2000
  -18.6650   38.9541    5.4479 C   0  0  1  0  0  0  0  0  0  0  0  0
  -19.1760   39.1679    4.0397 C   0  0  1  0  0  0  0  0  0  0  0  0
  -18.8905   40.6175    3.7320 C   0  0  2  0  0  0  0  0  0  0  0  0
  -19.5407   41.5190    4.7801 C   0  0  1  0  0  0  0  0  0  0  0  0
  -19.4206   41.0333    6.1513 C   0  0  1  0  0  0  0  0  0  0  0  0
  -20.4766   41.5502    7.0818 C   0  0  0  0  0  0  0  0  0  0  0  0
  -19.4468   37.1848    2.6003 C   0  0  0  0  0  0  0  0  0  0  0  0
  -18.9041   36.1777    1.6535 C   0  0  0  0  0  0  0  0  0  0  0  0
  -18.6401   38.2846    3.0648 N   0  0  0  0  0  0  0  0  0  0  0  0
  -19.2770   40.9902    2.4477 O   0  0  0  0  0  0  0  0  0  0  0  0
  -18.8682   42.7360    4.6369 O   0  0  0  0  0  0  0  0  0  0  0  0
  -19.5379   39.6314    6.2608 O   0  0  0  0  0  0  0  0  0  0  0  0
  -20.2295   41.9715    8.2946 O   0  0  0  0  0  0  0  0  0  0  0  0
  -20.6341   37.0462    2.9834 O   0  0  0  0  0  0  0  0  0  0  0  0
  -20.5773   43.1505    8.8129 C   0  0  1  0  0  0  0  0  0  0  0  0
  -20.8170   42.9815   10.3535 C   0  0  2  0  0  0  0  0  0  0  0  0
  -19.7354   42.0165   10.7487 C   0  0  1  0  0  0  0  0  0  0  0  0
  -18.4039   42.5590   10.3928 C   0  0  1  0  0  0  0  0  0  0  0  0
  -18.3296   43.5142    9.2854 C   0  0  2  0  0  0  0  0  0  0  0  0
  -17.4733   44.7248    9.6708 C   0  0  0  0  0  0  0  0  0  0  0  0
  -22.0979   42.4861   10.5559 O   0  0  0  0  0  0  0  0  0  0  0  0
  -19.8105   41.6619   12.0947 O   0  0  0  0  0  0  0  0  0  0  0  0
  -17.8670   43.1510   11.5623 O   0  0  0  0  0  0  0  0  0  0  0  0
  -19.4888   44.0105    8.7725 O   0  0  0  0  0  0  0  0  0  0  0  0
  -20.3077   36.6732    6.2980 C   0  0  0  0  0  0  0  0  0  0  0  0
  -18.6331   37.2261    5.9103 S   0  0  0  0  0  0  0  0  0  0  0  0
  2  1  1  0
  1 12  1  0
  1 26  1  1
  2  3  1  0
  2  9  1  6
  3  4  1  0
  3 10  1  6
  4  5  1  0
  4 11  1  1
  5  6  1  1
 12  5  1  0
  6 13  1  0
  7  8  1  0
  7  9  1  0
  7 14  2  0
 15 13  1  1
 15 16  1  0
 15 24  1  0
 16 17  1  0
 16 21  1  6
 17 18  1  0
 17 22  1  1
 18 19  1  0
 18 23  1  1
 19 20  1  1
 19 24  1  0
 26 25  1  0
M  END
$$$$
