
     RDKit          3D

 26 27  0  0  0  0  0  0  0  0999 V2000
  -18.5920   39.5150    3.9658 C   0  0  1  0  0  0  0  0  0  0  0  0
  -19.9246   39.9122    4.5640 C   0  0  1  0  0  0  0  0  0  0  0  0
  -19.8081   41.3980    4.8891 C   0  0  2  0  0  0  0  0  0  0  0  0
  -18.6620   41.5731    5.8557 C   0  0  1  0  0  0  0  0  0  0  0  0
  -17.4267   40.8102    5.4594 C   0  0  1  0  0  0  0  0  0  0  0  0
  -16.6023   40.6390    6.7422 C   0  0  0  0  0  0  0  0  0  0  0  0
  -21.9291   38.5848    3.9828 C   0  0  0  0  0  0  0  0  0  0  0  0
  -22.9959   38.2526    3.0029 C   0  0  0  0  0  0  0  0  0  0  0  0
  -21.0227   39.6291    3.6979 N   0  0  0  0  0  0  0  0  0  0  0  0
  -20.9543   41.8903    5.4661 O   0  0  0  0  0  0  0  0  0  0  0  0
  -18.3363   42.9288    5.8740 O   0  0  0  0  0  0  0  0  0  0  0  0
  -17.6601   39.5504    4.9769 O   0  0  0  0  0  0  0  0  0  0  0  0
  -15.3755   40.1306    6.3940 O   0  0  0  0  0  0  0  0  0  0  0  0
  -21.8859   37.9038    5.0407 O   0  0  0  0  0  0  0  0  0  0  0  0
  -14.3241   40.7970    7.0259 C   0  0  1  0  0  0  0  0  0  0  0  0
  -13.1610   40.7974    6.0960 C   0  0  2  0  0  0  0  0  0  0  0  0
  -12.3702   42.0589    6.0401 C   0  0  1  0  0  0  0  0  0  0  0  0
  -12.6440   43.0505    7.1159 C   0  0  1  0  0  0  0  0  0  0  0  0
  -13.6424   42.6036    8.1423 C   0  0  2  0  0  0  0  0  0  0  0  0
  -12.9897   41.6486    9.1177 C   0  0  0  0  0  0  0  0  0  0  0  0
  -13.5284   40.3630    4.8002 O   0  0  0  0  0  0  0  0  0  0  0  0
  -10.9810   41.8038    5.9865 O   0  0  0  0  0  0  0  0  0  0  0  0
  -11.4631   43.3859    7.8116 O   0  0  0  0  0  0  0  0  0  0  0  0
  -14.7136   42.0578    7.4720 O   0  0  0  0  0  0  0  0  0  0  0  0
  -17.8188   36.6236    4.0305 C   0  0  0  0  0  0  0  0  0  0  0  0
  -18.6333   37.9322    3.1137 S   0  0  0  0  0  0  0  0  0  0  0  0
  2  1  1  0
  1 12  1  0
  1 26  1  1
  2  3  1  0
  2  9  1  6
  3  4  1  0
  3 10  1  1
  4  5  1  0
  4 11  1  6
  5  6  1  0
  5 12  1  1
  6 13  1  6
  8  7  1  6
  7  9  1  0
  7 14  2  0
 15 13  1  6
 15 16  1  0
 15 24  1  0
 16 17  1  0
 16 21  1  6
 17 18  1  0
 17 22  1  1
 18 19  1  0
 18 23  1  1
 20 19  1  6
 19 24  1  6
 25 26  1  6
M  END
$$$$
