
     RDKit          3D

 26 27  0  0  0  0  0  0  0  0999 V2000
  -18.7341   39.0733    5.3557 C   0  0  1  0  0  0  0  0  0  0  0  0
  -19.1822   39.0858    3.9104 C   0  0  1  0  0  0  0  0  0  0  0  0
  -18.6589   40.3840    3.3461 C   0  0  2  0  0  0  0  0  0  0  0  0
  -19.1685   41.5638    4.1723 C   0  0  1  0  0  0  0  0  0  0  0  0
  -19.1499   41.3424    5.6149 C   0  0  1  0  0  0  0  0  0  0  0  0
  -20.1210   42.1908    6.3801 C   0  0  0  0  0  0  0  0  0  0  0  0
  -19.5184   36.7246    3.2864 C   0  0  0  0  0  0  0  0  0  0  0  0
  -20.4115   36.2346    2.2059 C   0  0  0  0  0  0  0  0  0  0  0  0
  -18.7833   37.9561    3.1473 N   0  0  0  0  0  0  0  0  0  0  0  0
  -18.9599   40.5550    1.9978 O   0  0  0  0  0  0  0  0  0  0  0  0
  -18.3039   42.6080    3.8315 O   0  0  0  0  0  0  0  0  0  0  0  0
  -19.4965   40.0252    5.9835 O   0  0  0  0  0  0  0  0  0  0  0  0
  -20.0709   42.3591    7.6757 O   0  0  0  0  0  0  0  0  0  0  0  0
  -19.4247   36.0292    4.3273 O   0  0  0  0  0  0  0  0  0  0  0  0
  -20.8827   43.1213    8.4102 C   0  0  1  0  0  0  0  0  0  0  0  0
  -20.5561   42.9017    9.9282 C   0  0  2  0  0  0  0  0  0  0  0  0
  -19.0584   42.7812    9.9263 C   0  0  1  0  0  0  0  0  0  0  0  0
  -18.4436   43.9933    9.3376 C   0  0  1  0  0  0  0  0  0  0  0  0
  -19.2369   44.7639    8.3778 C   0  0  2  0  0  0  0  0  0  0  0  0
  -19.1761   46.2600    8.7023 C   0  0  0  0  0  0  0  0  0  0  0  0
  -21.2005   41.7517   10.3633 O   0  0  0  0  0  0  0  0  0  0  0  0
  -18.5498   42.5024   11.1938 O   0  0  0  0  0  0  0  0  0  0  0  0
  -18.0597   44.8321   10.4125 O   0  0  0  0  0  0  0  0  0  0  0  0
  -20.5541   44.4568    8.2241 O   0  0  0  0  0  0  0  0  0  0  0  0
  -20.7580   37.2267    6.4130 C   0  0  0  0  0  0  0  0  0  0  0  0
  -18.9921   37.4858    6.1395 S   0  0  0  0  0  0  0  0  0  0  0  0
  2  1  1  0
  1 12  1  0
  1 26  1  1
  2  3  1  0
  2  9  1  6
  3  4  1  0
  3 10  1  6
  4  5  1  0
  4 11  1  1
  5  6  1  1
 12  5  1  0
  6 13  1  0
  7  8  1  0
  7  9  1  0
  7 14  2  0
 15 13  1  6
 15 16  1  0
 15 24  1  0
 16 17  1  0
 16 21  1  6
 17 18  1  0
 17 22  1  1
 18 19  1  0
 18 23  1  1
 19 20  1  1
 19 24  1  0
 26 25  1  0
M  END
$$$$
