
     RDKit          3D

 26 27  0  0  0  0  0  0  0  0999 V2000
  -15.8739   22.2791  -15.7488 C   0  0  1  0  0  0  0  0  0  0  0  0
  -16.6405   23.4789  -16.2627 C   0  0  1  0  0  0  0  0  0  0  0  0
  -17.6113   23.8600  -15.1495 C   0  0  2  0  0  0  0  0  0  0  0  0
  -18.5026   22.6712  -14.8839 C   0  0  1  0  0  0  0  0  0  0  0  0
  -17.7495   21.3718  -14.7870 C   0  0  1  0  0  0  0  0  0  0  0  0
  -18.7734   20.2642  -15.0683 C   0  0  0  0  0  0  0  0  0  0  0  0
  -15.2277   24.6406  -17.9278 C   0  0  0  0  0  0  0  0  0  0  0  0
  -14.0992   25.5735  -18.1821 C   0  0  0  0  0  0  0  0  0  0  0  0
  -15.7863   24.5600  -16.6336 N   0  0  0  0  0  0  0  0  0  0  0  0
  -18.3958   24.9342  -15.4958 O   0  0  0  0  0  0  0  0  0  0  0  0
  -19.1332   22.8890  -13.6594 O   0  0  0  0  0  0  0  0  0  0  0  0
  -16.7485   21.2183  -15.7083 O   0  0  0  0  0  0  0  0  0  0  0  0
  -18.2282   19.0698  -14.6674 O   0  0  0  0  0  0  0  0  0  0  0  0
  -15.6381   23.9539  -18.8998 O   0  0  0  0  0  0  0  0  0  0  0  0
  -19.1245   18.0068  -14.7917 C   0  0  1  0  0  0  0  0  0  0  0  0
  -18.4302   16.7702  -14.3374 C   0  0  2  0  0  0  0  0  0  0  0  0
  -19.2463   15.8237  -13.5262 C   0  0  1  0  0  0  0  0  0  0  0  0
  -20.7143   16.0700  -13.5148 C   0  0  1  0  0  0  0  0  0  0  0  0
  -21.1664   17.2098  -14.3788 C   0  0  2  0  0  0  0  0  0  0  0  0
  -21.1978   16.7792  -15.8290 C   0  0  0  0  0  0  0  0  0  0  0  0
  -17.2012   17.0654  -13.7008 O   0  0  0  0  0  0  0  0  0  0  0  0
  -19.0039   14.4795  -13.8895 O   0  0  0  0  0  0  0  0  0  0  0  0
  -21.4254   14.9272  -13.9387 O   0  0  0  0  0  0  0  0  0  0  0  0
  -20.3260   18.2733  -14.1392 O   0  0  0  0  0  0  0  0  0  0  0  0
  -13.6062   20.3802  -16.2116 C   0  0  0  0  0  0  0  0  0  0  0  0
  -14.3885   21.9195  -16.6961 S   0  0  0  0  0  0  0  0  0  0  0  0
  2  1  1  0
  1 12  1  0
  1 26  1  6
  2  3  1  0
  2  9  1  1
  3  4  1  0
  3 10  1  6
  4  5  1  0
  4 11  1  1
  5  6  1  0
  5 12  1  6
  6 13  1  6
  8  7  1  6
  7  9  1  0
  7 14  2  0
 15 13  1  1
 15 16  1  0
 15 24  1  0
 16 17  1  0
 16 21  1  1
 17 18  1  0
 17 22  1  6
 18 19  1  0
 18 23  1  6
 20 19  1  6
 19 24  1  6
 25 26  1  6
M  END
$$$$
