
     RDKit          3D

 26 27  0  0  0  0  0  0  0  0999 V2000
  -20.9543   38.9133    5.6154 C   0  0  1  0  0  0  0  0  0  0  0  0
  -19.7060   39.1651    4.7969 C   0  0  1  0  0  0  0  0  0  0  0  0
  -19.5995   40.6803    4.6565 C   0  0  2  0  0  0  0  0  0  0  0  0
  -20.8518   41.1721    3.9724 C   0  0  1  0  0  0  0  0  0  0  0  0
  -22.1128   40.5749    4.5369 C   0  0  1  0  0  0  0  0  0  0  0  0
  -23.1790   40.7193    3.4430 C   0  0  0  0  0  0  0  0  0  0  0  0
  -17.8956   37.4797    4.7920 C   0  0  0  0  0  0  0  0  0  0  0  0
  -16.7002   36.8906    5.4497 C   0  0  0  0  0  0  0  0  0  0  0  0
  -18.5389   38.5894    5.3822 N   0  0  0  0  0  0  0  0  0  0  0  0
  -18.5091   41.0525    3.9070 O   0  0  0  0  0  0  0  0  0  0  0  0
  -20.9144   42.5524    4.1607 O   0  0  0  0  0  0  0  0  0  0  0  0
  -22.0347   39.2397    4.8292 O   0  0  0  0  0  0  0  0  0  0  0  0
  -24.4087   40.7646    4.0517 O   0  0  0  0  0  0  0  0  0  0  0  0
  -18.2835   36.9485    3.7187 O   0  0  0  0  0  0  0  0  0  0  0  0
  -25.4136   41.2073    3.1897 C   0  0  1  0  0  0  0  0  0  0  0  0
  -26.5853   41.6005    4.0204 C   0  0  2  0  0  0  0  0  0  0  0  0
  -27.3044   42.8335    3.5929 C   0  0  1  0  0  0  0  0  0  0  0  0
  -26.9629   43.3540    2.2409 C   0  0  1  0  0  0  0  0  0  0  0  0
  -25.9797   42.5182    1.4762 C   0  0  2  0  0  0  0  0  0  0  0  0
  -26.6740   41.3077    0.8913 C   0  0  0  0  0  0  0  0  0  0  0  0
  -26.2578   41.6472    5.3963 O   0  0  0  0  0  0  0  0  0  0  0  0
  -28.7062   42.6827    3.6918 O   0  0  0  0  0  0  0  0  0  0  0  0
  -28.1150   43.4717    1.4348 O   0  0  0  0  0  0  0  0  0  0  0  0
  -24.9486   42.2007    2.3312 O   0  0  0  0  0  0  0  0  0  0  0  0
  -21.8973   36.1067    5.1732 C   0  0  0  0  0  0  0  0  0  0  0  0
  -21.0534   37.2432    6.2742 S   0  0  0  0  0  0  0  0  0  0  0  0
  2  1  1  0
  1 12  1  0
  1 26  1  6
  2  3  1  0
  2  9  1  1
  3  4  1  0
  3 10  1  6
  4  5  1  0
  4 11  1  1
  5  6  1  0
  5 12  1  6
  6 13  1  6
  8  7  1  6
  7  9  1  0
  7 14  2  0
 15 13  1  1
 15 16  1  0
 15 24  1  0
 16 17  1  0
 16 21  1  1
 17 18  1  0
 17 22  1  6
 18 19  1  0
 18 23  1  6
 20 19  1  6
 19 24  1  1
 25 26  1  6
M  END
$$$$
