
     RDKit          3D

 26 27  0  0  0  0  0  0  0  0999 V2000
  -22.0930   39.3668    2.8958 C   0  0  1  0  0  0  0  0  0  0  0  0
  -23.3731   40.0565    3.3147 C   0  0  1  0  0  0  0  0  0  0  0  0
  -22.9435   41.4105    3.8242 C   0  0  2  0  0  0  0  0  0  0  0  0
  -21.9184   41.2530    4.9461 C   0  0  1  0  0  0  0  0  0  0  0  0
  -20.9165   40.2190    4.7065 C   0  0  1  0  0  0  0  0  0  0  0  0
  -20.2887   39.6701    5.9527 C   0  0  0  0  0  0  0  0  0  0  0  0
  -25.4220   39.1585    2.2787 C   0  0  0  0  0  0  0  0  0  0  0  0
  -25.5617   38.1502    3.3598 C   0  0  0  0  0  0  0  0  0  0  0  0
  -24.3687   40.1413    2.3051 N   0  0  0  0  0  0  0  0  0  0  0  0
  -24.0109   42.2042    4.2346 O   0  0  0  0  0  0  0  0  0  0  0  0
  -21.3096   42.5091    5.0206 O   0  0  0  0  0  0  0  0  0  0  0  0
  -21.4355   39.0750    4.0637 O   0  0  0  0  0  0  0  0  0  0  0  0
  -19.0098   39.7463    6.2130 O   0  0  0  0  0  0  0  0  0  0  0  0
  -26.2537   39.1265    1.3390 O   0  0  0  0  0  0  0  0  0  0  0  0
  -18.1451   38.7313    6.2545 C   0  0  1  0  0  0  0  0  0  0  0  0
  -16.7372   39.2755    6.6798 C   0  0  2  0  0  0  0  0  0  0  0  0
  -17.0850   40.3112    7.7112 C   0  0  1  0  0  0  0  0  0  0  0  0
  -17.8633   39.7010    8.8137 C   0  0  1  0  0  0  0  0  0  0  0  0
  -18.6479   38.5017    8.5134 C   0  0  2  0  0  0  0  0  0  0  0  0
  -18.4242   37.4263    9.5814 C   0  0  0  0  0  0  0  0  0  0  0  0
  -16.1043   39.8023    5.5621 O   0  0  0  0  0  0  0  0  0  0  0  0
  -15.9600   40.9877    8.1801 O   0  0  0  0  0  0  0  0  0  0  0  0
  -16.9533   39.4182    9.8618 O   0  0  0  0  0  0  0  0  0  0  0  0
  -18.4717   37.8909    7.3096 O   0  0  0  0  0  0  0  0  0  0  0  0
  -20.9804   36.7491    2.1653 C   0  0  0  0  0  0  0  0  0  0  0  0
  -22.3945   37.8571    1.9843 S   0  0  0  0  0  0  0  0  0  0  0  0
  2  1  1  0
  1 12  1  0
  1 26  1  1
  2  3  1  0
  2  9  1  6
  3  4  1  0
  3 10  1  1
  4  5  1  0
  4 11  1  6
  5  6  1  1
 12  5  1  0
  6 13  1  0
  7  8  1  0
  7  9  1  0
  7 14  2  0
 15 13  1  1
 15 16  1  0
 15 24  1  0
 16 17  1  0
 16 21  1  6
 17 18  1  0
 17 22  1  1
 18 19  1  0
 18 23  1  1
 19 20  1  1
 19 24  1  0
 26 25  1  0
M  END
$$$$
