
     RDKit          3D

 26 27  0  0  0  0  0  0  0  0999 V2000
  -17.5435   40.3283    4.6568 C   0  0  1  0  0  0  0  0  0  0  0  0
  -16.8898   38.9781    4.4538 C   0  0  1  0  0  0  0  0  0  0  0  0
  -17.5904   38.3537    3.2512 C   0  0  2  0  0  0  0  0  0  0  0  0
  -19.0605   38.2446    3.5756 C   0  0  1  0  0  0  0  0  0  0  0  0
  -19.6300   39.4961    4.1876 C   0  0  1  0  0  0  0  0  0  0  0  0
  -20.8986   39.0651    4.9353 C   0  0  0  0  0  0  0  0  0  0  0  0
  -14.6038   39.1818    5.3762 C   0  0  0  0  0  0  0  0  0  0  0  0
  -13.3557   39.9781    5.2464 C   0  0  0  0  0  0  0  0  0  0  0  0
  -15.4776   39.0723    4.2725 N   0  0  0  0  0  0  0  0  0  0  0  0
  -17.1046   37.0999    2.9662 O   0  0  0  0  0  0  0  0  0  0  0  0
  -19.7351   38.0127    2.3775 O   0  0  0  0  0  0  0  0  0  0  0  0
  -18.8218   40.1025    5.1115 O   0  0  0  0  0  0  0  0  0  0  0  0
  -21.5222   40.1961    5.4009 O   0  0  0  0  0  0  0  0  0  0  0  0
  -14.8245   38.6330    6.4873 O   0  0  0  0  0  0  0  0  0  0  0  0
  -22.8755   40.2365    5.0608 C   0  0  1  0  0  0  0  0  0  0  0  0
  -23.3432   41.6413    5.2194 C   0  0  2  0  0  0  0  0  0  0  0  0
  -24.2738   42.1422    4.1691 C   0  0  1  0  0  0  0  0  0  0  0  0
  -24.8552   41.1121    3.2654 C   0  0  1  0  0  0  0  0  0  0  0  0
  -24.4615   39.7008    3.5867 C   0  0  2  0  0  0  0  0  0  0  0  0
  -25.2649   39.1949    4.7649 C   0  0  0  0  0  0  0  0  0  0  0  0
  -22.2616   42.5326    5.4155 O   0  0  0  0  0  0  0  0  0  0  0  0
  -25.3183   42.9176    4.7218 O   0  0  0  0  0  0  0  0  0  0  0  0
  -26.2654   41.1581    3.2819 O   0  0  0  0  0  0  0  0  0  0  0  0
  -23.1019   39.6859    3.8014 O   0  0  0  0  0  0  0  0  0  0  0  0
  -16.9120   41.1207    7.4739 C   0  0  0  0  0  0  0  0  0  0  0  0
  -16.6064   41.4226    5.7327 S   0  0  0  0  0  0  0  0  0  0  0  0
  2  1  1  0
  1 12  1  0
  1 26  1  1
  2  3  1  0
  2  9  1  6
  3  4  1  0
  3 10  1  1
  4  5  1  0
  4 11  1  6
  5  6  1  0
  5 12  1  1
  6 13  1  6
  8  7  1  6
  7  9  1  0
  7 14  2  0
 15 13  1  6
 15 16  1  0
 15 24  1  0
 16 17  1  0
 16 21  1  6
 17 18  1  0
 17 22  1  1
 18 19  1  0
 18 23  1  1
 20 19  1  6
 19 24  1  1
 25 26  1  6
M  END
$$$$
