
     RDKit          3D

 26 27  0  0  0  0  0  0  0  0999 V2000
  -20.0425   38.0673    4.3541 C   0  0  1  0  0  0  0  0  0  0  0  0
  -19.6113   37.9332    5.7990 C   0  0  1  0  0  0  0  0  0  0  0  0
  -20.8430   37.4488    6.5573 C   0  0  2  0  0  0  0  0  0  0  0  0
  -21.9359   38.4729    6.3698 C   0  0  1  0  0  0  0  0  0  0  0  0
  -22.0856   38.9301    4.9437 C   0  0  1  0  0  0  0  0  0  0  0  0
  -22.7930   40.2903    5.0047 C   0  0  0  0  0  0  0  0  0  0  0  0
  -17.1745   37.5603    6.0024 C   0  0  0  0  0  0  0  0  0  0  0  0
  -16.0310   36.6249    5.8416 C   0  0  0  0  0  0  0  0  0  0  0  0
  -18.4942   37.0602    5.9610 N   0  0  0  0  0  0  0  0  0  0  0  0
  -20.5962   37.3044    7.9017 O   0  0  0  0  0  0  0  0  0  0  0  0
  -23.1364   37.8755    6.7525 O   0  0  0  0  0  0  0  0  0  0  0  0
  -20.9060   39.1354    4.2798 O   0  0  0  0  0  0  0  0  0  0  0  0
  -23.2364   40.5956    3.7418 O   0  0  0  0  0  0  0  0  0  0  0  0
  -16.9038   38.7781    6.1711 O   0  0  0  0  0  0  0  0  0  0  0  0
  -24.6129   40.8246    3.7016 C   0  0  1  0  0  0  0  0  0  0  0  0
  -24.9818   41.1356    2.2928 C   0  0  2  0  0  0  0  0  0  0  0  0
  -26.2561   40.5378    1.8043 C   0  0  1  0  0  0  0  0  0  0  0  0
  -27.1477   39.9579    2.8456 C   0  0  1  0  0  0  0  0  0  0  0  0
  -26.6547   40.1164    4.2534 C   0  0  2  0  0  0  0  0  0  0  0  0
  -26.9185   41.5251    4.7387 C   0  0  0  0  0  0  0  0  0  0  0  0
  -23.9143   40.8692    1.4027 O   0  0  0  0  0  0  0  0  0  0  0  0
  -26.9943   41.4503    1.0168 O   0  0  0  0  0  0  0  0  0  0  0  0
  -28.4337   40.5364    2.7942 O   0  0  0  0  0  0  0  0  0  0  0  0
  -25.3227   39.7695    4.2702 O   0  0  0  0  0  0  0  0  0  0  0  0
  -17.8022   39.7721    3.3359 C   0  0  0  0  0  0  0  0  0  0  0  0
  -18.6655   38.2056    3.2062 S   0  0  0  0  0  0  0  0  0  0  0  0
  2  1  1  0
  1 12  1  0
  1 26  1  6
  2  3  1  0
  2  9  1  6
  3  4  1  0
  3 10  1  1
  4  5  1  0
  4 11  1  6
  5  6  1  0
  5 12  1  1
  6 13  1  6
  8  7  1  6
  7  9  1  0
  7 14  2  0
 15 13  1  6
 15 16  1  0
 15 24  1  0
 16 17  1  0
 16 21  1  6
 17 18  1  0
 17 22  1  1
 18 19  1  0
 18 23  1  1
 20 19  1  6
 19 24  1  6
 25 26  1  6
M  END
$$$$
