
     RDKit          3D

 26 27  0  0  0  0  0  0  0  0999 V2000
  -17.4645   40.2722    5.0361 C   0  0  1  0  0  0  0  0  0  0  0  0
  -16.7998   39.1545    4.2623 C   0  0  1  0  0  0  0  0  0  0  0  0
  -17.4787   39.1493    2.9145 C   0  0  2  0  0  0  0  0  0  0  0  0
  -18.9883   38.9857    3.0830 C   0  0  1  0  0  0  0  0  0  0  0  0
  -19.5605   39.7626    4.1782 C   0  0  1  0  0  0  0  0  0  0  0  0
  -20.8516   39.2168    4.7108 C   0  0  0  0  0  0  0  0  0  0  0  0
  -14.5769   38.7951    5.2660 C   0  0  0  0  0  0  0  0  0  0  0  0
  -13.1968   39.3041    5.4694 C   0  0  0  0  0  0  0  0  0  0  0  0
  -15.3860   39.2494    4.1636 N   0  0  0  0  0  0  0  0  0  0  0  0
  -16.9683   38.1861    2.0488 O   0  0  0  0  0  0  0  0  0  0  0  0
  -19.5093   39.4170    1.8596 O   0  0  0  0  0  0  0  0  0  0  0  0
  -18.7292   39.8212    5.3169 O   0  0  0  0  0  0  0  0  0  0  0  0
  -21.8890   39.9598    4.9956 O   0  0  0  0  0  0  0  0  0  0  0  0
  -15.0166   37.9542    6.0878 O   0  0  0  0  0  0  0  0  0  0  0  0
  -22.9866   39.5755    5.6491 C   0  0  1  0  0  0  0  0  0  0  0  0
  -23.9549   40.8012    5.7879 C   0  0  2  0  0  0  0  0  0  0  0  0
  -23.7928   41.4972    4.4662 C   0  0  1  0  0  0  0  0  0  0  0  0
  -24.1259   40.5776    3.3541 C   0  0  1  0  0  0  0  0  0  0  0  0
  -23.9650   39.1405    3.5848 C   0  0  2  0  0  0  0  0  0  0  0  0
  -25.1974   38.3722    3.0970 C   0  0  0  0  0  0  0  0  0  0  0  0
  -23.5501   41.5718    6.8693 O   0  0  0  0  0  0  0  0  0  0  0  0
  -24.5252   42.6814    4.4000 O   0  0  0  0  0  0  0  0  0  0  0  0
  -25.4639   40.8468    2.9748 O   0  0  0  0  0  0  0  0  0  0  0  0
  -23.7173   38.7065    4.8510 O   0  0  0  0  0  0  0  0  0  0  0  0
  -16.9698   39.3760    7.7885 C   0  0  0  0  0  0  0  0  0  0  0  0
  -16.6108   40.6514    6.5619 S   0  0  0  0  0  0  0  0  0  0  0  0
  2  1  1  0
  1 12  1  0
  1 26  1  1
  2  3  1  0
  2  9  1  6
  3  4  1  0
  3 10  1  6
  4  5  1  0
  4 11  1  6
  5  6  1  1
 12  5  1  0
  6 13  1  0
  7  8  1  0
  7  9  1  0
  7 14  2  0
 15 13  1  6
 15 16  1  0
 15 24  1  0
 16 17  1  0
 16 21  1  1
 17 18  1  0
 17 22  1  1
 18 19  1  0
 18 23  1  1
 19 20  1  1
 19 24  1  0
 26 25  1  0
M  END
$$$$
