
     RDKit          3D

 26 27  0  0  0  0  0  0  0  0999 V2000
  -18.3001   39.6164    5.0458 C   0  0  1  0  0  0  0  0  0  0  0  0
  -17.8744   38.7064    3.9141 C   0  0  1  0  0  0  0  0  0  0  0  0
  -18.3852   39.3714    2.6594 C   0  0  2  0  0  0  0  0  0  0  0  0
  -19.8939   39.5926    2.7543 C   0  0  1  0  0  0  0  0  0  0  0  0
  -20.3541   40.0586    4.0587 C   0  0  1  0  0  0  0  0  0  0  0  0
  -21.7917   39.7483    4.3508 C   0  0  0  0  0  0  0  0  0  0  0  0
  -15.8597   37.7597    4.9736 C   0  0  0  0  0  0  0  0  0  0  0  0
  -14.4352   38.0008    5.3167 C   0  0  0  0  0  0  0  0  0  0  0  0
  -16.4829   38.4264    3.8586 N   0  0  0  0  0  0  0  0  0  0  0  0
  -18.0573   38.6754    1.4993 O   0  0  0  0  0  0  0  0  0  0  0  0
  -20.1518   40.5579    1.7767 O   0  0  0  0  0  0  0  0  0  0  0  0
  -19.6610   39.4723    5.1390 O   0  0  0  0  0  0  0  0  0  0  0  0
  -22.4274   40.1878    5.4054 O   0  0  0  0  0  0  0  0  0  0  0  0
  -16.5046   36.9541    5.6884 O   0  0  0  0  0  0  0  0  0  0  0  0
  -23.6416   39.8159    5.8140 C   0  0  1  0  0  0  0  0  0  0  0  0
  -24.1289   40.8008    6.9328 C   0  0  2  0  0  0  0  0  0  0  0  0
  -23.6219   42.1279    6.4437 C   0  0  1  0  0  0  0  0  0  0  0  0
  -24.1591   42.4205    5.0948 C   0  0  1  0  0  0  0  0  0  0  0  0
  -24.5305   41.2860    4.2467 C   0  0  2  0  0  0  0  0  0  0  0  0
  -25.9073   41.5109    3.6134 C   0  0  0  0  0  0  0  0  0  0  0  0
  -23.5742   40.4121    8.1446 O   0  0  0  0  0  0  0  0  0  0  0  0
  -23.8861   43.1583    7.3444 O   0  0  0  0  0  0  0  0  0  0  0  0
  -25.2812   43.2679    5.2660 O   0  0  0  0  0  0  0  0  0  0  0  0
  -24.5589   40.0413    4.7973 O   0  0  0  0  0  0  0  0  0  0  0  0
  -17.4649   37.3741    6.7481 C   0  0  0  0  0  0  0  0  0  0  0  0
  -17.5421   39.1723    6.6043 S   0  0  0  0  0  0  0  0  0  0  0  0
  2  1  1  0
  1 12  1  0
  1 26  1  1
  2  3  1  0
  2  9  1  6
  3  4  1  0
  3 10  1  6
  4  5  1  0
  4 11  1  6
  5  6  1  1
 12  5  1  0
  6 13  1  0
  7  8  1  0
  7  9  1  0
  7 14  2  0
 15 13  1  6
 15 16  1  0
 15 24  1  0
 16 17  1  0
 16 21  1  1
 17 18  1  0
 17 22  1  1
 18 19  1  0
 18 23  1  1
 19 20  1  1
 19 24  1  0
 26 25  1  0
M  END
$$$$
