
     RDKit          3D

 26 27  0  0  0  0  0  0  0  0999 V2000
   -6.3697   25.3109   -3.2622 C   0  0  1  0  0  0  0  0  0  0  0  0
   -7.5060   25.1080   -2.2835 C   0  0  1  0  0  0  0  0  0  0  0  0
   -7.0094   25.6797   -0.9781 C   0  0  2  0  0  0  0  0  0  0  0  0
   -5.7003   25.0065   -0.5694 C   0  0  1  0  0  0  0  0  0  0  0  0
   -4.7637   24.7925   -1.6683 C   0  0  1  0  0  0  0  0  0  0  0  0
   -3.7817   23.6841   -1.4326 C   0  0  0  0  0  0  0  0  0  0  0  0
   -8.7946   27.0247   -3.1457 C   0  0  0  0  0  0  0  0  0  0  0  0
  -10.0102   27.5815   -3.7918 C   0  0  0  0  0  0  0  0  0  0  0  0
   -8.7515   25.6601   -2.6853 N   0  0  0  0  0  0  0  0  0  0  0  0
   -7.9491   25.6010    0.0459 O   0  0  0  0  0  0  0  0  0  0  0  0
   -5.1523   25.8850    0.3697 O   0  0  0  0  0  0  0  0  0  0  0  0
   -5.3932   24.4279   -2.8773 O   0  0  0  0  0  0  0  0  0  0  0  0
   -2.8028   23.3980   -2.2508 O   0  0  0  0  0  0  0  0  0  0  0  0
   -7.8034   27.7836   -3.0136 O   0  0  0  0  0  0  0  0  0  0  0  0
   -2.2974   22.1875   -2.4931 C   0  0  1  0  0  0  0  0  0  0  0  0
   -0.8443   22.3442   -3.0616 C   0  0  2  0  0  0  0  0  0  0  0  0
   -0.3009   23.4917   -2.2583 C   0  0  1  0  0  0  0  0  0  0  0  0
   -0.3613   23.1832   -0.8110 C   0  0  1  0  0  0  0  0  0  0  0  0
   -1.3787   22.2327   -0.3572 C   0  0  2  0  0  0  0  0  0  0  0  0
   -0.7683   21.1990    0.5946 C   0  0  0  0  0  0  0  0  0  0  0  0
   -0.9218   22.6120   -4.4216 O   0  0  0  0  0  0  0  0  0  0  0  0
    0.9833   23.8559   -2.6601 O   0  0  0  0  0  0  0  0  0  0  0  0
    0.9210   22.7190   -0.4281 O   0  0  0  0  0  0  0  0  0  0  0  0
   -2.0783   21.5306   -1.2904 O   0  0  0  0  0  0  0  0  0  0  0  0
   -6.4269   23.2689   -5.3718 C   0  0  0  0  0  0  0  0  0  0  0  0
   -6.8518   24.9728   -4.9516 S   0  0  0  0  0  0  0  0  0  0  0  0
  2  1  1  0
  1 12  1  0
  1 26  1  6
  2  3  1  0
  2  9  1  6
  3  4  1  0
  3 10  1  1
  4  5  1  0
  4 11  1  1
  5  6  1  1
 12  5  1  0
  6 13  1  0
  7  8  1  0
  7  9  1  0
  7 14  2  0
 15 13  1  1
 15 16  1  0
 15 24  1  0
 16 17  1  0
 16 21  1  6
 17 18  1  0
 17 22  1  6
 18 19  1  0
 18 23  1  6
 19 20  1  1
 19 24  1  0
 26 25  1  0
M  END
$$$$
