
     RDKit          3D

 26 27  0  0  0  0  0  0  0  0999 V2000
  -19.6641   38.8797    5.3518 C   0  0  1  0  0  0  0  0  0  0  0  0
  -19.0925   39.6365    4.1726 C   0  0  1  0  0  0  0  0  0  0  0  0
  -19.3365   41.0931    4.4826 C   0  0  2  0  0  0  0  0  0  0  0  0
  -20.8243   41.3404    4.7266 C   0  0  1  0  0  0  0  0  0  0  0  0
  -21.4838   40.3108    5.5237 C   0  0  1  0  0  0  0  0  0  0  0  0
  -22.9648   40.2197    5.3073 C   0  0  0  0  0  0  0  0  0  0  0  0
  -17.4051   38.1824    3.1161 C   0  0  0  0  0  0  0  0  0  0  0  0
  -15.9994   37.7315    2.9562 C   0  0  0  0  0  0  0  0  0  0  0  0
  -17.7301   39.3583    3.8828 N   0  0  0  0  0  0  0  0  0  0  0  0
  -18.8447   41.9506    3.5025 O   0  0  0  0  0  0  0  0  0  0  0  0
  -20.8531   42.5657    5.3987 O   0  0  0  0  0  0  0  0  0  0  0  0
  -21.0256   39.0062    5.2426 O   0  0  0  0  0  0  0  0  0  0  0  0
  -23.8451   40.3353    6.2670 O   0  0  0  0  0  0  0  0  0  0  0  0
  -18.3032   37.5040    2.5601 O   0  0  0  0  0  0  0  0  0  0  0  0
  -25.1583   40.1213    6.1711 C   0  0  1  0  0  0  0  0  0  0  0  0
  -25.7779   40.0881    7.6113 C   0  0  2  0  0  0  0  0  0  0  0  0
  -25.0084   41.1645    8.3232 C   0  0  1  0  0  0  0  0  0  0  0  0
  -25.1621   42.4595    7.6210 C   0  0  1  0  0  0  0  0  0  0  0  0
  -25.4530   42.4280    6.1862 C   0  0  2  0  0  0  0  0  0  0  0  0
  -26.5966   43.3884    5.8441 C   0  0  0  0  0  0  0  0  0  0  0  0
  -25.5858   38.8242    8.1526 O   0  0  0  0  0  0  0  0  0  0  0  0
  -25.3547   41.2580    9.6701 O   0  0  0  0  0  0  0  0  0  0  0  0
  -26.1795   43.1813    8.2922 O   0  0  0  0  0  0  0  0  0  0  0  0
  -25.7666   41.2353    5.6098 O   0  0  0  0  0  0  0  0  0  0  0  0
  -20.3209   36.2515    4.2181 C   0  0  0  0  0  0  0  0  0  0  0  0
  -19.2197   37.1468    5.3345 S   0  0  0  0  0  0  0  0  0  0  0  0
  2  1  1  0
  1 12  1  0
  1 26  1  6
  2  3  1  0
  2  9  1  1
  3  4  1  0
  3 10  1  6
  4  5  1  0
  4 11  1  1
  5  6  1  6
 12  5  1  0
  6 13  1  0
  7  8  1  0
  7  9  1  0
  7 14  2  0
 15 13  1  1
 15 16  1  0
 15 24  1  0
 16 17  1  0
 16 21  1  1
 17 18  1  0
 17 22  1  1
 18 19  1  0
 18 23  1  1
 19 20  1  1
 19 24  1  0
 26 25  1  0
M  END
$$$$
