
     RDKit          3D

 26 27  0  0  0  0  0  0  0  0999 V2000
  -18.4562   19.7133    3.8993 C   0  0  1  0  0  0  0  0  0  0  0  0
  -19.0837   18.3357    3.8926 C   0  0  1  0  0  0  0  0  0  0  0  0
  -18.7845   17.7492    2.5167 C   0  0  2  0  0  0  0  0  0  0  0  0
  -19.3863   18.6668    1.4802 C   0  0  1  0  0  0  0  0  0  0  0  0
  -19.1000   20.1222    1.7349 C   0  0  1  0  0  0  0  0  0  0  0  0
  -20.1791   20.9073    0.9776 C   0  0  0  0  0  0  0  0  0  0  0  0
  -19.4788   17.0167    5.9474 C   0  0  0  0  0  0  0  0  0  0  0  0
  -18.9210   16.2900    7.1176 C   0  0  0  0  0  0  0  0  0  0  0  0
  -18.6060   17.5083    4.9525 N   0  0  0  0  0  0  0  0  0  0  0  0
  -19.3228   16.4938    2.3639 O   0  0  0  0  0  0  0  0  0  0  0  0
  -18.8220   18.3319    0.2498 O   0  0  0  0  0  0  0  0  0  0  0  0
  -19.1905   20.5042    3.0466 O   0  0  0  0  0  0  0  0  0  0  0  0
  -20.0076   22.2408    1.2549 O   0  0  0  0  0  0  0  0  0  0  0  0
  -20.7285   17.1608    5.9006 O   0  0  0  0  0  0  0  0  0  0  0  0
  -21.1981   22.9630    1.1546 C   0  0  1  0  0  0  0  0  0  0  0  0
  -20.8479   24.4075    1.0622 C   0  0  2  0  0  0  0  0  0  0  0  0
  -21.6526   25.2142    0.1022 C   0  0  1  0  0  0  0  0  0  0  0  0
  -22.8854   24.5666   -0.4236 C   0  0  1  0  0  0  0  0  0  0  0  0
  -23.1707   23.2071    0.1426 C   0  0  2  0  0  0  0  0  0  0  0  0
  -23.7677   23.3377    1.5268 C   0  0  0  0  0  0  0  0  0  0  0  0
  -19.4606   24.5962    0.8561 O   0  0  0  0  0  0  0  0  0  0  0  0
  -21.9842   26.4816    0.6328 O   0  0  0  0  0  0  0  0  0  0  0  0
  -24.0241   25.3617   -0.1740 O   0  0  0  0  0  0  0  0  0  0  0  0
  -21.9963   22.4896    0.1158 O   0  0  0  0  0  0  0  0  0  0  0  0
  -17.6733   22.1010    5.5266 C   0  0  0  0  0  0  0  0  0  0  0  0
  -18.3024   20.4216    5.5448 S   0  0  0  0  0  0  0  0  0  0  0  0
  2  1  1  0
  1 12  1  0
  1 26  1  1
  2  3  1  0
  2  9  1  1
  3  4  1  0
  3 10  1  1
  4  5  1  0
  4 11  1  6
  5  6  1  0
  5 12  1  1
  6 13  1  6
  8  7  1  6
  7  9  1  0
  7 14  2  0
 15 13  1  6
 15 16  1  0
 15 24  1  0
 16 17  1  0
 16 21  1  6
 17 18  1  0
 17 22  1  1
 18 19  1  0
 18 23  1  1
 20 19  1  6
 19 24  1  1
 25 26  1  6
M  END
$$$$
