
     RDKit          3D

 26 27  0  0  0  0  0  0  0  0999 V2000
   -3.8834   40.8968   -3.8726 C   0  0  1  0  0  0  0  0  0  0  0  0
   -3.0003   40.8291   -5.1002 C   0  0  1  0  0  0  0  0  0  0  0  0
   -2.8691   42.2651   -5.5977 C   0  0  2  0  0  0  0  0  0  0  0  0
   -4.2549   42.7778   -5.9063 C   0  0  1  0  0  0  0  0  0  0  0  0
   -5.2597   42.4633   -4.8308 C   0  0  1  0  0  0  0  0  0  0  0  0
   -6.6379   42.5372   -5.5011 C   0  0  0  0  0  0  0  0  0  0  0  0
   -1.5651   38.8264   -4.8826 C   0  0  0  0  0  0  0  0  0  0  0  0
   -0.3257   38.2185   -4.3320 C   0  0  0  0  0  0  0  0  0  0  0  0
   -1.7341   40.2273   -4.8346 N   0  0  0  0  0  0  0  0  0  0  0  0
   -2.1019   42.3480   -6.7350 O   0  0  0  0  0  0  0  0  0  0  0  0
   -4.1706   44.1653   -6.0161 O   0  0  0  0  0  0  0  0  0  0  0  0
   -5.1546   41.2071   -4.2966 O   0  0  0  0  0  0  0  0  0  0  0  0
   -7.5333   43.0201   -4.5793 O   0  0  0  0  0  0  0  0  0  0  0  0
   -2.4208   38.0453   -5.3748 O   0  0  0  0  0  0  0  0  0  0  0  0
   -8.8558   42.9075   -5.0117 C   0  0  1  0  0  0  0  0  0  0  0  0
   -9.7281   43.5254   -3.9750 C   0  0  2  0  0  0  0  0  0  0  0  0
  -10.8692   44.3383   -4.4818 C   0  0  1  0  0  0  0  0  0  0  0  0
  -11.1794   44.1980   -5.9308 C   0  0  1  0  0  0  0  0  0  0  0  0
  -10.3271   43.2033   -6.6618 C   0  0  2  0  0  0  0  0  0  0  0  0
  -10.8064   41.7980   -6.3705 C   0  0  0  0  0  0  0  0  0  0  0  0
   -8.9726   44.2413   -3.0161 O   0  0  0  0  0  0  0  0  0  0  0  0
  -12.0458   44.1138   -3.7314 O   0  0  0  0  0  0  0  0  0  0  0  0
  -12.5219   43.8113   -6.1289 O   0  0  0  0  0  0  0  0  0  0  0  0
   -9.0192   43.4254   -6.2945 O   0  0  0  0  0  0  0  0  0  0  0  0
   -4.8882   38.1015   -3.4992 C   0  0  0  0  0  0  0  0  0  0  0  0
   -3.8300   39.4054   -2.8695 S   0  0  0  0  0  0  0  0  0  0  0  0
  2  1  1  0
  1 12  1  0
  1 26  1  6
  2  3  1  0
  2  9  1  1
  3  4  1  0
  3 10  1  6
  4  5  1  0
  4 11  1  1
  5  6  1  0
  5 12  1  6
  6 13  1  6
  8  7  1  6
  7  9  1  0
  7 14  2  0
 15 13  1  1
 15 16  1  0
 15 24  1  0
 16 17  1  0
 16 21  1  1
 17 18  1  0
 17 22  1  1
 18 19  1  0
 18 23  1  1
 20 19  1  6
 19 24  1  1
 25 26  1  6
M  END
$$$$
