
     RDKit          3D

 26 27  0  0  0  0  0  0  0  0999 V2000
  -15.2596   28.0020  -13.5661 C   0  0  1  0  0  0  0  0  0  0  0  0
  -16.5332   28.8084  -13.6988 C   0  0  1  0  0  0  0  0  0  0  0  0
  -17.6517   27.8019  -13.5821 C   0  0  2  0  0  0  0  0  0  0  0  0
  -17.4893   26.7059  -14.6341 C   0  0  1  0  0  0  0  0  0  0  0  0
  -16.1167   26.2443  -14.8169 C   0  0  1  0  0  0  0  0  0  0  0  0
  -15.8478   25.6295  -16.1578 C   0  0  0  0  0  0  0  0  0  0  0  0
  -15.7741   31.0101  -12.8901 C   0  0  0  0  0  0  0  0  0  0  0  0
  -15.6781   32.0253  -11.8106 C   0  0  0  0  0  0  0  0  0  0  0  0
  -16.6638   29.8822  -12.7782 N   0  0  0  0  0  0  0  0  0  0  0  0
  -18.9164   28.3787  -13.6570 O   0  0  0  0  0  0  0  0  0  0  0  0
  -18.2909   25.6647  -14.1577 O   0  0  0  0  0  0  0  0  0  0  0  0
  -15.1615   27.2790  -14.7276 O   0  0  0  0  0  0  0  0  0  0  0  0
  -14.7069   25.0830  -16.4880 O   0  0  0  0  0  0  0  0  0  0  0  0
  -15.0531   31.1671  -13.9056 O   0  0  0  0  0  0  0  0  0  0  0  0
  -14.0780   25.2013  -17.6585 C   0  0  1  0  0  0  0  0  0  0  0  0
  -12.8262   24.2568  -17.6646 C   0  0  2  0  0  0  0  0  0  0  0  0
  -13.3305   23.0410  -16.9400 C   0  0  1  0  0  0  0  0  0  0  0  0
  -14.5189   22.4858  -17.6279 C   0  0  1  0  0  0  0  0  0  0  0  0
  -15.3371   23.4024  -18.4245 C   0  0  2  0  0  0  0  0  0  0  0  0
  -15.6566   22.7931  -19.7934 C   0  0  0  0  0  0  0  0  0  0  0  0
  -11.7810   24.8940  -17.0098 O   0  0  0  0  0  0  0  0  0  0  0  0
  -12.3352   22.0812  -16.7634 O   0  0  0  0  0  0  0  0  0  0  0  0
  -14.0688   21.4223  -18.4482 O   0  0  0  0  0  0  0  0  0  0  0  0
  -14.8673   24.6578  -18.6624 O   0  0  0  0  0  0  0  0  0  0  0  0
  -12.4420   28.3335  -14.3245 C   0  0  0  0  0  0  0  0  0  0  0  0
  -13.8109   29.0350  -13.3788 S   0  0  0  0  0  0  0  0  0  0  0  0
  2  1  1  0
  1 12  1  0
  1 26  1  6
  2  3  1  0
  2  9  1  1
  3  4  1  0
  3 10  1  6
  4  5  1  0
  4 11  1  1
  5  6  1  6
 12  5  1  0
  6 13  1  0
  7  8  1  0
  7  9  1  0
  7 14  2  0
 15 13  1  1
 15 16  1  0
 15 24  1  0
 16 17  1  0
 16 21  1  1
 17 18  1  0
 17 22  1  6
 18 19  1  0
 18 23  1  6
 19 20  1  6
 19 24  1  0
 26 25  1  0
M  END
$$$$
