
     RDKit          3D

 26 27  0  0  0  0  0  0  0  0999 V2000
  -21.4435   38.6746    4.2809 C   0  0  1  0  0  0  0  0  0  0  0  0
  -20.6693   39.7781    4.9684 C   0  0  1  0  0  0  0  0  0  0  0  0
  -21.7154   40.6401    5.6318 C   0  0  2  0  0  0  0  0  0  0  0  0
  -22.7282   41.1322    4.5991 C   0  0  1  0  0  0  0  0  0  0  0  0
  -23.1332   40.1244    3.6241 C   0  0  1  0  0  0  0  0  0  0  0  0
  -23.6424   40.6887    2.3315 C   0  0  0  0  0  0  0  0  0  0  0  0
  -18.3545   39.0297    5.3678 C   0  0  0  0  0  0  0  0  0  0  0  0
  -17.8263   39.6899    4.1471 C   0  0  0  0  0  0  0  0  0  0  0  0
  -19.6683   39.3362    5.8741 N   0  0  0  0  0  0  0  0  0  0  0  0
  -21.1740   41.7066    6.3438 O   0  0  0  0  0  0  0  0  0  0  0  0
  -23.8249   41.5285    5.3699 O   0  0  0  0  0  0  0  0  0  0  0  0
  -22.0786   39.2765    3.2245 O   0  0  0  0  0  0  0  0  0  0  0  0
  -24.9122   40.8163    2.0475 O   0  0  0  0  0  0  0  0  0  0  0  0
  -17.6173   38.1939    5.9455 O   0  0  0  0  0  0  0  0  0  0  0  0
  -25.4293   41.2831    0.9100 C   0  0  1  0  0  0  0  0  0  0  0  0
  -26.7926   40.5594    0.6326 C   0  0  2  0  0  0  0  0  0  0  0  0
  -27.3880   40.4457    2.0075 C   0  0  1  0  0  0  0  0  0  0  0  0
  -27.5213   41.7854    2.6248 C   0  0  1  0  0  0  0  0  0  0  0  0
  -26.6061   42.8375    2.1777 C   0  0  2  0  0  0  0  0  0  0  0  0
  -27.3702   44.1335    1.8886 C   0  0  0  0  0  0  0  0  0  0  0  0
  -26.5351   39.3303    0.0408 O   0  0  0  0  0  0  0  0  0  0  0  0
  -28.5967   39.7515    2.0034 O   0  0  0  0  0  0  0  0  0  0  0  0
  -28.8584   42.2077    2.4238 O   0  0  0  0  0  0  0  0  0  0  0  0
  -25.8224   42.6019    1.0898 O   0  0  0  0  0  0  0  0  0  0  0  0
  -21.0991   35.7640    4.0968 C   0  0  0  0  0  0  0  0  0  0  0  0
  -20.3824   37.3671    3.6764 S   0  0  0  0  0  0  0  0  0  0  0  0
  2  1  1  0
  1 12  1  0
  1 26  1  6
  2  3  1  0
  2  9  1  1
  3  4  1  0
  3 10  1  6
  4  5  1  0
  4 11  1  1
  5  6  1  6
 12  5  1  0
  6 13  1  0
  7  8  1  0
  7  9  1  0
  7 14  2  0
 15 13  1  1
 15 16  1  0
 15 24  1  0
 16 17  1  0
 16 21  1  1
 17 18  1  0
 17 22  1  6
 18 19  1  0
 18 23  1  6
 19 20  1  6
 19 24  1  0
 26 25  1  0
M  END
$$$$
