
     RDKit          3D

 26 27  0  0  0  0  0  0  0  0999 V2000
  -21.1714   39.2521    6.2083 C   0  0  1  0  0  0  0  0  0  0  0  0
  -19.7628   39.2417    5.6552 C   0  0  1  0  0  0  0  0  0  0  0  0
  -19.7263   40.3643    4.6472 C   0  0  2  0  0  0  0  0  0  0  0  0
  -20.8161   40.1664    3.5949 C   0  0  1  0  0  0  0  0  0  0  0  0
  -22.0971   39.7167    4.1309 C   0  0  1  0  0  0  0  0  0  0  0  0
  -22.9609   38.9975    3.1383 C   0  0  0  0  0  0  0  0  0  0  0  0
  -17.5042   38.6222    6.4250 C   0  0  0  0  0  0  0  0  0  0  0  0
  -17.0984   38.1585    5.0740 C   0  0  0  0  0  0  0  0  0  0  0  0
  -18.7337   39.3454    6.6287 N   0  0  0  0  0  0  0  0  0  0  0  0
  -18.4797   40.5207    4.0478 O   0  0  0  0  0  0  0  0  0  0  0  0
  -20.9515   41.4301    3.0130 O   0  0  0  0  0  0  0  0  0  0  0  0
  -21.9677   38.7934    5.1900 O   0  0  0  0  0  0  0  0  0  0  0  0
  -24.2677   39.0331    3.1561 O   0  0  0  0  0  0  0  0  0  0  0  0
  -16.7392   38.3630    7.3859 O   0  0  0  0  0  0  0  0  0  0  0  0
  -25.0944   38.0327    2.8473 C   0  0  1  0  0  0  0  0  0  0  0  0
  -26.4964   38.3097    3.4929 C   0  0  2  0  0  0  0  0  0  0  0  0
  -26.6468   39.7950    3.3234 C   0  0  1  0  0  0  0  0  0  0  0  0
  -26.5490   40.1638    1.8923 C   0  0  1  0  0  0  0  0  0  0  0  0
  -25.7855   39.2792    1.0097 C   0  0  2  0  0  0  0  0  0  0  0  0
  -26.5660   38.9928   -0.2772 C   0  0  0  0  0  0  0  0  0  0  0  0
  -26.4652   37.9074    4.8213 O   0  0  0  0  0  0  0  0  0  0  0  0
  -27.8175   40.2769    3.9066 O   0  0  0  0  0  0  0  0  0  0  0  0
  -27.8717   40.2915    1.4017 O   0  0  0  0  0  0  0  0  0  0  0  0
  -25.3779   38.0721    1.4893 O   0  0  0  0  0  0  0  0  0  0  0  0
  -21.1301   36.4685    7.1432 C   0  0  0  0  0  0  0  0  0  0  0  0
  -21.3543   38.1908    7.6369 S   0  0  0  0  0  0  0  0  0  0  0  0
  2  1  1  0
  1 12  1  0
  1 26  1  1
  2  3  1  0
  2  9  1  1
  3  4  1  0
  3 10  1  6
  4  5  1  0
  4 11  1  1
  5  6  1  6
 12  5  1  0
  6 13  1  0
  7  8  1  0
  7  9  1  0
  7 14  2  0
 15 13  1  6
 15 16  1  0
 15 24  1  0
 16 17  1  0
 16 21  1  1
 17 18  1  0
 17 22  1  6
 18 19  1  0
 18 23  1  6
 19 20  1  6
 19 24  1  0
 26 25  1  0
M  END
$$$$
