
     RDKit          3D

 26 27  0  0  0  0  0  0  0  0999 V2000
  -22.2269   21.0506    0.6122 C   0  0  1  0  0  0  0  0  0  0  0  0
  -21.4765   19.9700    1.3600 C   0  0  1  0  0  0  0  0  0  0  0  0
  -22.1109   18.6729    0.9211 C   0  0  2  0  0  0  0  0  0  0  0  0
  -23.6137   18.6994    1.1954 C   0  0  1  0  0  0  0  0  0  0  0  0
  -24.2628   19.9669    0.8754 C   0  0  1  0  0  0  0  0  0  0  0  0
  -25.5376   20.2119    1.6259 C   0  0  0  0  0  0  0  0  0  0  0  0
  -19.2444   20.6668    2.1410 C   0  0  0  0  0  0  0  0  0  0  0  0
  -17.7677   20.7180    1.9941 C   0  0  0  0  0  0  0  0  0  0  0  0
  -20.0678   19.9803    1.1782 N   0  0  0  0  0  0  0  0  0  0  0  0
  -21.5203   17.5524    1.4984 O   0  0  0  0  0  0  0  0  0  0  0  0
  -24.1188   17.6785    0.3851 O   0  0  0  0  0  0  0  0  0  0  0  0
  -23.4726   21.0942    1.1848 O   0  0  0  0  0  0  0  0  0  0  0  0
  -26.1493   21.3671    1.6561 O   0  0  0  0  0  0  0  0  0  0  0  0
  -19.7531   21.2424    3.1338 O   0  0  0  0  0  0  0  0  0  0  0  0
  -27.1955   21.6929    2.4169 C   0  0  1  0  0  0  0  0  0  0  0  0
  -27.7080   23.1152    2.0002 C   0  0  2  0  0  0  0  0  0  0  0  0
  -27.5493   23.0952    0.5063 C   0  0  1  0  0  0  0  0  0  0  0  0
  -28.3176   21.9725   -0.0795 C   0  0  1  0  0  0  0  0  0  0  0  0
  -28.5702   20.8036    0.7655 C   0  0  2  0  0  0  0  0  0  0  0  0
  -30.0390   20.3773    0.6754 C   0  0  0  0  0  0  0  0  0  0  0  0
  -26.9228   24.0749    2.6245 O   0  0  0  0  0  0  0  0  0  0  0  0
  -27.8850   24.3161   -0.0765 O   0  0  0  0  0  0  0  0  0  0  0  0
  -29.5509   22.5011   -0.5333 O   0  0  0  0  0  0  0  0  0  0  0  0
  -28.2724   20.8802    2.0916 O   0  0  0  0  0  0  0  0  0  0  0  0
  -22.5854   23.9353    0.1953 C   0  0  0  0  0  0  0  0  0  0  0  0
  -21.4445   22.6531    0.7562 S   0  0  0  0  0  0  0  0  0  0  0  0
  2  1  1  0
  1 12  1  0
  1 26  1  1
  2  3  1  0
  2  9  1  6
  3  4  1  0
  3 10  1  1
  4  5  1  0
  4 11  1  6
  5  6  1  1
 12  5  1  0
  6 13  1  0
  7  8  1  0
  7  9  1  0
  7 14  2  0
 15 13  1  6
 15 16  1  0
 15 24  1  0
 16 17  1  0
 16 21  1  1
 17 18  1  0
 17 22  1  6
 18 19  1  0
 18 23  1  1
 19 20  1  1
 19 24  1  0
 26 25  1  0
M  END
$$$$
