
     RDKit          3D

 26 27  0  0  0  0  0  0  0  0999 V2000
  -16.7370   33.2602  -20.3442 C   0  0  1  0  0  0  0  0  0  0  0  0
  -15.6986   34.3611  -20.3127 C   0  0  1  0  0  0  0  0  0  0  0  0
  -14.9375   34.1775  -19.0036 C   0  0  2  0  0  0  0  0  0  0  0  0
  -15.9299   34.2824  -17.8711 C   0  0  1  0  0  0  0  0  0  0  0  0
  -17.1874   33.4893  -18.1057 C   0  0  1  0  0  0  0  0  0  0  0  0
  -18.2578   34.1104  -17.1986 C   0  0  0  0  0  0  0  0  0  0  0  0
  -15.3353   34.5792  -22.7496 C   0  0  0  0  0  0  0  0  0  0  0  0
  -14.8692   33.7357  -23.8810 C   0  0  0  0  0  0  0  0  0  0  0  0
  -14.8377   34.3382  -21.4505 N   0  0  0  0  0  0  0  0  0  0  0  0
  -13.9671   35.1359  -18.8333 O   0  0  0  0  0  0  0  0  0  0  0  0
  -15.3135   33.7730  -16.7288 O   0  0  0  0  0  0  0  0  0  0  0  0
  -17.6763   33.5528  -19.3829 O   0  0  0  0  0  0  0  0  0  0  0  0
  -19.3762   33.3163  -17.2562 O   0  0  0  0  0  0  0  0  0  0  0  0
  -16.1684   35.4857  -23.0116 O   0  0  0  0  0  0  0  0  0  0  0  0
  -20.3610   33.7170  -16.3515 C   0  0  1  0  0  0  0  0  0  0  0  0
  -21.5202   32.7945  -16.5021 C   0  0  2  0  0  0  0  0  0  0  0  0
  -22.1914   32.3777  -15.2389 C   0  0  1  0  0  0  0  0  0  0  0  0
  -21.8261   33.1487  -14.0192 C   0  0  1  0  0  0  0  0  0  0  0  0
  -20.8719   34.2819  -14.2551 C   0  0  2  0  0  0  0  0  0  0  0  0
  -21.6087   35.4647  -14.8446 C   0  0  0  0  0  0  0  0  0  0  0  0
  -21.1960   31.6755  -17.3055 O   0  0  0  0  0  0  0  0  0  0  0  0
  -23.5983   32.3623  -15.3742 O   0  0  0  0  0  0  0  0  0  0  0  0
  -22.9702   33.6980  -13.4025 O   0  0  0  0  0  0  0  0  0  0  0  0
  -19.8564   33.8117  -15.0566 O   0  0  0  0  0  0  0  0  0  0  0  0
  -18.6889   34.2456  -22.3890 C   0  0  0  0  0  0  0  0  0  0  0  0
  -17.4620   33.0065  -21.9699 S   0  0  0  0  0  0  0  0  0  0  0  0
  2  1  1  0
  1 12  1  0
  1 26  1  6
  2  3  1  0
  2  9  1  6
  3  4  1  0
  3 10  1  1
  4  5  1  0
  4 11  1  1
  5  6  1  0
  5 12  1  6
  6 13  1  6
  8  7  1  6
  7  9  1  0
  7 14  2  0
 15 13  1  6
 15 16  1  0
 15 24  1  0
 16 17  1  0
 16 21  1  1
 17 18  1  0
 17 22  1  6
 18 19  1  0
 18 23  1  6
 20 19  1  6
 19 24  1  6
 25 26  1  6
M  END
$$$$
