
     RDKit          3D

 26 27  0  0  0  0  0  0  0  0999 V2000
  -21.4977   39.0642    6.0173 C   0  0  1  0  0  0  0  0  0  0  0  0
  -20.0942   38.9976    5.4544 C   0  0  1  0  0  0  0  0  0  0  0  0
  -19.9115   40.2748    4.6405 C   0  0  2  0  0  0  0  0  0  0  0  0
  -20.9691   40.2942    3.5638 C   0  0  1  0  0  0  0  0  0  0  0  0
  -22.3409   39.9369    4.0695 C   0  0  1  0  0  0  0  0  0  0  0  0
  -23.1389   39.4726    2.8440 C   0  0  0  0  0  0  0  0  0  0  0  0
  -18.7150   37.5770    6.9369 C   0  0  0  0  0  0  0  0  0  0  0  0
  -18.1208   37.4435    8.2925 C   0  0  0  0  0  0  0  0  0  0  0  0
  -19.1010   38.8518    6.4685 N   0  0  0  0  0  0  0  0  0  0  0  0
  -18.6732   40.3348    4.0473 O   0  0  0  0  0  0  0  0  0  0  0  0
  -21.0272   41.5934    3.0605 O   0  0  0  0  0  0  0  0  0  0  0  0
  -22.3707   38.9030    4.9666 O   0  0  0  0  0  0  0  0  0  0  0  0
  -24.1469   40.3787    2.6253 O   0  0  0  0  0  0  0  0  0  0  0  0
  -18.8474   36.5244    6.2593 O   0  0  0  0  0  0  0  0  0  0  0  0
  -25.2488   39.8058    1.9877 C   0  0  1  0  0  0  0  0  0  0  0  0
  -26.3166   40.8405    1.9066 C   0  0  2  0  0  0  0  0  0  0  0  0
  -27.0877   40.8846    0.6325 C   0  0  1  0  0  0  0  0  0  0  0  0
  -26.9107   39.7215   -0.2795 C   0  0  1  0  0  0  0  0  0  0  0  0
  -26.0198   38.6376    0.2511 C   0  0  2  0  0  0  0  0  0  0  0  0
  -26.7717   37.7975    1.2603 C   0  0  0  0  0  0  0  0  0  0  0  0
  -25.8295   42.1221    2.2574 O   0  0  0  0  0  0  0  0  0  0  0  0
  -28.4673   41.0884    0.8624 O   0  0  0  0  0  0  0  0  0  0  0  0
  -28.1504   39.1205   -0.5845 O   0  0  0  0  0  0  0  0  0  0  0  0
  -24.8935   39.2384    0.7661 O   0  0  0  0  0  0  0  0  0  0  0  0
  -23.3366   37.0023    7.1703 C   0  0  0  0  0  0  0  0  0  0  0  0
  -21.7906   37.8933    7.3501 S   0  0  0  0  0  0  0  0  0  0  0  0
  2  1  1  0
  1 12  1  0
  1 26  1  1
  2  3  1  0
  2  9  1  1
  3  4  1  0
  3 10  1  6
  4  5  1  0
  4 11  1  1
  5  6  1  0
  5 12  1  1
  6 13  1  6
  8  7  1  6
  7  9  1  0
  7 14  2  0
 15 13  1  6
 15 16  1  0
 15 24  1  0
 16 17  1  0
 16 21  1  6
 17 18  1  0
 17 22  1  1
 18 19  1  0
 18 23  1  1
 20 19  1  6
 19 24  1  1
 25 26  1  6
M  END
$$$$
