
     RDKit          3D

 26 27  0  0  0  0  0  0  0  0999 V2000
  -21.3231   38.9299    3.9319 C   0  0  1  0  0  0  0  0  0  0  0  0
  -22.3454   40.0427    3.8516 C   0  0  1  0  0  0  0  0  0  0  0  0
  -21.5386   41.3170    3.8006 C   0  0  2  0  0  0  0  0  0  0  0  0
  -20.6091   41.4037    5.0100 C   0  0  1  0  0  0  0  0  0  0  0  0
  -19.9545   40.1466    5.3586 C   0  0  1  0  0  0  0  0  0  0  0  0
  -19.5202   40.0557    6.7909 C   0  0  0  0  0  0  0  0  0  0  0  0
  -24.4266   39.0919    2.9338 C   0  0  0  0  0  0  0  0  0  0  0  0
  -24.9927   38.3401    1.7852 C   0  0  0  0  0  0  0  0  0  0  0  0
  -23.2686   39.9349    2.7775 N   0  0  0  0  0  0  0  0  0  0  0  0
  -22.3270   42.4596    3.6973 O   0  0  0  0  0  0  0  0  0  0  0  0
  -19.6582   42.3562    4.6324 O   0  0  0  0  0  0  0  0  0  0  0  0
  -20.7845   39.0179    5.1904 O   0  0  0  0  0  0  0  0  0  0  0  0
  -18.3665   39.5697    7.1681 O   0  0  0  0  0  0  0  0  0  0  0  0
  -24.9914   38.9687    4.0481 O   0  0  0  0  0  0  0  0  0  0  0  0
  -17.4356   40.1989    7.8871 C   0  0  1  0  0  0  0  0  0  0  0  0
  -17.1953   39.4065    9.2189 C   0  0  2  0  0  0  0  0  0  0  0  0
  -17.2872   37.9758    8.7692 C   0  0  1  0  0  0  0  0  0  0  0  0
  -16.2912   37.7035    7.7073 C   0  0  1  0  0  0  0  0  0  0  0  0
  -15.8485   38.8287    6.8814 C   0  0  2  0  0  0  0  0  0  0  0  0
  -14.3223   38.8355    6.7481 C   0  0  0  0  0  0  0  0  0  0  0  0
  -18.1775   39.7601   10.1341 O   0  0  0  0  0  0  0  0  0  0  0  0
  -17.1740   37.0804    9.8314 O   0  0  0  0  0  0  0  0  0  0  0  0
  -15.1681   37.1059    8.3302 O   0  0  0  0  0  0  0  0  0  0  0  0
  -16.2083   40.0892    7.2487 O   0  0  0  0  0  0  0  0  0  0  0  0
  -21.7495   36.3007    5.1685 C   0  0  0  0  0  0  0  0  0  0  0  0
  -22.0519   37.3120    3.7036 S   0  0  0  0  0  0  0  0  0  0  0  0
  2  1  1  0
  1 12  1  0
  1 26  1  1
  2  3  1  0
  2  9  1  6
  3  4  1  0
  3 10  1  1
  4  5  1  0
  4 11  1  6
  5  6  1  1
 12  5  1  0
  6 13  1  0
  7  8  1  0
  7  9  1  0
  7 14  2  0
 15 13  1  6
 15 16  1  0
 15 24  1  0
 16 17  1  0
 16 21  1  1
 17 18  1  0
 17 22  1  1
 18 19  1  0
 18 23  1  1
 19 20  1  1
 19 24  1  0
 26 25  1  0
M  END
$$$$
