
     RDKit          3D

 26 27  0  0  0  0  0  0  0  0999 V2000
  -10.9920   25.5838  -11.7891 C   0  0  1  0  0  0  0  0  0  0  0  0
  -11.0730   25.6625  -13.2981 C   0  0  1  0  0  0  0  0  0  0  0  0
  -11.1266   24.2287  -13.7659 C   0  0  2  0  0  0  0  0  0  0  0  0
   -9.9183   23.4552  -13.2410 C   0  0  1  0  0  0  0  0  0  0  0  0
   -9.5683   23.7514  -11.8553 C   0  0  1  0  0  0  0  0  0  0  0  0
   -8.1363   23.4722  -11.5092 C   0  0  0  0  0  0  0  0  0  0  0  0
  -12.0952   27.8770  -13.6571 C   0  0  0  0  0  0  0  0  0  0  0  0
  -13.3010   28.6557  -13.2769 C   0  0  0  0  0  0  0  0  0  0  0  0
  -12.1461   26.4444  -13.8028 N   0  0  0  0  0  0  0  0  0  0  0  0
  -11.2309   24.1083  -15.1488 O   0  0  0  0  0  0  0  0  0  0  0  0
  -10.2982   22.1160  -13.3688 O   0  0  0  0  0  0  0  0  0  0  0  0
   -9.7341   25.1105  -11.5143 O   0  0  0  0  0  0  0  0  0  0  0  0
   -7.6340   23.6418  -10.3141 O   0  0  0  0  0  0  0  0  0  0  0  0
  -11.0276   28.5092  -13.8479 O   0  0  0  0  0  0  0  0  0  0  0  0
   -6.4117   23.2937   -9.9087 C   0  0  1  0  0  0  0  0  0  0  0  0
   -6.1571   23.8896   -8.4807 C   0  0  2  0  0  0  0  0  0  0  0  0
   -7.4947   23.7280   -7.8157 C   0  0  1  0  0  0  0  0  0  0  0  0
   -7.9049   22.3048   -7.8202 C   0  0  1  0  0  0  0  0  0  0  0  0
   -7.3695   21.4431   -8.8762 C   0  0  2  0  0  0  0  0  0  0  0  0
   -6.8517   20.1258   -8.2900 C   0  0  0  0  0  0  0  0  0  0  0  0
   -5.7639   25.2146   -8.6118 O   0  0  0  0  0  0  0  0  0  0  0  0
   -7.5153   24.2719   -6.5325 O   0  0  0  0  0  0  0  0  0  0  0  0
   -7.5636   21.7669   -6.5551 O   0  0  0  0  0  0  0  0  0  0  0  0
   -6.3768   21.9266   -9.6725 O   0  0  0  0  0  0  0  0  0  0  0  0
   -9.6057   27.8930  -10.6187 C   0  0  0  0  0  0  0  0  0  0  0  0
  -11.2172   27.1769  -11.0067 S   0  0  0  0  0  0  0  0  0  0  0  0
  2  1  1  0
  1 12  1  0
  1 26  1  1
  2  3  1  0
  2  9  1  1
  3  4  1  0
  3 10  1  6
  4  5  1  0
  4 11  1  1
  5  6  1  6
 12  5  1  0
  6 13  1  0
  7  8  1  0
  7  9  1  0
  7 14  2  0
 15 13  1  1
 15 16  1  0
 15 24  1  0
 16 17  1  0
 16 21  1  6
 17 18  1  0
 17 22  1  1
 18 19  1  0
 18 23  1  1
 19 20  1  1
 19 24  1  0
 26 25  1  0
M  END
$$$$
