
     RDKit          3D

 26 27  0  0  0  0  0  0  0  0999 V2000
  -21.2366   18.7225    2.0836 C   0  0  1  0  0  0  0  0  0  0  0  0
  -19.8816   19.3471    2.3385 C   0  0  1  0  0  0  0  0  0  0  0  0
  -20.1037   20.3928    3.4266 C   0  0  2  0  0  0  0  0  0  0  0  0
  -21.1154   21.3887    2.9136 C   0  0  1  0  0  0  0  0  0  0  0  0
  -22.3088   20.7436    2.2619 C   0  0  1  0  0  0  0  0  0  0  0  0
  -22.9238   21.8116    1.3478 C   0  0  0  0  0  0  0  0  0  0  0  0
  -18.1602   17.6819    1.7205 C   0  0  0  0  0  0  0  0  0  0  0  0
  -17.5572   16.3664    2.0590 C   0  0  0  0  0  0  0  0  0  0  0  0
  -18.8920   18.3855    2.7018 N   0  0  0  0  0  0  0  0  0  0  0  0
  -18.9449   21.0606    3.7434 O   0  0  0  0  0  0  0  0  0  0  0  0
  -21.5732   22.1192    4.0096 O   0  0  0  0  0  0  0  0  0  0  0  0
  -22.0168   19.6705    1.4634 O   0  0  0  0  0  0  0  0  0  0  0  0
  -24.1880   21.4005    1.0050 O   0  0  0  0  0  0  0  0  0  0  0  0
  -17.9848   18.1124    0.5507 O   0  0  0  0  0  0  0  0  0  0  0  0
  -24.7992   22.2624    0.0926 C   0  0  1  0  0  0  0  0  0  0  0  0
  -26.2071   21.8119   -0.0865 C   0  0  2  0  0  0  0  0  0  0  0  0
  -27.2314   22.8902   -0.1757 C   0  0  1  0  0  0  0  0  0  0  0  0
  -26.7117   24.2710   -0.3732 C   0  0  1  0  0  0  0  0  0  0  0  0
  -25.2214   24.3666   -0.5151 C   0  0  2  0  0  0  0  0  0  0  0  0
  -24.8070   23.9556   -1.9111 C   0  0  0  0  0  0  0  0  0  0  0  0
  -26.5694   20.8367    0.8730 O   0  0  0  0  0  0  0  0  0  0  0  0
  -28.1991   22.6122   -1.1677 O   0  0  0  0  0  0  0  0  0  0  0  0
  -27.2719   24.8661   -1.5235 O   0  0  0  0  0  0  0  0  0  0  0  0
  -24.6580   23.5943    0.4754 O   0  0  0  0  0  0  0  0  0  0  0  0
  -22.7691   16.5174    0.7601 C   0  0  0  0  0  0  0  0  0  0  0  0
  -21.1521   17.1809    1.1620 S   0  0  0  0  0  0  0  0  0  0  0  0
  2  1  1  0
  1 12  1  0
  1 26  1  6
  2  3  1  0
  2  9  1  1
  3  4  1  0
  3 10  1  6
  4  5  1  0
  4 11  1  1
  5  6  1  0
  5 12  1  6
  6 13  1  6
  8  7  1  6
  7  9  1  0
  7 14  2  0
 15 13  1  1
 15 16  1  0
 15 24  1  0
 16 17  1  0
 16 21  1  1
 17 18  1  0
 17 22  1  6
 18 19  1  0
 18 23  1  6
 20 19  1  6
 19 24  1  1
 25 26  1  6
M  END
$$$$
