
     RDKit          3D

 26 27  0  0  0  0  0  0  0  0999 V2000
  -33.8956   29.4323    2.2070 C   0  0  1  0  0  0  0  0  0  0  0  0
  -32.4394   29.0245    2.2736 C   0  0  1  0  0  0  0  0  0  0  0  0
  -32.0035   29.2727    3.7142 C   0  0  2  0  0  0  0  0  0  0  0  0
  -32.2113   30.7370    4.0162 C   0  0  1  0  0  0  0  0  0  0  0  0
  -33.5459   31.2571    3.5539 C   0  0  1  0  0  0  0  0  0  0  0  0
  -33.3882   32.7778    3.4238 C   0  0  0  0  0  0  0  0  0  0  0  0
  -31.6466   27.3693    0.6153 C   0  0  0  0  0  0  0  0  0  0  0  0
  -32.5222   27.1561   -0.5664 C   0  0  0  0  0  0  0  0  0  0  0  0
  -32.2270   27.6737    1.8659 N   0  0  0  0  0  0  0  0  0  0  0  0
  -30.6793   28.9624    3.9124 O   0  0  0  0  0  0  0  0  0  0  0  0
  -32.1530   30.8888    5.4011 O   0  0  0  0  0  0  0  0  0  0  0  0
  -33.9455   30.8017    2.3261 O   0  0  0  0  0  0  0  0  0  0  0  0
  -34.3672   33.3726    4.1805 O   0  0  0  0  0  0  0  0  0  0  0  0
  -30.4046   27.2658    0.4386 O   0  0  0  0  0  0  0  0  0  0  0  0
  -34.2199   34.7592    4.2473 C   0  0  1  0  0  0  0  0  0  0  0  0
  -35.1857   35.2715    5.2584 C   0  0  2  0  0  0  0  0  0  0  0  0
  -34.6848   36.3559    6.1490 C   0  0  1  0  0  0  0  0  0  0  0  0
  -33.4059   36.9989    5.7407 C   0  0  1  0  0  0  0  0  0  0  0  0
  -32.8354   36.4964    4.4475 C   0  0  2  0  0  0  0  0  0  0  0  0
  -33.5770   37.1117    3.2809 C   0  0  0  0  0  0  0  0  0  0  0  0
  -35.7662   34.2193    6.0059 O   0  0  0  0  0  0  0  0  0  0  0  0
  -35.6617   37.3560    6.3563 O   0  0  0  0  0  0  0  0  0  0  0  0
  -33.5584   38.3952    5.6062 O   0  0  0  0  0  0  0  0  0  0  0  0
  -32.8939   35.1214    4.4724 O   0  0  0  0  0  0  0  0  0  0  0  0
  -36.4518   29.3608    0.6504 C   0  0  0  0  0  0  0  0  0  0  0  0
  -34.7406   28.8312    0.7381 S   0  0  0  0  0  0  0  0  0  0  0  0
  2  1  1  0
  1 12  1  0
  1 26  1  6
  2  3  1  0
  2  9  1  1
  3  4  1  0
  3 10  1  6
  4  5  1  0
  4 11  1  1
  5  6  1  0
  5 12  1  6
  6 13  1  6
  8  7  1  6
  7  9  1  0
  7 14  2  0
 15 13  1  1
 15 16  1  0
 15 24  1  0
 16 17  1  0
 16 21  1  1
 17 18  1  0
 17 22  1  6
 18 19  1  0
 18 23  1  6
 20 19  1  6
 19 24  1  1
 25 26  1  6
M  END
$$$$
