
     RDKit          3D

 26 27  0  0  0  0  0  0  0  0999 V2000
   -5.9093   40.6377   -4.4600 C   0  0  1  0  0  0  0  0  0  0  0  0
   -6.2163   42.0316   -3.9557 C   0  0  1  0  0  0  0  0  0  0  0  0
   -5.4808   42.9842   -4.8930 C   0  0  2  0  0  0  0  0  0  0  0  0
   -4.0093   42.6542   -4.8291 C   0  0  1  0  0  0  0  0  0  0  0  0
   -3.7255   41.1785   -4.9129 C   0  0  1  0  0  0  0  0  0  0  0  0
   -2.3330   40.9774   -4.3008 C   0  0  0  0  0  0  0  0  0  0  0  0
   -8.5650   41.2563   -3.9739 C   0  0  0  0  0  0  0  0  0  0  0  0
   -9.2454   40.9786   -5.2656 C   0  0  0  0  0  0  0  0  0  0  0  0
   -7.6166   42.2993   -3.8967 N   0  0  0  0  0  0  0  0  0  0  0  0
   -5.6568   44.2989   -4.5329 O   0  0  0  0  0  0  0  0  0  0  0  0
   -3.3974   43.2671   -5.9220 O   0  0  0  0  0  0  0  0  0  0  0  0
   -4.5827   40.3874   -4.1961 O   0  0  0  0  0  0  0  0  0  0  0  0
   -2.1581   39.6345   -4.0753 O   0  0  0  0  0  0  0  0  0  0  0  0
   -8.8748   40.5321   -2.9919 O   0  0  0  0  0  0  0  0  0  0  0  0
   -0.8172   39.2528   -4.1465 C   0  0  1  0  0  0  0  0  0  0  0  0
   -0.7730   37.7731   -4.3083 C   0  0  2  0  0  0  0  0  0  0  0  0
    0.2484   37.2504   -5.2588 C   0  0  1  0  0  0  0  0  0  0  0  0
    1.2861   38.2210   -5.7024 C   0  0  1  0  0  0  0  0  0  0  0  0
    1.1849   39.5792   -5.0739 C   0  0  2  0  0  0  0  0  0  0  0  0
    1.7460   39.5426   -3.6691 C   0  0  0  0  0  0  0  0  0  0  0  0
   -2.0542   37.2397   -4.5856 O   0  0  0  0  0  0  0  0  0  0  0  0
    0.8815   36.0892   -4.7603 O   0  0  0  0  0  0  0  0  0  0  0  0
    2.5838   37.7387   -5.4294 O   0  0  0  0  0  0  0  0  0  0  0  0
   -0.1348   39.9667   -5.1288 O   0  0  0  0  0  0  0  0  0  0  0  0
   -6.6346   38.9727   -2.0800 C   0  0  0  0  0  0  0  0  0  0  0  0
   -7.0013   39.3770   -3.7884 S   0  0  0  0  0  0  0  0  0  0  0  0
  2  1  1  0
  1 12  1  0
  1 26  1  1
  2  3  1  0
  2  9  1  6
  3  4  1  0
  3 10  1  1
  4  5  1  0
  4 11  1  6
  5  6  1  0
  5 12  1  1
  6 13  1  6
  8  7  1  6
  7  9  1  0
  7 14  2  0
 15 13  1  6
 15 16  1  0
 15 24  1  0
 16 17  1  0
 16 21  1  6
 17 18  1  0
 17 22  1  1
 18 19  1  0
 18 23  1  1
 20 19  1  6
 19 24  1  1
 25 26  1  6
M  END
$$$$
