
     RDKit          3D

 26 27  0  0  0  0  0  0  0  0999 V2000
  -18.2351   39.7856    5.4945 C   0  0  1  0  0  0  0  0  0  0  0  0
  -17.7613   39.0830    4.2402 C   0  0  1  0  0  0  0  0  0  0  0  0
  -18.4080   39.8281    3.0768 C   0  0  2  0  0  0  0  0  0  0  0  0
  -19.9052   39.7546    3.2536 C   0  0  1  0  0  0  0  0  0  0  0  0
  -20.3548   40.0561    4.6579 C   0  0  1  0  0  0  0  0  0  0  0  0
  -21.7456   39.4248    4.8044 C   0  0  0  0  0  0  0  0  0  0  0  0
  -15.5985   37.9559    4.6526 C   0  0  0  0  0  0  0  0  0  0  0  0
  -14.1133   38.0058    4.6322 C   0  0  0  0  0  0  0  0  0  0  0  0
  -16.3387   39.0419    4.1366 N   0  0  0  0  0  0  0  0  0  0  0  0
  -18.0768   39.2745    1.8631 O   0  0  0  0  0  0  0  0  0  0  0  0
  -20.4713   40.7115    2.4118 O   0  0  0  0  0  0  0  0  0  0  0  0
  -19.5744   39.5084    5.6405 O   0  0  0  0  0  0  0  0  0  0  0  0
  -21.9571   39.1673    6.1362 O   0  0  0  0  0  0  0  0  0  0  0  0
  -16.1340   36.9259    5.1394 O   0  0  0  0  0  0  0  0  0  0  0  0
  -23.2371   39.5368    6.5533 C   0  0  1  0  0  0  0  0  0  0  0  0
  -23.2780   39.4381    8.0386 C   0  0  2  0  0  0  0  0  0  0  0  0
  -24.0129   40.5247    8.7452 C   0  0  1  0  0  0  0  0  0  0  0  0
  -24.8597   41.4031    7.8924 C   0  0  1  0  0  0  0  0  0  0  0  0
  -24.8960   41.0236    6.4417 C   0  0  2  0  0  0  0  0  0  0  0  0
  -25.8230   39.8452    6.2380 C   0  0  0  0  0  0  0  0  0  0  0  0
  -21.9861   39.2513    8.5853 O   0  0  0  0  0  0  0  0  0  0  0  0
  -24.7924   40.0219    9.8116 O   0  0  0  0  0  0  0  0  0  0  0  0
  -26.1958   41.4177    8.3458 O   0  0  0  0  0  0  0  0  0  0  0  0
  -23.6014   40.7802    6.0419 O   0  0  0  0  0  0  0  0  0  0  0  0
  -17.8000   37.8304    7.7195 C   0  0  0  0  0  0  0  0  0  0  0  0
  -17.2752   39.3659    6.9558 S   0  0  0  0  0  0  0  0  0  0  0  0
  2  1  1  0
  1 12  1  0
  1 26  1  1
  2  3  1  0
  2  9  1  6
  3  4  1  0
  3 10  1  6
  4  5  1  0
  4 11  1  6
  5  6  1  0
  5 12  1  1
  6 13  1  6
  8  7  1  6
  7  9  1  0
  7 14  2  0
 15 13  1  1
 15 16  1  0
 15 24  1  0
 16 17  1  0
 16 21  1  1
 17 18  1  0
 17 22  1  1
 18 19  1  0
 18 23  1  1
 20 19  1  6
 19 24  1  1
 25 26  1  6
M  END
$$$$
