
     RDKit          3D

 26 27  0  0  0  0  0  0  0  0999 V2000
  -19.6511   38.6706    5.2672 C   0  0  1  0  0  0  0  0  0  0  0  0
  -19.2763   39.1427    3.8792 C   0  0  1  0  0  0  0  0  0  0  0  0
  -19.5603   40.6249    3.8763 C   0  0  2  0  0  0  0  0  0  0  0  0
  -21.0169   40.8853    4.2566 C   0  0  1  0  0  0  0  0  0  0  0  0
  -21.5118   40.0561    5.3511 C   0  0  1  0  0  0  0  0  0  0  0  0
  -23.0008   39.8797    5.3646 C   0  0  0  0  0  0  0  0  0  0  0  0
  -17.7018   37.6265    2.7391 C   0  0  0  0  0  0  0  0  0  0  0  0
  -16.3198   37.1452    2.4873 C   0  0  0  0  0  0  0  0  0  0  0  0
  -17.9479   38.8383    3.4788 N   0  0  0  0  0  0  0  0  0  0  0  0
  -19.2450   41.2397    2.6679 O   0  0  0  0  0  0  0  0  0  0  0  0
  -21.0293   42.2333    4.6267 O   0  0  0  0  0  0  0  0  0  0  0  0
  -21.0204   38.7338    5.3179 O   0  0  0  0  0  0  0  0  0  0  0  0
  -23.7204   39.8836    6.4562 O   0  0  0  0  0  0  0  0  0  0  0  0
  -18.6508   36.9415    2.2853 O   0  0  0  0  0  0  0  0  0  0  0  0
  -25.0320   39.6570    6.5445 C   0  0  1  0  0  0  0  0  0  0  0  0
  -25.4189   39.4718    8.0529 C   0  0  2  0  0  0  0  0  0  0  0  0
  -24.5499   40.4866    8.7403 C   0  0  1  0  0  0  0  0  0  0  0  0
  -24.8142   41.8413    8.2031 C   0  0  1  0  0  0  0  0  0  0  0  0
  -25.3256   41.9455    6.8349 C   0  0  2  0  0  0  0  0  0  0  0  0
  -26.5107   42.9145    6.7719 C   0  0  0  0  0  0  0  0  0  0  0  0
  -25.1420   38.1645    8.4292 O   0  0  0  0  0  0  0  0  0  0  0  0
  -24.6818   40.4414   10.1272 O   0  0  0  0  0  0  0  0  0  0  0  0
  -25.7158   42.4757    9.0926 O   0  0  0  0  0  0  0  0  0  0  0  0
  -25.7230   40.8097    6.1983 O   0  0  0  0  0  0  0  0  0  0  0  0
  -19.3911   36.5944    7.3278 C   0  0  0  0  0  0  0  0  0  0  0  0
  -19.1161   36.9939    5.5885 S   0  0  0  0  0  0  0  0  0  0  0  0
  2  1  1  0
  1 12  1  0
  1 26  1  6
  2  3  1  0
  2  9  1  1
  3  4  1  0
  3 10  1  6
  4  5  1  0
  4 11  1  1
  5  6  1  6
 12  5  1  0
  6 13  1  0
  7  8  1  0
  7  9  1  0
  7 14  2  0
 15 13  1  1
 15 16  1  0
 15 24  1  0
 16 17  1  0
 16 21  1  1
 17 18  1  0
 17 22  1  1
 18 19  1  0
 18 23  1  1
 19 20  1  1
 19 24  1  0
 26 25  1  0
M  END
$$$$
