
     RDKit          3D

 26 27  0  0  0  0  0  0  0  0999 V2000
  -18.3378   31.9546  -14.8533 C   0  0  1  0  0  0  0  0  0  0  0  0
  -19.5457   32.8423  -14.6457 C   0  0  1  0  0  0  0  0  0  0  0  0
  -20.6654   32.1682  -15.4003 C   0  0  2  0  0  0  0  0  0  0  0  0
  -20.2740   31.9717  -16.8640 C   0  0  1  0  0  0  0  0  0  0  0  0
  -18.8974   31.5308  -17.0660 C   0  0  1  0  0  0  0  0  0  0  0  0
  -18.3353   31.8672  -18.4148 C   0  0  0  0  0  0  0  0  0  0  0  0
  -19.4727   32.1538  -12.2796 C   0  0  0  0  0  0  0  0  0  0  0  0
  -18.6900   32.5812  -11.0923 C   0  0  0  0  0  0  0  0  0  0  0  0
  -19.8764   33.1000  -13.2886 N   0  0  0  0  0  0  0  0  0  0  0  0
  -21.8784   32.8431  -15.2968 O   0  0  0  0  0  0  0  0  0  0  0  0
  -21.1664   30.9972  -17.3201 O   0  0  0  0  0  0  0  0  0  0  0  0
  -17.9830   32.1209  -16.1679 O   0  0  0  0  0  0  0  0  0  0  0  0
  -17.1590   31.4731  -18.8278 O   0  0  0  0  0  0  0  0  0  0  0  0
  -19.7718   30.9385  -12.3757 O   0  0  0  0  0  0  0  0  0  0  0  0
  -16.2864   32.1872  -19.5405 C   0  0  1  0  0  0  0  0  0  0  0  0
  -15.0242   31.3049  -19.8369 C   0  0  2  0  0  0  0  0  0  0  0  0
  -15.6242   29.9511  -20.0913 C   0  0  1  0  0  0  0  0  0  0  0  0
  -16.5981   30.0189  -21.2050 C   0  0  1  0  0  0  0  0  0  0  0  0
  -17.2545   31.3027  -21.4609 C   0  0  2  0  0  0  0  0  0  0  0  0
  -17.2259   31.6372  -22.9557 C   0  0  0  0  0  0  0  0  0  0  0  0
  -14.1857   31.3366  -18.7309 O   0  0  0  0  0  0  0  0  0  0  0  0
  -14.6524   28.9754  -20.3078 O   0  0  0  0  0  0  0  0  0  0  0  0
  -15.9251   29.5923  -22.3761 O   0  0  0  0  0  0  0  0  0  0  0  0
  -16.8007   32.4089  -20.8103 O   0  0  0  0  0  0  0  0  0  0  0  0
  -15.6637   33.1668  -14.7957 C   0  0  0  0  0  0  0  0  0  0  0  0
  -16.9648   32.4081  -13.7998 S   0  0  0  0  0  0  0  0  0  0  0  0
  2  1  1  0
  1 12  1  0
  1 26  1  1
  2  3  1  0
  2  9  1  1
  3  4  1  0
  3 10  1  6
  4  5  1  0
  4 11  1  1
  5  6  1  6
 12  5  1  0
  6 13  1  0
  7  8  1  0
  7  9  1  0
  7 14  2  0
 15 13  1  1
 15 16  1  0
 15 24  1  0
 16 17  1  0
 16 21  1  1
 17 18  1  0
 17 22  1  6
 18 19  1  0
 18 23  1  6
 19 20  1  6
 19 24  1  0
 26 25  1  0
M  END
$$$$
