
     RDKit          3D

 26 27  0  0  0  0  0  0  0  0999 V2000
  -25.2658   22.5167   -0.1855 C   0  0  1  0  0  0  0  0  0  0  0  0
  -25.6053   21.8017   -1.4752 C   0  0  1  0  0  0  0  0  0  0  0  0
  -25.8886   20.3750   -1.0729 C   0  0  2  0  0  0  0  0  0  0  0  0
  -24.6924   19.7884   -0.3252 C   0  0  1  0  0  0  0  0  0  0  0  0
  -24.0730   20.7005    0.6314 C   0  0  1  0  0  0  0  0  0  0  0  0
  -22.6388   20.3890    0.9385 C   0  0  0  0  0  0  0  0  0  0  0  0
  -26.3792   23.4957   -3.0905 C   0  0  0  0  0  0  0  0  0  0  0  0
  -27.2333   24.7104   -3.0900 C   0  0  0  0  0  0  0  0  0  0  0  0
  -26.6647   22.3811   -2.2232 N   0  0  0  0  0  0  0  0  0  0  0  0
  -26.2490   19.5654   -2.1463 O   0  0  0  0  0  0  0  0  0  0  0  0
  -25.2248   18.6792    0.3383 O   0  0  0  0  0  0  0  0  0  0  0  0
  -24.0347   22.0385    0.1850 O   0  0  0  0  0  0  0  0  0  0  0  0
  -22.0108   20.8365    1.9943 O   0  0  0  0  0  0  0  0  0  0  0  0
  -25.3980   23.4717   -3.8730 O   0  0  0  0  0  0  0  0  0  0  0  0
  -20.6942   20.8095    2.2069 C   0  0  1  0  0  0  0  0  0  0  0  0
  -20.3918   21.4153    3.6214 C   0  0  2  0  0  0  0  0  0  0  0  0
  -21.5307   20.8936    4.4509 C   0  0  1  0  0  0  0  0  0  0  0  0
  -21.5610   19.4132    4.4134 C   0  0  1  0  0  0  0  0  0  0  0  0
  -20.9857   18.7479    3.2426 C   0  0  2  0  0  0  0  0  0  0  0  0
  -20.0688   17.5972    3.6695 C   0  0  0  0  0  0  0  0  0  0  0  0
  -20.3727   22.7998    3.5210 O   0  0  0  0  0  0  0  0  0  0  0  0
  -21.4995   21.3810    5.7564 O   0  0  0  0  0  0  0  0  0  0  0  0
  -20.9110   18.9516    5.5842 O   0  0  0  0  0  0  0  0  0  0  0  0
  -20.2777   19.4934    2.3504 O   0  0  0  0  0  0  0  0  0  0  0  0
  -24.3388   25.0236    1.0310 C   0  0  0  0  0  0  0  0  0  0  0  0
  -25.1831   24.2924   -0.3877 S   0  0  0  0  0  0  0  0  0  0  0  0
  2  1  1  0
  1 12  1  0
  1 26  1  6
  2  3  1  0
  2  9  1  1
  3  4  1  0
  3 10  1  6
  4  5  1  0
  4 11  1  1
  5  6  1  6
 12  5  1  0
  6 13  1  0
  7  8  1  0
  7  9  1  0
  7 14  2  0
 15 13  1  1
 15 16  1  0
 15 24  1  0
 16 17  1  0
 16 21  1  6
 17 18  1  0
 17 22  1  1
 18 19  1  0
 18 23  1  1
 19 20  1  1
 19 24  1  0
 26 25  1  0
M  END
$$$$
