
     RDKit          3D

 26 27  0  0  0  0  0  0  0  0999 V2000
   -2.4733   29.3438  -27.4763 C   0  0  1  0  0  0  0  0  0  0  0  0
   -2.6095   28.8484  -26.0529 C   0  0  1  0  0  0  0  0  0  0  0  0
   -3.1115   27.4305  -26.1747 C   0  0  2  0  0  0  0  0  0  0  0  0
   -4.4099   27.3959  -26.9790 C   0  0  1  0  0  0  0  0  0  0  0  0
   -4.4181   28.2692  -28.1485 C   0  0  1  0  0  0  0  0  0  0  0  0
   -5.7877   28.6789  -28.6008 C   0  0  0  0  0  0  0  0  0  0  0  0
   -1.4205   29.8354  -24.1320 C   0  0  0  0  0  0  0  0  0  0  0  0
   -0.3092   29.8140  -23.1473 C   0  0  0  0  0  0  0  0  0  0  0  0
   -1.4308   28.9471  -25.2664 N   0  0  0  0  0  0  0  0  0  0  0  0
   -3.2726   26.7998  -24.9442 O   0  0  0  0  0  0  0  0  0  0  0  0
   -4.5235   26.0592  -27.3720 O   0  0  0  0  0  0  0  0  0  0  0  0
   -3.7570   29.4973  -27.9347 O   0  0  0  0  0  0  0  0  0  0  0  0
   -6.0554   29.0990  -29.8097 O   0  0  0  0  0  0  0  0  0  0  0  0
   -2.3527   30.6545  -23.9432 O   0  0  0  0  0  0  0  0  0  0  0  0
   -7.2533   29.4451  -30.2838 C   0  0  1  0  0  0  0  0  0  0  0  0
   -7.1425   29.6821  -31.8301 C   0  0  2  0  0  0  0  0  0  0  0  0
   -6.1922   28.6004  -32.2594 C   0  0  1  0  0  0  0  0  0  0  0  0
   -6.7202   27.2693  -31.8811 C   0  0  1  0  0  0  0  0  0  0  0  0
   -7.6330   27.1963  -30.7384 C   0  0  2  0  0  0  0  0  0  0  0  0
   -8.8567   26.3386  -31.0765 C   0  0  0  0  0  0  0  0  0  0  0  0
   -6.6559   30.9630  -32.0532 O   0  0  0  0  0  0  0  0  0  0  0  0
   -5.8885   28.6734  -33.6179 O   0  0  0  0  0  0  0  0  0  0  0  0
   -7.3553   26.7299  -33.0266 O   0  0  0  0  0  0  0  0  0  0  0  0
   -8.1104   28.3562  -30.2093 O   0  0  0  0  0  0  0  0  0  0  0  0
   -1.4184   31.6011  -25.9221 C   0  0  0  0  0  0  0  0  0  0  0  0
   -1.6094   30.9071  -27.5781 S   0  0  0  0  0  0  0  0  0  0  0  0
  2  1  1  0
  1 12  1  0
  1 26  1  1
  2  3  1  0
  2  9  1  6
  3  4  1  0
  3 10  1  1
  4  5  1  0
  4 11  1  6
  5  6  1  1
 12  5  1  0
  6 13  1  0
  7  8  1  0
  7  9  1  0
  7 14  2  0
 15 13  1  6
 15 16  1  0
 15 24  1  0
 16 17  1  0
 16 21  1  1
 17 18  1  0
 17 22  1  6
 18 19  1  0
 18 23  1  6
 19 20  1  6
 19 24  1  0
 26 25  1  0
M  END
$$$$
