
     RDKit          3D

 26 27  0  0  0  0  0  0  0  0999 V2000
  -22.9286   40.5680    8.7527 C   0  0  1  0  0  0  0  0  0  0  0  0
  -22.7343   39.6354    9.9286 C   0  0  1  0  0  0  0  0  0  0  0  0
  -21.2460   39.6194   10.1780 C   0  0  2  0  0  0  0  0  0  0  0  0
  -20.5017   39.1980    8.9121 C   0  0  1  0  0  0  0  0  0  0  0  0
  -21.0229   39.7864    7.6822 C   0  0  1  0  0  0  0  0  0  0  0  0
  -20.7154   38.9977    6.4445 C   0  0  0  0  0  0  0  0  0  0  0  0
  -24.8743   39.6054   11.1523 C   0  0  0  0  0  0  0  0  0  0  0  0
  -25.8864   40.5303   11.7226 C   0  0  0  0  0  0  0  0  0  0  0  0
  -23.4813   39.9684   11.0900 N   0  0  0  0  0  0  0  0  0  0  0  0
  -20.8811   38.8204   11.2579 O   0  0  0  0  0  0  0  0  0  0  0  0
  -19.1908   39.6279    9.1370 O   0  0  0  0  0  0  0  0  0  0  0  0
  -22.4296   39.8957    7.6662 O   0  0  0  0  0  0  0  0  0  0  0  0
  -20.0367   39.4731    5.4331 O   0  0  0  0  0  0  0  0  0  0  0  0
  -25.2730   38.4944   10.7252 O   0  0  0  0  0  0  0  0  0  0  0  0
  -20.4187   39.4856    4.1551 C   0  0  1  0  0  0  0  0  0  0  0  0
  -19.3143   40.1960    3.2979 C   0  0  2  0  0  0  0  0  0  0  0  0
  -18.0432   39.7136    3.9375 C   0  0  1  0  0  0  0  0  0  0  0  0
  -17.9809   38.2340    3.9105 C   0  0  1  0  0  0  0  0  0  0  0  0
  -19.2461   37.4978    3.8695 C   0  0  2  0  0  0  0  0  0  0  0  0
  -19.1985   36.3976    2.8045 C   0  0  0  0  0  0  0  0  0  0  0  0
  -19.4902   41.5700    3.3903 O   0  0  0  0  0  0  0  0  0  0  0  0
  -16.9117   40.2931    3.3659 O   0  0  0  0  0  0  0  0  0  0  0  0
  -17.1872   37.8689    2.7954 O   0  0  0  0  0  0  0  0  0  0  0  0
  -20.3980   38.1911    3.6554 O   0  0  0  0  0  0  0  0  0  0  0  0
  -24.8275   41.7833    6.8710 C   0  0  0  0  0  0  0  0  0  0  0  0
  -24.6498   40.9673    8.4719 S   0  0  0  0  0  0  0  0  0  0  0  0
  2  1  1  0
  1 12  1  0
  1 26  1  6
  2  3  1  0
  2  9  1  1
  3  4  1  0
  3 10  1  1
  4  5  1  0
  4 11  1  1
  5  6  1  6
 12  5  1  0
  6 13  1  0
  7  8  1  0
  7  9  1  0
  7 14  2  0
 15 13  1  1
 15 16  1  0
 15 24  1  0
 16 17  1  0
 16 21  1  1
 17 18  1  0
 17 22  1  6
 18 19  1  0
 18 23  1  6
 19 20  1  6
 19 24  1  0
 26 25  1  0
M  END
$$$$
