
     RDKit          3D

 26 27  0  0  0  0  0  0  0  0999 V2000
  -23.2615   39.8809    4.1651 C   0  0  1  0  0  0  0  0  0  0  0  0
  -23.7310   40.7175    5.3360 C   0  0  1  0  0  0  0  0  0  0  0  0
  -23.0115   42.0562    5.2055 C   0  0  2  0  0  0  0  0  0  0  0  0
  -21.5261   41.7900    5.2402 C   0  0  1  0  0  0  0  0  0  0  0  0
  -21.1058   40.6428    4.3613 C   0  0  1  0  0  0  0  0  0  0  0  0
  -19.7540   40.1626    4.9056 C   0  0  0  0  0  0  0  0  0  0  0  0
  -25.9528   40.0110    6.1622 C   0  0  0  0  0  0  0  0  0  0  0  0
  -25.3065   39.0031    7.0425 C   0  0  0  0  0  0  0  0  0  0  0  0
  -25.1499   40.8638    5.3738 N   0  0  0  0  0  0  0  0  0  0  0  0
  -23.3323   42.9152    6.2294 O   0  0  0  0  0  0  0  0  0  0  0  0
  -20.8863   42.9383    4.7748 O   0  0  0  0  0  0  0  0  0  0  0  0
  -21.9432   39.5601    4.3909 O   0  0  0  0  0  0  0  0  0  0  0  0
  -19.4361   38.9853    4.2749 O   0  0  0  0  0  0  0  0  0  0  0  0
  -27.2109   40.0553    6.1634 O   0  0  0  0  0  0  0  0  0  0  0  0
  -18.1821   38.5011    4.6515 C   0  0  1  0  0  0  0  0  0  0  0  0
  -17.6458   37.6965    3.5190 C   0  0  2  0  0  0  0  0  0  0  0  0
  -16.1924   37.8583    3.2339 C   0  0  1  0  0  0  0  0  0  0  0  0
  -15.3955   38.5597    4.2773 C   0  0  1  0  0  0  0  0  0  0  0  0
  -16.1695   38.9507    5.5013 C   0  0  2  0  0  0  0  0  0  0  0  0
  -16.3717   37.7451    6.3929 C   0  0  0  0  0  0  0  0  0  0  0  0
  -18.4213   37.8629    2.3470 O   0  0  0  0  0  0  0  0  0  0  0  0
  -15.5772   36.6219    2.9330 O   0  0  0  0  0  0  0  0  0  0  0  0
  -14.3146   37.7640    4.7128 O   0  0  0  0  0  0  0  0  0  0  0  0
  -17.3467   39.5287    5.0830 O   0  0  0  0  0  0  0  0  0  0  0  0
  -25.8260   38.8314    3.0318 C   0  0  0  0  0  0  0  0  0  0  0  0
  -24.2865   38.4350    3.8620 S   0  0  0  0  0  0  0  0  0  0  0  0
  2  1  1  0
  1 12  1  0
  1 26  1  1
  2  3  1  0
  2  9  1  6
  3  4  1  0
  3 10  1  1
  4  5  1  0
  4 11  1  6
  5  6  1  0
  5 12  1  1
  6 13  1  6
  8  7  1  6
  7  9  1  0
  7 14  2  0
 15 13  1  6
 15 16  1  0
 15 24  1  0
 16 17  1  0
 16 21  1  6
 17 18  1  0
 17 22  1  1
 18 19  1  0
 18 23  1  1
 20 19  1  6
 19 24  1  6
 25 26  1  6
M  END
$$$$
