
     RDKit          3D

 26 27  0  0  0  0  0  0  0  0999 V2000
  -15.4908   30.6636  -18.2658 C   0  0  1  0  0  0  0  0  0  0  0  0
  -15.2532   32.1585  -18.2528 C   0  0  1  0  0  0  0  0  0  0  0  0
  -13.7743   32.3417  -17.9269 C   0  0  2  0  0  0  0  0  0  0  0  0
  -13.5115   31.6999  -16.5863 C   0  0  1  0  0  0  0  0  0  0  0  0
  -14.1291   30.3343  -16.4482 C   0  0  1  0  0  0  0  0  0  0  0  0
  -14.2539   30.0740  -14.9413 C   0  0  0  0  0  0  0  0  0  0  0  0
  -16.9622   33.1368  -19.7496 C   0  0  0  0  0  0  0  0  0  0  0  0
  -17.3822   33.4082  -21.1491 C   0  0  0  0  0  0  0  0  0  0  0  0
  -15.6215   32.7849  -19.4808 N   0  0  0  0  0  0  0  0  0  0  0  0
  -13.4222   33.6686  -17.8603 O   0  0  0  0  0  0  0  0  0  0  0  0
  -12.1305   31.5564  -16.4569 O   0  0  0  0  0  0  0  0  0  0  0  0
  -15.3906   30.2196  -16.9678 O   0  0  0  0  0  0  0  0  0  0  0  0
  -14.4093   28.7227  -14.7551 O   0  0  0  0  0  0  0  0  0  0  0  0
  -17.8416   33.2361  -18.8543 O   0  0  0  0  0  0  0  0  0  0  0  0
  -13.7924   28.2716  -13.5869 C   0  0  1  0  0  0  0  0  0  0  0  0
  -13.2880   26.8937  -13.8412 C   0  0  2  0  0  0  0  0  0  0  0  0
  -11.9495   26.5728  -13.2709 C   0  0  1  0  0  0  0  0  0  0  0  0
  -11.4114   27.5436  -12.2791 C   0  0  1  0  0  0  0  0  0  0  0  0
  -12.3318   28.6819  -11.9518 C   0  0  2  0  0  0  0  0  0  0  0  0
  -13.4067   28.2190  -10.9926 C   0  0  0  0  0  0  0  0  0  0  0  0
  -13.3558   26.5581  -15.2143 O   0  0  0  0  0  0  0  0  0  0  0  0
  -11.9153   25.2739  -12.7147 O   0  0  0  0  0  0  0  0  0  0  0  0
  -11.0991   26.9054  -11.0600 O   0  0  0  0  0  0  0  0  0  0  0  0
  -12.8280   29.1714  -13.1388 O   0  0  0  0  0  0  0  0  0  0  0  0
  -18.4642   30.4585  -17.9845 C   0  0  0  0  0  0  0  0  0  0  0  0
  -17.0417   30.1922  -19.0438 S   0  0  0  0  0  0  0  0  0  0  0  0
  2  1  1  0
  1 12  1  0
  1 26  1  1
  2  3  1  0
  2  9  1  6
  3  4  1  0
  3 10  1  1
  4  5  1  0
  4 11  1  6
  5  6  1  0
  5 12  1  6
  6 13  1  6
  8  7  1  6
  7  9  1  0
  7 14  2  0
 15 13  1  6
 15 16  1  0
 15 24  1  0
 16 17  1  0
 16 21  1  6
 17 18  1  0
 17 22  1  1
 18 19  1  0
 18 23  1  1
 20 19  1  6
 19 24  1  6
 25 26  1  6
M  END
$$$$
