
     RDKit          3D

 29 33  0  0  0  0  0  0  0  0999 V2000
   19.3650   54.4566   83.9144 C   0  0  0  0  0  0  0  0  0  0  0  0
   23.9606   54.4631   88.0952 C   0  0  0  0  0  0  0  0  0  0  0  0
   15.8675   55.0981   88.1796 C   0  0  0  0  0  0  0  0  0  0  0  0
   22.5214   55.2083   91.9198 C   0  0  0  0  0  0  0  0  0  0  0  0
   18.4766   55.5406   88.7655 C   0  0  0  0  0  0  0  0  0  0  0  0
   16.6969   54.0648   88.5670 C   0  0  0  0  0  0  0  0  0  0  0  0
   16.3956   56.3729   88.0951 C   0  0  0  0  0  0  0  0  0  0  0  0
   20.5342   57.0285   88.7381 C   0  0  0  0  0  0  0  0  0  0  0  0
   20.7187   54.8837   89.7321 C   0  0  0  0  0  0  0  0  0  0  0  0
   21.7601   57.6782   90.7211 C   0  0  0  0  0  0  0  0  0  0  0  0
   22.5359   54.9851   88.1539 C   0  0  2  0  0  0  0  0  0  0  0  0
   21.8786   56.9240   89.4609 C   0  0  1  0  0  0  0  0  0  0  0  0
   23.5339   55.6145   87.3037 C   0  0  2  0  0  0  0  0  0  0  0  0
   18.6247   55.5485   84.6367 C   0  0  2  0  0  0  0  0  0  0  0  0
   19.7913   54.9209   85.3196 C   0  0  2  0  0  0  0  0  0  0  0  0
   22.1292   55.4693   89.5202 C   0  0  1  0  0  0  0  0  0  0  0  0
   17.2331   55.1512   85.0777 C   0  0  0  0  0  0  0  0  0  0  0  0
   23.6142   56.8925   85.2628 C   0  0  0  0  0  0  0  0  0  0  0  0
   24.5871   54.6597   85.2928 C   0  0  0  0  0  0  0  0  0  0  0  0
   21.0860   55.6463   85.4429 C   0  0  0  0  0  0  0  0  0  0  0  0
   23.4172   55.4608   85.7732 C   0  0  1  0  0  0  0  0  0  0  0  0
   17.6798   56.5587   88.3890 N   0  0  0  0  0  0  0  0  0  0  0  0
   17.9746   54.2906   88.8524 N   0  0  0  0  0  0  0  0  0  0  0  0
   22.9176   54.9710   90.5876 N   0  0  0  0  0  0  0  0  0  0  0  0
   19.8217   55.7897   89.0640 N   0  0  0  0  0  0  0  0  0  0  0  0
   22.8715   54.5048   92.9310 N   0  0  0  0  0  0  0  0  0  0  0  0
   22.2078   54.9193   85.5411 O   0  0  0  0  0  0  0  0  0  0  0  0
   21.4473   56.6116   92.1815 S   0  0  0  0  0  0  0  0  0  0  0  0
   23.4185   54.9597   93.7021 H   0  0  0  0  0  0  0  0  0  0  0  0
 14  1  1  0
 15  1  1  0
 11  2  1  1
 13  2  1  1
  6  3  2  0
  7  3  1  0
 24  4  1  0
  4 26  2  0
  4 28  1  0
  5 22  1  0
  5 23  2  0
 25  5  1  0
 23  6  1  0
 22  7  2  0
 12  8  1  1
  8 25  1  0
 16  9  1  1
  9 25  1  0
 12 10  1  0
 10 28  1  0
 13 11  1  0
 11 16  1  0
 16 12  1  0
 21 13  1  0
 15 14  1  0
 14 17  1  1
 15 20  1  6
 16 24  1  0
 21 18  1  6
 21 19  1  0
 27 20  1  0
 21 27  1  0
 26 29  1  0
M  END
$$$$
