
     RDKit          3D

 29 33  0  0  0  0  0  0  0  0999 V2000
   28.3095   55.3801   88.0156 C   0  0  0  0  0  0  0  0  0  0  0  0
   22.4040   54.2347   86.7036 C   0  0  0  0  0  0  0  0  0  0  0  0
   15.6175   55.0899   87.1727 C   0  0  0  0  0  0  0  0  0  0  0  0
   22.2437   54.7415   90.9404 C   0  0  0  0  0  0  0  0  0  0  0  0
   18.1743   55.5934   87.9179 C   0  0  0  0  0  0  0  0  0  0  0  0
   16.6231   54.1744   86.9358 C   0  0  0  0  0  0  0  0  0  0  0  0
   15.9404   56.2778   87.8019 C   0  0  0  0  0  0  0  0  0  0  0  0
   20.0736   57.2146   88.3792 C   0  0  0  0  0  0  0  0  0  0  0  0
   20.4742   54.9007   88.7077 C   0  0  0  0  0  0  0  0  0  0  0  0
   21.2361   57.3691   90.4963 C   0  0  0  0  0  0  0  0  0  0  0  0
   22.2665   55.6347   87.2752 C   0  0  2  0  0  0  0  0  0  0  0  0
   21.4244   57.0325   89.0742 C   0  0  1  0  0  0  0  0  0  0  0  0
   23.5489   55.1368   86.8035 C   0  0  2  0  0  0  0  0  0  0  0  0
   28.8891   55.7713   86.6840 C   0  0  2  0  0  0  0  0  0  0  0  0
   27.5565   55.1040   86.7007 C   0  0  2  0  0  0  0  0  0  0  0  0
   21.8187   55.6556   88.7125 C   0  0  1  0  0  0  0  0  0  0  0  0
   30.0980   54.9547   86.2831 C   0  0  0  0  0  0  0  0  0  0  0  0
   23.3175   55.0535   84.4067 C   0  0  0  0  0  0  0  0  0  0  0  0
   23.8338   57.1851   85.4663 C   0  0  0  0  0  0  0  0  0  0  0  0
   26.3106   55.8783   86.4441 C   0  0  0  0  0  0  0  0  0  0  0  0
   24.1479   55.7219   85.5079 C   0  0  1  0  0  0  0  0  0  0  0  0
   17.2040   56.4962   88.1558 N   0  0  0  0  0  0  0  0  0  0  0  0
   17.8738   54.4292   87.3044 N   0  0  0  0  0  0  0  0  0  0  0  0
   22.6566   54.9444   89.6076 N   0  0  0  0  0  0  0  0  0  0  0  0
   19.4891   55.8722   88.3106 N   0  0  0  0  0  0  0  0  0  0  0  0
   22.6658   53.8094   91.7106 N   0  0  0  0  0  0  0  0  0  0  0  0
   25.4562   55.4090   85.5241 O   0  0  0  0  0  0  0  0  0  0  0  0
   21.0363   55.8963   91.5729 S   0  0  0  0  0  0  0  0  0  0  0  0
   22.5447   53.9129   92.7476 H   0  0  0  0  0  0  0  0  0  0  0  0
 14  1  1  0
 15  1  1  0
 11  2  1  6
 13  2  1  6
  6  3  2  0
  7  3  1  0
 24  4  1  0
  4 26  2  0
  4 28  1  0
  5 22  1  0
  5 23  2  0
 25  5  1  0
 23  6  1  0
 22  7  2  0
 12  8  1  6
  8 25  1  0
 16  9  1  6
  9 25  1  0
 12 10  1  0
 10 28  1  0
 13 11  1  0
 11 16  1  0
 16 12  1  0
 21 13  1  0
 15 14  1  0
 14 17  1  6
 15 20  1  1
 16 24  1  0
 21 18  1  6
 21 19  1  0
 27 20  1  0
 21 27  1  0
 26 29  1  0
M  END
$$$$
