
     RDKit          3D

 29 33  0  0  0  0  0  0  0  0999 V2000
   28.5628   55.6475   87.6807 C   0  0  0  0  0  0  0  0  0  0  0  0
   22.4671   54.0979   86.7058 C   0  0  0  0  0  0  0  0  0  0  0  0
   15.7024   55.1839   87.3664 C   0  0  0  0  0  0  0  0  0  0  0  0
   22.4002   54.5323   90.9371 C   0  0  0  0  0  0  0  0  0  0  0  0
   18.2840   55.6301   88.0609 C   0  0  0  0  0  0  0  0  0  0  0  0
   16.1402   56.4466   87.7122 C   0  0  0  0  0  0  0  0  0  0  0  0
   16.6115   54.1426   87.3807 C   0  0  0  0  0  0  0  0  0  0  0  0
   20.2704   57.1525   88.4910 C   0  0  0  0  0  0  0  0  0  0  0  0
   20.5722   54.8166   88.7648 C   0  0  0  0  0  0  0  0  0  0  0  0
   21.5035   57.2117   90.5726 C   0  0  0  0  0  0  0  0  0  0  0  0
   22.3520   55.4948   87.2897 C   0  0  2  0  0  0  0  0  0  0  0  0
   21.6319   56.8947   89.1395 C   0  0  1  0  0  0  0  0  0  0  0  0
   23.6172   54.9962   86.7745 C   0  0  2  0  0  0  0  0  0  0  0  0
   27.6502   56.7269   88.1947 C   0  0  2  0  0  0  0  0  0  0  0  0
   27.5499   56.3489   86.7565 C   0  0  2  0  0  0  0  0  0  0  0  0
   21.9500   55.5083   88.7406 C   0  0  1  0  0  0  0  0  0  0  0  0
   28.3671   58.0100   88.5534 C   0  0  0  0  0  0  0  0  0  0  0  0
   24.3092   54.3597   84.5562 C   0  0  0  0  0  0  0  0  0  0  0  0
   23.1253   56.4665   84.8611 C   0  0  0  0  0  0  0  0  0  0  0  0
   26.4012   55.5442   86.2559 C   0  0  0  0  0  0  0  0  0  0  0  0
   24.1765   55.5874   85.4641 C   0  0  1  0  0  0  0  0  0  0  0  0
   17.8717   54.3927   87.7260 N   0  0  0  0  0  0  0  0  0  0  0  0
   17.4074   56.6565   88.0513 N   0  0  0  0  0  0  0  0  0  0  0  0
   22.7810   54.7419   89.5957 N   0  0  0  0  0  0  0  0  0  0  0  0
   19.6219   55.8401   88.4167 N   0  0  0  0  0  0  0  0  0  0  0  0
   22.8018   53.5668   91.6766 N   0  0  0  0  0  0  0  0  0  0  0  0
   25.3290   56.2000   85.7900 O   0  0  0  0  0  0  0  0  0  0  0  0
   21.2682   55.7290   91.6283 S   0  0  0  0  0  0  0  0  0  0  0  0
   23.8326   53.4038   91.7846 H   0  0  0  0  0  0  0  0  0  0  0  0
 14  1  1  0
 15  1  1  0
 11  2  1  6
 13  2  1  6
  6  3  2  0
  7  3  1  0
 24  4  1  0
  4 26  2  0
  4 28  1  0
  5 22  1  0
  5 23  2  0
 25  5  1  0
 23  6  1  0
 22  7  2  0
 12  8  1  6
  8 25  1  0
 16  9  1  6
  9 25  1  0
 12 10  1  0
 10 28  1  0
 13 11  1  0
 11 16  1  0
 16 12  1  0
 21 13  1  0
 15 14  1  0
 14 17  1  6
 15 20  1  1
 16 24  1  0
 21 18  1  6
 21 19  1  0
 27 20  1  0
 21 27  1  0
 26 29  1  0
M  END
$$$$
