
     RDKit          3D

 29 33  0  0  0  0  0  0  0  0999 V2000
   25.5517   59.8035   84.3931 C   0  0  0  0  0  0  0  0  0  0  0  0
   23.1640   54.0806   87.3270 C   0  0  0  0  0  0  0  0  0  0  0  0
   15.4249   54.9296   88.1070 C   0  0  0  0  0  0  0  0  0  0  0  0
   22.3819   55.1330   91.2112 C   0  0  0  0  0  0  0  0  0  0  0  0
   18.0496   55.5004   88.4696 C   0  0  0  0  0  0  0  0  0  0  0  0
   15.8471   56.2210   88.3513 C   0  0  0  0  0  0  0  0  0  0  0  0
   16.3723   53.9245   88.0501 C   0  0  0  0  0  0  0  0  0  0  0  0
   20.0568   57.0495   88.3293 C   0  0  0  0  0  0  0  0  0  0  0  0
   20.3891   54.8641   89.1869 C   0  0  0  0  0  0  0  0  0  0  0  0
   21.4478   57.6357   90.2210 C   0  0  0  0  0  0  0  0  0  0  0  0
   22.0457   55.0998   87.4538 C   0  0  2  0  0  0  0  0  0  0  0  0
   21.4657   56.9497   88.9171 C   0  0  1  0  0  0  0  0  0  0  0  0
   23.2661   55.4081   86.7256 C   0  0  2  0  0  0  0  0  0  0  0  0
   24.7864   60.0650   85.6612 C   0  0  2  0  0  0  0  0  0  0  0  0
   24.2485   59.0479   84.7138 C   0  0  2  0  0  0  0  0  0  0  0  0
   21.7579   55.5022   88.8758 C   0  0  1  0  0  0  0  0  0  0  0  0
   24.1287   61.4268   85.7051 C   0  0  0  0  0  0  0  0  0  0  0  0
   24.4310   54.7306   84.7284 C   0  0  0  0  0  0  0  0  0  0  0  0
   21.9964   54.8012   84.7047 C   0  0  0  0  0  0  0  0  0  0  0  0
   24.3512   57.5931   85.0147 C   0  0  0  0  0  0  0  0  0  0  0  0
   23.2092   55.5331   85.1891 C   0  0  1  0  0  0  0  0  0  0  0  0
   17.6529   54.2357   88.2321 N   0  0  0  0  0  0  0  0  0  0  0  0
   17.1356   56.4920   88.5278 N   0  0  0  0  0  0  0  0  0  0  0  0
   22.6562   54.9750   89.8372 N   0  0  0  0  0  0  0  0  0  0  0  0
   19.4101   55.7749   88.6542 N   0  0  0  0  0  0  0  0  0  0  0  0
   22.8440   54.3905   92.1468 N   0  0  0  0  0  0  0  0  0  0  0  0
   23.2396   56.8504   84.9180 O   0  0  0  0  0  0  0  0  0  0  0  0
   21.3019   56.4881   91.6457 S   0  0  0  0  0  0  0  0  0  0  0  0
   22.2721   54.2520   93.0154 H   0  0  0  0  0  0  0  0  0  0  0  0
 14  1  1  0
 15  1  1  0
 11  2  1  1
 13  2  1  6
  6  3  2  0
  7  3  1  0
 24  4  1  0
  4 26  2  0
  4 28  1  0
  5 22  1  0
  5 23  2  0
 25  5  1  0
 23  6  1  0
 22  7  2  0
 12  8  1  1
  8 25  1  0
 16  9  1  1
  9 25  1  0
 12 10  1  0
 10 28  1  0
 13 11  1  0
 11 16  1  0
 16 12  1  0
 21 13  1  0
 15 14  1  0
 14 17  1  6
 15 20  1  1
 16 24  1  0
 21 18  1  6
 21 19  1  0
 27 20  1  0
 21 27  1  0
 26 29  1  0
M  END
$$$$
