
     RDKit          3D

 29 33  0  0  0  0  0  0  0  0999 V2000
   27.5973   54.8069   87.4115 C   0  0  0  0  0  0  0  0  0  0  0  0
   24.0078   55.9200   88.0869 C   0  0  0  0  0  0  0  0  0  0  0  0
   16.2688   54.0277   86.4529 C   0  0  0  0  0  0  0  0  0  0  0  0
   21.7353   55.0363   91.6714 C   0  0  0  0  0  0  0  0  0  0  0  0
   18.4850   54.9789   87.6898 C   0  0  0  0  0  0  0  0  0  0  0  0
   16.2338   55.2041   87.1744 C   0  0  0  0  0  0  0  0  0  0  0  0
   17.4641   53.3379   86.3719 C   0  0  0  0  0  0  0  0  0  0  0  0
   20.0975   56.8462   88.2910 C   0  0  0  0  0  0  0  0  0  0  0  0
   20.5621   54.6652   89.0971 C   0  0  0  0  0  0  0  0  0  0  0  0
   20.6908   57.4428   90.5603 C   0  0  0  0  0  0  0  0  0  0  0  0
   22.5971   55.3634   88.0132 C   0  0  2  0  0  0  0  0  0  0  0  0
   21.2453   56.9177   89.3001 C   0  0  1  0  0  0  0  0  0  0  0  0
   23.0316   56.4326   87.1285 C   0  0  2  0  0  0  0  0  0  0  0  0
   27.6965   55.5263   86.0944 C   0  0  2  0  0  0  0  0  0  0  0  0
   26.5357   54.6171   86.3120 C   0  0  2  0  0  0  0  0  0  0  0  0
   21.8094   55.5526   89.2823 C   0  0  1  0  0  0  0  0  0  0  0  0
   28.8349   55.0442   85.2222 C   0  0  0  0  0  0  0  0  0  0  0  0
   22.0675   55.1867   85.3055 C   0  0  0  0  0  0  0  0  0  0  0  0
   23.0016   57.3917   84.8604 C   0  0  0  0  0  0  0  0  0  0  0  0
   25.1740   55.1635   86.5666 C   0  0  0  0  0  0  0  0  0  0  0  0
   23.2326   56.1283   85.6296 C   0  0  1  0  0  0  0  0  0  0  0  0
   18.5347   53.8299   86.9896 N   0  0  0  0  0  0  0  0  0  0  0  0
   17.3248   55.6632   87.7776 N   0  0  0  0  0  0  0  0  0  0  0  0
   22.4483   55.0791   90.4557 N   0  0  0  0  0  0  0  0  0  0  0  0
   19.6408   55.4538   88.3217 N   0  0  0  0  0  0  0  0  0  0  0  0
   22.0178   54.2822   92.6672 N   0  0  0  0  0  0  0  0  0  0  0  0
   24.4628   55.5958   85.5160 O   0  0  0  0  0  0  0  0  0  0  0  0
   20.3336   56.1365   91.7989 S   0  0  0  0  0  0  0  0  0  0  0  0
   21.7791   53.2618   92.6161 H   0  0  0  0  0  0  0  0  0  0  0  0
 14  1  1  0
 15  1  1  0
 11  2  1  1
 13  2  1  1
  6  3  2  0
  7  3  1  0
 24  4  1  0
  4 26  2  0
  4 28  1  0
  5 22  1  0
  5 23  2  0
 25  5  1  0
 23  6  1  0
 22  7  2  0
 12  8  1  6
  8 25  1  0
 16  9  1  6
  9 25  1  0
 12 10  1  0
 10 28  1  0
 13 11  1  0
 11 16  1  0
 16 12  1  0
 21 13  1  0
 15 14  1  0
 14 17  1  6
 15 20  1  1
 16 24  1  0
 21 18  1  6
 21 19  1  0
 27 20  1  0
 21 27  1  0
 26 29  1  0
M  END
$$$$
