
     RDKit          3D

 29 33  0  0  0  0  0  0  0  0999 V2000
   28.0523   54.0953   86.3090 C   0  0  0  0  0  0  0  0  0  0  0  0
   23.6816   54.4188   87.3853 C   0  0  0  0  0  0  0  0  0  0  0  0
   15.9350   55.1720   86.8636 C   0  0  0  0  0  0  0  0  0  0  0  0
   22.2460   55.1945   91.1464 C   0  0  0  0  0  0  0  0  0  0  0  0
   18.4565   55.6941   87.7098 C   0  0  0  0  0  0  0  0  0  0  0  0
   16.9758   54.3110   86.5789 C   0  0  0  0  0  0  0  0  0  0  0  0
   16.2040   56.3145   87.5940 C   0  0  0  0  0  0  0  0  0  0  0  0
   20.3999   57.2923   88.0519 C   0  0  0  0  0  0  0  0  0  0  0  0
   20.6536   55.0511   88.7832 C   0  0  0  0  0  0  0  0  0  0  0  0
   21.4126   57.7498   90.2019 C   0  0  0  0  0  0  0  0  0  0  0  0
   22.5810   55.4648   87.3985 C   0  0  2  0  0  0  0  0  0  0  0  0
   21.6854   57.1745   88.8732 C   0  0  1  0  0  0  0  0  0  0  0  0
   23.9253   55.7922   86.9507 C   0  0  2  0  0  0  0  0  0  0  0  0
   28.6514   55.1886   87.1503 C   0  0  2  0  0  0  0  0  0  0  0  0
   27.7736   55.5805   86.0114 C   0  0  2  0  0  0  0  0  0  0  0  0
   22.0320   55.7420   88.7728 C   0  0  1  0  0  0  0  0  0  0  0  0
   30.1488   55.3306   86.9870 C   0  0  0  0  0  0  0  0  0  0  0  0
   23.3059   55.0034   84.7600 C   0  0  0  0  0  0  0  0  0  0  0  0
   23.5775   57.3977   85.1160 C   0  0  0  0  0  0  0  0  0  0  0  0
   26.3923   56.0838   86.2489 C   0  0  0  0  0  0  0  0  0  0  0  0
   24.1692   56.0641   85.4520 C   0  0  1  0  0  0  0  0  0  0  0  0
   17.4515   56.5435   87.9954 N   0  0  0  0  0  0  0  0  0  0  0  0
   18.2088   54.5745   86.9975 N   0  0  0  0  0  0  0  0  0  0  0  0
   22.7645   55.1566   89.8358 N   0  0  0  0  0  0  0  0  0  0  0  0
   19.7522   55.9815   88.1559 N   0  0  0  0  0  0  0  0  0  0  0  0
   22.5618   54.3872   92.0892 N   0  0  0  0  0  0  0  0  0  0  0  0
   25.4961   55.9527   85.2609 O   0  0  0  0  0  0  0  0  0  0  0  0
   21.0583   56.4855   91.4841 S   0  0  0  0  0  0  0  0  0  0  0  0
   23.3042   54.6708   92.7741 H   0  0  0  0  0  0  0  0  0  0  0  0
 14  1  1  0
 15  1  1  0
 11  2  1  1
 13  2  1  6
  6  3  2  0
  7  3  1  0
 24  4  1  0
  4 26  2  0
  4 28  1  0
  5 22  1  0
  5 23  2  0
 25  5  1  0
 23  6  1  0
 22  7  2  0
 12  8  1  6
  8 25  1  0
 16  9  1  6
  9 25  1  0
 12 10  1  0
 10 28  1  0
 13 11  1  0
 11 16  1  0
 16 12  1  0
 21 13  1  0
 15 14  1  0
 14 17  1  6
 15 20  1  1
 16 24  1  0
 21 18  1  6
 21 19  1  0
 27 20  1  0
 21 27  1  0
 26 29  1  0
M  END
$$$$
