
     RDKit          3D

 29 33  0  0  0  0  0  0  0  0999 V2000
   28.8674   55.8266   87.9770 C   0  0  0  0  0  0  0  0  0  0  0  0
   23.5862   54.4252   87.7353 C   0  0  0  0  0  0  0  0  0  0  0  0
   16.0670   54.4470   86.4229 C   0  0  0  0  0  0  0  0  0  0  0  0
   21.8215   55.1244   91.3819 C   0  0  0  0  0  0  0  0  0  0  0  0
   18.3993   55.2466   87.5485 C   0  0  0  0  0  0  0  0  0  0  0  0
   17.2373   53.7451   86.2146 C   0  0  0  0  0  0  0  0  0  0  0  0
   16.1061   55.5741   87.2224 C   0  0  0  0  0  0  0  0  0  0  0  0
   20.0867   57.0564   88.1196 C   0  0  0  0  0  0  0  0  0  0  0  0
   20.5268   54.8455   88.8546 C   0  0  0  0  0  0  0  0  0  0  0  0
   20.7948   57.5830   90.3731 C   0  0  0  0  0  0  0  0  0  0  0  0
   22.5305   55.5159   87.6973 C   0  0  2  0  0  0  0  0  0  0  0  0
   21.2790   57.0739   89.0780 C   0  0  1  0  0  0  0  0  0  0  0  0
   23.9344   55.8189   87.4693 C   0  0  2  0  0  0  0  0  0  0  0  0
   29.2437   56.0675   86.5409 C   0  0  2  0  0  0  0  0  0  0  0  0
   27.9060   55.4756   86.8261 C   0  0  2  0  0  0  0  0  0  0  0  0
   21.8047   55.6953   89.0042 C   0  0  1  0  0  0  0  0  0  0  0  0
   30.3419   55.1560   86.0386 C   0  0  0  0  0  0  0  0  0  0  0  0
   23.3836   55.4964   85.1460 C   0  0  0  0  0  0  0  0  0  0  0  0
   24.1737   57.6817   85.8763 C   0  0  0  0  0  0  0  0  0  0  0  0
   26.6658   56.2890   86.6915 C   0  0  0  0  0  0  0  0  0  0  0  0
   24.3942   56.2111   86.0499 C   0  0  1  0  0  0  0  0  0  0  0  0
   17.2657   55.9416   87.7609 N   0  0  0  0  0  0  0  0  0  0  0  0
   18.3762   54.1441   86.7702 N   0  0  0  0  0  0  0  0  0  0  0  0
   22.4813   55.1775   90.1370 N   0  0  0  0  0  0  0  0  0  0  0  0
   19.5942   55.6760   88.1390 N   0  0  0  0  0  0  0  0  0  0  0  0
   22.1268   54.3396   92.3468 N   0  0  0  0  0  0  0  0  0  0  0  0
   25.6698   55.7982   85.9406 O   0  0  0  0  0  0  0  0  0  0  0  0
   20.4570   56.2574   91.5965 S   0  0  0  0  0  0  0  0  0  0  0  0
   22.8512   54.6456   93.0414 H   0  0  0  0  0  0  0  0  0  0  0  0
 14  1  1  0
 15  1  1  0
 11  2  1  1
 13  2  1  6
  6  3  2  0
  7  3  1  0
 24  4  1  0
  4 26  2  0
  4 28  1  0
  5 22  1  0
  5 23  2  0
 25  5  1  0
 23  6  1  0
 22  7  2  0
 12  8  1  6
  8 25  1  0
 16  9  1  6
  9 25  1  0
 12 10  1  0
 10 28  1  0
 13 11  1  0
 11 16  1  0
 16 12  1  0
 21 13  1  0
 15 14  1  0
 14 17  1  6
 15 20  1  1
 16 24  1  0
 21 18  1  6
 21 19  1  0
 27 20  1  0
 21 27  1  0
 26 29  1  0
M  END
$$$$
