
     RDKit          3D

 29 33  0  0  0  0  0  0  0  0999 V2000
   28.9151   56.5145   85.3683 C   0  0  0  0  0  0  0  0  0  0  0  0
   23.3890   54.1181   87.6765 C   0  0  0  0  0  0  0  0  0  0  0  0
   15.9612   54.7246   86.7642 C   0  0  0  0  0  0  0  0  0  0  0  0
   21.9514   54.8031   91.4787 C   0  0  0  0  0  0  0  0  0  0  0  0
   18.3639   55.3676   87.8412 C   0  0  0  0  0  0  0  0  0  0  0  0
   16.1309   55.8890   87.4860 C   0  0  0  0  0  0  0  0  0  0  0  0
   17.0474   53.8855   86.5991 C   0  0  0  0  0  0  0  0  0  0  0  0
   20.2000   57.0249   88.4158 C   0  0  0  0  0  0  0  0  0  0  0  0
   20.5190   54.7521   89.0116 C   0  0  0  0  0  0  0  0  0  0  0  0
   21.0522   57.3774   90.6534 C   0  0  0  0  0  0  0  0  0  0  0  0
   22.5061   55.3484   87.7872 C   0  0  2  0  0  0  0  0  0  0  0  0
   21.4359   56.9089   89.3102 C   0  0  1  0  0  0  0  0  0  0  0  0
   23.9310   55.4659   87.5213 C   0  0  2  0  0  0  0  0  0  0  0  0
   28.5766   55.1492   85.9008 C   0  0  2  0  0  0  0  0  0  0  0  0
   28.0305   56.3370   86.6165 C   0  0  2  0  0  0  0  0  0  0  0  0
   21.8591   55.5041   89.1378 C   0  0  1  0  0  0  0  0  0  0  0  0
   29.7571   54.4230   86.5076 C   0  0  0  0  0  0  0  0  0  0  0  0
   23.5981   55.0177   85.1775 C   0  0  0  0  0  0  0  0  0  0  0  0
   23.9118   57.3218   85.9027 C   0  0  0  0  0  0  0  0  0  0  0  0
   26.5922   56.7049   86.5003 C   0  0  0  0  0  0  0  0  0  0  0  0
   24.3960   55.9224   86.1231 C   0  0  1  0  0  0  0  0  0  0  0  0
   18.2137   54.2281   87.1395 N   0  0  0  0  0  0  0  0  0  0  0  0
   17.3121   56.1965   88.0105 N   0  0  0  0  0  0  0  0  0  0  0  0
   22.5520   54.8801   90.2054 N   0  0  0  0  0  0  0  0  0  0  0  0
   19.6133   55.6820   88.3896 N   0  0  0  0  0  0  0  0  0  0  0  0
   22.2475   53.9474   92.3845 N   0  0  0  0  0  0  0  0  0  0  0  0
   25.7311   55.7592   86.0992 O   0  0  0  0  0  0  0  0  0  0  0  0
   20.6820   56.0121   91.8226 S   0  0  0  0  0  0  0  0  0  0  0  0
   21.6376   53.8759   93.2352 H   0  0  0  0  0  0  0  0  0  0  0  0
 14  1  1  0
 15  1  1  0
 11  2  1  1
 13  2  1  6
  6  3  2  0
  7  3  1  0
 24  4  1  0
  4 26  2  0
  4 28  1  0
  5 22  1  0
  5 23  2  0
 25  5  1  0
 23  6  1  0
 22  7  2  0
 12  8  1  6
  8 25  1  0
 16  9  1  6
  9 25  1  0
 12 10  1  0
 10 28  1  0
 13 11  1  0
 11 16  1  0
 16 12  1  0
 21 13  1  0
 15 14  1  0
 14 17  1  1
 15 20  1  6
 16 24  1  0
 21 18  1  6
 21 19  1  0
 27 20  1  0
 21 27  1  0
 26 29  1  0
M  END
$$$$
