
     RDKit          3D

 29 33  0  0  0  0  0  0  0  0999 V2000
   18.7586   53.9677   85.0846 C   0  0  0  0  0  0  0  0  0  0  0  0
   23.1492   54.3536   87.5140 C   0  0  0  0  0  0  0  0  0  0  0  0
   15.2908   55.4522   88.5856 C   0  0  0  0  0  0  0  0  0  0  0  0
   22.3704   55.3178   91.4368 C   0  0  0  0  0  0  0  0  0  0  0  0
   17.9641   55.8211   88.8383 C   0  0  0  0  0  0  0  0  0  0  0  0
   16.1435   54.3837   88.7774 C   0  0  0  0  0  0  0  0  0  0  0  0
   15.8290   56.7241   88.5243 C   0  0  0  0  0  0  0  0  0  0  0  0
   20.0383   57.2631   88.5798 C   0  0  0  0  0  0  0  0  0  0  0  0
   20.2943   55.0898   89.4928 C   0  0  0  0  0  0  0  0  0  0  0  0
   21.5245   57.8341   90.4026 C   0  0  0  0  0  0  0  0  0  0  0  0
   21.8961   55.1914   87.6963 C   0  0  2  0  0  0  0  0  0  0  0  0
   21.4612   57.1101   89.1208 C   0  0  1  0  0  0  0  0  0  0  0  0
   22.9763   55.6318   86.8280 C   0  0  2  0  0  0  0  0  0  0  0  0
   18.9729   53.0310   83.9276 C   0  0  2  0  0  0  0  0  0  0  0  0
   19.5937   54.3842   83.8594 C   0  0  2  0  0  0  0  0  0  0  0  0
   21.6804   55.6492   89.1143 C   0  0  1  0  0  0  0  0  0  0  0  0
   17.7229   52.7707   83.1160 C   0  0  0  0  0  0  0  0  0  0  0  0
   23.1259   57.0617   84.8946 C   0  0  0  0  0  0  0  0  0  0  0  0
   23.7739   54.7232   84.6825 C   0  0  0  0  0  0  0  0  0  0  0  0
   21.0594   54.5636   84.0527 C   0  0  0  0  0  0  0  0  0  0  0  0
   22.7565   55.6308   85.3011 C   0  0  1  0  0  0  0  0  0  0  0  0
   17.1448   56.8733   88.6517 N   0  0  0  0  0  0  0  0  0  0  0  0
   17.4526   54.5734   88.9002 N   0  0  0  0  0  0  0  0  0  0  0  0
   22.5863   55.1061   90.0596 N   0  0  0  0  0  0  0  0  0  0  0  0
   19.3423   56.0324   88.9666 N   0  0  0  0  0  0  0  0  0  0  0  0
   22.8294   54.5808   92.3782 N   0  0  0  0  0  0  0  0  0  0  0  0
   21.4720   55.2816   85.1066 O   0  0  0  0  0  0  0  0  0  0  0  0
   21.3746   56.7374   91.8665 S   0  0  0  0  0  0  0  0  0  0  0  0
   23.8070   54.2079   92.3014 H   0  0  0  0  0  0  0  0  0  0  0  0
 14  1  1  0
 15  1  1  0
 11  2  1  1
 13  2  1  6
  6  3  2  0
  7  3  1  0
 24  4  1  0
  4 26  2  0
  4 28  1  0
  5 22  1  0
  5 23  2  0
 25  5  1  0
 23  6  1  0
 22  7  2  0
 12  8  1  1
  8 25  1  0
 16  9  1  1
  9 25  1  0
 12 10  1  0
 10 28  1  0
 13 11  1  0
 11 16  1  0
 16 12  1  0
 21 13  1  0
 15 14  1  0
 14 17  1  6
 15 20  1  1
 16 24  1  0
 21 18  1  6
 21 19  1  0
 27 20  1  0
 21 27  1  0
 26 29  1  0
M  END
$$$$
