
     RDKit          3D

 29 33  0  0  0  0  0  0  0  0999 V2000
   28.8229   56.0339   86.5940 C   0  0  0  0  0  0  0  0  0  0  0  0
   23.4752   54.3683   87.8868 C   0  0  0  0  0  0  0  0  0  0  0  0
   15.7407   54.7949   87.0221 C   0  0  0  0  0  0  0  0  0  0  0  0
   21.8427   55.0246   91.5895 C   0  0  0  0  0  0  0  0  0  0  0  0
   18.1783   55.4494   88.0101 C   0  0  0  0  0  0  0  0  0  0  0  0
   15.9080   55.8968   87.8367 C   0  0  0  0  0  0  0  0  0  0  0  0
   16.8476   54.0251   86.7167 C   0  0  0  0  0  0  0  0  0  0  0  0
   20.0563   57.1020   88.4466 C   0  0  0  0  0  0  0  0  0  0  0  0
   20.3501   54.8610   89.1633 C   0  0  0  0  0  0  0  0  0  0  0  0
   20.9685   57.5644   90.6401 C   0  0  0  0  0  0  0  0  0  0  0  0
   22.3170   55.3499   87.8611 C   0  0  2  0  0  0  0  0  0  0  0  0
   21.3113   57.0137   89.3171 C   0  0  1  0  0  0  0  0  0  0  0  0
   23.6552   55.7538   87.4599 C   0  0  2  0  0  0  0  0  0  0  0  0
   28.4486   55.7263   85.1701 C   0  0  2  0  0  0  0  0  0  0  0  0
   27.5331   55.2648   86.2519 C   0  0  2  0  0  0  0  0  0  0  0  0
   21.7058   55.5937   89.2153 C   0  0  1  0  0  0  0  0  0  0  0  0
   29.3528   54.7090   84.5095 C   0  0  0  0  0  0  0  0  0  0  0  0
   22.8217   55.2708   85.2515 C   0  0  0  0  0  0  0  0  0  0  0  0
   23.6918   57.4970   85.7207 C   0  0  0  0  0  0  0  0  0  0  0  0
   26.2349   55.9513   86.4993 C   0  0  0  0  0  0  0  0  0  0  0  0
   23.9349   56.0410   85.9703 C   0  0  1  0  0  0  0  0  0  0  0  0
   18.0308   54.3716   87.2167 N   0  0  0  0  0  0  0  0  0  0  0  0
   17.1064   56.2104   88.3167 N   0  0  0  0  0  0  0  0  0  0  0  0
   22.4135   55.0182   90.3002 N   0  0  0  0  0  0  0  0  0  0  0  0
   19.4459   55.7709   88.5106 N   0  0  0  0  0  0  0  0  0  0  0  0
   22.1458   54.2161   92.5354 N   0  0  0  0  0  0  0  0  0  0  0  0
   25.1880   55.6125   85.7339 O   0  0  0  0  0  0  0  0  0  0  0  0
   20.6032   56.2746   91.8935 S   0  0  0  0  0  0  0  0  0  0  0  0
   21.3876   53.6365   92.9714 H   0  0  0  0  0  0  0  0  0  0  0  0
 14  1  1  0
 15  1  1  0
 11  2  1  1
 13  2  1  6
  6  3  2  0
  7  3  1  0
 24  4  1  0
  4 26  2  0
  4 28  1  0
  5 22  1  0
  5 23  2  0
 25  5  1  0
 23  6  1  0
 22  7  2  0
 12  8  1  6
  8 25  1  0
 16  9  1  6
  9 25  1  0
 12 10  1  0
 10 28  1  0
 13 11  1  0
 11 16  1  0
 16 12  1  0
 21 13  1  0
 15 14  1  0
 14 17  1  1
 15 20  1  6
 16 24  1  0
 21 18  1  6
 21 19  1  0
 27 20  1  0
 21 27  1  0
 26 29  1  0
M  END
$$$$
