
     RDKit          3D

 29 33  0  0  0  0  0  0  0  0999 V2000
   27.6057   53.8557   87.1470 C   0  0  0  0  0  0  0  0  0  0  0  0
   24.1989   55.0417   88.1186 C   0  0  0  0  0  0  0  0  0  0  0  0
   16.2591   54.0625   86.6207 C   0  0  0  0  0  0  0  0  0  0  0  0
   21.9372   55.0526   91.6161 C   0  0  0  0  0  0  0  0  0  0  0  0
   18.5739   54.9315   87.7310 C   0  0  0  0  0  0  0  0  0  0  0  0
   17.4173   53.3166   86.5316 C   0  0  0  0  0  0  0  0  0  0  0  0
   16.3014   55.2704   87.2917 C   0  0  0  0  0  0  0  0  0  0  0  0
   20.2533   56.7744   88.2125 C   0  0  0  0  0  0  0  0  0  0  0  0
   20.6811   54.6144   89.0919 C   0  0  0  0  0  0  0  0  0  0  0  0
   20.9273   57.4423   90.4389 C   0  0  0  0  0  0  0  0  0  0  0  0
   22.7025   55.2115   87.9254 C   0  0  2  0  0  0  0  0  0  0  0  0
   21.4309   56.8528   89.1860 C   0  0  1  0  0  0  0  0  0  0  0  0
   23.6499   56.1241   87.3055 C   0  0  2  0  0  0  0  0  0  0  0  0
   28.5553   54.8947   86.6170 C   0  0  2  0  0  0  0  0  0  0  0  0
   27.2642   54.6932   85.9004 C   0  0  2  0  0  0  0  0  0  0  0  0
   21.9569   55.4725   89.2072 C   0  0  1  0  0  0  0  0  0  0  0  0
   29.8139   54.3151   86.0094 C   0  0  0  0  0  0  0  0  0  0  0  0
   22.5307   55.4635   85.2766 C   0  0  0  0  0  0  0  0  0  0  0  0
   23.8943   57.4819   85.2655 C   0  0  0  0  0  0  0  0  0  0  0  0
   26.1613   55.6869   86.0182 C   0  0  0  0  0  0  0  0  0  0  0  0
   23.8443   56.0754   85.7759 C   0  0  1  0  0  0  0  0  0  0  0  0
   17.4522   55.6702   87.8261 N   0  0  0  0  0  0  0  0  0  0  0  0
   18.5476   53.7500   87.0787 N   0  0  0  0  0  0  0  0  0  0  0  0
   22.6160   55.0275   90.3805 N   0  0  0  0  0  0  0  0  0  0  0  0
   19.7598   55.3977   88.3113 N   0  0  0  0  0  0  0  0  0  0  0  0
   22.2275   54.3303   92.6331 N   0  0  0  0  0  0  0  0  0  0  0  0
   24.9500   55.3399   85.5610 O   0  0  0  0  0  0  0  0  0  0  0  0
   20.5702   56.1962   91.7380 S   0  0  0  0  0  0  0  0  0  0  0  0
   21.8178   54.5784   93.5666 H   0  0  0  0  0  0  0  0  0  0  0  0
 14  1  1  0
 15  1  1  0
 11  2  1  1
 13  2  1  1
  6  3  2  0
  7  3  1  0
 24  4  1  0
  4 26  2  0
  4 28  1  0
  5 22  1  0
  5 23  2  0
 25  5  1  0
 23  6  1  0
 22  7  2  0
 12  8  1  6
  8 25  1  0
 16  9  1  6
  9 25  1  0
 12 10  1  0
 10 28  1  0
 13 11  1  0
 11 16  1  0
 16 12  1  0
 21 13  1  0
 15 14  1  0
 14 17  1  6
 15 20  1  1
 16 24  1  0
 21 18  1  6
 21 19  1  0
 27 20  1  0
 21 27  1  0
 26 29  1  0
M  END
$$$$
