
     RDKit          3D

 29 33  0  0  0  0  0  0  0  0999 V2000
   27.7737   53.8098   87.0558 C   0  0  0  0  0  0  0  0  0  0  0  0
   23.5200   54.1688   87.3486 C   0  0  0  0  0  0  0  0  0  0  0  0
   15.7698   54.8216   86.8315 C   0  0  0  0  0  0  0  0  0  0  0  0
   22.0817   54.9416   91.1095 C   0  0  0  0  0  0  0  0  0  0  0  0
   18.2848   55.3814   87.6728 C   0  0  0  0  0  0  0  0  0  0  0  0
   16.8376   54.0258   86.4678 C   0  0  0  0  0  0  0  0  0  0  0  0
   16.0081   55.9180   87.6391 C   0  0  0  0  0  0  0  0  0  0  0  0
   20.2067   57.0065   88.0102 C   0  0  0  0  0  0  0  0  0  0  0  0
   20.4907   54.7708   88.7471 C   0  0  0  0  0  0  0  0  0  0  0  0
   21.2137   57.4831   90.1587 C   0  0  0  0  0  0  0  0  0  0  0  0
   22.4120   55.2069   87.3608 C   0  0  2  0  0  0  0  0  0  0  0  0
   21.4938   56.9081   88.8314 C   0  0  1  0  0  0  0  0  0  0  0  0
   23.7543   55.5438   86.9143 C   0  0  2  0  0  0  0  0  0  0  0  0
   28.6303   55.0377   86.9120 C   0  0  2  0  0  0  0  0  0  0  0  0
   27.4898   54.8631   85.9686 C   0  0  2  0  0  0  0  0  0  0  0  0
   21.8597   55.4802   88.7345 C   0  0  1  0  0  0  0  0  0  0  0  0
   30.0287   54.7487   86.4120 C   0  0  0  0  0  0  0  0  0  0  0  0
   22.9762   54.9076   84.7246 C   0  0  0  0  0  0  0  0  0  0  0  0
   23.5930   57.2295   85.1262 C   0  0  0  0  0  0  0  0  0  0  0  0
   26.2520   55.6796   86.1063 C   0  0  0  0  0  0  0  0  0  0  0  0
   23.9977   55.8175   85.4158 C   0  0  1  0  0  0  0  0  0  0  0  0
   17.2533   56.1670   88.0359 N   0  0  0  0  0  0  0  0  0  0  0  0
   18.0671   54.3074   86.8846 N   0  0  0  0  0  0  0  0  0  0  0  0
   22.6002   54.9073   89.7987 N   0  0  0  0  0  0  0  0  0  0  0  0
   19.5767   55.6874   88.1178 N   0  0  0  0  0  0  0  0  0  0  0  0
   22.4085   54.1410   92.0542 N   0  0  0  0  0  0  0  0  0  0  0  0
   25.2904   55.5249   85.1854 O   0  0  0  0  0  0  0  0  0  0  0  0
   20.8768   56.2174   91.4443 S   0  0  0  0  0  0  0  0  0  0  0  0
   22.2314   54.4278   93.0478 H   0  0  0  0  0  0  0  0  0  0  0  0
 14  1  1  0
 15  1  1  0
 11  2  1  1
 13  2  1  6
  6  3  2  0
  7  3  1  0
 24  4  1  0
  4 26  2  0
  4 28  1  0
  5 22  1  0
  5 23  2  0
 25  5  1  0
 23  6  1  0
 22  7  2  0
 12  8  1  6
  8 25  1  0
 16  9  1  6
  9 25  1  0
 12 10  1  0
 10 28  1  0
 13 11  1  0
 11 16  1  0
 16 12  1  0
 21 13  1  0
 15 14  1  0
 14 17  1  6
 15 20  1  1
 16 24  1  0
 21 18  1  6
 21 19  1  0
 27 20  1  0
 21 27  1  0
 26 29  1  0
M  END
$$$$
