
     RDKit          3D

 29 33  0  0  0  0  0  0  0  0999 V2000
   29.3237   56.0791   86.1525 C   0  0  0  0  0  0  0  0  0  0  0  0
   22.1311   54.4762   86.7868 C   0  0  0  0  0  0  0  0  0  0  0  0
   16.0353   54.2421   86.8142 C   0  0  0  0  0  0  0  0  0  0  0  0
   22.1974   54.4972   91.2939 C   0  0  0  0  0  0  0  0  0  0  0  0
   18.3824   55.0596   87.8954 C   0  0  0  0  0  0  0  0  0  0  0  0
   16.0930   55.3432   87.6448 C   0  0  0  0  0  0  0  0  0  0  0  0
   17.2053   53.5582   86.5415 C   0  0  0  0  0  0  0  0  0  0  0  0
   20.0058   56.8609   88.6492 C   0  0  0  0  0  0  0  0  0  0  0  0
   20.6586   54.5945   88.8931 C   0  0  0  0  0  0  0  0  0  0  0  0
   20.9178   57.0097   90.8860 C   0  0  0  0  0  0  0  0  0  0  0  0
   22.4809   55.6320   87.7073 C   0  0  2  0  0  0  0  0  0  0  0  0
   21.2908   56.7948   89.4768 C   0  0  1  0  0  0  0  0  0  0  0  0
   23.5142   54.7716   87.1534 C   0  0  2  0  0  0  0  0  0  0  0  0
   28.8849   55.1169   87.2219 C   0  0  2  0  0  0  0  0  0  0  0  0
   27.9631   56.2301   86.8581 C   0  0  2  0  0  0  0  0  0  0  0  0
   21.8899   55.5023   89.0860 C   0  0  1  0  0  0  0  0  0  0  0  0
   29.6788   55.2299   88.5049 C   0  0  0  0  0  0  0  0  0  0  0  0
   24.5120   54.2193   85.0310 C   0  0  0  0  0  0  0  0  0  0  0  0
   23.7903   56.5109   85.4320 C   0  0  0  0  0  0  0  0  0  0  0  0
   26.7367   55.9748   86.0528 C   0  0  0  0  0  0  0  0  0  0  0  0
   24.4623   55.3387   86.0768 C   0  0  1  0  0  0  0  0  0  0  0  0
   18.3418   53.9835   87.0869 N   0  0  0  0  0  0  0  0  0  0  0  0
   17.2478   55.7371   88.1705 N   0  0  0  0  0  0  0  0  0  0  0  0
   22.7152   54.8374   90.0273 N   0  0  0  0  0  0  0  0  0  0  0  0
   19.6048   55.4660   88.4441 N   0  0  0  0  0  0  0  0  0  0  0  0
   22.6527   53.5723   92.0538 N   0  0  0  0  0  0  0  0  0  0  0  0
   25.6232   55.6062   86.7016 O   0  0  0  0  0  0  0  0  0  0  0  0
   20.7963   55.4544   91.8525 S   0  0  0  0  0  0  0  0  0  0  0  0
   23.6899   53.4891   92.1881 H   0  0  0  0  0  0  0  0  0  0  0  0
 14  1  1  0
 15  1  1  0
 11  2  1  6
 13  2  1  6
  6  3  2  0
  7  3  1  0
 24  4  1  0
  4 26  2  0
  4 28  1  0
  5 22  1  0
  5 23  2  0
 25  5  1  0
 23  6  1  0
 22  7  2  0
 12  8  1  6
  8 25  1  0
 16  9  1  6
  9 25  1  0
 12 10  1  0
 10 28  1  0
 13 11  1  0
 11 16  1  0
 16 12  1  0
 21 13  1  0
 15 14  1  0
 14 17  1  1
 15 20  1  6
 16 24  1  0
 21 18  1  6
 21 19  1  0
 27 20  1  0
 21 27  1  0
 26 29  1  0
M  END
$$$$
