
     RDKit          3D

 29 33  0  0  0  0  0  0  0  0999 V2000
   28.4361   55.0811   87.3829 C   0  0  0  0  0  0  0  0  0  0  0  0
   22.7081   54.3193   86.7971 C   0  0  0  0  0  0  0  0  0  0  0  0
   15.6040   54.9909   87.1477 C   0  0  0  0  0  0  0  0  0  0  0  0
   22.2254   54.9307   90.9139 C   0  0  0  0  0  0  0  0  0  0  0  0
   18.1348   55.6270   87.8802 C   0  0  0  0  0  0  0  0  0  0  0  0
   15.9659   56.2987   87.4015 C   0  0  0  0  0  0  0  0  0  0  0  0
   16.5631   54.0035   87.2748 C   0  0  0  0  0  0  0  0  0  0  0  0
   20.0159   57.2861   88.2766 C   0  0  0  0  0  0  0  0  0  0  0  0
   20.4459   54.9902   88.6843 C   0  0  0  0  0  0  0  0  0  0  0  0
   21.1842   57.5287   90.3822 C   0  0  0  0  0  0  0  0  0  0  0  0
   22.2238   55.6950   87.2196 C   0  0  2  0  0  0  0  0  0  0  0  0
   21.3713   57.1448   88.9720 C   0  0  1  0  0  0  0  0  0  0  0  0
   23.5912   55.4829   86.7721 C   0  0  2  0  0  0  0  0  0  0  0  0
   28.7312   56.2767   86.5195 C   0  0  2  0  0  0  0  0  0  0  0  0
   27.5895   55.3987   86.1362 C   0  0  2  0  0  0  0  0  0  0  0  0
   21.7810   55.7609   88.6571 C   0  0  1  0  0  0  0  0  0  0  0  0
   30.0223   56.1602   85.7396 C   0  0  0  0  0  0  0  0  0  0  0  0
   23.1334   55.3051   84.4133 C   0  0  0  0  0  0  0  0  0  0  0  0
   23.6318   57.4959   85.3540 C   0  0  0  0  0  0  0  0  0  0  0  0
   26.1825   55.8367   86.3515 C   0  0  0  0  0  0  0  0  0  0  0  0
   24.0286   56.0533   85.4072 C   0  0  1  0  0  0  0  0  0  0  0  0
   17.7966   54.3467   87.6359 N   0  0  0  0  0  0  0  0  0  0  0  0
   17.2087   56.6017   87.7601 N   0  0  0  0  0  0  0  0  0  0  0  0
   22.6309   55.0917   89.5731 N   0  0  0  0  0  0  0  0  0  0  0  0
   19.4475   55.9351   88.2575 N   0  0  0  0  0  0  0  0  0  0  0  0
   22.6616   54.0313   91.7146 N   0  0  0  0  0  0  0  0  0  0  0  0
   25.3475   55.8096   85.3033 O   0  0  0  0  0  0  0  0  0  0  0  0
   21.0063   56.0923   91.5105 S   0  0  0  0  0  0  0  0  0  0  0  0
   22.5760   53.0221   91.4410 H   0  0  0  0  0  0  0  0  0  0  0  0
 14  1  1  0
 15  1  1  0
 11  2  1  6
 13  2  1  6
  6  3  2  0
  7  3  1  0
 24  4  1  0
  4 26  2  0
  4 28  1  0
  5 22  1  0
  5 23  2  0
 25  5  1  0
 23  6  1  0
 22  7  2  0
 12  8  1  6
  8 25  1  0
 16  9  1  6
  9 25  1  0
 12 10  1  0
 10 28  1  0
 13 11  1  0
 11 16  1  0
 16 12  1  0
 21 13  1  0
 15 14  1  0
 14 17  1  6
 15 20  1  1
 16 24  1  0
 21 18  1  6
 21 19  1  0
 27 20  1  0
 21 27  1  0
 26 29  1  0
M  END
$$$$
