
     RDKit          3D

135137  0  0  0  0  0  0  0  0999 V2000
  -26.7516   -0.8939   -1.8489 C   0  0  0  0  0  0  0  0  0  0  0  0
  -25.7550   -0.7871   -2.5635 O   0  0  0  0  0  0  0  0  0  0  0  0
  -28.1541   -0.8715   -2.3903 C   0  0  0  0  0  0  0  0  0  0  0  0
  -26.6745   -1.0886   -0.4989 N   0  0  0  0  0  0  0  0  0  0  0  0
  -27.7705   -1.6359    0.3095 C   0  0  2  0  0  0  0  0  0  0  0  0
  -27.8368   -3.1350   -0.0535 C   0  0  0  0  0  0  0  0  0  0  0  0
  -26.9098   -3.9166    0.1032 O   0  0  0  0  0  0  0  0  0  0  0  0
  -29.0949   -0.9186    0.0386 C   0  0  0  0  0  0  0  0  0  0  0  0
  -30.0358   -0.7434    1.2459 C   0  0  0  0  0  0  0  0  0  0  0  0
  -29.7934   -1.6776    2.4417 C   0  0  0  0  0  0  0  0  0  0  0  0
  -31.0066   -2.2285    3.1854 C   0  0  0  0  0  0  0  0  0  0  0  0
  -30.6257   -3.2716    4.1513 N   0  0  0  0  0  4  0  0  0  0  0  0
  -29.1040   -3.5269   -0.4537 N   0  0  0  0  0  0  0  0  0  0  0  0
  -29.3660   -4.9366   -0.7596 C   0  0  2  0  0  0  0  0  0  0  0  0
  -28.1150   -5.6781   -1.3052 C   0  0  0  0  0  0  0  0  0  0  0  0
  -27.9937   -6.9019   -1.2318 O   0  0  0  0  0  0  0  0  0  0  0  0
  -30.5133   -5.0667   -1.7804 C   0  0  0  0  0  0  0  0  0  0  0  0
  -31.0300   -6.4964   -2.0311 C   0  0  0  0  0  0  0  0  0  0  0  0
  -31.8498   -6.5841   -3.3222 C   0  0  0  0  0  0  0  0  0  0  0  0
  -31.0245   -7.1518   -4.4662 C   0  0  0  0  0  0  0  0  0  0  0  0
  -30.5697   -8.5071   -4.1300 N   0  0  0  0  0  4  0  0  0  0  0  0
  -27.1362   -4.8669   -1.8558 N   0  0  0  0  0  0  0  0  0  0  0  0
  -25.8731   -5.4265   -2.3537 C   0  0  2  0  0  0  0  0  0  0  0  0
  -24.8695   -5.6512   -1.1775 C   0  0  0  0  0  0  0  0  0  0  0  0
  -23.7156   -6.0237   -1.3605 O   0  0  0  0  0  0  0  0  0  0  0  0
  -25.2732   -4.4770   -3.4106 C   0  0  0  0  0  0  0  0  0  0  0  0
  -24.3847   -3.3770   -2.8233 C   0  0  0  0  0  0  0  0  0  0  0  0
  -24.1477   -2.2693   -3.8492 C   0  0  0  0  0  0  0  0  0  0  0  0
  -25.1630   -2.3275   -4.8823 N   0  0  0  0  0  0  0  0  0  0  0  0
  -25.0648   -1.6505   -6.0488 C   0  0  0  0  0  0  0  0  0  0  0  0
  -24.0621   -1.0134   -6.5279 N   0  0  0  0  0  0  0  0  0  0  0  0
  -26.2086   -1.7135   -6.7521 N   0  0  0  0  0  0  0  0  0  0  0  0
  -25.3739   -5.3990    0.0776 N   0  0  0  0  0  0  0  0  0  0  0  0
  -24.6560   -5.5430    1.3581 C   0  0  2  0  0  0  0  0  0  0  0  0
  -23.1635   -5.9436    1.4306 C   0  0  0  0  0  0  0  0  0  0  0  0
  -22.8424   -7.1168    1.6441 O   0  0  0  0  0  0  0  0  0  0  0  0
  -25.4724   -6.2291    2.4759 C   0  0  0  0  0  0  0  0  0  0  0  0
  -26.7800   -6.8672    2.0777 C   0  0  0  0  0  0  0  0  0  0  0  0
  -26.8014   -8.1282    1.4598 C   0  0  0  0  0  0  0  0  0  0  0  0
  -27.9992   -6.2359    2.3607 C   0  0  0  0  0  0  0  0  0  0  0  0
  -28.0097   -8.7209    1.0933 C   0  0  0  0  0  0  0  0  0  0  0  0
  -29.2070   -6.8246    1.9843 C   0  0  0  0  0  0  0  0  0  0  0  0
  -29.2041   -8.0594    1.3544 C   0  0  0  0  0  0  0  0  0  0  0  0
  -30.4064   -8.6019    1.0177 O   0  0  0  0  0  0  0  0  0  0  0  0
  -22.2161   -4.9846    1.2028 N   0  0  0  0  0  0  0  0  0  0  0  0
  -20.8242   -5.1884    1.6116 C   0  0  2  0  0  0  0  0  0  0  0  0
  -20.6777   -4.9752    3.1305 C   0  0  0  0  0  0  0  0  0  0  0  0
  -21.5174   -4.3280    3.7498 O   0  0  0  0  0  0  0  0  0  0  0  0
  -19.8464   -4.3664    0.7571 C   0  0  0  0  0  0  0  0  0  0  0  0
  -20.1428   -2.9685    0.8531 O   0  0  0  0  0  0  0  0  0  0  0  0
  -19.6294   -5.6045    3.7699 N   0  0  0  0  0  0  0  0  0  0  0  0
  -19.3415   -5.4196    5.2082 C   0  0  2  0  0  0  0  0  0  0  0  0
  -17.8300   -5.5925    5.5352 C   0  0  0  0  0  0  0  0  0  0  0  0
  -17.2115   -6.6087    5.2500 O   0  0  0  0  0  0  0  0  0  0  0  0
  -20.1593   -6.4249    6.0407 C   0  0  0  0  0  0  0  0  0  0  0  0
  -21.6387   -6.0493    6.2141 C   0  0  0  0  0  0  0  0  0  0  0  0
  -22.4588   -7.0684    7.0074 C   0  0  0  0  0  0  0  0  0  0  0  0
  -21.5721   -8.0299    7.6522 N   0  0  0  0  0  0  0  0  0  0  0  0
  -22.0526   -9.0606    8.3812 C   0  0  0  0  0  0  0  0  0  0  0  0
  -23.0082   -8.6386    9.2403 N   0  0  0  0  0  0  0  0  0  0  0  0
  -21.6851  -10.2863    8.2866 N   0  0  0  0  0  0  0  0  0  0  0  0
  -18.8183   -4.9529    8.2385 C   0  0  0  0  0  0  0  0  0  0  0  0
  -17.2743   -4.5742    6.2910 N   0  0  0  0  0  0  0  0  0  0  0  0
  -18.7596   -4.9734    9.4673 O   0  0  0  0  0  0  0  0  0  0  0  0
  -18.0280   -3.9096    7.3705 C   0  0  1  0  0  0  0  0  0  0  0  0
  -19.1398   -2.9471    6.8210 C   0  0  0  0  0  0  0  0  0  0  0  0
  -18.5392   -2.3055    4.3471 C   0  0  0  0  0  0  0  0  0  0  0  0
  -19.4808   -3.3475    3.8124 C   0  0  0  0  0  0  0  0  0  0  0  0
  -18.7801   -1.8566    5.7975 C   0  0  0  0  0  0  0  0  0  0  0  0
  -17.0454   -3.1144    8.2544 C   0  0  0  0  0  0  0  0  0  0  0  0
  -19.6984   -5.7482    7.5267 N   0  0  0  0  0  0  0  0  0  0  0  0
  -20.7668   -6.4754    8.1975 C   0  0  2  0  0  0  0  0  0  0  0  0
  -21.4525   -7.3552    7.1355 C   0  0  0  0  0  0  0  0  0  0  0  0
  -22.0003   -6.8976    6.1313 O   0  0  0  0  0  0  0  0  0  0  0  0
  -21.8202   -5.5173    8.7874 C   0  0  0  0  0  0  0  0  0  0  0  0
  -22.5339   -6.1047   10.0029 C   0  0  0  0  0  0  0  0  0  0  0  0
  -21.8092   -7.3070   10.5630 C   0  0  0  0  0  0  0  0  0  0  0  0
  -22.1100   -7.8907   11.5991 O   0  0  0  0  0  0  0  0  0  0  0  0
  -20.7537   -7.7265    9.8060 N   0  0  0  0  0  0  0  0  0  0  0  0
  -21.4720   -8.7114    7.3434 N   0  0  0  0  0  0  0  0  0  0  0  0
  -20.2488   -9.4750    7.6354 C   0  0  2  0  0  0  0  0  0  0  0  0
  -19.9508  -10.3194    6.3686 C   0  0  0  0  0  0  0  0  0  0  0  0
  -20.8169  -10.4681    5.4979 O   0  0  0  0  0  0  0  0  0  0  0  0
  -20.3520  -10.2905    8.9333 C   0  0  0  0  0  0  0  0  0  0  0  0
  -20.1061   -9.5365   10.2595 C   0  0  1  0  0  0  0  0  0  0  0  0
  -19.2669   -8.2728   10.0913 C   0  0  0  0  0  0  0  0  0  0  0  0
  -21.4500   -9.1675   10.8965 C   0  0  0  0  0  0  0  0  0  0  0  0
  -18.6755  -10.8414    6.2786 N   0  0  0  0  0  0  0  0  0  0  0  0
  -18.0885  -11.2346    4.9793 C   0  0  2  0  0  0  0  0  0  0  0  0
  -17.8120   -9.9027    4.2325 C   0  0  0  0  0  0  0  0  0  0  0  0
  -17.4730   -8.8966    4.8637 O   0  0  0  0  0  0  0  0  0  0  0  0
  -18.8481  -12.3132    4.1830 C   0  0  0  0  0  0  0  0  0  0  0  0
  -20.1632  -11.8900    3.4815 C   0  0  1  0  0  0  0  0  0  0  0  0
  -20.0398  -10.5441    2.7566 C   0  0  0  0  0  0  0  0  0  0  0  0
  -20.7307  -12.9412    2.5334 C   0  0  0  0  0  0  0  0  0  0  0  0
  -18.7313   -9.2631    0.6201 C   0  0  0  0  0  0  0  0  0  0  0  0
  -17.8529   -9.9232    2.8463 N   0  0  0  0  0  0  0  0  0  0  0  0
  -19.6599   -9.0110   -0.1427 O   0  0  0  0  0  0  0  0  0  0  0  0
  -18.7423   -8.9373    2.1491 C   0  0  1  0  0  0  0  0  0  0  0  0
  -18.2295   -7.4829    2.3085 C   0  0  0  0  0  0  0  0  0  0  0  0
  -19.9483   -5.7100    3.0362 C   0  0  0  0  0  0  0  0  0  0  0  0
  -19.1152   -4.6319    3.6497 C   0  0  0  0  0  0  0  0  0  0  0  0
  -19.1971   -6.3658    1.8665 C   0  0  0  0  0  0  0  0  0  0  0  0
  -20.1845   -9.1124    2.6384 C   0  0  0  0  0  0  0  0  0  0  0  0
  -17.6831  -10.0544    0.1869 N   0  0  0  0  0  0  0  0  0  0  0  0
  -17.0746  -10.9692    1.1560 C   0  0  2  0  0  0  0  0  0  0  0  0
  -15.5487  -10.9990    0.8724 C   0  0  0  0  0  0  0  0  0  0  0  0
  -15.0773  -11.4569   -0.1721 O   0  0  0  0  0  0  0  0  0  0  0  0
  -17.6303  -12.3982    1.0449 C   0  0  0  0  0  0  0  0  0  0  0  0
  -17.2035  -13.2483    2.2166 C   0  0  0  0  0  0  0  0  0  0  0  0
  -17.7527  -14.5307    2.3918 C   0  0  0  0  0  0  0  0  0  0  0  0
  -16.2179  -12.8027    3.1064 C   0  0  0  0  0  0  0  0  0  0  0  0
  -17.3039  -15.3516    3.4251 C   0  0  0  0  0  0  0  0  0  0  0  0
  -15.7690  -13.6349    4.1363 C   0  0  0  0  0  0  0  0  0  0  0  0
  -16.3049  -14.9106    4.2850 C   0  0  0  0  0  0  0  0  0  0  0  0
  -14.7419  -10.4804    1.8799 N   0  0  0  0  0  0  0  0  0  0  0  0
  -13.2903  -10.3864    1.6533 C   0  0  2  0  0  0  0  0  0  0  0  0
  -12.5615  -11.5623    2.3471 C   0  0  0  0  0  0  0  0  0  0  0  0
  -13.0573  -12.1618    3.2938 O   0  0  0  0  0  0  0  0  0  0  0  0
  -12.7213   -9.0557    2.1750 C   0  0  0  0  0  0  0  0  0  0  0  0
  -13.5010   -7.8403    1.6459 C   0  0  0  0  0  0  0  0  0  0  0  0
  -12.9111   -6.5167    2.1301 C   0  0  0  0  0  0  0  0  0  0  0  0
  -13.5527   -5.3968    1.4638 N   0  0  0  0  0  0  0  0  0  0  0  0
  -14.5503   -5.5705    0.5655 C   0  0  0  0  0  0  0  0  0  0  0  0
  -14.9370   -6.8593    0.4959 N   0  0  0  0  0  0  0  0  0  0  0  0
  -15.0911   -4.6271   -0.1159 N   0  0  0  0  0  0  0  0  0  0  0  0
  -11.3400  -11.8836    1.8081 N   0  0  0  0  0  0  0  0  0  0  0  0
  -10.5005  -12.9341    2.3605 C   0  0  2  0  0  0  0  0  0  0  0  0
   -9.1323  -13.0103    1.6446 C   0  0  0  0  0  0  0  0  0  0  0  0
   -8.1951  -12.1748    2.1384 O   0  0  0  0  0  0  0  0  0  0  0  0
  -11.2641  -14.2532    2.3814 C   0  0  0  0  0  0  0  0  0  0  0  0
   -8.8701  -13.7156    0.6780 O   0  0  0  0  0  0  0  0  0  0  0  0
  -24.2573   -0.7315   -7.4891 H   0  0  0  0  0  0  0  0  0  0  0  0
  -21.0900  -10.3729    7.4614 H   0  0  0  0  0  0  0  0  0  0  0  0
  -15.7150   -4.0866    0.4839 H   0  0  0  0  0  0  0  0  0  0  0  0
  1  2  2  0
  1  3  1  0
  4  1  1  0
  5  4  1  0
  6  5  1  0
  5  8  1  6
  6  7  2  0
 13  6  1  0
  8  9  1  0
  9 10  1  0
 10 11  1  0
 11 12  1  0
 14 13  1  0
 15 14  1  0
 14 17  1  6
 15 16  2  0
 22 15  1  0
 17 18  1  0
 18 19  1  0
 19 20  1  0
 20 21  1  0
 23 22  1  0
 24 23  1  0
 23 26  1  6
 24 25  2  0
 33 24  1  0
 26 27  1  0
 27 28  1  0
 28 29  1  0
 29 30  1  0
 30 31  2  0
 30 32  1  0
 34 33  1  0
 35 34  1  0
 34 37  1  1
 35 36  2  0
 45 35  1  0
 37 38  1  0
 38 39  2  0
 38 40  1  0
 39 41  1  0
 40 42  2  0
 41 43  2  0
 42 43  1  0
 43 44  1  0
 46 45  1  0
 47 46  1  0
 46 49  1  6
 47 48  2  0
 51 47  1  0
 49 50  1  0
 52 51  1  0
 53 52  1  0
 52 55  1  1
 53 54  2  0
 63 53  1  0
 55 56  1  0
 56 57  1  0
 57 58  1  0
 58 59  1  0
 59 60  1  0
 59 61  2  0
 62 64  2  0
 62 65  1  0
 71 62  1  0
 65 63  1  0
 65 66  1  0
 65 70  1  1
 66 69  1  0
 67 68  1  0
 69 67  1  0
 68102  2  0
 72 71  1  0
 73 72  1  0
 72 75  1  6
 73 74  2  0
 80 73  1  0
 75 76  1  0
 76 77  1  0
 77 78  2  0
 77 79  1  0
 81 80  1  0
 82 81  1  0
 81 84  1  1
 82 83  2  0
 88 82  1  0
 84 85  1  0
 85 86  1  6
 85 87  1  0
 89 88  1  0
 90 89  1  0
 89 92  1  6
 90 91  2  0
 97 90  1  0
 92 93  1  0
 93 94  1  6
 93 95  1  0
 96 98  2  0
 99 96  1  0
 96105  1  0
 97 99  1  0
 99100  1  0
 99104  1  1
100103  1  0
102101  1  0
101103  1  0
105106  1  0
106107  1  0
106109  1  6
107108  2  0
107116  1  0
109110  1  0
110111  2  0
110112  1  0
111113  1  0
112114  2  0
113115  2  0
114115  1  0
116117  1  0
117118  1  0
117120  1  1
118119  2  0
118127  1  0
120121  1  0
121122  1  0
122123  1  0
123124  1  0
124125  1  0
124126  2  0
127128  1  0
128129  1  0
128131  1  6
129130  1  0
129132  2  0
 31133  1  0
 61134  1  0
126135  1  0
M  CHG  2  12   1  21   1
M  END
$$$$
