
     RDKit          3D

135137  0  0  0  0  0  0  0  0999 V2000
  -29.9206   -5.6118   -7.9851 C   0  0  0  0  0  0  0  0  0  0  0  0
  -30.1301   -6.6793   -8.5612 O   0  0  0  0  0  0  0  0  0  0  0  0
  -30.2298   -4.2748   -8.5995 C   0  0  0  0  0  0  0  0  0  0  0  0
  -29.4285   -5.5439   -6.7125 N   0  0  0  0  0  0  0  0  0  0  0  0
  -30.1909   -5.0259   -5.5703 C   0  0  2  0  0  0  0  0  0  0  0  0
  -29.2547   -5.1766   -4.3520 C   0  0  0  0  0  0  0  0  0  0  0  0
  -28.3856   -4.3694   -4.0553 O   0  0  0  0  0  0  0  0  0  0  0  0
  -31.5119   -5.7739   -5.3776 C   0  0  0  0  0  0  0  0  0  0  0  0
  -32.4730   -5.2004   -4.3187 C   0  0  0  0  0  0  0  0  0  0  0  0
  -33.7685   -5.9896   -4.0737 C   0  0  0  0  0  0  0  0  0  0  0  0
  -34.5780   -5.6774   -2.8185 C   0  0  0  0  0  0  0  0  0  0  0  0
  -35.7876   -6.5111   -2.7292 N   0  0  0  0  0  4  0  0  0  0  0  0
  -29.5925   -6.2589   -3.5559 N   0  0  0  0  0  0  0  0  0  0  0  0
  -28.9308   -6.4430   -2.2606 C   0  0  2  0  0  0  0  0  0  0  0  0
  -27.3906   -6.5983   -2.3867 C   0  0  0  0  0  0  0  0  0  0  0  0
  -26.8683   -7.2378   -3.3012 O   0  0  0  0  0  0  0  0  0  0  0  0
  -29.5025   -7.6728   -1.5286 C   0  0  0  0  0  0  0  0  0  0  0  0
  -30.8600   -8.1892   -2.0431 C   0  0  0  0  0  0  0  0  0  0  0  0
  -31.2372   -9.5276   -1.4005 C   0  0  0  0  0  0  0  0  0  0  0  0
  -32.5982  -10.0086   -1.8782 C   0  0  0  0  0  0  0  0  0  0  0  0
  -32.6514   -9.9814   -3.3455 N   0  0  0  0  0  4  0  0  0  0  0  0
  -26.6479   -5.9906   -1.3876 N   0  0  0  0  0  0  0  0  0  0  0  0
  -25.1996   -6.2061   -1.2755 C   0  0  2  0  0  0  0  0  0  0  0  0
  -24.7726   -6.3048    0.2242 C   0  0  0  0  0  0  0  0  0  0  0  0
  -25.5417   -6.0493    1.1445 O   0  0  0  0  0  0  0  0  0  0  0  0
  -24.4541   -5.0555   -1.9818 C   0  0  0  0  0  0  0  0  0  0  0  0
  -24.8786   -3.6611   -1.5129 C   0  0  0  0  0  0  0  0  0  0  0  0
  -24.0856   -2.5802   -2.2468 C   0  0  0  0  0  0  0  0  0  0  0  0
  -23.9867   -1.3934   -1.4202 N   0  0  0  0  0  0  0  0  0  0  0  0
  -23.3040   -0.2890   -1.7979 C   0  0  0  0  0  0  0  0  0  0  0  0
  -22.5606   -0.1146   -2.8265 N   0  0  0  0  0  0  0  0  0  0  0  0
  -23.4932    0.7253   -0.9362 N   0  0  0  0  0  0  0  0  0  0  0  0
  -23.4722   -6.7008    0.4368 N   0  0  0  0  0  0  0  0  0  0  0  0
  -22.8396   -6.9760    1.7407 C   0  0  2  0  0  0  0  0  0  0  0  0
  -21.3458   -6.6820    2.0152 C   0  0  0  0  0  0  0  0  0  0  0  0
  -20.5776   -6.4322    1.0812 O   0  0  0  0  0  0  0  0  0  0  0  0
  -23.2760   -8.3053    2.3958 C   0  0  0  0  0  0  0  0  0  0  0  0
  -24.7520   -8.6161    2.4006 C   0  0  0  0  0  0  0  0  0  0  0  0
  -25.3839   -9.1042    1.2451 C   0  0  0  0  0  0  0  0  0  0  0  0
  -25.5098   -8.4698    3.5709 C   0  0  0  0  0  0  0  0  0  0  0  0
  -26.7481   -9.3944    1.2486 C   0  0  0  0  0  0  0  0  0  0  0  0
  -26.8766   -8.7503    3.5706 C   0  0  0  0  0  0  0  0  0  0  0  0
  -27.4850   -9.2090    2.4126 C   0  0  0  0  0  0  0  0  0  0  0  0
  -28.8175   -9.4830    2.4626 O   0  0  0  0  0  0  0  0  0  0  0  0
  -20.9110   -6.6547    3.3111 N   0  0  0  0  0  0  0  0  0  0  0  0
  -19.5240   -6.3104    3.6334 C   0  0  2  0  0  0  0  0  0  0  0  0
  -19.3059   -6.3472    5.1582 C   0  0  0  0  0  0  0  0  0  0  0  0
  -18.3137   -5.8222    5.6557 O   0  0  0  0  0  0  0  0  0  0  0  0
  -19.0839   -5.0011    2.9597 C   0  0  0  0  0  0  0  0  0  0  0  0
  -17.7355   -4.6767    3.3171 O   0  0  0  0  0  0  0  0  0  0  0  0
  -20.2981   -6.9077    5.9361 N   0  0  0  0  0  0  0  0  0  0  0  0
  -20.0209   -7.9058    6.9912 C   0  0  2  0  0  0  0  0  0  0  0  0
  -19.3216   -9.1783    6.4316 C   0  0  0  0  0  0  0  0  0  0  0  0
  -19.3530   -9.4730    5.2449 O   0  0  0  0  0  0  0  0  0  0  0  0
  -21.3335   -8.3122    7.6871 C   0  0  0  0  0  0  0  0  0  0  0  0
  -21.2487   -8.3637    9.2201 C   0  0  0  0  0  0  0  0  0  0  0  0
  -21.4021   -7.0047    9.9058 C   0  0  0  0  0  0  0  0  0  0  0  0
  -20.1993   -6.6914   10.6683 N   0  0  0  0  0  0  0  0  0  0  0  0
  -20.1020   -5.5667   11.4100 C   0  0  0  0  0  0  0  0  0  0  0  0
  -18.8104   -5.2952   11.7059 N   0  0  0  0  0  0  0  0  0  0  0  0
  -21.0793   -4.8261   11.7874 N   0  0  0  0  0  0  0  0  0  0  0  0
  -17.1875   -8.4287    8.5069 C   0  0  0  0  0  0  0  0  0  0  0  0
  -18.7822  -10.0192    7.3903 N   0  0  0  0  0  0  0  0  0  0  0  0
  -17.2229   -7.3334    9.0662 O   0  0  0  0  0  0  0  0  0  0  0  0
  -18.3110   -9.5104    8.6918 C   0  0  1  0  0  0  0  0  0  0  0  0
  -17.6299  -10.6262    9.5609 C   0  0  0  0  0  0  0  0  0  0  0  0
  -18.4462  -12.9682    8.7001 C   0  0  0  0  0  0  0  0  0  0  0  0
  -17.1958  -13.1425    7.8851 C   0  0  0  0  0  0  0  0  0  0  0  0
  -18.3708  -11.9442    9.8441 C   0  0  0  0  0  0  0  0  0  0  0  0
  -19.5066   -8.9125    9.4612 C   0  0  0  0  0  0  0  0  0  0  0  0
  -16.0855   -8.8570    7.7886 N   0  0  0  0  0  0  0  0  0  0  0  0
  -14.8196   -8.1404    7.8537 C   0  0  2  0  0  0  0  0  0  0  0  0
  -13.8715   -8.8019    6.8359 C   0  0  0  0  0  0  0  0  0  0  0  0
  -13.5370   -9.9861    6.8957 O   0  0  0  0  0  0  0  0  0  0  0  0
  -14.1803   -8.2465    9.2522 C   0  0  0  0  0  0  0  0  0  0  0  0
  -12.8642   -9.0208    9.2396 C   0  0  0  0  0  0  0  0  0  0  0  0
  -12.1055   -8.8336    7.9459 C   0  0  0  0  0  0  0  0  0  0  0  0
  -12.6016   -8.4680    6.8853 O   0  0  0  0  0  0  0  0  0  0  0  0
  -10.7705   -9.1034    8.0364 N   0  0  0  0  0  0  0  0  0  0  0  0
  -13.3589   -8.0162    5.8344 N   0  0  0  0  0  0  0  0  0  0  0  0
  -14.2185   -7.1943    4.9683 C   0  0  2  0  0  0  0  0  0  0  0  0
  -14.2018   -7.8702    3.5721 C   0  0  0  0  0  0  0  0  0  0  0  0
  -13.3492   -8.7246    3.3008 O   0  0  0  0  0  0  0  0  0  0  0  0
  -13.8138   -5.7123    4.9622 C   0  0  0  0  0  0  0  0  0  0  0  0
  -13.2933   -5.1195    6.2909 C   0  0  1  0  0  0  0  0  0  0  0  0
  -13.9747   -3.8099    6.6781 C   0  0  0  0  0  0  0  0  0  0  0  0
  -13.4856   -6.1398    7.4180 C   0  0  0  0  0  0  0  0  0  0  0  0
  -15.2013   -7.4811    2.7022 N   0  0  0  0  0  0  0  0  0  0  0  0
  -15.6181   -8.3344    1.5684 C   0  0  2  0  0  0  0  0  0  0  0  0
  -16.3664   -9.5335    2.2088 C   0  0  0  0  0  0  0  0  0  0  0  0
  -17.0415   -9.3694    3.2300 O   0  0  0  0  0  0  0  0  0  0  0  0
  -14.5263   -8.6878    0.5399 C   0  0  0  0  0  0  0  0  0  0  0  0
  -13.0642   -8.7620    1.0469 C   0  0  1  0  0  0  0  0  0  0  0  0
  -12.6199   -7.4789    1.7599 C   0  0  0  0  0  0  0  0  0  0  0  0
  -12.7691   -9.9736    1.9250 C   0  0  0  0  0  0  0  0  0  0  0  0
  -15.7769  -13.1499    1.2719 C   0  0  0  0  0  0  0  0  0  0  0  0
  -16.3342  -10.7450    1.5342 N   0  0  0  0  0  0  0  0  0  0  0  0
  -14.9216  -14.0293    1.3239 O   0  0  0  0  0  0  0  0  0  0  0  0
  -15.8703  -11.9598    2.2813 C   0  0  1  0  0  0  0  0  0  0  0  0
  -16.8746  -12.3773    3.3861 C   0  0  0  0  0  0  0  0  0  0  0  0
  -15.9099  -12.8498    5.7256 C   0  0  0  0  0  0  0  0  0  0  0  0
  -17.0716  -12.6427    6.6423 C   0  0  0  0  0  0  0  0  0  0  0  0
  -16.3829  -13.4419    4.3884 C   0  0  0  0  0  0  0  0  0  0  0  0
  -14.4583  -11.7179    2.8270 C   0  0  0  0  0  0  0  0  0  0  0  0
  -16.5996  -13.0578    0.1641 N   0  0  0  0  0  0  0  0  0  0  0  0
  -17.5157  -11.9170    0.0891 C   0  0  2  0  0  0  0  0  0  0  0  0
  -16.7476  -10.6695    0.6026 C   0  0  0  0  0  0  0  0  0  0  0  0
  -15.7670  -10.2061    0.0141 O   0  0  0  0  0  0  0  0  0  0  0  0
  -18.7745  -12.1161    0.9489 C   0  0  0  0  0  0  0  0  0  0  0  0
  -19.7654  -10.9965    0.7431 C   0  0  0  0  0  0  0  0  0  0  0  0
  -19.5625  -10.0580   -0.2840 C   0  0  0  0  0  0  0  0  0  0  0  0
  -20.9241  -10.9096    1.5252 C   0  0  0  0  0  0  0  0  0  0  0  0
  -20.5144   -9.0700   -0.5305 C   0  0  0  0  0  0  0  0  0  0  0  0
  -21.8767   -9.9193    1.2672 C   0  0  0  0  0  0  0  0  0  0  0  0
  -21.6744   -9.0104    0.2329 C   0  0  0  0  0  0  0  0  0  0  0  0
  -17.2339  -10.1090    1.7792 N   0  0  0  0  0  0  0  0  0  0  0  0
  -16.5469   -8.9376    2.3479 C   0  0  2  0  0  0  0  0  0  0  0  0
  -16.8375   -8.8287    3.8641 C   0  0  0  0  0  0  0  0  0  0  0  0
  -17.9116   -9.1729    4.3428 O   0  0  0  0  0  0  0  0  0  0  0  0
  -16.9787   -7.6354    1.6518 C   0  0  0  0  0  0  0  0  0  0  0  0
  -18.4287   -7.2477    1.9872 C   0  0  0  0  0  0  0  0  0  0  0  0
  -18.6047   -5.7379    2.1420 C   0  0  0  0  0  0  0  0  0  0  0  0
  -19.7586   -5.2778    1.3893 N   0  0  0  0  0  0  0  0  0  0  0  0
  -20.1391   -3.9787    1.3797 C   0  0  0  0  0  0  0  0  0  0  0  0
  -19.3676   -3.2415    0.5571 N   0  0  0  0  0  0  0  0  0  0  0  0
  -21.1308   -3.5039    2.0414 N   0  0  0  0  0  0  0  0  0  0  0  0
  -15.7990   -8.3391    4.6176 N   0  0  0  0  0  0  0  0  0  0  0  0
  -15.9132   -8.1278    6.0513 C   0  0  2  0  0  0  0  0  0  0  0  0
  -16.2946   -6.6676    6.3869 C   0  0  0  0  0  0  0  0  0  0  0  0
  -17.0507   -6.5274    7.4956 O   0  0  0  0  0  0  0  0  0  0  0  0
  -14.6501   -8.6157    6.7514 C   0  0  0  0  0  0  0  0  0  0  0  0
  -16.0041   -5.6821    5.7199 O   0  0  0  0  0  0  0  0  0  0  0  0
  -21.5859   -0.0224   -2.5386 H   0  0  0  0  0  0  0  0  0  0  0  0
  -21.6845   -5.3870   12.3888 H   0  0  0  0  0  0  0  0  0  0  0  0
  -21.9925   -3.9599    1.7402 H   0  0  0  0  0  0  0  0  0  0  0  0
  1  2  2  0
  1  3  1  0
  4  1  1  0
  5  4  1  0
  6  5  1  0
  5  8  1  1
  6  7  2  0
 13  6  1  0
  8  9  1  0
  9 10  1  0
 10 11  1  0
 11 12  1  0
 14 13  1  0
 15 14  1  0
 14 17  1  6
 15 16  2  0
 22 15  1  0
 17 18  1  0
 18 19  1  0
 19 20  1  0
 20 21  1  0
 23 22  1  0
 24 23  1  0
 23 26  1  1
 24 25  2  0
 33 24  1  0
 26 27  1  0
 27 28  1  0
 28 29  1  0
 29 30  1  0
 30 31  2  0
 30 32  1  0
 34 33  1  0
 35 34  1  0
 34 37  1  6
 35 36  2  0
 45 35  1  0
 37 38  1  0
 38 39  2  0
 38 40  1  0
 39 41  1  0
 40 42  2  0
 41 43  2  0
 42 43  1  0
 43 44  1  0
 46 45  1  0
 47 46  1  0
 46 49  1  1
 47 48  2  0
 51 47  1  0
 49 50  1  0
 52 51  1  0
 53 52  1  0
 52 55  1  6
 53 54  2  0
 63 53  1  0
 55 56  1  0
 56 57  1  0
 57 58  1  0
 58 59  1  0
 59 60  1  0
 59 61  2  0
 62 64  2  0
 62 65  1  0
 71 62  1  0
 65 63  1  0
 65 66  1  0
 65 70  1  1
 66 69  1  0
 67 68  1  0
 69 67  1  0
 68102  2  0
 72 71  1  0
 73 72  1  0
 72 75  1  1
 73 74  2  0
 80 73  1  0
 75 76  1  0
 76 77  1  0
 77 78  2  0
 77 79  1  0
 81 80  1  0
 82 81  1  0
 81 84  1  6
 82 83  2  0
 88 82  1  0
 84 85  1  0
 85 86  1  1
 85 87  1  0
 89 88  1  0
 90 89  1  0
 89 92  1  1
 90 91  2  0
 97 90  1  0
 92 93  1  0
 93 94  1  1
 93 95  1  0
 96 98  2  0
 99 96  1  0
 96105  1  0
 97 99  1  0
 99100  1  0
 99104  1  1
100103  1  0
102101  1  0
101103  1  0
105106  1  0
106107  1  0
106109  1  1
107108  2  0
107116  1  0
109110  1  0
110111  2  0
110112  1  0
111113  1  0
112114  2  0
113115  2  0
114115  1  0
116117  1  0
117118  1  0
117120  1  6
118119  2  0
118127  1  0
120121  1  0
121122  1  0
122123  1  0
123124  1  0
124125  1  0
124126  2  0
127128  1  0
128129  1  0
128131  1  1
129130  1  0
129132  2  0
 31133  1  0
 61134  1  0
126135  1  0
M  CHG  2  12   1  21   1
M  END
$$$$
