
     RDKit          3D

135137  0  0  0  0  0  0  0  0999 V2000
  -28.2453   -3.7583   -4.3624 C   0  0  0  0  0  0  0  0  0  0  0  0
  -29.3635   -3.2454   -4.3194 O   0  0  0  0  0  0  0  0  0  0  0  0
  -28.0271   -5.2452   -4.4095 C   0  0  0  0  0  0  0  0  0  0  0  0
  -27.0966   -3.0208   -4.4171 N   0  0  0  0  0  0  0  0  0  0  0  0
  -25.7510   -3.6005   -4.3299 C   0  0  2  0  0  0  0  0  0  0  0  0
  -24.9641   -2.6664   -3.3857 C   0  0  0  0  0  0  0  0  0  0  0  0
  -24.0155   -1.9806   -3.7390 O   0  0  0  0  0  0  0  0  0  0  0  0
  -25.0894   -3.7201   -5.7046 C   0  0  0  0  0  0  0  0  0  0  0  0
  -23.7124   -4.4103   -5.7418 C   0  0  0  0  0  0  0  0  0  0  0  0
  -23.0840   -4.6057   -7.1304 C   0  0  0  0  0  0  0  0  0  0  0  0
  -21.9845   -5.6525   -7.2847 C   0  0  0  0  0  0  0  0  0  0  0  0
  -21.5281   -5.7613   -8.6797 N   0  0  0  0  0  4  0  0  0  0  0  0
  -25.5314   -2.5893   -2.1241 N   0  0  0  0  0  0  0  0  0  0  0  0
  -25.3198   -3.6774   -1.1644 C   0  0  2  0  0  0  0  0  0  0  0  0
  -23.8303   -3.8399   -0.7556 C   0  0  0  0  0  0  0  0  0  0  0  0
  -23.4667   -4.6643    0.0847 O   0  0  0  0  0  0  0  0  0  0  0  0
  -25.8336   -5.0133   -1.7360 C   0  0  0  0  0  0  0  0  0  0  0  0
  -26.7535   -5.8307   -0.8089 C   0  0  0  0  0  0  0  0  0  0  0  0
  -27.4579   -4.9396    0.2189 C   0  0  0  0  0  0  0  0  0  0  0  0
  -28.4912   -5.7207    1.0152 C   0  0  0  0  0  0  0  0  0  0  0  0
  -29.1013   -4.8523    2.0302 N   0  0  0  0  0  4  0  0  0  0  0  0
  -22.9445   -2.9779   -1.3813 N   0  0  0  0  0  0  0  0  0  0  0  0
  -21.5021   -3.0397   -1.1131 C   0  0  2  0  0  0  0  0  0  0  0  0
  -21.1178   -4.4181   -0.4859 C   0  0  0  0  0  0  0  0  0  0  0  0
  -19.9928   -4.8956   -0.5875 O   0  0  0  0  0  0  0  0  0  0  0  0
  -21.1053   -1.8822   -0.1744 C   0  0  0  0  0  0  0  0  0  0  0  0
  -19.6279   -1.4903   -0.2629 C   0  0  0  0  0  0  0  0  0  0  0  0
  -18.7627   -2.7121   -0.5703 C   0  0  0  0  0  0  0  0  0  0  0  0
  -17.8996   -2.4341   -1.7014 N   0  0  0  0  0  0  0  0  0  0  0  0
  -16.6164   -2.0300   -1.5654 C   0  0  0  0  0  0  0  0  0  0  0  0
  -15.6187   -2.6685   -1.0775 N   0  0  0  0  0  0  0  0  0  0  0  0
  -16.4387   -0.7864   -2.0436 N   0  0  0  0  0  0  0  0  0  0  0  0
  -22.1325   -5.0561    0.1899 N   0  0  0  0  0  0  0  0  0  0  0  0
  -21.9802   -6.0819    1.2389 C   0  0  2  0  0  0  0  0  0  0  0  0
  -20.7286   -6.1609    2.1448 C   0  0  0  0  0  0  0  0  0  0  0  0
  -19.5984   -6.1723    1.6473 O   0  0  0  0  0  0  0  0  0  0  0  0
  -22.4628   -7.4915    0.8304 C   0  0  0  0  0  0  0  0  0  0  0  0
  -22.8955   -8.4171    1.9401 C   0  0  0  0  0  0  0  0  0  0  0  0
  -24.0711   -8.1633    2.6655 C   0  0  0  0  0  0  0  0  0  0  0  0
  -22.1592   -9.5729    2.2352 C   0  0  0  0  0  0  0  0  0  0  0  0
  -24.4741   -9.0195    3.6901 C   0  0  0  0  0  0  0  0  0  0  0  0
  -22.5573  -10.4233    3.2673 C   0  0  0  0  0  0  0  0  0  0  0  0
  -23.7085  -10.1415    3.9862 C   0  0  0  0  0  0  0  0  0  0  0  0
  -24.0659  -11.0062    4.9749 O   0  0  0  0  0  0  0  0  0  0  0  0
  -20.9010   -6.1654    3.5010 N   0  0  0  0  0  0  0  0  0  0  0  0
  -19.9250   -5.5257    4.3867 C   0  0  2  0  0  0  0  0  0  0  0  0
  -20.4659   -5.4753    5.8285 C   0  0  0  0  0  0  0  0  0  0  0  0
  -21.0857   -4.4922    6.2245 O   0  0  0  0  0  0  0  0  0  0  0  0
  -19.4504   -4.1708    3.8382 C   0  0  0  0  0  0  0  0  0  0  0  0
  -20.3530   -3.1264    4.2196 O   0  0  0  0  0  0  0  0  0  0  0  0
  -20.3044   -6.5973    6.6153 N   0  0  0  0  0  0  0  0  0  0  0  0
  -21.1497   -6.8762    7.7958 C   0  0  2  0  0  0  0  0  0  0  0  0
  -21.5465   -8.3774    7.8971 C   0  0  0  0  0  0  0  0  0  0  0  0
  -20.9766   -9.2489    7.2552 O   0  0  0  0  0  0  0  0  0  0  0  0
  -22.4263   -6.0160    7.7423 C   0  0  0  0  0  0  0  0  0  0  0  0
  -23.5123   -6.5513    6.7967 C   0  0  0  0  0  0  0  0  0  0  0  0
  -24.9436   -6.3045    7.2772 C   0  0  0  0  0  0  0  0  0  0  0  0
  -24.9274   -5.6206    8.5649 N   0  0  0  0  0  0  0  0  0  0  0  0
  -25.8034   -4.6345    8.8560 C   0  0  0  0  0  0  0  0  0  0  0  0
  -25.6234   -4.1881   10.1200 N   0  0  0  0  0  0  0  0  0  0  0  0
  -26.6883   -4.1538    8.0610 N   0  0  0  0  0  0  0  0  0  0  0  0
  -23.6972   -6.4752    7.8750 C   0  0  0  0  0  0  0  0  0  0  0  0
  -22.6748   -8.6347    8.6571 N   0  0  0  0  0  0  0  0  0  0  0  0
  -24.7550   -6.0844    7.3832 O   0  0  0  0  0  0  0  0  0  0  0  0
  -23.6397   -7.5724    8.9972 C   0  0  1  0  0  0  0  0  0  0  0  0
  -23.2283   -6.7795   10.2882 C   0  0  0  0  0  0  0  0  0  0  0  0
  -21.5736   -8.2628   11.6861 C   0  0  0  0  0  0  0  0  0  0  0  0
  -20.3880   -7.5324   11.1213 C   0  0  0  0  0  0  0  0  0  0  0  0
  -22.9240   -7.5341   11.5936 C   0  0  0  0  0  0  0  0  0  0  0  0
  -25.0325   -8.2035    9.1991 C   0  0  0  0  0  0  0  0  0  0  0  0
  -22.4830   -5.8772    7.5888 N   0  0  0  0  0  0  0  0  0  0  0  0
  -22.4182   -4.6068    6.8803 C   0  0  2  0  0  0  0  0  0  0  0  0
  -20.9303   -4.3127    6.6122 C   0  0  0  0  0  0  0  0  0  0  0  0
  -20.0950   -4.1867    7.5090 O   0  0  0  0  0  0  0  0  0  0  0  0
  -22.9951   -3.4558    7.7277 C   0  0  0  0  0  0  0  0  0  0  0  0
  -21.9104   -2.5443    8.2972 C   0  0  0  0  0  0  0  0  0  0  0  0
  -20.5210   -3.0733    8.0250 C   0  0  0  0  0  0  0  0  0  0  0  0
  -19.9382   -3.0000    6.9481 O   0  0  0  0  0  0  0  0  0  0  0  0
  -19.9246   -3.6598    9.1035 N   0  0  0  0  0  0  0  0  0  0  0  0
  -20.5334   -4.1579    5.3078 N   0  0  0  0  0  0  0  0  0  0  0  0
  -20.8431   -5.1567    4.2729 C   0  0  2  0  0  0  0  0  0  0  0  0
  -19.5013   -5.8543    3.9269 C   0  0  0  0  0  0  0  0  0  0  0  0
  -18.4268   -5.3561    4.2841 O   0  0  0  0  0  0  0  0  0  0  0  0
  -21.5765   -4.5541    3.0649 C   0  0  0  0  0  0  0  0  0  0  0  0
  -22.7784   -5.3470    2.5043 C   0  0  1  0  0  0  0  0  0  0  0  0
  -22.5347   -6.8524    2.4408 C   0  0  0  0  0  0  0  0  0  0  0  0
  -24.0184   -5.0734    3.3620 C   0  0  0  0  0  0  0  0  0  0  0  0
  -19.6026   -7.0507    3.2447 N   0  0  0  0  0  0  0  0  0  0  0  0
  -18.5122   -8.0496    3.2651 C   0  0  2  0  0  0  0  0  0  0  0  0
  -18.5191   -8.6375    4.7012 C   0  0  0  0  0  0  0  0  0  0  0  0
  -19.5845   -8.7704    5.3118 O   0  0  0  0  0  0  0  0  0  0  0  0
  -17.1446   -7.5815    2.7309 C   0  0  0  0  0  0  0  0  0  0  0  0
  -17.0395   -6.1240    2.2160 C   0  0  1  0  0  0  0  0  0  0  0  0
  -15.7485   -5.4295    2.6668 C   0  0  0  0  0  0  0  0  0  0  0  0
  -17.2065   -5.9821    0.7066 C   0  0  0  0  0  0  0  0  0  0  0  0
  -15.4196   -9.1174    6.8144 C   0  0  0  0  0  0  0  0  0  0  0  0
  -17.3153   -9.1001    5.2116 N   0  0  0  0  0  0  0  0  0  0  0  0
  -14.5888   -8.5448    7.5142 O   0  0  0  0  0  0  0  0  0  0  0  0
  -16.8569   -8.5688    6.5371 C   0  0  1  0  0  0  0  0  0  0  0  0
  -17.7618   -9.0544    7.6985 C   0  0  0  0  0  0  0  0  0  0  0  0
  -18.5906   -7.2710    9.3596 C   0  0  0  0  0  0  0  0  0  0  0  0
  -19.8248   -7.8735    9.9482 C   0  0  0  0  0  0  0  0  0  0  0  0
  -17.5517   -8.3639    9.0619 C   0  0  0  0  0  0  0  0  0  0  0  0
  -16.7523   -7.0409    6.4686 C   0  0  0  0  0  0  0  0  0  0  0  0
  -15.0402  -10.2072    6.0523 N   0  0  0  0  0  0  0  0  0  0  0  0
  -15.8279  -11.4358    6.1812 C   0  0  2  0  0  0  0  0  0  0  0  0
  -15.8981  -12.0925    4.7763 C   0  0  0  0  0  0  0  0  0  0  0  0
  -16.5300  -11.5926    3.8417 O   0  0  0  0  0  0  0  0  0  0  0  0
  -17.2578  -11.1681    6.6783 C   0  0  0  0  0  0  0  0  0  0  0  0
  -17.3075  -11.0629    8.1830 C   0  0  0  0  0  0  0  0  0  0  0  0
  -18.5475  -11.0323    8.8450 C   0  0  0  0  0  0  0  0  0  0  0  0
  -16.1305  -11.0553    8.9421 C   0  0  0  0  0  0  0  0  0  0  0  0
  -18.5998  -11.0164   10.2379 C   0  0  0  0  0  0  0  0  0  0  0  0
  -16.1919  -11.0456   10.3389 C   0  0  0  0  0  0  0  0  0  0  0  0
  -17.4260  -11.0381   10.9821 C   0  0  0  0  0  0  0  0  0  0  0  0
  -15.2053  -13.2909    4.6400 N   0  0  0  0  0  0  0  0  0  0  0  0
  -15.3797  -14.0791    3.4088 C   0  0  2  0  0  0  0  0  0  0  0  0
  -16.4722  -15.1565    3.6115 C   0  0  0  0  0  0  0  0  0  0  0  0
  -16.1936  -16.3103    3.9153 O   0  0  0  0  0  0  0  0  0  0  0  0
  -14.0674  -14.7587    2.9815 C   0  0  0  0  0  0  0  0  0  0  0  0
  -14.2230  -15.5607    1.6785 C   0  0  0  0  0  0  0  0  0  0  0  0
  -12.9254  -16.2529    1.2645 C   0  0  0  0  0  0  0  0  0  0  0  0
  -13.1245  -17.0312    0.0545 N   0  0  0  0  0  0  0  0  0  0  0  0
  -13.9759  -16.6375   -0.9214 C   0  0  0  0  0  0  0  0  0  0  0  0
  -13.6632  -17.1945   -2.1077 N   0  0  0  0  0  0  0  0  0  0  0  0
  -14.9797  -15.8580   -0.7434 N   0  0  0  0  0  0  0  0  0  0  0  0
  -17.7604  -14.7117    3.4429 N   0  0  0  0  0  0  0  0  0  0  0  0
  -18.5993  -15.1628    2.3447 C   0  0  2  0  0  0  0  0  0  0  0  0
  -19.7342  -14.1580    2.0402 C   0  0  0  0  0  0  0  0  0  0  0  0
  -19.3834  -12.8616    2.1694 O   0  0  0  0  0  0  0  0  0  0  0  0
  -19.0832  -16.5838    2.6093 C   0  0  0  0  0  0  0  0  0  0  0  0
  -20.8866  -14.4500    1.7449 O   0  0  0  0  0  0  0  0  0  0  0  0
  -14.8357   -2.0303   -0.9324 H   0  0  0  0  0  0  0  0  0  0  0  0
  -27.5635   -4.0684    8.5800 H   0  0  0  0  0  0  0  0  0  0  0  0
  -14.9600  -15.4870    0.2069 H   0  0  0  0  0  0  0  0  0  0  0  0
  1  2  2  0
  1  3  1  0
  4  1  1  0
  5  4  1  0
  6  5  1  0
  5  8  1  6
  6  7  2  0
 13  6  1  0
  8  9  1  0
  9 10  1  0
 10 11  1  0
 11 12  1  0
 14 13  1  0
 15 14  1  0
 14 17  1  6
 15 16  2  0
 22 15  1  0
 17 18  1  0
 18 19  1  0
 19 20  1  0
 20 21  1  0
 23 22  1  0
 24 23  1  0
 23 26  1  1
 24 25  2  0
 33 24  1  0
 26 27  1  0
 27 28  1  0
 28 29  1  0
 29 30  1  0
 30 31  2  0
 30 32  1  0
 34 33  1  0
 35 34  1  0
 34 37  1  6
 35 36  2  0
 45 35  1  0
 37 38  1  0
 38 39  2  0
 38 40  1  0
 39 41  1  0
 40 42  2  0
 41 43  2  0
 42 43  1  0
 43 44  1  0
 46 45  1  0
 47 46  1  0
 46 49  1  6
 47 48  2  0
 51 47  1  0
 49 50  1  0
 52 51  1  0
 53 52  1  0
 52 55  1  6
 53 54  2  0
 63 53  1  0
 55 56  1  0
 56 57  1  0
 57 58  1  0
 58 59  1  0
 59 60  1  0
 59 61  2  0
 62 64  2  0
 62 65  1  0
 71 62  1  0
 65 63  1  0
 65 66  1  0
 65 70  1  1
 66 69  1  0
 67 68  1  0
 69 67  1  0
 68102  2  0
 72 71  1  0
 73 72  1  0
 72 75  1  1
 73 74  2  0
 80 73  1  0
 75 76  1  0
 76 77  1  0
 77 78  2  0
 77 79  1  0
 81 80  1  0
 82 81  1  0
 81 84  1  6
 82 83  2  0
 88 82  1  0
 84 85  1  0
 85 86  1  1
 85 87  1  0
 89 88  1  0
 90 89  1  0
 89 92  1  1
 90 91  2  0
 97 90  1  0
 92 93  1  0
 93 94  1  6
 93 95  1  0
 96 98  2  0
 99 96  1  0
 96105  1  0
 97 99  1  0
 99100  1  0
 99104  1  6
100103  1  0
102101  1  0
101103  1  0
105106  1  0
106107  1  0
106109  1  6
107108  2  0
107116  1  0
109110  1  0
110111  2  0
110112  1  0
111113  1  0
112114  2  0
113115  2  0
114115  1  0
116117  1  0
117118  1  0
117120  1  1
118119  2  0
118127  1  0
120121  1  0
121122  1  0
122123  1  0
123124  1  0
124125  1  0
124126  2  0
127128  1  0
128129  1  0
128131  1  1
129130  1  0
129132  2  0
 31133  1  0
 61134  1  0
126135  1  0
M  CHG  2  12   1  21   1
M  END
$$$$
