
     RDKit          3D

135137  0  0  0  0  0  0  0  0999 V2000
  -32.9236   -5.3126   -3.3720 C   0  0  0  0  0  0  0  0  0  0  0  0
  -33.8512   -5.2201   -2.5682 O   0  0  0  0  0  0  0  0  0  0  0  0
  -32.8248   -4.4656   -4.6104 C   0  0  0  0  0  0  0  0  0  0  0  0
  -31.8712   -6.1645   -3.1898 N   0  0  0  0  0  0  0  0  0  0  0  0
  -30.7255   -6.2516   -4.1030 C   0  0  2  0  0  0  0  0  0  0  0  0
  -29.8293   -5.0450   -3.7506 C   0  0  0  0  0  0  0  0  0  0  0  0
  -29.6932   -4.0638   -4.4673 O   0  0  0  0  0  0  0  0  0  0  0  0
  -31.1607   -6.2368   -5.5701 C   0  0  0  0  0  0  0  0  0  0  0  0
  -30.5406   -7.3168   -6.4771 C   0  0  0  0  0  0  0  0  0  0  0  0
  -29.1053   -7.7498   -6.1400 C   0  0  0  0  0  0  0  0  0  0  0  0
  -28.6419   -9.1308   -6.5945 C   0  0  0  0  0  0  0  0  0  0  0  0
  -27.2278   -9.3674   -6.2621 N   0  0  0  0  0  4  0  0  0  0  0  0
  -29.2986   -5.1351   -2.4741 N   0  0  0  0  0  0  0  0  0  0  0  0
  -28.3573   -4.1137   -2.0046 C   0  0  2  0  0  0  0  0  0  0  0  0
  -26.8744   -4.5603   -2.1224 C   0  0  0  0  0  0  0  0  0  0  0  0
  -26.3043   -4.6622   -3.2098 O   0  0  0  0  0  0  0  0  0  0  0  0
  -28.6539   -3.7338   -0.5407 C   0  0  0  0  0  0  0  0  0  0  0  0
  -29.9676   -2.9658   -0.2994 C   0  0  0  0  0  0  0  0  0  0  0  0
  -29.8093   -1.9013    0.7907 C   0  0  0  0  0  0  0  0  0  0  0  0
  -31.1322   -1.2150    1.0926 C   0  0  0  0  0  0  0  0  0  0  0  0
  -30.9718   -0.2977    2.2281 N   0  0  0  0  0  4  0  0  0  0  0  0
  -26.2467   -4.8599   -0.9243 N   0  0  0  0  0  0  0  0  0  0  0  0
  -24.8373   -4.5170   -0.6951 C   0  0  2  0  0  0  0  0  0  0  0  0
  -24.4648   -4.6994    0.8112 C   0  0  0  0  0  0  0  0  0  0  0  0
  -25.2184   -4.3663    1.7195 O   0  0  0  0  0  0  0  0  0  0  0  0
  -24.5826   -3.0654   -1.1495 C   0  0  0  0  0  0  0  0  0  0  0  0
  -23.2075   -2.8469   -1.7863 C   0  0  0  0  0  0  0  0  0  0  0  0
  -23.0850   -1.4244   -2.3318 C   0  0  0  0  0  0  0  0  0  0  0  0
  -24.0962   -0.5766   -1.7317 N   0  0  0  0  0  0  0  0  0  0  0  0
  -24.1791    0.7516   -1.9715 C   0  0  0  0  0  0  0  0  0  0  0  0
  -23.7776    1.4118   -2.9933 N   0  0  0  0  0  0  0  0  0  0  0  0
  -24.7918    1.3964   -0.9636 N   0  0  0  0  0  0  0  0  0  0  0  0
  -23.2310   -5.2622    1.0443 N   0  0  0  0  0  0  0  0  0  0  0  0
  -22.9157   -6.7027    1.0831 C   0  0  2  0  0  0  0  0  0  0  0  0
  -21.4867   -7.2446    0.8429 C   0  0  0  0  0  0  0  0  0  0  0  0
  -21.3166   -8.3098    0.2417 O   0  0  0  0  0  0  0  0  0  0  0  0
  -23.9749   -7.6079    0.4157 C   0  0  0  0  0  0  0  0  0  0  0  0
  -24.0693   -9.0310    0.9070 C   0  0  0  0  0  0  0  0  0  0  0  0
  -24.7980   -9.3402    2.0672 C   0  0  0  0  0  0  0  0  0  0  0  0
  -23.4728  -10.0765    0.1886 C   0  0  0  0  0  0  0  0  0  0  0  0
  -24.8884  -10.6558    2.5214 C   0  0  0  0  0  0  0  0  0  0  0  0
  -23.5549  -11.3910    0.6494 C   0  0  0  0  0  0  0  0  0  0  0  0
  -24.2597  -11.6710    1.8097 C   0  0  0  0  0  0  0  0  0  0  0  0
  -24.3248  -12.9693    2.2140 O   0  0  0  0  0  0  0  0  0  0  0  0
  -20.4230   -6.4958    1.2635 N   0  0  0  0  0  0  0  0  0  0  0  0
  -19.5996   -6.9260    2.3962 C   0  0  2  0  0  0  0  0  0  0  0  0
  -19.0538   -5.7009    3.1546 C   0  0  0  0  0  0  0  0  0  0  0  0
  -19.4731   -4.5756    2.8987 O   0  0  0  0  0  0  0  0  0  0  0  0
  -18.5268   -7.9429    1.9754 C   0  0  0  0  0  0  0  0  0  0  0  0
  -18.8618   -8.5401    0.7175 O   0  0  0  0  0  0  0  0  0  0  0  0
  -18.1541   -5.9257    4.1762 N   0  0  0  0  0  0  0  0  0  0  0  0
  -17.9489   -4.9718    5.2871 C   0  0  2  0  0  0  0  0  0  0  0  0
  -16.6376   -5.2560    6.0753 C   0  0  0  0  0  0  0  0  0  0  0  0
  -16.4532   -6.3021    6.6818 O   0  0  0  0  0  0  0  0  0  0  0  0
  -19.1456   -5.0281    6.2551 C   0  0  0  0  0  0  0  0  0  0  0  0
  -19.4115   -3.7178    7.0115 C   0  0  0  0  0  0  0  0  0  0  0  0
  -20.6645   -3.7398    7.8890 C   0  0  0  0  0  0  0  0  0  0  0  0
  -20.9380   -2.4028    8.4028 N   0  0  0  0  0  0  0  0  0  0  0  0
  -22.0459   -2.1338    9.1273 C   0  0  0  0  0  0  0  0  0  0  0  0
  -21.9643   -0.9088    9.6950 N   0  0  0  0  0  0  0  0  0  0  0  0
  -23.0609   -2.9061    9.2669 N   0  0  0  0  0  0  0  0  0  0  0  0
  -17.4819   -2.7760    4.9899 C   0  0  0  0  0  0  0  0  0  0  0  0
  -15.7586   -4.1891    6.1532 N   0  0  0  0  0  0  0  0  0  0  0  0
  -18.4781   -2.1157    5.2819 O   0  0  0  0  0  0  0  0  0  0  0  0
  -16.1928   -2.8052    5.8865 C   0  0  1  0  0  0  0  0  0  0  0  0
  -15.1331   -1.9926    5.0611 C   0  0  0  0  0  0  0  0  0  0  0  0
  -12.7950   -3.1552    5.3325 C   0  0  0  0  0  0  0  0  0  0  0  0
  -12.9568   -3.8643    4.0175 C   0  0  0  0  0  0  0  0  0  0  0  0
  -13.6748   -1.9126    5.5438 C   0  0  0  0  0  0  0  0  0  0  0  0
  -16.4597   -2.0939    7.2288 C   0  0  0  0  0  0  0  0  0  0  0  0
  -17.3567   -3.4284    3.7765 N   0  0  0  0  0  0  0  0  0  0  0  0
  -18.2878   -3.1750    2.6860 C   0  0  2  0  0  0  0  0  0  0  0  0
  -17.9409   -4.1616    1.5552 C   0  0  0  0  0  0  0  0  0  0  0  0
  -16.8428   -4.1898    0.9974 O   0  0  0  0  0  0  0  0  0  0  0  0
  -18.1431   -1.7410    2.1398 C   0  0  0  0  0  0  0  0  0  0  0  0
  -19.4227   -1.2311    1.4807 C   0  0  0  0  0  0  0  0  0  0  0  0
  -20.5531   -2.2292    1.5835 C   0  0  0  0  0  0  0  0  0  0  0  0
  -20.9280   -2.9642    0.6758 O   0  0  0  0  0  0  0  0  0  0  0  0
  -21.1552   -2.2682    2.8078 N   0  0  0  0  0  0  0  0  0  0  0  0
  -18.9204   -5.0277    1.1388 N   0  0  0  0  0  0  0  0  0  0  0  0
  -19.6594   -5.8831    2.0805 C   0  0  2  0  0  0  0  0  0  0  0  0
  -19.1657   -7.3324    1.8302 C   0  0  0  0  0  0  0  0  0  0  0  0
  -18.5259   -7.6076    0.8078 O   0  0  0  0  0  0  0  0  0  0  0  0
  -21.1817   -5.7035    1.9787 C   0  0  0  0  0  0  0  0  0  0  0  0
  -21.8969   -5.0619    3.1889 C   0  0  1  0  0  0  0  0  0  0  0  0
  -22.8166   -6.0279    3.9310 C   0  0  0  0  0  0  0  0  0  0  0  0
  -20.8547   -4.5078    4.1661 C   0  0  0  0  0  0  0  0  0  0  0  0
  -19.4566   -8.2478    2.8225 N   0  0  0  0  0  0  0  0  0  0  0  0
  -18.6773   -9.4950    2.9795 C   0  0  2  0  0  0  0  0  0  0  0  0
  -17.2920   -9.0498    3.5185 C   0  0  0  0  0  0  0  0  0  0  0  0
  -17.2053   -8.0843    4.2839 O   0  0  0  0  0  0  0  0  0  0  0  0
  -18.6592  -10.4481    1.7687 C   0  0  0  0  0  0  0  0  0  0  0  0
  -19.9893  -10.6537    1.0013 C   0  0  1  0  0  0  0  0  0  0  0  0
  -19.8753  -11.7070   -0.1076 C   0  0  0  0  0  0  0  0  0  0  0  0
  -21.1837  -10.9681    1.8962 C   0  0  0  0  0  0  0  0  0  0  0  0
  -13.9867  -10.2850    2.1573 C   0  0  0  0  0  0  0  0  0  0  0  0
  -16.1953   -9.8363    3.1984 N   0  0  0  0  0  0  0  0  0  0  0  0
  -13.2682  -10.2309    1.1630 O   0  0  0  0  0  0  0  0  0  0  0  0
  -15.0121   -9.1747    2.5569 C   0  0  1  0  0  0  0  0  0  0  0  0
  -14.2863   -8.2150    3.5345 C   0  0  0  0  0  0  0  0  0  0  0  0
  -13.7368   -5.8552    2.6646 C   0  0  0  0  0  0  0  0  0  0  0  0
  -13.6120   -5.0340    3.9067 C   0  0  0  0  0  0  0  0  0  0  0  0
  -13.2251   -7.2830    2.9140 C   0  0  0  0  0  0  0  0  0  0  0  0
  -15.4522   -8.4791    1.2636 C   0  0  0  0  0  0  0  0  0  0  0  0
  -14.0687  -11.4605    2.8812 N   0  0  0  0  0  0  0  0  0  0  0  0
  -15.1828  -11.6048    3.8217 C   0  0  2  0  0  0  0  0  0  0  0  0
  -14.6821  -12.4755    5.0053 C   0  0  0  0  0  0  0  0  0  0  0  0
  -13.5046  -12.4786    5.3744 O   0  0  0  0  0  0  0  0  0  0  0  0
  -16.4056  -12.2849    3.1849 C   0  0  0  0  0  0  0  0  0  0  0  0
  -17.5684  -12.3394    4.1454 C   0  0  0  0  0  0  0  0  0  0  0  0
  -17.3696  -12.7795    5.4658 C   0  0  0  0  0  0  0  0  0  0  0  0
  -18.8407  -11.8993    3.7591 C   0  0  0  0  0  0  0  0  0  0  0  0
  -18.4217  -12.7560    6.3799 C   0  0  0  0  0  0  0  0  0  0  0  0
  -19.8891  -11.8732    4.6838 C   0  0  0  0  0  0  0  0  0  0  0  0
  -19.6732  -12.2903    5.9938 C   0  0  0  0  0  0  0  0  0  0  0  0
  -15.6497  -13.2618    5.6218 N   0  0  0  0  0  0  0  0  0  0  0  0
  -15.2605  -14.1080    6.7620 C   0  0  2  0  0  0  0  0  0  0  0  0
  -13.9152  -14.8156    6.4706 C   0  0  0  0  0  0  0  0  0  0  0  0
  -13.7036  -15.3899    5.4091 O   0  0  0  0  0  0  0  0  0  0  0  0
  -16.3341  -15.1644    7.0750 C   0  0  0  0  0  0  0  0  0  0  0  0
  -16.3349  -16.3156    6.0552 C   0  0  0  0  0  0  0  0  0  0  0  0
  -17.5896  -17.1813    6.1581 C   0  0  0  0  0  0  0  0  0  0  0  0
  -18.1112  -17.1665    7.5136 N   0  0  0  0  0  0  0  0  0  0  0  0
  -19.2067  -17.8774    7.8700 C   0  0  0  0  0  0  0  0  0  0  0  0
  -19.1770  -18.2150    9.1740 N   0  0  0  0  0  0  0  0  0  0  0  0
  -20.1753  -18.1700    7.0807 N   0  0  0  0  0  0  0  0  0  0  0  0
  -12.9872  -14.7301    7.4792 N   0  0  0  0  0  0  0  0  0  0  0  0
  -11.8407  -15.6206    7.5559 C   0  0  2  0  0  0  0  0  0  0  0  0
  -11.0214  -15.3903    8.8467 C   0  0  0  0  0  0  0  0  0  0  0  0
  -11.4951  -14.4092    9.6425 O   0  0  0  0  0  0  0  0  0  0  0  0
  -11.0203  -15.5241    6.2748 C   0  0  0  0  0  0  0  0  0  0  0  0
   -9.9958  -15.9838    9.1572 O   0  0  0  0  0  0  0  0  0  0  0  0
  -23.3369    0.7804   -3.6630 H   0  0  0  0  0  0  0  0  0  0  0  0
  -22.9549   -3.6850    8.6152 H   0  0  0  0  0  0  0  0  0  0  0  0
  -20.5153  -19.1089    7.2903 H   0  0  0  0  0  0  0  0  0  0  0  0
  1  2  2  0
  1  3  1  0
  4  1  1  0
  5  4  1  0
  6  5  1  0
  5  8  1  6
  6  7  2  0
 13  6  1  0
  8  9  1  0
  9 10  1  0
 10 11  1  0
 11 12  1  0
 14 13  1  0
 15 14  1  0
 14 17  1  1
 15 16  2  0
 22 15  1  0
 17 18  1  0
 18 19  1  0
 19 20  1  0
 20 21  1  0
 23 22  1  0
 24 23  1  0
 23 26  1  1
 24 25  2  0
 33 24  1  0
 26 27  1  0
 27 28  1  0
 28 29  1  0
 29 30  1  0
 30 31  2  0
 30 32  1  0
 34 33  1  0
 35 34  1  0
 34 37  1  6
 35 36  2  0
 45 35  1  0
 37 38  1  0
 38 39  2  0
 38 40  1  0
 39 41  1  0
 40 42  2  0
 41 43  2  0
 42 43  1  0
 43 44  1  0
 46 45  1  0
 47 46  1  0
 46 49  1  6
 47 48  2  0
 51 47  1  0
 49 50  1  0
 52 51  1  0
 53 52  1  0
 52 55  1  1
 53 54  2  0
 63 53  1  0
 55 56  1  0
 56 57  1  0
 57 58  1  0
 58 59  1  0
 59 60  1  0
 59 61  2  0
 62 64  2  0
 62 65  1  0
 71 62  1  0
 65 63  1  0
 65 66  1  0
 65 70  1  1
 66 69  1  0
 67 68  1  0
 69 67  1  0
 68102  2  0
 72 71  1  0
 73 72  1  0
 72 75  1  6
 73 74  2  0
 80 73  1  0
 75 76  1  0
 76 77  1  0
 77 78  2  0
 77 79  1  0
 81 80  1  0
 82 81  1  0
 81 84  1  6
 82 83  2  0
 88 82  1  0
 84 85  1  0
 85 86  1  1
 85 87  1  0
 89 88  1  0
 90 89  1  0
 89 92  1  6
 90 91  2  0
 97 90  1  0
 92 93  1  0
 93 94  1  6
 93 95  1  0
 96 98  2  0
 99 96  1  0
 96105  1  0
 97 99  1  0
 99100  1  0
 99104  1  6
100103  1  0
102101  1  0
101103  1  0
105106  1  0
106107  1  0
106109  1  6
107108  2  0
107116  1  0
109110  1  0
110111  2  0
110112  1  0
111113  1  0
112114  2  0
113115  2  0
114115  1  0
116117  1  0
117118  1  0
117120  1  6
118119  2  0
118127  1  0
120121  1  0
121122  1  0
122123  1  0
123124  1  0
124125  1  0
124126  2  0
127128  1  0
128129  1  0
128131  1  6
129130  1  0
129132  2  0
 31133  1  0
 61134  1  0
126135  1  0
M  CHG  2  12   1  21   1
M  END
$$$$
