
     RDKit          3D

135137  0  0  0  0  0  0  0  0999 V2000
  -30.6084   -6.1722   -2.9036 C   0  0  0  0  0  0  0  0  0  0  0  0
  -30.9743   -5.9406   -1.7513 O   0  0  0  0  0  0  0  0  0  0  0  0
  -31.3846   -5.7324   -4.1138 C   0  0  0  0  0  0  0  0  0  0  0  0
  -29.4366   -6.8129   -3.1912 N   0  0  0  0  0  0  0  0  0  0  0  0
  -28.6264   -7.5181   -2.1909 C   0  0  2  0  0  0  0  0  0  0  0  0
  -27.2066   -6.9269   -2.3245 C   0  0  0  0  0  0  0  0  0  0  0  0
  -26.5449   -6.9664   -3.3519 O   0  0  0  0  0  0  0  0  0  0  0  0
  -28.6421   -9.0330   -2.4067 C   0  0  0  0  0  0  0  0  0  0  0  0
  -27.6995   -9.8599   -1.5114 C   0  0  0  0  0  0  0  0  0  0  0  0
  -27.4264   -9.3000   -0.1068 C   0  0  0  0  0  0  0  0  0  0  0  0
  -27.4491  -10.2672    1.0733 C   0  0  0  0  0  0  0  0  0  0  0  0
  -27.1095   -9.5929    2.3367 N   0  0  0  0  0  4  0  0  0  0  0  0
  -26.8148   -6.2304   -1.1927 N   0  0  0  0  0  0  0  0  0  0  0  0
  -25.8778   -5.1096   -1.3171 C   0  0  2  0  0  0  0  0  0  0  0  0
  -24.9750   -4.9365   -0.0653 C   0  0  0  0  0  0  0  0  0  0  0  0
  -25.3618   -4.3497    0.9466 O   0  0  0  0  0  0  0  0  0  0  0  0
  -26.6367   -3.7935   -1.5765 C   0  0  0  0  0  0  0  0  0  0  0  0
  -26.0050   -2.5243   -0.9731 C   0  0  0  0  0  0  0  0  0  0  0  0
  -26.8263   -1.2730   -1.2993 C   0  0  0  0  0  0  0  0  0  0  0  0
  -26.0757   -0.0039   -0.9278 C   0  0  0  0  0  0  0  0  0  0  0  0
  -26.7568    1.1651   -1.4987 N   0  0  0  0  0  4  0  0  0  0  0  0
  -23.6988   -5.4643   -0.1749 N   0  0  0  0  0  0  0  0  0  0  0  0
  -22.6086   -5.0118    0.6987 C   0  0  2  0  0  0  0  0  0  0  0  0
  -23.1287   -4.7842    2.1543 C   0  0  0  0  0  0  0  0  0  0  0  0
  -22.7341   -3.8591    2.8560 O   0  0  0  0  0  0  0  0  0  0  0  0
  -21.9982   -3.7159    0.1272 C   0  0  0  0  0  0  0  0  0  0  0  0
  -20.4678   -3.6837    0.1608 C   0  0  0  0  0  0  0  0  0  0  0  0
  -19.9667   -3.2790    1.5468 C   0  0  0  0  0  0  0  0  0  0  0  0
  -20.9791   -2.4974    2.2292 N   0  0  0  0  0  0  0  0  0  0  0  0
  -20.7411   -1.8314    3.3817 C   0  0  0  0  0  0  0  0  0  0  0  0
  -19.6187   -1.5040    3.9053 N   0  0  0  0  0  0  0  0  0  0  0  0
  -21.8858   -1.4861    3.9960 N   0  0  0  0  0  0  0  0  0  0  0  0
  -24.0625   -5.6957    2.5907 N   0  0  0  0  0  0  0  0  0  0  0  0
  -24.0433   -6.4289    3.8706 C   0  0  2  0  0  0  0  0  0  0  0  0
  -23.1313   -6.0139    5.0493 C   0  0  0  0  0  0  0  0  0  0  0  0
  -23.6113   -5.4639    6.0454 O   0  0  0  0  0  0  0  0  0  0  0  0
  -24.1065   -7.9659    3.7286 C   0  0  0  0  0  0  0  0  0  0  0  0
  -22.8013   -8.6888    3.5065 C   0  0  0  0  0  0  0  0  0  0  0  0
  -22.0981   -8.5408    2.2997 C   0  0  0  0  0  0  0  0  0  0  0  0
  -22.2422   -9.4823    4.5179 C   0  0  0  0  0  0  0  0  0  0  0  0
  -20.8899   -9.2064    2.0937 C   0  0  0  0  0  0  0  0  0  0  0  0
  -21.0388  -10.1562    4.3071 C   0  0  0  0  0  0  0  0  0  0  0  0
  -20.3728  -10.0146    3.0997 C   0  0  0  0  0  0  0  0  0  0  0  0
  -19.1953  -10.6796    2.9435 O   0  0  0  0  0  0  0  0  0  0  0  0
  -21.7994   -6.3152    4.9844 N   0  0  0  0  0  0  0  0  0  0  0  0
  -20.8808   -5.9022    6.0483 C   0  0  2  0  0  0  0  0  0  0  0  0
  -19.4308   -5.8934    5.5273 C   0  0  0  0  0  0  0  0  0  0  0  0
  -18.8157   -6.9466    5.3869 O   0  0  0  0  0  0  0  0  0  0  0  0
  -21.0885   -6.7145    7.3363 C   0  0  0  0  0  0  0  0  0  0  0  0
  -20.6554   -8.0676    7.1563 O   0  0  0  0  0  0  0  0  0  0  0  0
  -18.8915   -4.6813    5.1480 N   0  0  0  0  0  0  0  0  0  0  0  0
  -17.4441   -4.4857    4.9177 C   0  0  2  0  0  0  0  0  0  0  0  0
  -16.5742   -5.4577    5.7661 C   0  0  0  0  0  0  0  0  0  0  0  0
  -16.9525   -5.9058    6.8396 O   0  0  0  0  0  0  0  0  0  0  0  0
  -17.0517   -3.0333    5.2481 C   0  0  0  0  0  0  0  0  0  0  0  0
  -17.6931   -1.9794    4.3328 C   0  0  0  0  0  0  0  0  0  0  0  0
  -16.9188   -1.7117    3.0408 C   0  0  0  0  0  0  0  0  0  0  0  0
  -17.6118   -0.7076    2.2421 N   0  0  0  0  0  0  0  0  0  0  0  0
  -17.1453   -0.3131    1.0373 C   0  0  0  0  0  0  0  0  0  0  0  0
  -17.5156    0.9602    0.7710 N   0  0  0  0  0  0  0  0  0  0  0  0
  -16.4337   -1.0194    0.2368 N   0  0  0  0  0  0  0  0  0  0  0  0
  -14.9547   -4.0895    3.3577 C   0  0  0  0  0  0  0  0  0  0  0  0
  -15.2927   -5.6673    5.2855 N   0  0  0  0  0  0  0  0  0  0  0  0
  -15.1701   -2.9086    3.0882 O   0  0  0  0  0  0  0  0  0  0  0  0
  -14.4651   -4.5589    4.7742 C   0  0  1  0  0  0  0  0  0  0  0  0
  -12.9715   -4.9831    4.5427 C   0  0  0  0  0  0  0  0  0  0  0  0
  -12.4773   -7.1185    5.9878 C   0  0  0  0  0  0  0  0  0  0  0  0
  -12.6896   -8.0135    4.7995 C   0  0  0  0  0  0  0  0  0  0  0  0
  -12.1717   -5.6441    5.6782 C   0  0  0  0  0  0  0  0  0  0  0  0
  -14.5211   -3.3861    5.7744 C   0  0  0  0  0  0  0  0  0  0  0  0
  -14.9817   -5.0843    2.3967 N   0  0  0  0  0  0  0  0  0  0  0  0
  -15.0295   -4.7593    0.9781 C   0  0  2  0  0  0  0  0  0  0  0  0
  -15.1907   -6.0869    0.2142 C   0  0  0  0  0  0  0  0  0  0  0  0
  -14.3699   -7.0037    0.2734 O   0  0  0  0  0  0  0  0  0  0  0  0
  -13.7261   -4.0842    0.5078 C   0  0  0  0  0  0  0  0  0  0  0  0
  -12.5397   -5.0454    0.4897 C   0  0  0  0  0  0  0  0  0  0  0  0
  -12.9419   -6.4539    0.8624 C   0  0  0  0  0  0  0  0  0  0  0  0
  -12.4694   -7.0981    1.7932 O   0  0  0  0  0  0  0  0  0  0  0  0
  -13.9132   -6.9875    0.0656 N   0  0  0  0  0  0  0  0  0  0  0  0
  -16.2928   -6.2326   -0.5904 N   0  0  0  0  0  0  0  0  0  0  0  0
  -17.6578   -5.9910   -0.0974 C   0  0  2  0  0  0  0  0  0  0  0  0
  -18.3380   -7.3820   -0.0025 C   0  0  0  0  0  0  0  0  0  0  0  0
  -17.8344   -8.3641   -0.5613 O   0  0  0  0  0  0  0  0  0  0  0  0
  -18.4241   -4.9650   -0.9460 C   0  0  0  0  0  0  0  0  0  0  0  0
  -19.9197   -4.7569   -0.6176 C   0  0  1  0  0  0  0  0  0  0  0  0
  -20.7192   -6.0566   -0.5843 C   0  0  0  0  0  0  0  0  0  0  0  0
  -20.0542   -4.0481    0.7343 C   0  0  0  0  0  0  0  0  0  0  0  0
  -19.4890   -7.4393    0.7584 N   0  0  0  0  0  0  0  0  0  0  0  0
  -19.9725   -8.7111    1.3384 C   0  0  2  0  0  0  0  0  0  0  0  0
  -18.9679   -9.0561    2.4696 C   0  0  0  0  0  0  0  0  0  0  0  0
  -18.4452   -8.1536    3.1314 O   0  0  0  0  0  0  0  0  0  0  0  0
  -20.2853   -9.8433    0.3410 C   0  0  0  0  0  0  0  0  0  0  0  0
  -21.3614  -10.8798    0.7511 C   0  0  1  0  0  0  0  0  0  0  0  0
  -20.9128  -11.7670    1.9189 C   0  0  0  0  0  0  0  0  0  0  0  0
  -22.7280  -10.2738    1.0535 C   0  0  0  0  0  0  0  0  0  0  0  0
  -17.4349  -12.4758    2.9782 C   0  0  0  0  0  0  0  0  0  0  0  0
  -18.7747  -10.3962    2.7703 N   0  0  0  0  0  0  0  0  0  0  0  0
  -16.6257  -13.2674    2.5026 O   0  0  0  0  0  0  0  0  0  0  0  0
  -17.3725  -10.9282    2.7665 C   0  0  1  0  0  0  0  0  0  0  0  0
  -16.5294  -10.3431    3.9285 C   0  0  0  0  0  0  0  0  0  0  0  0
  -14.2035   -9.4139    3.3334 C   0  0  0  0  0  0  0  0  0  0  0  0
  -13.9095   -8.4479    4.4348 C   0  0  0  0  0  0  0  0  0  0  0  0
  -15.0106  -10.6070    3.8699 C   0  0  0  0  0  0  0  0  0  0  0  0
  -16.7356  -10.6849    1.3935 C   0  0  0  0  0  0  0  0  0  0  0  0
  -18.5895  -12.9499    3.5737 N   0  0  0  0  0  0  0  0  0  0  0  0
  -19.5109  -11.9677    4.1506 C   0  0  2  0  0  0  0  0  0  0  0  0
  -19.3414  -12.0209    5.6927 C   0  0  0  0  0  0  0  0  0  0  0  0
  -19.7158  -12.9835    6.3680 O   0  0  0  0  0  0  0  0  0  0  0  0
  -20.9786  -12.2616    3.8000 C   0  0  0  0  0  0  0  0  0  0  0  0
  -21.7716  -10.9882    3.6349 C   0  0  0  0  0  0  0  0  0  0  0  0
  -22.4154  -10.4120    4.7441 C   0  0  0  0  0  0  0  0  0  0  0  0
  -21.8285  -10.3323    2.3986 C   0  0  0  0  0  0  0  0  0  0  0  0
  -23.0816   -9.1944    4.6151 C   0  0  0  0  0  0  0  0  0  0  0  0
  -22.4935   -9.1083    2.2793 C   0  0  0  0  0  0  0  0  0  0  0  0
  -23.1075   -8.5377    3.3902 C   0  0  0  0  0  0  0  0  0  0  0  0
  -18.7437  -10.9046    6.2685 N   0  0  0  0  0  0  0  0  0  0  0  0
  -18.7025  -10.7954    7.7361 C   0  0  2  0  0  0  0  0  0  0  0  0
  -20.1152  -11.0113    8.3302 C   0  0  0  0  0  0  0  0  0  0  0  0
  -20.3947  -12.0068    8.9876 O   0  0  0  0  0  0  0  0  0  0  0  0
  -18.1643   -9.4264    8.1866 C   0  0  0  0  0  0  0  0  0  0  0  0
  -17.0347   -8.9154    7.2766 C   0  0  0  0  0  0  0  0  0  0  0  0
  -16.2861   -7.7327    7.8892 C   0  0  0  0  0  0  0  0  0  0  0  0
  -17.2144   -6.6845    8.2753 N   0  0  0  0  0  0  0  0  0  0  0  0
  -16.7932   -5.5022    8.7824 C   0  0  0  0  0  0  0  0  0  0  0  0
  -15.4651   -5.5043    9.0096 N   0  0  0  0  0  0  0  0  0  0  0  0
  -17.5499   -4.4874    8.9928 N   0  0  0  0  0  0  0  0  0  0  0  0
  -21.0088   -9.9996    8.0778 N   0  0  0  0  0  0  0  0  0  0  0  0
  -22.2792   -9.8945    8.7767 C   0  0  2  0  0  0  0  0  0  0  0  0
  -23.0782   -8.6489    8.3293 C   0  0  0  0  0  0  0  0  0  0  0  0
  -22.4501   -7.8795    7.4160 O   0  0  0  0  0  0  0  0  0  0  0  0
  -22.0536   -9.9792   10.2819 C   0  0  0  0  0  0  0  0  0  0  0  0
  -24.1732   -8.3095    8.7609 O   0  0  0  0  0  0  0  0  0  0  0  0
  -18.9388   -1.3035    3.1712 H   0  0  0  0  0  0  0  0  0  0  0  0
  -16.5588   -2.0011    0.4884 H   0  0  0  0  0  0  0  0  0  0  0  0
  -18.4367   -4.6152    8.5045 H   0  0  0  0  0  0  0  0  0  0  0  0
  1  2  2  0
  1  3  1  0
  4  1  1  0
  5  4  1  0
  6  5  1  0
  5  8  1  6
  6  7  2  0
 13  6  1  0
  8  9  1  0
  9 10  1  0
 10 11  1  0
 11 12  1  0
 14 13  1  0
 15 14  1  0
 14 17  1  1
 15 16  2  0
 22 15  1  0
 17 18  1  0
 18 19  1  0
 19 20  1  0
 20 21  1  0
 23 22  1  0
 24 23  1  0
 23 26  1  6
 24 25  2  0
 33 24  1  0
 26 27  1  0
 27 28  1  0
 28 29  1  0
 29 30  1  0
 30 31  2  0
 30 32  1  0
 34 33  1  0
 35 34  1  0
 34 37  1  6
 35 36  2  0
 45 35  1  0
 37 38  1  0
 38 39  2  0
 38 40  1  0
 39 41  1  0
 40 42  2  0
 41 43  2  0
 42 43  1  0
 43 44  1  0
 46 45  1  0
 47 46  1  0
 46 49  1  1
 47 48  2  0
 51 47  1  0
 49 50  1  0
 52 51  1  0
 53 52  1  0
 52 55  1  1
 53 54  2  0
 63 53  1  0
 55 56  1  0
 56 57  1  0
 57 58  1  0
 58 59  1  0
 59 60  1  0
 59 61  2  0
 62 64  2  0
 62 65  1  0
 71 62  1  0
 65 63  1  0
 65 66  1  0
 65 70  1  1
 66 69  1  0
 67 68  1  0
 69 67  1  0
 68102  2  0
 72 71  1  0
 73 72  1  0
 72 75  1  6
 73 74  2  0
 80 73  1  0
 75 76  1  0
 76 77  1  0
 77 78  2  0
 77 79  1  0
 81 80  1  0
 82 81  1  0
 81 84  1  6
 82 83  2  0
 88 82  1  0
 84 85  1  0
 85 86  1  1
 85 87  1  0
 89 88  1  0
 90 89  1  0
 89 92  1  6
 90 91  2  0
 97 90  1  0
 92 93  1  0
 93 94  1  1
 93 95  1  0
 96 98  2  0
 99 96  1  0
 96105  1  0
 97 99  1  0
 99100  1  0
 99104  1  6
100103  1  0
102101  1  0
101103  1  0
105106  1  0
106107  1  0
106109  1  1
107108  2  0
107116  1  0
109110  1  0
110111  2  0
110112  1  0
111113  1  0
112114  2  0
113115  2  0
114115  1  0
116117  1  0
117118  1  0
117120  1  6
118119  2  0
118127  1  0
120121  1  0
121122  1  0
122123  1  0
123124  1  0
124125  1  0
124126  2  0
127128  1  0
128129  1  0
128131  1  1
129130  1  0
129132  2  0
 31133  1  0
 61134  1  0
126135  1  0
M  CHG  2  12   1  21   1
M  END
$$$$
