
     RDKit          3D

135137  0  0  0  0  0  0  0  0999 V2000
  -21.4167  -16.4025   11.1367 C   0  0  0  0  0  0  0  0  0  0  0  0
  -21.2297  -17.4068   11.8236 O   0  0  0  0  0  0  0  0  0  0  0  0
  -21.6845  -16.4593    9.6583 C   0  0  0  0  0  0  0  0  0  0  0  0
  -21.4431  -15.1423   11.6635 N   0  0  0  0  0  0  0  0  0  0  0  0
  -21.7070  -13.9339   10.8733 C   0  0  2  0  0  0  0  0  0  0  0  0
  -20.3165  -13.3509   10.5418 C   0  0  0  0  0  0  0  0  0  0  0  0
  -19.5682  -12.8562   11.3727 O   0  0  0  0  0  0  0  0  0  0  0  0
  -22.5846  -12.9352   11.6310 C   0  0  0  0  0  0  0  0  0  0  0  0
  -22.8847  -11.6066   10.9108 C   0  0  0  0  0  0  0  0  0  0  0  0
  -23.7676  -10.6033   11.6692 C   0  0  0  0  0  0  0  0  0  0  0  0
  -23.0827   -9.5341   12.5154 C   0  0  0  0  0  0  0  0  0  0  0  0
  -21.6735   -9.3548   12.1304 N   0  0  0  0  0  4  0  0  0  0  0  0
  -19.9528  -13.5674    9.2227 N   0  0  0  0  0  0  0  0  0  0  0  0
  -18.6998  -13.0026    8.7121 C   0  0  2  0  0  0  0  0  0  0  0  0
  -18.8158  -11.4932    8.3651 C   0  0  0  0  0  0  0  0  0  0  0  0
  -19.8617  -10.9948    7.9460 O   0  0  0  0  0  0  0  0  0  0  0  0
  -18.2268  -13.7714    7.4629 C   0  0  0  0  0  0  0  0  0  0  0  0
  -18.3397  -15.3063    7.5366 C   0  0  0  0  0  0  0  0  0  0  0  0
  -17.5654  -15.8744    8.7301 C   0  0  0  0  0  0  0  0  0  0  0  0
  -16.0634  -15.7774    8.5142 C   0  0  0  0  0  0  0  0  0  0  0  0
  -15.7665  -14.7299    7.5288 N   0  0  0  0  0  4  0  0  0  0  0  0
  -17.6571  -10.7532    8.5351 N   0  0  0  0  0  0  0  0  0  0  0  0
  -17.3867   -9.5616    7.7206 C   0  0  2  0  0  0  0  0  0  0  0  0
  -17.8423   -9.7900    6.2436 C   0  0  0  0  0  0  0  0  0  0  0  0
  -18.8411  -10.4414    5.9573 O   0  0  0  0  0  0  0  0  0  0  0  0
  -15.8822   -9.2285    7.7834 C   0  0  0  0  0  0  0  0  0  0  0  0
  -15.4417   -8.5948    9.1058 C   0  0  0  0  0  0  0  0  0  0  0  0
  -16.1251   -7.2433    9.3108 C   0  0  0  0  0  0  0  0  0  0  0  0
  -15.4656   -6.2301    8.5108 N   0  0  0  0  0  0  0  0  0  0  0  0
  -16.1202   -5.4640    7.6090 C   0  0  0  0  0  0  0  0  0  0  0  0
  -15.8417   -5.2563    6.3760 N   0  0  0  0  0  0  0  0  0  0  0  0
  -17.2077   -4.8879    8.1498 N   0  0  0  0  0  0  0  0  0  0  0  0
  -17.0429   -9.2057    5.2882 N   0  0  0  0  0  0  0  0  0  0  0  0
  -17.3650   -9.0328    3.8592 C   0  0  2  0  0  0  0  0  0  0  0  0
  -16.3745   -8.3919    2.8584 C   0  0  0  0  0  0  0  0  0  0  0  0
  -15.1565   -8.4978    3.0323 O   0  0  0  0  0  0  0  0  0  0  0  0
  -18.8138   -8.5746    3.5806 C   0  0  0  0  0  0  0  0  0  0  0  0
  -19.5256   -9.2186    2.4170 C   0  0  0  0  0  0  0  0  0  0  0  0
  -19.0533  -10.4214    1.8666 C   0  0  0  0  0  0  0  0  0  0  0  0
  -20.6982   -8.6549    1.8952 C   0  0  0  0  0  0  0  0  0  0  0  0
  -19.7116  -11.0196    0.7923 C   0  0  0  0  0  0  0  0  0  0  0  0
  -21.3503   -9.2482    0.8137 C   0  0  0  0  0  0  0  0  0  0  0  0
  -20.8538  -10.4230    0.2707 C   0  0  0  0  0  0  0  0  0  0  0  0
  -21.5302  -10.9737   -0.7744 O   0  0  0  0  0  0  0  0  0  0  0  0
  -16.8759   -7.7547    1.7577 N   0  0  0  0  0  0  0  0  0  0  0  0
  -15.9911   -7.2987    0.6828 C   0  0  2  0  0  0  0  0  0  0  0  0
  -16.8173   -6.9013   -0.5555 C   0  0  0  0  0  0  0  0  0  0  0  0
  -17.8593   -7.4934   -0.8221 O   0  0  0  0  0  0  0  0  0  0  0  0
  -14.8637   -8.3038    0.3991 C   0  0  0  0  0  0  0  0  0  0  0  0
  -13.6297   -7.8543    0.9703 O   0  0  0  0  0  0  0  0  0  0  0  0
  -16.3915   -5.8139   -1.2904 N   0  0  0  0  0  0  0  0  0  0  0  0
  -17.3198   -4.7923   -1.8202 C   0  0  2  0  0  0  0  0  0  0  0  0
  -17.1653   -3.4225   -1.0982 C   0  0  0  0  0  0  0  0  0  0  0  0
  -17.2273   -2.3575   -1.6966 O   0  0  0  0  0  0  0  0  0  0  0  0
  -18.7738   -5.2801   -1.6781 C   0  0  0  0  0  0  0  0  0  0  0  0
  -19.7574   -4.6388   -2.6686 C   0  0  0  0  0  0  0  0  0  0  0  0
  -20.6571   -3.5635   -2.0564 C   0  0  0  0  0  0  0  0  0  0  0  0
  -20.0022   -2.9633   -0.9000 N   0  0  0  0  0  0  0  0  0  0  0  0
  -20.3865   -1.7649   -0.4094 C   0  0  0  0  0  0  0  0  0  0  0  0
  -19.3123   -1.0182   -0.0661 N   0  0  0  0  0  0  0  0  0  0  0  0
  -21.5956   -1.3540   -0.2857 N   0  0  0  0  0  0  0  0  0  0  0  0
  -15.7086   -5.6350    0.9751 C   0  0  0  0  0  0  0  0  0  0  0  0
  -16.8173   -3.5020    0.2396 N   0  0  0  0  0  0  0  0  0  0  0  0
  -14.9552   -6.4878    0.5072 O   0  0  0  0  0  0  0  0  0  0  0  0
  -15.5427   -4.1024    0.6751 C   0  0  1  0  0  0  0  0  0  0  0  0
  -15.0280   -3.4998    2.0303 C   0  0  0  0  0  0  0  0  0  0  0  0
  -16.1632   -1.1597    2.3869 C   0  0  0  0  0  0  0  0  0  0  0  0
  -17.1970   -1.7616    3.2963 C   0  0  0  0  0  0  0  0  0  0  0  0
  -14.8766   -1.9775    2.1903 C   0  0  0  0  0  0  0  0  0  0  0  0
  -14.4825   -3.8849   -0.4239 C   0  0  0  0  0  0  0  0  0  0  0  0
  -16.6715   -5.9377    1.9211 N   0  0  0  0  0  0  0  0  0  0  0  0
  -16.6887   -7.2307    2.5905 C   0  0  2  0  0  0  0  0  0  0  0  0
  -17.9590   -7.2739    3.4604 C   0  0  0  0  0  0  0  0  0  0  0  0
  -18.1812   -6.4740    4.3707 O   0  0  0  0  0  0  0  0  0  0  0  0
  -15.4647   -7.4084    3.5103 C   0  0  0  0  0  0  0  0  0  0  0  0
  -15.7410   -8.3486    4.6814 C   0  0  0  0  0  0  0  0  0  0  0  0
  -16.3934   -7.6350    5.8431 C   0  0  0  0  0  0  0  0  0  0  0  0
  -16.1048   -6.5066    6.2281 O   0  0  0  0  0  0  0  0  0  0  0  0
  -17.3736   -8.3550    6.4625 N   0  0  0  0  0  0  0  0  0  0  0  0
  -18.8668   -8.2740    3.2182 N   0  0  0  0  0  0  0  0  0  0  0  0
  -19.4034   -8.5336    1.8732 C   0  0  2  0  0  0  0  0  0  0  0  0
  -20.8842   -8.0717    1.8996 C   0  0  0  0  0  0  0  0  0  0  0  0
  -21.4526   -7.8541    2.9766 O   0  0  0  0  0  0  0  0  0  0  0  0
  -19.1989   -9.9875    1.4212 C   0  0  0  0  0  0  0  0  0  0  0  0
  -19.3752  -10.2877   -0.0843 C   0  0  1  0  0  0  0  0  0  0  0  0
  -20.8295  -10.5069   -0.4921 C   0  0  0  0  0  0  0  0  0  0  0  0
  -18.7888   -9.1370   -0.9090 C   0  0  0  0  0  0  0  0  0  0  0  0
  -21.4823   -7.8948    0.6675 N   0  0  0  0  0  0  0  0  0  0  0  0
  -22.6689   -7.0283    0.4988 C   0  0  2  0  0  0  0  0  0  0  0  0
  -22.1483   -5.5776    0.6780 C   0  0  0  0  0  0  0  0  0  0  0  0
  -21.0148   -5.2734    0.2929 O   0  0  0  0  0  0  0  0  0  0  0  0
  -23.9160   -7.4074    1.3210 C   0  0  0  0  0  0  0  0  0  0  0  0
  -23.6872   -8.0003    2.7340 C   0  0  1  0  0  0  0  0  0  0  0  0
  -24.5875   -9.2083    3.0210 C   0  0  0  0  0  0  0  0  0  0  0  0
  -22.2339   -8.3515    3.0352 C   0  0  0  0  0  0  0  0  0  0  0  0
  -23.8362   -2.9662    2.8310 C   0  0  0  0  0  0  0  0  0  0  0  0
  -23.0346   -4.6341    1.1761 N   0  0  0  0  0  0  0  0  0  0  0  0
  -23.9414   -2.4610    3.9452 O   0  0  0  0  0  0  0  0  0  0  0  0
  -22.6197   -3.8367    2.3766 C   0  0  1  0  0  0  0  0  0  0  0  0
  -21.4591   -2.8621    2.0501 C   0  0  0  0  0  0  0  0  0  0  0  0
  -19.4492   -2.8565    3.6587 C   0  0  0  0  0  0  0  0  0  0  0  0
  -18.3260   -2.3245    2.8292 C   0  0  0  0  0  0  0  0  0  0  0  0
  -20.7738   -2.1883    3.2569 C   0  0  0  0  0  0  0  0  0  0  0  0
  -22.2864   -4.7865    3.5328 C   0  0  0  0  0  0  0  0  0  0  0  0
  -24.9171   -2.9560    1.9684 N   0  0  0  0  0  0  0  0  0  0  0  0
  -25.0569   -4.0795    1.0385 C   0  0  2  0  0  0  0  0  0  0  0  0
  -26.4095   -3.9037    0.2972 C   0  0  0  0  0  0  0  0  0  0  0  0
  -26.8818   -2.7946    0.0337 O   0  0  0  0  0  0  0  0  0  0  0  0
  -25.0542   -5.4396    1.7549 C   0  0  0  0  0  0  0  0  0  0  0  0
  -25.1646   -6.5802    0.7728 C   0  0  0  0  0  0  0  0  0  0  0  0
  -26.2319   -7.4904    0.8694 C   0  0  0  0  0  0  0  0  0  0  0  0
  -24.2487   -6.7146   -0.2783 C   0  0  0  0  0  0  0  0  0  0  0  0
  -26.3843   -8.4975   -0.0821 C   0  0  0  0  0  0  0  0  0  0  0  0
  -24.4124   -7.7238   -1.2320 C   0  0  0  0  0  0  0  0  0  0  0  0
  -25.4860   -8.6042   -1.1375 C   0  0  0  0  0  0  0  0  0  0  0  0
  -27.0621   -5.0832   -0.0462 N   0  0  0  0  0  0  0  0  0  0  0  0
  -28.4854   -5.0281   -0.4183 C   0  0  2  0  0  0  0  0  0  0  0  0
  -29.0666   -6.4581   -0.5306 C   0  0  0  0  0  0  0  0  0  0  0  0
  -29.4145   -6.9318   -1.6057 O   0  0  0  0  0  0  0  0  0  0  0  0
  -28.6936   -4.2876   -1.7506 C   0  0  0  0  0  0  0  0  0  0  0  0
  -30.1820   -4.1324   -2.1055 C   0  0  0  0  0  0  0  0  0  0  0  0
  -30.3895   -3.3983   -3.4293 C   0  0  0  0  0  0  0  0  0  0  0  0
  -31.4249   -2.3883   -3.2971 N   0  0  0  0  0  0  0  0  0  0  0  0
  -31.1355   -1.0684   -3.2168 C   0  0  0  0  0  0  0  0  0  0  0  0
  -30.3197   -0.6773   -4.2152 N   0  0  0  0  0  0  0  0  0  0  0  0
  -31.6016   -0.2722   -2.3249 N   0  0  0  0  0  0  0  0  0  0  0  0
  -29.1403   -7.1464    0.6554 N   0  0  0  0  0  0  0  0  0  0  0  0
  -30.2238   -8.0696    0.9503 C   0  0  2  0  0  0  0  0  0  0  0  0
  -31.0181   -8.4463   -0.3216 C   0  0  0  0  0  0  0  0  0  0  0  0
  -32.1501   -9.1426   -0.0887 O   0  0  0  0  0  0  0  0  0  0  0  0
  -31.0860   -7.5164    2.0790 C   0  0  0  0  0  0  0  0  0  0  0  0
  -30.6802   -8.2019   -1.4734 O   0  0  0  0  0  0  0  0  0  0  0  0
  -15.1308   -5.9190    6.0646 H   0  0  0  0  0  0  0  0  0  0  0  0
  -22.0997   -1.5998   -1.1390 H   0  0  0  0  0  0  0  0  0  0  0  0
  -32.4253   -0.6896   -1.8909 H   0  0  0  0  0  0  0  0  0  0  0  0
  1  2  2  0
  1  3  1  0
  4  1  1  0
  5  4  1  0
  6  5  1  0
  5  8  1  1
  6  7  2  0
 13  6  1  0
  8  9  1  0
  9 10  1  0
 10 11  1  0
 11 12  1  0
 14 13  1  0
 15 14  1  0
 14 17  1  6
 15 16  2  0
 22 15  1  0
 17 18  1  0
 18 19  1  0
 19 20  1  0
 20 21  1  0
 23 22  1  0
 24 23  1  0
 23 26  1  6
 24 25  2  0
 33 24  1  0
 26 27  1  0
 27 28  1  0
 28 29  1  0
 29 30  1  0
 30 31  2  0
 30 32  1  0
 34 33  1  0
 35 34  1  0
 34 37  1  1
 35 36  2  0
 45 35  1  0
 37 38  1  0
 38 39  2  0
 38 40  1  0
 39 41  1  0
 40 42  2  0
 41 43  2  0
 42 43  1  0
 43 44  1  0
 46 45  1  0
 47 46  1  0
 46 49  1  6
 47 48  2  0
 51 47  1  0
 49 50  1  0
 52 51  1  0
 53 52  1  0
 52 55  1  1
 53 54  2  0
 63 53  1  0
 55 56  1  0
 56 57  1  0
 57 58  1  0
 58 59  1  0
 59 60  1  0
 59 61  2  0
 62 64  2  0
 62 65  1  0
 71 62  1  0
 65 63  1  0
 65 66  1  0
 65 70  1  6
 66 69  1  0
 67 68  1  0
 69 67  1  0
 68102  2  0
 72 71  1  0
 73 72  1  0
 72 75  1  1
 73 74  2  0
 80 73  1  0
 75 76  1  0
 76 77  1  0
 77 78  2  0
 77 79  1  0
 81 80  1  0
 82 81  1  0
 81 84  1  1
 82 83  2  0
 88 82  1  0
 84 85  1  0
 85 86  1  1
 85 87  1  0
 89 88  1  0
 90 89  1  0
 89 92  1  1
 90 91  2  0
 97 90  1  0
 92 93  1  0
 93 94  1  6
 93 95  1  0
 96 98  2  0
 99 96  1  0
 96105  1  0
 97 99  1  0
 99100  1  0
 99104  1  1
100103  1  0
102101  1  0
101103  1  0
105106  1  0
106107  1  0
106109  1  1
107108  2  0
107116  1  0
109110  1  0
110111  2  0
110112  1  0
111113  1  0
112114  2  0
113115  2  0
114115  1  0
116117  1  0
117118  1  0
117120  1  6
118119  2  0
118127  1  0
120121  1  0
121122  1  0
122123  1  0
123124  1  0
124125  1  0
124126  2  0
127128  1  0
128129  1  0
128131  1  1
129130  1  0
129132  2  0
 31133  1  0
 61134  1  0
126135  1  0
M  CHG  2  12   1  21   1
M  END
$$$$
