
     RDKit          3D

135137  0  0  0  0  0  0  0  0999 V2000
  -29.8089   -8.2353   -2.7051 C   0  0  0  0  0  0  0  0  0  0  0  0
  -28.9739   -9.1234   -2.8762 O   0  0  0  0  0  0  0  0  0  0  0  0
  -31.0540   -8.1097   -3.5383 C   0  0  0  0  0  0  0  0  0  0  0  0
  -29.7039   -7.3053   -1.7098 N   0  0  0  0  0  0  0  0  0  0  0  0
  -28.5986   -6.3454   -1.6044 C   0  0  2  0  0  0  0  0  0  0  0  0
  -27.6506   -6.9296   -0.5351 C   0  0  0  0  0  0  0  0  0  0  0  0
  -27.8974   -7.9309    0.1218 O   0  0  0  0  0  0  0  0  0  0  0  0
  -29.0907   -4.9445   -1.2343 C   0  0  0  0  0  0  0  0  0  0  0  0
  -30.3876   -4.4732   -1.9197 C   0  0  0  0  0  0  0  0  0  0  0  0
  -30.3185   -4.2630   -3.4403 C   0  0  0  0  0  0  0  0  0  0  0  0
  -30.3842   -2.8356   -3.9759 C   0  0  0  0  0  0  0  0  0  0  0  0
  -30.2499   -2.7969   -5.4410 N   0  0  0  0  0  4  0  0  0  0  0  0
  -26.4318   -6.2723   -0.4928 N   0  0  0  0  0  0  0  0  0  0  0  0
  -25.1988   -7.0397   -0.2908 C   0  0  2  0  0  0  0  0  0  0  0  0
  -23.9217   -6.1588   -0.3617 C   0  0  0  0  0  0  0  0  0  0  0  0
  -22.8079   -6.6348   -0.5871 O   0  0  0  0  0  0  0  0  0  0  0  0
  -25.0877   -8.1721   -1.3303 C   0  0  0  0  0  0  0  0  0  0  0  0
  -24.6681   -9.5491   -0.7806 C   0  0  0  0  0  0  0  0  0  0  0  0
  -24.9178   -9.6571    0.7269 C   0  0  0  0  0  0  0  0  0  0  0  0
  -24.7108  -11.0793    1.2233 C   0  0  0  0  0  0  0  0  0  0  0  0
  -24.9975  -11.1535    2.6616 N   0  0  0  0  0  4  0  0  0  0  0  0
  -24.1179   -4.8073   -0.1291 N   0  0  0  0  0  0  0  0  0  0  0  0
  -23.0339   -3.9550    0.3758 C   0  0  2  0  0  0  0  0  0  0  0  0
  -22.7820   -4.2267    1.8936 C   0  0  0  0  0  0  0  0  0  0  0  0
  -23.6964   -4.4246    2.6864 O   0  0  0  0  0  0  0  0  0  0  0  0
  -23.3929   -2.4742    0.1376 C   0  0  0  0  0  0  0  0  0  0  0  0
  -22.2713   -1.4976    0.5015 C   0  0  0  0  0  0  0  0  0  0  0  0
  -22.6877   -0.0591    0.1962 C   0  0  0  0  0  0  0  0  0  0  0  0
  -23.3883   -0.0064   -1.0718 N   0  0  0  0  0  0  0  0  0  0  0  0
  -24.6755    0.3922   -1.1848 C   0  0  0  0  0  0  0  0  0  0  0  0
  -25.4887    0.2210   -2.1596 N   0  0  0  0  0  0  0  0  0  0  0  0
  -25.0907    1.0340   -0.0790 N   0  0  0  0  0  0  0  0  0  0  0  0
  -21.4601   -4.2297    2.2755 N   0  0  0  0  0  0  0  0  0  0  0  0
  -20.9373   -4.4921    3.6297 C   0  0  2  0  0  0  0  0  0  0  0  0
  -19.4752   -4.1808    4.0279 C   0  0  0  0  0  0  0  0  0  0  0  0
  -18.5638   -4.3095    3.2046 O   0  0  0  0  0  0  0  0  0  0  0  0
  -21.4137   -5.8231    4.2527 C   0  0  0  0  0  0  0  0  0  0  0  0
  -22.6773   -6.4287    3.6943 C   0  0  0  0  0  0  0  0  0  0  0  0
  -23.9344   -6.0407    4.1861 C   0  0  0  0  0  0  0  0  0  0  0  0
  -22.6228   -7.3532    2.6419 C   0  0  0  0  0  0  0  0  0  0  0  0
  -25.1039   -6.5978    3.6691 C   0  0  0  0  0  0  0  0  0  0  0  0
  -23.7926   -7.9179    2.1324 C   0  0  0  0  0  0  0  0  0  0  0  0
  -25.0218   -7.5379    2.6483 C   0  0  0  0  0  0  0  0  0  0  0  0
  -26.1370   -8.1045    2.1113 O   0  0  0  0  0  0  0  0  0  0  0  0
  -19.2249   -3.7138    5.2882 N   0  0  0  0  0  0  0  0  0  0  0  0
  -17.9144   -3.9026    5.9152 C   0  0  2  0  0  0  0  0  0  0  0  0
  -16.8061   -3.3118    5.0228 C   0  0  0  0  0  0  0  0  0  0  0  0
  -16.0697   -2.4279    5.4517 O   0  0  0  0  0  0  0  0  0  0  0  0
  -17.6817   -5.3625    6.3354 C   0  0  0  0  0  0  0  0  0  0  0  0
  -16.3376   -5.7638    6.0467 O   0  0  0  0  0  0  0  0  0  0  0  0
  -16.6213   -3.8686    3.7739 N   0  0  0  0  0  0  0  0  0  0  0  0
  -15.2938   -4.2784    3.2681 C   0  0  2  0  0  0  0  0  0  0  0  0
  -14.9244   -5.7306    3.6875 C   0  0  0  0  0  0  0  0  0  0  0  0
  -15.4321   -6.2809    4.6547 O   0  0  0  0  0  0  0  0  0  0  0  0
  -14.2133   -3.3101    3.7851 C   0  0  0  0  0  0  0  0  0  0  0  0
  -13.8684   -2.1690    2.8162 C   0  0  0  0  0  0  0  0  0  0  0  0
  -14.7694   -2.0963    1.5819 C   0  0  0  0  0  0  0  0  0  0  0  0
  -15.2835   -0.7416    1.4178 N   0  0  0  0  0  0  0  0  0  0  0  0
  -16.1847   -0.4356    0.4592 C   0  0  0  0  0  0  0  0  0  0  0  0
  -16.5877   -1.5483   -0.1956 N   0  0  0  0  0  0  0  0  0  0  0  0
  -16.6296    0.7373    0.1901 N   0  0  0  0  0  0  0  0  0  0  0  0
  -14.7290   -5.7714    0.6639 C   0  0  0  0  0  0  0  0  0  0  0  0
  -13.8845   -6.2999    2.9721 N   0  0  0  0  0  0  0  0  0  0  0  0
  -15.0212   -4.7796   -0.0029 O   0  0  0  0  0  0  0  0  0  0  0  0
  -13.4977   -5.8036    1.6383 C   0  0  1  0  0  0  0  0  0  0  0  0
  -12.4671   -6.7474    0.9230 C   0  0  0  0  0  0  0  0  0  0  0  0
  -11.2745   -8.2134    2.7452 C   0  0  0  0  0  0  0  0  0  0  0  0
  -12.1960   -9.3678    2.4686 C   0  0  0  0  0  0  0  0  0  0  0  0
  -11.1668   -7.1533    1.6374 C   0  0  0  0  0  0  0  0  0  0  0  0
  -12.8934   -4.3918    1.7823 C   0  0  0  0  0  0  0  0  0  0  0  0
  -15.3690   -6.9869    0.5011 N   0  0  0  0  0  0  0  0  0  0  0  0
  -16.2559   -7.2252   -0.6290 C   0  0  2  0  0  0  0  0  0  0  0  0
  -16.8949   -8.6108   -0.4193 C   0  0  0  0  0  0  0  0  0  0  0  0
  -16.2399   -9.6513   -0.3413 O   0  0  0  0  0  0  0  0  0  0  0  0
  -15.4819   -7.2446   -1.9618 C   0  0  0  0  0  0  0  0  0  0  0  0
  -14.3671   -8.2880   -1.9789 C   0  0  0  0  0  0  0  0  0  0  0  0
  -14.3162   -9.0884   -0.6978 C   0  0  0  0  0  0  0  0  0  0  0  0
  -14.0459  -10.2826   -0.6240 O   0  0  0  0  0  0  0  0  0  0  0  0
  -14.5970   -8.3650    0.4251 N   0  0  0  0  0  0  0  0  0  0  0  0
  -18.2634   -8.6798   -0.3454 N   0  0  0  0  0  0  0  0  0  0  0  0
  -19.0398   -7.8376    0.5779 C   0  0  2  0  0  0  0  0  0  0  0  0
  -19.5723   -8.7841    1.6857 C   0  0  0  0  0  0  0  0  0  0  0  0
  -19.5464  -10.0106    1.5264 O   0  0  0  0  0  0  0  0  0  0  0  0
  -20.1264   -7.0183   -0.1348 C   0  0  0  0  0  0  0  0  0  0  0  0
  -19.9049   -5.4923   -0.2350 C   0  0  1  0  0  0  0  0  0  0  0  0
  -18.4510   -5.0764   -0.0283 C   0  0  0  0  0  0  0  0  0  0  0  0
  -20.3818   -4.9935   -1.6031 C   0  0  0  0  0  0  0  0  0  0  0  0
  -20.0268   -8.1698    2.8360 N   0  0  0  0  0  0  0  0  0  0  0  0
  -20.1045   -8.8942    4.1231 C   0  0  2  0  0  0  0  0  0  0  0  0
  -18.6328   -9.0950    4.5722 C   0  0  0  0  0  0  0  0  0  0  0  0
  -17.7839   -8.2345    4.3179 O   0  0  0  0  0  0  0  0  0  0  0  0
  -20.9986  -10.1491    4.1496 C   0  0  0  0  0  0  0  0  0  0  0  0
  -20.5871  -11.3388    3.2465 C   0  0  1  0  0  0  0  0  0  0  0  0
  -20.7161  -11.0188    1.7521 C   0  0  0  0  0  0  0  0  0  0  0  0
  -19.1976  -11.8943    3.5413 C   0  0  0  0  0  0  0  0  0  0  0  0
  -17.2293  -12.3672    5.8474 C   0  0  0  0  0  0  0  0  0  0  0  0
  -18.3450  -10.2056    5.3515 N   0  0  0  0  0  0  0  0  0  0  0  0
  -16.3048  -13.1734    5.9024 O   0  0  0  0  0  0  0  0  0  0  0  0
  -17.2528  -11.1269    4.8961 C   0  0  1  0  0  0  0  0  0  0  0  0
  -15.8573  -10.4575    4.9859 C   0  0  0  0  0  0  0  0  0  0  0  0
  -14.3378  -10.6387    2.9157 C   0  0  0  0  0  0  0  0  0  0  0  0
  -13.4016   -9.4824    3.0544 C   0  0  0  0  0  0  0  0  0  0  0  0
  -14.6961  -11.2054    4.2988 C   0  0  0  0  0  0  0  0  0  0  0  0
  -17.5711  -11.6429    3.4881 C   0  0  0  0  0  0  0  0  0  0  0  0
  -18.4178  -12.6409    6.4994 N   0  0  0  0  0  0  0  0  0  0  0  0
  -19.5334  -11.7125    6.2998 C   0  0  2  0  0  0  0  0  0  0  0  0
  -19.4687  -10.6568    7.4361 C   0  0  0  0  0  0  0  0  0  0  0  0
  -20.1205   -9.6095    7.4060 O   0  0  0  0  0  0  0  0  0  0  0  0
  -20.8996  -12.4155    6.3499 C   0  0  0  0  0  0  0  0  0  0  0  0
  -22.0104  -11.4940    5.9087 C   0  0  0  0  0  0  0  0  0  0  0  0
  -21.7625  -10.1189    5.7522 C   0  0  0  0  0  0  0  0  0  0  0  0
  -23.2785  -11.9972    5.5921 C   0  0  0  0  0  0  0  0  0  0  0  0
  -22.7615   -9.2759    5.2680 C   0  0  0  0  0  0  0  0  0  0  0  0
  -24.2730  -11.1458    5.1012 C   0  0  0  0  0  0  0  0  0  0  0  0
  -24.0076   -9.7905    4.9297 C   0  0  0  0  0  0  0  0  0  0  0  0
  -18.6184  -10.9656    8.4928 N   0  0  0  0  0  0  0  0  0  0  0  0
  -18.8175  -10.2940    9.7877 C   0  0  2  0  0  0  0  0  0  0  0  0
  -18.4331   -8.7986    9.6816 C   0  0  0  0  0  0  0  0  0  0  0  0
  -18.8646   -7.9630   10.4669 O   0  0  0  0  0  0  0  0  0  0  0  0
  -17.9876  -10.9554   10.9015 C   0  0  0  0  0  0  0  0  0  0  0  0
  -16.6473  -10.2382   11.1346 C   0  0  0  0  0  0  0  0  0  0  0  0
  -15.6268  -11.1300   11.8401 C   0  0  0  0  0  0  0  0  0  0  0  0
  -14.4049  -10.3932   12.1115 N   0  0  0  0  0  0  0  0  0  0  0  0
  -14.1901   -9.7675   13.2925 C   0  0  0  0  0  0  0  0  0  0  0  0
  -13.9117   -8.4607   13.1187 N   0  0  0  0  0  0  0  0  0  0  0  0
  -14.2721  -10.3312   14.4424 N   0  0  0  0  0  0  0  0  0  0  0  0
  -17.5664   -8.4961    8.6602 N   0  0  0  0  0  0  0  0  0  0  0  0
  -17.3228   -7.1294    8.2288 C   0  0  2  0  0  0  0  0  0  0  0  0
  -17.1036   -6.1799    9.4291 C   0  0  0  0  0  0  0  0  0  0  0  0
  -16.6179   -6.7798   10.5357 O   0  0  0  0  0  0  0  0  0  0  0  0
  -18.4244   -6.6805    7.2757 C   0  0  0  0  0  0  0  0  0  0  0  0
  -17.3696   -4.9844    9.4521 O   0  0  0  0  0  0  0  0  0  0  0  0
  -24.9980   -0.1956   -2.9516 H   0  0  0  0  0  0  0  0  0  0  0  0
  -15.8638    1.4006    0.3178 H   0  0  0  0  0  0  0  0  0  0  0  0
  -14.8524  -11.1675   14.3725 H   0  0  0  0  0  0  0  0  0  0  0  0
  1  2  2  0
  1  3  1  0
  4  1  1  0
  5  4  1  0
  6  5  1  0
  5  8  1  1
  6  7  2  0
 13  6  1  0
  8  9  1  0
  9 10  1  0
 10 11  1  0
 11 12  1  0
 14 13  1  0
 15 14  1  0
 14 17  1  6
 15 16  2  0
 22 15  1  0
 17 18  1  0
 18 19  1  0
 19 20  1  0
 20 21  1  0
 23 22  1  0
 24 23  1  0
 23 26  1  1
 24 25  2  0
 33 24  1  0
 26 27  1  0
 27 28  1  0
 28 29  1  0
 29 30  1  0
 30 31  2  0
 30 32  1  0
 34 33  1  0
 35 34  1  0
 34 37  1  6
 35 36  2  0
 45 35  1  0
 37 38  1  0
 38 39  2  0
 38 40  1  0
 39 41  1  0
 40 42  2  0
 41 43  2  0
 42 43  1  0
 43 44  1  0
 46 45  1  0
 47 46  1  0
 46 49  1  6
 47 48  2  0
 51 47  1  0
 49 50  1  0
 52 51  1  0
 53 52  1  0
 52 55  1  1
 53 54  2  0
 63 53  1  0
 55 56  1  0
 56 57  1  0
 57 58  1  0
 58 59  1  0
 59 60  1  0
 59 61  2  0
 62 64  2  0
 62 65  1  0
 71 62  1  0
 65 63  1  0
 65 66  1  0
 65 70  1  1
 66 69  1  0
 67 68  1  0
 69 67  1  0
 68102  2  0
 72 71  1  0
 73 72  1  0
 72 75  1  6
 73 74  2  0
 80 73  1  0
 75 76  1  0
 76 77  1  0
 77 78  2  0
 77 79  1  0
 81 80  1  0
 82 81  1  0
 81 84  1  6
 82 83  2  0
 88 82  1  0
 84 85  1  0
 85 86  1  6
 85 87  1  0
 89 88  1  0
 90 89  1  0
 89 92  1  6
 90 91  2  0
 97 90  1  0
 92 93  1  0
 93 94  1  6
 93 95  1  0
 96 98  2  0
 99 96  1  0
 96105  1  0
 97 99  1  0
 99100  1  0
 99104  1  6
100103  1  0
102101  1  0
101103  1  0
105106  1  0
106107  1  0
106109  1  1
107108  2  0
107116  1  0
109110  1  0
110111  2  0
110112  1  0
111113  1  0
112114  2  0
113115  2  0
114115  1  0
116117  1  0
117118  1  0
117120  1  1
118119  2  0
118127  1  0
120121  1  0
121122  1  0
122123  1  0
123124  1  0
124125  1  0
124126  2  0
127128  1  0
128129  1  0
128131  1  1
129130  1  0
129132  2  0
 31133  1  0
 61134  1  0
126135  1  0
M  CHG  2  12   1  21   1
M  END
$$$$
