
     RDKit          3D

135137  0  0  0  0  0  0  0  0999 V2000
  -19.8021   -2.0557   13.5087 C   0  0  0  0  0  0  0  0  0  0  0  0
  -19.0911   -2.6165   14.3425 O   0  0  0  0  0  0  0  0  0  0  0  0
  -20.2741   -0.6359   13.6565 C   0  0  0  0  0  0  0  0  0  0  0  0
  -20.1920   -2.6583   12.3462 N   0  0  0  0  0  0  0  0  0  0  0  0
  -20.2903   -4.1127   12.1752 C   0  0  2  0  0  0  0  0  0  0  0  0
  -19.5155   -4.4248   10.8769 C   0  0  0  0  0  0  0  0  0  0  0  0
  -19.1650   -3.5752   10.0705 O   0  0  0  0  0  0  0  0  0  0  0  0
  -21.7447   -4.5836   12.1053 C   0  0  0  0  0  0  0  0  0  0  0  0
  -22.7894   -3.6760   12.7826 C   0  0  0  0  0  0  0  0  0  0  0  0
  -24.2583   -4.1063   12.6467 C   0  0  0  0  0  0  0  0  0  0  0  0
  -25.3352   -3.1910   13.2218 C   0  0  0  0  0  0  0  0  0  0  0  0
  -26.6865   -3.7234   12.9836 N   0  0  0  0  0  4  0  0  0  0  0  0
  -19.1452   -5.7569   10.7890 N   0  0  0  0  0  0  0  0  0  0  0  0
  -18.3429   -6.2146    9.6504 C   0  0  2  0  0  0  0  0  0  0  0  0
  -18.9301   -5.7724    8.2822 C   0  0  0  0  0  0  0  0  0  0  0  0
  -20.1366   -5.8249    8.0382 O   0  0  0  0  0  0  0  0  0  0  0  0
  -18.2038   -7.7494    9.6661 C   0  0  0  0  0  0  0  0  0  0  0  0
  -17.3552   -8.3581    8.5332 C   0  0  0  0  0  0  0  0  0  0  0  0
  -17.8576   -9.7491    8.1340 C   0  0  0  0  0  0  0  0  0  0  0  0
  -17.2779  -10.8283    9.0347 C   0  0  0  0  0  0  0  0  0  0  0  0
  -17.7919  -12.1440    8.6331 N   0  0  0  0  0  4  0  0  0  0  0  0
  -18.0023   -5.3399    7.3488 N   0  0  0  0  0  0  0  0  0  0  0  0
  -18.3952   -5.0372    5.9666 C   0  0  2  0  0  0  0  0  0  0  0  0
  -18.1054   -6.2559    5.0329 C   0  0  0  0  0  0  0  0  0  0  0  0
  -17.0381   -6.8594    5.0523 O   0  0  0  0  0  0  0  0  0  0  0  0
  -17.6379   -3.7844    5.4813 C   0  0  0  0  0  0  0  0  0  0  0  0
  -16.2030   -4.0643    5.0263 C   0  0  0  0  0  0  0  0  0  0  0  0
  -15.5866   -2.8200    4.3878 C   0  0  0  0  0  0  0  0  0  0  0  0
  -15.8556   -1.6577    5.2112 N   0  0  0  0  0  0  0  0  0  0  0  0
  -15.5171   -0.4013    4.8430 C   0  0  0  0  0  0  0  0  0  0  0  0
  -15.4376    0.6549    5.5634 N   0  0  0  0  0  0  0  0  0  0  0  0
  -15.2227   -0.3349    3.5331 N   0  0  0  0  0  0  0  0  0  0  0  0
  -19.1352   -6.6037    4.1891 N   0  0  0  0  0  0  0  0  0  0  0  0
  -19.1659   -7.7562    3.2689 C   0  0  2  0  0  0  0  0  0  0  0  0
  -19.8757   -7.7009    1.8954 C   0  0  0  0  0  0  0  0  0  0  0  0
  -19.5471   -8.4761    0.9921 O   0  0  0  0  0  0  0  0  0  0  0  0
  -19.3915   -9.1200    3.9587 C   0  0  0  0  0  0  0  0  0  0  0  0
  -18.1653   -9.8640    4.4259 C   0  0  0  0  0  0  0  0  0  0  0  0
  -18.2676  -11.1779    4.9114 C   0  0  0  0  0  0  0  0  0  0  0  0
  -16.8957   -9.2761    4.3386 C   0  0  0  0  0  0  0  0  0  0  0  0
  -17.1345  -11.8682    5.3413 C   0  0  0  0  0  0  0  0  0  0  0  0
  -15.7639   -9.9634    4.7787 C   0  0  0  0  0  0  0  0  0  0  0  0
  -15.8906  -11.2510    5.2762 C   0  0  0  0  0  0  0  0  0  0  0  0
  -14.7579  -11.8883    5.6811 O   0  0  0  0  0  0  0  0  0  0  0  0
  -20.9026   -6.8148    1.7241 N   0  0  0  0  0  0  0  0  0  0  0  0
  -21.4900   -6.5888    0.4013 C   0  0  2  0  0  0  0  0  0  0  0  0
  -21.5872   -5.0786    0.1119 C   0  0  0  0  0  0  0  0  0  0  0  0
  -22.0162   -4.3094    0.9673 O   0  0  0  0  0  0  0  0  0  0  0  0
  -22.8080   -7.3575    0.2171 C   0  0  0  0  0  0  0  0  0  0  0  0
  -23.1308   -8.0985    1.3994 O   0  0  0  0  0  0  0  0  0  0  0  0
  -21.0987   -4.6227   -1.0953 N   0  0  0  0  0  0  0  0  0  0  0  0
  -21.2300   -3.2165   -1.5328 C   0  0  2  0  0  0  0  0  0  0  0  0
  -21.8045   -2.3007   -0.4136 C   0  0  0  0  0  0  0  0  0  0  0  0
  -22.9547   -2.4045   -0.0102 O   0  0  0  0  0  0  0  0  0  0  0  0
  -22.1405   -3.1354   -2.7725 C   0  0  0  0  0  0  0  0  0  0  0  0
  -21.5522   -3.7837   -4.0348 C   0  0  0  0  0  0  0  0  0  0  0  0
  -20.0558   -3.5342   -4.2325 C   0  0  0  0  0  0  0  0  0  0  0  0
  -19.5871   -2.5310   -3.2837 N   0  0  0  0  0  0  0  0  0  0  0  0
  -18.5450   -2.7677   -2.4574 C   0  0  0  0  0  0  0  0  0  0  0  0
  -18.2726   -4.0909   -2.3927 N   0  0  0  0  0  0  0  0  0  0  0  0
  -17.8743   -1.8807   -1.8174 N   0  0  0  0  0  0  0  0  0  0  0  0
  -19.1924   -2.0690   -1.6030 C   0  0  0  0  0  0  0  0  0  0  0  0
  -20.9663   -1.2760   -0.0079 N   0  0  0  0  0  0  0  0  0  0  0  0
  -18.9557   -2.0257   -2.8096 O   0  0  0  0  0  0  0  0  0  0  0  0
  -19.8068   -0.8563   -0.8167 C   0  0  1  0  0  0  0  0  0  0  0  0
  -18.6195   -0.3300    0.0652 C   0  0  0  0  0  0  0  0  0  0  0  0
  -19.5717    0.3844    2.4052 C   0  0  0  0  0  0  0  0  0  0  0  0
  -19.1570   -0.9263    3.0121 C   0  0  0  0  0  0  0  0  0  0  0  0
  -18.8607    0.7811    1.1013 C   0  0  0  0  0  0  0  0  0  0  0  0
  -20.2510    0.2471   -1.7987 C   0  0  0  0  0  0  0  0  0  0  0  0
  -18.8008   -3.1330   -0.8103 N   0  0  0  0  0  0  0  0  0  0  0  0
  -17.8807   -4.1451   -1.3097 C   0  0  2  0  0  0  0  0  0  0  0  0
  -17.7787   -5.2377   -0.2290 C   0  0  0  0  0  0  0  0  0  0  0  0
  -17.3762   -5.0201    0.9149 O   0  0  0  0  0  0  0  0  0  0  0  0
  -16.4730   -3.5634   -1.5458 C   0  0  0  0  0  0  0  0  0  0  0  0
  -15.7362   -3.2603   -0.2431 C   0  0  0  0  0  0  0  0  0  0  0  0
  -16.3798   -3.9360    0.9459 C   0  0  0  0  0  0  0  0  0  0  0  0
  -15.7840   -4.3103    1.9507 O   0  0  0  0  0  0  0  0  0  0  0  0
  -17.7290   -4.1067    0.8295 N   0  0  0  0  0  0  0  0  0  0  0  0
  -18.1297   -6.5176   -0.5777 N   0  0  0  0  0  0  0  0  0  0  0  0
  -19.4202   -6.8288   -1.2121 C   0  0  2  0  0  0  0  0  0  0  0  0
  -20.2616   -7.5738   -0.1426 C   0  0  0  0  0  0  0  0  0  0  0  0
  -19.7214   -8.0281    0.8734 O   0  0  0  0  0  0  0  0  0  0  0  0
  -19.2636   -7.5866   -2.5392 C   0  0  0  0  0  0  0  0  0  0  0  0
  -18.3783   -6.9318   -3.6232 C   0  0  1  0  0  0  0  0  0  0  0  0
  -18.8599   -5.5456   -4.0427 C   0  0  0  0  0  0  0  0  0  0  0  0
  -16.9358   -6.8315   -3.1158 C   0  0  0  0  0  0  0  0  0  0  0  0
  -21.6177   -7.6534   -0.3909 N   0  0  0  0  0  0  0  0  0  0  0  0
  -22.5933   -7.8790    0.6975 C   0  0  2  0  0  0  0  0  0  0  0  0
  -22.6165   -6.5573    1.5102 C   0  0  0  0  0  0  0  0  0  0  0  0
  -22.4647   -5.4739    0.9368 O   0  0  0  0  0  0  0  0  0  0  0  0
  -22.4205   -9.1742    1.5145 C   0  0  0  0  0  0  0  0  0  0  0  0
  -20.9814   -9.7197    1.6931 C   0  0  1  0  0  0  0  0  0  0  0  0
  -20.3400  -10.1412    0.3653 C   0  0  0  0  0  0  0  0  0  0  0  0
  -20.0468   -8.7789    2.4465 C   0  0  0  0  0  0  0  0  0  0  0  0
  -22.4466   -6.3817    5.2843 C   0  0  0  0  0  0  0  0  0  0  0  0
  -22.9204   -6.6392    2.8611 N   0  0  0  0  0  0  0  0  0  0  0  0
  -22.4107   -5.6034    6.2333 O   0  0  0  0  0  0  0  0  0  0  0  0
  -21.9661   -6.0234    3.8405 C   0  0  1  0  0  0  0  0  0  0  0  0
  -21.9497   -4.4766    3.7368 C   0  0  0  0  0  0  0  0  0  0  0  0
  -19.6449   -3.3378    3.6027 C   0  0  0  0  0  0  0  0  0  0  0  0
  -19.9295   -2.0257    2.9470 C   0  0  0  0  0  0  0  0  0  0  0  0
  -20.8213   -3.7533    4.5005 C   0  0  0  0  0  0  0  0  0  0  0  0
  -20.5754   -6.6425    3.6600 C   0  0  0  0  0  0  0  0  0  0  0  0
  -22.7343   -7.7167    5.5026 N   0  0  0  0  0  0  0  0  0  0  0  0
  -22.8492   -8.5890    4.3311 C   0  0  2  0  0  0  0  0  0  0  0  0
  -21.4970   -9.3346    4.1724 C   0  0  0  0  0  0  0  0  0  0  0  0
  -20.4132   -8.8050    4.4327 O   0  0  0  0  0  0  0  0  0  0  0  0
  -23.1409   -7.8055    3.0410 C   0  0  0  0  0  0  0  0  0  0  0  0
  -23.7576   -8.6909    1.9859 C   0  0  0  0  0  0  0  0  0  0  0  0
  -25.0996   -9.0936    2.1027 C   0  0  0  0  0  0  0  0  0  0  0  0
  -23.0287   -9.0729    0.8525 C   0  0  0  0  0  0  0  0  0  0  0  0
  -25.6981   -9.8442    1.0919 C   0  0  0  0  0  0  0  0  0  0  0  0
  -23.6385   -9.8205   -0.1595 C   0  0  0  0  0  0  0  0  0  0  0  0
  -24.9740  -10.1934   -0.0420 C   0  0  0  0  0  0  0  0  0  0  0  0
  -21.5852  -10.6430    3.7083 N   0  0  0  0  0  0  0  0  0  0  0  0
  -21.5424  -11.7484    4.6797 C   0  0  2  0  0  0  0  0  0  0  0  0
  -21.2106  -11.2093    6.0920 C   0  0  0  0  0  0  0  0  0  0  0  0
  -21.7130  -11.6888    7.1014 O   0  0  0  0  0  0  0  0  0  0  0  0
  -20.5027  -12.8105    4.2827 C   0  0  0  0  0  0  0  0  0  0  0  0
  -19.2565  -12.1910    3.6282 C   0  0  0  0  0  0  0  0  0  0  0  0
  -18.6132  -13.1254    2.6048 C   0  0  0  0  0  0  0  0  0  0  0  0
  -19.1922  -14.4547    2.6912 N   0  0  0  0  0  0  0  0  0  0  0  0
  -18.8061  -15.4615    1.8729 C   0  0  0  0  0  0  0  0  0  0  0  0
  -19.7846  -15.8054    1.0129 N   0  0  0  0  0  0  0  0  0  0  0  0
  -17.6438  -16.0052    1.8833 N   0  0  0  0  0  0  0  0  0  0  0  0
  -20.3054  -10.1769    6.1183 N   0  0  0  0  0  0  0  0  0  0  0  0
  -20.4393   -9.0509    7.0279 C   0  0  2  0  0  0  0  0  0  0  0  0
  -21.4121   -9.3638    8.1881 C   0  0  0  0  0  0  0  0  0  0  0  0
  -22.6416   -8.8262    8.0479 O   0  0  0  0  0  0  0  0  0  0  0  0
  -20.7905   -7.7899    6.2468 C   0  0  0  0  0  0  0  0  0  0  0  0
  -21.1385  -10.0019    9.1973 O   0  0  0  0  0  0  0  0  0  0  0  0
  -15.3840    0.3988    6.5498 H   0  0  0  0  0  0  0  0  0  0  0  0
  -16.9365   -1.8452   -2.2198 H   0  0  0  0  0  0  0  0  0  0  0  0
  -17.1936  -15.8323    2.7825 H   0  0  0  0  0  0  0  0  0  0  0  0
  1  2  2  0
  1  3  1  0
  4  1  1  0
  5  4  1  0
  6  5  1  0
  5  8  1  6
  6  7  2  0
 13  6  1  0
  8  9  1  0
  9 10  1  0
 10 11  1  0
 11 12  1  0
 14 13  1  0
 15 14  1  0
 14 17  1  6
 15 16  2  0
 22 15  1  0
 17 18  1  0
 18 19  1  0
 19 20  1  0
 20 21  1  0
 23 22  1  0
 24 23  1  0
 23 26  1  6
 24 25  2  0
 33 24  1  0
 26 27  1  0
 27 28  1  0
 28 29  1  0
 29 30  1  0
 30 31  2  0
 30 32  1  0
 34 33  1  0
 35 34  1  0
 34 37  1  1
 35 36  2  0
 45 35  1  0
 37 38  1  0
 38 39  2  0
 38 40  1  0
 39 41  1  0
 40 42  2  0
 41 43  2  0
 42 43  1  0
 43 44  1  0
 46 45  1  0
 47 46  1  0
 46 49  1  1
 47 48  2  0
 51 47  1  0
 49 50  1  0
 52 51  1  0
 53 52  1  0
 52 55  1  6
 53 54  2  0
 63 53  1  0
 55 56  1  0
 56 57  1  0
 57 58  1  0
 58 59  1  0
 59 60  1  0
 59 61  2  0
 62 64  2  0
 62 65  1  0
 71 62  1  0
 65 63  1  0
 65 66  1  0
 65 70  1  6
 66 69  1  0
 67 68  1  0
 69 67  1  0
 68102  2  0
 72 71  1  0
 73 72  1  0
 72 75  1  1
 73 74  2  0
 80 73  1  0
 75 76  1  0
 76 77  1  0
 77 78  2  0
 77 79  1  0
 81 80  1  0
 82 81  1  0
 81 84  1  6
 82 83  2  0
 88 82  1  0
 84 85  1  0
 85 86  1  1
 85 87  1  0
 89 88  1  0
 90 89  1  0
 89 92  1  1
 90 91  2  0
 97 90  1  0
 92 93  1  0
 93 94  1  6
 93 95  1  0
 96 98  2  0
 99 96  1  0
 96105  1  0
 97 99  1  0
 99100  1  0
 99104  1  6
100103  1  0
102101  1  0
101103  1  0
105106  1  0
106107  1  0
106109  1  6
107108  2  0
107116  1  0
109110  1  0
110111  2  0
110112  1  0
111113  1  0
112114  2  0
113115  2  0
114115  1  0
116117  1  0
117118  1  0
117120  1  6
118119  2  0
118127  1  0
120121  1  0
121122  1  0
122123  1  0
123124  1  0
124125  1  0
124126  2  0
127128  1  0
128129  1  0
128131  1  6
129130  1  0
129132  2  0
 31133  1  0
 61134  1  0
126135  1  0
M  CHG  2  12   1  21   1
M  END
$$$$
