
     RDKit          3D

135137  0  0  0  0  0  0  0  0999 V2000
  -30.1361   -4.0844    0.2856 C   0  0  0  0  0  0  0  0  0  0  0  0
  -29.3320   -3.2117    0.6127 O   0  0  0  0  0  0  0  0  0  0  0  0
  -31.5220   -4.1787    0.8608 C   0  0  0  0  0  0  0  0  0  0  0  0
  -29.8589   -5.0241   -0.6665 N   0  0  0  0  0  0  0  0  0  0  0  0
  -28.7012   -5.9246   -0.6102 C   0  0  2  0  0  0  0  0  0  0  0  0
  -28.0449   -5.8340   -2.0046 C   0  0  0  0  0  0  0  0  0  0  0  0
  -28.3370   -6.5594   -2.9445 O   0  0  0  0  0  0  0  0  0  0  0  0
  -29.1071   -7.3571   -0.2566 C   0  0  0  0  0  0  0  0  0  0  0  0
  -27.9610   -8.3778   -0.1216 C   0  0  0  0  0  0  0  0  0  0  0  0
  -28.3611   -9.8612   -0.1500 C   0  0  0  0  0  0  0  0  0  0  0  0
  -29.8006  -10.2278    0.1988 C   0  0  0  0  0  0  0  0  0  0  0  0
  -30.0362  -11.6763    0.0866 N   0  0  0  0  0  4  0  0  0  0  0  0
  -27.1824   -4.7554   -2.1144 N   0  0  0  0  0  0  0  0  0  0  0  0
  -26.2835   -4.6582   -3.2686 C   0  0  2  0  0  0  0  0  0  0  0  0
  -25.0998   -5.6612   -3.1973 C   0  0  0  0  0  0  0  0  0  0  0  0
  -24.9047   -6.5091   -4.0697 O   0  0  0  0  0  0  0  0  0  0  0  0
  -25.7244   -3.2283   -3.4026 C   0  0  0  0  0  0  0  0  0  0  0  0
  -26.1822   -2.2250   -2.3265 C   0  0  0  0  0  0  0  0  0  0  0  0
  -27.4482   -1.4755   -2.7531 C   0  0  0  0  0  0  0  0  0  0  0  0
  -27.3786   -0.0056   -2.3703 C   0  0  0  0  0  0  0  0  0  0  0  0
  -26.0177    0.3339   -1.9353 N   0  0  0  0  0  4  0  0  0  0  0  0
  -24.2955   -5.5530   -2.0746 N   0  0  0  0  0  0  0  0  0  0  0  0
  -23.0212   -6.2761   -1.9767 C   0  0  2  0  0  0  0  0  0  0  0  0
  -22.9260   -7.0414   -0.6179 C   0  0  0  0  0  0  0  0  0  0  0  0
  -23.9139   -7.3004    0.0611 O   0  0  0  0  0  0  0  0  0  0  0  0
  -21.8536   -5.2796   -2.1259 C   0  0  0  0  0  0  0  0  0  0  0  0
  -20.5061   -5.9429   -2.4236 C   0  0  0  0  0  0  0  0  0  0  0  0
  -19.3632   -4.9420   -2.2568 C   0  0  0  0  0  0  0  0  0  0  0  0
  -18.0944   -5.5937   -2.5155 N   0  0  0  0  0  0  0  0  0  0  0  0
  -17.6807   -6.6912   -1.8424 C   0  0  0  0  0  0  0  0  0  0  0  0
  -16.7655   -7.5308   -2.1565 N   0  0  0  0  0  0  0  0  0  0  0  0
  -18.3570   -6.8465   -0.6912 N   0  0  0  0  0  0  0  0  0  0  0  0
  -21.6541   -7.4051   -0.2396 N   0  0  0  0  0  0  0  0  0  0  0  0
  -21.2900   -8.2792    0.8915 C   0  0  2  0  0  0  0  0  0  0  0  0
  -19.8362   -8.4073    1.4049 C   0  0  0  0  0  0  0  0  0  0  0  0
  -18.9792   -8.9703    0.7168 O   0  0  0  0  0  0  0  0  0  0  0  0
  -22.0067   -9.6478    0.8992 C   0  0  0  0  0  0  0  0  0  0  0  0
  -22.3484  -10.2360    2.2455 C   0  0  0  0  0  0  0  0  0  0  0  0
  -23.5548   -9.9063    2.8846 C   0  0  0  0  0  0  0  0  0  0  0  0
  -21.4917  -11.1593    2.8608 C   0  0  0  0  0  0  0  0  0  0  0  0
  -23.8736  -10.4512    4.1282 C   0  0  0  0  0  0  0  0  0  0  0  0
  -21.8063  -11.6959    4.1097 C   0  0  0  0  0  0  0  0  0  0  0  0
  -22.9916  -11.3389    4.7336 C   0  0  0  0  0  0  0  0  0  0  0  0
  -23.2636  -11.8978    5.9447 O   0  0  0  0  0  0  0  0  0  0  0  0
  -19.5138   -7.8408    2.6067 N   0  0  0  0  0  0  0  0  0  0  0  0
  -18.1420   -7.8889    3.1185 C   0  0  2  0  0  0  0  0  0  0  0  0
  -18.1475   -8.1682    4.6337 C   0  0  0  0  0  0  0  0  0  0  0  0
  -17.2427   -8.8199    5.1476 O   0  0  0  0  0  0  0  0  0  0  0  0
  -17.3282   -6.6532    2.7028 C   0  0  0  0  0  0  0  0  0  0  0  0
  -17.9115   -5.4599    3.2382 O   0  0  0  0  0  0  0  0  0  0  0  0
  -19.1471   -7.5914    5.3899 N   0  0  0  0  0  0  0  0  0  0  0  0
  -19.2843   -7.8199    6.8443 C   0  0  2  0  0  0  0  0  0  0  0  0
  -18.9461   -9.2845    7.2466 C   0  0  0  0  0  0  0  0  0  0  0  0
  -18.2307  -10.0021    6.5614 O   0  0  0  0  0  0  0  0  0  0  0  0
  -20.7193   -7.4880    7.2947 C   0  0  0  0  0  0  0  0  0  0  0  0
  -20.8131   -6.3596    8.3328 C   0  0  0  0  0  0  0  0  0  0  0  0
  -21.6729   -5.1718    7.8965 C   0  0  0  0  0  0  0  0  0  0  0  0
  -20.8562   -4.2018    7.1764 N   0  0  0  0  0  0  0  0  0  0  0  0
  -21.3994   -3.3244    6.3048 C   0  0  0  0  0  0  0  0  0  0  0  0
  -20.6825   -2.1782    6.2655 N   0  0  0  0  0  0  0  0  0  0  0  0
  -22.4435   -3.5245    5.5864 N   0  0  0  0  0  0  0  0  0  0  0  0
  -21.4713   -8.1708    7.7393 C   0  0  0  0  0  0  0  0  0  0  0  0
  -19.6218   -9.7568    8.3590 N   0  0  0  0  0  0  0  0  0  0  0  0
  -22.6444   -8.2256    7.3726 O   0  0  0  0  0  0  0  0  0  0  0  0
  -20.8774   -9.1388    8.8242 C   0  0  1  0  0  0  0  0  0  0  0  0
  -20.6650   -8.2223   10.0809 C   0  0  0  0  0  0  0  0  0  0  0  0
  -18.4283   -8.9288   11.2599 C   0  0  0  0  0  0  0  0  0  0  0  0
  -17.6812   -7.8116   10.5877 C   0  0  0  0  0  0  0  0  0  0  0  0
  -19.9562   -8.7755   11.3290 C   0  0  0  0  0  0  0  0  0  0  0  0
  -21.8916  -10.2512    9.1601 C   0  0  0  0  0  0  0  0  0  0  0  0
  -20.6174   -7.1592    7.3380 N   0  0  0  0  0  0  0  0  0  0  0  0
  -21.1210   -5.9758    6.6551 C   0  0  2  0  0  0  0  0  0  0  0  0
  -19.8975   -5.1395    6.2356 C   0  0  0  0  0  0  0  0  0  0  0  0
  -19.0830   -4.6845    7.0402 O   0  0  0  0  0  0  0  0  0  0  0  0
  -22.0001   -5.1166    7.5849 C   0  0  0  0  0  0  0  0  0  0  0  0
  -21.1836   -4.1419    8.4305 C   0  0  0  0  0  0  0  0  0  0  0  0
  -20.0713   -3.4940    7.6383 C   0  0  0  0  0  0  0  0  0  0  0  0
  -20.1354   -2.3897    7.1082 O   0  0  0  0  0  0  0  0  0  0  0  0
  -18.9359   -4.2464    7.5501 N   0  0  0  0  0  0  0  0  0  0  0  0
  -19.7330   -4.8714    4.8999 N   0  0  0  0  0  0  0  0  0  0  0  0
  -19.7457   -5.9338    3.8822 C   0  0  2  0  0  0  0  0  0  0  0  0
  -18.2847   -6.0708    3.3788 C   0  0  0  0  0  0  0  0  0  0  0  0
  -17.4515   -5.1916    3.6298 O   0  0  0  0  0  0  0  0  0  0  0  0
  -20.7793   -5.6834    2.7735 C   0  0  0  0  0  0  0  0  0  0  0  0
  -22.0182   -4.8377    3.1445 C   0  0  1  0  0  0  0  0  0  0  0  0
  -21.7339   -3.7810    4.2084 C   0  0  0  0  0  0  0  0  0  0  0  0
  -22.5667   -4.1528    1.8883 C   0  0  0  0  0  0  0  0  0  0  0  0
  -17.9925   -7.2285    2.6849 N   0  0  0  0  0  0  0  0  0  0  0  0
  -16.6072   -7.7325    2.5661 C   0  0  2  0  0  0  0  0  0  0  0  0
  -16.2338   -8.2484    3.9811 C   0  0  0  0  0  0  0  0  0  0  0  0
  -17.0946   -8.7668    4.6994 O   0  0  0  0  0  0  0  0  0  0  0  0
  -15.5894   -6.7871    1.8988 C   0  0  0  0  0  0  0  0  0  0  0  0
  -15.9425   -5.2795    1.8462 C   0  0  1  0  0  0  0  0  0  0  0  0
  -16.6977   -4.8934    0.5685 C   0  0  0  0  0  0  0  0  0  0  0  0
  -16.6983   -4.7728    3.0702 C   0  0  0  0  0  0  0  0  0  0  0  0
  -12.9791   -7.4599    5.7386 C   0  0  0  0  0  0  0  0  0  0  0  0
  -14.8973   -8.2035    4.3491 N   0  0  0  0  0  0  0  0  0  0  0  0
  -12.3724   -6.9794    6.6919 O   0  0  0  0  0  0  0  0  0  0  0  0
  -14.5378   -7.5099    5.6293 C   0  0  1  0  0  0  0  0  0  0  0  0
  -15.0569   -8.2812    6.8699 C   0  0  0  0  0  0  0  0  0  0  0  0
  -16.3220   -6.9177    8.6497 C   0  0  0  0  0  0  0  0  0  0  0  0
  -17.1601   -7.9349    9.3536 C   0  0  0  0  0  0  0  0  0  0  0  0
  -14.9821   -7.5349    8.2179 C   0  0  0  0  0  0  0  0  0  0  0  0
  -15.0347   -6.0603    5.5841 C   0  0  0  0  0  0  0  0  0  0  0  0
  -12.2897   -7.8066    4.5910 N   0  0  0  0  0  0  0  0  0  0  0  0
  -12.5209   -9.1422    4.0350 C   0  0  2  0  0  0  0  0  0  0  0  0
  -13.3859   -9.9278    5.0569 C   0  0  0  0  0  0  0  0  0  0  0  0
  -13.7735   -9.4309    6.1179 O   0  0  0  0  0  0  0  0  0  0  0  0
  -11.2130   -9.9128    3.7926 C   0  0  0  0  0  0  0  0  0  0  0  0
  -10.7227  -10.5777    5.0555 C   0  0  0  0  0  0  0  0  0  0  0  0
  -11.4341  -10.4153    6.2573 C   0  0  0  0  0  0  0  0  0  0  0  0
   -9.5958  -11.4093    5.0389 C   0  0  0  0  0  0  0  0  0  0  0  0
  -11.0322  -11.0913    7.4082 C   0  0  0  0  0  0  0  0  0  0  0  0
   -9.2031  -12.0886    6.1961 C   0  0  0  0  0  0  0  0  0  0  0  0
   -9.9293  -11.9366    7.3735 C   0  0  0  0  0  0  0  0  0  0  0  0
  -13.6916  -11.2374    4.7014 N   0  0  0  0  0  0  0  0  0  0  0  0
  -14.0281  -11.5355    3.2995 C   0  0  2  0  0  0  0  0  0  0  0  0
  -14.0707  -13.0657    3.0715 C   0  0  0  0  0  0  0  0  0  0  0  0
  -14.3971  -13.5498    1.9942 O   0  0  0  0  0  0  0  0  0  0  0  0
  -13.0160  -10.9038    2.3282 C   0  0  0  0  0  0  0  0  0  0  0  0
  -13.3973  -11.1352    0.8564 C   0  0  0  0  0  0  0  0  0  0  0  0
  -14.9091  -11.1087    0.6373 C   0  0  0  0  0  0  0  0  0  0  0  0
  -15.2504  -11.6996   -0.6449 N   0  0  0  0  0  0  0  0  0  0  0  0
  -16.5329  -11.8270   -1.0590 C   0  0  0  0  0  0  0  0  0  0  0  0
  -17.3497  -12.1751   -0.0456 N   0  0  0  0  0  0  0  0  0  0  0  0
  -16.9373  -11.6125   -2.2578 N   0  0  0  0  0  0  0  0  0  0  0  0
  -13.6994  -13.8219    4.1559 N   0  0  0  0  0  0  0  0  0  0  0  0
  -14.6188  -14.1276    5.2397 C   0  0  2  0  0  0  0  0  0  0  0  0
  -14.0274  -13.7488    6.6171 C   0  0  0  0  0  0  0  0  0  0  0  0
  -14.7063  -14.2436    7.6728 O   0  0  0  0  0  0  0  0  0  0  0  0
  -15.0778  -15.5777    5.1392 C   0  0  0  0  0  0  0  0  0  0  0  0
  -13.0542  -13.0284    6.8029 O   0  0  0  0  0  0  0  0  0  0  0  0
  -16.1469   -7.1231   -2.8583 H   0  0  0  0  0  0  0  0  0  0  0  0
  -22.6602   -4.5218    5.6183 H   0  0  0  0  0  0  0  0  0  0  0  0
  -16.1361  -11.4196   -2.8595 H   0  0  0  0  0  0  0  0  0  0  0  0
  1  2  2  0
  1  3  1  0
  4  1  1  0
  5  4  1  0
  6  5  1  0
  5  8  1  6
  6  7  2  0
 13  6  1  0
  8  9  1  0
  9 10  1  0
 10 11  1  0
 11 12  1  0
 14 13  1  0
 15 14  1  0
 14 17  1  1
 15 16  2  0
 22 15  1  0
 17 18  1  0
 18 19  1  0
 19 20  1  0
 20 21  1  0
 23 22  1  0
 24 23  1  0
 23 26  1  1
 24 25  2  0
 33 24  1  0
 26 27  1  0
 27 28  1  0
 28 29  1  0
 29 30  1  0
 30 31  2  0
 30 32  1  0
 34 33  1  0
 35 34  1  0
 34 37  1  6
 35 36  2  0
 45 35  1  0
 37 38  1  0
 38 39  2  0
 38 40  1  0
 39 41  1  0
 40 42  2  0
 41 43  2  0
 42 43  1  0
 43 44  1  0
 46 45  1  0
 47 46  1  0
 46 49  1  1
 47 48  2  0
 51 47  1  0
 49 50  1  0
 52 51  1  0
 53 52  1  0
 52 55  1  6
 53 54  2  0
 63 53  1  0
 55 56  1  0
 56 57  1  0
 57 58  1  0
 58 59  1  0
 59 60  1  0
 59 61  2  0
 62 64  2  0
 62 65  1  0
 71 62  1  0
 65 63  1  0
 65 66  1  0
 65 70  1  1
 66 69  1  0
 67 68  1  0
 69 67  1  0
 68102  2  0
 72 71  1  0
 73 72  1  0
 72 75  1  1
 73 74  2  0
 80 73  1  0
 75 76  1  0
 76 77  1  0
 77 78  2  0
 77 79  1  0
 81 80  1  0
 82 81  1  0
 81 84  1  6
 82 83  2  0
 88 82  1  0
 84 85  1  0
 85 86  1  1
 85 87  1  0
 89 88  1  0
 90 89  1  0
 89 92  1  1
 90 91  2  0
 97 90  1  0
 92 93  1  0
 93 94  1  6
 93 95  1  0
 96 98  2  0
 99 96  1  0
 96105  1  0
 97 99  1  0
 99100  1  0
 99104  1  6
100103  1  0
102101  1  0
101103  1  0
105106  1  0
106107  1  0
106109  1  1
107108  2  0
107116  1  0
109110  1  0
110111  2  0
110112  1  0
111113  1  0
112114  2  0
113115  2  0
114115  1  0
116117  1  0
117118  1  0
117120  1  6
118119  2  0
118127  1  0
120121  1  0
121122  1  0
122123  1  0
123124  1  0
124125  1  0
124126  2  0
127128  1  0
128129  1  0
128131  1  1
129130  1  0
129132  2  0
 31133  1  0
 61134  1  0
126135  1  0
M  CHG  2  12   1  21   1
M  END
$$$$
