
     RDKit          3D

135137  0  0  0  0  0  0  0  0999 V2000
  -30.5477   -3.5174   -5.1853 C   0  0  0  0  0  0  0  0  0  0  0  0
  -30.1189   -2.8987   -6.1593 O   0  0  0  0  0  0  0  0  0  0  0  0
  -31.5210   -4.6575   -5.3025 C   0  0  0  0  0  0  0  0  0  0  0  0
  -30.1432   -3.2545   -3.9072 N   0  0  0  0  0  0  0  0  0  0  0  0
  -30.6404   -3.9766   -2.7301 C   0  0  2  0  0  0  0  0  0  0  0  0
  -29.5551   -5.0256   -2.4058 C   0  0  0  0  0  0  0  0  0  0  0  0
  -29.6454   -5.8437   -1.5017 O   0  0  0  0  0  0  0  0  0  0  0  0
  -32.0047   -4.6201   -2.9877 C   0  0  0  0  0  0  0  0  0  0  0  0
  -32.6320   -5.3861   -1.8071 C   0  0  0  0  0  0  0  0  0  0  0  0
  -33.9837   -6.0658   -2.0754 C   0  0  0  0  0  0  0  0  0  0  0  0
  -34.5512   -6.9928   -1.0044 C   0  0  0  0  0  0  0  0  0  0  0  0
  -35.8467   -7.5628   -1.4082 N   0  0  0  0  0  4  0  0  0  0  0  0
  -28.5257   -5.0257   -3.3329 N   0  0  0  0  0  0  0  0  0  0  0  0
  -27.4161   -5.9730   -3.1867 C   0  0  2  0  0  0  0  0  0  0  0  0
  -27.1596   -6.3782   -1.7095 C   0  0  0  0  0  0  0  0  0  0  0  0
  -28.0577   -6.3870   -0.8661 O   0  0  0  0  0  0  0  0  0  0  0  0
  -26.1201   -5.3870   -3.7803 C   0  0  0  0  0  0  0  0  0  0  0  0
  -25.0506   -6.4132   -4.2012 C   0  0  0  0  0  0  0  0  0  0  0  0
  -25.2190   -6.8395   -5.6628 C   0  0  0  0  0  0  0  0  0  0  0  0
  -24.2355   -7.9369   -6.0378 C   0  0  0  0  0  0  0  0  0  0  0  0
  -24.1066   -8.0151   -7.4985 N   0  0  0  0  0  4  0  0  0  0  0  0
  -25.8488   -6.7038   -1.4013 N   0  0  0  0  0  0  0  0  0  0  0  0
  -25.4081   -6.8563   -0.0088 C   0  0  2  0  0  0  0  0  0  0  0  0
  -23.8950   -7.2413    0.0502 C   0  0  0  0  0  0  0  0  0  0  0  0
  -23.4769   -8.3250   -0.3431 O   0  0  0  0  0  0  0  0  0  0  0  0
  -26.2723   -7.9269    0.6880 C   0  0  0  0  0  0  0  0  0  0  0  0
  -26.1119   -7.9593    2.2103 C   0  0  0  0  0  0  0  0  0  0  0  0
  -26.9908   -9.0494    2.8227 C   0  0  0  0  0  0  0  0  0  0  0  0
  -26.9187   -8.9872    4.2692 N   0  0  0  0  0  0  0  0  0  0  0  0
  -25.9163   -9.5511    4.9804 C   0  0  0  0  0  0  0  0  0  0  0  0
  -25.7037   -9.5113    6.2431 N   0  0  0  0  0  0  0  0  0  0  0  0
  -25.0795  -10.2432    4.1881 N   0  0  0  0  0  0  0  0  0  0  0  0
  -23.0661   -6.2758    0.5736 N   0  0  0  0  0  0  0  0  0  0  0  0
  -21.6832   -6.4689    1.0494 C   0  0  2  0  0  0  0  0  0  0  0  0
  -21.3352   -7.4168    2.2215 C   0  0  0  0  0  0  0  0  0  0  0  0
  -22.0764   -7.4884    3.2066 O   0  0  0  0  0  0  0  0  0  0  0  0
  -20.8405   -5.1755    1.1091 C   0  0  0  0  0  0  0  0  0  0  0  0
  -19.3882   -5.3197    1.4903 C   0  0  0  0  0  0  0  0  0  0  0  0
  -18.6783   -6.4895    1.1737 C   0  0  0  0  0  0  0  0  0  0  0  0
  -18.7076   -4.2705    2.1237 C   0  0  0  0  0  0  0  0  0  0  0  0
  -17.3347   -6.6234    1.5231 C   0  0  0  0  0  0  0  0  0  0  0  0
  -17.3663   -4.4093    2.4824 C   0  0  0  0  0  0  0  0  0  0  0  0
  -16.6909   -5.5816    2.1810 C   0  0  0  0  0  0  0  0  0  0  0  0
  -15.3799   -5.6673    2.5374 O   0  0  0  0  0  0  0  0  0  0  0  0
  -20.2233   -8.2054    2.1181 N   0  0  0  0  0  0  0  0  0  0  0  0
  -19.2684   -8.3103    3.2242 C   0  0  2  0  0  0  0  0  0  0  0  0
  -17.8901   -7.7748    2.7914 C   0  0  0  0  0  0  0  0  0  0  0  0
  -17.7609   -6.6047    2.4425 O   0  0  0  0  0  0  0  0  0  0  0  0
  -19.2403   -9.7229    3.8290 C   0  0  0  0  0  0  0  0  0  0  0  0
  -20.4595   -9.9981    4.5280 O   0  0  0  0  0  0  0  0  0  0  0  0
  -16.8087   -8.6255    2.8943 N   0  0  0  0  0  0  0  0  0  0  0  0
  -15.4094   -8.1571    2.8017 C   0  0  2  0  0  0  0  0  0  0  0  0
  -14.3856   -9.2956    3.0791 C   0  0  0  0  0  0  0  0  0  0  0  0
  -14.5096  -10.0723    4.0160 O   0  0  0  0  0  0  0  0  0  0  0  0
  -15.1735   -7.0077    3.7996 C   0  0  0  0  0  0  0  0  0  0  0  0
  -15.6015   -5.6245    3.2864 C   0  0  0  0  0  0  0  0  0  0  0  0
  -14.5499   -4.5294    3.4745 C   0  0  0  0  0  0  0  0  0  0  0  0
  -14.8713   -3.3793    2.6378 N   0  0  0  0  0  0  0  0  0  0  0  0
  -15.3790   -2.2415    3.1598 C   0  0  0  0  0  0  0  0  0  0  0  0
  -15.4915   -1.2846    2.2106 N   0  0  0  0  0  0  0  0  0  0  0  0
  -15.7301   -2.0639    4.3809 N   0  0  0  0  0  0  0  0  0  0  0  0
  -14.7942   -8.9321    0.3146 C   0  0  0  0  0  0  0  0  0  0  0  0
  -13.2587   -9.2783    2.2748 N   0  0  0  0  0  0  0  0  0  0  0  0
  -14.9898   -8.0915   -0.5622 O   0  0  0  0  0  0  0  0  0  0  0  0
  -13.3547   -9.3258    0.8040 C   0  0  1  0  0  0  0  0  0  0  0  0
  -13.1388  -10.7730    0.2354 C   0  0  0  0  0  0  0  0  0  0  0  0
  -11.8502  -12.1906    2.0304 C   0  0  0  0  0  0  0  0  0  0  0  0
  -13.1328  -12.8058    2.5150 C   0  0  0  0  0  0  0  0  0  0  0  0
  -11.8847  -11.5754    0.6222 C   0  0  0  0  0  0  0  0  0  0  0  0
  -12.3053   -8.3703    0.2000 C   0  0  0  0  0  0  0  0  0  0  0  0
  -15.8142   -9.7070    0.8371 N   0  0  0  0  0  0  0  0  0  0  0  0
  -17.1293   -9.7405    0.2129 C   0  0  2  0  0  0  0  0  0  0  0  0
  -18.0428  -10.5802    1.1253 C   0  0  0  0  0  0  0  0  0  0  0  0
  -17.8223  -11.7611    1.3987 O   0  0  0  0  0  0  0  0  0  0  0  0
  -17.0808  -10.4108   -1.1742 C   0  0  0  0  0  0  0  0  0  0  0  0
  -16.2147  -11.6683   -1.1894 C   0  0  0  0  0  0  0  0  0  0  0  0
  -15.7465  -12.0543    0.1950 C   0  0  0  0  0  0  0  0  0  0  0  0
  -15.6438  -11.2836    1.1438 O   0  0  0  0  0  0  0  0  0  0  0  0
  -15.4363  -13.3764    0.3321 N   0  0  0  0  0  0  0  0  0  0  0  0
  -19.1693   -9.9805    1.6297 N   0  0  0  0  0  0  0  0  0  0  0  0
  -19.1177   -8.6943    2.3422 C   0  0  2  0  0  0  0  0  0  0  0  0
  -19.3966   -9.0128    3.8346 C   0  0  0  0  0  0  0  0  0  0  0  0
  -19.8664  -10.1091    4.1632 O   0  0  0  0  0  0  0  0  0  0  0  0
  -20.0517   -7.6382    1.7321 C   0  0  0  0  0  0  0  0  0  0  0  0
  -20.8671   -8.0548    0.4874 C   0  0  1  0  0  0  0  0  0  0  0  0
  -21.0793   -6.9164   -0.5068 C   0  0  0  0  0  0  0  0  0  0  0  0
  -20.1639   -9.2175   -0.2209 C   0  0  0  0  0  0  0  0  0  0  0  0
  -19.0562   -8.0233    4.7358 N   0  0  0  0  0  0  0  0  0  0  0  0
  -18.8027   -8.3263    6.1610 C   0  0  2  0  0  0  0  0  0  0  0  0
  -17.4529   -9.0914    6.1855 C   0  0  0  0  0  0  0  0  0  0  0  0
  -16.5652   -8.8093    5.3743 O   0  0  0  0  0  0  0  0  0  0  0  0
  -19.9635   -8.9743    6.9403 C   0  0  0  0  0  0  0  0  0  0  0  0
  -19.7619   -9.2089    8.4584 C   0  0  1  0  0  0  0  0  0  0  0  0
  -18.3112   -8.9864    8.9035 C   0  0  0  0  0  0  0  0  0  0  0  0
  -20.7069   -8.4043    9.3449 C   0  0  0  0  0  0  0  0  0  0  0  0
  -16.8503  -12.2726    8.1402 C   0  0  0  0  0  0  0  0  0  0  0  0
  -17.2522  -10.0072    7.2077 N   0  0  0  0  0  0  0  0  0  0  0  0
  -17.3469  -13.3923    8.2259 O   0  0  0  0  0  0  0  0  0  0  0  0
  -16.8629  -11.4075    6.8381 C   0  0  1  0  0  0  0  0  0  0  0  0
  -15.4358  -11.4706    6.2355 C   0  0  0  0  0  0  0  0  0  0  0  0
  -15.1490  -12.7899    4.0437 C   0  0  0  0  0  0  0  0  0  0  0  0
  -13.9143  -12.2101    3.4337 C   0  0  0  0  0  0  0  0  0  0  0  0
  -15.0318  -12.8054    5.5762 C   0  0  0  0  0  0  0  0  0  0  0  0
  -17.9241  -12.0062    5.9078 C   0  0  0  0  0  0  0  0  0  0  0  0
  -16.4220  -11.6228    9.2833 N   0  0  0  0  0  0  0  0  0  0  0  0
  -16.5698  -10.1661    9.3345 C   0  0  2  0  0  0  0  0  0  0  0  0
  -18.0378   -9.8341    8.9546 C   0  0  0  0  0  0  0  0  0  0  0  0
  -18.8429  -10.6997    8.6005 O   0  0  0  0  0  0  0  0  0  0  0  0
  -15.6268   -9.4447    8.3579 C   0  0  0  0  0  0  0  0  0  0  0  0
  -15.7663   -7.9457    8.4627 C   0  0  0  0  0  0  0  0  0  0  0  0
  -15.4727   -7.2953    9.6742 C   0  0  0  0  0  0  0  0  0  0  0  0
  -16.1282   -7.1780    7.3486 C   0  0  0  0  0  0  0  0  0  0  0  0
  -15.5218   -5.9046    9.7545 C   0  0  0  0  0  0  0  0  0  0  0  0
  -16.1690   -5.7832    7.4361 C   0  0  0  0  0  0  0  0  0  0  0  0
  -15.8543   -5.1507    8.6351 C   0  0  0  0  0  0  0  0  0  0  0  0
  -18.3874   -8.4900    9.0322 N   0  0  0  0  0  0  0  0  0  0  0  0
  -19.3991   -7.9617    8.1023 C   0  0  2  0  0  0  0  0  0  0  0  0
  -20.4465   -9.0524    7.7723 C   0  0  0  0  0  0  0  0  0  0  0  0
  -21.4062   -8.8278    7.0445 O   0  0  0  0  0  0  0  0  0  0  0  0
  -18.7596   -7.4582    6.7968 C   0  0  0  0  0  0  0  0  0  0  0  0
  -18.8065   -5.9257    6.6772 C   0  0  0  0  0  0  0  0  0  0  0  0
  -18.4368   -5.4412    5.2762 C   0  0  0  0  0  0  0  0  0  0  0  0
  -18.6592   -4.0111    5.1544 N   0  0  0  0  0  0  0  0  0  0  0  0
  -18.5066   -3.1681    6.2024 C   0  0  0  0  0  0  0  0  0  0  0  0
  -19.6108   -2.4231    6.4053 N   0  0  0  0  0  0  0  0  0  0  0  0
  -17.4579   -3.1020    6.9389 N   0  0  0  0  0  0  0  0  0  0  0  0
  -20.2022  -10.2785    8.3404 N   0  0  0  0  0  0  0  0  0  0  0  0
  -21.2054  -11.3299    8.3774 C   0  0  2  0  0  0  0  0  0  0  0  0
  -20.7838  -12.4919    9.3060 C   0  0  0  0  0  0  0  0  0  0  0  0
  -19.9577  -13.3930    8.7351 O   0  0  0  0  0  0  0  0  0  0  0  0
  -21.5557  -11.7650    6.9591 C   0  0  0  0  0  0  0  0  0  0  0  0
  -21.1668  -12.6614   10.4572 O   0  0  0  0  0  0  0  0  0  0  0  0
  -26.2907   -8.7946    6.6713 H   0  0  0  0  0  0  0  0  0  0  0  0
  -16.3437   -2.8355    4.6467 H   0  0  0  0  0  0  0  0  0  0  0  0
  -16.6249   -3.1939    6.3568 H   0  0  0  0  0  0  0  0  0  0  0  0
  1  2  2  0
  1  3  1  0
  4  1  1  0
  5  4  1  0
  6  5  1  0
  5  8  1  6
  6  7  2  0
 13  6  1  0
  8  9  1  0
  9 10  1  0
 10 11  1  0
 11 12  1  0
 14 13  1  0
 15 14  1  0
 14 17  1  1
 15 16  2  0
 22 15  1  0
 17 18  1  0
 18 19  1  0
 19 20  1  0
 20 21  1  0
 23 22  1  0
 24 23  1  0
 23 26  1  6
 24 25  2  0
 33 24  1  0
 26 27  1  0
 27 28  1  0
 28 29  1  0
 29 30  1  0
 30 31  2  0
 30 32  1  0
 34 33  1  0
 35 34  1  0
 34 37  1  1
 35 36  2  0
 45 35  1  0
 37 38  1  0
 38 39  2  0
 38 40  1  0
 39 41  1  0
 40 42  2  0
 41 43  2  0
 42 43  1  0
 43 44  1  0
 46 45  1  0
 47 46  1  0
 46 49  1  6
 47 48  2  0
 51 47  1  0
 49 50  1  0
 52 51  1  0
 53 52  1  0
 52 55  1  1
 53 54  2  0
 63 53  1  0
 55 56  1  0
 56 57  1  0
 57 58  1  0
 58 59  1  0
 59 60  1  0
 59 61  2  0
 62 64  2  0
 62 65  1  0
 71 62  1  0
 65 63  1  0
 65 66  1  0
 65 70  1  6
 66 69  1  0
 67 68  1  0
 69 67  1  0
 68102  2  0
 72 71  1  0
 73 72  1  0
 72 75  1  6
 73 74  2  0
 80 73  1  0
 75 76  1  0
 76 77  1  0
 77 78  2  0
 77 79  1  0
 81 80  1  0
 82 81  1  0
 81 84  1  6
 82 83  2  0
 88 82  1  0
 84 85  1  0
 85 86  1  6
 85 87  1  0
 89 88  1  0
 90 89  1  0
 89 92  1  6
 90 91  2  0
 97 90  1  0
 92 93  1  0
 93 94  1  1
 93 95  1  0
 96 98  2  0
 99 96  1  0
 96105  1  0
 97 99  1  0
 99100  1  0
 99104  1  6
100103  1  0
102101  1  0
101103  1  0
105106  1  0
106107  1  0
106109  1  6
107108  2  0
107116  1  0
109110  1  0
110111  2  0
110112  1  0
111113  1  0
112114  2  0
113115  2  0
114115  1  0
116117  1  0
117118  1  0
117120  1  6
118119  2  0
118127  1  0
120121  1  0
121122  1  0
122123  1  0
123124  1  0
124125  1  0
124126  2  0
127128  1  0
128129  1  0
128131  1  6
129130  1  0
129132  2  0
 31133  1  0
 61134  1  0
126135  1  0
M  CHG  2  12   1  21   1
M  END
$$$$
