
     RDKit          3D

135137  0  0  0  0  0  0  0  0999 V2000
  -32.3792   -4.4667    4.5900 C   0  0  0  0  0  0  0  0  0  0  0  0
  -32.8057   -3.5268    3.9193 O   0  0  0  0  0  0  0  0  0  0  0  0
  -32.5476   -4.5518    6.0816 C   0  0  0  0  0  0  0  0  0  0  0  0
  -31.7511   -5.5450    4.0340 N   0  0  0  0  0  0  0  0  0  0  0  0
  -31.2348   -6.6778    4.8115 C   0  0  2  0  0  0  0  0  0  0  0  0
  -29.7232   -6.4082    4.9718 C   0  0  0  0  0  0  0  0  0  0  0  0
  -29.1046   -5.5805    4.3182 O   0  0  0  0  0  0  0  0  0  0  0  0
  -31.5113   -8.0169    4.1243 C   0  0  0  0  0  0  0  0  0  0  0  0
  -31.1261   -8.1126    2.6356 C   0  0  0  0  0  0  0  0  0  0  0  0
  -29.9929   -9.0894    2.2851 C   0  0  0  0  0  0  0  0  0  0  0  0
  -29.5555   -9.1949    0.8270 C   0  0  0  0  0  0  0  0  0  0  0  0
  -28.1812   -9.7074    0.7064 N   0  0  0  0  0  4  0  0  0  0  0  0
  -29.1692   -7.1131    6.0280 N   0  0  0  0  0  0  0  0  0  0  0  0
  -27.7259   -7.0369    6.2751 C   0  0  2  0  0  0  0  0  0  0  0  0
  -26.8810   -7.2877    4.9963 C   0  0  0  0  0  0  0  0  0  0  0  0
  -27.2998   -7.9636    4.0552 O   0  0  0  0  0  0  0  0  0  0  0  0
  -27.3069   -8.0467    7.3614 C   0  0  0  0  0  0  0  0  0  0  0  0
  -28.3980   -9.0353    7.8157 C   0  0  0  0  0  0  0  0  0  0  0  0
  -29.1788   -8.5023    9.0210 C   0  0  0  0  0  0  0  0  0  0  0  0
  -30.1745   -9.5298    9.5357 C   0  0  0  0  0  0  0  0  0  0  0  0
  -30.8959   -8.9897   10.6952 N   0  0  0  0  0  4  0  0  0  0  0  0
  -25.6168   -6.7211    4.9983 N   0  0  0  0  0  0  0  0  0  0  0  0
  -24.7245   -6.8433    3.8385 C   0  0  2  0  0  0  0  0  0  0  0  0
  -23.5771   -7.8623    4.1322 C   0  0  0  0  0  0  0  0  0  0  0  0
  -23.3149   -8.2476    5.2665 O   0  0  0  0  0  0  0  0  0  0  0  0
  -24.1476   -5.4567    3.4873 C   0  0  0  0  0  0  0  0  0  0  0  0
  -24.3965   -5.0302    2.0381 C   0  0  0  0  0  0  0  0  0  0  0  0
  -24.0214   -3.5625    1.8352 C   0  0  0  0  0  0  0  0  0  0  0  0
  -24.6454   -3.0555    0.6290 N   0  0  0  0  0  0  0  0  0  0  0  0
  -24.9663   -1.7529    0.4588 C   0  0  0  0  0  0  0  0  0  0  0  0
  -25.1813   -1.1123   -0.6295 N   0  0  0  0  0  0  0  0  0  0  0  0
  -25.0710   -1.1139    1.6368 N   0  0  0  0  0  0  0  0  0  0  0  0
  -22.8840   -8.2971    3.0259 N   0  0  0  0  0  0  0  0  0  0  0  0
  -21.9930   -9.4705    2.9526 C   0  0  2  0  0  0  0  0  0  0  0  0
  -20.5021   -9.4052    3.3605 C   0  0  0  0  0  0  0  0  0  0  0  0
  -19.8171  -10.4324    3.3857 O   0  0  0  0  0  0  0  0  0  0  0  0
  -22.1892  -10.3453    1.6945 C   0  0  0  0  0  0  0  0  0  0  0  0
  -22.7047  -11.7469    1.9067 C   0  0  0  0  0  0  0  0  0  0  0  0
  -23.8972  -11.9708    2.6142 C   0  0  0  0  0  0  0  0  0  0  0  0
  -22.0298  -12.8475    1.3606 C   0  0  0  0  0  0  0  0  0  0  0  0
  -24.3767  -13.2659    2.8092 C   0  0  0  0  0  0  0  0  0  0  0  0
  -22.5045  -14.1435    1.5650 C   0  0  0  0  0  0  0  0  0  0  0  0
  -23.6712  -14.3436    2.2863 C   0  0  0  0  0  0  0  0  0  0  0  0
  -24.1041  -15.6239    2.4489 O   0  0  0  0  0  0  0  0  0  0  0  0
  -19.9524   -8.1851    3.6402 N   0  0  0  0  0  0  0  0  0  0  0  0
  -18.6660   -7.7880    3.0626 C   0  0  2  0  0  0  0  0  0  0  0  0
  -17.6102   -8.8827    3.3089 C   0  0  0  0  0  0  0  0  0  0  0  0
  -17.9340  -10.0670    3.3140 O   0  0  0  0  0  0  0  0  0  0  0  0
  -18.2411   -6.3818    3.5143 C   0  0  0  0  0  0  0  0  0  0  0  0
  -16.8268   -6.2099    3.3694 O   0  0  0  0  0  0  0  0  0  0  0  0
  -16.2935   -8.4894    3.4338 N   0  0  0  0  0  0  0  0  0  0  0  0
  -15.1589   -9.3556    3.0487 C   0  0  2  0  0  0  0  0  0  0  0  0
  -13.8192   -8.5691    2.9585 C   0  0  0  0  0  0  0  0  0  0  0  0
  -13.5400   -7.8612    2.0008 O   0  0  0  0  0  0  0  0  0  0  0  0
  -15.4468  -10.0255    1.6920 C   0  0  0  0  0  0  0  0  0  0  0  0
  -14.7138   -9.3881    0.5019 C   0  0  0  0  0  0  0  0  0  0  0  0
  -15.5322   -9.3399   -0.7897 C   0  0  0  0  0  0  0  0  0  0  0  0
  -15.5817   -7.9744   -1.2990 N   0  0  0  0  0  0  0  0  0  0  0  0
  -14.8028   -7.5713   -2.3264 C   0  0  0  0  0  0  0  0  0  0  0  0
  -14.7009   -8.5417   -3.2630 N   0  0  0  0  0  0  0  0  0  0  0  0
  -14.2342   -6.4265   -2.4367 N   0  0  0  0  0  0  0  0  0  0  0  0
  -14.5446  -10.5590    4.8052 C   0  0  0  0  0  0  0  0  0  0  0  0
  -12.9138   -8.8371    3.9712 N   0  0  0  0  0  0  0  0  0  0  0  0
  -14.7797  -11.7559    4.6442 O   0  0  0  0  0  0  0  0  0  0  0  0
  -13.0844   -9.9857    4.8803 C   0  0  1  0  0  0  0  0  0  0  0  0
  -12.9054   -9.5885    6.3885 C   0  0  0  0  0  0  0  0  0  0  0  0
  -11.5355   -7.3520    6.5049 C   0  0  0  0  0  0  0  0  0  0  0  0
  -12.7952   -6.5489    6.6669 C   0  0  0  0  0  0  0  0  0  0  0  0
  -11.6378   -8.8472    6.8465 C   0  0  0  0  0  0  0  0  0  0  0  0
  -12.0617  -11.0786    4.5079 C   0  0  0  0  0  0  0  0  0  0  0  0
  -15.5410   -9.6402    5.0820 N   0  0  0  0  0  0  0  0  0  0  0  0
  -16.8862  -10.0721    5.4345 C   0  0  2  0  0  0  0  0  0  0  0  0
  -17.7570   -8.8056    5.5353 C   0  0  0  0  0  0  0  0  0  0  0  0
  -17.5294   -7.8915    6.3292 O   0  0  0  0  0  0  0  0  0  0  0  0
  -16.9116  -10.7880    6.7992 C   0  0  0  0  0  0  0  0  0  0  0  0
  -17.9215  -11.9326    6.8438 C   0  0  0  0  0  0  0  0  0  0  0  0
  -18.8489  -11.9208    5.6504 C   0  0  0  0  0  0  0  0  0  0  0  0
  -19.6857  -12.7822    5.4004 O   0  0  0  0  0  0  0  0  0  0  0  0
  -18.6947  -10.8387    4.8329 N   0  0  0  0  0  0  0  0  0  0  0  0
  -18.8532   -8.7157    4.7147 N   0  0  0  0  0  0  0  0  0  0  0  0
  -18.7586   -8.9116    3.2597 C   0  0  2  0  0  0  0  0  0  0  0  0
  -18.9633   -7.5138    2.6188 C   0  0  0  0  0  0  0  0  0  0  0  0
  -19.4219   -6.5798    3.2881 O   0  0  0  0  0  0  0  0  0  0  0  0
  -19.7165   -9.9951    2.7415 C   0  0  0  0  0  0  0  0  0  0  0  0
  -19.7854  -10.2001    1.2115 C   0  0  1  0  0  0  0  0  0  0  0  0
  -21.0816   -9.6881    0.5894 C   0  0  0  0  0  0  0  0  0  0  0  0
  -18.5962   -9.4994    0.5460 C   0  0  0  0  0  0  0  0  0  0  0  0
  -18.5724   -7.3924    1.2999 N   0  0  0  0  0  0  0  0  0  0  0  0
  -18.2487   -6.0776    0.7050 C   0  0  2  0  0  0  0  0  0  0  0  0
  -16.9036   -5.6529    1.3517 C   0  0  0  0  0  0  0  0  0  0  0  0
  -16.0566   -6.5051    1.6379 O   0  0  0  0  0  0  0  0  0  0  0  0
  -19.3721   -5.0229    0.7223 C   0  0  0  0  0  0  0  0  0  0  0  0
  -20.5914   -5.2928    1.6393 C   0  0  1  0  0  0  0  0  0  0  0  0
  -21.1387   -6.7178    1.4911 C   0  0  0  0  0  0  0  0  0  0  0  0
  -20.3457   -4.9807    3.1119 C   0  0  0  0  0  0  0  0  0  0  0  0
  -16.2203   -2.2127    2.7666 C   0  0  0  0  0  0  0  0  0  0  0  0
  -16.6565   -4.2948    1.4868 N   0  0  0  0  0  0  0  0  0  0  0  0
  -15.8280   -1.4964    3.6835 O   0  0  0  0  0  0  0  0  0  0  0  0
  -16.2941   -3.7723    2.8451 C   0  0  1  0  0  0  0  0  0  0  0  0
  -14.8997   -4.2717    3.3032 C   0  0  0  0  0  0  0  0  0  0  0  0
  -14.7314   -5.2561    5.6759 C   0  0  0  0  0  0  0  0  0  0  0  0
  -13.5260   -6.1369    5.6152 C   0  0  0  0  0  0  0  0  0  0  0  0
  -14.5369   -4.0212    4.7814 C   0  0  0  0  0  0  0  0  0  0  0  0
  -17.4043   -4.1228    3.8423 C   0  0  0  0  0  0  0  0  0  0  0  0
  -16.8242   -1.6423    1.6609 N   0  0  0  0  0  0  0  0  0  0  0  0
  -17.2419   -2.5349    0.5768 C   0  0  2  0  0  0  0  0  0  0  0  0
  -18.5822   -1.9889    0.0154 C   0  0  0  0  0  0  0  0  0  0  0  0
  -19.5494   -1.7350    0.7384 O   0  0  0  0  0  0  0  0  0  0  0  0
  -17.4534   -3.9808    1.0541 C   0  0  0  0  0  0  0  0  0  0  0  0
  -18.9188   -4.2924    1.2361 C   0  0  0  0  0  0  0  0  0  0  0  0
  -19.8915   -3.3661    0.8205 C   0  0  0  0  0  0  0  0  0  0  0  0
  -19.3319   -5.5234    1.7614 C   0  0  0  0  0  0  0  0  0  0  0  0
  -21.2462   -3.6817    0.9119 C   0  0  0  0  0  0  0  0  0  0  0  0
  -20.6925   -5.8343    1.8438 C   0  0  0  0  0  0  0  0  0  0  0  0
  -21.6444   -4.9175    1.4079 C   0  0  0  0  0  0  0  0  0  0  0  0
  -18.6257   -1.8102   -1.3634 N   0  0  0  0  0  0  0  0  0  0  0  0
  -19.9310   -1.8300   -2.0440 C   0  0  2  0  0  0  0  0  0  0  0  0
  -20.1152   -0.5465   -2.8890 C   0  0  0  0  0  0  0  0  0  0  0  0
  -20.0148    0.5712   -2.3971 O   0  0  0  0  0  0  0  0  0  0  0  0
  -21.0906   -1.9496   -1.0402 C   0  0  0  0  0  0  0  0  0  0  0  0
  -21.6386   -0.5769   -0.6153 C   0  0  0  0  0  0  0  0  0  0  0  0
  -22.5161   -0.6631    0.6324 C   0  0  0  0  0  0  0  0  0  0  0  0
  -21.9177   -1.5460    1.6184 N   0  0  0  0  0  0  0  0  0  0  0  0
  -22.3277   -2.8260    1.7799 C   0  0  0  0  0  0  0  0  0  0  0  0
  -23.4747   -2.8950    2.4833 N   0  0  0  0  0  0  0  0  0  0  0  0
  -21.7249   -3.8515    1.2984 N   0  0  0  0  0  0  0  0  0  0  0  0
  -20.3780   -0.7635   -4.2193 N   0  0  0  0  0  0  0  0  0  0  0  0
  -21.5965   -1.4134   -4.6733 C   0  0  2  0  0  0  0  0  0  0  0  0
  -22.6751   -1.4465   -3.5662 C   0  0  0  0  0  0  0  0  0  0  0  0
  -22.6247   -2.5332   -2.7682 O   0  0  0  0  0  0  0  0  0  0  0  0
  -21.2688   -2.7810   -5.2613 C   0  0  0  0  0  0  0  0  0  0  0  0
  -23.5559   -0.6112   -3.4017 O   0  0  0  0  0  0  0  0  0  0  0  0
  -24.4558   -0.4078   -0.7665 H   0  0  0  0  0  0  0  0  0  0  0  0
  -13.7219   -6.4141   -3.3199 H   0  0  0  0  0  0  0  0  0  0  0  0
  -22.2931   -4.2662    0.5593 H   0  0  0  0  0  0  0  0  0  0  0  0
  1  2  2  0
  1  3  1  0
  4  1  1  0
  5  4  1  0
  6  5  1  0
  5  8  1  6
  6  7  2  0
 13  6  1  0
  8  9  1  0
  9 10  1  0
 10 11  1  0
 11 12  1  0
 14 13  1  0
 15 14  1  0
 14 17  1  1
 15 16  2  0
 22 15  1  0
 17 18  1  0
 18 19  1  0
 19 20  1  0
 20 21  1  0
 23 22  1  0
 24 23  1  0
 23 26  1  1
 24 25  2  0
 33 24  1  0
 26 27  1  0
 27 28  1  0
 28 29  1  0
 29 30  1  0
 30 31  2  0
 30 32  1  0
 34 33  1  0
 35 34  1  0
 34 37  1  6
 35 36  2  0
 45 35  1  0
 37 38  1  0
 38 39  2  0
 38 40  1  0
 39 41  1  0
 40 42  2  0
 41 43  2  0
 42 43  1  0
 43 44  1  0
 46 45  1  0
 47 46  1  0
 46 49  1  1
 47 48  2  0
 51 47  1  0
 49 50  1  0
 52 51  1  0
 53 52  1  0
 52 55  1  6
 53 54  2  0
 63 53  1  0
 55 56  1  0
 56 57  1  0
 57 58  1  0
 58 59  1  0
 59 60  1  0
 59 61  2  0
 62 64  2  0
 62 65  1  0
 71 62  1  0
 65 63  1  0
 65 66  1  0
 65 70  1  6
 66 69  1  0
 67 68  1  0
 69 67  1  0
 68102  2  0
 72 71  1  0
 73 72  1  0
 72 75  1  1
 73 74  2  0
 80 73  1  0
 75 76  1  0
 76 77  1  0
 77 78  2  0
 77 79  1  0
 81 80  1  0
 82 81  1  0
 81 84  1  6
 82 83  2  0
 88 82  1  0
 84 85  1  0
 85 86  1  6
 85 87  1  0
 89 88  1  0
 90 89  1  0
 89 92  1  1
 90 91  2  0
 97 90  1  0
 92 93  1  0
 93 94  1  1
 93 95  1  0
 96 98  2  0
 99 96  1  0
 96105  1  0
 97 99  1  0
 99100  1  0
 99104  1  1
100103  1  0
102101  1  0
101103  1  0
105106  1  0
106107  1  0
106109  1  1
107108  2  0
107116  1  0
109110  1  0
110111  2  0
110112  1  0
111113  1  0
112114  2  0
113115  2  0
114115  1  0
116117  1  0
117118  1  0
117120  1  1
118119  2  0
118127  1  0
120121  1  0
121122  1  0
122123  1  0
123124  1  0
124125  1  0
124126  2  0
127128  1  0
128129  1  0
128131  1  1
129130  1  0
129132  2  0
 31133  1  0
 61134  1  0
126135  1  0
M  CHG  2  12   1  21   1
M  END
$$$$
