
     RDKit          3D

135137  0  0  0  0  0  0  0  0999 V2000
  -19.7457   -5.9174    6.8487 C   0  0  0  0  0  0  0  0  0  0  0  0
  -20.6210   -5.1423    6.4634 O   0  0  0  0  0  0  0  0  0  0  0  0
  -20.0410   -7.3062    7.3435 C   0  0  0  0  0  0  0  0  0  0  0  0
  -18.4165   -5.6031    6.8197 N   0  0  0  0  0  0  0  0  0  0  0  0
  -17.7086   -5.1654    5.6109 C   0  0  2  0  0  0  0  0  0  0  0  0
  -17.1291   -6.4535    4.9877 C   0  0  0  0  0  0  0  0  0  0  0  0
  -16.1800   -6.4715    4.2172 O   0  0  0  0  0  0  0  0  0  0  0  0
  -16.6194   -4.1377    5.9261 C   0  0  0  0  0  0  0  0  0  0  0  0
  -15.6373   -3.8118    4.7846 C   0  0  0  0  0  0  0  0  0  0  0  0
  -14.5641   -4.8697    4.4844 C   0  0  0  0  0  0  0  0  0  0  0  0
  -14.9616   -6.0863    3.6535 C   0  0  0  0  0  0  0  0  0  0  0  0
  -14.3316   -6.0669    2.3236 N   0  0  0  0  0  4  0  0  0  0  0  0
  -17.7172   -7.5992    5.4984 N   0  0  0  0  0  0  0  0  0  0  0  0
  -17.4868   -8.8893    4.8410 C   0  0  2  0  0  0  0  0  0  0  0  0
  -18.4869   -9.1643    3.6850 C   0  0  0  0  0  0  0  0  0  0  0  0
  -19.0931   -8.2575    3.1121 O   0  0  0  0  0  0  0  0  0  0  0  0
  -17.5682  -10.0411    5.8618 C   0  0  0  0  0  0  0  0  0  0  0  0
  -17.8586  -11.4369    5.2773 C   0  0  0  0  0  0  0  0  0  0  0  0
  -16.8334  -12.4728    5.7489 C   0  0  0  0  0  0  0  0  0  0  0  0
  -17.1858  -13.8671    5.2552 C   0  0  0  0  0  0  0  0  0  0  0  0
  -16.0325  -14.7615    5.4179 N   0  0  0  0  0  4  0  0  0  0  0  0
  -18.6685  -10.4989    3.3607 N   0  0  0  0  0  0  0  0  0  0  0  0
  -19.0261  -10.9107    1.9972 C   0  0  2  0  0  0  0  0  0  0  0  0
  -20.0533   -9.9126    1.3728 C   0  0  0  0  0  0  0  0  0  0  0  0
  -19.8025   -8.7221    1.2191 O   0  0  0  0  0  0  0  0  0  0  0  0
  -19.6028  -12.3407    2.0284 C   0  0  0  0  0  0  0  0  0  0  0  0
  -18.5366  -13.4396    2.0355 C   0  0  0  0  0  0  0  0  0  0  0  0
  -18.4674  -14.1335    0.6755 C   0  0  0  0  0  0  0  0  0  0  0  0
  -18.6002  -15.5670    0.8452 N   0  0  0  0  0  0  0  0  0  0  0  0
  -18.9295  -16.1405    2.0247 C   0  0  0  0  0  0  0  0  0  0  0  0
  -19.9326  -15.9001    2.7845 N   0  0  0  0  0  0  0  0  0  0  0  0
  -18.0465  -17.0924    2.3727 N   0  0  0  0  0  0  0  0  0  0  0  0
  -21.2583  -10.4667    1.0066 N   0  0  0  0  0  0  0  0  0  0  0  0
  -22.4417   -9.7431    0.5047 C   0  0  2  0  0  0  0  0  0  0  0  0
  -22.5514   -8.2007    0.5527 C   0  0  0  0  0  0  0  0  0  0  0  0
  -21.6240   -7.4965    0.1417 O   0  0  0  0  0  0  0  0  0  0  0  0
  -23.7925  -10.4093    0.8485 C   0  0  0  0  0  0  0  0  0  0  0  0
  -24.8566  -10.3949   -0.2206 C   0  0  0  0  0  0  0  0  0  0  0  0
  -24.5080  -10.4884   -1.5779 C   0  0  0  0  0  0  0  0  0  0  0  0
  -26.2145  -10.3370    0.1228 C   0  0  0  0  0  0  0  0  0  0  0  0
  -25.4908  -10.4778   -2.5676 C   0  0  0  0  0  0  0  0  0  0  0  0
  -27.1965  -10.3158   -0.8682 C   0  0  0  0  0  0  0  0  0  0  0  0
  -26.8291  -10.3857   -2.2030 C   0  0  0  0  0  0  0  0  0  0  0  0
  -27.8214  -10.3759   -3.1348 O   0  0  0  0  0  0  0  0  0  0  0  0
  -23.7119   -7.6406    1.0096 N   0  0  0  0  0  0  0  0  0  0  0  0
  -24.0856   -6.2734    0.6390 C   0  0  2  0  0  0  0  0  0  0  0  0
  -22.8841   -5.3254    0.8166 C   0  0  0  0  0  0  0  0  0  0  0  0
  -21.7553   -5.6881    0.4977 O   0  0  0  0  0  0  0  0  0  0  0  0
  -25.3684   -5.8140    1.3498 C   0  0  0  0  0  0  0  0  0  0  0  0
  -26.1743   -6.9396    1.7166 O   0  0  0  0  0  0  0  0  0  0  0  0
  -23.1371   -4.0430    1.2586 N   0  0  0  0  0  0  0  0  0  0  0  0
  -22.0764   -3.0240    1.4093 C   0  0  2  0  0  0  0  0  0  0  0  0
  -22.4688   -1.9078    2.4200 C   0  0  0  0  0  0  0  0  0  0  0  0
  -22.5475   -2.1136    3.6232 O   0  0  0  0  0  0  0  0  0  0  0  0
  -21.7645   -2.3850    0.0430 C   0  0  0  0  0  0  0  0  0  0  0  0
  -20.3694   -1.7497   -0.0562 C   0  0  0  0  0  0  0  0  0  0  0  0
  -20.0060   -1.2420   -1.4529 C   0  0  0  0  0  0  0  0  0  0  0  0
  -18.7066   -0.5810   -1.4216 N   0  0  0  0  0  0  0  0  0  0  0  0
  -17.6737   -1.0097   -2.1794 C   0  0  0  0  0  0  0  0  0  0  0  0
  -18.0560   -1.1727   -3.4665 N   0  0  0  0  0  0  0  0  0  0  0  0
  -16.4780   -1.2284   -1.7690 N   0  0  0  0  0  0  0  0  0  0  0  0
  -25.2299   -1.5292    1.8855 C   0  0  0  0  0  0  0  0  0  0  0  0
  -22.8542   -0.7079    1.8465 N   0  0  0  0  0  0  0  0  0  0  0  0
  -26.3187   -1.1713    2.3330 O   0  0  0  0  0  0  0  0  0  0  0  0
  -24.1969   -0.5217    1.2656 C   0  0  1  0  0  0  0  0  0  0  0  0
  -24.2332   -0.8330   -0.2727 C   0  0  0  0  0  0  0  0  0  0  0  0
  -21.7907   -0.6523   -1.2180 C   0  0  0  0  0  0  0  0  0  0  0  0
  -21.6138   -2.1425   -1.1402 C   0  0  0  0  0  0  0  0  0  0  0  0
  -23.2409   -0.1425   -1.2238 C   0  0  0  0  0  0  0  0  0  0  0  0
  -24.6543    0.9308    1.5108 C   0  0  0  0  0  0  0  0  0  0  0  0
  -24.8863   -2.8628    1.7546 N   0  0  0  0  0  0  0  0  0  0  0  0
  -25.8800   -3.9152    1.9135 C   0  0  2  0  0  0  0  0  0  0  0  0
  -25.1317   -5.2596    1.8434 C   0  0  0  0  0  0  0  0  0  0  0  0
  -24.4829   -5.6204    0.8601 O   0  0  0  0  0  0  0  0  0  0  0  0
  -26.9254   -3.8824    0.7813 C   0  0  0  0  0  0  0  0  0  0  0  0
  -28.0709   -4.8659    1.0103 C   0  0  0  0  0  0  0  0  0  0  0  0
  -29.2192   -4.6353    0.0549 C   0  0  0  0  0  0  0  0  0  0  0  0
  -29.7991   -3.5662   -0.1038 O   0  0  0  0  0  0  0  0  0  0  0  0
  -29.5840   -5.7405   -0.6582 N   0  0  0  0  0  0  0  0  0  0  0  0
  -25.2227   -6.0999    2.9244 N   0  0  0  0  0  0  0  0  0  0  0  0
  -24.9223   -5.6490    4.2922 C   0  0  2  0  0  0  0  0  0  0  0  0
  -23.5841   -6.3262    4.6889 C   0  0  0  0  0  0  0  0  0  0  0  0
  -23.1408   -7.2719    4.0258 O   0  0  0  0  0  0  0  0  0  0  0  0
  -26.0788   -5.9048    5.2706 C   0  0  0  0  0  0  0  0  0  0  0  0
  -26.1081   -7.2760    5.9824 C   0  0  1  0  0  0  0  0  0  0  0  0
  -25.0914   -8.2692    5.4261 C   0  0  0  0  0  0  0  0  0  0  0  0
  -25.8542   -7.0816    7.4810 C   0  0  0  0  0  0  0  0  0  0  0  0
  -22.9344   -5.7836    5.7800 N   0  0  0  0  0  0  0  0  0  0  0  0
  -21.4823   -5.9706    5.9897 C   0  0  2  0  0  0  0  0  0  0  0  0
  -20.7943   -5.1080    4.8986 C   0  0  0  0  0  0  0  0  0  0  0  0
  -21.3050   -4.0434    4.5361 O   0  0  0  0  0  0  0  0  0  0  0  0
  -20.9901   -7.4256    6.1139 C   0  0  0  0  0  0  0  0  0  0  0  0
  -21.4686   -8.4358    5.0411 C   0  0  1  0  0  0  0  0  0  0  0  0
  -22.0640   -7.7487    3.8060 C   0  0  0  0  0  0  0  0  0  0  0  0
  -20.4056   -9.4428    4.6143 C   0  0  0  0  0  0  0  0  0  0  0  0
  -17.9474   -6.3139    2.7204 C   0  0  0  0  0  0  0  0  0  0  0  0
  -19.5521   -5.5221    4.4412 N   0  0  0  0  0  0  0  0  0  0  0  0
  -17.6285   -6.9237    1.7034 O   0  0  0  0  0  0  0  0  0  0  0  0
  -19.3643   -5.6998    2.9639 C   0  0  1  0  0  0  0  0  0  0  0  0
  -19.4101   -4.3466    2.2087 C   0  0  0  0  0  0  0  0  0  0  0  0
  -20.9191   -4.2196    0.1269 C   0  0  0  0  0  0  0  0  0  0  0  0
  -21.2151   -2.7619   -0.0145 C   0  0  0  0  0  0  0  0  0  0  0  0
  -19.4962   -4.4261    0.6705 C   0  0  0  0  0  0  0  0  0  0  0  0
  -20.3910   -6.7073    2.4340 C   0  0  0  0  0  0  0  0  0  0  0  0
  -17.1033   -6.3180    3.8158 N   0  0  0  0  0  0  0  0  0  0  0  0
  -15.6790   -6.5649    3.5771 C   0  0  2  0  0  0  0  0  0  0  0  0
  -14.9170   -6.1807    4.8738 C   0  0  0  0  0  0  0  0  0  0  0  0
  -13.7487   -5.7837    4.8633 O   0  0  0  0  0  0  0  0  0  0  0  0
  -15.1257   -5.7329    2.4088 C   0  0  0  0  0  0  0  0  0  0  0  0
  -16.1964   -4.8643    1.7949 C   0  0  0  0  0  0  0  0  0  0  0  0
  -15.9010   -4.0730    0.6709 C   0  0  0  0  0  0  0  0  0  0  0  0
  -17.5055   -4.8778    2.2926 C   0  0  0  0  0  0  0  0  0  0  0  0
  -16.9050   -3.3309    0.0510 C   0  0  0  0  0  0  0  0  0  0  0  0
  -18.5080   -4.1354    1.6611 C   0  0  0  0  0  0  0  0  0  0  0  0
  -18.2070   -3.3740    0.5357 C   0  0  0  0  0  0  0  0  0  0  0  0
  -15.6372   -6.3206    6.0556 N   0  0  0  0  0  0  0  0  0  0  0  0
  -15.7628   -7.6571    6.6600 C   0  0  2  0  0  0  0  0  0  0  0  0
  -15.8910   -8.7351    5.5569 C   0  0  0  0  0  0  0  0  0  0  0  0
  -16.9706   -9.0162    5.0502 O   0  0  0  0  0  0  0  0  0  0  0  0
  -16.9790   -7.7416    7.5984 C   0  0  0  0  0  0  0  0  0  0  0  0
  -17.4885   -6.3530    8.0197 C   0  0  0  0  0  0  0  0  0  0  0  0
  -17.0284   -5.9677    9.4248 C   0  0  0  0  0  0  0  0  0  0  0  0
  -18.1622   -5.5815   10.2462 N   0  0  0  0  0  0  0  0  0  0  0  0
  -18.3136   -4.3209   10.7156 C   0  0  0  0  0  0  0  0  0  0  0  0
  -17.8926   -4.2120   11.9909 N   0  0  0  0  0  0  0  0  0  0  0  0
  -18.7687   -3.3365   10.0296 N   0  0  0  0  0  0  0  0  0  0  0  0
  -14.7082   -9.3267    5.1872 N   0  0  0  0  0  0  0  0  0  0  0  0
  -14.0757  -10.3627    5.9871 C   0  0  2  0  0  0  0  0  0  0  0  0
  -14.8932  -11.6749    5.9755 C   0  0  0  0  0  0  0  0  0  0  0  0
  -14.4606  -12.5959    5.0894 O   0  0  0  0  0  0  0  0  0  0  0  0
  -13.7755   -9.8311    7.3838 C   0  0  0  0  0  0  0  0  0  0  0  0
  -15.8856  -11.9044    6.6559 O   0  0  0  0  0  0  0  0  0  0  0  0
  -20.6905  -15.4891    2.2387 H   0  0  0  0  0  0  0  0  0  0  0  0
  -16.3121   -0.6355   -0.9545 H   0  0  0  0  0  0  0  0  0  0  0  0
  -18.0851   -3.0688    9.3209 H   0  0  0  0  0  0  0  0  0  0  0  0
  1  2  2  0
  1  3  1  0
  4  1  1  0
  5  4  1  0
  6  5  1  0
  5  8  1  1
  6  7  2  0
 13  6  1  0
  8  9  1  0
  9 10  1  0
 10 11  1  0
 11 12  1  0
 14 13  1  0
 15 14  1  0
 14 17  1  1
 15 16  2  0
 22 15  1  0
 17 18  1  0
 18 19  1  0
 19 20  1  0
 20 21  1  0
 23 22  1  0
 24 23  1  0
 23 26  1  1
 24 25  2  0
 33 24  1  0
 26 27  1  0
 27 28  1  0
 28 29  1  0
 29 30  1  0
 30 31  2  0
 30 32  1  0
 34 33  1  0
 35 34  1  0
 34 37  1  1
 35 36  2  0
 45 35  1  0
 37 38  1  0
 38 39  2  0
 38 40  1  0
 39 41  1  0
 40 42  2  0
 41 43  2  0
 42 43  1  0
 43 44  1  0
 46 45  1  0
 47 46  1  0
 46 49  1  1
 47 48  2  0
 51 47  1  0
 49 50  1  0
 52 51  1  0
 53 52  1  0
 52 55  1  6
 53 54  2  0
 63 53  1  0
 55 56  1  0
 56 57  1  0
 57 58  1  0
 58 59  1  0
 59 60  1  0
 59 61  2  0
 62 64  2  0
 62 65  1  0
 71 62  1  0
 65 63  1  0
 65 66  1  0
 65 70  1  6
 66 69  1  0
 67 68  1  0
 69 67  1  0
 68102  2  0
 72 71  1  0
 73 72  1  0
 72 75  1  6
 73 74  2  0
 80 73  1  0
 75 76  1  0
 76 77  1  0
 77 78  2  0
 77 79  1  0
 81 80  1  0
 82 81  1  0
 81 84  1  1
 82 83  2  0
 88 82  1  0
 84 85  1  0
 85 86  1  6
 85 87  1  0
 89 88  1  0
 90 89  1  0
 89 92  1  6
 90 91  2  0
 97 90  1  0
 92 93  1  0
 93 94  1  6
 93 95  1  0
 96 98  2  0
 99 96  1  0
 96105  1  0
 97 99  1  0
 99100  1  0
 99104  1  6
100103  1  0
102101  1  0
101103  1  0
105106  1  0
106107  1  0
106109  1  6
107108  2  0
107116  1  0
109110  1  0
110111  2  0
110112  1  0
111113  1  0
112114  2  0
113115  2  0
114115  1  0
116117  1  0
117118  1  0
117120  1  1
118119  2  0
118127  1  0
120121  1  0
121122  1  0
122123  1  0
123124  1  0
124125  1  0
124126  2  0
127128  1  0
128129  1  0
128131  1  1
129130  1  0
129132  2  0
 31133  1  0
 61134  1  0
126135  1  0
M  CHG  2  12   1  21   1
M  END
$$$$
