
     RDKit          3D

135137  0  0  0  0  0  0  0  0999 V2000
  -30.1195  -10.1844    0.2329 C   0  0  0  0  0  0  0  0  0  0  0  0
  -30.8820  -11.1504    0.2051 O   0  0  0  0  0  0  0  0  0  0  0  0
  -28.6464  -10.3108    0.5058 C   0  0  0  0  0  0  0  0  0  0  0  0
  -30.5344   -8.9090   -0.0273 N   0  0  0  0  0  0  0  0  0  0  0  0
  -30.0983   -8.1321   -1.1937 C   0  0  2  0  0  0  0  0  0  0  0  0
  -29.2399   -6.9834   -0.6218 C   0  0  0  0  0  0  0  0  0  0  0  0
  -29.5848   -5.8104   -0.6182 O   0  0  0  0  0  0  0  0  0  0  0  0
  -31.2835   -7.6134   -2.0112 C   0  0  0  0  0  0  0  0  0  0  0  0
  -30.9572   -6.5800   -3.1064 C   0  0  0  0  0  0  0  0  0  0  0  0
  -30.9710   -7.0928   -4.5548 C   0  0  0  0  0  0  0  0  0  0  0  0
  -31.4580   -6.1490   -5.6506 C   0  0  0  0  0  0  0  0  0  0  0  0
  -31.4049   -6.7823   -6.9781 N   0  0  0  0  0  4  0  0  0  0  0  0
  -28.0932   -7.4419    0.0059 N   0  0  0  0  0  0  0  0  0  0  0  0
  -27.1775   -6.4855    0.6357 C   0  0  2  0  0  0  0  0  0  0  0  0
  -25.7424   -6.5458    0.0450 C   0  0  0  0  0  0  0  0  0  0  0  0
  -25.1184   -7.6033   -0.0561 O   0  0  0  0  0  0  0  0  0  0  0  0
  -27.1063   -6.7228    2.1568 C   0  0  0  0  0  0  0  0  0  0  0  0
  -26.8535   -5.4720    3.0203 C   0  0  0  0  0  0  0  0  0  0  0  0
  -26.8655   -5.8043    4.5156 C   0  0  0  0  0  0  0  0  0  0  0  0
  -28.0247   -5.1234    5.2262 C   0  0  0  0  0  0  0  0  0  0  0  0
  -27.5717   -3.8620    5.8264 N   0  0  0  0  0  4  0  0  0  0  0  0
  -25.2044   -5.3273   -0.3358 N   0  0  0  0  0  0  0  0  0  0  0  0
  -23.7561   -5.0878   -0.2980 C   0  0  2  0  0  0  0  0  0  0  0  0
  -23.2950   -4.7320    1.1518 C   0  0  0  0  0  0  0  0  0  0  0  0
  -24.0361   -4.8419    2.1226 O   0  0  0  0  0  0  0  0  0  0  0  0
  -23.3984   -3.9533   -1.2795 C   0  0  0  0  0  0  0  0  0  0  0  0
  -24.5346   -3.5783   -2.2348 C   0  0  0  0  0  0  0  0  0  0  0  0
  -24.0948   -2.4665   -3.1869 C   0  0  0  0  0  0  0  0  0  0  0  0
  -25.2343   -1.6470   -3.5491 N   0  0  0  0  0  0  0  0  0  0  0  0
  -25.1495   -0.6101   -4.4129 C   0  0  0  0  0  0  0  0  0  0  0  0
  -24.3206    0.3666   -4.4194 N   0  0  0  0  0  0  0  0  0  0  0  0
  -26.0841   -0.6937   -5.3755 N   0  0  0  0  0  0  0  0  0  0  0  0
  -21.9970   -4.2883    1.2601 N   0  0  0  0  0  0  0  0  0  0  0  0
  -21.0960   -4.4809    2.4121 C   0  0  2  0  0  0  0  0  0  0  0  0
  -19.6632   -3.8987    2.4494 C   0  0  0  0  0  0  0  0  0  0  0  0
  -19.1113   -3.5332    1.4069 O   0  0  0  0  0  0  0  0  0  0  0  0
  -21.1388   -5.8969    3.0284 C   0  0  0  0  0  0  0  0  0  0  0  0
  -20.3949   -6.1042    4.3241 C   0  0  0  0  0  0  0  0  0  0  0  0
  -21.0502   -5.9529    5.5571 C   0  0  0  0  0  0  0  0  0  0  0  0
  -19.0497   -6.4989    4.3212 C   0  0  0  0  0  0  0  0  0  0  0  0
  -20.3645   -6.1467    6.7561 C   0  0  0  0  0  0  0  0  0  0  0  0
  -18.3617   -6.6823    5.5211 C   0  0  0  0  0  0  0  0  0  0  0  0
  -19.0216   -6.5050    6.7271 C   0  0  0  0  0  0  0  0  0  0  0  0
  -18.3144   -6.7082    7.8724 O   0  0  0  0  0  0  0  0  0  0  0  0
  -19.0473   -3.7516    3.6611 N   0  0  0  0  0  0  0  0  0  0  0  0
  -17.8685   -2.8943    3.8080 C   0  0  2  0  0  0  0  0  0  0  0  0
  -16.8026   -3.5965    4.6709 C   0  0  0  0  0  0  0  0  0  0  0  0
  -16.3070   -3.0203    5.6352 O   0  0  0  0  0  0  0  0  0  0  0  0
  -18.2399   -1.4804    4.2824 C   0  0  0  0  0  0  0  0  0  0  0  0
  -18.4883   -1.4690    5.6927 O   0  0  0  0  0  0  0  0  0  0  0  0
  -16.4971   -4.9088    4.3734 N   0  0  0  0  0  0  0  0  0  0  0  0
  -15.4416   -5.6654    5.0801 C   0  0  2  0  0  0  0  0  0  0  0  0
  -14.6995   -6.6608    4.1421 C   0  0  0  0  0  0  0  0  0  0  0  0
  -14.9923   -6.7883    2.9612 O   0  0  0  0  0  0  0  0  0  0  0  0
  -16.0536   -6.4413    6.2616 C   0  0  0  0  0  0  0  0  0  0  0  0
  -15.1282   -7.5073    6.8675 C   0  0  0  0  0  0  0  0  0  0  0  0
  -15.5938   -8.0511    8.2196 C   0  0  0  0  0  0  0  0  0  0  0  0
  -16.7077   -8.9729    8.0305 N   0  0  0  0  0  0  0  0  0  0  0  0
  -17.2260   -9.6802    9.0580 C   0  0  0  0  0  0  0  0  0  0  0  0
  -17.3760   -8.8998   10.1525 N   0  0  0  0  0  0  0  0  0  0  0  0
  -17.5553  -10.9198    9.0292 N   0  0  0  0  0  0  0  0  0  0  0  0
  -14.7094   -7.9956    7.0517 C   0  0  0  0  0  0  0  0  0  0  0  0
  -13.7821   -7.4851    4.7714 N   0  0  0  0  0  0  0  0  0  0  0  0
  -14.5391   -8.8193    7.9496 O   0  0  0  0  0  0  0  0  0  0  0  0
  -13.5217   -7.3921    6.2200 C   0  0  1  0  0  0  0  0  0  0  0  0
  -13.4214   -5.9064    6.7171 C   0  0  0  0  0  0  0  0  0  0  0  0
  -12.8709   -4.3735    4.6582 C   0  0  0  0  0  0  0  0  0  0  0  0
  -14.3181   -3.9980    4.5075 C   0  0  0  0  0  0  0  0  0  0  0  0
  -12.4548   -4.9262    6.0308 C   0  0  0  0  0  0  0  0  0  0  0  0
  -12.2102   -8.1362    6.5444 C   0  0  0  0  0  0  0  0  0  0  0  0
  -15.9423   -7.4212    6.7990 N   0  0  0  0  0  0  0  0  0  0  0  0
  -17.0506   -7.5777    7.7304 C   0  0  2  0  0  0  0  0  0  0  0  0
  -18.2884   -6.9383    7.0735 C   0  0  0  0  0  0  0  0  0  0  0  0
  -18.3447   -5.7498    6.7539 O   0  0  0  0  0  0  0  0  0  0  0  0
  -16.7782   -6.8507    9.0619 C   0  0  0  0  0  0  0  0  0  0  0  0
  -16.5066   -5.3600    8.8728 C   0  0  0  0  0  0  0  0  0  0  0  0
  -17.5419   -4.6996    7.9917 C   0  0  0  0  0  0  0  0  0  0  0  0
  -18.5652   -4.1558    8.3939 O   0  0  0  0  0  0  0  0  0  0  0  0
  -17.2513   -4.7425    6.6587 N   0  0  0  0  0  0  0  0  0  0  0  0
  -19.3857   -7.7353    6.8648 N   0  0  0  0  0  0  0  0  0  0  0  0
  -19.2931   -9.0245    6.1619 C   0  0  2  0  0  0  0  0  0  0  0  0
  -19.9787   -8.8191    4.7855 C   0  0  0  0  0  0  0  0  0  0  0  0
  -20.6933   -7.8296    4.5839 O   0  0  0  0  0  0  0  0  0  0  0  0
  -19.8565  -10.1929    6.9848 C   0  0  0  0  0  0  0  0  0  0  0  0
  -20.1207  -11.5183    6.2357 C   0  0  1  0  0  0  0  0  0  0  0  0
  -20.5190  -12.6669    7.1585 C   0  0  0  0  0  0  0  0  0  0  0  0
  -21.2217  -11.3065    5.1912 C   0  0  0  0  0  0  0  0  0  0  0  0
  -19.7068   -9.7765    3.8281 N   0  0  0  0  0  0  0  0  0  0  0  0
  -19.8651   -9.4962    2.3845 C   0  0  2  0  0  0  0  0  0  0  0  0
  -18.7121   -8.5218    2.0254 C   0  0  0  0  0  0  0  0  0  0  0  0
  -17.6182   -8.6201    2.5906 O   0  0  0  0  0  0  0  0  0  0  0  0
  -21.2738   -9.0808    1.9180 C   0  0  0  0  0  0  0  0  0  0  0  0
  -22.1463   -8.2734    2.9116 C   0  0  1  0  0  0  0  0  0  0  0  0
  -22.7170   -9.1429    4.0388 C   0  0  0  0  0  0  0  0  0  0  0  0
  -21.4517   -7.0496    3.4998 C   0  0  0  0  0  0  0  0  0  0  0  0
  -19.1541   -5.3700   -0.0177 C   0  0  0  0  0  0  0  0  0  0  0  0
  -18.9259   -7.6294    0.9854 N   0  0  0  0  0  0  0  0  0  0  0  0
  -18.5343   -4.4203   -0.4886 O   0  0  0  0  0  0  0  0  0  0  0  0
  -18.7008   -6.1698    1.2467 C   0  0  1  0  0  0  0  0  0  0  0  0
  -17.2016   -5.8482    1.4758 C   0  0  0  0  0  0  0  0  0  0  0  0
  -16.6145   -4.4087    3.5276 C   0  0  0  0  0  0  0  0  0  0  0  0
  -15.1883   -4.7519    3.8117 C   0  0  0  0  0  0  0  0  0  0  0  0
  -16.8805   -4.4387    2.0140 C   0  0  0  0  0  0  0  0  0  0  0  0
  -19.5875   -5.7148    2.4115 C   0  0  0  0  0  0  0  0  0  0  0  0
  -20.4259   -5.6558   -0.4795 N   0  0  0  0  0  0  0  0  0  0  0  0
  -21.1013   -6.8339    0.0704 C   0  0  2  0  0  0  0  0  0  0  0  0
  -20.0135   -7.9057    0.3487 C   0  0  0  0  0  0  0  0  0  0  0  0
  -19.4933   -8.5715   -0.5507 O   0  0  0  0  0  0  0  0  0  0  0  0
  -22.1425   -7.4198   -0.8971 C   0  0  0  0  0  0  0  0  0  0  0  0
  -22.8160   -8.6366   -0.3112 C   0  0  0  0  0  0  0  0  0  0  0  0
  -23.8737   -8.4833    0.6024 C   0  0  0  0  0  0  0  0  0  0  0  0
  -22.4430   -9.9264   -0.7100 C   0  0  0  0  0  0  0  0  0  0  0  0
  -24.5525   -9.6010    1.0851 C   0  0  0  0  0  0  0  0  0  0  0  0
  -23.1331  -11.0418   -0.2258 C   0  0  0  0  0  0  0  0  0  0  0  0
  -24.1928  -10.8748    0.6606 C   0  0  0  0  0  0  0  0  0  0  0  0
  -19.6660   -8.0736    1.6851 N   0  0  0  0  0  0  0  0  0  0  0  0
  -18.6995   -9.1246    2.0438 C   0  0  2  0  0  0  0  0  0  0  0  0
  -19.4323  -10.3391    2.6629 C   0  0  0  0  0  0  0  0  0  0  0  0
  -19.7925  -10.3484    3.8340 O   0  0  0  0  0  0  0  0  0  0  0  0
  -17.6434   -8.6073    3.0356 C   0  0  0  0  0  0  0  0  0  0  0  0
  -16.2384   -8.5465    2.4128 C   0  0  0  0  0  0  0  0  0  0  0  0
  -16.0689   -7.3493    1.4789 C   0  0  0  0  0  0  0  0  0  0  0  0
  -14.7086   -7.2833    0.9740 N   0  0  0  0  0  0  0  0  0  0  0  0
  -13.8374   -6.3292    1.3780 C   0  0  0  0  0  0  0  0  0  0  0  0
  -14.0333   -5.9920    2.6676 N   0  0  0  0  0  0  0  0  0  0  0  0
  -12.9140   -5.8259    0.6428 N   0  0  0  0  0  0  0  0  0  0  0  0
  -19.6575  -11.3808    1.7970 N   0  0  0  0  0  0  0  0  0  0  0  0
  -18.6047  -12.3016    1.4008 C   0  0  2  0  0  0  0  0  0  0  0  0
  -17.5433  -12.4710    2.5121 C   0  0  0  0  0  0  0  0  0  0  0  0
  -16.3808  -13.0159    2.0972 O   0  0  0  0  0  0  0  0  0  0  0  0
  -18.0296  -11.8851    0.0519 C   0  0  0  0  0  0  0  0  0  0  0  0
  -17.6978  -12.1950    3.6955 O   0  0  0  0  0  0  0  0  0  0  0  0
  -23.3645    0.0101   -4.4329 H   0  0  0  0  0  0  0  0  0  0  0  0
  -16.9808  -11.3810    8.3222 H   0  0  0  0  0  0  0  0  0  0  0  0
  -12.7846   -6.4045   -0.1876 H   0  0  0  0  0  0  0  0  0  0  0  0
  1  2  2  0
  1  3  1  0
  4  1  1  0
  5  4  1  0
  6  5  1  0
  5  8  1  1
  6  7  2  0
 13  6  1  0
  8  9  1  0
  9 10  1  0
 10 11  1  0
 11 12  1  0
 14 13  1  0
 15 14  1  0
 14 17  1  1
 15 16  2  0
 22 15  1  0
 17 18  1  0
 18 19  1  0
 19 20  1  0
 20 21  1  0
 23 22  1  0
 24 23  1  0
 23 26  1  6
 24 25  2  0
 33 24  1  0
 26 27  1  0
 27 28  1  0
 28 29  1  0
 29 30  1  0
 30 31  2  0
 30 32  1  0
 34 33  1  0
 35 34  1  0
 34 37  1  6
 35 36  2  0
 45 35  1  0
 37 38  1  0
 38 39  2  0
 38 40  1  0
 39 41  1  0
 40 42  2  0
 41 43  2  0
 42 43  1  0
 43 44  1  0
 46 45  1  0
 47 46  1  0
 46 49  1  1
 47 48  2  0
 51 47  1  0
 49 50  1  0
 52 51  1  0
 53 52  1  0
 52 55  1  1
 53 54  2  0
 63 53  1  0
 55 56  1  0
 56 57  1  0
 57 58  1  0
 58 59  1  0
 59 60  1  0
 59 61  2  0
 62 64  2  0
 62 65  1  0
 71 62  1  0
 65 63  1  0
 65 66  1  0
 65 70  1  6
 66 69  1  0
 67 68  1  0
 69 67  1  0
 68102  2  0
 72 71  1  0
 73 72  1  0
 72 75  1  1
 73 74  2  0
 80 73  1  0
 75 76  1  0
 76 77  1  0
 77 78  2  0
 77 79  1  0
 81 80  1  0
 82 81  1  0
 81 84  1  1
 82 83  2  0
 88 82  1  0
 84 85  1  0
 85 86  1  1
 85 87  1  0
 89 88  1  0
 90 89  1  0
 89 92  1  1
 90 91  2  0
 97 90  1  0
 92 93  1  0
 93 94  1  1
 93 95  1  0
 96 98  2  0
 99 96  1  0
 96105  1  0
 97 99  1  0
 99100  1  0
 99104  1  1
100103  1  0
102101  1  0
101103  1  0
105106  1  0
106107  1  0
106109  1  6
107108  2  0
107116  1  0
109110  1  0
110111  2  0
110112  1  0
111113  1  0
112114  2  0
113115  2  0
114115  1  0
116117  1  0
117118  1  0
117120  1  1
118119  2  0
118127  1  0
120121  1  0
121122  1  0
122123  1  0
123124  1  0
124125  1  0
124126  2  0
127128  1  0
128129  1  0
128131  1  6
129130  1  0
129132  2  0
 31133  1  0
 61134  1  0
126135  1  0
M  CHG  2  12   1  21   1
M  END
$$$$
