
     RDKit          3D

 17 18  0  0  0  0  0  0  0  0999 V2000
   14.8515   20.7796   76.0526 C   0  0  2  0  0  0  0  0  0  0  0  0
   14.7440   19.3123   76.4389 C   0  0  0  0  0  0  0  0  0  0  0  0
   15.7185   17.1768   76.4008 C   0  0  0  0  0  0  0  0  0  0  0  0
   14.1315   21.5730   77.1216 C   0  0  0  0  0  0  0  0  0  0  0  0
   13.1610   23.5442   76.1900 C   0  0  0  0  0  0  0  0  0  0  0  0
   12.1192   24.5043   76.5570 C   0  0  0  0  0  0  0  0  0  0  0  0
   12.6721   25.7539   76.7476 C   0  0  0  0  0  0  0  0  0  0  0  0
   11.9265   26.8537   77.1002 C   0  0  0  0  0  0  0  0  0  0  0  0
   10.5608   26.7046   77.2725 C   0  0  0  0  0  0  0  0  0  0  0  0
   10.0051   25.4777   77.0872 C   0  0  0  0  0  0  0  0  0  0  0  0
   10.7667   24.3686   76.7302 C   0  0  0  0  0  0  0  0  0  0  0  0
    9.9054   23.1968   76.6023 C   0  0  0  0  0  0  0  0  0  0  0  0
   10.5484   21.8936   76.9284 C   0  0  0  0  0  0  0  0  0  0  0  0
   11.8968   22.0475   77.5949 C   0  0  0  0  0  0  0  0  0  0  0  0
   15.9143   18.5690   76.0504 N   0  0  0  0  0  4  0  0  0  0  0  0
   12.9292   22.1996   76.6096 N   0  0  2  0  0  4  0  0  0  0  0  0
   14.3427   21.0162   74.7890 O   0  0  0  0  0  0  0  0  0  0  0  0
  1  2  1  0
  4  1  1  0
  1 17  1  6
  2 15  1  0
 15  3  1  0
 16  4  1  1
  5  6  1  0
  5 16  1  0
  6  7  2  0
  6 11  1  0
  7  8  1  0
  8  9  2  0
  9 10  1  0
 10 11  2  0
 11 12  1  0
 12 13  1  0
 13 14  1  0
 14 16  1  0
M  CHG  2  15   1  16   1
M  END
$$$$
