
     RDKit          3D

 17 18  0  0  0  0  0  0  0  0999 V2000
   14.0701   19.1886   76.1198 C   0  0  2  0  0  0  0  0  0  0  0  0
   15.2594   20.0686   76.4729 C   0  0  0  0  0  0  0  0  0  0  0  0
   17.5743   20.3819   76.2393 C   0  0  0  0  0  0  0  0  0  0  0  0
   13.2370   19.0450   77.3751 C   0  0  0  0  0  0  0  0  0  0  0  0
   12.0808   20.3766   78.9829 C   0  0  0  0  0  0  0  0  0  0  0  0
   10.6963   20.7587   79.2642 C   0  0  0  0  0  0  0  0  0  0  0  0
   10.3048   20.2551   80.4876 C   0  0  0  0  0  0  0  0  0  0  0  0
    9.0500   20.4582   81.0110 C   0  0  0  0  0  0  0  0  0  0  0  0
    8.1365   21.2001   80.2815 C   0  0  0  0  0  0  0  0  0  0  0  0
    8.5114   21.7013   79.0745 C   0  0  0  0  0  0  0  0  0  0  0  0
    9.7840   21.4914   78.5510 C   0  0  0  0  0  0  0  0  0  0  0  0
    9.8982   22.1438   77.2500 C   0  0  0  0  0  0  0  0  0  0  0  0
   10.8215   21.4853   76.2847 C   0  0  0  0  0  0  0  0  0  0  0  0
   11.2638   20.1099   76.7305 C   0  0  0  0  0  0  0  0  0  0  0  0
   16.5112   19.3974   76.2369 N   0  0  0  0  0  4  0  0  0  0  0  0
   12.4000   20.2060   77.6021 N   0  0  2  0  0  4  0  0  0  0  0  0
   14.4691   17.9669   75.6101 O   0  0  0  0  0  0  0  0  0  0  0  0
  1  2  1  0
  4  1  1  0
  1 17  1  1
  2 15  1  0
 15  3  1  0
 16  4  1  1
  5  6  1  0
  5 16  1  0
  6  7  2  0
  6 11  1  0
  7  8  1  0
  8  9  2  0
  9 10  1  0
 10 11  2  0
 11 12  1  0
 12 13  1  0
 13 14  1  0
 14 16  1  0
M  CHG  2  15   1  16   1
M  END
$$$$
