
     RDKit          3D

 17 18  0  0  0  0  0  0  0  0999 V2000
   14.5919   18.9329   76.1262 C   0  0  2  0  0  0  0  0  0  0  0  0
   15.5214   20.0872   75.7836 C   0  0  0  0  0  0  0  0  0  0  0  0
   17.4944   20.7969   74.7277 C   0  0  0  0  0  0  0  0  0  0  0  0
   13.9707   19.2482   77.4699 C   0  0  0  0  0  0  0  0  0  0  0  0
   12.6954   21.1923   76.9321 C   0  0  0  0  0  0  0  0  0  0  0  0
   11.7483   22.0768   77.6122 C   0  0  0  0  0  0  0  0  0  0  0  0
   12.2741   23.3486   77.7105 C   0  0  0  0  0  0  0  0  0  0  0  0
   11.6016   24.3901   78.3045 C   0  0  0  0  0  0  0  0  0  0  0  0
   10.3413   24.1563   78.8280 C   0  0  0  0  0  0  0  0  0  0  0  0
    9.8132   22.9068   78.7368 C   0  0  0  0  0  0  0  0  0  0  0  0
   10.5003   21.8571   78.1338 C   0  0  0  0  0  0  0  0  0  0  0  0
    9.6913   20.6429   78.1823 C   0  0  0  0  0  0  0  0  0  0  0  0
   10.4575   19.3681   78.2585 C   0  0  0  0  0  0  0  0  0  0  0  0
   11.9272   19.5755   78.5469 C   0  0  0  0  0  0  0  0  0  0  0  0
   16.6733   19.6451   75.0414 N   0  0  0  0  0  4  0  0  0  0  0  0
   12.6474   19.8223   77.3303 N   0  0  2  0  0  4  0  0  0  0  0  0
   15.2568   17.7208   76.1250 O   0  0  0  0  0  0  0  0  0  0  0  0
  1  2  1  0
  4  1  1  0
  1 17  1  1
  2 15  1  0
 15  3  1  0
 16  4  1  1
  5  6  1  0
  5 16  1  0
  6  7  2  0
  6 11  1  0
  7  8  1  0
  8  9  2  0
  9 10  1  0
 10 11  2  0
 11 12  1  0
 12 13  1  0
 13 14  1  0
 14 16  1  0
M  CHG  2  15   1  16   1
M  END
$$$$
