
     RDKit          3D

 17 18  0  0  0  0  0  0  0  0999 V2000
   14.2239   20.6273   76.3131 C   0  0  2  0  0  0  0  0  0  0  0  0
   14.6203   19.1670   76.1584 C   0  0  0  0  0  0  0  0  0  0  0  0
   16.3513   17.5848   76.0500 C   0  0  0  0  0  0  0  0  0  0  0  0
   12.7173   20.6934   76.1845 C   0  0  0  0  0  0  0  0  0  0  0  0
   11.7680   21.2750   78.2953 C   0  0  0  0  0  0  0  0  0  0  0  0
   10.4892   21.7831   78.7938 C   0  0  0  0  0  0  0  0  0  0  0  0
    9.8936   20.8461   79.6128 C   0  0  0  0  0  0  0  0  0  0  0  0
    8.6799   21.0533   80.2240 C   0  0  0  0  0  0  0  0  0  0  0  0
    8.0235   22.2535   80.0107 C   0  0  0  0  0  0  0  0  0  0  0  0
    8.6011   23.1844   79.2055 C   0  0  0  0  0  0  0  0  0  0  0  0
    9.8306   22.9674   78.5900 C   0  0  0  0  0  0  0  0  0  0  0  0
   10.1976   24.1334   77.7919 C   0  0  0  0  0  0  0  0  0  0  0  0
   11.0220   23.8469   76.5851 C   0  0  0  0  0  0  0  0  0  0  0  0
   11.0998   22.3732   76.2558 C   0  0  0  0  0  0  0  0  0  0  0  0
   16.0447   18.9846   76.2638 N   0  0  0  0  0  4  0  0  0  0  0  0
   12.1522   21.7466   77.0039 N   0  0  2  0  0  4  0  0  0  0  0  0
   14.8667   21.4339   75.3924 O   0  0  0  0  0  0  0  0  0  0  0  0
  1  2  1  0
  4  1  1  0
  1 17  1  6
  2 15  1  0
 15  3  1  0
 16  4  1  6
  5  6  1  0
  5 16  1  0
  6  7  2  0
  6 11  1  0
  7  8  1  0
  8  9  2  0
  9 10  1  0
 10 11  2  0
 11 12  1  0
 12 13  1  0
 13 14  1  0
 14 16  1  0
M  CHG  2  15   1  16   1
M  END
$$$$
