
     RDKit          3D

 17 18  0  0  0  0  0  0  0  0999 V2000
   14.6794   19.0568   77.1273 C   0  0  2  0  0  0  0  0  0  0  0  0
   15.3572   19.2961   75.7868 C   0  0  0  0  0  0  0  0  0  0  0  0
   16.5276   18.3847   73.9672 C   0  0  0  0  0  0  0  0  0  0  0  0
   14.3900   20.4162   77.7263 C   0  0  0  0  0  0  0  0  0  0  0  0
   13.0315   21.8379   76.3741 C   0  0  0  0  0  0  0  0  0  0  0  0
   12.1210   22.9651   76.5795 C   0  0  0  0  0  0  0  0  0  0  0  0
   12.6234   24.0972   75.9715 C   0  0  0  0  0  0  0  0  0  0  0  0
   11.9761   25.3096   76.0010 C   0  0  0  0  0  0  0  0  0  0  0  0
   10.7670   25.4025   76.6692 C   0  0  0  0  0  0  0  0  0  0  0  0
   10.2623   24.2932   77.2720 C   0  0  0  0  0  0  0  0  0  0  0  0
   10.9236   23.0688   77.2378 C   0  0  0  0  0  0  0  0  0  0  0  0
   10.1493   22.0672   77.9646 C   0  0  0  0  0  0  0  0  0  0  0  0
   10.9484   20.9952   78.6204 C   0  0  0  0  0  0  0  0  0  0  0  0
   12.4311   21.2904   78.6438 C   0  0  0  0  0  0  0  0  0  0  0  0
   15.8598   18.0740   75.2149 N   0  0  0  0  0  4  0  0  0  0  0  0
   13.0469   20.8655   77.4190 N   0  0  2  0  0  4  0  0  0  0  0  0
   15.4523   18.2685   77.9596 O   0  0  0  0  0  0  0  0  0  0  0  0
  1  2  1  0
  4  1  1  0
  1 17  1  1
  2 15  1  0
 15  3  1  0
 16  4  1  1
  5  6  1  0
  5 16  1  0
  6  7  2  0
  6 11  1  0
  7  8  1  0
  8  9  2  0
  9 10  1  0
 10 11  2  0
 11 12  1  0
 12 13  1  0
 13 14  1  0
 14 16  1  0
M  CHG  2  15   1  16   1
M  END
$$$$
