
     RDKit          3D

 17 18  0  0  0  0  0  0  0  0999 V2000
   14.0535   20.3286   75.3813 C   0  0  2  0  0  0  0  0  0  0  0  0
   14.7453   19.6220   76.5371 C   0  0  0  0  0  0  0  0  0  0  0  0
   16.4954   18.2243   77.2404 C   0  0  0  0  0  0  0  0  0  0  0  0
   12.6536   20.6695   75.8445 C   0  0  0  0  0  0  0  0  0  0  0  0
   11.8954   21.4978   77.9503 C   0  0  0  0  0  0  0  0  0  0  0  0
   11.0479   22.5893   78.4323 C   0  0  0  0  0  0  0  0  0  0  0  0
    9.9305   22.0796   79.0611 C   0  0  0  0  0  0  0  0  0  0  0  0
    8.9567   22.8770   79.6139 C   0  0  0  0  0  0  0  0  0  0  0  0
    9.1001   24.2520   79.5384 C   0  0  0  0  0  0  0  0  0  0  0  0
   10.1973   24.7654   78.9210 C   0  0  0  0  0  0  0  0  0  0  0  0
   11.1793   23.9515   78.3635 C   0  0  0  0  0  0  0  0  0  0  0  0
   12.2301   24.7759   77.7742 C   0  0  0  0  0  0  0  0  0  0  0  0
   12.9214   24.1827   76.5960 C   0  0  0  0  0  0  0  0  0  0  0  0
   12.2258   22.9531   76.0570 C   0  0  0  0  0  0  0  0  0  0  0  0
   15.9422   18.9443   76.1113 N   0  0  0  0  0  4  0  0  0  0  0  0
   12.6491   21.7830   76.7720 N   0  0  2  0  0  4  0  0  0  0  0  0
   14.0552   19.5576   74.2336 O   0  0  0  0  0  0  0  0  0  0  0  0
  1  2  1  0
  4  1  1  0
  1 17  1  6
  2 15  1  0
 15  3  1  0
 16  4  1  6
  5  6  1  0
  5 16  1  0
  6  7  2  0
  6 11  1  0
  7  8  1  0
  8  9  2  0
  9 10  1  0
 10 11  2  0
 11 12  1  0
 12 13  1  0
 13 14  1  0
 14 16  1  0
M  CHG  2  15   1  16   1
M  END
$$$$
