
     RDKit          3D

 17 18  0  0  0  0  0  0  0  0999 V2000
   14.0020   19.0550   77.1614 C   0  0  2  0  0  0  0  0  0  0  0  0
   14.9829   19.5560   76.1122 C   0  0  0  0  0  0  0  0  0  0  0  0
   16.6837   19.0356   74.5801 C   0  0  0  0  0  0  0  0  0  0  0  0
   13.4236   20.2749   77.8454 C   0  0  0  0  0  0  0  0  0  0  0  0
   13.1248   22.1216   76.3636 C   0  0  0  0  0  0  0  0  0  0  0  0
   12.3062   23.3336   76.3103 C   0  0  0  0  0  0  0  0  0  0  0  0
   13.1119   24.4524   76.3617 C   0  0  0  0  0  0  0  0  0  0  0  0
   12.6133   25.7331   76.3286 C   0  0  0  0  0  0  0  0  0  0  0  0
   11.2433   25.9118   76.2398 C   0  0  0  0  0  0  0  0  0  0  0  0
   10.4395   24.8165   76.1885 C   0  0  0  0  0  0  0  0  0  0  0  0
   10.9518   23.5226   76.2225 C   0  0  0  0  0  0  0  0  0  0  0  0
    9.8603   22.5557   76.1520 C   0  0  0  0  0  0  0  0  0  0  0  0
   10.1046   21.2653   76.8542 C   0  0  0  0  0  0  0  0  0  0  0  0
   11.3280   21.2952   77.7422 C   0  0  0  0  0  0  0  0  0  0  0  0
   15.7600   18.4823   75.5496 N   0  0  0  0  0  4  0  0  0  0  0  0
   12.5073   20.9930   76.9822 N   0  0  2  0  0  4  0  0  0  0  0  0
   14.6037   18.1870   78.0535 O   0  0  0  0  0  0  0  0  0  0  0  0
  1  2  1  0
  4  1  1  0
  1 17  1  1
  2 15  1  0
 15  3  1  0
 16  4  1  1
  5  6  1  0
  5 16  1  0
  6  7  2  0
  6 11  1  0
  7  8  1  0
  8  9  2  0
  9 10  1  0
 10 11  2  0
 11 12  1  0
 12 13  1  0
 13 14  1  0
 14 16  1  0
M  CHG  2  15   1  16   1
M  END
$$$$
