
     RDKit          3D

 17 18  0  0  0  0  0  0  0  0999 V2000
   14.3461   20.7162   76.3966 C   0  0  2  0  0  0  0  0  0  0  0  0
   14.5610   19.2880   76.8738 C   0  0  0  0  0  0  0  0  0  0  0  0
   15.7856   17.2949   76.6756 C   0  0  0  0  0  0  0  0  0  0  0  0
   13.4402   21.3887   77.4054 C   0  0  0  0  0  0  0  0  0  0  0  0
   12.9306   23.4976   76.4113 C   0  0  0  0  0  0  0  0  0  0  0  0
   12.0199   24.6138   76.6692 C   0  0  0  0  0  0  0  0  0  0  0  0
   12.7390   25.7546   76.9611 C   0  0  0  0  0  0  0  0  0  0  0  0
   12.1425   26.9600   77.2457 C   0  0  0  0  0  0  0  0  0  0  0  0
   10.7601   27.0364   77.2402 C   0  0  0  0  0  0  0  0  0  0  0  0
   10.0413   25.9185   76.9539 C   0  0  0  0  0  0  0  0  0  0  0  0
   10.6524   24.7012   76.6666 C   0  0  0  0  0  0  0  0  0  0  0  0
    9.6362   23.6876   76.4001 C   0  0  0  0  0  0  0  0  0  0  0  0
   10.0117   22.2947   76.7701 C   0  0  0  0  0  0  0  0  0  0  0  0
   11.2700   22.2214   77.6053 C   0  0  0  0  0  0  0  0  0  0  0  0
   15.6302   18.6398   76.1597 N   0  0  0  0  0  4  0  0  0  0  0  0
   12.4316   22.2071   76.7626 N   0  0  2  0  0  4  0  0  0  0  0  0
   13.8286   20.7567   75.1152 O   0  0  0  0  0  0  0  0  0  0  0  0
  1  2  1  0
  4  1  1  0
  1 17  1  6
  2 15  1  0
 15  3  1  0
 16  4  1  1
  5  6  1  0
  5 16  1  0
  6  7  2  0
  6 11  1  0
  7  8  1  0
  8  9  2  0
  9 10  1  0
 10 11  2  0
 11 12  1  0
 12 13  1  0
 13 14  1  0
 14 16  1  0
M  CHG  2  15   1  16   1
M  END
$$$$
