
     RDKit          3D

 17 18  0  0  0  0  0  0  0  0999 V2000
   14.2361   20.8590   76.0673 C   0  0  2  0  0  0  0  0  0  0  0  0
   15.1929   19.8843   76.7369 C   0  0  0  0  0  0  0  0  0  0  0  0
   16.3868   17.8677   76.5978 C   0  0  0  0  0  0  0  0  0  0  0  0
   14.1538   22.0806   76.9568 C   0  0  0  0  0  0  0  0  0  0  0  0
   12.4498   23.1617   78.2308 C   0  0  0  0  0  0  0  0  0  0  0  0
   11.0681   22.8864   78.6272 C   0  0  0  0  0  0  0  0  0  0  0  0
   10.9851   22.7575   79.9984 C   0  0  0  0  0  0  0  0  0  0  0  0
    9.8048   22.4965   80.6531 C   0  0  0  0  0  0  0  0  0  0  0  0
    8.6468   22.3561   79.9072 C   0  0  0  0  0  0  0  0  0  0  0  0
    8.7168   22.4810   78.5551 C   0  0  0  0  0  0  0  0  0  0  0  0
    9.9158   22.7454   77.8992 C   0  0  0  0  0  0  0  0  0  0  0  0
    9.6856   22.8256   76.4598 C   0  0  0  0  0  0  0  0  0  0  0  0
   10.8292   22.4000   75.6060 C   0  0  0  0  0  0  0  0  0  0  0  0
   11.9237   21.7045   76.3837 C   0  0  0  0  0  0  0  0  0  0  0  0
   15.4405   18.7275   75.9162 N   0  0  0  0  0  4  0  0  0  0  0  0
   12.8281   22.6662   76.9466 N   0  0  2  0  0  4  0  0  0  0  0  0
   12.9975   20.2882   75.8407 O   0  0  0  0  0  0  0  0  0  0  0  0
  1  2  1  0
  4  1  1  0
  1 17  1  1
  2 15  1  0
 15  3  1  0
 16  4  1  1
  5  6  1  0
  5 16  1  0
  6  7  2  0
  6 11  1  0
  7  8  1  0
  8  9  2  0
  9 10  1  0
 10 11  2  0
 11 12  1  0
 12 13  1  0
 13 14  1  0
 14 16  1  0
M  CHG  2  15   1  16   1
M  END
$$$$
