
     RDKit          3D

 17 18  0  0  0  0  0  0  0  0999 V2000
   14.6138   20.4141   76.7373 C   0  0  2  0  0  0  0  0  0  0  0  0
   14.7213   18.9064   76.5666 C   0  0  0  0  0  0  0  0  0  0  0  0
   16.1067   17.0468   76.2010 C   0  0  0  0  0  0  0  0  0  0  0  0
   13.1752   20.7178   77.0961 C   0  0  0  0  0  0  0  0  0  0  0  0
   12.5274   22.7131   78.2338 C   0  0  0  0  0  0  0  0  0  0  0  0
   11.4060   23.6528   78.1989 C   0  0  0  0  0  0  0  0  0  0  0  0
   10.7262   23.6243   79.3992 C   0  0  0  0  0  0  0  0  0  0  0  0
    9.6249   24.4074   79.6516 C   0  0  0  0  0  0  0  0  0  0  0  0
    9.1754   25.2632   78.6605 C   0  0  0  0  0  0  0  0  0  0  0  0
    9.8376   25.2996   77.4736 C   0  0  0  0  0  0  0  0  0  0  0  0
   10.9522   24.5036   77.2253 C   0  0  0  0  0  0  0  0  0  0  0  0
   11.4501   24.7554   75.8763 C   0  0  0  0  0  0  0  0  0  0  0  0
   12.1048   23.5951   75.2107 C   0  0  0  0  0  0  0  0  0  0  0  0
   11.8923   22.2915   75.9467 C   0  0  0  0  0  0  0  0  0  0  0  0
   16.0786   18.4899   76.3268 N   0  0  0  0  0  4  0  0  0  0  0  0
   12.8773   22.1312   76.9781 N   0  0  2  0  0  4  0  0  0  0  0  0
   15.0277   21.0896   75.6043 O   0  0  0  0  0  0  0  0  0  0  0  0
  1  2  1  0
  4  1  1  0
  1 17  1  6
  2 15  1  0
 15  3  1  0
 16  4  1  1
  5  6  1  0
  5 16  1  0
  6  7  2  0
  6 11  1  0
  7  8  1  0
  8  9  2  0
  9 10  1  0
 10 11  2  0
 11 12  1  0
 12 13  1  0
 13 14  1  0
 14 16  1  0
M  CHG  2  15   1  16   1
M  END
$$$$
