
     RDKit          3D

 17 18  0  0  0  0  0  0  0  0999 V2000
   14.0602   18.9276   76.4138 C   0  0  2  0  0  0  0  0  0  0  0  0
   15.5463   18.9700   76.0922 C   0  0  0  0  0  0  0  0  0  0  0  0
   17.2411   19.7304   74.6567 C   0  0  0  0  0  0  0  0  0  0  0  0
   13.7940   20.0237   77.4230 C   0  0  0  0  0  0  0  0  0  0  0  0
   13.0696   22.1216   76.5459 C   0  0  0  0  0  0  0  0  0  0  0  0
   12.2658   23.2561   77.0027 C   0  0  0  0  0  0  0  0  0  0  0  0
   13.0469   24.3909   77.0777 C   0  0  0  0  0  0  0  0  0  0  0  0
   12.5548   25.6103   77.4786 C   0  0  0  0  0  0  0  0  0  0  0  0
   11.2174   25.7077   77.8230 C   0  0  0  0  0  0  0  0  0  0  0  0
   10.4380   24.5958   77.7529 C   0  0  0  0  0  0  0  0  0  0  0  0
   10.9435   23.3643   77.3460 C   0  0  0  0  0  0  0  0  0  0  0  0
    9.8828   22.3616   77.3684 C   0  0  0  0  0  0  0  0  0  0  0  0
   10.3260   20.9702   77.6606 C   0  0  0  0  0  0  0  0  0  0  0  0
   11.7545   20.8929   78.1500 C   0  0  0  0  0  0  0  0  0  0  0  0
   15.8231   19.7974   74.9468 N   0  0  0  0  0  4  0  0  0  0  0  0
   12.6633   20.8455   77.0402 N   0  0  2  0  0  4  0  0  0  0  0  0
   13.6697   17.6833   76.8727 O   0  0  0  0  0  0  0  0  0  0  0  0
  1  2  1  0
  4  1  1  0
  1 17  1  1
  2 15  1  0
 15  3  1  0
 16  4  1  1
  5  6  1  0
  5 16  1  0
  6  7  2  0
  6 11  1  0
  7  8  1  0
  8  9  2  0
  9 10  1  0
 10 11  2  0
 11 12  1  0
 12 13  1  0
 13 14  1  0
 14 16  1  0
M  CHG  2  15   1  16   1
M  END
$$$$
