
     RDKit          3D

 17 18  0  0  0  0  0  0  0  0999 V2000
   15.1120   20.4393   75.7793 C   0  0  2  0  0  0  0  0  0  0  0  0
   14.5619   19.1162   76.2897 C   0  0  0  0  0  0  0  0  0  0  0  0
   15.0147   16.9296   77.0141 C   0  0  0  0  0  0  0  0  0  0  0  0
   13.9291   21.2612   75.3147 C   0  0  0  0  0  0  0  0  0  0  0  0
   12.4144   21.4714   77.1468 C   0  0  0  0  0  0  0  0  0  0  0  0
   11.2621   22.3030   77.4969 C   0  0  0  0  0  0  0  0  0  0  0  0
   10.1295   21.5224   77.6048 C   0  0  0  0  0  0  0  0  0  0  0  0
    8.8959   22.0379   77.9247 C   0  0  0  0  0  0  0  0  0  0  0  0
    8.7812   23.3993   78.1491 C   0  0  0  0  0  0  0  0  0  0  0  0
    9.8907   24.1782   78.0456 C   0  0  0  0  0  0  0  0  0  0  0  0
   11.1367   23.6490   77.7212 C   0  0  0  0  0  0  0  0  0  0  0  0
   12.1330   24.7153   77.6831 C   0  0  0  0  0  0  0  0  0  0  0  0
   13.2548   24.5066   76.7260 C   0  0  0  0  0  0  0  0  0  0  0  0
   13.0149   23.3584   75.7719 C   0  0  0  0  0  0  0  0  0  0  0  0
   15.6130   18.1783   76.5874 N   0  0  0  0  0  4  0  0  0  0  0  0
   13.4210   22.1175   76.3676 N   0  0  2  0  0  4  0  0  0  0  0  0
   16.0494   20.2542   74.7801 O   0  0  0  0  0  0  0  0  0  0  0  0
  1  2  1  0
  4  1  1  0
  1 17  1  6
  2 15  1  0
 15  3  1  0
 16  4  1  6
  5  6  1  0
  5 16  1  0
  6  7  2  0
  6 11  1  0
  7  8  1  0
  8  9  2  0
  9 10  1  0
 10 11  2  0
 11 12  1  0
 12 13  1  0
 13 14  1  0
 14 16  1  0
M  CHG  2  15   1  16   1
M  END
$$$$
