
     RDKit          3D

 17 18  0  0  0  0  0  0  0  0999 V2000
   14.4142   20.5537   76.2978 C   0  0  2  0  0  0  0  0  0  0  0  0
   14.7177   19.0633   76.2827 C   0  0  0  0  0  0  0  0  0  0  0  0
   16.3454   17.3726   76.2237 C   0  0  0  0  0  0  0  0  0  0  0  0
   12.9340   20.7016   76.5760 C   0  0  0  0  0  0  0  0  0  0  0  0
   11.9446   22.0433   78.2838 C   0  0  0  0  0  0  0  0  0  0  0  0
   10.8143   22.9651   78.4048 C   0  0  0  0  0  0  0  0  0  0  0  0
    9.8820   22.4586   79.2868 C   0  0  0  0  0  0  0  0  0  0  0  0
    8.7140   23.1144   79.5958 C   0  0  0  0  0  0  0  0  0  0  0  0
    8.4586   24.3367   78.9977 C   0  0  0  0  0  0  0  0  0  0  0  0
    9.3703   24.8454   78.1268 C   0  0  0  0  0  0  0  0  0  0  0  0
   10.5510   24.1755   77.8189 C   0  0  0  0  0  0  0  0  0  0  0  0
   11.3289   24.9570   76.8621 C   0  0  0  0  0  0  0  0  0  0  0  0
   12.1755   24.1635   75.9286 C   0  0  0  0  0  0  0  0  0  0  0  0
   11.8677   22.6835   75.9608 C   0  0  0  0  0  0  0  0  0  0  0  0
   16.1342   18.8051   76.2757 N   0  0  0  0  0  4  0  0  0  0  0  0
   12.5995   22.0416   77.0154 N   0  0  2  0  0  4  0  0  0  0  0  0
   14.7918   21.1662   75.1172 O   0  0  0  0  0  0  0  0  0  0  0  0
  1  2  1  0
  4  1  1  0
  1 17  1  6
  2 15  1  0
 15  3  1  0
 16  4  1  6
  5  6  1  0
  5 16  1  0
  6  7  2  0
  6 11  1  0
  7  8  1  0
  8  9  2  0
  9 10  1  0
 10 11  2  0
 11 12  1  0
 12 13  1  0
 13 14  1  0
 14 16  1  0
M  CHG  2  15   1  16   1
M  END
$$$$
