
     RDKit          3D

 17 18  0  0  0  0  0  0  0  0999 V2000
   14.4540   18.9739   77.1164 C   0  0  2  0  0  0  0  0  0  0  0  0
   15.6326   19.4771   76.2971 C   0  0  0  0  0  0  0  0  0  0  0  0
   17.4074   18.9570   74.8511 C   0  0  0  0  0  0  0  0  0  0  0  0
   14.0070   20.1191   77.9992 C   0  0  0  0  0  0  0  0  0  0  0  0
   13.2431   21.9599   76.6866 C   0  0  0  0  0  0  0  0  0  0  0  0
   12.4107   23.1473   76.8845 C   0  0  0  0  0  0  0  0  0  0  0  0
   13.1659   24.2894   76.7142 C   0  0  0  0  0  0  0  0  0  0  0  0
   12.6436   25.5547   76.8402 C   0  0  0  0  0  0  0  0  0  0  0  0
   11.3016   25.6930   77.1514 C   0  0  0  0  0  0  0  0  0  0  0  0
   10.5478   24.5744   77.3215 C   0  0  0  0  0  0  0  0  0  0  0  0
   11.0838   23.2962   77.1923 C   0  0  0  0  0  0  0  0  0  0  0  0
   10.0454   22.2975   77.4282 C   0  0  0  0  0  0  0  0  0  0  0  0
   10.5171   21.0131   78.0161 C   0  0  0  0  0  0  0  0  0  0  0  0
   11.9431   21.0770   78.5148 C   0  0  0  0  0  0  0  0  0  0  0  0
   16.2825   18.4096   75.5820 N   0  0  0  0  0  4  0  0  0  0  0  0
   12.8615   20.8119   77.4442 N   0  0  2  0  0  4  0  0  0  0  0  0
   14.7798   17.8444   77.8441 O   0  0  0  0  0  0  0  0  0  0  0  0
  1  2  1  0
  4  1  1  0
  1 17  1  1
  2 15  1  0
 15  3  1  0
 16  4  1  1
  5  6  1  0
  5 16  1  0
  6  7  2  0
  6 11  1  0
  7  8  1  0
  8  9  2  0
  9 10  1  0
 10 11  2  0
 11 12  1  0
 12 13  1  0
 13 14  1  0
 14 16  1  0
M  CHG  2  15   1  16   1
M  END
$$$$
