
     RDKit          3D

 17 18  0  0  0  0  0  0  0  0999 V2000
   14.8680   20.4999   75.2996 C   0  0  2  0  0  0  0  0  0  0  0  0
   14.5951   19.4331   76.3489 C   0  0  0  0  0  0  0  0  0  0  0  0
   15.3100   17.4504   77.3830 C   0  0  0  0  0  0  0  0  0  0  0  0
   13.5815   21.2742   75.1100 C   0  0  0  0  0  0  0  0  0  0  0  0
   12.6815   21.1347   77.3158 C   0  0  0  0  0  0  0  0  0  0  0  0
   11.5120   21.6455   78.0323 C   0  0  0  0  0  0  0  0  0  0  0  0
   10.7054   20.5991   78.4300 C   0  0  0  0  0  0  0  0  0  0  0  0
    9.5340   20.7826   79.1255 C   0  0  0  0  0  0  0  0  0  0  0  0
    9.1432   22.0725   79.4426 C   0  0  0  0  0  0  0  0  0  0  0  0
    9.9303   23.1114   79.0558 C   0  0  0  0  0  0  0  0  0  0  0  0
   11.1153   22.9177   78.3516 C   0  0  0  0  0  0  0  0  0  0  0  0
   11.7436   24.2061   78.0752 C   0  0  0  0  0  0  0  0  0  0  0  0
   12.5431   24.2701   76.8204 C   0  0  0  0  0  0  0  0  0  0  0  0
   12.3352   23.0714   75.9225 C   0  0  0  0  0  0  0  0  0  0  0  0
   15.6944   18.5118   76.4746 N   0  0  0  0  0  4  0  0  0  0  0  0
   13.2070   21.9985   76.3081 N   0  0  2  0  0  4  0  0  0  0  0  0
   15.3311   19.9510   74.1182 O   0  0  0  0  0  0  0  0  0  0  0  0
  1  2  1  0
  4  1  1  0
  1 17  1  6
  2 15  1  0
 15  3  1  0
 16  4  1  6
  5  6  1  0
  5 16  1  0
  6  7  2  0
  6 11  1  0
  7  8  1  0
  8  9  2  0
  9 10  1  0
 10 11  2  0
 11 12  1  0
 12 13  1  0
 13 14  1  0
 14 16  1  0
M  CHG  2  15   1  16   1
M  END
$$$$
