
     RDKit          3D

 17 18  0  0  0  0  0  0  0  0999 V2000
   14.3646   20.5017   76.0421 C   0  0  2  0  0  0  0  0  0  0  0  0
   15.1330   19.3336   76.6412 C   0  0  0  0  0  0  0  0  0  0  0  0
   16.1887   17.2664   76.2895 C   0  0  0  0  0  0  0  0  0  0  0  0
   13.9024   21.3660   77.1953 C   0  0  0  0  0  0  0  0  0  0  0  0
   12.4927   22.9492   76.0992 C   0  0  0  0  0  0  0  0  0  0  0  0
   11.5889   24.0323   76.4890 C   0  0  0  0  0  0  0  0  0  0  0  0
   12.0668   25.2396   76.0224 C   0  0  0  0  0  0  0  0  0  0  0  0
   11.4194   26.4326   76.2400 C   0  0  0  0  0  0  0  0  0  0  0  0
   10.2358   26.4263   76.9583 C   0  0  0  0  0  0  0  0  0  0  0  0
    9.7554   25.2423   77.4230 C   0  0  0  0  0  0  0  0  0  0  0  0
   10.4167   24.0381   77.1987 C   0  0  0  0  0  0  0  0  0  0  0  0
    9.6712   22.9422   77.8106 C   0  0  0  0  0  0  0  0  0  0  0  0
   10.4956   21.7963   78.2850 C   0  0  0  0  0  0  0  0  0  0  0  0
   11.9777   22.0951   78.2941 C   0  0  0  0  0  0  0  0  0  0  0  0
   15.4831   18.3552   75.6445 N   0  0  0  0  0  4  0  0  0  0  0  0
   12.5482   21.8442   77.0012 N   0  0  2  0  0  4  0  0  0  0  0  0
   13.3146   20.0735   75.2512 O   0  0  0  0  0  0  0  0  0  0  0  0
  1  2  1  0
  4  1  1  0
  1 17  1  1
  2 15  1  0
 15  3  1  0
 16  4  1  1
  5  6  1  0
  5 16  1  0
  6  7  2  0
  6 11  1  0
  7  8  1  0
  8  9  2  0
  9 10  1  0
 10 11  2  0
 11 12  1  0
 12 13  1  0
 13 14  1  0
 14 16  1  0
M  CHG  2  15   1  16   1
M  END
$$$$
