
     RDKit          3D

 17 18  0  0  0  0  0  0  0  0999 V2000
   14.7785   18.9380   76.6282 C   0  0  2  0  0  0  0  0  0  0  0  0
   15.8444   19.9837   76.3380 C   0  0  0  0  0  0  0  0  0  0  0  0
   17.1618   21.0790   74.7330 C   0  0  0  0  0  0  0  0  0  0  0  0
   14.0559   19.3784   77.8830 C   0  0  0  0  0  0  0  0  0  0  0  0
   12.6762   21.2982   77.5577 C   0  0  0  0  0  0  0  0  0  0  0  0
   11.5086   21.9024   78.2008 C   0  0  0  0  0  0  0  0  0  0  0  0
   11.8387   23.1382   78.7179 C   0  0  0  0  0  0  0  0  0  0  0  0
   10.9351   23.9358   79.3790 C   0  0  0  0  0  0  0  0  0  0  0  0
    9.6362   23.4825   79.5347 C   0  0  0  0  0  0  0  0  0  0  0  0
    9.2996   22.2661   79.0292 C   0  0  0  0  0  0  0  0  0  0  0  0
   10.2202   21.4639   78.3608 C   0  0  0  0  0  0  0  0  0  0  0  0
    9.5785   20.2245   77.9328 C   0  0  0  0  0  0  0  0  0  0  0  0
   10.4699   19.0332   77.8694 C   0  0  0  0  0  0  0  0  0  0  0  0
   11.8148   19.2631   78.5211 C   0  0  0  0  0  0  0  0  0  0  0  0
   16.1380   20.0732   74.9312 N   0  0  0  0  0  4  0  0  0  0  0  0
   12.7246   19.8720   77.5930 N   0  0  2  0  0  4  0  0  0  0  0  0
   15.3211   17.6722   76.7498 O   0  0  0  0  0  0  0  0  0  0  0  0
  1  2  1  0
  4  1  1  0
  1 17  1  1
  2 15  1  0
 15  3  1  0
 16  4  1  1
  5  6  1  0
  5 16  1  0
  6  7  2  0
  6 11  1  0
  7  8  1  0
  8  9  2  0
  9 10  1  0
 10 11  2  0
 11 12  1  0
 12 13  1  0
 13 14  1  0
 14 16  1  0
M  CHG  2  15   1  16   1
M  END
$$$$
