
     RDKit          3D

 17 18  0  0  0  0  0  0  0  0999 V2000
   14.9287   20.5797   76.0824 C   0  0  2  0  0  0  0  0  0  0  0  0
   15.1097   19.2174   76.7344 C   0  0  0  0  0  0  0  0  0  0  0  0
   15.8976   17.0147   76.5378 C   0  0  0  0  0  0  0  0  0  0  0  0
   14.3658   21.5053   77.1393 C   0  0  0  0  0  0  0  0  0  0  0  0
   13.1461   23.1934   75.9739 C   0  0  0  0  0  0  0  0  0  0  0  0
   12.1858   24.2466   76.3063 C   0  0  0  0  0  0  0  0  0  0  0  0
   12.7278   25.4856   76.0330 C   0  0  0  0  0  0  0  0  0  0  0  0
   12.0480   26.6610   76.2478 C   0  0  0  0  0  0  0  0  0  0  0  0
   10.7633   26.6028   76.7606 C   0  0  0  0  0  0  0  0  0  0  0  0
   10.2191   25.3872   77.0337 C   0  0  0  0  0  0  0  0  0  0  0  0
   10.9137   24.2011   76.8135 C   0  0  0  0  0  0  0  0  0  0  0  0
   10.0836   23.0627   77.1960 C   0  0  0  0  0  0  0  0  0  0  0  0
   10.8250   21.8711   77.6943 C   0  0  0  0  0  0  0  0  0  0  0  0
   12.2845   22.1533   77.9708 C   0  0  0  0  0  0  0  0  0  0  0  0
   15.7793   18.2898   75.8601 N   0  0  0  0  0  4  0  0  0  0  0  0
   13.0591   22.0123   76.7709 N   0  0  2  0  0  4  0  0  0  0  0  0
   14.1229   20.5090   74.9612 O   0  0  0  0  0  0  0  0  0  0  0  0
  1  2  1  0
  4  1  1  0
  1 17  1  6
  2 15  1  0
 15  3  1  0
 16  4  1  1
  5  6  1  0
  5 16  1  0
  6  7  2  0
  6 11  1  0
  7  8  1  0
  8  9  2  0
  9 10  1  0
 10 11  2  0
 11 12  1  0
 12 13  1  0
 13 14  1  0
 14 16  1  0
M  CHG  2  15   1  16   1
M  END
$$$$
