
     RDKit          3D

 27 29  0  0  0  0  0  0  0  0999 V2000
    0.6786   10.0311   25.4665 C   0  0  0  0  0  0  0  0  0  0  0  0
   -0.0976   10.8691   24.6570 C   0  0  0  0  0  0  0  0  0  0  0  0
   -1.4226   11.0652   24.9681 C   0  0  0  0  0  0  0  0  0  0  0  0
    1.9598   10.7842   23.8644 C   0  0  0  0  0  0  0  0  0  0  0  0
   -1.9696   10.4626   26.0338 N   0  0  0  0  0  0  0  0  0  0  0  0
    0.0544    9.4697   26.5094 N   0  0  0  0  0  0  0  0  0  0  0  0
    4.9857    7.3839   23.7632 C   0  0  0  0  0  0  0  0  0  0  0  0
    3.5025    7.3561   23.9100 C   0  0  0  0  0  0  0  0  0  0  0  0
    2.9816    7.7950   25.2257 C   0  0  0  0  0  0  0  0  0  0  0  0
    3.0316    9.2492   25.5256 C   0  0  0  0  0  0  0  0  0  0  0  0
    1.9254   10.0022   24.9557 N   0  0  0  0  0  0  0  0  0  0  0  0
   -1.2183    9.6471   26.8230 C   0  0  0  0  0  0  0  0  0  0  0  0
   -2.2272   11.9069   24.1663 N   0  0  0  0  0  0  0  0  0  0  0  0
    0.7198   11.3064   23.6943 N   0  0  0  0  0  0  0  0  0  0  0  0
    3.0964   11.0663   22.9595 C   0  0  0  0  0  0  0  0  0  0  0  0
    4.2278   11.7557   23.6132 C   0  0  0  0  0  0  0  0  0  0  0  0
    5.5166   11.2879   23.5312 C   0  0  0  0  0  0  0  0  0  0  0  0
    4.0091   12.9097   24.3300 C   0  0  0  0  0  0  0  0  0  0  0  0
    5.0066   13.6090   24.9607 C   0  0  0  0  0  0  0  0  0  0  0  0
    4.7576   14.7691   25.6762 O   0  0  0  0  0  0  0  0  0  0  0  0
    3.4521   15.3093   25.7833 C   0  0  0  0  0  0  0  0  0  0  0  0
    6.2949   13.1321   24.8724 C   0  0  0  0  0  0  0  0  0  0  0  0
    7.3648   13.7940   25.4910 O   0  0  0  0  0  0  0  0  0  0  0  0
    7.6729   15.1215   25.0752 C   0  0  0  0  0  0  0  0  0  0  0  0
    6.5607   11.9770   24.1631 C   0  0  0  0  0  0  0  0  0  0  0  0
    7.8729   11.5290   24.0979 O   0  0  0  0  0  0  0  0  0  0  0  0
    8.3787   10.7514   23.0523 C   0  0  0  0  0  0  0  0  0  0  0  0
  1  2  1  0
  1  6  2  0
 11  1  1  0
  2  3  2  0
 14  2  1  0
  3  5  1  0
  3 13  1  0
 11  4  1  0
  4 14  2  0
  4 15  1  0
 12  5  2  0
  6 12  1  0
  8  7  1  0
  9  8  1  0
 10  9  1  0
 10 11  1  0
 15 16  1  0
 16 17  2  0
 16 18  1  0
 17 25  1  0
 18 19  2  0
 19 20  1  0
 19 22  1  0
 20 21  1  0
 22 23  1  0
 22 25  2  0
 23 24  1  0
 25 26  1  0
 26 27  1  0
M  END
$$$$
