
     RDKit          3D

 27 29  0  0  0  0  0  0  0  0999 V2000
    0.5037   10.1261   25.5745 C   0  0  0  0  0  0  0  0  0  0  0  0
   -0.1186   11.1433   24.8409 C   0  0  0  0  0  0  0  0  0  0  0  0
   -1.3871   11.5436   25.1895 C   0  0  0  0  0  0  0  0  0  0  0  0
    1.8877   10.7599   24.0065 C   0  0  0  0  0  0  0  0  0  0  0  0
   -2.0250   10.9691   26.2196 N   0  0  0  0  0  0  0  0  0  0  0  0
   -0.2031    9.6072   26.5862 N   0  0  0  0  0  0  0  0  0  0  0  0
    3.6677    6.9489   27.3052 C   0  0  0  0  0  0  0  0  0  0  0  0
    3.7034    8.3619   27.7790 C   0  0  0  0  0  0  0  0  0  0  0  0
    3.4120    9.3885   26.7513 C   0  0  0  0  0  0  0  0  0  0  0  0
    2.6841    8.9446   25.5346 C   0  0  0  0  0  0  0  0  0  0  0  0
    1.7233    9.9183   25.0400 N   0  0  0  0  0  0  0  0  0  0  0  0
   -1.4233    9.9800   26.9349 C   0  0  0  0  0  0  0  0  0  0  0  0
   -2.0368   12.5688   24.4643 N   0  0  0  0  0  0  0  0  0  0  0  0
    0.7572   11.5010   23.8968 N   0  0  0  0  0  0  0  0  0  0  0  0
    3.0509   10.9054   23.1032 C   0  0  0  0  0  0  0  0  0  0  0  0
    4.1526   11.7119   23.6677 C   0  0  0  0  0  0  0  0  0  0  0  0
    5.4510   11.2646   23.6896 C   0  0  0  0  0  0  0  0  0  0  0  0
    3.8950   12.9583   24.1907 C   0  0  0  0  0  0  0  0  0  0  0  0
    4.8632   13.7682   24.7276 C   0  0  0  0  0  0  0  0  0  0  0  0
    4.5754   15.0198   25.2477 O   0  0  0  0  0  0  0  0  0  0  0  0
    3.2685   15.5644   25.1911 C   0  0  0  0  0  0  0  0  0  0  0  0
    6.1616   13.3109   24.7447 C   0  0  0  0  0  0  0  0  0  0  0  0
    7.2031   14.0835   25.2774 O   0  0  0  0  0  0  0  0  0  0  0  0
    7.5683   13.8828   26.6399 C   0  0  0  0  0  0  0  0  0  0  0  0
    6.4660   12.0656   24.2305 C   0  0  0  0  0  0  0  0  0  0  0  0
    7.7871   11.6409   24.2665 O   0  0  0  0  0  0  0  0  0  0  0  0
    8.2655   10.5267   23.5713 C   0  0  0  0  0  0  0  0  0  0  0  0
  1  2  1  0
  1  6  2  0
 11  1  1  0
  2  3  2  0
 14  2  1  0
  3  5  1  0
  3 13  1  0
 11  4  1  0
  4 14  2  0
  4 15  1  0
 12  5  2  0
  6 12  1  0
  8  7  1  0
  9  8  1  0
 10  9  1  0
 10 11  1  0
 15 16  1  0
 16 17  2  0
 16 18  1  0
 17 25  1  0
 18 19  2  0
 19 20  1  0
 19 22  1  0
 20 21  1  0
 22 23  1  0
 22 25  2  0
 23 24  1  0
 25 26  1  0
 26 27  1  0
M  END
$$$$
