
     RDKit          3D

 27 29  0  0  0  0  0  0  0  0999 V2000
    0.5779   10.0685   25.6261 C   0  0  0  0  0  0  0  0  0  0  0  0
   -0.1661   10.8794   24.7605 C   0  0  0  0  0  0  0  0  0  0  0  0
   -1.4829   11.1450   25.0541 C   0  0  0  0  0  0  0  0  0  0  0  0
    1.8871   10.6653   23.9813 C   0  0  0  0  0  0  0  0  0  0  0  0
   -2.0526   10.6353   26.1558 N   0  0  0  0  0  0  0  0  0  0  0  0
   -0.0674    9.6012   26.7020 N   0  0  0  0  0  0  0  0  0  0  0  0
    1.9771    6.5205   23.3828 C   0  0  0  0  0  0  0  0  0  0  0  0
    2.9944    7.4882   23.8836 C   0  0  0  0  0  0  0  0  0  0  0  0
    2.9419    7.7770   25.3358 C   0  0  0  0  0  0  0  0  0  0  0  0
    2.8999    9.2049   25.7437 C   0  0  0  0  0  0  0  0  0  0  0  0
    1.8229    9.9593   25.1219 N   0  0  0  0  0  0  0  0  0  0  0  0
   -1.3327    9.8466   26.9994 C   0  0  0  0  0  0  0  0  0  0  0  0
   -2.2551   11.9611   24.1959 N   0  0  0  0  0  0  0  0  0  0  0  0
    0.6676   11.2210   23.7733 N   0  0  0  0  0  0  0  0  0  0  0  0
    3.0338   10.8441   23.0630 C   0  0  0  0  0  0  0  0  0  0  0  0
    4.0571   11.7884   23.5568 C   0  0  0  0  0  0  0  0  0  0  0  0
    5.3973   11.4878   23.5453 C   0  0  0  0  0  0  0  0  0  0  0  0
    3.6800   13.0184   24.0450 C   0  0  0  0  0  0  0  0  0  0  0  0
    4.5695   13.9502   24.5163 C   0  0  0  0  0  0  0  0  0  0  0  0
    4.1618   15.1819   25.0026 O   0  0  0  0  0  0  0  0  0  0  0  0
    2.8016   15.5781   24.9733 C   0  0  0  0  0  0  0  0  0  0  0  0
    5.9106   13.6396   24.5004 C   0  0  0  0  0  0  0  0  0  0  0  0
    6.8769   14.5423   24.9659 O   0  0  0  0  0  0  0  0  0  0  0  0
    6.9829   14.7583   26.3702 C   0  0  0  0  0  0  0  0  0  0  0  0
    6.3344   12.4162   24.0191 C   0  0  0  0  0  0  0  0  0  0  0  0
    7.6950   12.1413   24.0201 O   0  0  0  0  0  0  0  0  0  0  0  0
    8.2792   11.1010   23.2918 C   0  0  0  0  0  0  0  0  0  0  0  0
  1  2  1  0
  1  6  2  0
 11  1  1  0
  2  3  2  0
 14  2  1  0
  3  5  1  0
  3 13  1  0
 11  4  1  0
  4 14  2  0
  4 15  1  0
 12  5  2  0
  6 12  1  0
  8  7  1  0
  9  8  1  0
 10  9  1  0
 10 11  1  0
 15 16  1  0
 16 17  2  0
 16 18  1  0
 17 25  1  0
 18 19  2  0
 19 20  1  0
 19 22  1  0
 20 21  1  0
 22 23  1  0
 22 25  2  0
 23 24  1  0
 25 26  1  0
 26 27  1  0
M  END
$$$$
