
     RDKit          3D

 27 29  0  0  0  0  0  0  0  0999 V2000
    0.4950   10.4260   25.6347 C   0  0  0  0  0  0  0  0  0  0  0  0
   -0.2321   11.3478   24.8719 C   0  0  0  0  0  0  0  0  0  0  0  0
   -1.5290   11.6378   25.2249 C   0  0  0  0  0  0  0  0  0  0  0  0
    1.7916   11.1259   24.0209 C   0  0  0  0  0  0  0  0  0  0  0  0
   -2.0954   11.0469   26.2870 N   0  0  0  0  0  0  0  0  0  0  0  0
   -0.1457    9.8829   26.6773 N   0  0  0  0  0  0  0  0  0  0  0  0
    5.1400    7.6584   25.7852 C   0  0  0  0  0  0  0  0  0  0  0  0
    3.7655    7.1270   25.5601 C   0  0  0  0  0  0  0  0  0  0  0  0
    2.7864    8.0963   25.0153 C   0  0  0  0  0  0  0  0  0  0  0  0
    2.7789    9.4595   25.6061 C   0  0  0  0  0  0  0  0  0  0  0  0
    1.7223   10.3151   25.0892 N   0  0  0  0  0  0  0  0  0  0  0  0
   -1.3920   10.1502   27.0308 C   0  0  0  0  0  0  0  0  0  0  0  0
   -2.2839   12.5652   24.4706 N   0  0  0  0  0  0  0  0  0  0  0  0
    0.5932   11.7494   23.9004 N   0  0  0  0  0  0  0  0  0  0  0  0
    2.9240   11.3459   23.0938 C   0  0  0  0  0  0  0  0  0  0  0  0
    4.0723   12.0471   23.7041 C   0  0  0  0  0  0  0  0  0  0  0  0
    3.9278   13.2251   24.3955 C   0  0  0  0  0  0  0  0  0  0  0  0
    5.3383   11.5195   23.5939 C   0  0  0  0  0  0  0  0  0  0  0  0
    6.4527   12.1076   24.1361 C   0  0  0  0  0  0  0  0  0  0  0  0
    7.7165   11.5540   24.0096 O   0  0  0  0  0  0  0  0  0  0  0  0
    7.9312   10.3500   23.2940 C   0  0  0  0  0  0  0  0  0  0  0  0
    6.2974   13.2880   24.8273 C   0  0  0  0  0  0  0  0  0  0  0  0
    7.3908   13.9456   25.4084 O   0  0  0  0  0  0  0  0  0  0  0  0
    8.2548   14.7013   24.5642 C   0  0  0  0  0  0  0  0  0  0  0  0
    5.0447   13.8537   24.9628 C   0  0  0  0  0  0  0  0  0  0  0  0
    4.9302   15.0444   25.6671 O   0  0  0  0  0  0  0  0  0  0  0  0
    3.7164   15.6977   25.8992 C   0  0  0  0  0  0  0  0  0  0  0  0
  1  2  1  0
  1  6  2  0
 11  1  1  0
  2  3  2  0
 14  2  1  0
  3  5  1  0
  3 13  1  0
 11  4  1  0
  4 14  2  0
  4 15  1  0
 12  5  2  0
  6 12  1  0
  8  7  1  0
  9  8  1  0
 10  9  1  0
 10 11  1  0
 15 16  1  0
 16 17  2  0
 16 18  1  0
 17 25  1  0
 18 19  2  0
 19 20  1  0
 19 22  1  0
 20 21  1  0
 22 23  1  0
 22 25  2  0
 23 24  1  0
 25 26  1  0
 26 27  1  0
M  END
$$$$
