
     RDKit          3D

 27 29  0  0  0  0  0  0  0  0999 V2000
    0.3843    9.8883   24.7291 C   0  0  0  0  0  0  0  0  0  0  0  0
   -0.3735   11.0574   24.5919 C   0  0  0  0  0  0  0  0  0  0  0  0
   -1.6372   11.1065   25.1319 C   0  0  0  0  0  0  0  0  0  0  0  0
    1.5826   11.3319   23.6086 C   0  0  0  0  0  0  0  0  0  0  0  0
   -2.1423   10.0490   25.7833 N   0  0  0  0  0  0  0  0  0  0  0  0
   -0.1952    8.8805   25.3933 N   0  0  0  0  0  0  0  0  0  0  0  0
    5.5507    9.0539   24.9641 C   0  0  0  0  0  0  0  0  0  0  0  0
    4.4950    8.1384   25.4832 C   0  0  0  0  0  0  0  0  0  0  0  0
    3.1060    8.6454   25.3890 C   0  0  0  0  0  0  0  0  0  0  0  0
    2.6404    9.1082   24.0563 C   0  0  0  0  0  0  0  0  0  0  0  0
    1.5691   10.0900   24.1195 N   0  0  0  0  0  0  0  0  0  0  0  0
   -1.4088    8.9107   25.9186 C   0  0  0  0  0  0  0  0  0  0  0  0
   -2.4220   12.2758   25.0068 N   0  0  0  0  0  0  0  0  0  0  0  0
    0.3921   11.9103   23.9043 N   0  0  0  0  0  0  0  0  0  0  0  0
    2.6538   12.0109   22.8458 C   0  0  0  0  0  0  0  0  0  0  0  0
    3.6653   12.6758   23.6928 C   0  0  0  0  0  0  0  0  0  0  0  0
    4.3618   13.7816   23.2703 C   0  0  0  0  0  0  0  0  0  0  0  0
    3.9328   12.1925   24.9531 C   0  0  0  0  0  0  0  0  0  0  0  0
    4.8528   12.7565   25.8000 C   0  0  0  0  0  0  0  0  0  0  0  0
    5.1022   12.2486   27.0647 O   0  0  0  0  0  0  0  0  0  0  0  0
    4.7836   10.9101   27.4032 C   0  0  0  0  0  0  0  0  0  0  0  0
    5.5456   13.8646   25.3673 C   0  0  0  0  0  0  0  0  0  0  0  0
    6.5006   14.4939   26.1781 O   0  0  0  0  0  0  0  0  0  0  0  0
    6.2658   15.8395   26.5834 C   0  0  0  0  0  0  0  0  0  0  0  0
    5.3093   14.3838   24.1093 C   0  0  0  0  0  0  0  0  0  0  0  0
    6.0286   15.5021   23.7104 O   0  0  0  0  0  0  0  0  0  0  0  0
    5.6466   16.3382   22.6574 C   0  0  0  0  0  0  0  0  0  0  0  0
  1  2  1  0
  1  6  2  0
 11  1  1  0
  2  3  2  0
 14  2  1  0
  3  5  1  0
  3 13  1  0
 11  4  1  0
  4 14  2  0
  4 15  1  0
 12  5  2  0
  6 12  1  0
  8  7  1  0
  9  8  1  0
 10  9  1  0
 10 11  1  0
 15 16  1  0
 16 17  2  0
 16 18  1  0
 17 25  1  0
 18 19  2  0
 19 20  1  0
 19 22  1  0
 20 21  1  0
 22 23  1  0
 22 25  2  0
 23 24  1  0
 25 26  1  0
 26 27  1  0
M  END
$$$$
