
     RDKit          3D

 27 29  0  0  0  0  0  0  0  0999 V2000
    0.8308   10.0089   25.6272 C   0  0  0  0  0  0  0  0  0  0  0  0
    0.0146   10.8351   24.8453 C   0  0  0  0  0  0  0  0  0  0  0  0
   -1.3059   10.9978   25.1923 C   0  0  0  0  0  0  0  0  0  0  0  0
    2.0521   10.8043   23.9989 C   0  0  0  0  0  0  0  0  0  0  0  0
   -1.8109   10.3742   26.2666 N   0  0  0  0  0  0  0  0  0  0  0  0
    0.2471    9.4249   26.6810 N   0  0  0  0  0  0  0  0  0  0  0  0
    4.7911    7.2631   27.1270 C   0  0  0  0  0  0  0  0  0  0  0  0
    4.3604    7.0312   25.7189 C   0  0  0  0  0  0  0  0  0  0  0  0
    3.2057    7.8392   25.2619 C   0  0  0  0  0  0  0  0  0  0  0  0
    3.2019    9.2815   25.6185 C   0  0  0  0  0  0  0  0  0  0  0  0
    2.0642   10.0131   25.0840 N   0  0  0  0  0  0  0  0  0  0  0  0
   -1.0207    9.5702   27.0290 C   0  0  0  0  0  0  0  0  0  0  0  0
   -2.1504   11.8270   24.4188 N   0  0  0  0  0  0  0  0  0  0  0  0
    0.7964   11.2990   23.8655 N   0  0  0  0  0  0  0  0  0  0  0  0
    3.1578   11.1200   23.0673 C   0  0  0  0  0  0  0  0  0  0  0  0
    4.3187   11.7689   23.7108 C   0  0  0  0  0  0  0  0  0  0  0  0
    5.5933   11.2705   23.5955 C   0  0  0  0  0  0  0  0  0  0  0  0
    4.1429   12.9149   24.4519 C   0  0  0  0  0  0  0  0  0  0  0  0
    5.1697   13.5776   25.0751 C   0  0  0  0  0  0  0  0  0  0  0  0
    4.9640   14.7304   25.8156 O   0  0  0  0  0  0  0  0  0  0  0  0
    3.6748   15.3012   25.9576 C   0  0  0  0  0  0  0  0  0  0  0  0
    6.4436   13.0702   24.9534 C   0  0  0  0  0  0  0  0  0  0  0  0
    7.5416   13.6938   25.5625 O   0  0  0  0  0  0  0  0  0  0  0  0
    7.9518   14.9695   25.0783 C   0  0  0  0  0  0  0  0  0  0  0  0
    6.6665   11.9218   24.2189 C   0  0  0  0  0  0  0  0  0  0  0  0
    7.9654   11.4423   24.1203 O   0  0  0  0  0  0  0  0  0  0  0  0
    8.2928   10.1794   23.6185 C   0  0  0  0  0  0  0  0  0  0  0  0
  1  2  1  0
  1  6  2  0
 11  1  1  0
  2  3  2  0
 14  2  1  0
  3  5  1  0
  3 13  1  0
 11  4  1  0
  4 14  2  0
  4 15  1  0
 12  5  2  0
  6 12  1  0
  8  7  1  0
  9  8  1  0
 10  9  1  0
 10 11  1  0
 15 16  1  0
 16 17  2  0
 16 18  1  0
 17 25  1  0
 18 19  2  0
 19 20  1  0
 19 22  1  0
 20 21  1  0
 22 23  1  0
 22 25  2  0
 23 24  1  0
 25 26  1  0
 26 27  1  0
M  END
$$$$
