
     RDKit          3D

 27 29  0  0  0  0  0  0  0  0999 V2000
    0.5989   10.3849   25.6742 C   0  0  0  0  0  0  0  0  0  0  0  0
   -0.1654   11.1717   24.8042 C   0  0  0  0  0  0  0  0  0  0  0  0
   -1.4798   11.4322   25.1131 C   0  0  0  0  0  0  0  0  0  0  0  0
    1.8771   10.9589   23.9972 C   0  0  0  0  0  0  0  0  0  0  0  0
   -2.0278   10.9403   26.2337 N   0  0  0  0  0  0  0  0  0  0  0  0
   -0.0255    9.9342   26.7694 N   0  0  0  0  0  0  0  0  0  0  0  0
    4.5214    7.2276   23.8584 C   0  0  0  0  0  0  0  0  0  0  0  0
    3.1095    7.5867   24.1741 C   0  0  0  0  0  0  0  0  0  0  0  0
    2.8666    8.0756   25.5515 C   0  0  0  0  0  0  0  0  0  0  0  0
    2.9299    9.5433   25.7727 C   0  0  0  0  0  0  0  0  0  0  0  0
    1.8368   10.2758   25.1528 N   0  0  0  0  0  0  0  0  0  0  0  0
   -1.2880   10.1750   27.0817 C   0  0  0  0  0  0  0  0  0  0  0  0
   -2.2723   12.2241   24.2507 N   0  0  0  0  0  0  0  0  0  0  0  0
    0.6497   11.5001   23.7973 N   0  0  0  0  0  0  0  0  0  0  0  0
    3.0078   11.1286   23.0576 C   0  0  0  0  0  0  0  0  0  0  0  0
    4.1455   11.8868   23.6175 C   0  0  0  0  0  0  0  0  0  0  0  0
    5.4334   11.4112   23.5771 C   0  0  0  0  0  0  0  0  0  0  0  0
    3.9337   13.1153   24.2000 C   0  0  0  0  0  0  0  0  0  0  0  0
    4.9373   13.8809   24.7371 C   0  0  0  0  0  0  0  0  0  0  0  0
    4.6953   15.1153   25.3179 O   0  0  0  0  0  0  0  0  0  0  0  0
    3.3896   15.6621   25.3825 C   0  0  0  0  0  0  0  0  0  0  0  0
    6.2247   13.3955   24.6915 C   0  0  0  0  0  0  0  0  0  0  0  0
    7.3005   14.1225   25.2203 O   0  0  0  0  0  0  0  0  0  0  0  0
    7.0843   14.8935   26.3987 C   0  0  0  0  0  0  0  0  0  0  0  0
    6.4836   12.1667   24.1162 C   0  0  0  0  0  0  0  0  0  0  0  0
    7.7951   11.7127   24.0900 O   0  0  0  0  0  0  0  0  0  0  0  0
    8.2177   10.5959   23.3634 C   0  0  0  0  0  0  0  0  0  0  0  0
  1  2  1  0
  1  6  2  0
 11  1  1  0
  2  3  2  0
 14  2  1  0
  3  5  1  0
  3 13  1  0
 11  4  1  0
  4 14  2  0
  4 15  1  0
 12  5  2  0
  6 12  1  0
  8  7  1  0
  9  8  1  0
 10  9  1  0
 10 11  1  0
 15 16  1  0
 16 17  2  0
 16 18  1  0
 17 25  1  0
 18 19  2  0
 19 20  1  0
 19 22  1  0
 20 21  1  0
 22 23  1  0
 22 25  2  0
 23 24  1  0
 25 26  1  0
 26 27  1  0
M  END
$$$$
