
     RDKit          3D

 27 29  0  0  0  0  0  0  0  0999 V2000
    0.5533    9.9211   25.3636 C   0  0  0  0  0  0  0  0  0  0  0  0
   -0.1865   10.7289   24.4917 C   0  0  0  0  0  0  0  0  0  0  0  0
   -1.5125   10.9719   24.7629 C   0  0  0  0  0  0  0  0  0  0  0  0
    1.8839   10.5532   23.7494 C   0  0  0  0  0  0  0  0  0  0  0  0
   -2.0949   10.4432   25.8488 N   0  0  0  0  0  0  0  0  0  0  0  0
   -0.1048    9.4339   26.4228 N   0  0  0  0  0  0  0  0  0  0  0  0
    5.2128    7.4863   24.3274 C   0  0  0  0  0  0  0  0  0  0  0  0
    3.7709    7.1528   24.1481 C   0  0  0  0  0  0  0  0  0  0  0  0
    2.8650    7.6368   25.2159 C   0  0  0  0  0  0  0  0  0  0  0  0
    2.8856    9.0915   25.5170 C   0  0  0  0  0  0  0  0  0  0  0  0
    1.8091    9.8355   24.8820 N   0  0  0  0  0  0  0  0  0  0  0  0
   -1.3790    9.6573   26.6986 C   0  0  0  0  0  0  0  0  0  0  0  0
   -2.2809   11.7844   23.8978 N   0  0  0  0  0  0  0  0  0  0  0  0
    0.6601   11.0925   23.5236 N   0  0  0  0  0  0  0  0  0  0  0  0
    3.0447   10.7581   22.8546 C   0  0  0  0  0  0  0  0  0  0  0  0
    4.1182   11.5850   23.4432 C   0  0  0  0  0  0  0  0  0  0  0  0
    5.4442   11.2396   23.3483 C   0  0  0  0  0  0  0  0  0  0  0  0
    3.8046   12.7472   24.1097 C   0  0  0  0  0  0  0  0  0  0  0  0
    4.7433   13.5700   24.6785 C   0  0  0  0  0  0  0  0  0  0  0  0
    4.3990   14.7352   25.3443 O   0  0  0  0  0  0  0  0  0  0  0  0
    3.0664   14.9908   25.7524 C   0  0  0  0  0  0  0  0  0  0  0  0
    6.0697   13.2152   24.5777 C   0  0  0  0  0  0  0  0  0  0  0  0
    7.0838   14.0071   25.1343 O   0  0  0  0  0  0  0  0  0  0  0  0
    7.5873   15.0998   24.3710 C   0  0  0  0  0  0  0  0  0  0  0  0
    6.4304   12.0568   23.9176 C   0  0  0  0  0  0  0  0  0  0  0  0
    7.7782   11.7343   23.8378 O   0  0  0  0  0  0  0  0  0  0  0  0
    8.2942   10.7509   22.9890 C   0  0  0  0  0  0  0  0  0  0  0  0
  1  2  1  0
  1  6  2  0
 11  1  1  0
  2  3  2  0
 14  2  1  0
  3  5  1  0
  3 13  1  0
 11  4  1  0
  4 14  2  0
  4 15  1  0
 12  5  2  0
  6 12  1  0
  8  7  1  0
  9  8  1  0
 10  9  1  0
 10 11  1  0
 15 16  1  0
 16 17  2  0
 16 18  1  0
 17 25  1  0
 18 19  2  0
 19 20  1  0
 19 22  1  0
 20 21  1  0
 22 23  1  0
 22 25  2  0
 23 24  1  0
 25 26  1  0
 26 27  1  0
M  END
$$$$
