
     RDKit          3D

 27 29  0  0  0  0  0  0  0  0999 V2000
    0.7174    9.8601   25.6594 C   0  0  0  0  0  0  0  0  0  0  0  0
   -0.0264   10.6703   24.7931 C   0  0  0  0  0  0  0  0  0  0  0  0
   -1.3805   10.8018   24.9926 C   0  0  0  0  0  0  0  0  0  0  0  0
    2.0921   10.6886   24.1765 C   0  0  0  0  0  0  0  0  0  0  0  0
   -1.9864   10.1632   26.0040 N   0  0  0  0  0  0  0  0  0  0  0  0
    0.0346    9.2592   26.6419 N   0  0  0  0  0  0  0  0  0  0  0  0
    3.3102    6.2390   23.4142 C   0  0  0  0  0  0  0  0  0  0  0  0
    3.0451    7.6136   23.9267 C   0  0  0  0  0  0  0  0  0  0  0  0
    3.3362    7.8276   25.3635 C   0  0  0  0  0  0  0  0  0  0  0  0
    3.0910    9.1865   25.9115 C   0  0  0  0  0  0  0  0  0  0  0  0
    2.0026    9.8941   25.2555 N   0  0  0  0  0  0  0  0  0  0  0  0
   -1.2668    9.3746   26.8481 C   0  0  0  0  0  0  0  0  0  0  0  0
   -2.1534   11.6143   24.1315 N   0  0  0  0  0  0  0  0  0  0  0  0
    0.8477   11.1551   23.9059 N   0  0  0  0  0  0  0  0  0  0  0  0
    3.2863   11.0325   23.3728 C   0  0  0  0  0  0  0  0  0  0  0  0
    4.0753   12.1555   23.9197 C   0  0  0  0  0  0  0  0  0  0  0  0
    5.2058   11.9572   24.6742 C   0  0  0  0  0  0  0  0  0  0  0  0
    3.6875   13.4527   23.6746 C   0  0  0  0  0  0  0  0  0  0  0  0
    4.3690   14.5473   24.1428 C   0  0  0  0  0  0  0  0  0  0  0  0
    3.9555   15.8434   23.8806 O   0  0  0  0  0  0  0  0  0  0  0  0
    2.8276   16.1123   23.0661 C   0  0  0  0  0  0  0  0  0  0  0  0
    5.5008   14.3380   24.8980 C   0  0  0  0  0  0  0  0  0  0  0  0
    6.2479   15.4083   25.4097 O   0  0  0  0  0  0  0  0  0  0  0  0
    5.7861   16.0532   26.5933 C   0  0  0  0  0  0  0  0  0  0  0  0
    5.9270   13.0524   25.1690 C   0  0  0  0  0  0  0  0  0  0  0  0
    7.0729   12.8837   25.9340 O   0  0  0  0  0  0  0  0  0  0  0  0
    7.7334   11.6614   26.0871 C   0  0  0  0  0  0  0  0  0  0  0  0
  1  2  1  0
  1  6  2  0
 11  1  1  0
  2  3  2  0
 14  2  1  0
  3  5  1  0
  3 13  1  0
 11  4  1  0
  4 14  2  0
  4 15  1  0
 12  5  2  0
  6 12  1  0
  8  7  1  0
  9  8  1  0
 10  9  1  0
 10 11  1  0
 15 16  1  0
 16 17  2  0
 16 18  1  0
 17 25  1  0
 18 19  2  0
 19 20  1  0
 19 22  1  0
 20 21  1  0
 22 23  1  0
 22 25  2  0
 23 24  1  0
 25 26  1  0
 26 27  1  0
M  END
$$$$
