
     RDKit          3D

 27 29  0  0  0  0  0  0  0  0999 V2000
    0.3838    9.8601   25.2857 C   0  0  0  0  0  0  0  0  0  0  0  0
   -0.1721   10.9614   24.6238 C   0  0  0  0  0  0  0  0  0  0  0  0
   -1.4347   11.3845   24.9667 C   0  0  0  0  0  0  0  0  0  0  0  0
    1.8445   10.5649   23.8210 C   0  0  0  0  0  0  0  0  0  0  0  0
   -2.1297   10.7525   25.9236 N   0  0  0  0  0  0  0  0  0  0  0  0
   -0.3771    9.2878   26.2269 N   0  0  0  0  0  0  0  0  0  0  0  0
    5.1452    9.0003   26.8274 C   0  0  0  0  0  0  0  0  0  0  0  0
    3.7662    9.3332   27.2855 C   0  0  0  0  0  0  0  0  0  0  0  0
    2.6801    8.5237   26.6855 C   0  0  0  0  0  0  0  0  0  0  0  0
    2.5153    8.5942   25.2106 C   0  0  0  0  0  0  0  0  0  0  0  0
    1.6116    9.6464   24.7727 N   0  0  0  0  0  0  0  0  0  0  0  0
   -1.5927    9.6815   26.5691 C   0  0  0  0  0  0  0  0  0  0  0  0
   -2.0179   12.4943   24.3131 N   0  0  0  0  0  0  0  0  0  0  0  0
    0.7489   11.3601   23.7411 N   0  0  0  0  0  0  0  0  0  0  0  0
    3.0427   10.7366   22.9694 C   0  0  0  0  0  0  0  0  0  0  0  0
    4.0372   11.6829   23.5157 C   0  0  0  0  0  0  0  0  0  0  0  0
    5.3728   11.3739   23.5999 C   0  0  0  0  0  0  0  0  0  0  0  0
    3.6369   12.9232   23.9569 C   0  0  0  0  0  0  0  0  0  0  0  0
    4.4993   13.8575   24.4718 C   0  0  0  0  0  0  0  0  0  0  0  0
    4.0686   15.0997   24.9090 O   0  0  0  0  0  0  0  0  0  0  0  0
    2.7043   15.3539   25.1948 C   0  0  0  0  0  0  0  0  0  0  0  0
    5.8361   13.5384   24.5519 C   0  0  0  0  0  0  0  0  0  0  0  0
    6.7753   14.4429   25.0667 O   0  0  0  0  0  0  0  0  0  0  0  0
    6.9204   14.5389   26.4808 C   0  0  0  0  0  0  0  0  0  0  0  0
    6.2825   12.3044   24.1206 C   0  0  0  0  0  0  0  0  0  0  0  0
    7.6379   12.0212   24.2182 O   0  0  0  0  0  0  0  0  0  0  0  0
    8.2699   10.9903   23.5170 C   0  0  0  0  0  0  0  0  0  0  0  0
  1  2  1  0
  1  6  2  0
 11  1  1  0
  2  3  2  0
 14  2  1  0
  3  5  1  0
  3 13  1  0
 11  4  1  0
  4 14  2  0
  4 15  1  0
 12  5  2  0
  6 12  1  0
  8  7  1  0
  9  8  1  0
 10  9  1  0
 10 11  1  0
 15 16  1  0
 16 17  2  0
 16 18  1  0
 17 25  1  0
 18 19  2  0
 19 20  1  0
 19 22  1  0
 20 21  1  0
 22 23  1  0
 22 25  2  0
 23 24  1  0
 25 26  1  0
 26 27  1  0
M  END
$$$$
