
     RDKit          3D

 27 29  0  0  0  0  0  0  0  0999 V2000
    0.3113    9.8886   25.0887 C   0  0  0  0  0  0  0  0  0  0  0  0
    0.1813   11.2807   25.0163 C   0  0  0  0  0  0  0  0  0  0  0  0
   -1.0112   11.8235   24.5990 C   0  0  0  0  0  0  0  0  0  0  0  0
    2.2113   10.7692   25.7134 C   0  0  0  0  0  0  0  0  0  0  0  0
   -2.0408   11.0325   24.2640 N   0  0  0  0  0  0  0  0  0  0  0  0
   -0.7643    9.1735   24.7364 N   0  0  0  0  0  0  0  0  0  0  0  0
    4.0224    6.9676   22.7906 C   0  0  0  0  0  0  0  0  0  0  0  0
    3.1894    7.9979   23.4740 C   0  0  0  0  0  0  0  0  0  0  0  0
    2.2354    7.4823   24.4835 C   0  0  0  0  0  0  0  0  0  0  0  0
    2.0766    8.2700   25.7331 C   0  0  0  0  0  0  0  0  0  0  0  0
    1.5589    9.6119   25.5167 N   0  0  0  0  0  0  0  0  0  0  0  0
   -1.9181    9.6789   24.3329 C   0  0  0  0  0  0  0  0  0  0  0  0
   -1.1674   13.2263   24.5176 N   0  0  0  0  0  0  0  0  0  0  0  0
    1.3594   11.7783   25.4047 N   0  0  0  0  0  0  0  0  0  0  0  0
    3.6021   10.9852   26.1707 C   0  0  0  0  0  0  0  0  0  0  0  0
    4.3650   11.9416   25.3424 C   0  0  0  0  0  0  0  0  0  0  0  0
    4.2096   13.3010   25.4626 C   0  0  0  0  0  0  0  0  0  0  0  0
    5.2711   11.4794   24.4158 C   0  0  0  0  0  0  0  0  0  0  0  0
    6.0198   12.3028   23.6138 C   0  0  0  0  0  0  0  0  0  0  0  0
    6.9255   11.8098   22.6885 O   0  0  0  0  0  0  0  0  0  0  0  0
    7.2612   10.4341   22.6387 C   0  0  0  0  0  0  0  0  0  0  0  0
    5.8569   13.6638   23.7421 C   0  0  0  0  0  0  0  0  0  0  0  0
    6.5878   14.5660   22.9564 O   0  0  0  0  0  0  0  0  0  0  0  0
    5.9883   15.0689   21.7657 C   0  0  0  0  0  0  0  0  0  0  0  0
    4.9582   14.1722   24.6595 C   0  0  0  0  0  0  0  0  0  0  0  0
    4.8232   15.5502   24.7582 O   0  0  0  0  0  0  0  0  0  0  0  0
    3.9541   16.1851   25.6501 C   0  0  0  0  0  0  0  0  0  0  0  0
  1  2  1  0
  1  6  2  0
 11  1  1  0
  2  3  2  0
 14  2  1  0
  3  5  1  0
  3 13  1  0
 11  4  1  0
  4 14  2  0
  4 15  1  0
 12  5  2  0
  6 12  1  0
  8  7  1  0
  9  8  1  0
 10  9  1  0
 10 11  1  0
 15 16  1  0
 16 17  2  0
 16 18  1  0
 17 25  1  0
 18 19  2  0
 19 20  1  0
 19 22  1  0
 20 21  1  0
 22 23  1  0
 22 25  2  0
 23 24  1  0
 25 26  1  0
 26 27  1  0
M  END
$$$$
