
     RDKit          3D

 27 29  0  0  0  0  0  0  0  0999 V2000
    0.4614   10.2797   25.6260 C   0  0  0  0  0  0  0  0  0  0  0  0
   -0.2842   11.1439   24.8154 C   0  0  0  0  0  0  0  0  0  0  0  0
   -1.5983   11.3961   25.1322 C   0  0  0  0  0  0  0  0  0  0  0  0
    1.7636   10.9698   24.0125 C   0  0  0  0  0  0  0  0  0  0  0  0
   -2.1637   10.8229   26.2045 N   0  0  0  0  0  0  0  0  0  0  0  0
   -0.1796    9.7506   26.6756 N   0  0  0  0  0  0  0  0  0  0  0  0
    3.9436    7.0489   27.2446 C   0  0  0  0  0  0  0  0  0  0  0  0
    3.8485    7.1067   25.7580 C   0  0  0  0  0  0  0  0  0  0  0  0
    2.7875    7.9891   25.2189 C   0  0  0  0  0  0  0  0  0  0  0  0
    2.7807    9.4022   25.6776 C   0  0  0  0  0  0  0  0  0  0  0  0
    1.7031   10.1966   25.1088 N   0  0  0  0  0  0  0  0  0  0  0  0
   -1.4421    9.9821   26.9947 C   0  0  0  0  0  0  0  0  0  0  0  0
   -2.3721   12.2652   24.3293 N   0  0  0  0  0  0  0  0  0  0  0  0
    0.5452   11.5415   23.8456 N   0  0  0  0  0  0  0  0  0  0  0  0
    2.9058   11.1996   23.0999 C   0  0  0  0  0  0  0  0  0  0  0  0
    4.0408   11.9094   23.7251 C   0  0  0  0  0  0  0  0  0  0  0  0
    5.3305   11.4442   23.6426 C   0  0  0  0  0  0  0  0  0  0  0  0
    3.8244   13.0804   24.4144 C   0  0  0  0  0  0  0  0  0  0  0  0
    4.8252   13.7991   25.0175 C   0  0  0  0  0  0  0  0  0  0  0  0
    4.5787   14.9760   25.7058 O   0  0  0  0  0  0  0  0  0  0  0  0
    3.2674   15.4953   25.8423 C   0  0  0  0  0  0  0  0  0  0  0  0
    6.1145   13.3246   24.9290 C   0  0  0  0  0  0  0  0  0  0  0  0
    7.1877   14.0058   25.5204 O   0  0  0  0  0  0  0  0  0  0  0  0
    8.3989   14.1354   24.7813 C   0  0  0  0  0  0  0  0  0  0  0  0
    6.3779   12.1528   24.2468 C   0  0  0  0  0  0  0  0  0  0  0  0
    7.6912   11.7080   24.1804 O   0  0  0  0  0  0  0  0  0  0  0  0
    8.0892   10.5570   23.4944 C   0  0  0  0  0  0  0  0  0  0  0  0
  1  2  1  0
  1  6  2  0
 11  1  1  0
  2  3  2  0
 14  2  1  0
  3  5  1  0
  3 13  1  0
 11  4  1  0
  4 14  2  0
  4 15  1  0
 12  5  2  0
  6 12  1  0
  8  7  1  0
  9  8  1  0
 10  9  1  0
 10 11  1  0
 15 16  1  0
 16 17  2  0
 16 18  1  0
 17 25  1  0
 18 19  2  0
 19 20  1  0
 19 22  1  0
 20 21  1  0
 22 23  1  0
 22 25  2  0
 23 24  1  0
 25 26  1  0
 26 27  1  0
M  END
$$$$
