
     RDKit          3D

 27 29  0  0  0  0  0  0  0  0999 V2000
    0.7114   10.2966   25.4814 C   0  0  0  0  0  0  0  0  0  0  0  0
   -0.0771   11.1299   24.6789 C   0  0  0  0  0  0  0  0  0  0  0  0
   -1.3920   11.3434   25.0200 C   0  0  0  0  0  0  0  0  0  0  0  0
    1.9589   11.0132   23.8366 C   0  0  0  0  0  0  0  0  0  0  0  0
   -1.9177   10.7621   26.1080 N   0  0  0  0  0  0  0  0  0  0  0  0
    0.1083    9.7569   26.5480 N   0  0  0  0  0  0  0  0  0  0  0  0
    5.0779    7.7237   26.6008 C   0  0  0  0  0  0  0  0  0  0  0  0
    3.7393    7.1722   26.2458 C   0  0  0  0  0  0  0  0  0  0  0  0
    2.6650    8.1743   26.0544 C   0  0  0  0  0  0  0  0  0  0  0  0
    3.0577    9.4929   25.4936 C   0  0  0  0  0  0  0  0  0  0  0  0
    1.9446   10.2480   24.9401 N   0  0  0  0  0  0  0  0  0  0  0  0
   -1.1544    9.9514   26.8905 C   0  0  0  0  0  0  0  0  0  0  0  0
   -2.2086   12.1807   24.2258 N   0  0  0  0  0  0  0  0  0  0  0  0
    0.7199   11.5448   23.6896 N   0  0  0  0  0  0  0  0  0  0  0  0
    3.0749   11.2707   22.8994 C   0  0  0  0  0  0  0  0  0  0  0  0
    4.2105   11.9979   23.5031 C   0  0  0  0  0  0  0  0  0  0  0  0
    5.4974   11.5210   23.4491 C   0  0  0  0  0  0  0  0  0  0  0  0
    3.9976   13.1978   24.1421 C   0  0  0  0  0  0  0  0  0  0  0  0
    4.9992   13.9338   24.7224 C   0  0  0  0  0  0  0  0  0  0  0  0
    4.7562   15.1398   25.3599 O   0  0  0  0  0  0  0  0  0  0  0  0
    3.4536   15.6929   25.4302 C   0  0  0  0  0  0  0  0  0  0  0  0
    6.2857   13.4474   24.6628 C   0  0  0  0  0  0  0  0  0  0  0  0
    7.3596   14.1451   25.2334 O   0  0  0  0  0  0  0  0  0  0  0  0
    7.4901   14.1469   26.6522 C   0  0  0  0  0  0  0  0  0  0  0  0
    6.5456   12.2468   24.0313 C   0  0  0  0  0  0  0  0  0  0  0  0
    7.8561   11.7907   23.9928 O   0  0  0  0  0  0  0  0  0  0  0  0
    8.2867   10.7269   23.1949 C   0  0  0  0  0  0  0  0  0  0  0  0
  1  2  1  0
  1  6  2  0
 11  1  1  0
  2  3  2  0
 14  2  1  0
  3  5  1  0
  3 13  1  0
 11  4  1  0
  4 14  2  0
  4 15  1  0
 12  5  2  0
  6 12  1  0
  8  7  1  0
  9  8  1  0
 10  9  1  0
 10 11  1  0
 15 16  1  0
 16 17  2  0
 16 18  1  0
 17 25  1  0
 18 19  2  0
 19 20  1  0
 19 22  1  0
 20 21  1  0
 22 23  1  0
 22 25  2  0
 23 24  1  0
 25 26  1  0
 26 27  1  0
M  END
$$$$
