
     RDKit          3D

 27 29  0  0  0  0  0  0  0  0999 V2000
    0.2520    9.9197   25.0185 C   0  0  0  0  0  0  0  0  0  0  0  0
    0.2846   11.3193   25.0378 C   0  0  0  0  0  0  0  0  0  0  0  0
   -0.8693   12.0220   24.7816 C   0  0  0  0  0  0  0  0  0  0  0  0
    2.2974   10.5328   25.4835 C   0  0  0  0  0  0  0  0  0  0  0  0
   -2.0152   11.3785   24.5156 N   0  0  0  0  0  0  0  0  0  0  0  0
   -0.9320    9.3579   24.7446 N   0  0  0  0  0  0  0  0  0  0  0  0
    0.1147    6.3343   27.4858 C   0  0  0  0  0  0  0  0  0  0  0  0
    1.0118    7.5061   27.6966 C   0  0  0  0  0  0  0  0  0  0  0  0
    2.1563    7.6116   26.7617 C   0  0  0  0  0  0  0  0  0  0  0  0
    1.8642    8.0698   25.3790 C   0  0  0  0  0  0  0  0  0  0  0  0
    1.4935    9.4738   25.2941 N   0  0  0  0  0  0  0  0  0  0  0  0
   -2.0508   10.0182   24.4959 C   0  0  0  0  0  0  0  0  0  0  0  0
   -0.8621   13.4357   24.7953 N   0  0  0  0  0  0  0  0  0  0  0  0
    1.5471   11.6513   25.3245 N   0  0  0  0  0  0  0  0  0  0  0  0
    3.7428   10.5567   25.8002 C   0  0  0  0  0  0  0  0  0  0  0  0
    4.5133   11.5437   25.0159 C   0  0  0  0  0  0  0  0  0  0  0  0
    5.4262   11.1682   24.0609 C   0  0  0  0  0  0  0  0  0  0  0  0
    4.3239   12.8900   25.2278 C   0  0  0  0  0  0  0  0  0  0  0  0
    4.9965   13.8663   24.5377 C   0  0  0  0  0  0  0  0  0  0  0  0
    4.7860   15.2156   24.7717 O   0  0  0  0  0  0  0  0  0  0  0  0
    3.8096   15.6652   25.6949 C   0  0  0  0  0  0  0  0  0  0  0  0
    5.9093   13.4798   23.5824 C   0  0  0  0  0  0  0  0  0  0  0  0
    6.6335   14.4217   22.8381 O   0  0  0  0  0  0  0  0  0  0  0  0
    5.9263   15.5086   22.2478 C   0  0  0  0  0  0  0  0  0  0  0  0
    6.1315   12.1389   23.3364 C   0  0  0  0  0  0  0  0  0  0  0  0
    7.0601   11.7904   22.3652 O   0  0  0  0  0  0  0  0  0  0  0  0
    7.5439   10.4920   22.1814 C   0  0  0  0  0  0  0  0  0  0  0  0
  1  2  1  0
  1  6  2  0
 11  1  1  0
  2  3  2  0
 14  2  1  0
  3  5  1  0
  3 13  1  0
 11  4  1  0
  4 14  2  0
  4 15  1  0
 12  5  2  0
  6 12  1  0
  8  7  1  0
  9  8  1  0
 10  9  1  0
 10 11  1  0
 15 16  1  0
 16 17  2  0
 16 18  1  0
 17 25  1  0
 18 19  2  0
 19 20  1  0
 19 22  1  0
 20 21  1  0
 22 23  1  0
 22 25  2  0
 23 24  1  0
 25 26  1  0
 26 27  1  0
M  END
$$$$
