
     RDKit          3D

 27 29  0  0  0  0  0  0  0  0999 V2000
    0.6344   10.0636   25.2760 C   0  0  0  0  0  0  0  0  0  0  0  0
   -0.0851   11.1065   24.6803 C   0  0  0  0  0  0  0  0  0  0  0  0
   -1.3676   11.3656   25.1032 C   0  0  0  0  0  0  0  0  0  0  0  0
    1.9157   10.9763   23.7592 C   0  0  0  0  0  0  0  0  0  0  0  0
   -1.9272   10.6303   26.0749 N   0  0  0  0  0  0  0  0  0  0  0  0
    0.0013    9.3801   26.2375 N   0  0  0  0  0  0  0  0  0  0  0  0
    4.9228    9.8469   27.2920 C   0  0  0  0  0  0  0  0  0  0  0  0
    3.4654    9.5826   27.4602 C   0  0  0  0  0  0  0  0  0  0  0  0
    2.8660    8.6533   26.4742 C   0  0  0  0  0  0  0  0  0  0  0  0
    2.8935    9.0660   25.0473 C   0  0  0  0  0  0  0  0  0  0  0  0
    1.8478   10.0125   24.6920 N   0  0  0  0  0  0  0  0  0  0  0  0
   -1.2311    9.6156   26.6562 C   0  0  0  0  0  0  0  0  0  0  0  0
   -2.1145   12.4133   24.5174 N   0  0  0  0  0  0  0  0  0  0  0  0
    0.7306   11.6356   23.7632 N   0  0  0  0  0  0  0  0  0  0  0  0
    3.0349   11.3128   22.8512 C   0  0  0  0  0  0  0  0  0  0  0  0
    4.2074   11.8974   23.5340 C   0  0  0  0  0  0  0  0  0  0  0  0
    5.4585   11.3367   23.4501 C   0  0  0  0  0  0  0  0  0  0  0  0
    4.0676   13.0444   24.2810 C   0  0  0  0  0  0  0  0  0  0  0  0
    5.1076   13.6495   24.9398 C   0  0  0  0  0  0  0  0  0  0  0  0
    4.9381   14.8049   25.6855 O   0  0  0  0  0  0  0  0  0  0  0  0
    3.6731   15.4319   25.8057 C   0  0  0  0  0  0  0  0  0  0  0  0
    6.3576   13.0800   24.8494 C   0  0  0  0  0  0  0  0  0  0  0  0
    7.4671   13.6428   25.4958 O   0  0  0  0  0  0  0  0  0  0  0  0
    7.9252   14.9220   25.0671 C   0  0  0  0  0  0  0  0  0  0  0  0
    6.5442   11.9282   24.1103 C   0  0  0  0  0  0  0  0  0  0  0  0
    7.8200   11.3852   24.0440 O   0  0  0  0  0  0  0  0  0  0  0  0
    8.2048   10.4131   23.1162 C   0  0  0  0  0  0  0  0  0  0  0  0
  1  2  1  0
  1  6  2  0
 11  1  1  0
  2  3  2  0
 14  2  1  0
  3  5  1  0
  3 13  1  0
 11  4  1  0
  4 14  2  0
  4 15  1  0
 12  5  2  0
  6 12  1  0
  8  7  1  0
  9  8  1  0
 10  9  1  0
 10 11  1  0
 15 16  1  0
 16 17  2  0
 16 18  1  0
 17 25  1  0
 18 19  2  0
 19 20  1  0
 19 22  1  0
 20 21  1  0
 22 23  1  0
 22 25  2  0
 23 24  1  0
 25 26  1  0
 26 27  1  0
M  END
$$$$
