
     RDKit          3D

 30 35  0  0  0  0  0  0  0  0999 V2000
    8.4764   61.8294   -4.9820 C   0  0  0  0  0  0  0  0  0  0  0  0
    8.9742   60.8860   -4.1174 C   0  0  0  0  0  0  0  0  0  0  0  0
    8.1876   59.8275   -3.6971 C   0  0  0  0  0  0  0  0  0  0  0  0
    6.8883   59.6753   -4.1215 C   0  0  0  0  0  0  0  0  0  0  0  0
    6.3686   60.6256   -5.0000 C   0  0  0  0  0  0  0  0  0  0  0  0
    7.1569   61.6642   -5.4057 C   0  0  0  0  0  0  0  0  0  0  0  0
    4.9893   60.4296   -5.4265 C   0  0  0  0  0  0  0  0  0  0  0  0
    9.2797   62.9521   -5.4404 C   0  0  0  0  0  0  0  0  0  0  0  0
    9.9719   63.8698   -4.6883 C   0  0  0  0  0  0  0  0  0  0  0  0
   10.5692   64.7277   -5.5639 N   0  0  0  0  0  0  0  0  0  0  0  0
   10.2762   64.3779   -6.7763 O   0  0  0  0  0  0  0  0  0  0  0  0
    9.4919   63.3003   -6.7538 C   0  0  0  0  0  0  0  0  0  0  0  0
    8.9323   62.5832   -7.9376 C   0  0  0  0  0  0  0  0  0  0  0  0
   10.0289   63.8839   -3.2044 C   0  0  0  0  0  0  0  0  0  0  0  0
    8.4422   58.7789   -2.8581 N   0  0  0  0  0  0  0  0  0  0  0  0
    7.3446   58.0127   -2.7698 C   0  0  0  0  0  0  0  0  0  0  0  0
    6.3877   58.5674   -3.5497 N   0  0  0  0  0  0  0  0  0  0  0  0
    7.2380   56.7749   -1.9459 C   0  0  2  0  0  0  0  0  0  0  0  0
    8.0193   56.8817   -0.6191 C   0  0  0  0  0  0  0  0  0  0  0  0
    8.4256   55.9180   -1.7149 C   0  0  0  0  0  0  0  0  0  0  0  0
    3.9772   60.8767   -4.5883 C   0  0  0  0  0  0  0  0  0  0  0  0
    2.6632   60.6780   -5.0180 C   0  0  0  0  0  0  0  0  0  0  0  0
    2.4046   60.0586   -6.2330 C   0  0  0  0  0  0  0  0  0  0  0  0
    3.4556   59.6369   -7.0205 C   0  0  0  0  0  0  0  0  0  0  0  0
    4.7644   59.8184   -6.6245 C   0  0  0  0  0  0  0  0  0  0  0  0
    4.2382   61.4897   -3.3858 C   0  0  0  0  0  0  0  0  0  0  0  0
    3.2048   61.9164   -2.5881 C   0  0  0  0  0  0  0  0  0  0  0  0
    1.9022   61.7131   -3.0265 C   0  0  0  0  0  0  0  0  0  0  0  0
    1.6900   61.1091   -4.2099 N   0  0  0  0  0  0  0  0  0  0  0  0
    5.8977   59.3686   -7.4638 C   0  0  0  0  0  0  0  0  0  0  0  0
  1  2  2  0
  1  6  1  0
  1  8  1  0
  2  3  1  0
  3  4  2  0
  3 15  1  0
  4  5  1  0
  4 17  1  0
  5  6  2  0
  5  7  1  0
  7 21  2  0
  7 25  1  0
  8  9  1  0
  8 12  2  0
  9 10  2  0
  9 14  1  0
 10 11  1  0
 11 12  1  0
 12 13  1  0
 15 16  1  0
 16 17  2  0
 18 16  1  6
 18 19  1  0
 18 20  1  0
 19 20  1  0
 21 22  1  0
 21 26  1  0
 22 23  2  0
 22 29  1  0
 23 24  1  0
 24 25  2  0
 25 30  1  0
 26 27  2  0
 27 28  1  0
 28 29  2  0
M  END
$$$$
