
     RDKit          3D

 30 35  0  0  0  0  0  0  0  0999 V2000
    8.1831   61.5971   -4.9786 C   0  0  0  0  0  0  0  0  0  0  0  0
    8.7518   60.5656   -4.2729 C   0  0  0  0  0  0  0  0  0  0  0  0
    7.9884   59.4889   -3.8562 C   0  0  0  0  0  0  0  0  0  0  0  0
    6.6426   59.4051   -4.1272 C   0  0  0  0  0  0  0  0  0  0  0  0
    6.0507   60.4453   -4.8431 C   0  0  0  0  0  0  0  0  0  0  0  0
    6.8170   61.5008   -5.2474 C   0  0  0  0  0  0  0  0  0  0  0  0
    4.6239   60.3199   -5.1101 C   0  0  0  0  0  0  0  0  0  0  0  0
    8.9606   62.7409   -5.4291 C   0  0  0  0  0  0  0  0  0  0  0  0
    9.6544   63.6531   -4.6717 C   0  0  0  0  0  0  0  0  0  0  0  0
   10.2214   64.5379   -5.5407 N   0  0  0  0  0  0  0  0  0  0  0  0
    9.9091   64.2090   -6.7542 O   0  0  0  0  0  0  0  0  0  0  0  0
    9.1412   63.1195   -6.7387 C   0  0  0  0  0  0  0  0  0  0  0  0
    8.5684   62.4189   -7.9260 C   0  0  0  0  0  0  0  0  0  0  0  0
    9.7412   63.6372   -3.1892 C   0  0  0  0  0  0  0  0  0  0  0  0
    8.3094   58.3603   -3.1552 N   0  0  0  0  0  0  0  0  0  0  0  0
    7.2062   57.6126   -3.0010 C   0  0  0  0  0  0  0  0  0  0  0  0
    6.1797   58.2588   -3.6011 N   0  0  0  0  0  0  0  0  0  0  0  0
    7.1609   56.3047   -2.2869 C   0  0  2  0  0  0  0  0  0  0  0  0
    7.6694   56.4094   -0.8335 C   0  0  0  0  0  0  0  0  0  0  0  0
    8.4135   55.6185   -1.8894 C   0  0  0  0  0  0  0  0  0  0  0  0
    4.2313   59.8798   -6.3667 C   0  0  0  0  0  0  0  0  0  0  0  0
    2.8587   59.7674   -6.5995 C   0  0  0  0  0  0  0  0  0  0  0  0
    1.9460   60.0870   -5.6037 C   0  0  0  0  0  0  0  0  0  0  0  0
    2.4009   60.5189   -4.3753 C   0  0  0  0  0  0  0  0  0  0  0  0
    3.7499   60.6406   -4.1139 C   0  0  0  0  0  0  0  0  0  0  0  0
    5.1390   59.5644   -7.3498 C   0  0  0  0  0  0  0  0  0  0  0  0
    4.7050   59.1327   -8.5793 C   0  0  0  0  0  0  0  0  0  0  0  0
    3.3373   59.0249   -8.7987 C   0  0  0  0  0  0  0  0  0  0  0  0
    2.4825   59.3436   -7.8098 N   0  0  0  0  0  0  0  0  0  0  0  0
    4.2459   61.1033   -2.7982 C   0  0  0  0  0  0  0  0  0  0  0  0
  1  2  2  0
  1  6  1  0
  1  8  1  0
  2  3  1  0
  3  4  2  0
  3 15  1  0
  4  5  1  0
  4 17  1  0
  5  6  2  0
  5  7  1  0
  7 21  2  0
  7 25  1  0
  8  9  1  0
  8 12  2  0
  9 10  2  0
  9 14  1  0
 10 11  1  0
 11 12  1  0
 12 13  1  0
 15 16  1  0
 16 17  2  0
 18 16  1  6
 18 19  1  0
 18 20  1  0
 19 20  1  0
 21 22  1  0
 21 26  1  0
 22 23  2  0
 22 29  1  0
 23 24  1  0
 24 25  2  0
 25 30  1  0
 26 27  2  0
 27 28  1  0
 28 29  2  0
M  END
$$$$
