
     RDKit          3D

 30 35  0  0  0  0  0  0  0  0999 V2000
    7.8215   61.7017   -4.8322 C   0  0  0  0  0  0  0  0  0  0  0  0
    6.7040   62.3528   -4.3710 C   0  0  0  0  0  0  0  0  0  0  0  0
    5.6345   61.6419   -3.8545 C   0  0  0  0  0  0  0  0  0  0  0  0
    5.6434   60.2686   -3.7810 C   0  0  0  0  0  0  0  0  0  0  0  0
    6.7716   59.5932   -4.2456 C   0  0  0  0  0  0  0  0  0  0  0  0
    7.8187   60.3083   -4.7524 C   0  0  0  0  0  0  0  0  0  0  0  0
    6.7428   58.1396   -4.1507 C   0  0  0  0  0  0  0  0  0  0  0  0
    8.9600   62.4225   -5.3801 C   0  0  0  0  0  0  0  0  0  0  0  0
    9.9019   63.1657   -4.7111 C   0  0  0  0  0  0  0  0  0  0  0  0
   10.7667   63.6447   -5.6504 N   0  0  0  0  0  0  0  0  0  0  0  0
   10.3984   63.2349   -6.8228 O   0  0  0  0  0  0  0  0  0  0  0  0
    9.3014   62.4859   -6.7107 C   0  0  0  0  0  0  0  0  0  0  0  0
    8.5596   61.8237   -7.8241 C   0  0  0  0  0  0  0  0  0  0  0  0
    9.9310   63.3784   -3.2417 C   0  0  0  0  0  0  0  0  0  0  0  0
    4.4334   62.0456   -3.3421 N   0  0  0  0  0  0  0  0  0  0  0  0
    3.7318   60.9649   -2.9686 C   0  0  0  0  0  0  0  0  0  0  0  0
    4.4798   59.8703   -3.2402 N   0  0  0  0  0  0  0  0  0  0  0  0
    2.3696   61.0051   -2.3640 C   0  0  2  0  0  0  0  0  0  0  0  0
    1.5496   62.2227   -2.8406 C   0  0  0  0  0  0  0  0  0  0  0  0
    2.0022   62.0724   -1.4029 C   0  0  0  0  0  0  0  0  0  0  0  0
    7.4631   57.5378   -3.1280 C   0  0  0  0  0  0  0  0  0  0  0  0
    7.4206   56.1436   -3.0571 C   0  0  0  0  0  0  0  0  0  0  0  0
    6.6841   55.4126   -3.9791 C   0  0  0  0  0  0  0  0  0  0  0  0
    5.9895   56.0710   -4.9724 C   0  0  0  0  0  0  0  0  0  0  0  0
    6.0112   57.4468   -5.0696 C   0  0  0  0  0  0  0  0  0  0  0  0
    8.1912   58.2660   -2.2172 C   0  0  0  0  0  0  0  0  0  0  0  0
    8.8892   57.6281   -1.2212 C   0  0  0  0  0  0  0  0  0  0  0  0
    8.8392   56.2410   -1.1610 C   0  0  0  0  0  0  0  0  0  0  0  0
    8.1147   55.5659   -2.0719 N   0  0  0  0  0  0  0  0  0  0  0  0
    5.2685   58.1606   -6.1326 C   0  0  0  0  0  0  0  0  0  0  0  0
  1  2  2  0
  1  6  1  0
  1  8  1  0
  2  3  1  0
  3  4  2  0
  3 15  1  0
  4  5  1  0
  4 17  1  0
  5  6  2  0
  5  7  1  0
  7 21  2  0
  7 25  1  0
  8  9  1  0
  8 12  2  0
  9 10  2  0
  9 14  1  0
 10 11  1  0
 11 12  1  0
 12 13  1  0
 15 16  1  0
 16 17  2  0
 18 16  1  6
 18 19  1  0
 18 20  1  0
 19 20  1  0
 21 22  1  0
 21 26  1  0
 22 23  2  0
 22 29  1  0
 23 24  1  0
 24 25  2  0
 25 30  1  0
 26 27  2  0
 27 28  1  0
 28 29  2  0
M  END
$$$$
