
     RDKit          3D

 30 35  0  0  0  0  0  0  0  0999 V2000
    8.4710   61.6205   -5.0508 C   0  0  0  0  0  0  0  0  0  0  0  0
    8.9736   60.6965   -4.1682 C   0  0  0  0  0  0  0  0  0  0  0  0
    8.2009   59.6281   -3.7472 C   0  0  0  0  0  0  0  0  0  0  0  0
    6.9112   59.4465   -4.1887 C   0  0  0  0  0  0  0  0  0  0  0  0
    6.3867   60.3768   -5.0855 C   0  0  0  0  0  0  0  0  0  0  0  0
    7.1612   61.4256   -5.4916 C   0  0  0  0  0  0  0  0  0  0  0  0
    5.0178   60.1499   -5.5297 C   0  0  0  0  0  0  0  0  0  0  0  0
    9.2597   62.7530   -5.5104 C   0  0  0  0  0  0  0  0  0  0  0  0
    9.8881   63.7165   -4.7595 C   0  0  0  0  0  0  0  0  0  0  0  0
   10.4985   64.5643   -5.6359 N   0  0  0  0  0  0  0  0  0  0  0  0
   10.2725   64.1661   -6.8477 O   0  0  0  0  0  0  0  0  0  0  0  0
    9.5214   63.0650   -6.8239 C   0  0  0  0  0  0  0  0  0  0  0  0
    9.0392   62.2922   -8.0067 C   0  0  0  0  0  0  0  0  0  0  0  0
    9.8762   63.7806   -3.2758 C   0  0  0  0  0  0  0  0  0  0  0  0
    8.4629   58.5940   -2.8925 N   0  0  0  0  0  0  0  0  0  0  0  0
    7.3786   57.8082   -2.8114 C   0  0  0  0  0  0  0  0  0  0  0  0
    6.4230   58.3358   -3.6115 N   0  0  0  0  0  0  0  0  0  0  0  0
    7.2832   56.5779   -1.9748 C   0  0  2  0  0  0  0  0  0  0  0  0
    7.5361   56.8620   -0.4791 C   0  0  0  0  0  0  0  0  0  0  0  0
    8.4861   56.0234   -1.3090 C   0  0  0  0  0  0  0  0  0  0  0  0
    3.9858   60.6311   -4.7358 C   0  0  0  0  0  0  0  0  0  0  0  0
    2.6822   60.4018   -5.1818 C   0  0  0  0  0  0  0  0  0  0  0  0
    2.4527   59.7207   -6.3693 C   0  0  0  0  0  0  0  0  0  0  0  0
    3.5224   59.2677   -7.1130 C   0  0  0  0  0  0  0  0  0  0  0  0
    4.8215   59.4781   -6.6999 C   0  0  0  0  0  0  0  0  0  0  0  0
    4.2181   61.3052   -3.5604 C   0  0  0  0  0  0  0  0  0  0  0  0
    3.1657   61.7637   -2.8063 C   0  0  0  0  0  0  0  0  0  0  0  0
    1.8737   61.5295   -3.2604 C   0  0  0  0  0  0  0  0  0  0  0  0
    1.6899   60.8657   -4.4162 N   0  0  0  0  0  0  0  0  0  0  0  0
    5.9747   58.9951   -7.4924 C   0  0  0  0  0  0  0  0  0  0  0  0
  1  2  2  0
  1  6  1  0
  1  8  1  0
  2  3  1  0
  3  4  2  0
  3 15  1  0
  4  5  1  0
  4 17  1  0
  5  6  2  0
  5  7  1  0
  7 21  2  0
  7 25  1  0
  8  9  1  0
  8 12  2  0
  9 10  2  0
  9 14  1  0
 10 11  1  0
 11 12  1  0
 12 13  1  0
 15 16  1  0
 16 17  2  0
 18 16  1  6
 18 19  1  0
 18 20  1  0
 19 20  1  0
 21 22  1  0
 21 26  1  0
 22 23  2  0
 22 29  1  0
 23 24  1  0
 24 25  2  0
 25 30  1  0
 26 27  2  0
 27 28  1  0
 28 29  2  0
M  END
$$$$
