
     RDKit          3D

 30 35  0  0  0  0  0  0  0  0999 V2000
    8.5299   61.6754   -5.0032 C   0  0  0  0  0  0  0  0  0  0  0  0
    9.0274   60.7591   -4.0777 C   0  0  0  0  0  0  0  0  0  0  0  0
    8.2545   59.7085   -3.6315 C   0  0  0  0  0  0  0  0  0  0  0  0
    6.9554   59.5174   -4.0809 C   0  0  0  0  0  0  0  0  0  0  0  0
    6.4455   60.4071   -4.9917 C   0  0  0  0  0  0  0  0  0  0  0  0
    7.2216   61.4546   -5.4340 C   0  0  0  0  0  0  0  0  0  0  0  0
    5.0763   60.2036   -5.4637 C   0  0  0  0  0  0  0  0  0  0  0  0
    9.3199   62.7799   -5.4825 C   0  0  0  0  0  0  0  0  0  0  0  0
   10.0119   63.6768   -4.7161 C   0  0  0  0  0  0  0  0  0  0  0  0
   10.6068   64.5366   -5.5472 N   0  0  0  0  0  0  0  0  0  0  0  0
   10.3171   64.2166   -6.7980 O   0  0  0  0  0  0  0  0  0  0  0  0
    9.5345   63.1499   -6.7850 C   0  0  0  0  0  0  0  0  0  0  0  0
    8.9809   62.4669   -7.9755 C   0  0  0  0  0  0  0  0  0  0  0  0
   10.0932   63.6995   -3.2401 C   0  0  0  0  0  0  0  0  0  0  0  0
    8.4955   58.7006   -2.7538 N   0  0  0  0  0  0  0  0  0  0  0  0
    7.3884   57.9409   -2.6823 C   0  0  0  0  0  0  0  0  0  0  0  0
    6.4300   58.4264   -3.4907 N   0  0  0  0  0  0  0  0  0  0  0  0
    7.2372   56.7425   -1.8391 C   0  0  2  0  0  0  0  0  0  0  0  0
    7.8105   56.7928   -0.4149 C   0  0  0  0  0  0  0  0  0  0  0  0
    8.4738   55.9563   -1.4533 C   0  0  0  0  0  0  0  0  0  0  0  0
    4.0393   60.7688   -4.7416 C   0  0  0  0  0  0  0  0  0  0  0  0
    2.7537   60.5525   -5.2224 C   0  0  0  0  0  0  0  0  0  0  0  0
    2.5201   59.8146   -6.3583 C   0  0  0  0  0  0  0  0  0  0  0  0
    3.5804   59.2706   -7.0456 C   0  0  0  0  0  0  0  0  0  0  0  0
    4.8793   59.4587   -6.6055 C   0  0  0  0  0  0  0  0  0  0  0  0
    4.2634   61.5090   -3.6036 C   0  0  0  0  0  0  0  0  0  0  0  0
    3.1849   62.0436   -2.9324 C   0  0  0  0  0  0  0  0  0  0  0  0
    1.9247   61.8073   -3.4403 C   0  0  0  0  0  0  0  0  0  0  0  0
    1.7212   61.0859   -4.5476 N   0  0  0  0  0  0  0  0  0  0  0  0
    6.0260   58.8756   -7.3410 C   0  0  0  0  0  0  0  0  0  0  0  0
  1  2  2  0
  1  6  1  0
  1  8  1  0
  2  3  1  0
  3  4  2  0
  3 15  1  0
  4  5  1  0
  4 17  1  0
  5  6  2  0
  5  7  1  0
  7 21  2  0
  7 25  1  0
  8  9  1  0
  8 12  2  0
  9 10  2  0
 14  9  1  1
 10 11  1  0
 11 12  1  0
 13 12  1  1
 15 16  1  0
 16 17  2  0
 18 16  1  6
 19 18  1  1
 18 20  1  0
 20 19  1  6
 21 22  1  0
 21 26  1  0
 22 23  2  0
 22 29  1  0
 23 24  1  0
 24 25  2  0
 30 25  1  1
 26 27  2  0
 27 28  1  0
 28 29  2  0
M  END
$$$$
