
     RDKit          3D

 30 35  0  0  0  0  0  0  0  0999 V2000
    8.5745   61.5692   -5.0290 C   0  0  0  0  0  0  0  0  0  0  0  0
    9.0513   60.7479   -4.0084 C   0  0  0  0  0  0  0  0  0  0  0  0
    8.2830   59.7195   -3.5059 C   0  0  0  0  0  0  0  0  0  0  0  0
    7.0092   59.4578   -3.9906 C   0  0  0  0  0  0  0  0  0  0  0  0
    6.5199   60.2535   -4.9950 C   0  0  0  0  0  0  0  0  0  0  0  0
    7.2913   61.2791   -5.4932 C   0  0  0  0  0  0  0  0  0  0  0  0
    5.1773   59.9756   -5.5040 C   0  0  0  0  0  0  0  0  0  0  0  0
    9.3601   62.6488   -5.5684 C   0  0  0  0  0  0  0  0  0  0  0  0
    8.8826   63.8196   -6.0898 C   0  0  0  0  0  0  0  0  0  0  0  0
    9.9362   64.5434   -6.4766 N   0  0  0  0  0  0  0  0  0  0  0  0
   11.0502   63.8769   -6.2201 O   0  0  0  0  0  0  0  0  0  0  0  0
   10.7257   62.7198   -5.6667 C   0  0  0  0  0  0  0  0  0  0  0  0
   11.6753   61.6736   -5.2258 C   0  0  0  0  0  0  0  0  0  0  0  0
    7.4643   64.2199   -6.2081 C   0  0  0  0  0  0  0  0  0  0  0  0
    8.5076   58.7964   -2.5355 N   0  0  0  0  0  0  0  0  0  0  0  0
    7.4154   58.0175   -2.4449 C   0  0  0  0  0  0  0  0  0  0  0  0
    6.4826   58.4078   -3.3311 N   0  0  0  0  0  0  0  0  0  0  0  0
    7.2540   56.8916   -1.5088 C   0  0  2  0  0  0  0  0  0  0  0  0
    7.7208   57.0937   -0.0593 C   0  0  0  0  0  0  0  0  0  0  0  0
    8.4913   56.2023   -0.9701 C   0  0  0  0  0  0  0  0  0  0  0  0
    4.0898   60.3445   -4.7309 C   0  0  0  0  0  0  0  0  0  0  0  0
    2.8317   60.0633   -5.2494 C   0  0  0  0  0  0  0  0  0  0  0  0
    2.6717   59.4496   -6.4689 C   0  0  0  0  0  0  0  0  0  0  0  0
    3.7803   59.0998   -7.2046 C   0  0  0  0  0  0  0  0  0  0  0  0
    5.0545   59.3593   -6.7298 C   0  0  0  0  0  0  0  0  0  0  0  0
    4.2401   60.9592   -3.5092 C   0  0  0  0  0  0  0  0  0  0  0  0
    3.1144   61.2999   -2.7909 C   0  0  0  0  0  0  0  0  0  0  0  0
    1.8835   61.0047   -3.3384 C   0  0  0  0  0  0  0  0  0  0  0  0
    1.7518   60.4068   -4.5271 N   0  0  0  0  0  0  0  0  0  0  0  0
    6.2529   58.9852   -7.5171 C   0  0  0  0  0  0  0  0  0  0  0  0
  1  2  2  0
  1  6  1  0
  1  8  1  0
  2  3  1  0
  3  4  2  0
  3 15  1  0
  4  5  1  0
  4 17  1  0
  5  6  2  0
  5  7  1  0
  7 21  2  0
  7 25  1  0
  8  9  1  0
  8 12  2  0
  9 10  2  0
 14  9  1  1
 10 11  1  0
 11 12  1  0
 13 12  1  1
 15 16  1  0
 16 17  2  0
 18 16  1  6
 19 18  1  1
 18 20  1  0
 20 19  1  6
 21 22  1  0
 21 26  1  0
 22 23  2  0
 22 29  1  0
 23 24  1  0
 24 25  2  0
 30 25  1  1
 26 27  2  0
 27 28  1  0
 28 29  2  0
M  END
$$$$
