
     RDKit          3D

 30 35  0  0  0  0  0  0  0  0999 V2000
    8.0144   61.6160   -4.9375 C   0  0  0  0  0  0  0  0  0  0  0  0
    6.7404   62.1693   -4.8178 C   0  0  0  0  0  0  0  0  0  0  0  0
    5.7041   61.4533   -4.2579 C   0  0  0  0  0  0  0  0  0  0  0  0
    5.8818   60.1583   -3.7914 C   0  0  0  0  0  0  0  0  0  0  0  0
    7.1272   59.5940   -3.8992 C   0  0  0  0  0  0  0  0  0  0  0  0
    8.1587   60.3134   -4.4592 C   0  0  0  0  0  0  0  0  0  0  0  0
    7.3119   58.2292   -3.4070 C   0  0  0  0  0  0  0  0  0  0  0  0
    9.1110   62.3461   -5.5191 C   0  0  0  0  0  0  0  0  0  0  0  0
   10.2963   62.6535   -4.9100 C   0  0  0  0  0  0  0  0  0  0  0  0
   11.0330   63.3350   -5.7913 N   0  0  0  0  0  0  0  0  0  0  0  0
   10.3606   63.4668   -6.9233 O   0  0  0  0  0  0  0  0  0  0  0  0
    9.1868   62.8728   -6.7826 C   0  0  0  0  0  0  0  0  0  0  0  0
    8.1291   62.7885   -7.8144 C   0  0  0  0  0  0  0  0  0  0  0  0
   10.6980   62.3015   -3.5314 C   0  0  0  0  0  0  0  0  0  0  0  0
    4.3995   61.7540   -4.0298 N   0  0  0  0  0  0  0  0  0  0  0  0
    3.8235   60.6851   -3.4524 C   0  0  0  0  0  0  0  0  0  0  0  0
    4.7181   59.6933   -3.2971 N   0  0  0  0  0  0  0  0  0  0  0  0
    2.4107   60.6026   -3.0434 C   0  0  2  0  0  0  0  0  0  0  0  0
    1.3922   61.4577   -3.8122 C   0  0  0  0  0  0  0  0  0  0  0  0
    1.7573   61.8160   -2.4137 C   0  0  0  0  0  0  0  0  0  0  0  0
    8.1889   58.0204   -2.3565 C   0  0  0  0  0  0  0  0  0  0  0  0
    8.3365   56.7101   -1.9181 C   0  0  0  0  0  0  0  0  0  0  0  0
    7.6474   55.6710   -2.4967 C   0  0  0  0  0  0  0  0  0  0  0  0
    6.7854   55.9236   -3.5388 C   0  0  0  0  0  0  0  0  0  0  0  0
    6.6051   57.2125   -4.0104 C   0  0  0  0  0  0  0  0  0  0  0  0
    8.8831   59.0541   -1.7711 C   0  0  0  0  0  0  0  0  0  0  0  0
    9.7407   58.7758   -0.7288 C   0  0  0  0  0  0  0  0  0  0  0  0
    9.8604   57.4636   -0.3220 C   0  0  0  0  0  0  0  0  0  0  0  0
    9.1796   56.4683   -0.9000 N   0  0  0  0  0  0  0  0  0  0  0  0
    5.6783   57.4916   -5.1324 C   0  0  0  0  0  0  0  0  0  0  0  0
  1  2  2  0
  1  6  1  0
  1  8  1  0
  2  3  1  0
  3  4  2  0
  3 15  1  0
  4  5  1  0
  4 17  1  0
  5  6  2  0
  5  7  1  0
  7 21  2  0
  7 25  1  0
  8  9  1  0
  8 12  2  0
  9 10  2  0
 14  9  1  1
 10 11  1  0
 11 12  1  0
 13 12  1  1
 15 16  1  0
 16 17  2  0
 18 16  1  6
 19 18  1  1
 18 20  1  0
 20 19  1  6
 21 22  1  0
 21 26  1  0
 22 23  2  0
 22 29  1  0
 23 24  1  0
 24 25  2  0
 30 25  1  1
 26 27  2  0
 27 28  1  0
 28 29  2  0
M  END
$$$$
