
     RDKit          3D

 30 35  0  0  0  0  0  0  0  0999 V2000
    8.4457   61.6243   -4.9350 C   0  0  0  0  0  0  0  0  0  0  0  0
    8.9641   60.6073   -4.1345 C   0  0  0  0  0  0  0  0  0  0  0  0
    8.1728   59.5593   -3.7152 C   0  0  0  0  0  0  0  0  0  0  0  0
    6.8338   59.4706   -4.0690 C   0  0  0  0  0  0  0  0  0  0  0  0
    6.3027   60.4603   -4.8561 C   0  0  0  0  0  0  0  0  0  0  0  0
    7.0973   61.5047   -5.2721 C   0  0  0  0  0  0  0  0  0  0  0  0
    4.8914   60.3645   -5.2275 C   0  0  0  0  0  0  0  0  0  0  0  0
    9.2544   62.7279   -5.3841 C   0  0  0  0  0  0  0  0  0  0  0  0
    9.9517   63.5990   -4.5932 C   0  0  0  0  0  0  0  0  0  0  0  0
   10.5650   64.4680   -5.4008 N   0  0  0  0  0  0  0  0  0  0  0  0
   10.2819   64.1785   -6.6605 O   0  0  0  0  0  0  0  0  0  0  0  0
    9.4851   63.1224   -6.6767 C   0  0  0  0  0  0  0  0  0  0  0  0
    8.9327   62.4721   -7.8860 C   0  0  0  0  0  0  0  0  0  0  0  0
   10.0205   63.5894   -3.1164 C   0  0  0  0  0  0  0  0  0  0  0  0
    8.4271   58.4677   -2.9484 N   0  0  0  0  0  0  0  0  0  0  0  0
    7.2894   57.7582   -2.8488 C   0  0  0  0  0  0  0  0  0  0  0  0
    6.2979   58.3580   -3.5307 N   0  0  0  0  0  0  0  0  0  0  0  0
    7.1402   56.4987   -2.0995 C   0  0  2  0  0  0  0  0  0  0  0  0
    7.7420   56.4303   -0.6879 C   0  0  0  0  0  0  0  0  0  0  0  0
    8.3744   55.6714   -1.8022 C   0  0  0  0  0  0  0  0  0  0  0  0
    4.5710   59.8574   -6.4751 C   0  0  0  0  0  0  0  0  0  0  0  0
    3.2197   59.7828   -6.7900 C   0  0  0  0  0  0  0  0  0  0  0  0
    2.2472   60.1912   -5.9087 C   0  0  0  0  0  0  0  0  0  0  0  0
    2.6101   60.6892   -4.6786 C   0  0  0  0  0  0  0  0  0  0  0  0
    3.9438   60.7830   -4.3196 C   0  0  0  0  0  0  0  0  0  0  0  0
    5.5375   59.4461   -7.3639 C   0  0  0  0  0  0  0  0  0  0  0  0
    5.1489   58.9509   -8.5899 C   0  0  0  0  0  0  0  0  0  0  0  0
    3.7989   58.8924   -8.8659 C   0  0  0  0  0  0  0  0  0  0  0  0
    2.8701   59.2957   -7.9926 N   0  0  0  0  0  0  0  0  0  0  0  0
    4.3417   61.3184   -2.9964 C   0  0  0  0  0  0  0  0  0  0  0  0
  1  2  2  0
  1  6  1  0
  1  8  1  0
  2  3  1  0
  3  4  2  0
  3 15  1  0
  4  5  1  0
  4 17  1  0
  5  6  2  0
  5  7  1  0
  7 21  2  0
  7 25  1  0
  8  9  1  0
  8 12  2  0
  9 10  2  0
 14  9  1  1
 10 11  1  0
 11 12  1  0
 13 12  1  1
 15 16  1  0
 16 17  2  0
 18 16  1  6
 19 18  1  1
 18 20  1  0
 20 19  1  6
 21 22  1  0
 21 26  1  0
 22 23  2  0
 22 29  1  0
 23 24  1  0
 24 25  2  0
 30 25  1  1
 26 27  2  0
 27 28  1  0
 28 29  2  0
M  END
$$$$
