
     RDKit          3D

 30 35  0  0  0  0  0  0  0  0999 V2000
    8.5550   61.7930   -5.0364 C   0  0  0  0  0  0  0  0  0  0  0  0
    9.0665   60.7136   -4.3173 C   0  0  0  0  0  0  0  0  0  0  0  0
    8.2563   59.6658   -3.9355 C   0  0  0  0  0  0  0  0  0  0  0  0
    6.9043   59.6389   -4.2478 C   0  0  0  0  0  0  0  0  0  0  0  0
    6.3798   60.6907   -4.9548 C   0  0  0  0  0  0  0  0  0  0  0  0
    7.1933   61.7346   -5.3337 C   0  0  0  0  0  0  0  0  0  0  0  0
    4.9548   60.6600   -5.2827 C   0  0  0  0  0  0  0  0  0  0  0  0
    9.3834   62.8976   -5.4453 C   0  0  0  0  0  0  0  0  0  0  0  0
    9.5831   63.3328   -6.7264 C   0  0  0  0  0  0  0  0  0  0  0  0
   10.4154   64.3757   -6.6685 N   0  0  0  0  0  0  0  0  0  0  0  0
   10.7442   64.6111   -5.4086 O   0  0  0  0  0  0  0  0  0  0  0  0
   10.1283   63.7241   -4.6442 C   0  0  0  0  0  0  0  0  0  0  0  0
   10.2246   63.6352   -3.1700 C   0  0  0  0  0  0  0  0  0  0  0  0
    8.9920   62.7616   -7.9552 C   0  0  0  0  0  0  0  0  0  0  0  0
    8.5005   58.5219   -3.2455 N   0  0  0  0  0  0  0  0  0  0  0  0
    7.3446   57.8417   -3.1500 C   0  0  0  0  0  0  0  0  0  0  0  0
    6.3511   58.5117   -3.7599 N   0  0  0  0  0  0  0  0  0  0  0  0
    7.1797   56.5434   -2.4739 C   0  0  2  0  0  0  0  0  0  0  0  0
    7.5892   56.4491   -0.9963 C   0  0  0  0  0  0  0  0  0  0  0  0
    8.4149   55.7804   -2.0398 C   0  0  0  0  0  0  0  0  0  0  0  0
    4.5806   60.2845   -6.5614 C   0  0  0  0  0  0  0  0  0  0  0  0
    3.2179   60.2680   -6.8331 C   0  0  0  0  0  0  0  0  0  0  0  0
    2.2857   60.6073   -5.8817 C   0  0  0  0  0  0  0  0  0  0  0  0
    2.7017   60.9746   -4.6229 C   0  0  0  0  0  0  0  0  0  0  0  0
    4.0486   61.0061   -4.3047 C   0  0  0  0  0  0  0  0  0  0  0  0
    5.5064   59.9432   -7.5203 C   0  0  0  0  0  0  0  0  0  0  0  0
    5.0650   59.5788   -8.7740 C   0  0  0  0  0  0  0  0  0  0  0  0
    3.7055   59.5746   -9.0055 C   0  0  0  0  0  0  0  0  0  0  0  0
    2.8165   59.9085   -8.0642 N   0  0  0  0  0  0  0  0  0  0  0  0
    4.5035   61.4008   -2.9508 C   0  0  0  0  0  0  0  0  0  0  0  0
  1  2  2  0
  1  6  1  0
  1  8  1  0
  2  3  1  0
  3  4  2  0
  3 15  1  0
  4  5  1  0
  4 17  1  0
  5  6  2  0
  5  7  1  0
  7 21  2  0
  7 25  1  0
  8  9  1  0
  8 12  2  0
  9 10  2  0
 14  9  1  1
 10 11  1  0
 11 12  1  0
 13 12  1  1
 15 16  1  0
 16 17  2  0
 18 16  1  6
 19 18  1  1
 18 20  1  0
 20 19  1  6
 21 22  1  0
 21 26  1  0
 22 23  2  0
 22 29  1  0
 23 24  1  0
 24 25  2  0
 30 25  1  1
 26 27  2  0
 27 28  1  0
 28 29  2  0
M  END
$$$$
