
     RDKit          3D

 30 35  0  0  0  0  0  0  0  0999 V2000
    8.6114   61.7567   -4.9446 C   0  0  0  0  0  0  0  0  0  0  0  0
    9.1468   60.7653   -4.1235 C   0  0  0  0  0  0  0  0  0  0  0  0
    8.3805   59.6988   -3.7045 C   0  0  0  0  0  0  0  0  0  0  0  0
    7.0508   59.5654   -4.0790 C   0  0  0  0  0  0  0  0  0  0  0  0
    6.5034   60.5293   -4.8866 C   0  0  0  0  0  0  0  0  0  0  0  0
    7.2730   61.5924   -5.3022 C   0  0  0  0  0  0  0  0  0  0  0  0
    5.1020   60.3865   -5.2798 C   0  0  0  0  0  0  0  0  0  0  0  0
    9.3938   62.8790   -5.3938 C   0  0  0  0  0  0  0  0  0  0  0  0
   10.0828   63.7575   -4.6036 C   0  0  0  0  0  0  0  0  0  0  0  0
   10.6706   64.6442   -5.4110 N   0  0  0  0  0  0  0  0  0  0  0  0
   10.3794   64.3587   -6.6699 O   0  0  0  0  0  0  0  0  0  0  0  0
    9.6029   63.2877   -6.6857 C   0  0  0  0  0  0  0  0  0  0  0  0
    9.0500   62.6360   -7.8940 C   0  0  0  0  0  0  0  0  0  0  0  0
   10.1678   63.7380   -3.1278 C   0  0  0  0  0  0  0  0  0  0  0  0
    8.6548   58.6243   -2.9205 N   0  0  0  0  0  0  0  0  0  0  0  0
    7.5374   57.8818   -2.8309 C   0  0  0  0  0  0  0  0  0  0  0  0
    6.5398   58.4434   -3.5361 N   0  0  0  0  0  0  0  0  0  0  0  0
    7.4137   56.6271   -2.0690 C   0  0  2  0  0  0  0  0  0  0  0  0
    8.1249   56.5422   -0.7101 C   0  0  0  0  0  0  0  0  0  0  0  0
    8.6442   55.7656   -1.8698 C   0  0  0  0  0  0  0  0  0  0  0  0
    4.8185   59.9343   -6.5571 C   0  0  0  0  0  0  0  0  0  0  0  0
    3.4754   59.8123   -6.8919 C   0  0  0  0  0  0  0  0  0  0  0  0
    2.4759   60.1242   -6.0015 C   0  0  0  0  0  0  0  0  0  0  0  0
    2.8025   60.5702   -4.7417 C   0  0  0  0  0  0  0  0  0  0  0  0
    4.1266   60.7081   -4.3619 C   0  0  0  0  0  0  0  0  0  0  0  0
    5.8122   59.6197   -7.4553 C   0  0  0  0  0  0  0  0  0  0  0  0
    5.4598   59.1750   -8.7112 C   0  0  0  0  0  0  0  0  0  0  0  0
    4.1170   59.0670   -9.0063 C   0  0  0  0  0  0  0  0  0  0  0  0
    3.1613   59.3762   -8.1236 N   0  0  0  0  0  0  0  0  0  0  0  0
    4.4854   61.1880   -3.0066 C   0  0  0  0  0  0  0  0  0  0  0  0
  1  2  2  0
  1  6  1  0
  1  8  1  0
  2  3  1  0
  3  4  2  0
  3 15  1  0
  4  5  1  0
  4 17  1  0
  5  6  2  0
  5  7  1  0
  7 21  2  0
  7 25  1  0
  8  9  1  0
  8 12  2  0
  9 10  2  0
 14  9  1  1
 10 11  1  0
 11 12  1  0
 13 12  1  1
 15 16  1  0
 16 17  2  0
 18 16  1  6
 19 18  1  1
 18 20  1  0
 20 19  1  6
 21 22  1  0
 21 26  1  0
 22 23  2  0
 22 29  1  0
 23 24  1  0
 24 25  2  0
 30 25  1  1
 26 27  2  0
 27 28  1  0
 28 29  2  0
M  END
$$$$
