
     RDKit          3D

 30 35  0  0  0  0  0  0  0  0999 V2000
    8.6044   61.7756   -5.0588 C   0  0  0  0  0  0  0  0  0  0  0  0
    8.9657   61.0168   -3.9730 C   0  0  0  0  0  0  0  0  0  0  0  0
    8.1355   60.0134   -3.5041 C   0  0  0  0  0  0  0  0  0  0  0  0
    6.9265   59.7351   -4.0977 C   0  0  0  0  0  0  0  0  0  0  0  0
    6.5457   60.4974   -5.2017 C   0  0  0  0  0  0  0  0  0  0  0  0
    7.3755   61.4838   -5.6525 C   0  0  0  0  0  0  0  0  0  0  0  0
    5.2588   60.1722   -5.8023 C   0  0  0  0  0  0  0  0  0  0  0  0
    9.4564   62.8363   -5.5733 C   0  0  0  0  0  0  0  0  0  0  0  0
   10.8223   62.9527   -5.4844 C   0  0  0  0  0  0  0  0  0  0  0  0
   11.1615   64.1132   -6.1151 N   0  0  0  0  0  0  0  0  0  0  0  0
   10.0910   64.6855   -6.5675 O   0  0  0  0  0  0  0  0  0  0  0  0
    9.0251   63.9454   -6.2624 C   0  0  0  0  0  0  0  0  0  0  0  0
    7.6038   64.2516   -6.6014 C   0  0  0  0  0  0  0  0  0  0  0  0
   11.7178   61.9737   -4.8173 C   0  0  0  0  0  0  0  0  0  0  0  0
    8.2628   59.1363   -2.4636 N   0  0  0  0  0  0  0  0  0  0  0  0
    7.1765   58.3503   -2.4187 C   0  0  0  0  0  0  0  0  0  0  0  0
    6.3539   58.7214   -3.4272 N   0  0  0  0  0  0  0  0  0  0  0  0
    6.9527   57.2688   -1.4172 C   0  0  2  0  0  0  0  0  0  0  0  0
    7.8885   57.3941   -0.1963 C   0  0  0  0  0  0  0  0  0  0  0  0
    7.9923   56.2406   -1.1725 C   0  0  0  0  0  0  0  0  0  0  0  0
    4.1084   60.4964   -5.0962 C   0  0  0  0  0  0  0  0  0  0  0  0
    2.8865   60.1752   -5.6918 C   0  0  0  0  0  0  0  0  0  0  0  0
    2.8484   59.5593   -6.9352 C   0  0  0  0  0  0  0  0  0  0  0  0
    4.0281   59.2633   -7.5857 C   0  0  0  0  0  0  0  0  0  0  0  0
    5.2508   59.5675   -7.0244 C   0  0  0  0  0  0  0  0  0  0  0  0
    4.1513   61.1063   -3.8649 C   0  0  0  0  0  0  0  0  0  0  0  0
    2.9872   61.4089   -3.2020 C   0  0  0  0  0  0  0  0  0  0  0  0
    1.7781   61.0844   -3.8046 C   0  0  0  0  0  0  0  0  0  0  0  0
    1.7801   60.4880   -5.0106 N   0  0  0  0  0  0  0  0  0  0  0  0
    6.5211   59.2531   -7.7163 C   0  0  0  0  0  0  0  0  0  0  0  0
  1  2  2  0
  1  6  1  0
  1  8  1  0
  2  3  1  0
  3  4  2  0
  3 15  1  0
  4  5  1  0
  4 17  1  0
  5  6  2  0
  5  7  1  0
  7 21  2  0
  7 25  1  0
  8  9  1  0
  8 12  2  0
  9 10  2  0
  9 14  1  0
 10 11  1  0
 11 12  1  0
 12 13  1  0
 15 16  1  0
 16 17  2  0
 18 16  1  6
 18 19  1  0
 18 20  1  0
 19 20  1  0
 21 22  1  0
 21 26  1  0
 22 23  2  0
 22 29  1  0
 23 24  1  0
 24 25  2  0
 25 30  1  0
 26 27  2  0
 27 28  1  0
 28 29  2  0
M  END
$$$$
