
     RDKit          3D

 30 35  0  0  0  0  0  0  0  0999 V2000
    8.1894   61.6102   -4.9951 C   0  0  0  0  0  0  0  0  0  0  0  0
    8.7107   60.6485   -4.1651 C   0  0  0  0  0  0  0  0  0  0  0  0
    7.9335   59.5850   -3.7400 C   0  0  0  0  0  0  0  0  0  0  0  0
    6.6206   59.4457   -4.1251 C   0  0  0  0  0  0  0  0  0  0  0  0
    6.0770   60.4146   -4.9680 C   0  0  0  0  0  0  0  0  0  0  0  0
    6.8562   61.4580   -5.3790 C   0  0  0  0  0  0  0  0  0  0  0  0
    4.6838   60.2319   -5.3535 C   0  0  0  0  0  0  0  0  0  0  0  0
    8.9823   62.7385   -5.4577 C   0  0  0  0  0  0  0  0  0  0  0  0
    9.3818   63.8474   -4.7521 C   0  0  0  0  0  0  0  0  0  0  0  0
   10.1037   64.6227   -5.6108 N   0  0  0  0  0  0  0  0  0  0  0  0
   10.1556   64.0468   -6.7700 O   0  0  0  0  0  0  0  0  0  0  0  0
    9.4866   62.8947   -6.7275 C   0  0  0  0  0  0  0  0  0  0  0  0
    9.3060   61.9296   -7.8521 C   0  0  0  0  0  0  0  0  0  0  0  0
    9.0631   64.1081   -3.3253 C   0  0  0  0  0  0  0  0  0  0  0  0
    8.2106   58.5195   -2.9298 N   0  0  0  0  0  0  0  0  0  0  0  0
    7.1131   57.7558   -2.8209 C   0  0  0  0  0  0  0  0  0  0  0  0
    6.1339   58.3288   -3.5587 N   0  0  0  0  0  0  0  0  0  0  0  0
    7.0278   56.5027   -2.0177 C   0  0  2  0  0  0  0  0  0  0  0  0
    7.9049   56.5558   -0.7489 C   0  0  0  0  0  0  0  0  0  0  0  0
    8.2020   55.6065   -1.8912 C   0  0  0  0  0  0  0  0  0  0  0  0
    3.7011   60.6646   -4.4737 C   0  0  0  0  0  0  0  0  0  0  0  0
    2.3731   60.4790   -4.8646 C   0  0  0  0  0  0  0  0  0  0  0  0
    2.0729   59.8860   -6.0831 C   0  0  0  0  0  0  0  0  0  0  0  0
    3.0963   59.4775   -6.9129 C   0  0  0  0  0  0  0  0  0  0  0  0
    4.4179   59.6466   -6.5559 C   0  0  0  0  0  0  0  0  0  0  0  0
    4.0034   61.2514   -3.2678 C   0  0  0  0  0  0  0  0  0  0  0  0
    2.9980   61.6646   -2.4283 C   0  0  0  0  0  0  0  0  0  0  0  0
    1.6810   61.4746   -2.8282 C   0  0  0  0  0  0  0  0  0  0  0  0
    1.4283   60.8962   -4.0164 N   0  0  0  0  0  0  0  0  0  0  0  0
    5.5216   59.2109   -7.4409 C   0  0  0  0  0  0  0  0  0  0  0  0
  1  2  2  0
  1  6  1  0
  1  8  1  0
  2  3  1  0
  3  4  2  0
  3 15  1  0
  4  5  1  0
  4 17  1  0
  5  6  2  0
  5  7  1  0
  7 21  2  0
  7 25  1  0
  8  9  1  0
  8 12  2  0
  9 10  2  0
  9 14  1  0
 10 11  1  0
 11 12  1  0
 12 13  1  0
 15 16  1  0
 16 17  2  0
 18 16  1  6
 18 19  1  0
 18 20  1  0
 19 20  1  0
 21 22  1  0
 21 26  1  0
 22 23  2  0
 22 29  1  0
 23 24  1  0
 24 25  2  0
 25 30  1  0
 26 27  2  0
 27 28  1  0
 28 29  2  0
M  END
$$$$
