
     RDKit          3D

 30 35  0  0  0  0  0  0  0  0999 V2000
    8.1830   61.8374   -5.0777 C   0  0  0  0  0  0  0  0  0  0  0  0
    8.6892   60.8995   -4.2120 C   0  0  0  0  0  0  0  0  0  0  0  0
    7.9078   59.8421   -3.7796 C   0  0  0  0  0  0  0  0  0  0  0  0
    6.6054   59.6856   -4.1926 C   0  0  0  0  0  0  0  0  0  0  0  0
    6.0770   60.6303   -5.0720 C   0  0  0  0  0  0  0  0  0  0  0  0
    6.8604   61.6679   -5.4897 C   0  0  0  0  0  0  0  0  0  0  0  0
    4.6946   60.4298   -5.4862 C   0  0  0  0  0  0  0  0  0  0  0  0
    8.9807   62.9588   -5.5488 C   0  0  0  0  0  0  0  0  0  0  0  0
    9.6293   63.9161   -4.8072 C   0  0  0  0  0  0  0  0  0  0  0  0
   10.2406   64.7541   -5.6923 N   0  0  0  0  0  0  0  0  0  0  0  0
    9.9964   64.3559   -6.9006 O   0  0  0  0  0  0  0  0  0  0  0  0
    9.2319   63.2644   -6.8658 C   0  0  0  0  0  0  0  0  0  0  0  0
    8.7271   62.4950   -8.0413 C   0  0  0  0  0  0  0  0  0  0  0  0
    9.6346   63.9839   -3.3237 C   0  0  0  0  0  0  0  0  0  0  0  0
    8.1709   58.7985   -2.9370 N   0  0  0  0  0  0  0  0  0  0  0  0
    7.0752   58.0312   -2.8357 C   0  0  0  0  0  0  0  0  0  0  0  0
    6.1111   58.5801   -3.6107 N   0  0  0  0  0  0  0  0  0  0  0  0
    6.9773   56.7976   -2.0041 C   0  0  2  0  0  0  0  0  0  0  0  0
    7.4837   57.0175   -0.5628 C   0  0  0  0  0  0  0  0  0  0  0  0
    8.2014   56.1048   -1.5356 C   0  0  0  0  0  0  0  0  0  0  0  0
    3.6886   60.8162   -4.6112 C   0  0  0  0  0  0  0  0  0  0  0  0
    2.3714   60.6145   -5.0298 C   0  0  0  0  0  0  0  0  0  0  0  0
    2.1040   60.0509   -6.2698 C   0  0  0  0  0  0  0  0  0  0  0  0
    3.1493   59.6881   -7.0934 C   0  0  0  0  0  0  0  0  0  0  0  0
    4.4610   59.8742   -6.7093 C   0  0  0  0  0  0  0  0  0  0  0  0
    3.9584   61.3740   -3.3840 C   0  0  0  0  0  0  0  0  0  0  0  0
    2.9308   61.7416   -2.5503 C   0  0  0  0  0  0  0  0  0  0  0  0
    1.6249   61.5359   -2.9778 C   0  0  0  0  0  0  0  0  0  0  0  0
    1.4042   60.9870   -4.1862 N   0  0  0  0  0  0  0  0  0  0  0  0
    5.5882   59.4875   -7.5874 C   0  0  0  0  0  0  0  0  0  0  0  0
  1  2  2  0
  1  6  1  0
  1  8  1  0
  2  3  1  0
  3  4  2  0
  3 15  1  0
  4  5  1  0
  4 17  1  0
  5  6  2  0
  5  7  1  0
  7 21  2  0
  7 25  1  0
  8  9  1  0
  8 12  2  0
  9 10  2  0
  9 14  1  0
 10 11  1  0
 11 12  1  0
 12 13  1  0
 15 16  1  0
 16 17  2  0
 18 16  1  6
 18 19  1  0
 18 20  1  0
 19 20  1  0
 21 22  1  0
 21 26  1  0
 22 23  2  0
 22 29  1  0
 23 24  1  0
 24 25  2  0
 25 30  1  0
 26 27  2  0
 27 28  1  0
 28 29  2  0
M  END
$$$$
