
     RDKit          3D

 30 35  0  0  0  0  0  0  0  0999 V2000
    8.2654   61.7787   -5.1394 C   0  0  0  0  0  0  0  0  0  0  0  0
    8.7808   60.8825   -4.2357 C   0  0  0  0  0  0  0  0  0  0  0  0
    8.0305   59.8020   -3.8054 C   0  0  0  0  0  0  0  0  0  0  0  0
    6.7509   59.5804   -4.2582 C   0  0  0  0  0  0  0  0  0  0  0  0
    6.2137   60.4821   -5.1765 C   0  0  0  0  0  0  0  0  0  0  0  0
    6.9662   61.5434   -5.5915 C   0  0  0  0  0  0  0  0  0  0  0  0
    4.8562   60.2132   -5.6321 C   0  0  0  0  0  0  0  0  0  0  0  0
    9.0307   62.9230   -5.6092 C   0  0  0  0  0  0  0  0  0  0  0  0
    8.6243   63.9388   -6.4399 C   0  0  0  0  0  0  0  0  0  0  0  0
    9.6901   64.7759   -6.5907 N   0  0  0  0  0  0  0  0  0  0  0  0
   10.6929   64.3227   -5.9071 O   0  0  0  0  0  0  0  0  0  0  0  0
   10.3407   63.1945   -5.2907 C   0  0  0  0  0  0  0  0  0  0  0  0
   11.2043   62.3584   -4.4053 C   0  0  0  0  0  0  0  0  0  0  0  0
    7.2695   64.0593   -7.0362 C   0  0  0  0  0  0  0  0  0  0  0  0
    8.3084   58.7892   -2.9305 N   0  0  0  0  0  0  0  0  0  0  0  0
    7.2434   57.9776   -2.8483 C   0  0  0  0  0  0  0  0  0  0  0  0
    6.2842   58.4675   -3.6679 N   0  0  0  0  0  0  0  0  0  0  0  0
    7.1692   56.7594   -1.9923 C   0  0  2  0  0  0  0  0  0  0  0  0
    7.7716   56.9877   -0.5898 C   0  0  0  0  0  0  0  0  0  0  0  0
    8.4037   56.0431   -1.5911 C   0  0  0  0  0  0  0  0  0  0  0  0
    4.6899   59.6396   -6.8852 C   0  0  0  0  0  0  0  0  0  0  0  0
    3.3798   59.3911   -7.3007 C   0  0  0  0  0  0  0  0  0  0  0  0
    2.3070   59.7118   -6.4803 C   0  0  0  0  0  0  0  0  0  0  0  0
    2.5395   60.2803   -5.2453 C   0  0  0  0  0  0  0  0  0  0  0  0
    3.8213   60.5383   -4.8059 C   0  0  0  0  0  0  0  0  0  0  0  0
    5.7556   59.3238   -7.6942 C   0  0  0  0  0  0  0  0  0  0  0  0
    5.5439   58.7570   -8.9273 C   0  0  0  0  0  0  0  0  0  0  0  0
    4.2363   58.5147   -9.3293 C   0  0  0  0  0  0  0  0  0  0  0  0
    3.2216   58.8388   -8.5073 N   0  0  0  0  0  0  0  0  0  0  0  0
    4.0789   61.1482   -3.4820 C   0  0  0  0  0  0  0  0  0  0  0  0
  1  2  2  0
  1  6  1  0
  1  8  1  0
  2  3  1  0
  3  4  2  0
  3 15  1  0
  4  5  1  0
  4 17  1  0
  5  6  2  0
  5  7  1  0
  7 21  2  0
  7 25  1  0
  8  9  1  0
  8 12  2  0
  9 10  2  0
  9 14  1  0
 10 11  1  0
 11 12  1  0
 12 13  1  0
 15 16  1  0
 16 17  2  0
 18 16  1  6
 18 19  1  0
 18 20  1  0
 19 20  1  0
 21 22  1  0
 21 26  1  0
 22 23  2  0
 22 29  1  0
 23 24  1  0
 24 25  2  0
 25 30  1  0
 26 27  2  0
 27 28  1  0
 28 29  2  0
M  END
$$$$
