
     RDKit          3D

 30 35  0  0  0  0  0  0  0  0999 V2000
    8.2785   61.7379   -4.8910 C   0  0  0  0  0  0  0  0  0  0  0  0
    8.7175   60.8729   -3.8896 C   0  0  0  0  0  0  0  0  0  0  0  0
    7.9146   59.8506   -3.4309 C   0  0  0  0  0  0  0  0  0  0  0  0
    6.6419   59.6384   -3.9421 C   0  0  0  0  0  0  0  0  0  0  0  0
    6.1895   60.4776   -4.9281 C   0  0  0  0  0  0  0  0  0  0  0  0
    6.9954   61.4970   -5.3827 C   0  0  0  0  0  0  0  0  0  0  0  0
    4.8480   60.2519   -5.4652 C   0  0  0  0  0  0  0  0  0  0  0  0
    9.1007   62.8120   -5.3847 C   0  0  0  0  0  0  0  0  0  0  0  0
    9.0665   63.3495   -6.6420 C   0  0  0  0  0  0  0  0  0  0  0  0
    9.9847   64.3183   -6.6870 N   0  0  0  0  0  0  0  0  0  0  0  0
   10.5906   64.4097   -5.5142 O   0  0  0  0  0  0  0  0  0  0  0  0
   10.0698   63.5027   -4.7039 C   0  0  0  0  0  0  0  0  0  0  0  0
   10.4644   63.2692   -3.2968 C   0  0  0  0  0  0  0  0  0  0  0  0
    8.1809   62.9411   -7.7530 C   0  0  0  0  0  0  0  0  0  0  0  0
    8.0996   58.8922   -2.4866 N   0  0  0  0  0  0  0  0  0  0  0  0
    6.9859   58.1406   -2.4364 C   0  0  0  0  0  0  0  0  0  0  0  0
    6.0776   58.5831   -3.3235 N   0  0  0  0  0  0  0  0  0  0  0  0
    6.7802   56.9911   -1.5384 C   0  0  2  0  0  0  0  0  0  0  0  0
    7.5999   56.9417   -0.2402 C   0  0  0  0  0  0  0  0  0  0  0  0
    7.9081   55.9970   -1.3493 C   0  0  0  0  0  0  0  0  0  0  0  0
    3.7611   60.6948   -4.7313 C   0  0  0  0  0  0  0  0  0  0  0  0
    2.5040   60.4613   -5.2756 C   0  0  0  0  0  0  0  0  0  0  0  0
    2.3446   59.8227   -6.4822 C   0  0  0  0  0  0  0  0  0  0  0  0
    3.4527   59.3988   -7.1787 C   0  0  0  0  0  0  0  0  0  0  0  0
    4.7258   59.6087   -6.6771 C   0  0  0  0  0  0  0  0  0  0  0  0
    3.9108   61.3350   -3.5227 C   0  0  0  0  0  0  0  0  0  0  0  0
    2.7855   61.7502   -2.8438 C   0  0  0  0  0  0  0  0  0  0  0  0
    1.5557   61.5006   -3.4159 C   0  0  0  0  0  0  0  0  0  0  0  0
    1.4246   60.8772   -4.5915 N   0  0  0  0  0  0  0  0  0  0  0  0
    5.9236   59.1547   -7.4221 C   0  0  0  0  0  0  0  0  0  0  0  0
  1  2  2  0
  1  6  1  0
  1  8  1  0
  2  3  1  0
  3  4  2  0
  3 15  1  0
  4  5  1  0
  4 17  1  0
  5  6  2  0
  5  7  1  0
  7 21  2  0
  7 25  1  0
  8  9  1  0
  8 12  2  0
  9 10  2  0
 14  9  1  1
 10 11  1  0
 11 12  1  0
 13 12  1  1
 15 16  1  0
 16 17  2  0
 18 16  1  6
 19 18  1  1
 18 20  1  0
 20 19  1  6
 21 22  1  0
 21 26  1  0
 22 23  2  0
 22 29  1  0
 23 24  1  0
 24 25  2  0
 30 25  1  1
 26 27  2  0
 27 28  1  0
 28 29  2  0
M  END
$$$$
