
     RDKit          3D

 30 35  0  0  0  0  0  0  0  0999 V2000
    8.2364   61.6472   -5.0086 C   0  0  0  0  0  0  0  0  0  0  0  0
    6.9282   62.1231   -4.9311 C   0  0  0  0  0  0  0  0  0  0  0  0
    5.9518   61.4132   -4.2656 C   0  0  0  0  0  0  0  0  0  0  0  0
    6.2257   60.2013   -3.6472 C   0  0  0  0  0  0  0  0  0  0  0  0
    7.5062   59.7142   -3.7109 C   0  0  0  0  0  0  0  0  0  0  0  0
    8.4777   60.4270   -4.3768 C   0  0  0  0  0  0  0  0  0  0  0  0
    7.7923   58.4369   -3.0585 C   0  0  0  0  0  0  0  0  0  0  0  0
    9.2716   62.3724   -5.6985 C   0  0  0  0  0  0  0  0  0  0  0  0
   10.2111   63.1868   -5.1286 C   0  0  0  0  0  0  0  0  0  0  0  0
   10.9778   63.6620   -6.1135 N   0  0  0  0  0  0  0  0  0  0  0  0
   10.5590   63.1807   -7.2728 O   0  0  0  0  0  0  0  0  0  0  0  0
    9.5208   62.3925   -7.0465 C   0  0  0  0  0  0  0  0  0  0  0  0
    8.7534   61.6539   -8.0740 C   0  0  0  0  0  0  0  0  0  0  0  0
   10.3594   63.4916   -3.6895 C   0  0  0  0  0  0  0  0  0  0  0  0
    4.6323   61.6504   -4.0489 N   0  0  0  0  0  0  0  0  0  0  0  0
    4.1399   60.6247   -3.3324 C   0  0  0  0  0  0  0  0  0  0  0  0
    5.1037   59.7232   -3.0751 N   0  0  0  0  0  0  0  0  0  0  0  0
    2.7416   60.4976   -2.8868 C   0  0  2  0  0  0  0  0  0  0  0  0
    1.6768   61.3198   -3.6283 C   0  0  0  0  0  0  0  0  0  0  0  0
    2.0667   61.6900   -2.2395 C   0  0  0  0  0  0  0  0  0  0  0  0
    7.1130   57.3102   -3.4889 C   0  0  0  0  0  0  0  0  0  0  0  0
    7.4129   56.1165   -2.8439 C   0  0  0  0  0  0  0  0  0  0  0  0
    8.3376   56.0544   -1.8289 C   0  0  0  0  0  0  0  0  0  0  0  0
    8.9900   57.1989   -1.4325 C   0  0  0  0  0  0  0  0  0  0  0  0
    8.7248   58.4117   -2.0450 C   0  0  0  0  0  0  0  0  0  0  0  0
    6.1857   57.3625   -4.5040 C   0  0  0  0  0  0  0  0  0  0  0  0
    5.5454   56.2025   -4.8832 C   0  0  0  0  0  0  0  0  0  0  0  0
    5.8698   55.0378   -4.2197 C   0  0  0  0  0  0  0  0  0  0  0  0
    6.7732   55.0011   -3.2346 N   0  0  0  0  0  0  0  0  0  0  0  0
    9.4238   59.6484   -1.6231 C   0  0  0  0  0  0  0  0  0  0  0  0
  1  2  2  0
  1  6  1  0
  1  8  1  0
  2  3  1  0
  3  4  2  0
  3 15  1  0
  4  5  1  0
  4 17  1  0
  5  6  2  0
  5  7  1  0
  7 21  2  0
  7 25  1  0
  8  9  1  0
  8 12  2  0
  9 10  2  0
 14  9  1  1
 10 11  1  0
 11 12  1  0
 13 12  1  1
 15 16  1  0
 16 17  2  0
 18 16  1  6
 19 18  1  1
 18 20  1  0
 20 19  1  6
 21 22  1  0
 21 26  1  0
 22 23  2  0
 22 29  1  0
 23 24  1  0
 24 25  2  0
 30 25  1  1
 26 27  2  0
 27 28  1  0
 28 29  2  0
M  END
$$$$
