
     RDKit          3D

 30 35  0  0  0  0  0  0  0  0999 V2000
    8.2049   61.8287   -4.9970 C   0  0  0  0  0  0  0  0  0  0  0  0
    8.6549   60.9979   -3.9718 C   0  0  0  0  0  0  0  0  0  0  0  0
    7.8764   59.9611   -3.5035 C   0  0  0  0  0  0  0  0  0  0  0  0
    6.6185   59.6999   -4.0283 C   0  0  0  0  0  0  0  0  0  0  0  0
    6.1557   60.5049   -5.0378 C   0  0  0  0  0  0  0  0  0  0  0  0
    6.9371   61.5389   -5.5018 C   0  0  0  0  0  0  0  0  0  0  0  0
    4.8298   60.2276   -5.5891 C   0  0  0  0  0  0  0  0  0  0  0  0
    9.0016   62.9171   -5.5011 C   0  0  0  0  0  0  0  0  0  0  0  0
   10.2997   63.1947   -5.1713 C   0  0  0  0  0  0  0  0  0  0  0  0
   10.6617   64.2823   -5.8566 N   0  0  0  0  0  0  0  0  0  0  0  0
    9.6479   64.6962   -6.5994 O   0  0  0  0  0  0  0  0  0  0  0  0
    8.6251   63.8811   -6.4004 C   0  0  0  0  0  0  0  0  0  0  0  0
    7.2946   63.9881   -7.0397 C   0  0  0  0  0  0  0  0  0  0  0  0
   11.1531   62.4374   -4.2313 C   0  0  0  0  0  0  0  0  0  0  0  0
    8.0763   59.0280   -2.5372 N   0  0  0  0  0  0  0  0  0  0  0  0
    6.9851   58.2440   -2.4873 C   0  0  0  0  0  0  0  0  0  0  0  0
    6.0771   58.6406   -3.3962 N   0  0  0  0  0  0  0  0  0  0  0  0
    6.8009   57.1072   -1.5688 C   0  0  2  0  0  0  0  0  0  0  0  0
    6.8807   57.3860   -0.0603 C   0  0  0  0  0  0  0  0  0  0  0  0
    7.9772   56.6387   -0.7363 C   0  0  0  0  0  0  0  0  0  0  0  0
    3.7185   60.6066   -4.8558 C   0  0  0  0  0  0  0  0  0  0  0  0
    2.4773   60.3256   -5.4137 C   0  0  0  0  0  0  0  0  0  0  0  0
    2.3557   59.7026   -6.6328 C   0  0  0  0  0  0  0  0  0  0  0  0
    3.4869   59.3429   -7.3283 C   0  0  0  0  0  0  0  0  0  0  0  0
    4.7455   59.6018   -6.8133 C   0  0  0  0  0  0  0  0  0  0  0  0
    3.8303   61.2307   -3.6347 C   0  0  0  0  0  0  0  0  0  0  0  0
    2.6825   61.5813   -2.9572 C   0  0  0  0  0  0  0  0  0  0  0  0
    1.4695   61.2860   -3.5430 C   0  0  0  0  0  0  0  0  0  0  0  0
    1.3753   60.6789   -4.7306 N   0  0  0  0  0  0  0  0  0  0  0  0
    5.9681   59.2171   -7.5572 C   0  0  0  0  0  0  0  0  0  0  0  0
  1  2  2  0
  1  6  1  0
  1  8  1  0
  2  3  1  0
  3  4  2  0
  3 15  1  0
  4  5  1  0
  4 17  1  0
  5  6  2  0
  5  7  1  0
  7 21  2  0
  7 25  1  0
  8  9  1  0
  8 12  2  0
  9 10  2  0
 14  9  1  1
 10 11  1  0
 11 12  1  0
 13 12  1  1
 15 16  1  0
 16 17  2  0
 18 16  1  6
 19 18  1  1
 18 20  1  0
 20 19  1  6
 21 22  1  0
 21 26  1  0
 22 23  2  0
 22 29  1  0
 23 24  1  0
 24 25  2  0
 30 25  1  1
 26 27  2  0
 27 28  1  0
 28 29  2  0
M  END
$$$$
