
     RDKit          3D

 30 35  0  0  0  0  0  0  0  0999 V2000
    8.3836   61.3779   -4.7616 C   0  0  0  0  0  0  0  0  0  0  0  0
    8.9943   60.4493   -3.9199 C   0  0  0  0  0  0  0  0  0  0  0  0
    8.2963   59.3658   -3.4312 C   0  0  0  0  0  0  0  0  0  0  0  0
    6.9633   59.1525   -3.7532 C   0  0  0  0  0  0  0  0  0  0  0  0
    6.3423   60.0537   -4.5799 C   0  0  0  0  0  0  0  0  0  0  0  0
    7.0440   61.1340   -5.0653 C   0  0  0  0  0  0  0  0  0  0  0  0
    4.9376   59.8267   -4.9177 C   0  0  0  0  0  0  0  0  0  0  0  0
    9.0941   62.5166   -5.2834 C   0  0  0  0  0  0  0  0  0  0  0  0
    9.7578   63.4642   -4.5539 C   0  0  0  0  0  0  0  0  0  0  0  0
   10.2764   64.3415   -5.4171 N   0  0  0  0  0  0  0  0  0  0  0  0
    9.9661   63.9841   -6.6527 O   0  0  0  0  0  0  0  0  0  0  0  0
    9.2462   62.8754   -6.5978 C   0  0  0  0  0  0  0  0  0  0  0  0
    8.6951   62.1417   -7.7590 C   0  0  0  0  0  0  0  0  0  0  0  0
    9.8840   63.5170   -3.0819 C   0  0  0  0  0  0  0  0  0  0  0  0
    8.6492   58.3402   -2.6139 N   0  0  0  0  0  0  0  0  0  0  0  0
    7.5737   57.5491   -2.4551 C   0  0  0  0  0  0  0  0  0  0  0  0
    6.5268   58.0312   -3.1474 N   0  0  0  0  0  0  0  0  0  0  0  0
    7.5377   56.3234   -1.6386 C   0  0  2  0  0  0  0  0  0  0  0  0
    7.9651   56.4311   -0.1671 C   0  0  0  0  0  0  0  0  0  0  0  0
    8.8428   55.7316   -1.1459 C   0  0  0  0  0  0  0  0  0  0  0  0
    3.9745   60.5886   -4.2788 C   0  0  0  0  0  0  0  0  0  0  0  0
    2.6520   60.3427   -4.6273 C   0  0  0  0  0  0  0  0  0  0  0  0
    2.3138   59.3911   -5.5596 C   0  0  0  0  0  0  0  0  0  0  0  0
    3.3033   58.6561   -6.1707 C   0  0  0  0  0  0  0  0  0  0  0  0
    4.6352   58.8650   -5.8565 C   0  0  0  0  0  0  0  0  0  0  0  0
    4.3034   61.5434   -3.3443 C   0  0  0  0  0  0  0  0  0  0  0  0
    3.2944   62.2667   -2.7459 C   0  0  0  0  0  0  0  0  0  0  0  0
    1.9946   61.9941   -3.1178 C   0  0  0  0  0  0  0  0  0  0  0  0
    1.6890   61.0631   -4.0277 N   0  0  0  0  0  0  0  0  0  0  0  0
    5.7060   58.0770   -6.5109 C   0  0  0  0  0  0  0  0  0  0  0  0
  1  2  2  0
  1  6  1  0
  1  8  1  0
  2  3  1  0
  3  4  2  0
  3 15  1  0
  4  5  1  0
  4 17  1  0
  5  6  2  0
  5  7  1  0
  7 21  2  0
  7 25  1  0
  8  9  1  0
  8 12  2  0
  9 10  2  0
 14  9  1  1
 10 11  1  0
 11 12  1  0
 13 12  1  1
 15 16  1  0
 16 17  2  0
 18 16  1  6
 19 18  1  1
 18 20  1  0
 20 19  1  6
 21 22  1  0
 21 26  1  0
 22 23  2  0
 22 29  1  0
 23 24  1  0
 24 25  2  0
 30 25  1  1
 26 27  2  0
 27 28  1  0
 28 29  2  0
M  END
$$$$
