
     RDKit          3D

 30 35  0  0  0  0  0  0  0  0999 V2000
    8.4545   61.8192   -5.0082 C   0  0  0  0  0  0  0  0  0  0  0  0
    8.9964   60.8664   -4.1812 C   0  0  0  0  0  0  0  0  0  0  0  0
    8.2321   59.8039   -3.7310 C   0  0  0  0  0  0  0  0  0  0  0  0
    6.9120   59.6569   -4.0876 C   0  0  0  0  0  0  0  0  0  0  0  0
    6.3475   60.6167   -4.9272 C   0  0  0  0  0  0  0  0  0  0  0  0
    7.1143   61.6592   -5.3631 C   0  0  0  0  0  0  0  0  0  0  0  0
    4.9473   60.4260   -5.2821 C   0  0  0  0  0  0  0  0  0  0  0  0
    9.2336   62.9463   -5.4967 C   0  0  0  0  0  0  0  0  0  0  0  0
    9.9533   63.8646   -4.7716 C   0  0  0  0  0  0  0  0  0  0  0  0
   10.5101   64.7273   -5.6690 N   0  0  0  0  0  0  0  0  0  0  0  0
   10.1677   64.3798   -6.8690 O   0  0  0  0  0  0  0  0  0  0  0  0
    9.3892   63.2990   -6.8167 C   0  0  0  0  0  0  0  0  0  0  0  0
    8.7830   62.5831   -7.9781 C   0  0  0  0  0  0  0  0  0  0  0  0
   10.0726   63.8748   -3.2914 C   0  0  0  0  0  0  0  0  0  0  0  0
    8.5297   58.7463   -2.9179 N   0  0  0  0  0  0  0  0  0  0  0  0
    7.4375   57.9798   -2.7797 C   0  0  0  0  0  0  0  0  0  0  0  0
    6.4412   58.5432   -3.5019 N   0  0  0  0  0  0  0  0  0  0  0  0
    7.3734   56.7333   -1.9644 C   0  0  2  0  0  0  0  0  0  0  0  0
    8.0704   56.8883   -0.5961 C   0  0  0  0  0  0  0  0  0  0  0  0
    8.6040   55.9614   -1.6687 C   0  0  0  0  0  0  0  0  0  0  0  0
    3.9828   60.7967   -4.3552 C   0  0  0  0  0  0  0  0  0  0  0  0
    2.6476   60.6046   -4.7174 C   0  0  0  0  0  0  0  0  0  0  0  0
    2.3231   60.0654   -5.9546 C   0  0  0  0  0  0  0  0  0  0  0  0
    3.3292   59.7172   -6.8315 C   0  0  0  0  0  0  0  0  0  0  0  0
    4.6574   59.8943   -6.5038 C   0  0  0  0  0  0  0  0  0  0  0  0
    4.3091   61.3304   -3.1310 C   0  0  0  0  0  0  0  0  0  0  0  0
    3.3210   61.6831   -2.2446 C   0  0  0  0  0  0  0  0  0  0  0  0
    1.9967   61.4873   -2.6164 C   0  0  0  0  0  0  0  0  0  0  0  0
    1.7203   60.9621   -3.8239 N   0  0  0  0  0  0  0  0  0  0  0  0
    5.7428   59.5232   -7.4393 C   0  0  0  0  0  0  0  0  0  0  0  0
  1  2  2  0
  1  6  1  0
  1  8  1  0
  2  3  1  0
  3  4  2  0
  3 15  1  0
  4  5  1  0
  4 17  1  0
  5  6  2  0
  5  7  1  0
  7 21  2  0
  7 25  1  0
  8  9  1  0
  8 12  2  0
  9 10  2  0
  9 14  1  0
 10 11  1  0
 11 12  1  0
 12 13  1  0
 15 16  1  0
 16 17  2  0
 18 16  1  6
 18 19  1  0
 18 20  1  0
 19 20  1  0
 21 22  1  0
 21 26  1  0
 22 23  2  0
 22 29  1  0
 23 24  1  0
 24 25  2  0
 25 30  1  0
 26 27  2  0
 27 28  1  0
 28 29  2  0
M  END
$$$$
