
     RDKit          3D

 30 35  0  0  0  0  0  0  0  0999 V2000
    8.5309   61.7611   -5.0186 C   0  0  0  0  0  0  0  0  0  0  0  0
    9.0039   60.7830   -4.1790 C   0  0  0  0  0  0  0  0  0  0  0  0
    8.1846   59.7445   -3.7715 C   0  0  0  0  0  0  0  0  0  0  0  0
    6.8762   59.6473   -4.1842 C   0  0  0  0  0  0  0  0  0  0  0  0
    6.3815   60.6334   -5.0371 C   0  0  0  0  0  0  0  0  0  0  0  0
    7.2020   61.6516   -5.4306 C   0  0  0  0  0  0  0  0  0  0  0  0
    4.9916   60.4953   -5.4519 C   0  0  0  0  0  0  0  0  0  0  0  0
    9.3688   62.8639   -5.4632 C   0  0  0  0  0  0  0  0  0  0  0  0
    9.9218   63.8724   -4.7121 C   0  0  0  0  0  0  0  0  0  0  0  0
   10.6237   64.6652   -5.5714 N   0  0  0  0  0  0  0  0  0  0  0  0
   10.5213   64.1929   -6.7733 O   0  0  0  0  0  0  0  0  0  0  0  0
    9.7658   63.0947   -6.7595 C   0  0  0  0  0  0  0  0  0  0  0  0
    9.4036   62.2501   -7.9360 C   0  0  0  0  0  0  0  0  0  0  0  0
    9.7579   64.0277   -3.2443 C   0  0  0  0  0  0  0  0  0  0  0  0
    8.4105   58.6704   -2.9569 N   0  0  0  0  0  0  0  0  0  0  0  0
    7.2873   57.9420   -2.8718 C   0  0  0  0  0  0  0  0  0  0  0  0
    6.3425   58.5462   -3.6294 N   0  0  0  0  0  0  0  0  0  0  0  0
    7.1454   56.6918   -2.0720 C   0  0  2  0  0  0  0  0  0  0  0  0
    7.7991   56.8069   -0.6787 C   0  0  0  0  0  0  0  0  0  0  0  0
    8.3335   55.8691   -1.7413 C   0  0  0  0  0  0  0  0  0  0  0  0
    4.0022   60.8751   -4.5554 C   0  0  0  0  0  0  0  0  0  0  0  0
    2.6775   60.7338   -4.9749 C   0  0  0  0  0  0  0  0  0  0  0  0
    2.3869   60.2335   -6.2366 C   0  0  0  0  0  0  0  0  0  0  0  0
    3.4165   59.8737   -7.0810 C   0  0  0  0  0  0  0  0  0  0  0  0
    4.7351   60.0011   -6.6966 C   0  0  0  0  0  0  0  0  0  0  0  0
    4.2950   61.3702   -3.3067 C   0  0  0  0  0  0  0  0  0  0  0  0
    3.2832   61.7337   -2.4521 C   0  0  0  0  0  0  0  0  0  0  0  0
    1.9696   61.5884   -2.8808 C   0  0  0  0  0  0  0  0  0  0  0  0
    1.7262   61.0999   -4.1106 N   0  0  0  0  0  0  0  0  0  0  0  0
    5.8456   59.6172   -7.5969 C   0  0  0  0  0  0  0  0  0  0  0  0
  1  2  2  0
  1  6  1  0
  1  8  1  0
  2  3  1  0
  3  4  2  0
  3 15  1  0
  4  5  1  0
  4 17  1  0
  5  6  2  0
  5  7  1  0
  7 21  2  0
  7 25  1  0
  8  9  1  0
  8 12  2  0
  9 10  2  0
  9 14  1  0
 10 11  1  0
 11 12  1  0
 12 13  1  0
 15 16  1  0
 16 17  2  0
 18 16  1  6
 18 19  1  0
 18 20  1  0
 19 20  1  0
 21 22  1  0
 21 26  1  0
 22 23  2  0
 22 29  1  0
 23 24  1  0
 24 25  2  0
 25 30  1  0
 26 27  2  0
 27 28  1  0
 28 29  2  0
M  END
$$$$
