
     RDKit          3D

 30 35  0  0  0  0  0  0  0  0999 V2000
    8.3603   61.6597   -5.7356 C   0  0  0  0  0  0  0  0  0  0  0  0
    8.0240   61.1777   -6.9998 C   0  0  0  0  0  0  0  0  0  0  0  0
    7.0103   60.2580   -7.1635 C   0  0  0  0  0  0  0  0  0  0  0  0
    6.2843   59.7741   -6.0843 C   0  0  0  0  0  0  0  0  0  0  0  0
    6.5982   60.2347   -4.8311 C   0  0  0  0  0  0  0  0  0  0  0  0
    7.6115   61.1532   -4.6731 C   0  0  0  0  0  0  0  0  0  0  0  0
    5.8317   59.7233   -3.6954 C   0  0  0  0  0  0  0  0  0  0  0  0
    9.4154   62.6203   -5.5420 C   0  0  0  0  0  0  0  0  0  0  0  0
   10.3463   62.6139   -4.5400 C   0  0  0  0  0  0  0  0  0  0  0  0
   11.1382   63.6735   -4.7241 N   0  0  0  0  0  0  0  0  0  0  0  0
   10.7434   64.3411   -5.7962 O   0  0  0  0  0  0  0  0  0  0  0  0
    9.6956   63.7195   -6.3121 C   0  0  0  0  0  0  0  0  0  0  0  0
    8.9478   64.1374   -7.5189 C   0  0  0  0  0  0  0  0  0  0  0  0
   10.4631   61.6223   -3.4497 C   0  0  0  0  0  0  0  0  0  0  0  0
    6.4971   59.6442   -8.2610 N   0  0  0  0  0  0  0  0  0  0  0  0
    5.5079   58.8294   -7.8544 C   0  0  0  0  0  0  0  0  0  0  0  0
    5.3612   58.8949   -6.5195 N   0  0  0  0  0  0  0  0  0  0  0  0
    4.6930   57.9800   -8.7402 C   0  0  2  0  0  0  0  0  0  0  0  0
    5.3857   57.3383   -9.9519 C   0  0  0  0  0  0  0  0  0  0  0  0
    4.4146   58.4492  -10.1539 C   0  0  0  0  0  0  0  0  0  0  0  0
    4.6580   60.3696   -3.3476 C   0  0  0  0  0  0  0  0  0  0  0  0
    3.9591   59.8532   -2.2633 C   0  0  0  0  0  0  0  0  0  0  0  0
    4.4083   58.7555   -1.5687 C   0  0  0  0  0  0  0  0  0  0  0  0
    5.5803   58.1434   -1.9485 C   0  0  0  0  0  0  0  0  0  0  0  0
    6.3116   58.6214   -3.0223 C   0  0  0  0  0  0  0  0  0  0  0  0
    4.2006   61.4691   -4.0368 C   0  0  0  0  0  0  0  0  0  0  0  0
    3.0238   62.0648   -3.6372 C   0  0  0  0  0  0  0  0  0  0  0  0
    2.3588   61.5237   -2.5570 C   0  0  0  0  0  0  0  0  0  0  0  0
    2.8148   60.4545   -1.8960 N   0  0  0  0  0  0  0  0  0  0  0  0
    7.5748   57.9669   -3.4368 C   0  0  0  0  0  0  0  0  0  0  0  0
  1  2  2  0
  1  6  1  0
  1  8  1  0
  2  3  1  0
  3  4  2  0
  3 15  1  0
  4  5  1  0
  4 17  1  0
  5  6  2  0
  5  7  1  0
  7 21  2  0
  7 25  1  0
  8  9  1  0
  8 12  2  0
  9 10  2  0
 14  9  1  1
 10 11  1  0
 11 12  1  0
 13 12  1  1
 15 16  1  0
 16 17  2  0
 18 16  1  1
 19 18  1  1
 18 20  1  0
 20 19  1  6
 21 22  1  0
 21 26  1  0
 22 23  2  0
 22 29  1  0
 23 24  1  0
 24 25  2  0
 30 25  1  1
 26 27  2  0
 27 28  1  0
 28 29  2  0
M  END
$$$$
