
     RDKit          3D

 30 35  0  0  0  0  0  0  0  0999 V2000
    8.5846   61.4444   -5.0075 C   0  0  0  0  0  0  0  0  0  0  0  0
    9.1749   60.5437   -4.1220 C   0  0  0  0  0  0  0  0  0  0  0  0
    8.4650   59.4763   -3.6152 C   0  0  0  0  0  0  0  0  0  0  0  0
    7.1399   59.2523   -3.9615 C   0  0  0  0  0  0  0  0  0  0  0  0
    6.5390   60.1261   -4.8314 C   0  0  0  0  0  0  0  0  0  0  0  0
    7.2525   61.1905   -5.3346 C   0  0  0  0  0  0  0  0  0  0  0  0
    5.1425   59.8879   -5.1948 C   0  0  0  0  0  0  0  0  0  0  0  0
    9.3077   62.5659   -5.5488 C   0  0  0  0  0  0  0  0  0  0  0  0
   10.0099   63.4997   -4.8377 C   0  0  0  0  0  0  0  0  0  0  0  0
   10.5271   64.3635   -5.7152 N   0  0  0  0  0  0  0  0  0  0  0  0
   10.1793   64.0109   -6.9422 O   0  0  0  0  0  0  0  0  0  0  0  0
    9.4363   62.9188   -6.8674 C   0  0  0  0  0  0  0  0  0  0  0  0
    8.8411   62.1955   -8.0133 C   0  0  0  0  0  0  0  0  0  0  0  0
   10.1725   63.5524   -3.3693 C   0  0  0  0  0  0  0  0  0  0  0  0
    8.7981   58.4777   -2.7572 N   0  0  0  0  0  0  0  0  0  0  0  0
    7.7188   57.6918   -2.5983 C   0  0  0  0  0  0  0  0  0  0  0  0
    6.6888   58.1511   -3.3303 N   0  0  0  0  0  0  0  0  0  0  0  0
    7.6630   56.4932   -1.7438 C   0  0  2  0  0  0  0  0  0  0  0  0
    8.3659   56.5538   -0.3793 C   0  0  0  0  0  0  0  0  0  0  0  0
    8.9406   55.7242   -1.4744 C   0  0  0  0  0  0  0  0  0  0  0  0
    4.1549   60.5522   -4.4879 C   0  0  0  0  0  0  0  0  0  0  0  0
    2.8413   60.2988   -4.8634 C   0  0  0  0  0  0  0  0  0  0  0  0
    2.5346   59.4324   -5.8855 C   0  0  0  0  0  0  0  0  0  0  0  0
    3.5477   58.7931   -6.5618 C   0  0  0  0  0  0  0  0  0  0  0  0
    4.8720   59.0133   -6.2240 C   0  0  0  0  0  0  0  0  0  0  0  0
    4.4522   61.4212   -3.4634 C   0  0  0  0  0  0  0  0  0  0  0  0
    3.4200   62.0495   -2.8009 C   0  0  0  0  0  0  0  0  0  0  0  0
    2.1299   61.7727   -3.2023 C   0  0  0  0  0  0  0  0  0  0  0  0
    1.8551   60.9257   -4.1998 N   0  0  0  0  0  0  0  0  0  0  0  0
    5.9682   58.3280   -6.9484 C   0  0  0  0  0  0  0  0  0  0  0  0
  1  2  2  0
  1  6  1  0
  1  8  1  0
  2  3  1  0
  3  4  2  0
  3 15  1  0
  4  5  1  0
  4 17  1  0
  5  6  2  0
  5  7  1  0
  7 21  2  0
  7 25  1  0
  8  9  1  0
  8 12  2  0
  9 10  2  0
 14  9  1  1
 10 11  1  0
 11 12  1  0
 13 12  1  1
 15 16  1  0
 16 17  2  0
 18 16  1  6
 19 18  1  1
 18 20  1  0
 20 19  1  6
 21 22  1  0
 21 26  1  0
 22 23  2  0
 22 29  1  0
 23 24  1  0
 24 25  2  0
 30 25  1  1
 26 27  2  0
 27 28  1  0
 28 29  2  0
M  END
$$$$
