
     RDKit          3D

 30 35  0  0  0  0  0  0  0  0999 V2000
    8.2745   61.1973   -4.8469 C   0  0  0  0  0  0  0  0  0  0  0  0
    8.8179   60.3430   -3.8886 C   0  0  0  0  0  0  0  0  0  0  0  0
    8.0772   59.3099   -3.3553 C   0  0  0  0  0  0  0  0  0  0  0  0
    6.7663   59.0759   -3.7462 C   0  0  0  0  0  0  0  0  0  0  0  0
    6.2114   59.9043   -4.6880 C   0  0  0  0  0  0  0  0  0  0  0  0
    6.9554   60.9345   -5.2174 C   0  0  0  0  0  0  0  0  0  0  0  0
    4.8298   59.6556   -5.0982 C   0  0  0  0  0  0  0  0  0  0  0  0
    9.0303   62.2824   -5.4170 C   0  0  0  0  0  0  0  0  0  0  0  0
   10.2608   62.7181   -5.0087 C   0  0  0  0  0  0  0  0  0  0  0  0
   10.6047   63.7393   -5.7977 N   0  0  0  0  0  0  0  0  0  0  0  0
    9.6440   63.9607   -6.6803 O   0  0  0  0  0  0  0  0  0  0  0  0
    8.6740   63.0862   -6.4690 C   0  0  0  0  0  0  0  0  0  0  0  0
    7.4129   62.9884   -7.2375 C   0  0  0  0  0  0  0  0  0  0  0  0
   11.0693   62.1675   -3.9002 C   0  0  0  0  0  0  0  0  0  0  0  0
    8.3641   58.3580   -2.4301 N   0  0  0  0  0  0  0  0  0  0  0  0
    7.2719   57.5893   -2.2755 C   0  0  0  0  0  0  0  0  0  0  0  0
    6.2785   58.0142   -3.0758 N   0  0  0  0  0  0  0  0  0  0  0  0
    7.1685   56.4400   -1.3597 C   0  0  2  0  0  0  0  0  0  0  0  0
    7.9413   56.5097   -0.0340 C   0  0  0  0  0  0  0  0  0  0  0  0
    8.3962   55.5874   -1.1112 C   0  0  0  0  0  0  0  0  0  0  0  0
    4.5844   58.6397   -6.0060 C   0  0  0  0  0  0  0  0  0  0  0  0
    3.2591   58.4353   -6.3703 C   0  0  0  0  0  0  0  0  0  0  0  0
    2.2404   59.2019   -5.8566 C   0  0  0  0  0  0  0  0  0  0  0  0
    2.5292   60.2015   -4.9567 C   0  0  0  0  0  0  0  0  0  0  0  0
    3.8343   60.4432   -4.5633 C   0  0  0  0  0  0  0  0  0  0  0  0
    5.5975   57.8672   -6.5255 C   0  0  0  0  0  0  0  0  0  0  0  0
    5.2830   56.8719   -7.4254 C   0  0  0  0  0  0  0  0  0  0  0  0
    3.9569   56.6995   -7.7623 C   0  0  0  0  0  0  0  0  0  0  0  0
    2.9820   57.4576   -7.2497 N   0  0  0  0  0  0  0  0  0  0  0  0
    4.1524   61.5183   -3.5944 C   0  0  0  0  0  0  0  0  0  0  0  0
  1  2  2  0
  1  6  1  0
  1  8  1  0
  2  3  1  0
  3  4  2  0
  3 15  1  0
  4  5  1  0
  4 17  1  0
  5  6  2  0
  5  7  1  0
  7 21  2  0
  7 25  1  0
  8  9  1  0
  8 12  2  0
  9 10  2  0
 14  9  1  1
 10 11  1  0
 11 12  1  0
 13 12  1  1
 15 16  1  0
 16 17  2  0
 18 16  1  6
 19 18  1  1
 18 20  1  0
 20 19  1  6
 21 22  1  0
 21 26  1  0
 22 23  2  0
 22 29  1  0
 23 24  1  0
 24 25  2  0
 30 25  1  1
 26 27  2  0
 27 28  1  0
 28 29  2  0
M  END
$$$$
