
     RDKit          3D

 30 35  0  0  0  0  0  0  0  0999 V2000
    8.3648   61.7203   -5.2702 C   0  0  0  0  0  0  0  0  0  0  0  0
    8.8379   60.8026   -4.3650 C   0  0  0  0  0  0  0  0  0  0  0  0
    8.0411   59.7537   -3.9398 C   0  0  0  0  0  0  0  0  0  0  0  0
    6.7557   59.5860   -4.3994 C   0  0  0  0  0  0  0  0  0  0  0  0
    6.2611   60.5101   -5.3192 C   0  0  0  0  0  0  0  0  0  0  0  0
    7.0593   61.5396   -5.7292 C   0  0  0  0  0  0  0  0  0  0  0  0
    4.8960   60.2984   -5.7821 C   0  0  0  0  0  0  0  0  0  0  0  0
    9.1794   62.8323   -5.7347 C   0  0  0  0  0  0  0  0  0  0  0  0
    9.8518   63.7685   -4.9873 C   0  0  0  0  0  0  0  0  0  0  0  0
   10.4712   64.6056   -5.8677 N   0  0  0  0  0  0  0  0  0  0  0  0
   10.2095   64.2265   -7.0785 O   0  0  0  0  0  0  0  0  0  0  0  0
    9.4251   63.1491   -7.0501 C   0  0  0  0  0  0  0  0  0  0  0  0
    8.8962   62.4033   -8.2303 C   0  0  0  0  0  0  0  0  0  0  0  0
    9.8708   63.8182   -3.5032 C   0  0  0  0  0  0  0  0  0  0  0  0
    8.2722   58.7294   -3.0648 N   0  0  0  0  0  0  0  0  0  0  0  0
    7.1740   57.9627   -2.9890 C   0  0  0  0  0  0  0  0  0  0  0  0
    6.2402   58.4928   -3.8128 N   0  0  0  0  0  0  0  0  0  0  0  0
    7.0449   56.7477   -2.1347 C   0  0  2  0  0  0  0  0  0  0  0  0
    7.9843   56.7860   -0.9108 C   0  0  0  0  0  0  0  0  0  0  0  0
    8.1617   55.7786   -2.0279 C   0  0  0  0  0  0  0  0  0  0  0  0
    3.8566   60.7128   -4.9606 C   0  0  0  0  0  0  0  0  0  0  0  0
    2.5568   60.4995   -5.4252 C   0  0  0  0  0  0  0  0  0  0  0  0
    2.3380   59.8979   -6.6568 C   0  0  0  0  0  0  0  0  0  0  0  0
    3.4146   59.5086   -7.4262 C   0  0  0  0  0  0  0  0  0  0  0  0
    4.7103   59.7053   -6.9958 C   0  0  0  0  0  0  0  0  0  0  0  0
    4.0784   61.3082   -3.7415 C   0  0  0  0  0  0  0  0  0  0  0  0
    3.0190   61.7026   -2.9614 C   0  0  0  0  0  0  0  0  0  0  0  0
    1.7309   61.4850   -3.4343 C   0  0  0  0  0  0  0  0  0  0  0  0
    1.5574   60.8991   -4.6330 N   0  0  0  0  0  0  0  0  0  0  0  0
    5.8708   59.2903   -7.8156 C   0  0  0  0  0  0  0  0  0  0  0  0
  1  2  2  0
  1  6  1  0
  1  8  1  0
  2  3  1  0
  3  4  2  0
  3 15  1  0
  4  5  1  0
  4 17  1  0
  5  6  2  0
  5  7  1  0
  7 21  2  0
  7 25  1  0
  8  9  1  0
  8 12  2  0
  9 10  2  0
  9 14  1  0
 10 11  1  0
 11 12  1  0
 12 13  1  0
 15 16  1  0
 16 17  2  0
 18 16  1  6
 18 19  1  0
 18 20  1  0
 19 20  1  0
 21 22  1  0
 21 26  1  0
 22 23  2  0
 22 29  1  0
 23 24  1  0
 24 25  2  0
 25 30  1  0
 26 27  2  0
 27 28  1  0
 28 29  2  0
M  END
$$$$
