
     RDKit          3D

 30 35  0  0  0  0  0  0  0  0999 V2000
    8.3652   61.0550   -4.9287 C   0  0  0  0  0  0  0  0  0  0  0  0
    8.7879   60.4378   -3.7773 C   0  0  0  0  0  0  0  0  0  0  0  0
    8.0276   59.4420   -3.1891 C   0  0  0  0  0  0  0  0  0  0  0  0
    6.8295   59.0312   -3.7252 C   0  0  0  0  0  0  0  0  0  0  0  0
    6.3869   59.6488   -4.8945 C   0  0  0  0  0  0  0  0  0  0  0  0
    7.1480   60.6298   -5.4631 C   0  0  0  0  0  0  0  0  0  0  0  0
    5.1137   59.1862   -5.4311 C   0  0  0  0  0  0  0  0  0  0  0  0
    9.1432   62.1043   -5.5687 C   0  0  0  0  0  0  0  0  0  0  0  0
   10.2294   62.7841   -5.0738 C   0  0  0  0  0  0  0  0  0  0  0  0
   10.6141   63.6689   -6.0375 N   0  0  0  0  0  0  0  0  0  0  0  0
    9.8302   63.5559   -7.0626 O   0  0  0  0  0  0  0  0  0  0  0  0
    8.9165   62.6146   -6.8255 C   0  0  0  0  0  0  0  0  0  0  0  0
    7.8297   62.1776   -7.7509 C   0  0  0  0  0  0  0  0  0  0  0  0
   10.8343   62.5621   -3.7358 C   0  0  0  0  0  0  0  0  0  0  0  0
    8.2234   58.6886   -2.0656 N   0  0  0  0  0  0  0  0  0  0  0  0
    7.1881   57.8486   -1.9163 C   0  0  0  0  0  0  0  0  0  0  0  0
    6.3298   58.0617   -2.9407 N   0  0  0  0  0  0  0  0  0  0  0  0
    7.0454   56.8674   -0.8029 C   0  0  2  0  0  0  0  0  0  0  0  0
    7.8460   57.2790    0.4507 C   0  0  0  0  0  0  0  0  0  0  0  0
    8.2030   56.0523   -0.3630 C   0  0  0  0  0  0  0  0  0  0  0  0
    5.0247   57.8674   -5.8550 C   0  0  0  0  0  0  0  0  0  0  0  0
    3.7946   57.4466   -6.3655 C   0  0  0  0  0  0  0  0  0  0  0  0
    2.7226   58.3255   -6.4364 C   0  0  0  0  0  0  0  0  0  0  0  0
    2.8760   59.6244   -5.9984 C   0  0  0  0  0  0  0  0  0  0  0  0
    4.0777   60.0708   -5.4891 C   0  0  0  0  0  0  0  0  0  0  0  0
    6.0893   57.0006   -5.7828 C   0  0  0  0  0  0  0  0  0  0  0  0
    5.9557   55.7035   -6.2140 C   0  0  0  0  0  0  0  0  0  0  0  0
    4.7272   55.2968   -6.7199 C   0  0  0  0  0  0  0  0  0  0  0  0
    3.7107   56.1766   -6.7731 N   0  0  0  0  0  0  0  0  0  0  0  0
    4.2502   61.4631   -5.0171 C   0  0  0  0  0  0  0  0  0  0  0  0
  1  2  2  0
  1  6  1  0
  1  8  1  0
  2  3  1  0
  3  4  2  0
  3 15  1  0
  4  5  1  0
  4 17  1  0
  5  6  2  0
  5  7  1  0
  7 21  2  0
  7 25  1  0
  8  9  1  0
  8 12  2  0
  9 10  2  0
  9 14  1  0
 10 11  1  0
 11 12  1  0
 12 13  1  0
 15 16  1  0
 16 17  2  0
 18 16  1  6
 18 19  1  0
 18 20  1  0
 19 20  1  0
 21 22  1  0
 21 26  1  0
 22 23  2  0
 22 29  1  0
 23 24  1  0
 24 25  2  0
 25 30  1  0
 26 27  2  0
 27 28  1  0
 28 29  2  0
M  END
$$$$
