
     RDKit          3D

 30 35  0  0  0  0  0  0  0  0999 V2000
    8.2978   61.8579   -5.1696 C   0  0  0  0  0  0  0  0  0  0  0  0
    8.7710   60.9576   -4.2471 C   0  0  0  0  0  0  0  0  0  0  0  0
    7.9717   59.9215   -3.7962 C   0  0  0  0  0  0  0  0  0  0  0  0
    6.6836   59.7495   -4.2466 C   0  0  0  0  0  0  0  0  0  0  0  0
    6.1888   60.6560   -5.1837 C   0  0  0  0  0  0  0  0  0  0  0  0
    6.9895   61.6731   -5.6190 C   0  0  0  0  0  0  0  0  0  0  0  0
    4.8208   60.4404   -5.6360 C   0  0  0  0  0  0  0  0  0  0  0  0
    9.1149   62.9562   -5.6613 C   0  0  0  0  0  0  0  0  0  0  0  0
    9.7878   63.9102   -4.9372 C   0  0  0  0  0  0  0  0  0  0  0  0
   10.4100   64.7234   -5.8378 N   0  0  0  0  0  0  0  0  0  0  0  0
   10.1496   64.3137   -7.0388 O   0  0  0  0  0  0  0  0  0  0  0  0
    9.3634   63.2386   -6.9840 C   0  0  0  0  0  0  0  0  0  0  0  0
    8.8352   62.4635   -8.1455 C   0  0  0  0  0  0  0  0  0  0  0  0
    9.8044   63.9982   -3.4548 C   0  0  0  0  0  0  0  0  0  0  0  0
    8.2023   58.9151   -2.9006 N   0  0  0  0  0  0  0  0  0  0  0  0
    7.1012   58.1549   -2.8037 C   0  0  0  0  0  0  0  0  0  0  0  0
    6.1661   58.6713   -3.6345 N   0  0  0  0  0  0  0  0  0  0  0  0
    6.9708   56.9589   -1.9232 C   0  0  2  0  0  0  0  0  0  0  0  0
    7.7707   57.1036   -0.6112 C   0  0  0  0  0  0  0  0  0  0  0  0
    8.1372   56.0806   -1.6664 C   0  0  0  0  0  0  0  0  0  0  0  0
    3.7871   60.7810   -4.7744 C   0  0  0  0  0  0  0  0  0  0  0  0
    2.4844   60.5654   -5.2296 C   0  0  0  0  0  0  0  0  0  0  0  0
    2.2572   60.0330   -6.4912 C   0  0  0  0  0  0  0  0  0  0  0  0
    3.3284   59.7152   -7.2999 C   0  0  0  0  0  0  0  0  0  0  0  0
    4.6268   59.9161   -6.8798 C   0  0  0  0  0  0  0  0  0  0  0  0
    4.0171   61.3081   -3.5257 C   0  0  0  0  0  0  0  0  0  0  0  0
    2.9632   61.6307   -2.7062 C   0  0  0  0  0  0  0  0  0  0  0  0
    1.6720   61.4116   -3.1702 C   0  0  0  0  0  0  0  0  0  0  0  0
    1.4905   60.8939   -4.3987 N   0  0  0  0  0  0  0  0  0  0  0  0
    5.7816   59.5776   -7.7417 C   0  0  0  0  0  0  0  0  0  0  0  0
  1  2  2  0
  1  6  1  0
  1  8  1  0
  2  3  1  0
  3  4  2  0
  3 15  1  0
  4  5  1  0
  4 17  1  0
  5  6  2  0
  5  7  1  0
  7 21  2  0
  7 25  1  0
  8  9  1  0
  8 12  2  0
  9 10  2  0
  9 14  1  0
 10 11  1  0
 11 12  1  0
 12 13  1  0
 15 16  1  0
 16 17  2  0
 18 16  1  6
 18 19  1  0
 18 20  1  0
 19 20  1  0
 21 22  1  0
 21 26  1  0
 22 23  2  0
 22 29  1  0
 23 24  1  0
 24 25  2  0
 25 30  1  0
 26 27  2  0
 27 28  1  0
 28 29  2  0
M  END
$$$$
