
     RDKit          3D

 30 35  0  0  0  0  0  0  0  0999 V2000
    8.4622   61.7385   -4.9281 C   0  0  0  0  0  0  0  0  0  0  0  0
    8.9082   60.9067   -3.9021 C   0  0  0  0  0  0  0  0  0  0  0  0
    8.1337   59.8611   -3.4471 C   0  0  0  0  0  0  0  0  0  0  0  0
    6.8837   59.5917   -3.9867 C   0  0  0  0  0  0  0  0  0  0  0  0
    6.4250   60.3975   -4.9974 C   0  0  0  0  0  0  0  0  0  0  0  0
    7.2025   61.4404   -5.4480 C   0  0  0  0  0  0  0  0  0  0  0  0
    5.1075   60.1116   -5.5643 C   0  0  0  0  0  0  0  0  0  0  0  0
    9.2550   62.8361   -5.4185 C   0  0  0  0  0  0  0  0  0  0  0  0
    8.8783   63.7532   -6.3608 C   0  0  0  0  0  0  0  0  0  0  0  0
    9.8998   64.5974   -6.5268 N   0  0  0  0  0  0  0  0  0  0  0  0
   10.8973   64.2484   -5.7304 O   0  0  0  0  0  0  0  0  0  0  0  0
   10.5290   63.1784   -5.0450 C   0  0  0  0  0  0  0  0  0  0  0  0
   11.3517   62.4665   -4.0417 C   0  0  0  0  0  0  0  0  0  0  0  0
    7.5826   63.8087   -7.0704 C   0  0  0  0  0  0  0  0  0  0  0  0
    8.3310   58.9252   -2.4830 N   0  0  0  0  0  0  0  0  0  0  0  0
    7.2461   58.1317   -2.4486 C   0  0  0  0  0  0  0  0  0  0  0  0
    6.3447   58.5249   -3.3654 N   0  0  0  0  0  0  0  0  0  0  0  0
    7.0618   56.9890   -1.5374 C   0  0  2  0  0  0  0  0  0  0  0  0
    7.7618   57.0431   -0.1712 C   0  0  0  0  0  0  0  0  0  0  0  0
    8.2508   56.1051   -1.2195 C   0  0  0  0  0  0  0  0  0  0  0  0
    3.9861   60.4112   -4.8099 C   0  0  0  0  0  0  0  0  0  0  0  0
    2.7534   60.1246   -5.3837 C   0  0  0  0  0  0  0  0  0  0  0  0
    2.6494   59.5714   -6.6376 C   0  0  0  0  0  0  0  0  0  0  0  0
    3.7902   59.2895   -7.3530 C   0  0  0  0  0  0  0  0  0  0  0  0
    5.0409   59.5571   -6.8235 C   0  0  0  0  0  0  0  0  0  0  0  0
    4.0803   60.9650   -3.5539 C   0  0  0  0  0  0  0  0  0  0  0  0
    2.9232   61.2383   -2.8569 C   0  0  0  0  0  0  0  0  0  0  0  0
    1.7191   60.9400   -3.4594 C   0  0  0  0  0  0  0  0  0  0  0  0
    1.6420   60.4017   -4.6809 N   0  0  0  0  0  0  0  0  0  0  0  0
    6.2737   59.2560   -7.5887 C   0  0  0  0  0  0  0  0  0  0  0  0
  1  2  2  0
  1  6  1  0
  1  8  1  0
  2  3  1  0
  3  4  2  0
  3 15  1  0
  4  5  1  0
  4 17  1  0
  5  6  2  0
  5  7  1  0
  7 21  2  0
  7 25  1  0
  8  9  1  0
  8 12  2  0
  9 10  2  0
 14  9  1  1
 10 11  1  0
 11 12  1  0
 13 12  1  1
 15 16  1  0
 16 17  2  0
 18 16  1  6
 19 18  1  1
 18 20  1  0
 20 19  1  6
 21 22  1  0
 21 26  1  0
 22 23  2  0
 22 29  1  0
 23 24  1  0
 24 25  2  0
 30 25  1  1
 26 27  2  0
 27 28  1  0
 28 29  2  0
M  END
$$$$
