
     RDKit          3D

 33 36  0  0  0  0  0  0  0  0999 V2000
   22.0105  108.4001  -97.9346 C   0  0  2  0  0  0  0  0  0  0  0  0
   20.4682  107.8627  -99.9597 C   0  0  0  0  0  0  0  0  0  0  0  0
   19.4563  107.1264 -100.4632 C   0  0  0  0  0  0  0  0  0  0  0  0
   17.6239  105.4692 -100.1965 N   0  0  0  0  0  0  0  0  0  0  0  0
   19.9461  107.8397 -102.7012 C   0  0  0  0  0  0  0  0  0  0  0  0
   18.2814  106.7488  -98.4516 O   0  0  0  0  0  0  0  0  0  0  0  0
   20.9534  107.8051  -98.6633 N   0  0  0  0  0  0  0  0  0  0  0  0
   21.7895  109.3963 -103.1449 N   0  0  0  0  0  0  0  0  0  0  0  0
   20.9852  108.6144 -102.2467 C   0  0  0  0  0  0  0  0  0  0  0  0
   21.2282  108.6151 -100.9016 C   0  0  0  0  0  0  0  0  0  0  0  0
   22.4311  108.9889 -104.2279 N   0  0  0  0  0  0  0  0  0  0  0  0
   22.3669  109.1926  -95.5694 C   0  0  0  0  0  0  0  0  0  0  0  0
   23.7651  108.6089  -95.6618 C   0  0  1  0  0  0  0  0  0  0  0  0
   23.6067  107.2607  -96.3441 C   0  0  0  0  0  0  0  0  0  0  0  0
   23.1256  107.3859  -97.7531 C   0  0  0  0  0  0  0  0  0  0  0  0
   23.0800  109.9755 -104.8260 C   0  0  0  0  0  0  0  0  0  0  0  0
   22.8563  111.1179 -104.0925 C   0  0  0  0  0  0  0  0  0  0  0  0
   22.0345  110.7087 -103.0363 C   0  0  0  0  0  0  0  0  0  0  0  0
   22.8517  113.5323 -103.2591 C   0  0  0  0  0  0  0  0  0  0  0  0
   22.2025  113.8235 -100.8930 C   0  0  0  0  0  0  0  0  0  0  0  0
   19.1690  107.0930 -101.8628 C   0  0  0  0  0  0  0  0  0  0  0  0
   24.4429  108.6970 -106.2671 F   0  0  0  0  0  0  0  0  0  0  0  0
   24.0402  112.8659 -105.1753 O   0  0  0  0  0  0  0  0  0  0  0  0
   23.1372  110.3214 -107.1573 F   0  0  0  0  0  0  0  0  0  0  0  0
   24.9140  110.9246 -105.9704 F   0  0  0  0  0  0  0  0  0  0  0  0
   24.6332  109.4450  -96.3252 O   0  0  0  0  0  0  0  0  0  0  0  0
   18.4645  106.4846  -99.6347 C   0  0  0  0  0  0  0  0  0  0  0  0
   21.3962  108.5056  -96.4676 C   0  0  0  0  0  0  0  0  0  0  0  0
   21.6305  111.7522 -102.0745 C   0  0  0  0  0  0  0  0  0  0  0  0
   22.6933  112.8242 -101.9131 C   0  0  1  0  0  0  0  0  0  0  0  0
   23.2897  112.5013 -104.2342 C   0  0  0  0  0  0  0  0  0  0  0  0
   24.0016  112.2724 -101.4538 C   0  0  0  0  0  0  0  0  0  0  0  0
   23.9224  109.9541 -106.0653 C   0  0  1  0  0  0  0  0  0  0  0  0
  1  7  1  6
  1 15  1  0
  1 28  1  0
  2  3  2  0
  2  7  1  0
 10  2  1  0
 21  3  1  0
  3 27  1  0
 27  4  1  0
  9  5  1  0
  5 21  2  0
 27  6  2  0
  8  9  1  0
  8 11  1  0
 18  8  1  0
  9 10  2  0
 16 11  2  0
 12 13  1  0
 28 12  1  0
 14 13  1  0
 13 26  1  6
 15 14  1  0
 17 16  1  0
 16 33  1  0
 17 18  2  0
 31 17  1  0
 18 29  1  0
 19 30  1  0
 19 31  1  0
 30 20  1  1
 33 22  1  6
 31 23  2  0
 33 24  1  0
 33 25  1  0
 29 30  1  0
 30 32  1  0
M  END
$$$$
