
     RDKit          3D

 33 36  0  0  0  0  0  0  0  0999 V2000
   21.6022  108.4849  -97.1407 C   0  0  2  0  0  0  0  0  0  0  0  0
   20.2714  107.9182  -99.3031 C   0  0  0  0  0  0  0  0  0  0  0  0
   19.2899  107.2002  -99.8868 C   0  0  0  0  0  0  0  0  0  0  0  0
   17.3961  105.5980  -99.7410 N   0  0  0  0  0  0  0  0  0  0  0  0
   20.0604  107.7847 -102.0828 C   0  0  0  0  0  0  0  0  0  0  0  0
   17.8548  106.9968  -98.0244 O   0  0  0  0  0  0  0  0  0  0  0  0
   20.6045  107.9032  -97.9584 N   0  0  0  0  0  0  0  0  0  0  0  0
   22.0114  109.2420 -102.3792 N   0  0  0  0  0  0  0  0  0  0  0  0
   21.0762  108.5375 -101.5461 C   0  0  0  0  0  0  0  0  0  0  0  0
   21.1662  108.5929 -100.1834 C   0  0  0  0  0  0  0  0  0  0  0  0
   23.3329  109.2216 -102.3177 N   0  0  0  0  0  0  0  0  0  0  0  0
   21.7374  110.4297  -95.5441 C   0  0  0  0  0  0  0  0  0  0  0  0
   22.5885  109.5441  -94.6520 C   0  0  1  0  0  0  0  0  0  0  0  0
   21.9123  108.1835  -94.6529 C   0  0  0  0  0  0  0  0  0  0  0  0
   21.9290  107.5376  -96.0001 C   0  0  0  0  0  0  0  0  0  0  0  0
   23.8888  109.9910 -103.2404 C   0  0  0  0  0  0  0  0  0  0  0  0
   22.8694  110.5630 -103.9663 C   0  0  0  0  0  0  0  0  0  0  0  0
   21.6965  110.0633 -103.3895 C   0  0  0  0  0  0  0  0  0  0  0  0
   21.5404  111.9141 -105.6787 C   0  0  0  0  0  0  0  0  0  0  0  0
   19.1751  112.3168 -105.0890 C   0  0  0  0  0  0  0  0  0  0  0  0
   19.1605  107.1114 -101.3074 C   0  0  0  0  0  0  0  0  0  0  0  0
   25.7851  109.4325 -104.5291 F   0  0  0  0  0  0  0  0  0  0  0  0
   23.8902  111.9465 -105.6015 O   0  0  0  0  0  0  0  0  0  0  0  0
   25.4947  111.5885 -103.8939 F   0  0  0  0  0  0  0  0  0  0  0  0
   26.0731  110.1001 -102.3512 F   0  0  0  0  0  0  0  0  0  0  0  0
   23.8975  109.4908  -95.0718 O   0  0  0  0  0  0  0  0  0  0  0  0
   18.1828  106.6399  -99.1504 C   0  0  0  0  0  0  0  0  0  0  0  0
   20.8024  109.6506  -96.4043 C   0  0  0  0  0  0  0  0  0  0  0  0
   20.4251  110.5205 -103.9824 C   0  0  0  0  0  0  0  0  0  0  0  0
   20.5256  111.9310 -104.5349 C   0  0  1  0  0  0  0  0  0  0  0  0
   22.8362  111.4860 -105.0927 C   0  0  0  0  0  0  0  0  0  0  0  0
   20.9216  112.9280 -103.4974 C   0  0  0  0  0  0  0  0  0  0  0  0
   25.3371  110.2542 -103.5212 C   0  0  1  0  0  0  0  0  0  0  0  0
  1  7  1  6
  1 15  1  0
  1 28  1  0
  2  3  2  0
  2  7  1  0
 10  2  1  0
 21  3  1  0
  3 27  1  0
 27  4  1  0
  9  5  1  0
  5 21  2  0
 27  6  2  0
  8  9  1  0
  8 11  1  0
 18  8  1  0
  9 10  2  0
 16 11  2  0
 12 13  1  0
 28 12  1  0
 14 13  1  0
 13 26  1  6
 15 14  1  0
 17 16  1  0
 16 33  1  0
 17 18  2  0
 31 17  1  0
 18 29  1  0
 19 30  1  0
 19 31  1  0
 30 20  1  6
 33 22  1  6
 31 23  2  0
 33 24  1  0
 33 25  1  0
 29 30  1  0
 30 32  1  0
M  END
$$$$
