
     RDKit          3D

 33 36  0  0  0  0  0  0  0  0999 V2000
   21.5111  108.9882  -97.0823 C   0  0  2  0  0  0  0  0  0  0  0  0
   20.2638  108.2133  -99.2299 C   0  0  0  0  0  0  0  0  0  0  0  0
   19.3980  107.3353  -99.7767 C   0  0  0  0  0  0  0  0  0  0  0  0
   17.4297  105.8207  -99.6935 N   0  0  0  0  0  0  0  0  0  0  0  0
   20.2493  107.7483 -101.9818 C   0  0  0  0  0  0  0  0  0  0  0  0
   18.0631  106.9864  -97.8620 O   0  0  0  0  0  0  0  0  0  0  0  0
   20.5081  108.3839  -97.8769 N   0  0  0  0  0  0  0  0  0  0  0  0
   22.0627  109.3605 -102.3429 N   0  0  0  0  0  0  0  0  0  0  0  0
   21.1488  108.6591 -101.4839 C   0  0  0  0  0  0  0  0  0  0  0  0
   21.1436  108.8757 -100.1343 C   0  0  0  0  0  0  0  0  0  0  0  0
   23.3843  109.2986 -102.3498 N   0  0  0  0  0  0  0  0  0  0  0  0
   21.6173  110.8727  -95.4129 C   0  0  0  0  0  0  0  0  0  0  0  0
   22.5576  110.0020  -94.5993 C   0  0  1  0  0  0  0  0  0  0  0  0
   21.9573  108.6065  -94.6265 C   0  0  0  0  0  0  0  0  0  0  0  0
   21.9439  108.0165  -95.9991 C   0  0  0  0  0  0  0  0  0  0  0  0
   23.9171  110.0790 -103.2769 C   0  0  0  0  0  0  0  0  0  0  0  0
   22.8810  110.7034 -103.9325 C   0  0  0  0  0  0  0  0  0  0  0  0
   21.7234  110.2216 -103.3112 C   0  0  0  0  0  0  0  0  0  0  0  0
   21.5109  112.1459 -105.5343 C   0  0  0  0  0  0  0  0  0  0  0  0
   19.1920  112.6011 -104.8127 C   0  0  0  0  0  0  0  0  0  0  0  0
   19.3712  107.0750 -101.1817 C   0  0  0  0  0  0  0  0  0  0  0  0
   25.6935  111.6255 -103.4223 F   0  0  0  0  0  0  0  0  0  0  0  0
   23.8614  112.1053 -105.5767 O   0  0  0  0  0  0  0  0  0  0  0  0
   26.1543  109.4886 -102.8247 F   0  0  0  0  0  0  0  0  0  0  0  0
   25.5905  109.8991 -104.9326 F   0  0  0  0  0  0  0  0  0  0  0  0
   23.8457  110.0393  -95.0810 O   0  0  0  0  0  0  0  0  0  0  0  0
   18.3056  106.7474  -99.0398 C   0  0  0  0  0  0  0  0  0  0  0  0
   20.6856  110.0768  -96.2612 C   0  0  0  0  0  0  0  0  0  0  0  0
   20.4389  110.7349 -103.8246 C   0  0  0  0  0  0  0  0  0  0  0  0
   20.5559  112.1580 -104.3400 C   0  0  1  0  0  0  0  0  0  0  0  0
   22.8203  111.6612 -105.0283 C   0  0  0  0  0  0  0  0  0  0  0  0
   21.0348  113.1103 -103.2955 C   0  0  0  0  0  0  0  0  0  0  0  0
   25.3570  110.3071 -103.6236 C   0  0  1  0  0  0  0  0  0  0  0  0
  1  7  1  6
  1 15  1  0
  1 28  1  0
  2  3  2  0
  2  7  1  0
 10  2  1  0
 21  3  1  0
  3 27  1  0
 27  4  1  0
  9  5  1  0
  5 21  2  0
 27  6  2  0
  8  9  1  0
  8 11  1  0
 18  8  1  0
  9 10  2  0
 16 11  2  0
 12 13  1  0
 28 12  1  0
 14 13  1  0
 13 26  1  6
 15 14  1  0
 17 16  1  0
 16 33  1  0
 17 18  2  0
 31 17  1  0
 18 29  1  0
 19 30  1  0
 19 31  1  0
 30 20  1  6
 33 22  1  6
 31 23  2  0
 33 24  1  0
 33 25  1  0
 29 30  1  0
 30 32  1  0
M  END
$$$$
