
     RDKit          3D

 33 36  0  0  0  0  0  0  0  0999 V2000
   21.4762  108.7875  -97.6023 C   0  0  2  0  0  0  0  0  0  0  0  0
   20.0505  108.1115  -99.6708 C   0  0  0  0  0  0  0  0  0  0  0  0
   19.1307  107.2785 -100.1997 C   0  0  0  0  0  0  0  0  0  0  0  0
   17.7837  105.2030  -99.9701 N   0  0  0  0  0  0  0  0  0  0  0  0
   19.3545  108.2812 -102.3682 C   0  0  0  0  0  0  0  0  0  0  0  0
   18.0102  106.6267  -98.2277 O   0  0  0  0  0  0  0  0  0  0  0  0
   20.6249  108.0016  -98.4149 N   0  0  0  0  0  0  0  0  0  0  0  0
   20.9058  110.1464 -102.7319 N   0  0  0  0  0  0  0  0  0  0  0  0
   20.2920  109.1610 -101.8850 C   0  0  0  0  0  0  0  0  0  0  0  0
   20.6221  109.0653 -100.5621 C   0  0  0  0  0  0  0  0  0  0  0  0
   20.3386  110.8692 -103.6839 N   0  0  0  0  0  0  0  0  0  0  0  0
   21.2121  110.7946  -96.1019 C   0  0  0  0  0  0  0  0  0  0  0  0
   22.1756  110.1153  -95.1455 C   0  0  1  0  0  0  0  0  0  0  0  0
   21.7506  108.6575  -95.0956 C   0  0  0  0  0  0  0  0  0  0  0  0
   21.9264  107.9653  -96.4080 C   0  0  0  0  0  0  0  0  0  0  0  0
   21.1986  111.6860 -104.2718 C   0  0  0  0  0  0  0  0  0  0  0  0
   22.4219  111.4951 -103.6715 C   0  0  0  0  0  0  0  0  0  0  0  0
   22.1941  110.5123 -102.7017 C   0  0  0  0  0  0  0  0  0  0  0  0
   24.8872  111.6667 -103.0259 C   0  0  0  0  0  0  0  0  0  0  0  0
   25.7790  109.7345 -101.7703 C   0  0  0  0  0  0  0  0  0  0  0  0
   18.7582  107.3407 -101.5781 C   0  0  0  0  0  0  0  0  0  0  0  0
   21.2625  112.0828 -106.5971 F   0  0  0  0  0  0  0  0  0  0  0  0
   23.9466  112.9576 -104.7514 O   0  0  0  0  0  0  0  0  0  0  0  0
   19.6530  113.0931 -105.3623 F   0  0  0  0  0  0  0  0  0  0  0  0
   21.7461  113.8048 -105.1575 F   0  0  0  0  0  0  0  0  0  0  0  0
   23.4869  110.2770  -95.5289 O   0  0  0  0  0  0  0  0  0  0  0  0
   18.3060  106.4081  -99.3971 C   0  0  0  0  0  0  0  0  0  0  0  0
   20.4589  109.8241  -96.9455 C   0  0  0  0  0  0  0  0  0  0  0  0
   23.3579  110.1054 -101.8913 C   0  0  0  0  0  0  0  0  0  0  0  0
   24.6580  110.1972 -102.6699 C   0  0  1  0  0  0  0  0  0  0  0  0
   23.7389  112.0849 -103.8698 C   0  0  0  0  0  0  0  0  0  0  0  0
   24.6515  109.3543 -103.9014 C   0  0  0  0  0  0  0  0  0  0  0  0
   20.9801  112.6663 -105.3840 C   0  0  1  0  0  0  0  0  0  0  0  0
  1  7  1  6
  1 15  1  0
  1 28  1  0
  2  3  2  0
  2  7  1  0
 10  2  1  0
 21  3  1  0
  3 27  1  0
 27  4  1  0
  9  5  1  0
  5 21  2  0
 27  6  2  0
  8  9  1  0
  8 11  1  0
 18  8  1  0
  9 10  2  0
 16 11  2  0
 12 13  1  0
 28 12  1  0
 14 13  1  0
 13 26  1  6
 15 14  1  0
 17 16  1  0
 16 33  1  0
 17 18  2  0
 31 17  1  0
 18 29  1  0
 19 30  1  0
 19 31  1  0
 30 20  1  1
 33 22  1  6
 31 23  2  0
 33 24  1  0
 33 25  1  0
 29 30  1  0
 30 32  1  0
M  END
$$$$
