
     RDKit          3D

 33 36  0  0  0  0  0  0  0  0999 V2000
   20.9331  109.2841  -97.2435 C   0  0  2  0  0  0  0  0  0  0  0  0
   19.8794  108.3659  -99.4378 C   0  0  0  0  0  0  0  0  0  0  0  0
   19.1069  107.3956  -99.9683 C   0  0  0  0  0  0  0  0  0  0  0  0
   17.1796  105.8276  -99.9271 N   0  0  0  0  0  0  0  0  0  0  0  0
   20.1820  107.5981 -102.1038 C   0  0  0  0  0  0  0  0  0  0  0  0
   17.5895  107.1936  -98.1721 O   0  0  0  0  0  0  0  0  0  0  0  0
   19.9680  108.6962  -98.0952 N   0  0  0  0  0  0  0  0  0  0  0  0
   21.9727  109.2378 -102.4545 N   0  0  0  0  0  0  0  0  0  0  0  0
   20.9924  108.5969 -101.6218 C   0  0  0  0  0  0  0  0  0  0  0  0
   20.8320  108.9616 -100.3144 C   0  0  0  0  0  0  0  0  0  0  0  0
   23.2907  109.1673 -102.3625 N   0  0  0  0  0  0  0  0  0  0  0  0
   21.1839  109.6540  -94.7636 C   0  0  0  0  0  0  0  0  0  0  0  0
   22.6505  109.3008  -94.9330 C   0  0  1  0  0  0  0  0  0  0  0  0
   22.6823  108.0984  -95.8613 C   0  0  0  0  0  0  0  0  0  0  0  0
   22.1818  108.4207  -97.2318 C   0  0  0  0  0  0  0  0  0  0  0  0
   23.8966  109.8851 -103.2952 C   0  0  0  0  0  0  0  0  0  0  0  0
   22.9167  110.4742 -104.0608 C   0  0  0  0  0  0  0  0  0  0  0  0
   21.7126  110.0392 -103.4959 C   0  0  0  0  0  0  0  0  0  0  0  0
   21.6799  111.8229 -105.8427 C   0  0  0  0  0  0  0  0  0  0  0  0
   19.3205  112.3367 -105.3189 C   0  0  0  0  0  0  0  0  0  0  0  0
   19.2429  106.9801 -101.3289 C   0  0  0  0  0  0  0  0  0  0  0  0
   25.7126  109.5267 -104.7588 F   0  0  0  0  0  0  0  0  0  0  0  0
   24.0269  111.7650 -105.7134 O   0  0  0  0  0  0  0  0  0  0  0  0
   25.6423  111.4476 -103.5583 F   0  0  0  0  0  0  0  0  0  0  0  0
   26.0923  109.5514 -102.4945 F   0  0  0  0  0  0  0  0  0  0  0  0
   23.3878  110.3613  -95.4065 O   0  0  0  0  0  0  0  0  0  0  0  0
   17.9591  106.8461  -99.2882 C   0  0  0  0  0  0  0  0  0  0  0  0
   20.3167  109.0211  -95.7972 C   0  0  0  0  0  0  0  0  0  0  0  0
   20.4735  110.5277 -104.1308 C   0  0  0  0  0  0  0  0  0  0  0  0
   20.6424  111.9153 -104.7231 C   0  0  1  0  0  0  0  0  0  0  0  0
   22.9446  111.3624 -105.2149 C   0  0  0  0  0  0  0  0  0  0  0  0
   21.0558  112.9276 -103.7074 C   0  0  0  0  0  0  0  0  0  0  0  0
   25.3600  110.0822 -103.5510 C   0  0  1  0  0  0  0  0  0  0  0  0
  1  7  1  6
  1 15  1  0
  1 28  1  0
  2  3  2  0
  2  7  1  0
 10  2  1  0
 21  3  1  0
  3 27  1  0
 27  4  1  0
  9  5  1  0
  5 21  2  0
 27  6  2  0
  8  9  1  0
  8 11  1  0
 18  8  1  0
  9 10  2  0
 16 11  2  0
 12 13  1  0
 28 12  1  0
 14 13  1  0
 13 26  1  6
 15 14  1  0
 17 16  1  0
 16 33  1  0
 17 18  2  0
 31 17  1  0
 18 29  1  0
 19 30  1  0
 19 31  1  0
 30 20  1  6
 33 22  1  6
 31 23  2  0
 33 24  1  0
 33 25  1  0
 29 30  1  0
 30 32  1  0
M  END
$$$$
