
     RDKit          3D

 33 36  0  0  0  0  0  0  0  0999 V2000
   21.5611  108.6736  -97.6661 C   0  0  2  0  0  0  0  0  0  0  0  0
   20.0734  107.9211  -99.6633 C   0  0  0  0  0  0  0  0  0  0  0  0
   19.1800  107.0390 -100.1565 C   0  0  0  0  0  0  0  0  0  0  0  0
   17.8351  104.9701  -99.8637 N   0  0  0  0  0  0  0  0  0  0  0  0
   19.3711  107.9598 -102.3641 C   0  0  0  0  0  0  0  0  0  0  0  0
   18.1338  106.4024  -98.1393 O   0  0  0  0  0  0  0  0  0  0  0  0
   20.6517  107.8802  -98.4050 N   0  0  0  0  0  0  0  0  0  0  0  0
   20.8628  109.8566 -102.8055 N   0  0  0  0  0  0  0  0  0  0  0  0
   20.2807  108.8875 -101.9184 C   0  0  0  0  0  0  0  0  0  0  0  0
   20.6144  108.8556 -100.5934 C   0  0  0  0  0  0  0  0  0  0  0  0
   20.2852  110.4865 -103.8156 N   0  0  0  0  0  0  0  0  0  0  0  0
   21.4112  110.7045  -96.1820 C   0  0  0  0  0  0  0  0  0  0  0  0
   22.4362  110.0346  -95.2849 C   0  0  1  0  0  0  0  0  0  0  0  0
   22.0093  108.5800  -95.1829 C   0  0  0  0  0  0  0  0  0  0  0  0
   22.0900  107.8671  -96.4935 C   0  0  0  0  0  0  0  0  0  0  0  0
   21.1145  111.3178 -104.4269 C   0  0  0  0  0  0  0  0  0  0  0  0
   22.3267  111.2369 -103.7811 C   0  0  0  0  0  0  0  0  0  0  0  0
   22.1257  110.3010 -102.7605 C   0  0  0  0  0  0  0  0  0  0  0  0
   24.7554  111.5951 -103.0762 C   0  0  0  0  0  0  0  0  0  0  0  0
   25.7179  109.7978 -101.6805 C   0  0  0  0  0  0  0  0  0  0  0  0
   18.8051  107.0337 -101.5356 C   0  0  0  0  0  0  0  0  0  0  0  0
   21.4992  113.4269 -105.4130 F   0  0  0  0  0  0  0  0  0  0  0  0
   23.7972  112.7229 -104.9033 O   0  0  0  0  0  0  0  0  0  0  0  0
   21.3704  111.6038 -106.7531 F   0  0  0  0  0  0  0  0  0  0  0  0
   19.5069  112.3565 -105.8093 F   0  0  0  0  0  0  0  0  0  0  0  0
   23.7182  110.1833  -95.7613 O   0  0  0  0  0  0  0  0  0  0  0  0
   18.3836  106.1762  -99.3180 C   0  0  0  0  0  0  0  0  0  0  0  0
   20.5967  109.7255  -96.9559 C   0  0  0  0  0  0  0  0  0  0  0  0
   23.2845  110.0136 -101.8935 C   0  0  0  0  0  0  0  0  0  0  0  0
   24.6015  110.1381 -102.6384 C   0  0  1  0  0  0  0  0  0  0  0  0
   23.6126  111.8927 -103.9767 C   0  0  0  0  0  0  0  0  0  0  0  0
   24.6844  109.2252 -103.8161 C   0  0  0  0  0  0  0  0  0  0  0  0
   20.8750  112.2159 -105.6025 C   0  0  1  0  0  0  0  0  0  0  0  0
  1  7  1  6
  1 15  1  0
  1 28  1  0
  2  3  2  0
  2  7  1  0
 10  2  1  0
 21  3  1  0
  3 27  1  0
 27  4  1  0
  9  5  1  0
  5 21  2  0
 27  6  2  0
  8  9  1  0
  8 11  1  0
 18  8  1  0
  9 10  2  0
 16 11  2  0
 12 13  1  0
 28 12  1  0
 14 13  1  0
 13 26  1  6
 15 14  1  0
 17 16  1  0
 16 33  1  0
 17 18  2  0
 31 17  1  0
 18 29  1  0
 19 30  1  0
 19 31  1  0
 30 20  1  1
 33 22  1  1
 31 23  2  0
 33 24  1  0
 33 25  1  0
 29 30  1  0
 30 32  1  0
M  END
$$$$
