
     RDKit          3D

 33 36  0  0  0  0  0  0  0  0999 V2000
   21.6960  108.6046  -97.0257 C   0  0  2  0  0  0  0  0  0  0  0  0
   20.3512  108.0986  -99.1946 C   0  0  0  0  0  0  0  0  0  0  0  0
   19.3473  107.4191  -99.7863 C   0  0  0  0  0  0  0  0  0  0  0  0
   17.4314  105.8425  -99.6495 N   0  0  0  0  0  0  0  0  0  0  0  0
   20.1172  108.0316 -101.9748 C   0  0  0  0  0  0  0  0  0  0  0  0
   17.9061  107.2290  -97.9271 O   0  0  0  0  0  0  0  0  0  0  0  0
   20.6933  108.0455  -97.8531 N   0  0  0  0  0  0  0  0  0  0  0  0
   22.1032  109.4443 -102.2543 N   0  0  0  0  0  0  0  0  0  0  0  0
   21.1559  108.7460 -101.4296 C   0  0  0  0  0  0  0  0  0  0  0  0
   21.2569  108.7692 -100.0667 C   0  0  0  0  0  0  0  0  0  0  0  0
   23.4230  109.4404 -102.1608 N   0  0  0  0  0  0  0  0  0  0  0  0
   21.9374  110.6740  -95.6084 C   0  0  0  0  0  0  0  0  0  0  0  0
   22.6383  109.8015  -94.5829 C   0  0  1  0  0  0  0  0  0  0  0  0
   21.8262  108.5197  -94.5055 C   0  0  0  0  0  0  0  0  0  0  0  0
   21.8553  107.7463  -95.7835 C   0  0  0  0  0  0  0  0  0  0  0  0
   23.9925  110.1974 -103.0854 C   0  0  0  0  0  0  0  0  0  0  0  0
   22.9847  110.7429 -103.8470 C   0  0  0  0  0  0  0  0  0  0  0  0
   21.8037  110.2414 -103.2884 C   0  0  0  0  0  0  0  0  0  0  0  0
   21.6827  112.0439 -105.6179 C   0  0  0  0  0  0  0  0  0  0  0  0
   19.2995  112.4312 -105.0933 C   0  0  0  0  0  0  0  0  0  0  0  0
   19.2057  107.3649 -101.2074 C   0  0  0  0  0  0  0  0  0  0  0  0
   25.7478  110.2592 -104.6614 F   0  0  0  0  0  0  0  0  0  0  0  0
   24.0294  112.1048 -105.4851 O   0  0  0  0  0  0  0  0  0  0  0  0
   25.7252  111.7933 -102.9934 F   0  0  0  0  0  0  0  0  0  0  0  0
   26.2191  109.6885 -102.4879 F   0  0  0  0  0  0  0  0  0  0  0  0
   23.9572  109.5800  -94.9054 O   0  0  0  0  0  0  0  0  0  0  0  0
   18.2313  106.8715  -99.0538 C   0  0  0  0  0  0  0  0  0  0  0  0
   20.9791  109.9092  -96.4557 C   0  0  0  0  0  0  0  0  0  0  0  0
   20.5421  110.6720 -103.9207 C   0  0  0  0  0  0  0  0  0  0  0  0
   20.6404  112.0722 -104.4993 C   0  0  1  0  0  0  0  0  0  0  0  0
   22.9685  111.6426 -104.9924 C   0  0  0  0  0  0  0  0  0  0  0  0
   21.0002  113.0943 -103.4732 C   0  0  0  0  0  0  0  0  0  0  0  0
   25.4442  110.4715 -103.3367 C   0  0  1  0  0  0  0  0  0  0  0  0
  1  7  1  6
  1 15  1  0
  1 28  1  0
  2  3  2  0
  2  7  1  0
 10  2  1  0
 21  3  1  0
  3 27  1  0
 27  4  1  0
  9  5  1  0
  5 21  2  0
 27  6  2  0
  8  9  1  0
  8 11  1  0
 18  8  1  0
  9 10  2  0
 16 11  2  0
 12 13  1  0
 28 12  1  0
 14 13  1  0
 13 26  1  6
 15 14  1  0
 17 16  1  0
 16 33  1  0
 17 18  2  0
 31 17  1  0
 18 29  1  0
 19 30  1  0
 19 31  1  0
 30 20  1  6
 33 22  1  6
 31 23  2  0
 33 24  1  0
 33 25  1  0
 29 30  1  0
 30 32  1  0
M  END
$$$$
