
     RDKit          3D

 33 36  0  0  0  0  0  0  0  0999 V2000
   20.9375  109.1357  -97.4796 C   0  0  2  0  0  0  0  0  0  0  0  0
   19.5851  108.4196  -99.5835 C   0  0  0  0  0  0  0  0  0  0  0  0
   19.0040  107.2892 -100.0354 C   0  0  0  0  0  0  0  0  0  0  0  0
   17.4730  105.3464  -99.7979 N   0  0  0  0  0  0  0  0  0  0  0  0
   19.5964  107.7980 -102.3043 C   0  0  0  0  0  0  0  0  0  0  0  0
   18.0172  106.6090  -98.0024 O   0  0  0  0  0  0  0  0  0  0  0  0
   19.8228  108.7413  -98.2571 N   0  0  0  0  0  0  0  0  0  0  0  0
   20.8187  109.8540 -102.8490 N   0  0  0  0  0  0  0  0  0  0  0  0
   20.1975  108.9666 -101.9048 C   0  0  0  0  0  0  0  0  0  0  0  0
   20.1837  109.2568 -100.5692 C   0  0  0  0  0  0  0  0  0  0  0  0
   20.2747  110.4210 -103.9135 N   0  0  0  0  0  0  0  0  0  0  0  0
   21.5202  109.1774  -95.0285 C   0  0  0  0  0  0  0  0  0  0  0  0
   22.9128  108.7227  -95.4264 C   0  0  1  0  0  0  0  0  0  0  0  0
   22.7116  107.6443  -96.4776 C   0  0  0  0  0  0  0  0  0  0  0  0
   22.0853  108.1732  -97.7268 C   0  0  0  0  0  0  0  0  0  0  0  0
   21.1347  111.1855 -104.5679 C   0  0  0  0  0  0  0  0  0  0  0  0
   22.3331  111.1243 -103.8945 C   0  0  0  0  0  0  0  0  0  0  0  0
   22.0912  110.2710 -102.8122 C   0  0  0  0  0  0  0  0  0  0  0  0
   24.7571  111.4770 -103.1710 C   0  0  0  0  0  0  0  0  0  0  0  0
   25.6505  109.7654 -101.6291 C   0  0  0  0  0  0  0  0  0  0  0  0
   18.9983  106.9443 -101.4223 C   0  0  0  0  0  0  0  0  0  0  0  0
   19.6207  111.9601 -106.2039 F   0  0  0  0  0  0  0  0  0  0  0  0
   23.8591  112.4891 -105.0939 O   0  0  0  0  0  0  0  0  0  0  0  0
   21.3160  113.3179 -105.5569 F   0  0  0  0  0  0  0  0  0  0  0  0
   21.7976  111.5458 -106.8050 F   0  0  0  0  0  0  0  0  0  0  0  0
   23.6909  109.7657  -95.8727 O   0  0  0  0  0  0  0  0  0  0  0  0
   18.1733  106.4485  -99.2077 C   0  0  0  0  0  0  0  0  0  0  0  0
   20.4759  108.7522  -96.0029 C   0  0  0  0  0  0  0  0  0  0  0  0
   23.2272  110.0214 -101.9043 C   0  0  0  0  0  0  0  0  0  0  0  0
   24.5597  110.0600 -102.6308 C   0  0  1  0  0  0  0  0  0  0  0  0
   23.6379  111.7338 -104.1128 C   0  0  0  0  0  0  0  0  0  0  0  0
   24.6409  109.0612 -103.7367 C   0  0  0  0  0  0  0  0  0  0  0  0
   20.9381  111.9999 -105.8104 C   0  0  1  0  0  0  0  0  0  0  0  0
  1  7  1  6
  1 15  1  0
  1 28  1  0
  2  3  2  0
  2  7  1  0
 10  2  1  0
 21  3  1  0
  3 27  1  0
 27  4  1  0
  9  5  1  0
  5 21  2  0
 27  6  2  0
  8  9  1  0
  8 11  1  0
 18  8  1  0
  9 10  2  0
 16 11  2  0
 12 13  1  0
 28 12  1  0
 14 13  1  0
 13 26  1  6
 15 14  1  0
 17 16  1  0
 16 33  1  0
 17 18  2  0
 31 17  1  0
 18 29  1  0
 19 30  1  0
 19 31  1  0
 30 20  1  1
 33 22  1  6
 31 23  2  0
 33 24  1  0
 33 25  1  0
 29 30  1  0
 30 32  1  0
M  END
$$$$
