
     RDKit          3D

 33 36  0  0  0  0  0  0  0  0999 V2000
   21.5997  108.4320  -97.2191 C   0  0  2  0  0  0  0  0  0  0  0  0
   20.4069  107.7757  -99.4361 C   0  0  0  0  0  0  0  0  0  0  0  0
   19.4365  107.0628 -100.0441 C   0  0  0  0  0  0  0  0  0  0  0  0
   17.4050  105.6319 -100.0269 N   0  0  0  0  0  0  0  0  0  0  0  0
   20.2267  107.6944 -102.2200 C   0  0  0  0  0  0  0  0  0  0  0  0
   18.1025  106.6628  -98.1388 O   0  0  0  0  0  0  0  0  0  0  0  0
   20.7256  107.7370  -98.0883 N   0  0  0  0  0  0  0  0  0  0  0  0
   22.1711  109.1696 -102.4672 N   0  0  0  0  0  0  0  0  0  0  0  0
   21.2317  108.4433 -101.6579 C   0  0  0  0  0  0  0  0  0  0  0  0
   21.3066  108.4730 -100.2935 C   0  0  0  0  0  0  0  0  0  0  0  0
   23.4887  109.2051 -102.3519 N   0  0  0  0  0  0  0  0  0  0  0  0
   21.6224  110.6796  -96.0801 C   0  0  0  0  0  0  0  0  0  0  0  0
   22.1865  109.9742  -94.8600 C   0  0  1  0  0  0  0  0  0  0  0  0
   21.3857  108.6910  -94.7165 C   0  0  0  0  0  0  0  0  0  0  0  0
   21.5975  107.7538  -95.8607 C   0  0  0  0  0  0  0  0  0  0  0  0
   24.0504  109.9790 -103.2674 C   0  0  0  0  0  0  0  0  0  0  0  0
   23.0394  110.4943 -104.0455 C   0  0  0  0  0  0  0  0  0  0  0  0
   21.8650  109.9577 -103.5062 C   0  0  0  0  0  0  0  0  0  0  0  0
   21.7285  111.7561 -105.8380 C   0  0  0  0  0  0  0  0  0  0  0  0
   19.3264  112.0719 -105.3528 C   0  0  0  0  0  0  0  0  0  0  0  0
   19.3231  107.0005 -101.4674 C   0  0  0  0  0  0  0  0  0  0  0  0
   26.2931  109.3241 -102.9353 F   0  0  0  0  0  0  0  0  0  0  0  0
   24.0698  111.8871 -105.6668 O   0  0  0  0  0  0  0  0  0  0  0  0
   25.7377  110.3728 -104.8661 F   0  0  0  0  0  0  0  0  0  0  0  0
   25.7805  111.5615 -102.9913 F   0  0  0  0  0  0  0  0  0  0  0  0
   23.5394  109.7506  -94.9698 O   0  0  0  0  0  0  0  0  0  0  0  0
   18.3254  106.4813  -99.3306 C   0  0  0  0  0  0  0  0  0  0  0  0
   20.7973  109.7795  -96.9347 C   0  0  0  0  0  0  0  0  0  0  0  0
   20.6016  110.3504 -104.1594 C   0  0  0  0  0  0  0  0  0  0  0  0
   20.6675  111.7530 -104.7367 C   0  0  1  0  0  0  0  0  0  0  0  0
   23.0153  111.3933 -105.1914 C   0  0  0  0  0  0  0  0  0  0  0  0
   20.9797  112.7853 -103.7051 C   0  0  0  0  0  0  0  0  0  0  0  0
   25.4972  110.2964 -103.4949 C   0  0  1  0  0  0  0  0  0  0  0  0
  1  7  1  6
  1 15  1  0
  1 28  1  0
  2  3  2  0
  2  7  1  0
 10  2  1  0
 21  3  1  0
  3 27  1  0
 27  4  1  0
  9  5  1  0
  5 21  2  0
 27  6  2  0
  8  9  1  0
  8 11  1  0
 18  8  1  0
  9 10  2  0
 16 11  2  0
 12 13  1  0
 28 12  1  0
 14 13  1  0
 13 26  1  6
 15 14  1  0
 17 16  1  0
 16 33  1  0
 17 18  2  0
 31 17  1  0
 18 29  1  0
 19 30  1  0
 19 31  1  0
 30 20  1  6
 33 22  1  1
 31 23  2  0
 33 24  1  0
 33 25  1  0
 29 30  1  0
 30 32  1  0
M  END
$$$$
