
     RDKit          3D

 33 36  0  0  0  0  0  0  0  0999 V2000
   21.1376  108.8690  -97.4111 C   0  0  2  0  0  0  0  0  0  0  0  0
   20.2965  107.8435  -99.6493 C   0  0  0  0  0  0  0  0  0  0  0  0
   19.5303  106.8408 -100.1258 C   0  0  0  0  0  0  0  0  0  0  0  0
   17.4716  105.6619  -99.3864 N   0  0  0  0  0  0  0  0  0  0  0  0
   19.5410  107.7770 -102.3351 C   0  0  0  0  0  0  0  0  0  0  0  0
   19.4693  105.1963  -98.4342 O   0  0  0  0  0  0  0  0  0  0  0  0
   20.9002  107.8881  -98.4031 N   0  0  0  0  0  0  0  0  0  0  0  0
   20.7331  109.8693 -102.8034 N   0  0  0  0  0  0  0  0  0  0  0  0
   20.3157  108.8271 -101.9064 C   0  0  0  0  0  0  0  0  0  0  0  0
   20.6774  108.8454 -100.5884 C   0  0  0  0  0  0  0  0  0  0  0  0
   19.9720  110.6832 -103.5166 N   0  0  0  0  0  0  0  0  0  0  0  0
   19.7227  110.2924  -95.8875 C   0  0  0  0  0  0  0  0  0  0  0  0
   20.7555  110.0327  -94.8058 C   0  0  1  0  0  0  0  0  0  0  0  0
   21.0977  108.5558  -94.9059 C   0  0  0  0  0  0  0  0  0  0  0  0
   21.7663  108.2100  -96.1965 C   0  0  0  0  0  0  0  0  0  0  0  0
   20.6864  111.5299 -104.2411 C   0  0  0  0  0  0  0  0  0  0  0  0
   22.0135  111.2628 -103.9945 C   0  0  0  0  0  0  0  0  0  0  0  0
   22.0004  110.2047 -103.0789 C   0  0  0  0  0  0  0  0  0  0  0  0
   24.5668  111.3273 -103.9971 C   0  0  0  0  0  0  0  0  0  0  0  0
   25.6682  109.2759 -103.1703 C   0  0  0  0  0  0  0  0  0  0  0  0
   19.1319  106.7797 -101.4970 C   0  0  0  0  0  0  0  0  0  0  0  0
   20.6786  113.8347 -104.7479 F   0  0  0  0  0  0  0  0  0  0  0  0
   23.2711  112.7817 -105.3140 O   0  0  0  0  0  0  0  0  0  0  0  0
   20.7311  112.3433 -106.4535 F   0  0  0  0  0  0  0  0  0  0  0  0
   18.8471  112.5646 -105.2996 F   0  0  0  0  0  0  0  0  0  0  0  0
   21.8572  110.8465  -94.9348 O   0  0  0  0  0  0  0  0  0  0  0  0
   18.8843  105.8728  -99.2728 C   0  0  0  0  0  0  0  0  0  0  0  0
   19.6645  109.2014  -96.9010 C   0  0  0  0  0  0  0  0  0  0  0  0
   23.3147  109.7054 -102.6315 C   0  0  0  0  0  0  0  0  0  0  0  0
   24.3748  109.8376 -103.7102 C   0  0  1  0  0  0  0  0  0  0  0  0
   23.2594  111.8404 -104.4799 C   0  0  0  0  0  0  0  0  0  0  0  0
   24.0177  109.1047 -104.9602 C   0  0  0  0  0  0  0  0  0  0  0  0
   20.2320  112.6071 -105.1786 C   0  0  1  0  0  0  0  0  0  0  0  0
  1  7  1  6
  1 15  1  0
  1 28  1  0
  2  3  2  0
  2  7  1  0
 10  2  1  0
 21  3  1  0
  3 27  1  0
 27  4  1  0
  9  5  1  0
  5 21  2  0
 27  6  2  0
  8  9  1  0
  8 11  1  0
 18  8  1  0
  9 10  2  0
 16 11  2  0
 12 13  1  0
 28 12  1  0
 14 13  1  0
 13 26  1  6
 15 14  1  0
 17 16  1  0
 16 33  1  0
 17 18  2  0
 31 17  1  0
 18 29  1  0
 19 30  1  0
 19 31  1  0
 30 20  1  1
 33 22  1  1
 31 23  2  0
 33 24  1  0
 33 25  1  0
 29 30  1  0
 30 32  1  0
M  END
$$$$
