
     RDKit          3D

 33 36  0  0  0  0  0  0  0  0999 V2000
   21.4806  108.4785  -97.5764 C   0  0  2  0  0  0  0  0  0  0  0  0
   20.1489  107.7096  -99.6749 C   0  0  0  0  0  0  0  0  0  0  0  0
   19.2178  106.8636 -100.1616 C   0  0  0  0  0  0  0  0  0  0  0  0
   17.8749  104.7917  -99.8817 N   0  0  0  0  0  0  0  0  0  0  0  0
   19.3297  107.8674 -102.3382 C   0  0  0  0  0  0  0  0  0  0  0  0
   18.2260  106.1806  -98.1319 O   0  0  0  0  0  0  0  0  0  0  0  0
   20.7809  107.6088  -98.4462 N   0  0  0  0  0  0  0  0  0  0  0  0
   20.8372  109.7534 -102.7720 N   0  0  0  0  0  0  0  0  0  0  0  0
   20.2758  108.7604 -101.8980 C   0  0  0  0  0  0  0  0  0  0  0  0
   20.6666  108.6704 -100.5914 C   0  0  0  0  0  0  0  0  0  0  0  0
   20.2244  110.4447 -103.7192 N   0  0  0  0  0  0  0  0  0  0  0  0
   20.8916  110.4366  -96.1038 C   0  0  0  0  0  0  0  0  0  0  0  0
   21.8525  109.8615  -95.0790 C   0  0  1  0  0  0  0  0  0  0  0  0
   21.5870  108.3657  -95.0561 C   0  0  0  0  0  0  0  0  0  0  0  0
   21.9312  107.7040  -96.3508 C   0  0  0  0  0  0  0  0  0  0  0  0
   21.0434  111.2805 -104.3381 C   0  0  0  0  0  0  0  0  0  0  0  0
   22.2861  111.1371 -103.7651 C   0  0  0  0  0  0  0  0  0  0  0  0
   22.1133  110.1607 -102.7777 C   0  0  0  0  0  0  0  0  0  0  0  0
   24.7591  111.3963 -103.1815 C   0  0  0  0  0  0  0  0  0  0  0  0
   25.7426  109.5109 -101.9233 C   0  0  0  0  0  0  0  0  0  0  0  0
   18.7826  106.9195 -101.5218 C   0  0  0  0  0  0  0  0  0  0  0  0
   21.5008  111.8974 -106.5695 F   0  0  0  0  0  0  0  0  0  0  0  0
   23.7367  112.6329 -104.9001 O   0  0  0  0  0  0  0  0  0  0  0  0
   19.4065  112.2057 -105.7603 F   0  0  0  0  0  0  0  0  0  0  0  0
   21.0279  113.5368 -105.0331 F   0  0  0  0  0  0  0  0  0  0  0  0
   23.1624  110.1675  -95.3674 O   0  0  0  0  0  0  0  0  0  0  0  0
   18.4422  105.9827  -99.3223 C   0  0  0  0  0  0  0  0  0  0  0  0
   20.3116  109.3941  -96.9970 C   0  0  0  0  0  0  0  0  0  0  0  0
   23.3086  109.8023 -101.9904 C   0  0  0  0  0  0  0  0  0  0  0  0
   24.5862  109.9252 -102.8013 C   0  0  1  0  0  0  0  0  0  0  0  0
   23.5783  111.7660 -104.0027 C   0  0  0  0  0  0  0  0  0  0  0  0
   24.5777  109.0658 -104.0214 C   0  0  0  0  0  0  0  0  0  0  0  0
   20.7670  112.2382 -105.4572 C   0  0  1  0  0  0  0  0  0  0  0  0
  1  7  1  6
  1 15  1  0
  1 28  1  0
  2  3  2  0
  2  7  1  0
 10  2  1  0
 21  3  1  0
  3 27  1  0
 27  4  1  0
  9  5  1  0
  5 21  2  0
 27  6  2  0
  8  9  1  0
  8 11  1  0
 18  8  1  0
  9 10  2  0
 16 11  2  0
 12 13  1  0
 28 12  1  0
 14 13  1  0
 13 26  1  6
 15 14  1  0
 17 16  1  0
 16 33  1  0
 17 18  2  0
 31 17  1  0
 18 29  1  0
 19 30  1  0
 19 31  1  0
 30 20  1  1
 33 22  1  6
 31 23  2  0
 33 24  1  0
 33 25  1  0
 29 30  1  0
 30 32  1  0
M  END
$$$$
