
     RDKit          3D

 33 36  0  0  0  0  0  0  0  0999 V2000
   21.7855  108.1384  -97.3588 C   0  0  2  0  0  0  0  0  0  0  0  0
   20.5421  107.6404  -99.5891 C   0  0  0  0  0  0  0  0  0  0  0  0
   19.4343  107.0921 -100.1292 C   0  0  0  0  0  0  0  0  0  0  0  0
   17.6920  105.3541  -99.7849 N   0  0  0  0  0  0  0  0  0  0  0  0
   20.0081  107.8943 -102.3167 C   0  0  0  0  0  0  0  0  0  0  0  0
   17.9813  107.0093  -98.2714 O   0  0  0  0  0  0  0  0  0  0  0  0
   21.0209  107.4193  -98.3080 N   0  0  0  0  0  0  0  0  0  0  0  0
   22.0496  109.2067 -102.6741 N   0  0  0  0  0  0  0  0  0  0  0  0
   21.1480  108.4803 -101.8229 C   0  0  0  0  0  0  0  0  0  0  0  0
   21.3955  108.3471 -100.4854 C   0  0  0  0  0  0  0  0  0  0  0  0
   23.3724  109.2093 -102.6457 N   0  0  0  0  0  0  0  0  0  0  0  0
   21.8090  110.4877  -96.4479 C   0  0  0  0  0  0  0  0  0  0  0  0
   22.0799  109.8784  -95.0842 C   0  0  1  0  0  0  0  0  0  0  0  0
   21.1530  108.6795  -94.9749 C   0  0  0  0  0  0  0  0  0  0  0  0
   21.4794  107.6120  -95.9680 C   0  0  0  0  0  0  0  0  0  0  0  0
   23.8914  109.9945 -103.5765 C   0  0  0  0  0  0  0  0  0  0  0  0
   22.8443  110.5532 -104.2726 C   0  0  0  0  0  0  0  0  0  0  0  0
   21.6951  110.0291 -103.6703 C   0  0  0  0  0  0  0  0  0  0  0  0
   21.4495  111.8920 -105.9417 C   0  0  0  0  0  0  0  0  0  0  0  0
   19.0929  112.2490 -105.2904 C   0  0  0  0  0  0  0  0  0  0  0  0
   19.1381  107.2033 -101.5229 C   0  0  0  0  0  0  0  0  0  0  0  0
   26.1510  109.6618 -102.9830 F   0  0  0  0  0  0  0  0  0  0  0  0
   23.7995  111.9653 -105.9229 O   0  0  0  0  0  0  0  0  0  0  0  0
   25.6136  109.8309 -105.1782 F   0  0  0  0  0  0  0  0  0  0  0  0
   25.5271  111.6611 -103.9240 F   0  0  0  0  0  0  0  0  0  0  0  0
   23.4047  109.5467  -94.9185 O   0  0  0  0  0  0  0  0  0  0  0  0
   18.3664  106.5354  -99.3345 C   0  0  0  0  0  0  0  0  0  0  0  0
   21.0712  109.5633  -97.3547 C   0  0  0  0  0  0  0  0  0  0  0  0
   20.4015  110.4677 -104.2281 C   0  0  0  0  0  0  0  0  0  0  0  0
   20.4635  111.8834 -104.7729 C   0  0  1  0  0  0  0  0  0  0  0  0
   22.7668  111.4829 -105.3913 C   0  0  0  0  0  0  0  0  0  0  0  0
   20.8678  112.8803 -103.7385 C   0  0  0  0  0  0  0  0  0  0  0  0
   25.3274  110.2851 -103.8914 C   0  0  1  0  0  0  0  0  0  0  0  0
  1  7  1  6
  1 15  1  0
  1 28  1  0
  2  3  2  0
  2  7  1  0
 10  2  1  0
 21  3  1  0
  3 27  1  0
 27  4  1  0
  9  5  1  0
  5 21  2  0
 27  6  2  0
  8  9  1  0
  8 11  1  0
 18  8  1  0
  9 10  2  0
 16 11  2  0
 12 13  1  0
 28 12  1  0
 14 13  1  0
 13 26  1  6
 15 14  1  0
 17 16  1  0
 16 33  1  0
 17 18  2  0
 31 17  1  0
 18 29  1  0
 19 30  1  0
 19 31  1  0
 30 20  1  6
 33 22  1  1
 31 23  2  0
 33 24  1  0
 33 25  1  0
 29 30  1  0
 30 32  1  0
M  END
$$$$
