
     RDKit          3D

 33 36  0  0  0  0  0  0  0  0999 V2000
   21.1483  109.1374  -97.5932 C   0  0  2  0  0  0  0  0  0  0  0  0
   19.8426  108.2178  -99.6470 C   0  0  0  0  0  0  0  0  0  0  0  0
   19.1829  107.1518 -100.1451 C   0  0  0  0  0  0  0  0  0  0  0  0
   17.7642  105.1245  -99.9164 N   0  0  0  0  0  0  0  0  0  0  0  0
   19.7053  107.7830 -102.4004 C   0  0  0  0  0  0  0  0  0  0  0  0
   18.0824  106.5108  -98.1582 O   0  0  0  0  0  0  0  0  0  0  0  0
   20.1532  108.4359  -98.3145 N   0  0  0  0  0  0  0  0  0  0  0  0
   21.0124  109.8065 -102.8641 N   0  0  0  0  0  0  0  0  0  0  0  0
   20.3848  108.8896 -101.9528 C   0  0  0  0  0  0  0  0  0  0  0  0
   20.4432  109.0886 -100.6018 C   0  0  0  0  0  0  0  0  0  0  0  0
   20.4836  110.3856 -103.9298 N   0  0  0  0  0  0  0  0  0  0  0  0
   21.5018  109.8409  -95.1996 C   0  0  0  0  0  0  0  0  0  0  0  0
   22.9631  109.4733  -95.3837 C   0  0  1  0  0  0  0  0  0  0  0  0
   22.9664  108.1563  -96.1413 C   0  0  0  0  0  0  0  0  0  0  0  0
   22.4046  108.2881  -97.5195 C   0  0  0  0  0  0  0  0  0  0  0  0
   21.3453  111.1778 -104.5481 C   0  0  0  0  0  0  0  0  0  0  0  0
   22.5284  111.1234 -103.8478 C   0  0  0  0  0  0  0  0  0  0  0  0
   22.2762  110.2442 -102.7887 C   0  0  0  0  0  0  0  0  0  0  0  0
   24.9282  111.5025 -103.0598 C   0  0  0  0  0  0  0  0  0  0  0  0
   25.8150  109.7755 -101.5315 C   0  0  0  0  0  0  0  0  0  0  0  0
   19.1000  106.9028 -101.5499 C   0  0  0  0  0  0  0  0  0  0  0  0
   20.0172  112.7673 -105.6788 F   0  0  0  0  0  0  0  0  0  0  0  0
   24.0580  112.5380 -104.9830 O   0  0  0  0  0  0  0  0  0  0  0  0
   22.2682  112.8514 -105.9285 F   0  0  0  0  0  0  0  0  0  0  0  0
   21.1573  111.1934 -106.9015 F   0  0  0  0  0  0  0  0  0  0  0  0
   23.6693  110.4625  -96.0282 O   0  0  0  0  0  0  0  0  0  0  0  0
   18.3440  106.3000  -99.3373 C   0  0  0  0  0  0  0  0  0  0  0  0
   20.5971  109.0706  -96.0991 C   0  0  0  0  0  0  0  0  0  0  0  0
   23.3947  109.9957 -101.8592 C   0  0  0  0  0  0  0  0  0  0  0  0
   24.7431  110.0718 -102.5527 C   0  0  1  0  0  0  0  0  0  0  0  0
   23.8271  111.7594 -104.0227 C   0  0  0  0  0  0  0  0  0  0  0  0
   24.8676  109.0972 -103.6761 C   0  0  0  0  0  0  0  0  0  0  0  0
   21.1636  112.0139 -105.7785 C   0  0  1  0  0  0  0  0  0  0  0  0
  1  7  1  6
  1 15  1  0
  1 28  1  0
  2  3  2  0
  2  7  1  0
 10  2  1  0
 21  3  1  0
  3 27  1  0
 27  4  1  0
  9  5  1  0
  5 21  2  0
 27  6  2  0
  8  9  1  0
  8 11  1  0
 18  8  1  0
  9 10  2  0
 16 11  2  0
 12 13  1  0
 28 12  1  0
 14 13  1  0
 13 26  1  6
 15 14  1  0
 17 16  1  0
 16 33  1  0
 17 18  2  0
 31 17  1  0
 18 29  1  0
 19 30  1  0
 19 31  1  0
 30 20  1  1
 33 22  1  1
 31 23  2  0
 33 24  1  0
 33 25  1  0
 29 30  1  0
 30 32  1  0
M  END
$$$$
