
     RDKit          3D

 33 36  0  0  0  0  0  0  0  0999 V2000
   21.7603  108.4789  -97.1990 C   0  0  2  0  0  0  0  0  0  0  0  0
   20.4437  107.9030  -99.3677 C   0  0  0  0  0  0  0  0  0  0  0  0
   19.4241  107.2319  -99.9418 C   0  0  0  0  0  0  0  0  0  0  0  0
   17.5854  105.5742  -99.7273 N   0  0  0  0  0  0  0  0  0  0  0  0
   20.1367  107.8733 -102.1415 C   0  0  0  0  0  0  0  0  0  0  0  0
   17.9719  107.0828  -98.0875 O   0  0  0  0  0  0  0  0  0  0  0  0
   20.8209  107.8319  -98.0365 N   0  0  0  0  0  0  0  0  0  0  0  0
   22.1157  109.2888 -102.4542 N   0  0  0  0  0  0  0  0  0  0  0  0
   21.1899  108.5799 -101.6143 C   0  0  0  0  0  0  0  0  0  0  0  0
   21.3267  108.5848 -100.2544 C   0  0  0  0  0  0  0  0  0  0  0  0
   23.4379  109.2596 -102.4148 N   0  0  0  0  0  0  0  0  0  0  0  0
   21.6748  110.2088  -95.3688 C   0  0  0  0  0  0  0  0  0  0  0  0
   22.7258  109.3879  -94.6436 C   0  0  1  0  0  0  0  0  0  0  0  0
   22.2934  107.9388  -94.7906 C   0  0  0  0  0  0  0  0  0  0  0  0
   22.3242  107.4741  -96.2104 C   0  0  0  0  0  0  0  0  0  0  0  0
   23.9833  110.0367 -103.3373 C   0  0  0  0  0  0  0  0  0  0  0  0
   22.9558  110.6238 -104.0391 C   0  0  0  0  0  0  0  0  0  0  0  0
   21.7894  110.1243 -103.4491 C   0  0  0  0  0  0  0  0  0  0  0  0
   21.6073  112.0038 -105.7128 C   0  0  0  0  0  0  0  0  0  0  0  0
   19.2546  112.4138 -105.0791 C   0  0  0  0  0  0  0  0  0  0  0  0
   19.2452  107.1967 -101.3593 C   0  0  0  0  0  0  0  0  0  0  0  0
   26.2303  109.5547 -102.8011 F   0  0  0  0  0  0  0  0  0  0  0  0
   23.9582  112.0209 -105.6741 O   0  0  0  0  0  0  0  0  0  0  0  0
   25.6865  109.9509 -104.9652 F   0  0  0  0  0  0  0  0  0  0  0  0
   25.6871  111.6578 -103.5452 F   0  0  0  0  0  0  0  0  0  0  0  0
   23.9915  109.6199  -95.1301 O   0  0  0  0  0  0  0  0  0  0  0  0
   18.3273  106.6749  -99.1877 C   0  0  0  0  0  0  0  0  0  0  0  0
   20.8278  109.3855  -96.2774 C   0  0  0  0  0  0  0  0  0  0  0  0
   20.5113  110.5965 -104.0152 C   0  0  0  0  0  0  0  0  0  0  0  0
   20.6116  112.0130 -104.5522 C   0  0  1  0  0  0  0  0  0  0  0  0
   22.9098  111.5607 -105.1535 C   0  0  0  0  0  0  0  0  0  0  0  0
   21.0309  112.9948 -103.5094 C   0  0  0  0  0  0  0  0  0  0  0  0
   25.4285  110.2945 -103.6388 C   0  0  1  0  0  0  0  0  0  0  0  0
  1  7  1  6
  1 15  1  0
  1 28  1  0
  2  3  2  0
  2  7  1  0
 10  2  1  0
 21  3  1  0
  3 27  1  0
 27  4  1  0
  9  5  1  0
  5 21  2  0
 27  6  2  0
  8  9  1  0
  8 11  1  0
 18  8  1  0
  9 10  2  0
 16 11  2  0
 12 13  1  0
 28 12  1  0
 14 13  1  0
 13 26  1  6
 15 14  1  0
 17 16  1  0
 16 33  1  0
 17 18  2  0
 31 17  1  0
 18 29  1  0
 19 30  1  0
 19 31  1  0
 30 20  1  6
 33 22  1  1
 31 23  2  0
 33 24  1  0
 33 25  1  0
 29 30  1  0
 30 32  1  0
M  END
$$$$
