
     RDKit          3D

 33 36  0  0  0  0  0  0  0  0999 V2000
   21.4945  108.7373  -97.1132 C   0  0  2  0  0  0  0  0  0  0  0  0
   20.2298  108.0002  -99.2640 C   0  0  0  0  0  0  0  0  0  0  0  0
   19.3729  107.1106  -99.8061 C   0  0  0  0  0  0  0  0  0  0  0  0
   17.5115  105.4707  -99.6629 N   0  0  0  0  0  0  0  0  0  0  0  0
   20.2403  107.4989 -102.0094 C   0  0  0  0  0  0  0  0  0  0  0  0
   17.9428  106.8752  -97.9436 O   0  0  0  0  0  0  0  0  0  0  0  0
   20.4621  108.1899  -97.9114 N   0  0  0  0  0  0  0  0  0  0  0  0
   22.0486  109.1155 -102.3770 N   0  0  0  0  0  0  0  0  0  0  0  0
   21.1311  108.4208 -101.5163 C   0  0  0  0  0  0  0  0  0  0  0  0
   21.1137  108.6552 -100.1699 C   0  0  0  0  0  0  0  0  0  0  0  0
   23.3693  109.1456 -102.3046 N   0  0  0  0  0  0  0  0  0  0  0  0
   21.7863  109.3449  -94.6852 C   0  0  0  0  0  0  0  0  0  0  0  0
   23.1936  108.7857  -94.7897 C   0  0  1  0  0  0  0  0  0  0  0  0
   23.0682  107.4937  -95.5793 C   0  0  0  0  0  0  0  0  0  0  0  0
   22.6180  107.7242  -96.9853 C   0  0  0  0  0  0  0  0  0  0  0  0
   23.9062  109.8869 -103.2609 C   0  0  0  0  0  0  0  0  0  0  0  0
   22.8740  110.3848 -104.0224 C   0  0  0  0  0  0  0  0  0  0  0  0
   21.7142  109.8731 -103.4299 C   0  0  0  0  0  0  0  0  0  0  0  0
   21.5140  111.5995 -105.8110 C   0  0  0  0  0  0  0  0  0  0  0  0
   19.1305  111.9464 -105.2602 C   0  0  0  0  0  0  0  0  0  0  0  0
   19.3591  106.8317 -101.2078 C   0  0  0  0  0  0  0  0  0  0  0  0
   25.8492  109.2954 -104.4625 F   0  0  0  0  0  0  0  0  0  0  0  0
   23.8603  111.7199 -105.7179 O   0  0  0  0  0  0  0  0  0  0  0  0
   25.4536  111.4864 -104.0390 F   0  0  0  0  0  0  0  0  0  0  0  0
   26.0664  110.1773 -102.3537 F   0  0  0  0  0  0  0  0  0  0  0  0
   24.0659  109.6809  -95.3645 O   0  0  0  0  0  0  0  0  0  0  0  0
   18.2775  106.5269  -99.0705 C   0  0  0  0  0  0  0  0  0  0  0  0
   20.8453  108.7202  -95.6575 C   0  0  0  0  0  0  0  0  0  0  0  0
   20.4329  110.2540 -104.0547 C   0  0  0  0  0  0  0  0  0  0  0  0
   20.4886  111.6376 -104.6771 C   0  0  1  0  0  0  0  0  0  0  0  0
   22.8186  111.2481 -105.1943 C   0  0  0  0  0  0  0  0  0  0  0  0
   20.8394  112.6992 -103.6885 C   0  0  0  0  0  0  0  0  0  0  0  0
   25.3468  110.1874 -103.5438 C   0  0  1  0  0  0  0  0  0  0  0  0
  1  7  1  6
  1 15  1  0
  1 28  1  0
  2  3  2  0
  2  7  1  0
 10  2  1  0
 21  3  1  0
  3 27  1  0
 27  4  1  0
  9  5  1  0
  5 21  2  0
 27  6  2  0
  8  9  1  0
  8 11  1  0
 18  8  1  0
  9 10  2  0
 16 11  2  0
 12 13  1  0
 28 12  1  0
 14 13  1  0
 13 26  1  6
 15 14  1  0
 17 16  1  0
 16 33  1  0
 17 18  2  0
 31 17  1  0
 18 29  1  0
 19 30  1  0
 19 31  1  0
 30 20  1  6
 33 22  1  6
 31 23  2  0
 33 24  1  0
 33 25  1  0
 29 30  1  0
 30 32  1  0
M  END
$$$$
