
     RDKit          3D

 19 20  0  0  0  0  0  0  0  0999 V2000
  108.9613  -49.5456   41.8352 N   0  0  0  0  0  0  0  0  0  0  0  0
  109.3795  -48.5381   41.0605 C   0  0  0  0  0  0  0  0  0  0  0  0
  109.6447  -48.7541   39.8651 O   0  0  0  0  0  0  0  0  0  0  0  0
  109.5210  -47.2974   41.5403 N   0  0  0  0  0  0  0  0  0  0  0  0
  109.2542  -46.9773   42.8285 C   0  0  0  0  0  0  0  0  0  0  0  0
  109.3915  -45.8019   43.2705 O   0  0  0  0  0  0  0  0  0  0  0  0
  108.8232  -47.9825   43.6542 C   0  0  0  0  0  0  0  0  0  0  0  0
  108.6894  -49.2488   43.1241 C   0  0  0  0  0  0  0  0  0  0  0  0
  108.7851  -50.8914   41.4077 C   0  0  1  0  0  0  0  0  0  0  0  0
  109.8771  -51.8364   41.7431 C   0  0  1  0  0  0  0  0  0  0  0  0
  109.2456  -52.8153   42.6756 C   0  0  2  0  0  0  0  0  0  0  0  0
  110.2776  -52.5961   40.5452 N   0  0  0  0  0  0  0  0  0  0  0  0
  109.4789  -54.1525   42.2748 O   0  0  0  0  0  0  0  0  0  0  0  0
  107.7731  -52.5546   42.5427 C   0  0  2  0  0  0  0  0  0  0  0  0
  111.4978  -52.8427   40.4379 N   0  0  0  0  0  4  0  0  0  0  0  0
  107.5921  -51.3529   41.9333 O   0  0  0  0  0  0  0  0  0  0  0  0
  107.0488  -52.6036   43.8699 C   0  0  0  0  0  0  0  0  0  0  0  0
  112.6130  -53.2164   40.0902 N   0  0  0  0  0  2  0  0  0  0  0  0
  107.7640  -52.0679   44.9092 O   0  0  0  0  0  0  0  0  0  0  0  0
  1  2  1  0
  1  8  1  0
  9  1  1  1
  2  3  2  0
  2  4  1  0
  4  5  1  0
  5  6  2  0
  5  7  1  0
  7  8  2  0
  9 10  1  0
  9 16  1  0
 10 11  1  0
 10 12  1  6
 11 13  1  6
 11 14  1  0
 12 15  2  3
 14 16  1  1
 14 17  1  0
 15 18  2  0
 17 19  1  6
M  CHG  2  15   1  18  -1
M  END
$$$$
