
     RDKit          3D

 19 20  0  0  0  0  0  0  0  0999 V2000
  106.4783  -50.3463   41.6870 N   0  0  0  0  0  0  0  0  0  0  0  0
  105.7365  -49.3778   42.2359 C   0  0  0  0  0  0  0  0  0  0  0  0
  106.2469  -48.6994   43.1555 O   0  0  0  0  0  0  0  0  0  0  0  0
  104.4753  -49.1024   41.8462 N   0  0  0  0  0  0  0  0  0  0  0  0
  103.9068  -49.8227   40.8559 C   0  0  0  0  0  0  0  0  0  0  0  0
  102.7232  -49.5628   40.4916 O   0  0  0  0  0  0  0  0  0  0  0  0
  104.6310  -50.8320   40.2586 C   0  0  0  0  0  0  0  0  0  0  0  0
  105.9144  -51.0722   40.6938 C   0  0  0  0  0  0  0  0  0  0  0  0
  107.8220  -50.6725   42.0706 C   0  0  1  0  0  0  0  0  0  0  0  0
  107.8590  -52.0783   42.6201 C   0  0  1  0  0  0  0  0  0  0  0  0
  108.7354  -52.7750   41.5785 C   0  0  2  0  0  0  0  0  0  0  0  0
  108.5831  -52.1283   43.8842 N   0  0  0  0  0  0  0  0  0  0  0  0
  109.3961  -53.8557   42.0779 O   0  0  0  0  0  0  0  0  0  0  0  0
  109.6707  -51.6080   41.2382 C   0  0  2  0  0  0  0  0  0  0  0  0
  108.0069  -52.4721   44.9117 N   0  0  0  0  0  4  0  0  0  0  0  0
  108.7421  -50.5860   41.0609 O   0  0  0  0  0  0  0  0  0  0  0  0
  110.3909  -51.9542   39.9622 C   0  0  0  0  0  0  0  0  0  0  0  0
  107.3719  -52.6293   45.9552 N   0  0  0  0  0  2  0  0  0  0  0  0
  109.5516  -52.5295   39.0262 O   0  0  0  0  0  0  0  0  0  0  0  0
  1  2  1  0
  1  8  1  0
  9  1  1  6
  2  3  2  0
  2  4  1  0
  4  5  1  0
  5  6  2  0
  5  7  1  0
  7  8  2  0
  9 10  1  0
  9 16  1  0
 10 11  1  0
 10 12  1  1
 11 13  1  1
 11 14  1  0
 12 15  2  3
 14 16  1  0
 14 17  1  6
 15 18  2  0
 17 19  1  0
M  CHG  2  15   1  18  -1
M  END
$$$$
