
     RDKit          3D

 19 20  0  0  0  0  0  0  0  0999 V2000
  108.6376  -49.2205   43.1888 N   0  0  0  0  0  0  0  0  0  0  0  0
  107.7693  -48.2320   43.4319 C   0  0  0  0  0  0  0  0  0  0  0  0
  106.5591  -48.4940   43.5447 O   0  0  0  0  0  0  0  0  0  0  0  0
  108.1704  -46.9620   43.5574 N   0  0  0  0  0  0  0  0  0  0  0  0
  109.4680  -46.5915   43.4486 C   0  0  0  0  0  0  0  0  0  0  0  0
  109.8352  -45.3888   43.5690 O   0  0  0  0  0  0  0  0  0  0  0  0
  110.3886  -47.5757   43.1996 C   0  0  0  0  0  0  0  0  0  0  0  0
  109.9378  -48.8733   43.0764 C   0  0  0  0  0  0  0  0  0  0  0  0
  108.2973  -50.5941   43.0401 C   0  0  1  0  0  0  0  0  0  0  0  0
  108.5439  -51.1922   41.7062 C   0  0  1  0  0  0  0  0  0  0  0  0
  109.5896  -52.2278   41.9529 C   0  0  2  0  0  0  0  0  0  0  0  0
  107.3436  -51.9102   41.2414 N   0  0  0  0  0  0  0  0  0  0  0  0
  109.2266  -53.4841   41.4115 O   0  0  0  0  0  0  0  0  0  0  0  0
  109.6210  -52.3721   43.4468 C   0  0  2  0  0  0  0  0  0  0  0  0
  106.6506  -52.4483   42.1311 N   0  0  0  0  0  4  0  0  0  0  0  0
  108.9822  -51.3098   44.0052 O   0  0  0  0  0  0  0  0  0  0  0  0
  111.0258  -52.5070   43.9916 C   0  0  0  0  0  0  0  0  0  0  0  0
  106.0089  -53.2126   42.8440 N   0  0  0  0  0  2  0  0  0  0  0  0
  111.9209  -51.6325   43.4326 O   0  0  0  0  0  0  0  0  0  0  0  0
  1  2  1  0
  1  8  1  0
  9  1  1  6
  2  3  2  0
  2  4  1  0
  4  5  1  0
  5  6  2  0
  5  7  1  0
  7  8  2  0
  9 10  1  0
  9 16  1  0
 10 11  1  0
 10 12  1  1
 11 13  1  6
 11 14  1  0
 12 15  2  3
 14 16  1  1
 14 17  1  0
 15 18  2  0
 17 19  1  6
M  CHG  2  15   1  18  -1
M  END
$$$$
