
     RDKit          3D

 19 20  0  0  0  0  0  0  0  0999 V2000
  105.8917  -50.8216   39.7702 N   0  0  0  0  0  0  0  0  0  0  0  0
  105.4267  -50.2566   38.6505 C   0  0  0  0  0  0  0  0  0  0  0  0
  106.0031  -50.5298   37.5737 O   0  0  0  0  0  0  0  0  0  0  0  0
  104.3743  -49.4135   38.6303 N   0  0  0  0  0  0  0  0  0  0  0  0
  103.7390  -49.1061   39.7811 C   0  0  0  0  0  0  0  0  0  0  0  0
  102.7517  -48.3149   39.7602 O   0  0  0  0  0  0  0  0  0  0  0  0
  104.1809  -49.6633   40.9620 C   0  0  0  0  0  0  0  0  0  0  0  0
  105.2594  -50.5177   40.9274 C   0  0  0  0  0  0  0  0  0  0  0  0
  107.0066  -51.7226   39.8368 C   0  0  1  0  0  0  0  0  0  0  0  0
  107.9794  -51.2394   40.8854 C   0  0  1  0  0  0  0  0  0  0  0  0
  107.9001  -52.3783   41.9028 C   0  0  2  0  0  0  0  0  0  0  0  0
  109.3428  -51.2267   40.3698 N   0  0  0  0  0  0  0  0  0  0  0  0
  109.0351  -52.5083   42.6436 O   0  0  0  0  0  0  0  0  0  0  0  0
  107.6827  -53.5465   40.9330 C   0  0  2  0  0  0  0  0  0  0  0  0
  110.0574  -50.2438   40.5406 N   0  0  0  0  0  4  0  0  0  0  0  0
  106.6778  -53.0192   40.1268 O   0  0  0  0  0  0  0  0  0  0  0  0
  107.2099  -54.7284   41.7371 C   0  0  0  0  0  0  0  0  0  0  0  0
  110.7296  -49.2118   40.5261 N   0  0  0  0  0  2  0  0  0  0  0  0
  106.0779  -54.4401   42.4765 O   0  0  0  0  0  0  0  0  0  0  0  0
  1  2  1  0
  1  8  1  0
  9  1  1  1
  2  3  2  0
  2  4  1  0
  4  5  1  0
  5  6  2  0
  5  7  1  0
  7  8  2  0
  9 10  1  0
  9 16  1  0
 10 11  1  0
 10 12  1  6
 11 13  1  6
 11 14  1  0
 12 15  2  3
 14 16  1  0
 14 17  1  1
 15 18  2  0
 17 19  1  0
M  CHG  2  15   1  18  -1
M  END
$$$$
