
     RDKit          3D

 19 20  0  0  0  0  0  0  0  0999 V2000
  108.8422  -49.2978   42.4140 N   0  0  0  0  0  0  0  0  0  0  0  0
  109.5571  -48.1673   42.3942 C   0  0  0  0  0  0  0  0  0  0  0  0
  110.6372  -48.1685   41.7620 O   0  0  0  0  0  0  0  0  0  0  0  0
  109.1695  -47.0370   43.0193 N   0  0  0  0  0  0  0  0  0  0  0  0
  108.0077  -47.0152   43.7065 C   0  0  0  0  0  0  0  0  0  0  0  0
  107.6456  -45.9536   44.2924 O   0  0  0  0  0  0  0  0  0  0  0  0
  107.2352  -48.1558   43.7564 C   0  0  0  0  0  0  0  0  0  0  0  0
  107.6765  -49.2828   43.1011 C   0  0  0  0  0  0  0  0  0  0  0  0
  109.2168  -50.5209   41.7638 C   0  0  1  0  0  0  0  0  0  0  0  0
  109.8219  -51.4622   42.7773 C   0  0  1  0  0  0  0  0  0  0  0  0
  108.7951  -52.5955   42.7713 C   0  0  2  0  0  0  0  0  0  0  0  0
  111.0751  -52.0240   42.2887 N   0  0  0  0  0  0  0  0  0  0  0  0
  109.3270  -53.7955   43.1331 O   0  0  0  0  0  0  0  0  0  0  0  0
  108.3930  -52.5419   41.2921 C   0  0  2  0  0  0  0  0  0  0  0  0
  111.9115  -52.4469   43.0809 N   0  0  0  0  0  4  0  0  0  0  0  0
  108.1898  -51.1735   41.1371 O   0  0  0  0  0  0  0  0  0  0  0  0
  107.1205  -53.3309   41.1337 C   0  0  0  0  0  0  0  0  0  0  0  0
  112.8345  -52.9548   43.7188 N   0  0  0  0  0  2  0  0  0  0  0  0
  106.2005  -53.0462   42.1257 O   0  0  0  0  0  0  0  0  0  0  0  0
  1  2  1  0
  1  8  1  0
  9  1  1  1
  2  3  2  0
  2  4  1  0
  4  5  1  0
  5  6  2  0
  5  7  1  0
  7  8  2  0
  9 10  1  0
  9 16  1  0
 10 11  1  0
 10 12  1  6
 11 13  1  6
 11 14  1  0
 12 15  2  3
 14 16  1  0
 14 17  1  1
 15 18  2  0
 17 19  1  0
M  CHG  2  15   1  18  -1
M  END
$$$$
