
     RDKit          3D

 19 20  0  0  0  0  0  0  0  0999 V2000
  108.6606  -49.1274   43.4255 N   0  0  0  0  0  0  0  0  0  0  0  0
  107.6176  -48.2897   43.4158 C   0  0  0  0  0  0  0  0  0  0  0  0
  106.4687  -48.7855   43.3941 O   0  0  0  0  0  0  0  0  0  0  0  0
  107.7477  -46.9476   43.4281 N   0  0  0  0  0  0  0  0  0  0  0  0
  108.9785  -46.3932   43.4514 C   0  0  0  0  0  0  0  0  0  0  0  0
  109.0987  -45.1336   43.4629 O   0  0  0  0  0  0  0  0  0  0  0  0
  110.0853  -47.2149   43.4623 C   0  0  0  0  0  0  0  0  0  0  0  0
  109.8971  -48.5782   43.4489 C   0  0  0  0  0  0  0  0  0  0  0  0
  108.5674  -50.5592   43.4131 C   0  0  1  0  0  0  0  0  0  0  0  0
  108.9068  -51.0715   42.0340 C   0  0  1  0  0  0  0  0  0  0  0  0
  110.1852  -51.8593   42.3226 C   0  0  2  0  0  0  0  0  0  0  0  0
  107.9126  -52.0325   41.5722 N   0  0  0  0  0  0  0  0  0  0  0  0
  110.4012  -52.8657   41.4313 O   0  0  0  0  0  0  0  0  0  0  0  0
  109.8363  -52.3695   43.7264 C   0  0  2  0  0  0  0  0  0  0  0  0
  107.7924  -52.2673   40.3737 N   0  0  0  0  0  4  0  0  0  0  0  0
  109.3795  -51.1932   44.3142 O   0  0  0  0  0  0  0  0  0  0  0  0
  111.1063  -52.8706   44.3612 C   0  0  0  0  0  0  0  0  0  0  0  0
  107.8231  -52.6260   39.1958 N   0  0  0  0  0  2  0  0  0  0  0  0
  112.1847  -52.0469   44.0968 O   0  0  0  0  0  0  0  0  0  0  0  0
  1  2  1  0
  1  8  1  0
  9  1  1  6
  2  3  2  0
  2  4  1  0
  4  5  1  0
  5  6  2  0
  5  7  1  0
  7  8  2  0
  9 10  1  0
  9 16  1  0
 10 11  1  0
 10 12  1  1
 11 13  1  6
 11 14  1  0
 12 15  2  3
 14 16  1  0
 14 17  1  1
 15 18  2  0
 17 19  1  0
M  CHG  2  15   1  18  -1
M  END
$$$$
