
     RDKit          3D

 19 20  0  0  0  0  0  0  0  0999 V2000
  105.6923  -50.3838   40.7374 N   0  0  0  0  0  0  0  0  0  0  0  0
  104.7595  -49.5363   41.1867 C   0  0  0  0  0  0  0  0  0  0  0  0
  105.0476  -48.7306   42.0888 O   0  0  0  0  0  0  0  0  0  0  0  0
  103.5178  -49.5327   40.6889 N   0  0  0  0  0  0  0  0  0  0  0  0
  103.1220  -50.3763   39.7067 C   0  0  0  0  0  0  0  0  0  0  0  0
  101.9465  -50.3638   39.2442 O   0  0  0  0  0  0  0  0  0  0  0  0
  104.0493  -51.2602   39.2197 C   0  0  0  0  0  0  0  0  0  0  0  0
  105.3191  -51.2346   39.7575 C   0  0  0  0  0  0  0  0  0  0  0  0
  107.0324  -50.4557   41.2106 C   0  0  1  0  0  0  0  0  0  0  0  0
  107.3607  -51.6080   42.0836 C   0  0  1  0  0  0  0  0  0  0  0  0
  108.3632  -52.3900   41.3024 C   0  0  2  0  0  0  0  0  0  0  0  0
  108.0480  -51.1432   43.3018 N   0  0  0  0  0  0  0  0  0  0  0  0
  109.5173  -52.6824   42.0675 O   0  0  0  0  0  0  0  0  0  0  0  0
  108.7771  -51.4608   40.1983 C   0  0  2  0  0  0  0  0  0  0  0  0
  107.9960  -51.9125   44.2851 N   0  0  0  0  0  4  0  0  0  0  0  0
  107.8730  -50.4490   40.1125 O   0  0  0  0  0  0  0  0  0  0  0  0
  108.9300  -52.1649   38.8682 C   0  0  0  0  0  0  0  0  0  0  0  0
  108.0024  -52.8690   45.0527 N   0  0  0  0  0  2  0  0  0  0  0  0
  109.5063  -51.3894   37.8961 O   0  0  0  0  0  0  0  0  0  0  0  0
  1  2  1  0
  1  8  1  0
  9  1  1  6
  2  3  2  0
  2  4  1  0
  4  5  1  0
  5  6  2  0
  5  7  1  0
  7  8  2  0
  9 10  1  0
  9 16  1  0
 10 11  1  0
 10 12  1  1
 11 13  1  1
 11 14  1  0
 12 15  2  3
 14 16  1  6
 14 17  1  0
 15 18  2  0
 17 19  1  6
M  CHG  2  15   1  18  -1
M  END
$$$$
