
     RDKit          3D

 19 20  0  0  0  0  0  0  0  0999 V2000
  105.7357  -50.3566   40.4818 N   0  0  0  0  0  0  0  0  0  0  0  0
  104.6414  -49.6389   40.7590 C   0  0  0  0  0  0  0  0  0  0  0  0
  104.7159  -48.7868   41.6726 O   0  0  0  0  0  0  0  0  0  0  0  0
  103.4724  -49.7912   40.1041 N   0  0  0  0  0  0  0  0  0  0  0  0
  103.3716  -50.7049   39.1154 C   0  0  0  0  0  0  0  0  0  0  0  0
  102.2739  -50.8464   38.5020 O   0  0  0  0  0  0  0  0  0  0  0  0
  104.4722  -51.4695   38.7924 C   0  0  0  0  0  0  0  0  0  0  0  0
  105.6414  -51.2744   39.4918 C   0  0  0  0  0  0  0  0  0  0  0  0
  106.9976  -50.2273   41.1526 C   0  0  1  0  0  0  0  0  0  0  0  0
  107.1830  -51.3884   42.0996 C   0  0  1  0  0  0  0  0  0  0  0  0
  108.3870  -52.0891   41.4687 C   0  0  2  0  0  0  0  0  0  0  0  0
  107.6036  -50.9285   43.4174 N   0  0  0  0  0  0  0  0  0  0  0  0
  109.1165  -52.8043   42.3687 O   0  0  0  0  0  0  0  0  0  0  0  0
  109.1303  -50.8544   40.9438 C   0  0  2  0  0  0  0  0  0  0  0  0
  108.7701  -50.6013   43.6129 N   0  0  0  0  0  4  0  0  0  0  0  0
  108.0845  -50.1777   40.3222 O   0  0  0  0  0  0  0  0  0  0  0  0
  110.1693  -51.3274   39.9620 C   0  0  0  0  0  0  0  0  0  0  0  0
  109.9743  -50.4653   43.8325 N   0  0  0  0  0  2  0  0  0  0  0  0
  109.6152  -52.0427   38.9167 O   0  0  0  0  0  0  0  0  0  0  0  0
  1  2  1  0
  1  8  1  0
  9  1  1  6
  2  3  2  0
  2  4  1  0
  4  5  1  0
  5  6  2  0
  5  7  1  0
  7  8  2  0
  9 10  1  0
  9 16  1  0
 10 11  1  0
 10 12  1  1
 11 13  1  1
 11 14  1  0
 12 15  2  3
 14 16  1  0
 14 17  1  6
 15 18  2  0
 17 19  1  0
M  CHG  2  15   1  18  -1
M  END
$$$$
