
     RDKit          3D

 19 20  0  0  0  0  0  0  0  0999 V2000
  107.8456  -50.2365   42.0942 N   0  0  0  0  0  0  0  0  0  0  0  0
  106.7857  -49.6405   41.5359 C   0  0  0  0  0  0  0  0  0  0  0  0
  106.0527  -50.2882   40.7683 O   0  0  0  0  0  0  0  0  0  0  0  0
  106.4917  -48.3590   41.7827 N   0  0  0  0  0  0  0  0  0  0  0  0
  107.2371  -47.5837   42.6050 C   0  0  0  0  0  0  0  0  0  0  0  0
  106.9498  -46.3744   42.8307 O   0  0  0  0  0  0  0  0  0  0  0  0
  108.3318  -48.1581   43.1964 C   0  0  0  0  0  0  0  0  0  0  0  0
  108.6033  -49.4814   42.9182 C   0  0  0  0  0  0  0  0  0  0  0  0
  108.2303  -51.5905   41.8857 C   0  0  1  0  0  0  0  0  0  0  0  0
  109.6355  -51.8188   41.4719 C   0  0  1  0  0  0  0  0  0  0  0  0
  110.2349  -52.5835   42.6044 C   0  0  2  0  0  0  0  0  0  0  0  0
  109.6813  -52.7059   40.2957 N   0  0  0  0  0  0  0  0  0  0  0  0
  110.8992  -53.7515   42.1599 O   0  0  0  0  0  0  0  0  0  0  0  0
  109.0535  -53.0195   43.4217 C   0  0  2  0  0  0  0  0  0  0  0  0
  110.6555  -52.5468   39.5297 N   0  0  0  0  0  4  0  0  0  0  0  0
  107.9673  -52.2921   43.0481 O   0  0  0  0  0  0  0  0  0  0  0  0
  109.2975  -52.9032   44.9101 C   0  0  0  0  0  0  0  0  0  0  0  0
  111.4527  -52.5493   38.5976 N   0  0  0  0  0  2  0  0  0  0  0  0
  110.2344  -51.9601   45.2439 O   0  0  0  0  0  0  0  0  0  0  0  0
  1  2  1  0
  1  8  1  0
  9  1  1  1
  2  3  2  0
  2  4  1  0
  4  5  1  0
  5  6  2  0
  5  7  1  0
  7  8  2  0
  9 10  1  0
  9 16  1  0
 10 11  1  0
 10 12  1  6
 11 13  1  6
 11 14  1  0
 12 15  2  3
 14 16  1  6
 14 17  1  0
 15 18  2  0
 17 19  1  6
M  CHG  2  15   1  18  -1
M  END
$$$$
