
     RDKit          3D

 19 20  0  0  0  0  0  0  0  0999 V2000
  109.4510  -49.0901   42.8263 N   0  0  0  0  0  0  0  0  0  0  0  0
  110.1604  -48.0294   43.2274 C   0  0  0  0  0  0  0  0  0  0  0  0
  111.3773  -48.1957   43.4679 O   0  0  0  0  0  0  0  0  0  0  0  0
  109.6278  -46.8002   43.3828 N   0  0  0  0  0  0  0  0  0  0  0  0
  108.3172  -46.6001   43.1285 C   0  0  0  0  0  0  0  0  0  0  0  0
  107.8192  -45.4460   43.2748 O   0  0  0  0  0  0  0  0  0  0  0  0
  107.5437  -47.6625   42.7123 C   0  0  0  0  0  0  0  0  0  0  0  0
  108.1365  -48.8964   42.5696 C   0  0  0  0  0  0  0  0  0  0  0  0
  109.9768  -50.4134   42.6482 C   0  0  1  0  0  0  0  0  0  0  0  0
  109.4813  -51.3036   43.7624 C   0  0  1  0  0  0  0  0  0  0  0  0
  108.6236  -52.2989   42.9801 C   0  0  2  0  0  0  0  0  0  0  0  0
  110.5766  -52.0622   44.3540 N   0  0  0  0  0  0  0  0  0  0  0  0
  108.5155  -53.5072   43.5983 O   0  0  0  0  0  0  0  0  0  0  0  0
  109.4505  -52.3601   41.6898 C   0  0  2  0  0  0  0  0  0  0  0  0
  110.4473  -52.5672   45.4649 N   0  0  0  0  0  4  0  0  0  0  0  0
  109.6516  -51.0025   41.4563 O   0  0  0  0  0  0  0  0  0  0  0  0
  108.5978  -53.0030   40.6284 C   0  0  0  0  0  0  0  0  0  0  0  0
  110.2038  -52.9188   46.6199 N   0  0  0  0  0  2  0  0  0  0  0  0
  107.2681  -52.6391   40.7329 O   0  0  0  0  0  0  0  0  0  0  0  0
  1  2  1  0
  1  8  1  0
  9  1  1  6
  2  3  2  0
  2  4  1  0
  4  5  1  0
  5  6  2  0
  5  7  1  0
  7  8  2  0
  9 10  1  0
  9 16  1  0
 10 11  1  0
 10 12  1  6
 11 13  1  1
 11 14  1  0
 12 15  2  3
 14 16  1  0
 14 17  1  6
 15 18  2  0
 17 19  1  0
M  CHG  2  15   1  18  -1
M  END
$$$$
