
     RDKit          3D

 19 20  0  0  0  0  0  0  0  0999 V2000
  108.9258  -51.1392   40.5534 N   0  0  0  0  0  0  0  0  0  0  0  0
  108.3111  -50.1716   39.8640 C   0  0  0  0  0  0  0  0  0  0  0  0
  108.1317  -49.0711   40.4324 O   0  0  0  0  0  0  0  0  0  0  0  0
  107.8800  -50.3276   38.5958 N   0  0  0  0  0  0  0  0  0  0  0  0
  108.0639  -51.5070   37.9651 C   0  0  0  0  0  0  0  0  0  0  0  0
  107.6588  -51.6515   36.7750 O   0  0  0  0  0  0  0  0  0  0  0  0
  108.6927  -52.5354   38.6337 C   0  0  0  0  0  0  0  0  0  0  0  0
  109.1133  -52.3240   39.9270 C   0  0  0  0  0  0  0  0  0  0  0  0
  109.3997  -51.0161   41.9022 C   0  0  1  0  0  0  0  0  0  0  0  0
  108.3377  -51.5123   42.8537 C   0  0  1  0  0  0  0  0  0  0  0  0
  109.0382  -52.7270   43.4638 C   0  0  2  0  0  0  0  0  0  0  0  0
  108.1185  -50.5618   43.9370 N   0  0  0  0  0  0  0  0  0  0  0  0
  108.5857  -53.0293   44.7120 O   0  0  0  0  0  0  0  0  0  0  0  0
  110.4768  -52.1953   43.4626 C   0  0  2  0  0  0  0  0  0  0  0  0
  107.1331  -50.6683   44.6607 N   0  0  0  0  0  4  0  0  0  0  0  0
  110.5582  -51.6956   42.1658 O   0  0  0  0  0  0  0  0  0  0  0  0
  111.3985  -53.3651   43.6839 C   0  0  0  0  0  0  0  0  0  0  0  0
  106.2204  -50.9490   45.4385 N   0  0  0  0  0  2  0  0  0  0  0  0
  111.3332  -54.2857   42.6546 O   0  0  0  0  0  0  0  0  0  0  0  0
  1  2  1  0
  1  8  1  0
  9  1  1  6
  2  3  2  0
  2  4  1  0
  4  5  1  0
  5  6  2  0
  5  7  1  0
  7  8  2  0
  9 10  1  0
  9 16  1  0
 10 11  1  0
 10 12  1  1
 11 13  1  1
 11 14  1  0
 12 15  2  3
 14 16  1  0
 14 17  1  6
 15 18  2  0
 17 19  1  0
M  CHG  2  15   1  18  -1
M  END
$$$$
