
     RDKit          3D

 19 20  0  0  0  0  0  0  0  0999 V2000
  109.0143  -49.2721   43.1595 N   0  0  0  0  0  0  0  0  0  0  0  0
  108.3663  -48.1584   42.7991 C   0  0  0  0  0  0  0  0  0  0  0  0
  107.1230  -48.1461   42.7990 O   0  0  0  0  0  0  0  0  0  0  0  0
  109.0239  -47.0512   42.4367 N   0  0  0  0  0  0  0  0  0  0  0  0
  110.3756  -46.9802   42.4092 C   0  0  0  0  0  0  0  0  0  0  0  0
  110.9859  -45.9290   42.0652 O   0  0  0  0  0  0  0  0  0  0  0  0
  111.0758  -48.1012   42.7717 C   0  0  0  0  0  0  0  0  0  0  0  0
  110.3636  -49.2236   43.1393 C   0  0  0  0  0  0  0  0  0  0  0  0
  108.3950  -50.4902   43.5565 C   0  0  1  0  0  0  0  0  0  0  0  0
  108.4629  -51.6092   42.5864 C   0  0  1  0  0  0  0  0  0  0  0  0
  109.2836  -52.6472   43.2760 C   0  0  2  0  0  0  0  0  0  0  0  0
  107.1242  -52.1941   42.3908 N   0  0  0  0  0  0  0  0  0  0  0  0
  108.6510  -53.9133   43.2655 O   0  0  0  0  0  0  0  0  0  0  0  0
  109.3422  -52.1837   44.7027 C   0  0  2  0  0  0  0  0  0  0  0  0
  106.8018  -53.0989   43.1900 N   0  0  0  0  0  4  0  0  0  0  0  0
  108.9558  -50.8814   44.7586 O   0  0  0  0  0  0  0  0  0  0  0  0
  110.7096  -52.3702   45.3221 C   0  0  0  0  0  0  0  0  0  0  0  0
  106.2183  -53.9185   43.8915 N   0  0  0  0  0  2  0  0  0  0  0  0
  111.7316  -52.3874   44.4090 O   0  0  0  0  0  0  0  0  0  0  0  0
  1  2  1  0
  1  8  1  0
  9  1  1  6
  2  3  2  0
  2  4  1  0
  4  5  1  0
  5  6  2  0
  5  7  1  0
  7  8  2  0
  9 10  1  0
  9 16  1  0
 10 11  1  0
 10 12  1  1
 11 13  1  1
 11 14  1  0
 12 15  2  3
 14 16  1  6
 14 17  1  0
 15 18  2  0
 17 19  1  6
M  CHG  2  15   1  18  -1
M  END
$$$$
