
     RDKit          3D

 19 20  0  0  0  0  0  0  0  0999 V2000
  107.7350  -49.8199   42.5846 N   0  0  0  0  0  0  0  0  0  0  0  0
  107.8377  -48.4918   42.4627 C   0  0  0  0  0  0  0  0  0  0  0  0
  108.9558  -48.0161   42.1630 O   0  0  0  0  0  0  0  0  0  0  0  0
  106.8000  -47.6505   42.6466 N   0  0  0  0  0  0  0  0  0  0  0  0
  105.5858  -48.1438   42.9704 C   0  0  0  0  0  0  0  0  0  0  0  0
  104.6131  -47.3529   43.1426 O   0  0  0  0  0  0  0  0  0  0  0  0
  105.4291  -49.5065   43.1077 C   0  0  0  0  0  0  0  0  0  0  0  0
  106.5205  -50.3211   42.9091 C   0  0  0  0  0  0  0  0  0  0  0  0
  108.8116  -50.7501   42.3981 C   0  0  1  0  0  0  0  0  0  0  0  0
  109.4843  -51.0105   43.7244 C   0  0  1  0  0  0  0  0  0  0  0  0
  109.1710  -52.4940   43.9234 C   0  0  2  0  0  0  0  0  0  0  0  0
  110.9329  -50.8957   43.6092 N   0  0  0  0  0  0  0  0  0  0  0  0
  110.0870  -53.1298   44.7047 O   0  0  0  0  0  0  0  0  0  0  0  0
  109.2204  -52.9444   42.4581 C   0  0  2  0  0  0  0  0  0  0  0  0
  111.6139  -50.6620   44.6030 N   0  0  0  0  0  4  0  0  0  0  0  0
  108.4406  -51.9551   41.8653 O   0  0  0  0  0  0  0  0  0  0  0  0
  108.5800  -54.3045   42.3742 C   0  0  0  0  0  0  0  0  0  0  0  0
  112.4472  -50.4989   45.4951 N   0  0  0  0  0  2  0  0  0  0  0  0
  107.4426  -54.3971   43.1547 O   0  0  0  0  0  0  0  0  0  0  0  0
  1  2  1  0
  1  8  1  0
  9  1  1  1
  2  3  2  0
  2  4  1  0
  4  5  1  0
  5  6  2  0
  5  7  1  0
  7  8  2  0
  9 10  1  0
  9 16  1  0
 10 11  1  0
 10 12  1  6
 11 13  1  1
 11 14  1  0
 12 15  2  3
 14 16  1  0
 14 17  1  1
 15 18  2  0
 17 19  1  0
M  CHG  2  15   1  18  -1
M  END
$$$$
