
     RDKit          3D

 19 20  0  0  0  0  0  0  0  0999 V2000
  108.8424  -50.9184   40.6364 N   0  0  0  0  0  0  0  0  0  0  0  0
  108.1907  -50.1123   39.7903 C   0  0  0  0  0  0  0  0  0  0  0  0
  107.1255  -49.5806   40.1489 O   0  0  0  0  0  0  0  0  0  0  0  0
  108.6569  -49.8618   38.5617 N   0  0  0  0  0  0  0  0  0  0  0  0
  109.8075  -50.3998   38.0931 C   0  0  0  0  0  0  0  0  0  0  0  0
  110.2381  -50.1559   36.9308 O   0  0  0  0  0  0  0  0  0  0  0  0
  110.5045  -51.2313   38.9303 C   0  0  0  0  0  0  0  0  0  0  0  0
  109.9929  -51.4661   40.1894 C   0  0  0  0  0  0  0  0  0  0  0  0
  108.4179  -51.2389   41.9562 C   0  0  1  0  0  0  0  0  0  0  0  0
  108.4139  -52.6775   42.3146 C   0  0  1  0  0  0  0  0  0  0  0  0
  109.4359  -52.7921   43.3958 C   0  0  2  0  0  0  0  0  0  0  0  0
  107.1211  -53.0473   42.9181 N   0  0  0  0  0  0  0  0  0  0  0  0
  108.9302  -53.4700   44.5306 O   0  0  0  0  0  0  0  0  0  0  0  0
  109.7052  -51.3719   43.8012 C   0  0  2  0  0  0  0  0  0  0  0  0
  107.1820  -53.7192   43.9699 N   0  0  0  0  0  4  0  0  0  0  0  0
  109.2174  -50.5404   42.8425 O   0  0  0  0  0  0  0  0  0  0  0  0
  111.1723  -51.1046   44.0548 C   0  0  0  0  0  0  0  0  0  0  0  0
  106.9740  -54.4552   44.9287 N   0  0  0  0  0  2  0  0  0  0  0  0
  112.0114  -51.9797   43.4155 O   0  0  0  0  0  0  0  0  0  0  0  0
  1  2  1  0
  1  8  1  0
  9  1  1  6
  2  3  2  0
  2  4  1  0
  4  5  1  0
  5  6  2  0
  5  7  1  0
  7  8  2  0
  9 10  1  0
  9 16  1  0
 10 11  1  0
 10 12  1  1
 11 13  1  1
 11 14  1  0
 12 15  2  3
 14 16  1  6
 14 17  1  0
 15 18  2  0
 17 19  1  6
M  CHG  2  15   1  18  -1
M  END
$$$$
