
     RDKit          3D

 19 20  0  0  0  0  0  0  0  0999 V2000
  107.7926  -49.6362   42.4990 N   0  0  0  0  0  0  0  0  0  0  0  0
  107.8089  -48.3409   42.8329 C   0  0  0  0  0  0  0  0  0  0  0  0
  108.9208  -47.7737   42.9240 O   0  0  0  0  0  0  0  0  0  0  0  0
  106.6913  -47.6258   43.0735 N   0  0  0  0  0  0  0  0  0  0  0  0
  105.4822  -48.2193   42.9804 C   0  0  0  0  0  0  0  0  0  0  0  0
  104.4345  -47.5467   43.2065 O   0  0  0  0  0  0  0  0  0  0  0  0
  105.4131  -49.5531   42.6392 C   0  0  0  0  0  0  0  0  0  0  0  0
  106.5839  -50.2372   42.4040 C   0  0  0  0  0  0  0  0  0  0  0  0
  108.9560  -50.4336   42.2349 C   0  0  1  0  0  0  0  0  0  0  0  0
  109.4144  -51.0904   43.5147 C   0  0  1  0  0  0  0  0  0  0  0  0
  109.1914  -52.5659   43.1807 C   0  0  2  0  0  0  0  0  0  0  0  0
  110.8479  -50.9129   43.7111 N   0  0  0  0  0  0  0  0  0  0  0  0
  110.0106  -53.3983   43.8808 O   0  0  0  0  0  0  0  0  0  0  0  0
  109.5227  -52.5218   41.6838 C   0  0  2  0  0  0  0  0  0  0  0  0
  111.3386  -51.0479   44.8278 N   0  0  0  0  0  4  0  0  0  0  0  0
  108.7774  -51.4122   41.2948 O   0  0  0  0  0  0  0  0  0  0  0  0
  109.0162  -53.7971   41.0640 C   0  0  0  0  0  0  0  0  0  0  0  0
  111.9248  -51.0148   45.9105 N   0  0  0  0  0  2  0  0  0  0  0  0
  107.7305  -54.1026   41.4705 O   0  0  0  0  0  0  0  0  0  0  0  0
  1  2  1  0
  1  8  1  0
  9  1  1  1
  2  3  2  0
  2  4  1  0
  4  5  1  0
  5  6  2  0
  5  7  1  0
  7  8  2  0
  9 10  1  0
  9 16  1  0
 10 11  1  0
 10 12  1  6
 11 13  1  1
 11 14  1  0
 12 15  2  3
 14 16  1  0
 14 17  1  6
 15 18  2  0
 17 19  1  0
M  CHG  2  15   1  18  -1
M  END
$$$$
