
     RDKit          3D

 19 20  0  0  0  0  0  0  0  0999 V2000
  105.8871  -50.3343   40.4616 N   0  0  0  0  0  0  0  0  0  0  0  0
  104.8553  -49.5779   40.8521 C   0  0  0  0  0  0  0  0  0  0  0  0
  105.0379  -48.7840   41.8022 O   0  0  0  0  0  0  0  0  0  0  0  0
  103.6385  -49.6320   40.2732 N   0  0  0  0  0  0  0  0  0  0  0  0
  103.4213  -50.4817   39.2469 C   0  0  0  0  0  0  0  0  0  0  0  0
  102.2789  -50.5312   38.7049 O   0  0  0  0  0  0  0  0  0  0  0  0
  104.4537  -51.2826   38.8078 C   0  0  0  0  0  0  0  0  0  0  0  0
  105.6761  -51.1884   39.4333 C   0  0  0  0  0  0  0  0  0  0  0  0
  107.1962  -50.3087   41.0486 C   0  0  1  0  0  0  0  0  0  0  0  0
  107.3920  -51.5464   41.8909 C   0  0  1  0  0  0  0  0  0  0  0  0
  108.5169  -52.2443   41.1254 C   0  0  2  0  0  0  0  0  0  0  0  0
  107.9218  -51.2075   43.2059 N   0  0  0  0  0  0  0  0  0  0  0  0
  109.2723  -53.0562   41.9154 O   0  0  0  0  0  0  0  0  0  0  0  0
  109.2788  -51.0039   40.6424 C   0  0  2  0  0  0  0  0  0  0  0  0
  108.2694  -52.0956   43.9782 N   0  0  0  0  0  4  0  0  0  0  0  0
  108.2254  -50.2391   40.1490 O   0  0  0  0  0  0  0  0  0  0  0  0
  110.2259  -51.4411   39.5566 C   0  0  0  0  0  0  0  0  0  0  0  0
  108.7638  -52.8647   44.8034 N   0  0  0  0  0  2  0  0  0  0  0  0
  109.5678  -52.0297   38.4928 O   0  0  0  0  0  0  0  0  0  0  0  0
  1  2  1  0
  1  8  1  0
  9  1  1  6
  2  3  2  0
  2  4  1  0
  4  5  1  0
  5  6  2  0
  5  7  1  0
  7  8  2  0
  9 10  1  0
  9 16  1  0
 10 11  1  0
 10 12  1  1
 11 13  1  1
 11 14  1  0
 12 15  2  3
 14 16  1  0
 14 17  1  6
 15 18  2  0
 17 19  1  0
M  CHG  2  15   1  18  -1
M  END
$$$$
