
     RDKit          3D

 19 20  0  0  0  0  0  0  0  0999 V2000
  108.2528  -49.4979   42.4129 N   0  0  0  0  0  0  0  0  0  0  0  0
  108.3320  -48.1673   42.5252 C   0  0  0  0  0  0  0  0  0  0  0  0
  109.4708  -47.6494   42.5607 O   0  0  0  0  0  0  0  0  0  0  0  0
  107.2496  -47.3665   42.6012 N   0  0  0  0  0  0  0  0  0  0  0  0
  106.0125  -47.9057   42.5646 C   0  0  0  0  0  0  0  0  0  0  0  0
  104.9980  -47.1527   42.6360 O   0  0  0  0  0  0  0  0  0  0  0  0
  105.8786  -49.2728   42.4496 C   0  0  0  0  0  0  0  0  0  0  0  0
  107.0156  -50.0448   42.3757 C   0  0  0  0  0  0  0  0  0  0  0  0
  109.3768  -50.3859   42.3292 C   0  0  1  0  0  0  0  0  0  0  0  0
  109.5155  -51.1425   43.6283 C   0  0  1  0  0  0  0  0  0  0  0  0
  109.2447  -52.5735   43.1621 C   0  0  2  0  0  0  0  0  0  0  0  0
  110.8905  -51.1078   44.1113 N   0  0  0  0  0  0  0  0  0  0  0  0
  109.8372  -53.5104   43.9527 O   0  0  0  0  0  0  0  0  0  0  0  0
  109.8707  -52.4890   41.7645 C   0  0  2  0  0  0  0  0  0  0  0  0
  111.1339  -51.3229   45.2947 N   0  0  0  0  0  4  0  0  0  0  0  0
  109.3108  -51.2979   41.3107 O   0  0  0  0  0  0  0  0  0  0  0  0
  109.3963  -53.6810   40.9764 C   0  0  0  0  0  0  0  0  0  0  0  0
  111.1831  -51.5371   46.5065 N   0  0  0  0  0  2  0  0  0  0  0  0
  108.0503  -53.9329   41.1666 O   0  0  0  0  0  0  0  0  0  0  0  0
  1  2  1  0
  1  8  1  0
  9  1  1  1
  2  3  2  0
  2  4  1  0
  4  5  1  0
  5  6  2  0
  5  7  1  0
  7  8  2  0
  9 10  1  0
  9 16  1  0
 10 11  1  0
 10 12  1  6
 11 13  1  1
 11 14  1  0
 12 15  2  3
 14 16  1  0
 14 17  1  6
 15 18  2  0
 17 19  1  0
M  CHG  2  15   1  18  -1
M  END
$$$$
