
     RDKit          3D

 19 20  0  0  0  0  0  0  0  0999 V2000
  106.3792  -50.5587   41.3455 N   0  0  0  0  0  0  0  0  0  0  0  0
  105.5304  -49.6344   41.8088 C   0  0  0  0  0  0  0  0  0  0  0  0
  104.3039  -49.8615   41.7056 O   0  0  0  0  0  0  0  0  0  0  0  0
  105.9334  -48.4796   42.3767 N   0  0  0  0  0  0  0  0  0  0  0  0
  107.2519  -48.2159   42.4974 C   0  0  0  0  0  0  0  0  0  0  0  0
  107.6283  -47.1317   43.0306 O   0  0  0  0  0  0  0  0  0  0  0  0
  108.1665  -49.1377   42.0348 C   0  0  0  0  0  0  0  0  0  0  0  0
  107.7023  -50.3006   41.4634 C   0  0  0  0  0  0  0  0  0  0  0  0
  105.9939  -51.7989   40.7352 C   0  0  1  0  0  0  0  0  0  0  0  0
  106.0272  -51.6499   39.2332 C   0  0  1  0  0  0  0  0  0  0  0  0
  107.1445  -52.6281   38.8683 C   0  0  2  0  0  0  0  0  0  0  0  0
  104.8032  -52.1607   38.6282 N   0  0  0  0  0  0  0  0  0  0  0  0
  107.0245  -53.1241   37.6060 O   0  0  0  0  0  0  0  0  0  0  0  0
  106.8960  -53.6851   39.9516 C   0  0  2  0  0  0  0  0  0  0  0  0
  104.4689  -51.7909   37.5069 N   0  0  0  0  0  4  0  0  0  0  0  0
  106.7755  -52.8703   41.0739 O   0  0  0  0  0  0  0  0  0  0  0  0
  108.1117  -54.5710   40.0156 C   0  0  0  0  0  0  0  0  0  0  0  0
  104.2300  -51.2541   36.4244 N   0  0  0  0  0  2  0  0  0  0  0  0
  109.2818  -53.8730   39.7808 O   0  0  0  0  0  0  0  0  0  0  0  0
  1  2  1  0
  1  8  1  0
  9  1  1  1
  2  3  2  0
  2  4  1  0
  4  5  1  0
  5  6  2  0
  5  7  1  0
  7  8  2  0
  9 10  1  0
  9 16  1  0
 10 11  1  0
 10 12  1  6
 11 13  1  6
 11 14  1  0
 12 15  2  3
 14 16  1  0
 14 17  1  1
 15 18  2  0
 17 19  1  0
M  CHG  2  15   1  18  -1
M  END
$$$$
