
     RDKit          3D

 19 20  0  0  0  0  0  0  0  0999 V2000
  106.7942  -50.1994   42.0239 N   0  0  0  0  0  0  0  0  0  0  0  0
  105.9577  -49.2349   42.4243 C   0  0  0  0  0  0  0  0  0  0  0  0
  106.3341  -48.4136   43.2786 O   0  0  0  0  0  0  0  0  0  0  0  0
  104.7200  -49.1300   41.9277 N   0  0  0  0  0  0  0  0  0  0  0  0
  104.2321  -49.9822   40.9957 C   0  0  0  0  0  0  0  0  0  0  0  0
  103.0613  -49.8734   40.5338 O   0  0  0  0  0  0  0  0  0  0  0  0
  105.0590  -50.9845   40.5597 C   0  0  0  0  0  0  0  0  0  0  0  0
  106.3280  -51.0610   41.0946 C   0  0  0  0  0  0  0  0  0  0  0  0
  108.1225  -50.3837   42.4998 C   0  0  1  0  0  0  0  0  0  0  0  0
  108.3498  -51.5563   43.3780 C   0  0  1  0  0  0  0  0  0  0  0  0
  109.2827  -52.4245   42.6017 C   0  0  2  0  0  0  0  0  0  0  0  0
  109.0725  -51.1469   44.5955 N   0  0  0  0  0  0  0  0  0  0  0  0
  110.4065  -52.8114   43.3701 O   0  0  0  0  0  0  0  0  0  0  0  0
  109.7762  -51.5387   41.4946 C   0  0  2  0  0  0  0  0  0  0  0  0
  110.2510  -50.7665   44.4288 N   0  0  0  0  0  4  0  0  0  0  0  0
  108.9622  -50.4536   41.4031 O   0  0  0  0  0  0  0  0  0  0  0  0
  109.8701  -52.2589   40.1676 C   0  0  0  0  0  0  0  0  0  0  0  0
  111.3058  -50.1437   44.3667 N   0  0  0  0  0  2  0  0  0  0  0  0
  109.1328  -53.4129   40.1125 O   0  0  0  0  0  0  0  0  0  0  0  0
  1  2  1  0
  1  8  1  0
  9  1  1  6
  2  3  2  0
  2  4  1  0
  4  5  1  0
  5  6  2  0
  5  7  1  0
  7  8  2  0
  9 10  1  0
  9 16  1  0
 10 11  1  0
 10 12  1  1
 11 13  1  1
 11 14  1  0
 12 15  2  3
 14 16  1  6
 14 17  1  0
 15 18  2  0
 17 19  1  6
M  CHG  2  15   1  18  -1
M  END
$$$$
