
     RDKit          3D

 19 20  0  0  0  0  0  0  0  0999 V2000
  109.0567  -49.9782   41.9274 N   0  0  0  0  0  0  0  0  0  0  0  0
  109.7268  -49.0401   41.2484 C   0  0  0  0  0  0  0  0  0  0  0  0
  110.4184  -49.3697   40.2691 O   0  0  0  0  0  0  0  0  0  0  0  0
  109.6727  -47.7497   41.5969 N   0  0  0  0  0  0  0  0  0  0  0  0
  108.9446  -47.3070   42.6490 C   0  0  0  0  0  0  0  0  0  0  0  0
  108.9010  -46.0856   42.9688 O   0  0  0  0  0  0  0  0  0  0  0  0
  108.2436  -48.2379   43.3702 C   0  0  0  0  0  0  0  0  0  0  0  0
  108.3236  -49.5587   42.9810 C   0  0  0  0  0  0  0  0  0  0  0  0
  109.0598  -51.3690   41.6267 C   0  0  1  0  0  0  0  0  0  0  0  0
  109.6695  -52.2603   42.6425 C   0  0  1  0  0  0  0  0  0  0  0  0
  108.5368  -53.1065   43.1196 C   0  0  2  0  0  0  0  0  0  0  0  0
  110.6351  -53.1727   42.0041 N   0  0  0  0  0  0  0  0  0  0  0  0
  108.8551  -54.4850   43.0815 O   0  0  0  0  0  0  0  0  0  0  0  0
  107.4479  -52.8667   42.1143 C   0  0  2  0  0  0  0  0  0  0  0  0
  111.2438  -53.9477   42.7723 N   0  0  0  0  0  4  0  0  0  0  0  0
  107.7535  -51.7570   41.3907 O   0  0  0  0  0  0  0  0  0  0  0  0
  106.0819  -52.7388   42.7516 C   0  0  0  0  0  0  0  0  0  0  0  0
  111.6698  -54.9067   43.4072 N   0  0  0  0  0  2  0  0  0  0  0  0
  106.0946  -52.0899   43.9587 O   0  0  0  0  0  0  0  0  0  0  0  0
  1  2  1  0
  1  8  1  0
  9  1  1  1
  2  3  2  0
  2  4  1  0
  4  5  1  0
  5  6  2  0
  5  7  1  0
  7  8  2  0
  9 10  1  0
  9 16  1  0
 10 11  1  0
 10 12  1  6
 11 13  1  6
 11 14  1  0
 12 15  2  3
 14 16  1  1
 14 17  1  0
 15 18  2  0
 17 19  1  6
M  CHG  2  15   1  18  -1
M  END
$$$$
