
     RDKit          3D

 19 20  0  0  0  0  0  0  0  0999 V2000
  106.9223  -50.1397   41.8250 N   0  0  0  0  0  0  0  0  0  0  0  0
  106.2795  -49.0594   42.2832 C   0  0  0  0  0  0  0  0  0  0  0  0
  106.9087  -48.1969   42.9205 O   0  0  0  0  0  0  0  0  0  0  0  0
  104.9704  -48.8812   42.0729 N   0  0  0  0  0  0  0  0  0  0  0  0
  104.2124  -49.7710   41.3898 C   0  0  0  0  0  0  0  0  0  0  0  0
  102.9768  -49.5922   41.1973 O   0  0  0  0  0  0  0  0  0  0  0  0
  104.8347  -50.8914   40.9042 C   0  0  0  0  0  0  0  0  0  0  0  0
  106.1853  -51.0407   41.1406 C   0  0  0  0  0  0  0  0  0  0  0  0
  108.3083  -50.4078   42.0043 C   0  0  1  0  0  0  0  0  0  0  0  0
  108.6658  -51.2910   43.1401 C   0  0  1  0  0  0  0  0  0  0  0  0
  109.2584  -52.4998   42.4963 C   0  0  2  0  0  0  0  0  0  0  0  0
  109.7370  -50.6762   43.9444 N   0  0  0  0  0  0  0  0  0  0  0  0
  110.5130  -52.8359   43.0585 O   0  0  0  0  0  0  0  0  0  0  0  0
  109.4984  -52.0807   41.0748 C   0  0  2  0  0  0  0  0  0  0  0  0
  109.8304  -51.0748   45.1250 N   0  0  0  0  0  4  0  0  0  0  0  0
  108.7945  -50.9445   40.8261 O   0  0  0  0  0  0  0  0  0  0  0  0
  109.1479  -53.1641   40.0790 C   0  0  0  0  0  0  0  0  0  0  0  0
  109.7839  -51.2202   46.3419 N   0  0  0  0  0  2  0  0  0  0  0  0
  108.3861  -54.1738   40.6070 O   0  0  0  0  0  0  0  0  0  0  0  0
  1  2  1  0
  1  8  1  0
  9  1  1  6
  2  3  2  0
  2  4  1  0
  4  5  1  0
  5  6  2  0
  5  7  1  0
  7  8  2  0
  9 10  1  0
  9 16  1  0
 10 11  1  0
 10 12  1  1
 11 13  1  1
 11 14  1  0
 12 15  2  3
 14 16  1  6
 14 17  1  0
 15 18  2  0
 17 19  1  6
M  CHG  2  15   1  18  -1
M  END
$$$$
