
     RDKit          3D

 19 20  0  0  0  0  0  0  0  0999 V2000
  107.5045  -50.0083   42.1035 N   0  0  0  0  0  0  0  0  0  0  0  0
  107.3583  -48.7654   42.5758 C   0  0  0  0  0  0  0  0  0  0  0  0
  108.3740  -48.1847   43.0203 O   0  0  0  0  0  0  0  0  0  0  0  0
  106.1765  -48.1162   42.5941 N   0  0  0  0  0  0  0  0  0  0  0  0
  105.0692  -48.7252   42.1191 C   0  0  0  0  0  0  0  0  0  0  0  0
  103.9611  -48.1145   42.1371 O   0  0  0  0  0  0  0  0  0  0  0  0
  105.1686  -50.0069   41.6215 C   0  0  0  0  0  0  0  0  0  0  0  0
  106.3985  -50.6246   41.6258 C   0  0  0  0  0  0  0  0  0  0  0  0
  108.7413  -50.7350   42.0652 C   0  0  1  0  0  0  0  0  0  0  0  0
  108.7927  -51.6983   43.2266 C   0  0  1  0  0  0  0  0  0  0  0  0
  108.7948  -53.0396   42.4923 C   0  0  2  0  0  0  0  0  0  0  0  0
  110.0639  -51.6006   43.9332 N   0  0  0  0  0  0  0  0  0  0  0  0
  109.3900  -54.0346   43.2061 O   0  0  0  0  0  0  0  0  0  0  0  0
  109.6004  -52.6293   41.2533 C   0  0  2  0  0  0  0  0  0  0  0  0
  110.1590  -52.0009   45.0894 N   0  0  0  0  0  4  0  0  0  0  0  0
  108.9524  -51.4447   40.9141 O   0  0  0  0  0  0  0  0  0  0  0  0
  109.4169  -53.7004   40.2112 C   0  0  0  0  0  0  0  0  0  0  0  0
  110.3339  -52.2268   46.2874 N   0  0  0  0  0  2  0  0  0  0  0  0
  108.0954  -54.0857   40.0828 O   0  0  0  0  0  0  0  0  0  0  0  0
  1  2  1  0
  1  8  1  0
  9  1  1  6
  2  3  2  0
  2  4  1  0
  4  5  1  0
  5  6  2  0
  5  7  1  0
  7  8  2  0
  9 10  1  0
  9 16  1  0
 10 11  1  0
 10 12  1  6
 11 13  1  1
 11 14  1  0
 12 15  2  3
 14 16  1  0
 14 17  1  6
 15 18  2  0
 17 19  1  0
M  CHG  2  15   1  18  -1
M  END
$$$$
