
     RDKit          3D

 19 20  0  0  0  0  0  0  0  0999 V2000
  106.4626  -50.7138   42.1121 N   0  0  0  0  0  0  0  0  0  0  0  0
  105.3417  -49.9958   42.2479 C   0  0  0  0  0  0  0  0  0  0  0  0
  105.0187  -49.5715   43.3711 O   0  0  0  0  0  0  0  0  0  0  0  0
  104.5545  -49.7208   41.2018 N   0  0  0  0  0  0  0  0  0  0  0  0
  104.8331  -50.1446   39.9465 C   0  0  0  0  0  0  0  0  0  0  0  0
  104.0822  -49.8787   38.9661 O   0  0  0  0  0  0  0  0  0  0  0  0
  105.9732  -50.8834   39.7662 C   0  0  0  0  0  0  0  0  0  0  0  0
  106.7598  -51.1468   40.8681 C   0  0  0  0  0  0  0  0  0  0  0  0
  107.3537  -51.0524   43.1686 C   0  0  1  0  0  0  0  0  0  0  0  0
  107.9825  -52.3929   43.0944 C   0  0  1  0  0  0  0  0  0  0  0  0
  109.4386  -52.1099   42.9318 C   0  0  2  0  0  0  0  0  0  0  0  0
  107.8327  -53.0963   44.3810 N   0  0  0  0  0  0  0  0  0  0  0  0
  110.2233  -52.8259   43.8670 O   0  0  0  0  0  0  0  0  0  0  0  0
  109.5694  -50.6500   43.2567 C   0  0  2  0  0  0  0  0  0  0  0  0
  108.6982  -53.9613   44.6341 N   0  0  0  0  0  4  0  0  0  0  0  0
  108.3354  -50.0800   43.2261 O   0  0  0  0  0  0  0  0  0  0  0  0
  110.5227  -49.9282   42.3300 C   0  0  0  0  0  0  0  0  0  0  0  0
  109.4951  -54.8933   44.6119 N   0  0  0  0  0  2  0  0  0  0  0  0
  111.8103  -50.3939   42.3908 O   0  0  0  0  0  0  0  0  0  0  0  0
  1  2  1  0
  1  8  1  0
  9  1  1  6
  2  3  2  0
  2  4  1  0
  4  5  1  0
  5  6  2  0
  5  7  1  0
  7  8  2  0
  9 10  1  0
  9 16  1  0
 10 11  1  0
 10 12  1  1
 11 13  1  1
 11 14  1  0
 12 15  2  3
 14 16  1  6
 14 17  1  0
 15 18  2  0
 17 19  1  6
M  CHG  2  15   1  18  -1
M  END
$$$$
