
     RDKit          3D

 19 20  0  0  0  0  0  0  0  0999 V2000
  109.3783  -49.9790   41.4724 N   0  0  0  0  0  0  0  0  0  0  0  0
  108.8930  -48.8400   40.9658 C   0  0  0  0  0  0  0  0  0  0  0  0
  108.3609  -48.0279   41.7556 O   0  0  0  0  0  0  0  0  0  0  0  0
  108.9509  -48.5307   39.6546 N   0  0  0  0  0  0  0  0  0  0  0  0
  109.5209  -49.3934   38.7865 C   0  0  0  0  0  0  0  0  0  0  0  0
  109.5743  -49.1015   37.5564 O   0  0  0  0  0  0  0  0  0  0  0  0
  110.0357  -50.5812   39.2602 C   0  0  0  0  0  0  0  0  0  0  0  0
  109.9509  -50.8482   40.6077 C   0  0  0  0  0  0  0  0  0  0  0  0
  109.3376  -50.3474   42.8587 C   0  0  1  0  0  0  0  0  0  0  0  0
  108.4641  -51.5672   43.0276 C   0  0  1  0  0  0  0  0  0  0  0  0
  109.4890  -52.5946   43.5098 C   0  0  2  0  0  0  0  0  0  0  0  0
  107.5082  -51.3816   44.1124 N   0  0  0  0  0  0  0  0  0  0  0  0
  108.9347  -53.5837   44.2636 O   0  0  0  0  0  0  0  0  0  0  0  0
  110.3949  -51.6609   44.3224 C   0  0  2  0  0  0  0  0  0  0  0  0
  106.4207  -51.9493   44.0797 N   0  0  0  0  0  4  0  0  0  0  0  0
  110.5587  -50.6182   43.4147 O   0  0  0  0  0  0  0  0  0  0  0  0
  111.6831  -52.3921   44.5924 C   0  0  0  0  0  0  0  0  0  0  0  0
  105.3516  -52.5167   43.8516 N   0  0  0  0  0  2  0  0  0  0  0  0
  111.9704  -53.3261   43.6144 O   0  0  0  0  0  0  0  0  0  0  0  0
  1  2  1  0
  1  8  1  0
  9  1  1  6
  2  3  2  0
  2  4  1  0
  4  5  1  0
  5  6  2  0
  5  7  1  0
  7  8  2  0
  9 10  1  0
  9 16  1  0
 10 11  1  0
 10 12  1  1
 11 13  1  1
 11 14  1  0
 12 15  2  3
 14 16  1  0
 14 17  1  6
 15 18  2  0
 17 19  1  0
M  CHG  2  15   1  18  -1
M  END
$$$$
