
     RDKit          3D

 19 20  0  0  0  0  0  0  0  0999 V2000
  108.9590  -49.3339   43.2810 N   0  0  0  0  0  0  0  0  0  0  0  0
  108.0067  -48.4201   43.0613 C   0  0  0  0  0  0  0  0  0  0  0  0
  106.8117  -48.7623   43.0881 O   0  0  0  0  0  0  0  0  0  0  0  0
  108.3074  -47.1407   42.8118 N   0  0  0  0  0  0  0  0  0  0  0  0
  109.5816  -46.6854   42.7647 C   0  0  0  0  0  0  0  0  0  0  0  0
  109.8537  -45.4747   42.5282 O   0  0  0  0  0  0  0  0  0  0  0  0
  110.5860  -47.5915   42.9847 C   0  0  0  0  0  0  0  0  0  0  0  0
  110.2375  -48.9016   43.2387 C   0  0  0  0  0  0  0  0  0  0  0  0
  108.7278  -50.7117   43.5515 C   0  0  1  0  0  0  0  0  0  0  0  0
  109.3266  -51.6782   42.6002 C   0  0  1  0  0  0  0  0  0  0  0  0
  110.3221  -52.4325   43.4167 C   0  0  2  0  0  0  0  0  0  0  0  0
  108.3137  -52.6564   42.1645 N   0  0  0  0  0  0  0  0  0  0  0  0
  110.1621  -53.8324   43.2835 O   0  0  0  0  0  0  0  0  0  0  0  0
  109.9852  -52.0725   44.8346 C   0  0  2  0  0  0  0  0  0  0  0  0
  108.5175  -53.1964   41.0563 N   0  0  0  0  0  4  0  0  0  0  0  0
  109.1805  -50.9766   44.8312 O   0  0  0  0  0  0  0  0  0  0  0  0
  111.2136  -51.8400   45.6863 C   0  0  0  0  0  0  0  0  0  0  0  0
  108.5115  -53.5454   39.8805 N   0  0  0  0  0  2  0  0  0  0  0  0
  112.3813  -52.2422   45.0922 O   0  0  0  0  0  0  0  0  0  0  0  0
  1  2  1  0
  1  8  1  0
  9  1  1  6
  2  3  2  0
  2  4  1  0
  4  5  1  0
  5  6  2  0
  5  7  1  0
  7  8  2  0
  9 10  1  0
  9 16  1  0
 10 11  1  0
 10 12  1  1
 11 13  1  1
 11 14  1  0
 12 15  2  3
 14 16  1  6
 14 17  1  0
 15 18  2  0
 17 19  1  6
M  CHG  2  15   1  18  -1
M  END
$$$$
