
     RDKit          3D

 26 29  0  0  0  0  0  0  0  0999 V2000
  -66.4395   36.9013  -21.2313 C   0  0  0  0  0  0  0  0  0  0  0  0
  -62.2639   31.0002  -28.4511 C   0  0  0  0  0  0  0  0  0  0  0  0
  -61.4547   31.4947  -30.6299 C   0  0  0  0  0  0  0  0  0  0  0  0
  -61.5865   30.1541  -30.9580 C   0  0  0  0  0  0  0  0  0  0  0  0
  -62.0495   29.2299  -30.0574 C   0  0  0  0  0  0  0  0  0  0  0  0
  -64.8062   36.0110  -22.8705 C   0  0  0  0  0  0  0  0  0  0  0  0
  -64.0312   33.7653  -22.8522 C   0  0  0  0  0  0  0  0  0  0  0  0
  -64.8409   33.5363  -21.7422 C   0  0  0  0  0  0  0  0  0  0  0  0
  -65.6090   34.5509  -21.2294 C   0  0  0  0  0  0  0  0  0  0  0  0
  -63.2386   32.6489  -23.3525 C   0  0  0  0  0  0  0  0  0  0  0  0
  -62.6228   31.3826  -27.1547 C   0  0  0  0  0  0  0  0  0  0  0  0
  -62.5377   32.7945  -26.7055 C   0  0  0  0  0  0  0  0  0  0  0  0
  -63.0741   30.3854  -26.3192 C   0  0  0  0  0  0  0  0  0  0  0  0
  -65.6299   35.8215  -21.7612 C   0  0  0  0  0  0  0  0  0  0  0  0
  -63.4554   30.7070  -24.9289 C   0  0  0  0  0  0  0  0  0  0  0  0
  -63.7256   33.0110  -25.7396 C   0  0  0  0  0  0  0  0  0  0  0  0
  -66.3203   38.1820  -21.7334 O   0  0  0  0  0  0  0  0  0  0  0  0
  -67.2560   36.6839  -20.3125 O   0  0  0  0  0  0  0  0  0  0  0  0
  -64.0314   35.0176  -23.4005 C   0  0  0  0  0  0  0  0  0  0  0  0
  -62.3413   32.1480  -22.6356 O   0  0  0  0  0  0  0  0  0  0  0  0
  -63.4673   32.1211  -24.6389 N   0  0  0  0  0  0  0  0  0  0  0  0
  -63.1819   29.0471  -26.7167 C   0  0  0  0  0  0  0  0  0  0  0  0
  -63.6028   28.1634  -25.9147 O   0  0  0  0  0  0  0  0  0  0  0  0
  -62.8347   28.7434  -27.9383 O   0  0  0  0  0  0  0  0  0  0  0  0
  -62.3937   29.6450  -28.7904 C   0  0  0  0  0  0  0  0  0  0  0  0
  -61.8011   31.9158  -29.3537 C   0  0  0  0  0  0  0  0  0  0  0  0
 14  1  1  0
  1 17  1  0
  1 18  2  0
 11  2  1  0
  2 25  1  0
  2 26  2  0
  3  4  2  0
 26  3  1  0
  5  4  1  0
 25  5  2  0
  6 14  2  0
 19  6  1  0
  7  8  1  0
 10  7  1  0
  7 19  2  0
  8  9  2  0
  9 14  1  0
 10 20  2  0
 21 10  1  0
 11 12  1  0
 13 11  2  0
 12 16  1  0
 15 13  1  0
 13 22  1  0
 15 21  1  0
 16 21  1  0
 22 23  2  0
 22 24  1  0
 24 25  1  0
M  END
$$$$
