
     RDKit          3D

 26 29  0  0  0  0  0  0  0  0999 V2000
  -65.7513   35.8534  -20.4458 C   0  0  0  0  0  0  0  0  0  0  0  0
  -61.8969   31.1303  -28.7809 C   0  0  0  0  0  0  0  0  0  0  0  0
  -61.6221   31.8067  -31.0964 C   0  0  0  0  0  0  0  0  0  0  0  0
  -61.6000   30.4700  -31.4265 C   0  0  0  0  0  0  0  0  0  0  0  0
  -61.7209   29.4804  -30.4774 C   0  0  0  0  0  0  0  0  0  0  0  0
  -64.7326   35.1301  -22.5898 C   0  0  0  0  0  0  0  0  0  0  0  0
  -64.7262   32.8229  -23.2539 C   0  0  0  0  0  0  0  0  0  0  0  0
  -65.3931   32.5285  -22.0701 C   0  0  0  0  0  0  0  0  0  0  0  0
  -65.7238   33.5088  -21.1649 C   0  0  0  0  0  0  0  0  0  0  0  0
  -64.4081   31.7309  -24.1577 C   0  0  0  0  0  0  0  0  0  0  0  0
  -62.0446   31.4141  -27.4635 C   0  0  0  0  0  0  0  0  0  0  0  0
  -62.0968   32.8058  -26.9628 C   0  0  0  0  0  0  0  0  0  0  0  0
  -62.1618   30.3630  -26.5392 C   0  0  0  0  0  0  0  0  0  0  0  0
  -65.3937   34.8228  -21.4206 C   0  0  0  0  0  0  0  0  0  0  0  0
  -62.3105   30.7726  -25.1218 C   0  0  0  0  0  0  0  0  0  0  0  0
  -63.3371   32.8580  -26.0490 C   0  0  0  0  0  0  0  0  0  0  0  0
  -65.3066   37.1534  -20.6291 O   0  0  0  0  0  0  0  0  0  0  0  0
  -66.4518   35.5607  -19.4577 O   0  0  0  0  0  0  0  0  0  0  0  0
  -64.4052   34.1422  -23.4910 C   0  0  0  0  0  0  0  0  0  0  0  0
  -65.1359   30.7052  -24.0577 O   0  0  0  0  0  0  0  0  0  0  0  0
  -63.3605   31.7814  -25.0985 N   0  0  0  0  0  0  0  0  0  0  0  0
  -62.1282   29.0618  -26.9658 C   0  0  0  0  0  0  0  0  0  0  0  0
  -62.2375   28.1250  -26.1027 O   0  0  0  0  0  0  0  0  0  0  0  0
  -61.9851   28.8103  -28.2435 O   0  0  0  0  0  0  0  0  0  0  0  0
  -61.8709   29.7781  -29.1435 C   0  0  0  0  0  0  0  0  0  0  0  0
  -61.7753   32.1086  -29.7351 C   0  0  0  0  0  0  0  0  0  0  0  0
 14  1  1  0
  1 17  1  0
  1 18  2  0
 11  2  1  0
  2 25  1  0
  2 26  2  0
  3  4  2  0
 26  3  1  0
  5  4  1  0
 25  5  2  0
  6 14  2  0
 19  6  1  0
  7  8  1  0
 10  7  1  0
  7 19  2  0
  8  9  2  0
  9 14  1  0
 10 20  2  0
 21 10  1  0
 12 11  1  1
 13 11  2  0
 12 16  1  0
 15 13  1  0
 13 22  1  0
 15 21  1  6
 16 21  1  6
 22 23  2  0
 22 24  1  0
 24 25  1  0
M  END
$$$$
