
     RDKit          3D

 26 29  0  0  0  0  0  0  0  0999 V2000
  -66.3413   36.2686  -21.2448 C   0  0  0  0  0  0  0  0  0  0  0  0
  -62.1864   31.2693  -28.8609 C   0  0  0  0  0  0  0  0  0  0  0  0
  -61.8974   32.0562  -31.1394 C   0  0  0  0  0  0  0  0  0  0  0  0
  -61.8987   30.7376  -31.5362 C   0  0  0  0  0  0  0  0  0  0  0  0
  -62.0381   29.7039  -30.6380 C   0  0  0  0  0  0  0  0  0  0  0  0
  -66.3323   33.8112  -21.5888 C   0  0  0  0  0  0  0  0  0  0  0  0
  -65.1397   32.8102  -23.4163 C   0  0  0  0  0  0  0  0  0  0  0  0
  -64.7471   34.0878  -23.7990 C   0  0  0  0  0  0  0  0  0  0  0  0
  -65.1358   35.2033  -23.0959 C   0  0  0  0  0  0  0  0  0  0  0  0
  -64.6912   31.6816  -24.2135 C   0  0  0  0  0  0  0  0  0  0  0  0
  -62.3304   31.4893  -27.5308 C   0  0  0  0  0  0  0  0  0  0  0  0
  -62.3583   32.8547  -26.9609 C   0  0  0  0  0  0  0  0  0  0  0  0
  -62.4671   30.3953  -26.6605 C   0  0  0  0  0  0  0  0  0  0  0  0
  -65.9352   35.0710  -21.9804 C   0  0  0  0  0  0  0  0  0  0  0  0
  -62.6099   30.7358  -25.2244 C   0  0  0  0  0  0  0  0  0  0  0  0
  -63.5984   32.8830  -26.0458 C   0  0  0  0  0  0  0  0  0  0  0  0
  -65.7705   37.4921  -21.5590 O   0  0  0  0  0  0  0  0  0  0  0  0
  -67.1956   36.1855  -20.3415 O   0  0  0  0  0  0  0  0  0  0  0  0
  -65.9386   32.6992  -22.2985 C   0  0  0  0  0  0  0  0  0  0  0  0
  -65.3038   30.5955  -24.0218 O   0  0  0  0  0  0  0  0  0  0  0  0
  -63.6419   31.7606  -25.1505 N   0  0  0  0  0  0  0  0  0  0  0  0
  -62.4562   29.1168  -27.1520 C   0  0  0  0  0  0  0  0  0  0  0  0
  -62.5830   28.1399  -26.3370 O   0  0  0  0  0  0  0  0  0  0  0  0
  -62.3164   28.9272  -28.4407 O   0  0  0  0  0  0  0  0  0  0  0  0
  -62.1841   29.9369  -29.2909 C   0  0  0  0  0  0  0  0  0  0  0  0
  -62.0465   32.2920  -29.7646 C   0  0  0  0  0  0  0  0  0  0  0  0
 14  1  1  0
  1 17  1  0
  1 18  2  0
 11  2  1  0
  2 25  1  0
  2 26  2  0
  3  4  2  0
 26  3  1  0
  5  4  1  0
 25  5  2  0
  6 14  2  0
 19  6  1  0
  7  8  1  0
 10  7  1  0
  7 19  2  0
  8  9  2  0
  9 14  1  0
 10 20  2  0
 21 10  1  0
 12 11  1  1
 13 11  2  0
 12 16  1  0
 15 13  1  0
 13 22  1  0
 15 21  1  6
 16 21  1  6
 22 23  2  0
 22 24  1  0
 24 25  1  0
M  END
$$$$
