
     RDKit          3D

 26 29  0  0  0  0  0  0  0  0999 V2000
  -63.3201   30.7823  -33.0030 C   0  0  0  0  0  0  0  0  0  0  0  0
  -64.7476   32.6860  -24.0596 C   0  0  0  0  0  0  0  0  0  0  0  0
  -66.1817   33.6922  -22.4542 C   0  0  0  0  0  0  0  0  0  0  0  0
  -66.6211   32.4289  -22.0891 C   0  0  0  0  0  0  0  0  0  0  0  0
  -66.1425   31.2936  -22.6901 C   0  0  0  0  0  0  0  0  0  0  0  0
  -61.5827   31.0524  -31.2548 C   0  0  0  0  0  0  0  0  0  0  0  0
  -61.7699   32.5932  -29.4563 C   0  0  0  0  0  0  0  0  0  0  0  0
  -63.0051   32.9819  -29.9694 C   0  0  0  0  0  0  0  0  0  0  0  0
  -63.4925   32.3945  -31.1095 C   0  0  0  0  0  0  0  0  0  0  0  0
  -61.3049   33.2520  -28.2419 C   0  0  0  0  0  0  0  0  0  0  0  0
  -63.7885   32.7642  -25.0744 C   0  0  0  0  0  0  0  0  0  0  0  0
  -63.2371   34.0650  -25.5288 C   0  0  0  0  0  0  0  0  0  0  0  0
  -63.3694   31.5720  -25.6213 C   0  0  0  0  0  0  0  0  0  0  0  0
  -62.8148   31.4135  -31.7994 C   0  0  0  0  0  0  0  0  0  0  0  0
  -62.3715   31.5728  -26.7104 C   0  0  0  0  0  0  0  0  0  0  0  0
  -61.7551   33.8034  -25.8841 C   0  0  0  0  0  0  0  0  0  0  0  0
  -64.4990   31.2105  -33.5803 O   0  0  0  0  0  0  0  0  0  0  0  0
  -62.6924   29.8420  -33.5322 O   0  0  0  0  0  0  0  0  0  0  0  0
  -61.0747   31.6218  -30.1210 C   0  0  0  0  0  0  0  0  0  0  0  0
  -60.4530   34.1680  -28.3143 O   0  0  0  0  0  0  0  0  0  0  0  0
  -61.8017   32.8716  -26.9793 N   0  0  0  0  0  0  0  0  0  0  0  0
  -63.8572   30.3275  -25.2042 C   0  0  0  0  0  0  0  0  0  0  0  0
  -63.4425   29.2564  -25.7352 O   0  0  0  0  0  0  0  0  0  0  0  0
  -64.7510   30.3102  -24.2524 O   0  0  0  0  0  0  0  0  0  0  0  0
  -65.1979   31.4111  -23.6851 C   0  0  0  0  0  0  0  0  0  0  0  0
  -65.2296   33.8135  -23.4565 C   0  0  0  0  0  0  0  0  0  0  0  0
 14  1  1  0
  1 17  1  0
  1 18  2  0
 11  2  1  0
  2 25  1  0
  2 26  2  0
  3  4  2  0
 26  3  1  0
  5  4  1  0
 25  5  2  0
  6 14  2  0
 19  6  1  0
  7  8  1  0
 10  7  1  0
  7 19  2  0
  8  9  2  0
  9 14  1  0
 10 20  2  0
 21 10  1  0
 11 12  1  0
 13 11  2  0
 12 16  1  0
 15 13  1  0
 13 22  1  0
 15 21  1  0
 16 21  1  0
 22 23  2  0
 22 24  1  0
 24 25  1  0
M  END
$$$$
