
     RDKit          3D

 26 29  0  0  0  0  0  0  0  0999 V2000
  -60.5762   31.0127  -32.5266 C   0  0  0  0  0  0  0  0  0  0  0  0
  -64.4064   33.6542  -23.3326 C   0  0  0  0  0  0  0  0  0  0  0  0
  -63.8722   35.4571  -21.7968 C   0  0  0  0  0  0  0  0  0  0  0  0
  -64.3906   34.6767  -20.7876 C   0  0  0  0  0  0  0  0  0  0  0  0
  -64.9053   33.4222  -21.0244 C   0  0  0  0  0  0  0  0  0  0  0  0
  -62.2110   31.7694  -30.8201 C   0  0  0  0  0  0  0  0  0  0  0  0
  -62.3573   30.7061  -28.6726 C   0  0  0  0  0  0  0  0  0  0  0  0
  -61.3332   29.8565  -29.0753 C   0  0  0  0  0  0  0  0  0  0  0  0
  -60.7590   29.9576  -30.3202 C   0  0  0  0  0  0  0  0  0  0  0  0
  -62.9156   30.5334  -27.3425 C   0  0  0  0  0  0  0  0  0  0  0  0
  -64.4334   33.1127  -24.5753 C   0  0  0  0  0  0  0  0  0  0  0  0
  -63.9011   33.8309  -25.7547 C   0  0  0  0  0  0  0  0  0  0  0  0
  -64.9723   31.8285  -24.7578 C   0  0  0  0  0  0  0  0  0  0  0  0
  -61.1968   30.9200  -31.2050 C   0  0  0  0  0  0  0  0  0  0  0  0
  -64.9661   31.3257  -26.1527 C   0  0  0  0  0  0  0  0  0  0  0  0
  -62.9800   32.8166  -26.4610 C   0  0  0  0  0  0  0  0  0  0  0  0
  -61.1193   31.8590  -33.4806 O   0  0  0  0  0  0  0  0  0  0  0  0
  -59.5652   30.3334  -32.7896 O   0  0  0  0  0  0  0  0  0  0  0  0
  -62.7807   31.6614  -29.5715 C   0  0  0  0  0  0  0  0  0  0  0  0
  -62.7364   29.4017  -26.8142 O   0  0  0  0  0  0  0  0  0  0  0  0
  -63.6177   31.5447  -26.6574 N   0  0  0  0  0  0  0  0  0  0  0  0
  -65.4654   31.1287  -23.6885 C   0  0  0  0  0  0  0  0  0  0  0  0
  -65.9497   29.9616  -23.8835 O   0  0  0  0  0  0  0  0  0  0  0  0
  -65.4289   31.6707  -22.4964 O   0  0  0  0  0  0  0  0  0  0  0  0
  -64.9279   32.8813  -22.2881 C   0  0  0  0  0  0  0  0  0  0  0  0
  -63.8960   34.9035  -23.0855 C   0  0  0  0  0  0  0  0  0  0  0  0
 14  1  1  0
  1 17  1  0
  1 18  2  0
 11  2  1  0
  2 25  1  0
  2 26  2  0
  3  4  2  0
 26  3  1  0
  5  4  1  0
 25  5  2  0
  6 14  2  0
 19  6  1  0
  7  8  1  0
 10  7  1  0
  7 19  2  0
  8  9  2  0
  9 14  1  0
 10 20  2  0
 21 10  1  0
 12 11  1  1
 13 11  2  0
 12 16  1  0
 15 13  1  0
 13 22  1  0
 15 21  1  6
 16 21  1  6
 22 23  2  0
 22 24  1  0
 24 25  1  0
M  END
$$$$
