
     RDKit          3D

 26 29  0  0  0  0  0  0  0  0999 V2000
  -67.6202   31.6169  -20.9168 C   0  0  0  0  0  0  0  0  0  0  0  0
  -62.4794   32.6342  -28.8493 C   0  0  0  0  0  0  0  0  0  0  0  0
  -63.2246   31.4364  -30.8252 C   0  0  0  0  0  0  0  0  0  0  0  0
  -61.9030   31.1449  -31.0792 C   0  0  0  0  0  0  0  0  0  0  0  0
  -60.8878   31.5760  -30.2557 C   0  0  0  0  0  0  0  0  0  0  0  0
  -65.6903   33.1716  -21.0421 C   0  0  0  0  0  0  0  0  0  0  0  0
  -64.2151   33.1811  -22.9362 C   0  0  0  0  0  0  0  0  0  0  0  0
  -64.9896   32.1658  -23.4858 C   0  0  0  0  0  0  0  0  0  0  0  0
  -66.0892   31.6625  -22.8322 C   0  0  0  0  0  0  0  0  0  0  0  0
  -63.0658   33.6568  -23.6867 C   0  0  0  0  0  0  0  0  0  0  0  0
  -62.7216   33.3726  -27.7383 C   0  0  0  0  0  0  0  0  0  0  0  0
  -64.0934   33.7527  -27.3338 C   0  0  0  0  0  0  0  0  0  0  0  0
  -61.6457   33.7863  -26.9356 C   0  0  0  0  0  0  0  0  0  0  0  0
  -66.4482   32.1651  -21.5996 C   0  0  0  0  0  0  0  0  0  0  0  0
  -62.0095   34.5964  -25.7482 C   0  0  0  0  0  0  0  0  0  0  0  0
  -64.1919   33.3753  -25.8425 C   0  0  0  0  0  0  0  0  0  0  0  0
  -68.4930   30.7921  -21.6092 O   0  0  0  0  0  0  0  0  0  0  0  0
  -67.8295   31.8919  -19.7196 O   0  0  0  0  0  0  0  0  0  0  0  0
  -64.5905   33.6700  -21.7033 C   0  0  0  0  0  0  0  0  0  0  0  0
  -62.0202   33.8703  -23.0137 O   0  0  0  0  0  0  0  0  0  0  0  0
  -63.0834   33.8760  -25.0784 N   0  0  0  0  0  0  0  0  0  0  0  0
  -60.3624   33.4454  -27.2722 C   0  0  0  0  0  0  0  0  0  0  0  0
  -59.4024   33.8351  -26.5232 O   0  0  0  0  0  0  0  0  0  0  0  0
  -60.1512   32.7309  -28.3497 O   0  0  0  0  0  0  0  0  0  0  0  0
  -61.1434   32.3240  -29.1307 C   0  0  0  0  0  0  0  0  0  0  0  0
  -63.4834   32.1997  -29.6771 C   0  0  0  0  0  0  0  0  0  0  0  0
 14  1  1  0
  1 17  1  0
  1 18  2  0
 11  2  1  0
  2 25  1  0
  2 26  2  0
  3  4  2  0
 26  3  1  0
  5  4  1  0
 25  5  2  0
  6 14  2  0
 19  6  1  0
  7  8  1  0
 10  7  1  0
  7 19  2  0
  8  9  2  0
  9 14  1  0
 10 20  2  0
 21 10  1  0
 12 11  1  1
 13 11  2  0
 12 16  1  0
 15 13  1  0
 13 22  1  0
 15 21  1  6
 16 21  1  6
 22 23  2  0
 22 24  1  0
 24 25  1  0
M  END
$$$$
