
     RDKit          3D

 26 29  0  0  0  0  0  0  0  0999 V2000
  -62.8700   34.0551  -33.6220 C   0  0  0  0  0  0  0  0  0  0  0  0
  -64.1935   31.7355  -23.8643 C   0  0  0  0  0  0  0  0  0  0  0  0
  -64.8172   33.1676  -22.0057 C   0  0  0  0  0  0  0  0  0  0  0  0
  -64.2316   32.2437  -21.1693 C   0  0  0  0  0  0  0  0  0  0  0  0
  -63.6409   31.0959  -21.6471 C   0  0  0  0  0  0  0  0  0  0  0  0
  -61.9904   32.1046  -32.3653 C   0  0  0  0  0  0  0  0  0  0  0  0
  -62.2715   31.9204  -29.9881 C   0  0  0  0  0  0  0  0  0  0  0  0
  -62.9431   33.1373  -30.0201 C   0  0  0  0  0  0  0  0  0  0  0  0
  -63.1358   33.8248  -31.1948 C   0  0  0  0  0  0  0  0  0  0  0  0
  -62.1044   31.2568  -28.7066 C   0  0  0  0  0  0  0  0  0  0  0  0
  -64.1540   31.4469  -25.1884 C   0  0  0  0  0  0  0  0  0  0  0  0
  -64.7332   32.3525  -26.2055 C   0  0  0  0  0  0  0  0  0  0  0  0
  -63.5389   30.2595  -25.6186 C   0  0  0  0  0  0  0  0  0  0  0  0
  -62.6580   33.3097  -32.3811 C   0  0  0  0  0  0  0  0  0  0  0  0
  -63.5535   30.0272  -27.0830 C   0  0  0  0  0  0  0  0  0  0  0  0
  -63.6295   32.5217  -27.2682 C   0  0  0  0  0  0  0  0  0  0  0  0
  -63.6136   35.2247  -33.6000 O   0  0  0  0  0  0  0  0  0  0  0  0
  -62.3835   33.6380  -34.6906 O   0  0  0  0  0  0  0  0  0  0  0  0
  -61.8017   31.4226  -31.1845 C   0  0  0  0  0  0  0  0  0  0  0  0
  -61.0071   30.6576  -28.5372 O   0  0  0  0  0  0  0  0  0  0  0  0
  -63.0851   31.2628  -27.6950 N   0  0  0  0  0  0  0  0  0  0  0  0
  -62.9827   29.4011  -24.7076 C   0  0  0  0  0  0  0  0  0  0  0  0
  -62.4291   28.3278  -25.1272 O   0  0  0  0  0  0  0  0  0  0  0  0
  -63.0318   29.7000  -23.4330 O   0  0  0  0  0  0  0  0  0  0  0  0
  -63.6052   30.8120  -22.9918 C   0  0  0  0  0  0  0  0  0  0  0  0
  -64.7798   32.8763  -23.3774 C   0  0  0  0  0  0  0  0  0  0  0  0
 14  1  1  0
  1 17  1  0
  1 18  2  0
 11  2  1  0
  2 25  1  0
  2 26  2  0
  3  4  2  0
 26  3  1  0
  5  4  1  0
 25  5  2  0
  6 14  2  0
 19  6  1  0
  7  8  1  0
 10  7  1  0
  7 19  2  0
  8  9  2  0
  9 14  1  0
 10 20  2  0
 21 10  1  0
 12 11  1  1
 13 11  2  0
 12 16  1  0
 15 13  1  0
 13 22  1  0
 15 21  1  6
 16 21  1  6
 22 23  2  0
 22 24  1  0
 24 25  1  0
M  END
$$$$
