
     RDKit          3D

 26 29  0  0  0  0  0  0  0  0999 V2000
  -69.0303   34.9606  -20.3876 C   0  0  0  0  0  0  0  0  0  0  0  0
  -62.5712   32.8402  -27.3613 C   0  0  0  0  0  0  0  0  0  0  0  0
  -62.7339   33.8503  -29.5630 C   0  0  0  0  0  0  0  0  0  0  0  0
  -62.2515   32.6687  -30.0799 C   0  0  0  0  0  0  0  0  0  0  0  0
  -61.9332   31.5959  -29.2785 C   0  0  0  0  0  0  0  0  0  0  0  0
  -68.1846   32.8475  -21.3759 C   0  0  0  0  0  0  0  0  0  0  0  0
  -65.8982   32.6217  -22.0727 C   0  0  0  0  0  0  0  0  0  0  0  0
  -65.6905   33.9316  -21.6558 C   0  0  0  0  0  0  0  0  0  0  0  0
  -66.7032   34.6850  -21.1113 C   0  0  0  0  0  0  0  0  0  0  0  0
  -64.7785   31.8920  -22.6421 C   0  0  0  0  0  0  0  0  0  0  0  0
  -62.7140   32.8842  -26.0137 C   0  0  0  0  0  0  0  0  0  0  0  0
  -63.2316   34.0842  -25.3195 C   0  0  0  0  0  0  0  0  0  0  0  0
  -62.3717   31.7591  -25.2456 C   0  0  0  0  0  0  0  0  0  0  0  0
  -67.9634   34.1445  -20.9673 C   0  0  0  0  0  0  0  0  0  0  0  0
  -62.5537   31.9062  -23.7814 C   0  0  0  0  0  0  0  0  0  0  0  0
  -64.3345   33.5598  -24.3788 C   0  0  0  0  0  0  0  0  0  0  0  0
  -70.3126   34.4434  -20.2907 O   0  0  0  0  0  0  0  0  0  0  0  0
  -68.7841   36.1136  -19.9844 O   0  0  0  0  0  0  0  0  0  0  0  0
  -67.1648   32.0999  -21.9202 C   0  0  0  0  0  0  0  0  0  0  0  0
  -64.6314   30.7067  -22.2356 O   0  0  0  0  0  0  0  0  0  0  0  0
  -63.8940   32.4428  -23.5905 N   0  0  0  0  0  0  0  0  0  0  0  0
  -61.8986   30.6264  -25.8534 C   0  0  0  0  0  0  0  0  0  0  0  0
  -61.5952   29.6170  -25.1298 O   0  0  0  0  0  0  0  0  0  0  0  0
  -61.7690   30.6055  -27.1569 O   0  0  0  0  0  0  0  0  0  0  0  0
  -62.0819   31.6498  -27.9127 C   0  0  0  0  0  0  0  0  0  0  0  0
  -62.8850   33.9035  -28.1694 C   0  0  0  0  0  0  0  0  0  0  0  0
 14  1  1  0
  1 17  1  0
  1 18  2  0
 11  2  1  0
  2 25  1  0
  2 26  2  0
  3  4  2  0
 26  3  1  0
  5  4  1  0
 25  5  2  0
  6 14  2  0
 19  6  1  0
  7  8  1  0
 10  7  1  0
  7 19  2  0
  8  9  2  0
  9 14  1  0
 10 20  2  0
 21 10  1  0
 12 11  1  1
 13 11  2  0
 12 16  1  0
 15 13  1  0
 13 22  1  0
 15 21  1  6
 16 21  1  6
 22 23  2  0
 22 24  1  0
 24 25  1  0
M  END
$$$$
