
     RDKit          3D

 26 29  0  0  0  0  0  0  0  0999 V2000
  -66.2390   34.0980  -19.4666 C   0  0  0  0  0  0  0  0  0  0  0  0
  -63.4574   33.6845  -28.8540 C   0  0  0  0  0  0  0  0  0  0  0  0
  -64.2888   35.2522  -30.5109 C   0  0  0  0  0  0  0  0  0  0  0  0
  -64.2065   34.2342  -31.4345 C   0  0  0  0  0  0  0  0  0  0  0  0
  -63.7657   32.9746  -31.0971 C   0  0  0  0  0  0  0  0  0  0  0  0
  -66.3344   32.4533  -21.3222 C   0  0  0  0  0  0  0  0  0  0  0  0
  -64.5054   32.1927  -22.8554 C   0  0  0  0  0  0  0  0  0  0  0  0
  -63.8328   33.1833  -22.1489 C   0  0  0  0  0  0  0  0  0  0  0  0
  -64.3943   33.7969  -21.0544 C   0  0  0  0  0  0  0  0  0  0  0  0
  -63.8467   31.5948  -24.0039 C   0  0  0  0  0  0  0  0  0  0  0  0
  -63.0774   33.3721  -27.5906 C   0  0  0  0  0  0  0  0  0  0  0  0
  -63.1231   34.3618  -26.4912 C   0  0  0  0  0  0  0  0  0  0  0  0
  -62.6344   32.0702  -27.3044 C   0  0  0  0  0  0  0  0  0  0  0  0
  -65.6554   33.4337  -20.6321 C   0  0  0  0  0  0  0  0  0  0  0  0
  -62.2322   31.8274  -25.8980 C   0  0  0  0  0  0  0  0  0  0  0  0
  -63.8554   33.6479  -25.3379 C   0  0  0  0  0  0  0  0  0  0  0  0
  -65.4247   34.8285  -18.6153 O   0  0  0  0  0  0  0  0  0  0  0  0
  -67.4615   34.0057  -19.2435 O   0  0  0  0  0  0  0  0  0  0  0  0
  -65.7649   31.8438  -22.4173 C   0  0  0  0  0  0  0  0  0  0  0  0
  -63.7727   30.3353  -24.0007 O   0  0  0  0  0  0  0  0  0  0  0  0
  -63.3136   32.3446  -25.0711 N   0  0  0  0  0  0  0  0  0  0  0  0
  -62.5878   31.1239  -28.2936 C   0  0  0  0  0  0  0  0  0  0  0  0
  -62.1808   29.9469  -28.0048 O   0  0  0  0  0  0  0  0  0  0  0  0
  -62.9601   31.4474  -29.5073 O   0  0  0  0  0  0  0  0  0  0  0  0
  -63.3830   32.6671  -29.8129 C   0  0  0  0  0  0  0  0  0  0  0  0
  -63.8980   34.9365  -29.2012 C   0  0  0  0  0  0  0  0  0  0  0  0
 14  1  1  0
  1 17  1  0
  1 18  2  0
 11  2  1  0
  2 25  1  0
  2 26  2  0
  3  4  2  0
 26  3  1  0
  5  4  1  0
 25  5  2  0
  6 14  2  0
 19  6  1  0
  7  8  1  0
 10  7  1  0
  7 19  2  0
  8  9  2  0
  9 14  1  0
 10 20  2  0
 21 10  1  0
 12 11  1  1
 13 11  2  0
 12 16  1  0
 15 13  1  0
 13 22  1  0
 15 21  1  6
 16 21  1  6
 22 23  2  0
 22 24  1  0
 24 25  1  0
M  END
$$$$
