
     RDKit          3D

 26 29  0  0  0  0  0  0  0  0999 V2000
  -65.6946   34.4870  -20.2009 C   0  0  0  0  0  0  0  0  0  0  0  0
  -61.9131   31.1220  -29.3342 C   0  0  0  0  0  0  0  0  0  0  0  0
  -61.7841   31.8893  -31.6339 C   0  0  0  0  0  0  0  0  0  0  0  0
  -61.5395   30.5838  -31.9976 C   0  0  0  0  0  0  0  0  0  0  0  0
  -61.4798   29.5661  -31.0727 C   0  0  0  0  0  0  0  0  0  0  0  0
  -64.0408   33.5719  -21.8087 C   0  0  0  0  0  0  0  0  0  0  0  0
  -64.6954   32.0403  -23.5378 C   0  0  0  0  0  0  0  0  0  0  0  0
  -65.9980   32.1309  -23.0605 C   0  0  0  0  0  0  0  0  0  0  0  0
  -66.3186   32.9221  -21.9831 C   0  0  0  0  0  0  0  0  0  0  0  0
  -64.4357   31.1791  -24.6786 C   0  0  0  0  0  0  0  0  0  0  0  0
  -62.0915   31.3457  -28.0089 C   0  0  0  0  0  0  0  0  0  0  0  0
  -62.3730   32.6962  -27.4732 C   0  0  0  0  0  0  0  0  0  0  0  0
  -62.0180   30.2685  -27.1104 C   0  0  0  0  0  0  0  0  0  0  0  0
  -65.3366   33.6515  -21.3472 C   0  0  0  0  0  0  0  0  0  0  0  0
  -62.2174   30.6137  -25.6822 C   0  0  0  0  0  0  0  0  0  0  0  0
  -63.5934   32.5156  -26.5491 C   0  0  0  0  0  0  0  0  0  0  0  0
  -67.0303   34.7248  -19.9171 O   0  0  0  0  0  0  0  0  0  0  0  0
  -64.8012   34.9805  -19.4859 O   0  0  0  0  0  0  0  0  0  0  0  0
  -63.7283   32.7771  -22.8884 C   0  0  0  0  0  0  0  0  0  0  0  0
  -65.1822   30.1675  -24.7844 O   0  0  0  0  0  0  0  0  0  0  0  0
  -63.4229   31.4287  -25.6257 N   0  0  0  0  0  0  0  0  0  0  0  0
  -61.7692   29.0023  -27.5698 C   0  0  0  0  0  0  0  0  0  0  0  0
  -61.7080   28.0406  -26.7296 O   0  0  0  0  0  0  0  0  0  0  0  0
  -61.6005   28.8087  -28.8544 O   0  0  0  0  0  0  0  0  0  0  0  0
  -61.6625   29.8027  -29.7307 C   0  0  0  0  0  0  0  0  0  0  0  0
  -61.9703   32.1288  -30.2644 C   0  0  0  0  0  0  0  0  0  0  0  0
 14  1  1  0
  1 17  1  0
  1 18  2  0
 11  2  1  0
  2 25  1  0
  2 26  2  0
  3  4  2  0
 26  3  1  0
  5  4  1  0
 25  5  2  0
  6 14  2  0
 19  6  1  0
  7  8  1  0
 10  7  1  0
  7 19  2  0
  8  9  2  0
  9 14  1  0
 10 20  2  0
 21 10  1  0
 12 11  1  1
 13 11  2  0
 12 16  1  0
 15 13  1  0
 13 22  1  0
 15 21  1  6
 16 21  1  6
 22 23  2  0
 22 24  1  0
 24 25  1  0
M  END
$$$$
