
     RDKit          3D

 26 29  0  0  0  0  0  0  0  0999 V2000
  -66.3334   36.4379  -21.1637 C   0  0  0  0  0  0  0  0  0  0  0  0
  -62.3126   31.0114  -28.4088 C   0  0  0  0  0  0  0  0  0  0  0  0
  -61.6077   31.9170  -30.4895 C   0  0  0  0  0  0  0  0  0  0  0  0
  -61.4609   30.6267  -30.9751 C   0  0  0  0  0  0  0  0  0  0  0  0
  -61.7311   29.5268  -30.2027 C   0  0  0  0  0  0  0  0  0  0  0  0
  -66.3284   34.2680  -22.3631 C   0  0  0  0  0  0  0  0  0  0  0  0
  -64.3701   32.9642  -22.6936 C   0  0  0  0  0  0  0  0  0  0  0  0
  -63.6509   33.9430  -22.0119 C   0  0  0  0  0  0  0  0  0  0  0  0
  -64.2914   35.0548  -21.5261 C   0  0  0  0  0  0  0  0  0  0  0  0
  -63.6356   31.8052  -23.1854 C   0  0  0  0  0  0  0  0  0  0  0  0
  -62.7502   31.1551  -27.0884 C   0  0  0  0  0  0  0  0  0  0  0  0
  -62.9581   32.4908  -26.4758 C   0  0  0  0  0  0  0  0  0  0  0  0
  -62.9936   29.9943  -26.3886 C   0  0  0  0  0  0  0  0  0  0  0  0
  -65.6439   35.2695  -21.6752 C   0  0  0  0  0  0  0  0  0  0  0  0
  -63.4413   30.0631  -24.9827 C   0  0  0  0  0  0  0  0  0  0  0  0
  -64.1711   32.3452  -25.5280 C   0  0  0  0  0  0  0  0  0  0  0  0
  -65.6374   37.4365  -20.5118 O   0  0  0  0  0  0  0  0  0  0  0  0
  -67.5679   36.5542  -21.3079 O   0  0  0  0  0  0  0  0  0  0  0  0
  -65.7144   33.1513  -22.8570 C   0  0  0  0  0  0  0  0  0  0  0  0
  -62.8971   31.1568  -22.4081 O   0  0  0  0  0  0  0  0  0  0  0  0
  -63.7435   31.4004  -24.5308 N   0  0  0  0  0  0  0  0  0  0  0  0
  -62.8233   28.7194  -26.9420 C   0  0  0  0  0  0  0  0  0  0  0  0
  -63.0599   27.6792  -26.2615 O   0  0  0  0  0  0  0  0  0  0  0  0
  -62.4137   28.6410  -28.1794 O   0  0  0  0  0  0  0  0  0  0  0  0
  -62.1608   29.7087  -28.9072 C   0  0  0  0  0  0  0  0  0  0  0  0
  -62.0408   32.1032  -29.1843 C   0  0  0  0  0  0  0  0  0  0  0  0
 14  1  1  0
  1 17  1  0
  1 18  2  0
 11  2  1  0
  2 25  1  0
  2 26  2  0
  3  4  2  0
 26  3  1  0
  5  4  1  0
 25  5  2  0
  6 14  2  0
 19  6  1  0
  7  8  1  0
 10  7  1  0
  7 19  2  0
  8  9  2  0
  9 14  1  0
 10 20  2  0
 21 10  1  0
 11 12  1  0
 13 11  2  0
 12 16  1  0
 15 13  1  0
 13 22  1  0
 15 21  1  0
 16 21  1  0
 22 23  2  0
 22 24  1  0
 24 25  1  0
M  END
$$$$
