
     RDKit          3D

 26 29  0  0  0  0  0  0  0  0999 V2000
  -67.7591   31.4589  -20.9685 C   0  0  0  0  0  0  0  0  0  0  0  0
  -63.0376   32.6696  -29.6298 C   0  0  0  0  0  0  0  0  0  0  0  0
  -63.9396   31.9187  -31.7551 C   0  0  0  0  0  0  0  0  0  0  0  0
  -62.6490   31.6282  -32.1372 C   0  0  0  0  0  0  0  0  0  0  0  0
  -61.5738   31.8450  -31.3056 C   0  0  0  0  0  0  0  0  0  0  0  0
  -66.8213   32.5534  -22.9884 C   0  0  0  0  0  0  0  0  0  0  0  0
  -64.4864   32.3950  -23.5245 C   0  0  0  0  0  0  0  0  0  0  0  0
  -64.3235   31.6236  -22.3794 C   0  0  0  0  0  0  0  0  0  0  0  0
  -65.3818   31.3220  -21.5557 C   0  0  0  0  0  0  0  0  0  0  0  0
  -63.3182   32.6739  -24.3418 C   0  0  0  0  0  0  0  0  0  0  0  0
  -63.1865   33.1830  -28.3838 C   0  0  0  0  0  0  0  0  0  0  0  0
  -64.5153   33.5325  -27.8341 C   0  0  0  0  0  0  0  0  0  0  0  0
  -62.0527   33.3843  -27.5795 C   0  0  0  0  0  0  0  0  0  0  0  0
  -66.6441   31.7876  -21.8568 C   0  0  0  0  0  0  0  0  0  0  0  0
  -62.3155   33.9579  -26.2376 C   0  0  0  0  0  0  0  0  0  0  0  0
  -64.5608   32.8720  -26.4421 C   0  0  0  0  0  0  0  0  0  0  0  0
  -67.5863   30.5074  -19.9755 O   0  0  0  0  0  0  0  0  0  0  0  0
  -68.8564   32.0331  -21.1067 O   0  0  0  0  0  0  0  0  0  0  0  0
  -65.7560   32.8508  -23.8081 C   0  0  0  0  0  0  0  0  0  0  0  0
  -62.2016   32.4489  -23.7991 O   0  0  0  0  0  0  0  0  0  0  0  0
  -63.3919   33.1647  -25.6604 N   0  0  0  0  0  0  0  0  0  0  0  0
  -60.8070   33.0634  -28.0499 C   0  0  0  0  0  0  0  0  0  0  0  0
  -59.7926   33.2567  -27.2961 O   0  0  0  0  0  0  0  0  0  0  0  0
  -60.6861   32.5681  -29.2567 O   0  0  0  0  0  0  0  0  0  0  0  0
  -61.7349   32.3656  -30.0433 C   0  0  0  0  0  0  0  0  0  0  0  0
  -64.1020   32.4498  -30.4669 C   0  0  0  0  0  0  0  0  0  0  0  0
 14  1  1  0
  1 17  1  0
  1 18  2  0
 11  2  1  0
  2 25  1  0
  2 26  2  0
  3  4  2  0
 26  3  1  0
  5  4  1  0
 25  5  2  0
  6 14  2  0
 19  6  1  0
  7  8  1  0
 10  7  1  0
  7 19  2  0
  8  9  2  0
  9 14  1  0
 10 20  2  0
 21 10  1  0
 12 11  1  1
 13 11  2  0
 12 16  1  0
 15 13  1  0
 13 22  1  0
 15 21  1  6
 16 21  1  6
 22 23  2  0
 22 24  1  0
 24 25  1  0
M  END
$$$$
