
     RDKit          3D

 26 29  0  0  0  0  0  0  0  0999 V2000
  -66.7545   31.8975  -22.1674 C   0  0  0  0  0  0  0  0  0  0  0  0
  -62.8398   30.3001  -31.0711 C   0  0  0  0  0  0  0  0  0  0  0  0
  -64.2194   29.9379  -33.0357 C   0  0  0  0  0  0  0  0  0  0  0  0
  -63.2764   29.0298  -33.4625 C   0  0  0  0  0  0  0  0  0  0  0  0
  -62.1442   28.7527  -32.7302 C   0  0  0  0  0  0  0  0  0  0  0  0
  -65.9640   31.2661  -24.4331 C   0  0  0  0  0  0  0  0  0  0  0  0
  -63.6232   31.0704  -24.9297 C   0  0  0  0  0  0  0  0  0  0  0  0
  -63.3616   31.4179  -23.6093 C   0  0  0  0  0  0  0  0  0  0  0  0
  -64.3743   31.6840  -22.7187 C   0  0  0  0  0  0  0  0  0  0  0  0
  -62.4986   30.8081  -25.8111 C   0  0  0  0  0  0  0  0  0  0  0  0
  -62.5864   30.9062  -29.8851 C   0  0  0  0  0  0  0  0  0  0  0  0
  -63.5160   31.8959  -29.2965 C   0  0  0  0  0  0  0  0  0  0  0  0
  -61.4136   30.5852  -29.1818 C   0  0  0  0  0  0  0  0  0  0  0  0
  -65.6889   31.6093  -23.1274 C   0  0  0  0  0  0  0  0  0  0  0  0
  -61.2200   31.3059  -27.9005 C   0  0  0  0  0  0  0  0  0  0  0  0
  -63.7181   31.4397  -27.8381 C   0  0  0  0  0  0  0  0  0  0  0  0
  -66.4347   32.1339  -20.8395 O   0  0  0  0  0  0  0  0  0  0  0  0
  -67.9417   31.9294  -22.5447 O   0  0  0  0  0  0  0  0  0  0  0  0
  -64.9438   31.0011  -25.3187 C   0  0  0  0  0  0  0  0  0  0  0  0
  -61.5166   30.2141  -25.2869 O   0  0  0  0  0  0  0  0  0  0  0  0
  -62.4734   31.1796  -27.1700 N   0  0  0  0  0  0  0  0  0  0  0  0
  -60.5339   29.6664  -29.6898 C   0  0  0  0  0  0  0  0  0  0  0  0
  -59.4745   29.3931  -29.0283 O   0  0  0  0  0  0  0  0  0  0  0  0
  -60.7988   29.0923  -30.8373 O   0  0  0  0  0  0  0  0  0  0  0  0
  -61.8961   29.3722  -31.5282 C   0  0  0  0  0  0  0  0  0  0  0  0
  -63.9646   30.5689  -31.8090 C   0  0  0  0  0  0  0  0  0  0  0  0
 14  1  1  0
  1 17  1  0
  1 18  2  0
 11  2  1  0
  2 25  1  0
  2 26  2  0
  3  4  2  0
 26  3  1  0
  5  4  1  0
 25  5  2  0
  6 14  2  0
 19  6  1  0
  7  8  1  0
 10  7  1  0
  7 19  2  0
  8  9  2  0
  9 14  1  0
 10 20  2  0
 21 10  1  0
 12 11  1  1
 13 11  2  0
 12 16  1  0
 15 13  1  0
 13 22  1  0
 15 21  1  6
 16 21  1  6
 22 23  2  0
 22 24  1  0
 24 25  1  0
M  END
$$$$
