
     RDKit          3D

 26 29  0  0  0  0  0  0  0  0999 V2000
  -64.8062   37.9816  -23.7616 C   0  0  0  0  0  0  0  0  0  0  0  0
  -61.6601   30.7154  -28.4900 C   0  0  0  0  0  0  0  0  0  0  0  0
  -60.3578   31.3020  -30.3890 C   0  0  0  0  0  0  0  0  0  0  0  0
  -60.1382   29.9537  -30.6260 C   0  0  0  0  0  0  0  0  0  0  0  0
  -60.6640   28.9806  -29.8161 C   0  0  0  0  0  0  0  0  0  0  0  0
  -64.8246   35.7418  -22.6985 C   0  0  0  0  0  0  0  0  0  0  0  0
  -64.4869   33.7226  -23.9038 C   0  0  0  0  0  0  0  0  0  0  0  0
  -64.3528   34.4830  -25.0630 C   0  0  0  0  0  0  0  0  0  0  0  0
  -64.4584   35.8497  -25.0058 C   0  0  0  0  0  0  0  0  0  0  0  0
  -64.3638   32.2753  -24.0267 C   0  0  0  0  0  0  0  0  0  0  0  0
  -62.4450   31.0536  -27.3831 C   0  0  0  0  0  0  0  0  0  0  0  0
  -62.7569   32.4657  -27.0495 C   0  0  0  0  0  0  0  0  0  0  0  0
  -62.9274   30.0096  -26.6258 C   0  0  0  0  0  0  0  0  0  0  0  0
  -64.6960   36.5378  -23.8364 C   0  0  0  0  0  0  0  0  0  0  0  0
  -63.7495   30.2864  -25.4302 C   0  0  0  0  0  0  0  0  0  0  0  0
  -64.1931   32.4652  -26.4764 C   0  0  0  0  0  0  0  0  0  0  0  0
  -65.2090   38.5970  -22.5931 O   0  0  0  0  0  0  0  0  0  0  0  0
  -64.5371   38.6862  -24.7563 O   0  0  0  0  0  0  0  0  0  0  0  0
  -64.7239   34.3791  -22.7284 C   0  0  0  0  0  0  0  0  0  0  0  0
  -64.4868   31.5489  -23.0132 O   0  0  0  0  0  0  0  0  0  0  0  0
  -64.1064   31.6767  -25.2761 N   0  0  0  0  0  0  0  0  0  0  0  0
  -62.6655   28.6665  -26.9226 C   0  0  0  0  0  0  0  0  0  0  0  0
  -63.1306   27.7388  -26.1986 O   0  0  0  0  0  0  0  0  0  0  0  0
  -61.9279   28.4051  -27.9679 O   0  0  0  0  0  0  0  0  0  0  0  0
  -61.4327   29.3530  -28.7359 C   0  0  0  0  0  0  0  0  0  0  0  0
  -61.1322   31.6800  -29.3013 C   0  0  0  0  0  0  0  0  0  0  0  0
 14  1  1  0
  1 17  1  0
  1 18  2  0
 11  2  1  0
  2 25  1  0
  2 26  2  0
  3  4  2  0
 26  3  1  0
  5  4  1  0
 25  5  2  0
  6 14  2  0
 19  6  1  0
  7  8  1  0
 10  7  1  0
  7 19  2  0
  8  9  2  0
  9 14  1  0
 10 20  2  0
 21 10  1  0
 11 12  1  0
 13 11  2  0
 12 16  1  0
 15 13  1  0
 13 22  1  0
 15 21  1  0
 16 21  1  0
 22 23  2  0
 22 24  1  0
 24 25  1  0
M  END
$$$$
