
     RDKit          3D

 26 29  0  0  0  0  0  0  0  0999 V2000
  -67.2169   30.8758  -20.5688 C   0  0  0  0  0  0  0  0  0  0  0  0
  -64.0587   34.5752  -29.5681 C   0  0  0  0  0  0  0  0  0  0  0  0
  -65.0149   34.5620  -31.7997 C   0  0  0  0  0  0  0  0  0  0  0  0
  -63.7511   34.8178  -32.2827 C   0  0  0  0  0  0  0  0  0  0  0  0
  -62.6632   34.9516  -31.4501 C   0  0  0  0  0  0  0  0  0  0  0  0
  -64.9350   31.4207  -21.3770 C   0  0  0  0  0  0  0  0  0  0  0  0
  -64.5188   31.9459  -23.6824 C   0  0  0  0  0  0  0  0  0  0  0  0
  -65.8765   31.7648  -23.9205 C   0  0  0  0  0  0  0  0  0  0  0  0
  -66.7462   31.4198  -22.9134 C   0  0  0  0  0  0  0  0  0  0  0  0
  -63.6632   32.3059  -24.7999 C   0  0  0  0  0  0  0  0  0  0  0  0
  -64.1681   34.4630  -28.2214 C   0  0  0  0  0  0  0  0  0  0  0  0
  -65.4617   34.1785  -27.5614 C   0  0  0  0  0  0  0  0  0  0  0  0
  -63.0235   34.6105  -27.4206 C   0  0  0  0  0  0  0  0  0  0  0  0
  -66.2782   31.2447  -21.6285 C   0  0  0  0  0  0  0  0  0  0  0  0
  -63.2449   34.4800  -25.9602 C   0  0  0  0  0  0  0  0  0  0  0  0
  -65.1717   33.0141  -26.5937 C   0  0  0  0  0  0  0  0  0  0  0  0
  -66.7343   30.3735  -19.3703 O   0  0  0  0  0  0  0  0  0  0  0  0
  -68.4426   31.0136  -20.7460 O   0  0  0  0  0  0  0  0  0  0  0  0
  -64.0708   31.7662  -22.3913 C   0  0  0  0  0  0  0  0  0  0  0  0
  -62.5550   31.7058  -24.8590 O   0  0  0  0  0  0  0  0  0  0  0  0
  -64.0181   33.2601  -25.7740 N   0  0  0  0  0  0  0  0  0  0  0  0
  -61.8067   34.8645  -27.9960 C   0  0  0  0  0  0  0  0  0  0  0  0
  -60.7816   34.9938  -27.2430 O   0  0  0  0  0  0  0  0  0  0  0  0
  -61.7237   34.9685  -29.2993 O   0  0  0  0  0  0  0  0  0  0  0  0
  -62.7840   34.8356  -30.0854 C   0  0  0  0  0  0  0  0  0  0  0  0
  -65.1362   34.4440  -30.4071 C   0  0  0  0  0  0  0  0  0  0  0  0
 14  1  1  0
  1 17  1  0
  1 18  2  0
 11  2  1  0
  2 25  1  0
  2 26  2  0
  3  4  2  0
 26  3  1  0
  5  4  1  0
 25  5  2  0
  6 14  2  0
 19  6  1  0
  7  8  1  0
 10  7  1  0
  7 19  2  0
  8  9  2  0
  9 14  1  0
 10 20  2  0
 21 10  1  0
 12 11  1  1
 13 11  2  0
 12 16  1  0
 15 13  1  0
 13 22  1  0
 15 21  1  6
 16 21  1  6
 22 23  2  0
 22 24  1  0
 24 25  1  0
M  END
$$$$
