
     RDKit          3D

 26 29  0  0  0  0  0  0  0  0999 V2000
  -60.3866   31.4710  -32.8972 C   0  0  0  0  0  0  0  0  0  0  0  0
  -64.2325   34.0411  -24.7312 C   0  0  0  0  0  0  0  0  0  0  0  0
  -64.6523   36.3688  -24.5029 C   0  0  0  0  0  0  0  0  0  0  0  0
  -65.2836   36.1129  -23.2954 C   0  0  0  0  0  0  0  0  0  0  0  0
  -65.3995   34.8426  -22.7932 C   0  0  0  0  0  0  0  0  0  0  0  0
  -60.8483   31.9106  -30.5011 C   0  0  0  0  0  0  0  0  0  0  0  0
  -61.9265   30.3487  -29.0722 C   0  0  0  0  0  0  0  0  0  0  0  0
  -62.0163   29.4786  -30.1560 C   0  0  0  0  0  0  0  0  0  0  0  0
  -61.5196   29.8499  -31.3799 C   0  0  0  0  0  0  0  0  0  0  0  0
  -62.4708   29.8985  -27.7970 C   0  0  0  0  0  0  0  0  0  0  0  0
  -63.7121   32.9464  -25.4287 C   0  0  0  0  0  0  0  0  0  0  0  0
  -63.0016   33.1104  -26.7213 C   0  0  0  0  0  0  0  0  0  0  0  0
  -63.8786   31.7087  -24.8486 C   0  0  0  0  0  0  0  0  0  0  0  0
  -60.9187   31.0678  -31.6101 C   0  0  0  0  0  0  0  0  0  0  0  0
  -63.3723   30.5015  -25.5329 C   0  0  0  0  0  0  0  0  0  0  0  0
  -61.8836   32.0423  -26.7361 C   0  0  0  0  0  0  0  0  0  0  0  0
  -59.8554   32.7330  -33.0750 O   0  0  0  0  0  0  0  0  0  0  0  0
  -60.4030   30.6787  -33.8617 O   0  0  0  0  0  0  0  0  0  0  0  0
  -61.3353   31.5651  -29.2718 C   0  0  0  0  0  0  0  0  0  0  0  0
  -62.8475   28.7111  -27.6621 O   0  0  0  0  0  0  0  0  0  0  0  0
  -62.5809   30.7842  -26.7066 N   0  0  0  0  0  0  0  0  0  0  0  0
  -64.5293   31.5214  -23.6230 C   0  0  0  0  0  0  0  0  0  0  0  0
  -64.6587   30.3646  -23.1266 O   0  0  0  0  0  0  0  0  0  0  0  0
  -64.9958   32.5769  -23.0121 O   0  0  0  0  0  0  0  0  0  0  0  0
  -64.8736   33.7902  -23.5087 C   0  0  0  0  0  0  0  0  0  0  0  0
  -64.1212   35.3100  -25.2260 C   0  0  0  0  0  0  0  0  0  0  0  0
 14  1  1  0
  1 17  1  0
  1 18  2  0
 11  2  1  0
  2 25  1  0
  2 26  2  0
  3  4  2  0
 26  3  1  0
  5  4  1  0
 25  5  2  0
  6 14  2  0
 19  6  1  0
  7  8  1  0
 10  7  1  0
  7 19  2  0
  8  9  2  0
  9 14  1  0
 10 20  2  0
 21 10  1  0
 11 12  1  0
 13 11  2  0
 12 16  1  0
 15 13  1  0
 13 22  1  0
 15 21  1  0
 16 21  1  0
 22 23  2  0
 22 24  1  0
 24 25  1  0
M  END
$$$$
