
     RDKit          3D

 26 29  0  0  0  0  0  0  0  0999 V2000
  -66.2786   32.9404  -20.4284 C   0  0  0  0  0  0  0  0  0  0  0  0
  -63.0778   33.6076  -29.6072 C   0  0  0  0  0  0  0  0  0  0  0  0
  -63.2403   35.6644  -30.7859 C   0  0  0  0  0  0  0  0  0  0  0  0
  -62.7889   35.0194  -31.9272 C   0  0  0  0  0  0  0  0  0  0  0  0
  -62.4792   33.6839  -31.9301 C   0  0  0  0  0  0  0  0  0  0  0  0
  -66.1366   32.1033  -22.7579 C   0  0  0  0  0  0  0  0  0  0  0  0
  -64.1013   31.4259  -23.7791 C   0  0  0  0  0  0  0  0  0  0  0  0
  -63.4459   31.7413  -22.5913 C   0  0  0  0  0  0  0  0  0  0  0  0
  -64.1549   32.2281  -21.5222 C   0  0  0  0  0  0  0  0  0  0  0  0
  -63.2956   30.9118  -24.8797 C   0  0  0  0  0  0  0  0  0  0  0  0
  -63.2076   32.8410  -28.4448 C   0  0  0  0  0  0  0  0  0  0  0  0
  -63.6994   33.4279  -27.1734 C   0  0  0  0  0  0  0  0  0  0  0  0
  -62.8705   31.5095  -28.5422 C   0  0  0  0  0  0  0  0  0  0  0  0
  -65.5172   32.4301  -21.5519 C   0  0  0  0  0  0  0  0  0  0  0  0
  -62.9637   30.6381  -27.3531 C   0  0  0  0  0  0  0  0  0  0  0  0
  -64.5274   32.3209  -26.4806 C   0  0  0  0  0  0  0  0  0  0  0  0
  -67.6547   33.0325  -20.4948 O   0  0  0  0  0  0  0  0  0  0  0  0
  -65.6963   33.3029  -19.3855 O   0  0  0  0  0  0  0  0  0  0  0  0
  -65.4537   31.6171  -23.8374 C   0  0  0  0  0  0  0  0  0  0  0  0
  -62.3363   30.1405  -24.6454 O   0  0  0  0  0  0  0  0  0  0  0  0
  -63.5806   31.2715  -26.2120 N   0  0  0  0  0  0  0  0  0  0  0  0
  -62.4191   30.9212  -29.7300 C   0  0  0  0  0  0  0  0  0  0  0  0
  -62.1211   29.6922  -29.7737 O   0  0  0  0  0  0  0  0  0  0  0  0
  -62.3169   31.6812  -30.7869 O   0  0  0  0  0  0  0  0  0  0  0  0
  -62.6207   32.9621  -30.7660 C   0  0  0  0  0  0  0  0  0  0  0  0
  -63.3840   34.9393  -29.6115 C   0  0  0  0  0  0  0  0  0  0  0  0
 14  1  1  0
  1 17  1  0
  1 18  2  0
 11  2  1  0
  2 25  1  0
  2 26  2  0
  3  4  2  0
 26  3  1  0
  5  4  1  0
 25  5  2  0
  6 14  2  0
 19  6  1  0
  7  8  1  0
 10  7  1  0
  7 19  2  0
  8  9  2  0
  9 14  1  0
 10 20  2  0
 21 10  1  0
 11 12  1  0
 13 11  2  0
 12 16  1  0
 15 13  1  0
 13 22  1  0
 15 21  1  0
 16 21  1  0
 22 23  2  0
 22 24  1  0
 24 25  1  0
M  END
$$$$
