
     RDKit          3D

 26 29  0  0  0  0  0  0  0  0999 V2000
  -63.3368   26.6104  -25.7130 C   0  0  0  0  0  0  0  0  0  0  0  0
  -63.4240   35.9513  -28.9893 C   0  0  0  0  0  0  0  0  0  0  0  0
  -63.6580   36.5330  -31.3348 C   0  0  0  0  0  0  0  0  0  0  0  0
  -62.8423   37.6152  -31.0908 C   0  0  0  0  0  0  0  0  0  0  0  0
  -62.3245   37.8737  -29.8418 C   0  0  0  0  0  0  0  0  0  0  0  0
  -63.9884   28.8219  -24.7953 C   0  0  0  0  0  0  0  0  0  0  0  0
  -62.7885   30.8183  -25.3770 C   0  0  0  0  0  0  0  0  0  0  0  0
  -61.9621   30.0338  -26.1735 C   0  0  0  0  0  0  0  0  0  0  0  0
  -62.1413   28.6751  -26.2811 C   0  0  0  0  0  0  0  0  0  0  0  0
  -62.5322   32.2468  -25.3121 C   0  0  0  0  0  0  0  0  0  0  0  0
  -63.6875   35.1544  -27.9246 C   0  0  0  0  0  0  0  0  0  0  0  0
  -64.5392   33.9497  -28.0394 C   0  0  0  0  0  0  0  0  0  0  0  0
  -63.1326   35.4680  -26.6729 C   0  0  0  0  0  0  0  0  0  0  0  0
  -63.1612   28.0575  -25.5888 C   0  0  0  0  0  0  0  0  0  0  0  0
  -63.4851   34.5434  -25.5686 C   0  0  0  0  0  0  0  0  0  0  0  0
  -63.7321   32.8213  -27.3675 C   0  0  0  0  0  0  0  0  0  0  0  0
  -62.3020   25.8351  -26.2125 O   0  0  0  0  0  0  0  0  0  0  0  0
  -64.4117   26.0812  -25.3706 O   0  0  0  0  0  0  0  0  0  0  0  0
  -63.8021   30.1820  -24.6932 C   0  0  0  0  0  0  0  0  0  0  0  0
  -61.6174   32.6054  -24.5206 O   0  0  0  0  0  0  0  0  0  0  0  0
  -63.2413   33.1985  -26.0713 N   0  0  0  0  0  0  0  0  0  0  0  0
  -62.3310   36.5694  -26.5296 C   0  0  0  0  0  0  0  0  0  0  0  0
  -61.8391   36.8307  -25.3789 O   0  0  0  0  0  0  0  0  0  0  0  0
  -62.0891   37.3254  -27.5719 O   0  0  0  0  0  0  0  0  0  0  0  0
  -62.5970   37.0593  -28.7682 C   0  0  0  0  0  0  0  0  0  0  0  0
  -63.9349   35.7033  -30.2382 C   0  0  0  0  0  0  0  0  0  0  0  0
 14  1  1  0
  1 17  1  0
  1 18  2  0
 11  2  1  0
  2 25  1  0
  2 26  2  0
  3  4  2  0
 26  3  1  0
  5  4  1  0
 25  5  2  0
  6 14  2  0
 19  6  1  0
  7  8  1  0
 10  7  1  0
  7 19  2  0
  8  9  2  0
  9 14  1  0
 10 20  2  0
 21 10  1  0
 12 11  1  1
 13 11  2  0
 12 16  1  0
 15 13  1  0
 13 22  1  0
 15 21  1  6
 16 21  1  6
 22 23  2  0
 22 24  1  0
 24 25  1  0
M  END
$$$$
