
     RDKit          3D

 26 29  0  0  0  0  0  0  0  0999 V2000
  -66.8466   36.4135  -20.7260 C   0  0  0  0  0  0  0  0  0  0  0  0
  -62.6136   31.6791  -27.9712 C   0  0  0  0  0  0  0  0  0  0  0  0
  -62.0155   32.8632  -29.9426 C   0  0  0  0  0  0  0  0  0  0  0  0
  -61.6742   31.6573  -30.5356 C   0  0  0  0  0  0  0  0  0  0  0  0
  -61.7931   30.4640  -29.8713 C   0  0  0  0  0  0  0  0  0  0  0  0
  -66.6022   33.9576  -20.9633 C   0  0  0  0  0  0  0  0  0  0  0  0
  -64.8531   32.9342  -22.2031 C   0  0  0  0  0  0  0  0  0  0  0  0
  -64.3740   34.2072  -22.5032 C   0  0  0  0  0  0  0  0  0  0  0  0
  -65.0228   35.3173  -22.0245 C   0  0  0  0  0  0  0  0  0  0  0  0
  -64.1213   31.7930  -22.7388 C   0  0  0  0  0  0  0  0  0  0  0  0
  -63.0885   31.6368  -26.6565 C   0  0  0  0  0  0  0  0  0  0  0  0
  -63.4989   32.8670  -25.9348 C   0  0  0  0  0  0  0  0  0  0  0  0
  -63.1708   30.3941  -26.0692 C   0  0  0  0  0  0  0  0  0  0  0  0
  -66.1537   35.2486  -21.2410 C   0  0  0  0  0  0  0  0  0  0  0  0
  -63.6461   30.2687  -24.6762 C   0  0  0  0  0  0  0  0  0  0  0  0
  -64.6926   32.4622  -25.0392 C   0  0  0  0  0  0  0  0  0  0  0  0
  -68.0086   36.2743  -19.9933 O   0  0  0  0  0  0  0  0  0  0  0  0
  -66.3984   37.5587  -20.9401 O   0  0  0  0  0  0  0  0  0  0  0  0
  -65.9746   32.8358  -21.4277 C   0  0  0  0  0  0  0  0  0  0  0  0
  -63.4585   31.0583  -21.9700 O   0  0  0  0  0  0  0  0  0  0  0  0
  -64.1475   31.5016  -24.1172 N   0  0  0  0  0  0  0  0  0  0  0  0
  -62.8074   29.2130  -26.7277 C   0  0  0  0  0  0  0  0  0  0  0  0
  -62.9005   28.0916  -26.1487 O   0  0  0  0  0  0  0  0  0  0  0  0
  -62.3712   29.3078  -27.9548 O   0  0  0  0  0  0  0  0  0  0  0  0
  -62.2653   30.4629  -28.5778 C   0  0  0  0  0  0  0  0  0  0  0  0
  -62.4919   32.8649  -28.6392 C   0  0  0  0  0  0  0  0  0  0  0  0
 14  1  1  0
  1 17  1  0
  1 18  2  0
 11  2  1  0
  2 25  1  0
  2 26  2  0
  3  4  2  0
 26  3  1  0
  5  4  1  0
 25  5  2  0
  6 14  2  0
 19  6  1  0
  7  8  1  0
 10  7  1  0
  7 19  2  0
  8  9  2  0
  9 14  1  0
 10 20  2  0
 21 10  1  0
 11 12  1  0
 13 11  2  0
 12 16  1  0
 15 13  1  0
 13 22  1  0
 15 21  1  0
 16 21  1  0
 22 23  2  0
 22 24  1  0
 24 25  1  0
M  END
$$$$
