
     RDKit          3D

 26 29  0  0  0  0  0  0  0  0999 V2000
  -66.3326   33.1034  -21.0042 C   0  0  0  0  0  0  0  0  0  0  0  0
  -62.4445   32.3614  -30.2026 C   0  0  0  0  0  0  0  0  0  0  0  0
  -62.9071   33.8075  -32.0971 C   0  0  0  0  0  0  0  0  0  0  0  0
  -62.5765   32.7497  -32.9145 C   0  0  0  0  0  0  0  0  0  0  0  0
  -62.1896   31.5289  -32.4100 C   0  0  0  0  0  0  0  0  0  0  0  0
  -66.4074   31.4041  -22.8109 C   0  0  0  0  0  0  0  0  0  0  0  0
  -64.5750   31.1214  -24.3362 C   0  0  0  0  0  0  0  0  0  0  0  0
  -63.9149   32.1405  -23.6591 C   0  0  0  0  0  0  0  0  0  0  0  0
  -64.4840   32.7789  -22.5830 C   0  0  0  0  0  0  0  0  0  0  0  0
  -63.9088   30.4984  -25.4669 C   0  0  0  0  0  0  0  0  0  0  0  0
  -62.3657   32.1286  -28.8693 C   0  0  0  0  0  0  0  0  0  0  0  0
  -62.7015   33.1683  -27.8711 C   0  0  0  0  0  0  0  0  0  0  0  0
  -61.9633   30.8631  -28.4115 C   0  0  0  0  0  0  0  0  0  0  0  0
  -65.7407   32.4125  -22.1499 C   0  0  0  0  0  0  0  0  0  0  0  0
  -61.8990   30.7077  -26.9383 C   0  0  0  0  0  0  0  0  0  0  0  0
  -63.6641   32.4808  -26.8828 C   0  0  0  0  0  0  0  0  0  0  0  0
  -67.6478   32.8433  -20.6522 O   0  0  0  0  0  0  0  0  0  0  0  0
  -65.6554   33.9202  -20.3509 O   0  0  0  0  0  0  0  0  0  0  0  0
  -65.8302   30.7699  -23.8878 C   0  0  0  0  0  0  0  0  0  0  0  0
  -64.0353   29.2463  -25.5575 O   0  0  0  0  0  0  0  0  0  0  0  0
  -63.1612   31.2172  -26.4206 N   0  0  0  0  0  0  0  0  0  0  0  0
  -61.6541   29.8721  -29.3051 C   0  0  0  0  0  0  0  0  0  0  0  0
  -61.2911   28.7297  -28.8605 O   0  0  0  0  0  0  0  0  0  0  0  0
  -61.7375   30.1187  -30.5891 O   0  0  0  0  0  0  0  0  0  0  0  0
  -62.1133   31.3021  -31.0562 C   0  0  0  0  0  0  0  0  0  0  0  0
  -62.8286   33.5742  -30.7161 C   0  0  0  0  0  0  0  0  0  0  0  0
 14  1  1  0
  1 17  1  0
  1 18  2  0
 11  2  1  0
  2 25  1  0
  2 26  2  0
  3  4  2  0
 26  3  1  0
  5  4  1  0
 25  5  2  0
  6 14  2  0
 19  6  1  0
  7  8  1  0
 10  7  1  0
  7 19  2  0
  8  9  2  0
  9 14  1  0
 10 20  2  0
 21 10  1  0
 12 11  1  1
 13 11  2  0
 12 16  1  0
 15 13  1  0
 13 22  1  0
 15 21  1  6
 16 21  1  6
 22 23  2  0
 22 24  1  0
 24 25  1  0
M  END
$$$$
