
     RDKit          3D

 26 29  0  0  0  0  0  0  0  0999 V2000
  -57.8110   27.0005  -29.6783 C   0  0  0  0  0  0  0  0  0  0  0  0
  -65.2309   32.6005  -25.1060 C   0  0  0  0  0  0  0  0  0  0  0  0
  -66.8778   34.1212  -24.3176 C   0  0  0  0  0  0  0  0  0  0  0  0
  -67.1426   33.2545  -23.2684 C   0  0  0  0  0  0  0  0  0  0  0  0
  -66.4709   32.0685  -23.1211 C   0  0  0  0  0  0  0  0  0  0  0  0
  -60.0563   27.7901  -28.9836 C   0  0  0  0  0  0  0  0  0  0  0  0
  -60.7503   30.0564  -29.1455 C   0  0  0  0  0  0  0  0  0  0  0  0
  -59.4964   30.3620  -29.6694 C   0  0  0  0  0  0  0  0  0  0  0  0
  -58.5599   29.3730  -29.8349 C   0  0  0  0  0  0  0  0  0  0  0  0
  -61.7038   31.1485  -28.9939 C   0  0  0  0  0  0  0  0  0  0  0  0
  -64.2441   32.2194  -26.0207 C   0  0  0  0  0  0  0  0  0  0  0  0
  -63.8699   33.0812  -27.1695 C   0  0  0  0  0  0  0  0  0  0  0  0
  -63.6255   31.0103  -25.7938 C   0  0  0  0  0  0  0  0  0  0  0  0
  -58.7904   28.0556  -29.5051 C   0  0  0  0  0  0  0  0  0  0  0  0
  -62.5851   30.5299  -26.7259 C   0  0  0  0  0  0  0  0  0  0  0  0
  -62.3494   32.8883  -27.3746 C   0  0  0  0  0  0  0  0  0  0  0  0
  -58.0990   25.7041  -29.3004 O   0  0  0  0  0  0  0  0  0  0  0  0
  -56.6932   27.2538  -30.1728 O   0  0  0  0  0  0  0  0  0  0  0  0
  -61.0067   28.7566  -28.8085 C   0  0  0  0  0  0  0  0  0  0  0  0
  -62.0894   31.7864  -30.0010 O   0  0  0  0  0  0  0  0  0  0  0  0
  -62.2017   31.5004  -27.7235 N   0  0  0  0  0  0  0  0  0  0  0  0
  -63.9434   30.1815  -24.7110 C   0  0  0  0  0  0  0  0  0  0  0  0
  -63.3479   29.0779  -24.5410 O   0  0  0  0  0  0  0  0  0  0  0  0
  -64.8716   30.5846  -23.8857 O   0  0  0  0  0  0  0  0  0  0  0  0
  -65.5052   31.7282  -24.0419 C   0  0  0  0  0  0  0  0  0  0  0  0
  -65.9049   33.7808  -25.2468 C   0  0  0  0  0  0  0  0  0  0  0  0
 14  1  1  0
  1 17  1  0
  1 18  2  0
 11  2  1  0
  2 25  1  0
  2 26  2  0
  3  4  2  0
 26  3  1  0
  5  4  1  0
 25  5  2  0
  6 14  2  0
 19  6  1  0
  7  8  1  0
 10  7  1  0
  7 19  2  0
  8  9  2  0
  9 14  1  0
 10 20  2  0
 21 10  1  0
 11 12  1  0
 13 11  2  0
 12 16  1  0
 15 13  1  0
 13 22  1  0
 15 21  1  0
 16 21  1  0
 22 23  2  0
 22 24  1  0
 24 25  1  0
M  END
$$$$
