
     RDKit          3D

 26 29  0  0  0  0  0  0  0  0999 V2000
  -66.0544   32.2592  -20.5255 C   0  0  0  0  0  0  0  0  0  0  0  0
  -63.4263   33.8419  -29.9458 C   0  0  0  0  0  0  0  0  0  0  0  0
  -64.4319   35.5356  -31.3652 C   0  0  0  0  0  0  0  0  0  0  0  0
  -64.1823   34.7071  -32.4363 C   0  0  0  0  0  0  0  0  0  0  0  0
  -63.5746   33.4811  -32.2865 C   0  0  0  0  0  0  0  0  0  0  0  0
  -64.2456   31.1616  -21.8220 C   0  0  0  0  0  0  0  0  0  0  0  0
  -64.2005   31.2460  -24.2209 C   0  0  0  0  0  0  0  0  0  0  0  0
  -65.3707   31.9949  -24.1702 C   0  0  0  0  0  0  0  0  0  0  0  0
  -65.9674   32.3215  -22.9757 C   0  0  0  0  0  0  0  0  0  0  0  0
  -63.6329   30.9382  -25.5223 C   0  0  0  0  0  0  0  0  0  0  0  0
  -63.0369   33.3777  -28.7329 C   0  0  0  0  0  0  0  0  0  0  0  0
  -63.2505   34.1542  -27.4914 C   0  0  0  0  0  0  0  0  0  0  0  0
  -62.4198   32.1193  -28.6403 C   0  0  0  0  0  0  0  0  0  0  0  0
  -65.4054   31.9046  -21.7878 C   0  0  0  0  0  0  0  0  0  0  0  0
  -62.0219   31.7023  -27.2741 C   0  0  0  0  0  0  0  0  0  0  0  0
  -63.9016   33.1645  -26.5052 C   0  0  0  0  0  0  0  0  0  0  0  0
  -65.8823   31.4477  -19.4150 O   0  0  0  0  0  0  0  0  0  0  0  0
  -66.7571   33.2857  -20.4527 O   0  0  0  0  0  0  0  0  0  0  0  0
  -63.6544   30.8389  -23.0226 C   0  0  0  0  0  0  0  0  0  0  0  0
  -63.5571   29.7127  -25.8126 O   0  0  0  0  0  0  0  0  0  0  0  0
  -63.1862   31.9214  -26.4272 N   0  0  0  0  0  0  0  0  0  0  0  0
  -62.2142   31.3669  -29.7663 C   0  0  0  0  0  0  0  0  0  0  0  0
  -61.6506   30.2250  -29.6526 O   0  0  0  0  0  0  0  0  0  0  0  0
  -62.5988   31.8345  -30.9281 O   0  0  0  0  0  0  0  0  0  0  0  0
  -63.1838   33.0187  -31.0522 C   0  0  0  0  0  0  0  0  0  0  0  0
  -64.0324   35.0621  -30.1066 C   0  0  0  0  0  0  0  0  0  0  0  0
 14  1  1  0
  1 17  1  0
  1 18  2  0
 11  2  1  0
  2 25  1  0
  2 26  2  0
  3  4  2  0
 26  3  1  0
  5  4  1  0
 25  5  2  0
  6 14  2  0
 19  6  1  0
  7  8  1  0
 10  7  1  0
  7 19  2  0
  8  9  2  0
  9 14  1  0
 10 20  2  0
 21 10  1  0
 12 11  1  1
 13 11  2  0
 12 16  1  0
 15 13  1  0
 13 22  1  0
 15 21  1  6
 16 21  1  6
 22 23  2  0
 22 24  1  0
 24 25  1  0
M  END
$$$$
