
     RDKit          3D

 26 29  0  0  0  0  0  0  0  0999 V2000
  -65.0211   38.0517  -23.1894 C   0  0  0  0  0  0  0  0  0  0  0  0
  -61.7421   30.6296  -28.1879 C   0  0  0  0  0  0  0  0  0  0  0  0
  -60.5802   31.1160  -30.2028 C   0  0  0  0  0  0  0  0  0  0  0  0
  -60.3987   29.7556  -30.3993 C   0  0  0  0  0  0  0  0  0  0  0  0
  -60.8750   28.8254  -29.5120 C   0  0  0  0  0  0  0  0  0  0  0  0
  -63.9019   36.0994  -24.2303 C   0  0  0  0  0  0  0  0  0  0  0  0
  -64.2776   33.8580  -23.5383 C   0  0  0  0  0  0  0  0  0  0  0  0
  -65.1661   34.3436  -22.5818 C   0  0  0  0  0  0  0  0  0  0  0  0
  -65.3963   35.6922  -22.4779 C   0  0  0  0  0  0  0  0  0  0  0  0
  -64.0747   32.4159  -23.6018 C   0  0  0  0  0  0  0  0  0  0  0  0
  -62.4353   31.0260  -27.0399 C   0  0  0  0  0  0  0  0  0  0  0  0
  -62.7006   32.4557  -26.7428 C   0  0  0  0  0  0  0  0  0  0  0  0
  -62.8734   30.0221  -26.2054 C   0  0  0  0  0  0  0  0  0  0  0  0
  -64.7841   36.6245  -23.2864 C   0  0  0  0  0  0  0  0  0  0  0  0
  -63.5978   30.3614  -24.9636 C   0  0  0  0  0  0  0  0  0  0  0  0
  -64.0887   32.5034  -26.0632 C   0  0  0  0  0  0  0  0  0  0  0  0
  -65.9428   38.5525  -22.2915 O   0  0  0  0  0  0  0  0  0  0  0  0
  -64.3921   38.8456  -23.9190 O   0  0  0  0  0  0  0  0  0  0  0  0
  -63.6550   34.7609  -24.3542 C   0  0  0  0  0  0  0  0  0  0  0  0
  -64.0341   31.7429  -22.5457 O   0  0  0  0  0  0  0  0  0  0  0  0
  -63.9220   31.7627  -24.8411 N   0  0  0  0  0  0  0  0  0  0  0  0
  -62.6541   28.6637  -26.4649 C   0  0  0  0  0  0  0  0  0  0  0  0
  -63.0759   27.7743  -25.6696 O   0  0  0  0  0  0  0  0  0  0  0  0
  -62.0023   28.3474  -27.5512 O   0  0  0  0  0  0  0  0  0  0  0  0
  -61.5536   29.2546  -28.3933 C   0  0  0  0  0  0  0  0  0  0  0  0
  -61.2639   31.5512  -29.0763 C   0  0  0  0  0  0  0  0  0  0  0  0
 14  1  1  0
  1 17  1  0
  1 18  2  0
 11  2  1  0
  2 25  1  0
  2 26  2  0
  3  4  2  0
 26  3  1  0
  5  4  1  0
 25  5  2  0
  6 14  2  0
 19  6  1  0
  7  8  1  0
 10  7  1  0
  7 19  2  0
  8  9  2  0
  9 14  1  0
 10 20  2  0
 21 10  1  0
 11 12  1  0
 13 11  2  0
 12 16  1  0
 15 13  1  0
 13 22  1  0
 15 21  1  0
 16 21  1  0
 22 23  2  0
 22 24  1  0
 24 25  1  0
M  END
$$$$
