
     RDKit          3D

 26 29  0  0  0  0  0  0  0  0999 V2000
  -65.0643   34.6185  -23.3022 C   0  0  0  0  0  0  0  0  0  0  0  0
  -60.5930   29.9439  -29.1151 C   0  0  0  0  0  0  0  0  0  0  0  0
  -59.5917   31.3596  -30.7397 C   0  0  0  0  0  0  0  0  0  0  0  0
  -58.6339   30.3832  -30.9666 C   0  0  0  0  0  0  0  0  0  0  0  0
  -58.6369   29.1933  -30.2859 C   0  0  0  0  0  0  0  0  0  0  0  0
  -65.8608   32.2995  -23.6706 C   0  0  0  0  0  0  0  0  0  0  0  0
  -64.5304   30.6070  -24.6752 C   0  0  0  0  0  0  0  0  0  0  0  0
  -63.5056   31.5419  -24.8006 C   0  0  0  0  0  0  0  0  0  0  0  0
  -63.6885   32.8274  -24.3574 C   0  0  0  0  0  0  0  0  0  0  0  0
  -64.2772   29.2570  -25.1630 C   0  0  0  0  0  0  0  0  0  0  0  0
  -61.5739   29.6711  -28.1564 C   0  0  0  0  0  0  0  0  0  0  0  0
  -62.6558   30.6394  -27.8491 C   0  0  0  0  0  0  0  0  0  0  0  0
  -61.4949   28.4518  -27.5215 C   0  0  0  0  0  0  0  0  0  0  0  0
  -64.8594   33.2642  -23.7778 C   0  0  0  0  0  0  0  0  0  0  0  0
  -62.4842   28.0974  -26.4835 C   0  0  0  0  0  0  0  0  0  0  0  0
  -63.9134   29.7950  -27.5388 C   0  0  0  0  0  0  0  0  0  0  0  0
  -64.0309   35.5340  -23.3187 O   0  0  0  0  0  0  0  0  0  0  0  0
  -66.1811   34.9725  -22.8714 O   0  0  0  0  0  0  0  0  0  0  0  0
  -65.7043   31.0129  -24.1041 C   0  0  0  0  0  0  0  0  0  0  0  0
  -64.6927   28.2691  -24.5137 O   0  0  0  0  0  0  0  0  0  0  0  0
  -63.5671   29.0442  -26.3614 N   0  0  0  0  0  0  0  0  0  0  0  0
  -60.4971   27.5096  -27.7997 C   0  0  0  0  0  0  0  0  0  0  0  0
  -60.4638   26.4003  -27.1916 O   0  0  0  0  0  0  0  0  0  0  0  0
  -59.6059   27.8134  -28.7043 O   0  0  0  0  0  0  0  0  0  0  0  0
  -59.6197   28.9609  -29.3498 C   0  0  0  0  0  0  0  0  0  0  0  0
  -60.5834   31.1280  -29.7970 C   0  0  0  0  0  0  0  0  0  0  0  0
 14  1  1  0
  1 17  1  0
  1 18  2  0
 11  2  1  0
  2 25  1  0
  2 26  2  0
  3  4  2  0
 26  3  1  0
  5  4  1  0
 25  5  2  0
  6 14  2  0
 19  6  1  0
  7  8  1  0
 10  7  1  0
  7 19  2  0
  8  9  2  0
  9 14  1  0
 10 20  2  0
 21 10  1  0
 11 12  1  0
 13 11  2  0
 12 16  1  0
 15 13  1  0
 13 22  1  0
 15 21  1  0
 16 21  1  0
 22 23  2  0
 22 24  1  0
 24 25  1  0
M  END
$$$$
