
     RDKit          3D

 26 29  0  0  0  0  0  0  0  0999 V2000
  -60.5145   31.8972  -34.1017 C   0  0  0  0  0  0  0  0  0  0  0  0
  -64.1723   32.1669  -24.4825 C   0  0  0  0  0  0  0  0  0  0  0  0
  -64.7590   33.8947  -22.8809 C   0  0  0  0  0  0  0  0  0  0  0  0
  -64.7196   32.9251  -21.9040 C   0  0  0  0  0  0  0  0  0  0  0  0
  -64.4181   31.6124  -22.1884 C   0  0  0  0  0  0  0  0  0  0  0  0
  -60.2728   30.3094  -32.2102 C   0  0  0  0  0  0  0  0  0  0  0  0
  -61.0036   30.8834  -29.9965 C   0  0  0  0  0  0  0  0  0  0  0  0
  -61.4067   32.1153  -30.4993 C   0  0  0  0  0  0  0  0  0  0  0  0
  -61.2484   32.4405  -31.8255 C   0  0  0  0  0  0  0  0  0  0  0  0
  -61.2010   30.6162  -28.5823 C   0  0  0  0  0  0  0  0  0  0  0  0
  -63.8965   31.7512  -25.7431 C   0  0  0  0  0  0  0  0  0  0  0  0
  -63.8908   32.6838  -26.8921 C   0  0  0  0  0  0  0  0  0  0  0  0
  -63.5970   30.3985  -25.9745 C   0  0  0  0  0  0  0  0  0  0  0  0
  -60.6773   31.5345  -32.6938 C   0  0  0  0  0  0  0  0  0  0  0  0
  -63.3182   30.0386  -27.3857 C   0  0  0  0  0  0  0  0  0  0  0  0
  -62.5616   32.4120  -27.6238 C   0  0  0  0  0  0  0  0  0  0  0  0
  -61.0387   33.0935  -34.5660 O   0  0  0  0  0  0  0  0  0  0  0  0
  -59.9073   31.1328  -34.8762 O   0  0  0  0  0  0  0  0  0  0  0  0
  -60.4351   29.9917  -30.8806 C   0  0  0  0  0  0  0  0  0  0  0  0
  -60.2672   29.9943  -28.0051 O   0  0  0  0  0  0  0  0  0  0  0  0
  -62.3500   31.0127  -27.8697 N   0  0  0  0  0  0  0  0  0  0  0  0
  -63.5826   29.5071  -24.9345 C   0  0  0  0  0  0  0  0  0  0  0  0
  -63.3063   28.2820  -25.1739 O   0  0  0  0  0  0  0  0  0  0  0  0
  -63.8516   29.9305  -23.7243 O   0  0  0  0  0  0  0  0  0  0  0  0
  -64.1392   31.2003  -23.4700 C   0  0  0  0  0  0  0  0  0  0  0  0
  -64.4742   33.4724  -24.1880 C   0  0  0  0  0  0  0  0  0  0  0  0
 14  1  1  0
  1 17  1  0
  1 18  2  0
 11  2  1  0
  2 25  1  0
  2 26  2  0
  3  4  2  0
 26  3  1  0
  5  4  1  0
 25  5  2  0
  6 14  2  0
 19  6  1  0
  7  8  1  0
 10  7  1  0
  7 19  2  0
  8  9  2  0
  9 14  1  0
 10 20  2  0
 21 10  1  0
 12 11  1  1
 13 11  2  0
 12 16  1  0
 15 13  1  0
 13 22  1  0
 15 21  1  6
 16 21  1  6
 22 23  2  0
 22 24  1  0
 24 25  1  0
M  END
$$$$
