
     RDKit          3D

 26 29  0  0  0  0  0  0  0  0999 V2000
  -64.4776   38.7504  -25.1843 C   0  0  0  0  0  0  0  0  0  0  0  0
  -62.3689   29.5418  -28.4840 C   0  0  0  0  0  0  0  0  0  0  0  0
  -62.2382   28.8188  -30.7980 C   0  0  0  0  0  0  0  0  0  0  0  0
  -62.5412   27.5488  -30.3604 C   0  0  0  0  0  0  0  0  0  0  0  0
  -62.7543   27.2650  -29.0305 C   0  0  0  0  0  0  0  0  0  0  0  0
  -65.0674   36.5981  -24.0994 C   0  0  0  0  0  0  0  0  0  0  0  0
  -64.2438   34.5069  -24.9436 C   0  0  0  0  0  0  0  0  0  0  0  0
  -63.5815   35.2214  -25.9355 C   0  0  0  0  0  0  0  0  0  0  0  0
  -63.6579   36.5918  -26.0111 C   0  0  0  0  0  0  0  0  0  0  0  0
  -64.1174   33.0597  -24.9331 C   0  0  0  0  0  0  0  0  0  0  0  0
  -62.2925   30.4976  -27.5254 C   0  0  0  0  0  0  0  0  0  0  0  0
  -61.9864   31.9089  -27.8488 C   0  0  0  0  0  0  0  0  0  0  0  0
  -62.5182   30.1497  -26.1834 C   0  0  0  0  0  0  0  0  0  0  0  0
  -64.4054   37.2923  -25.0884 C   0  0  0  0  0  0  0  0  0  0  0  0
  -62.4039   31.2606  -25.2080 C   0  0  0  0  0  0  0  0  0  0  0  0
  -63.0675   32.7317  -27.1206 C   0  0  0  0  0  0  0  0  0  0  0  0
  -63.7042   39.4142  -26.1237 O   0  0  0  0  0  0  0  0  0  0  0  0
  -65.2311   39.3886  -24.4243 O   0  0  0  0  0  0  0  0  0  0  0  0
  -64.9857   35.2256  -24.0309 C   0  0  0  0  0  0  0  0  0  0  0  0
  -64.8865   32.4468  -24.1428 O   0  0  0  0  0  0  0  0  0  0  0  0
  -63.2046   32.3537  -25.7416 N   0  0  0  0  0  0  0  0  0  0  0  0
  -62.8141   28.8555  -25.8463 C   0  0  0  0  0  0  0  0  0  0  0  0
  -63.0153   28.5672  -24.6171 O   0  0  0  0  0  0  0  0  0  0  0  0
  -62.8833   27.9480  -26.7886 O   0  0  0  0  0  0  0  0  0  0  0  0
  -62.6753   28.2412  -28.0656 C   0  0  0  0  0  0  0  0  0  0  0  0
  -62.1580   29.8135  -29.8121 C   0  0  0  0  0  0  0  0  0  0  0  0
 14  1  1  0
  1 17  1  0
  1 18  2  0
 11  2  1  0
  2 25  1  0
  2 26  2  0
  3  4  2  0
 26  3  1  0
  5  4  1  0
 25  5  2  0
  6 14  2  0
 19  6  1  0
  7  8  1  0
 10  7  1  0
  7 19  2  0
  8  9  2  0
  9 14  1  0
 10 20  2  0
 21 10  1  0
 12 11  1  1
 13 11  2  0
 12 16  1  0
 15 13  1  0
 13 22  1  0
 15 21  1  6
 16 21  1  6
 22 23  2  0
 22 24  1  0
 24 25  1  0
M  END
$$$$
