
     RDKit          3D

 26 29  0  0  0  0  0  0  0  0999 V2000
  -65.9256   37.0306  -22.2281 C   0  0  0  0  0  0  0  0  0  0  0  0
  -61.8000   31.0668  -28.3275 C   0  0  0  0  0  0  0  0  0  0  0  0
  -60.5752   32.0252  -30.1241 C   0  0  0  0  0  0  0  0  0  0  0  0
  -60.3762   30.7525  -30.6368 C   0  0  0  0  0  0  0  0  0  0  0  0
  -60.8745   29.6357  -30.0173 C   0  0  0  0  0  0  0  0  0  0  0  0
  -64.9801   34.8258  -21.6017 C   0  0  0  0  0  0  0  0  0  0  0  0
  -64.6987   33.0410  -23.1442 C   0  0  0  0  0  0  0  0  0  0  0  0
  -65.2328   33.8635  -24.1332 C   0  0  0  0  0  0  0  0  0  0  0  0
  -65.6246   35.1424  -23.8275 C   0  0  0  0  0  0  0  0  0  0  0  0
  -64.2994   31.6930  -23.5290 C   0  0  0  0  0  0  0  0  0  0  0  0
  -62.5345   31.1743  -27.1423 C   0  0  0  0  0  0  0  0  0  0  0  0
  -62.8211   32.4900  -26.5181 C   0  0  0  0  0  0  0  0  0  0  0  0
  -62.9922   29.9987  -26.5905 C   0  0  0  0  0  0  0  0  0  0  0  0
  -65.5188   35.6800  -22.5636 C   0  0  0  0  0  0  0  0  0  0  0  0
  -63.7606   30.0281  -25.3293 C   0  0  0  0  0  0  0  0  0  0  0  0
  -64.2315   32.3725  -25.8954 C   0  0  0  0  0  0  0  0  0  0  0  0
  -65.9400   37.4554  -20.9144 O   0  0  0  0  0  0  0  0  0  0  0  0
  -66.2683   37.8267  -23.1265 O   0  0  0  0  0  0  0  0  0  0  0  0
  -64.5824   33.5482  -21.8800 C   0  0  0  0  0  0  0  0  0  0  0  0
  -64.1292   30.8162  -22.6501 O   0  0  0  0  0  0  0  0  0  0  0  0
  -64.1000   31.3585  -24.8833 N   0  0  0  0  0  0  0  0  0  0  0  0
  -62.7535   28.7432  -27.1626 C   0  0  0  0  0  0  0  0  0  0  0  0
  -63.1945   27.6881  -26.6207 O   0  0  0  0  0  0  0  0  0  0  0  0
  -62.0631   28.6984  -28.2700 O   0  0  0  0  0  0  0  0  0  0  0  0
  -61.5937   29.7821  -28.8522 C   0  0  0  0  0  0  0  0  0  0  0  0
  -61.2997   32.1756  -28.9501 C   0  0  0  0  0  0  0  0  0  0  0  0
 14  1  1  0
  1 17  1  0
  1 18  2  0
 11  2  1  0
  2 25  1  0
  2 26  2  0
  3  4  2  0
 26  3  1  0
  5  4  1  0
 25  5  2  0
  6 14  2  0
 19  6  1  0
  7  8  1  0
 10  7  1  0
  7 19  2  0
  8  9  2  0
  9 14  1  0
 10 20  2  0
 21 10  1  0
 11 12  1  0
 13 11  2  0
 12 16  1  0
 15 13  1  0
 13 22  1  0
 15 21  1  0
 16 21  1  0
 22 23  2  0
 22 24  1  0
 24 25  1  0
M  END
$$$$
