
     RDKit          3D

 26 29  0  0  0  0  0  0  0  0999 V2000
  -67.2623   33.6088  -20.0062 C   0  0  0  0  0  0  0  0  0  0  0  0
  -62.4891   30.9989  -28.9997 C   0  0  0  0  0  0  0  0  0  0  0  0
  -61.9373   29.7045  -30.9782 C   0  0  0  0  0  0  0  0  0  0  0  0
  -60.8502   30.5323  -31.1489 C   0  0  0  0  0  0  0  0  0  0  0  0
  -60.5752   31.5662  -30.2827 C   0  0  0  0  0  0  0  0  0  0  0  0
  -66.6377   33.2167  -22.3755 C   0  0  0  0  0  0  0  0  0  0  0  0
  -64.8270   31.7543  -22.9642 C   0  0  0  0  0  0  0  0  0  0  0  0
  -64.6339   31.5230  -21.6069 C   0  0  0  0  0  0  0  0  0  0  0  0
  -65.4219   32.1225  -20.6534 C   0  0  0  0  0  0  0  0  0  0  0  0
  -63.9500   31.0865  -23.9105 C   0  0  0  0  0  0  0  0  0  0  0  0
  -63.2740   31.2633  -27.9262 C   0  0  0  0  0  0  0  0  0  0  0  0
  -64.4698   30.4506  -27.6108 C   0  0  0  0  0  0  0  0  0  0  0  0
  -62.9454   32.3328  -27.0769 C   0  0  0  0  0  0  0  0  0  0  0  0
  -66.4342   32.9776  -21.0339 C   0  0  0  0  0  0  0  0  0  0  0  0
  -63.8678   32.5487  -25.9362 C   0  0  0  0  0  0  0  0  0  0  0  0
  -64.3323   30.0964  -26.1169 C   0  0  0  0  0  0  0  0  0  0  0  0
  -68.1975   34.5645  -20.3715 O   0  0  0  0  0  0  0  0  0  0  0  0
  -67.1252   33.2865  -18.8104 O   0  0  0  0  0  0  0  0  0  0  0  0
  -65.8440   32.6122  -23.3241 C   0  0  0  0  0  0  0  0  0  0  0  0
  -63.0716   30.3329  -23.4081 O   0  0  0  0  0  0  0  0  0  0  0  0
  -64.0471   31.2478  -25.3068 N   0  0  0  0  0  0  0  0  0  0  0  0
  -61.8404   33.1014  -27.3307 C   0  0  0  0  0  0  0  0  0  0  0  0
  -61.5650   34.0682  -26.5408 O   0  0  0  0  0  0  0  0  0  0  0  0
  -61.0957   32.8279  -28.3733 O   0  0  0  0  0  0  0  0  0  0  0  0
  -61.3768   31.8263  -29.1964 C   0  0  0  0  0  0  0  0  0  0  0  0
  -62.7540   29.9714  -29.8693 C   0  0  0  0  0  0  0  0  0  0  0  0
 14  1  1  0
  1 17  1  0
  1 18  2  0
 11  2  1  0
  2 25  1  0
  2 26  2  0
  3  4  2  0
 26  3  1  0
  5  4  1  0
 25  5  2  0
  6 14  2  0
 19  6  1  0
  7  8  1  0
 10  7  1  0
  7 19  2  0
  8  9  2  0
  9 14  1  0
 10 20  2  0
 21 10  1  0
 12 11  1  1
 13 11  2  0
 12 16  1  0
 15 13  1  0
 13 22  1  0
 15 21  1  6
 16 21  1  6
 22 23  2  0
 22 24  1  0
 24 25  1  0
M  END
$$$$
