
     RDKit          3D

 26 29  0  0  0  0  0  0  0  0999 V2000
  -68.3752   31.6112  -22.9876 C   0  0  0  0  0  0  0  0  0  0  0  0
  -61.5344   31.1224  -30.3409 C   0  0  0  0  0  0  0  0  0  0  0  0
  -61.2806   32.4964  -32.2629 C   0  0  0  0  0  0  0  0  0  0  0  0
  -60.5485   31.4829  -32.8622 C   0  0  0  0  0  0  0  0  0  0  0  0
  -60.3000   30.2947  -32.2253 C   0  0  0  0  0  0  0  0  0  0  0  0
  -65.9066   31.8388  -22.9434 C   0  0  0  0  0  0  0  0  0  0  0  0
  -64.4779   30.8735  -24.5776 C   0  0  0  0  0  0  0  0  0  0  0  0
  -65.6096   30.3623  -25.2084 C   0  0  0  0  0  0  0  0  0  0  0  0
  -66.8559   30.6044  -24.6883 C   0  0  0  0  0  0  0  0  0  0  0  0
  -63.1811   30.5842  -25.1773 C   0  0  0  0  0  0  0  0  0  0  0  0
  -62.0161   30.8893  -29.0489 C   0  0  0  0  0  0  0  0  0  0  0  0
  -62.8260   31.8995  -28.3236 C   0  0  0  0  0  0  0  0  0  0  0  0
  -61.7144   29.6684  -28.4882 C   0  0  0  0  0  0  0  0  0  0  0  0
  -67.0636   31.3450  -23.5456 C   0  0  0  0  0  0  0  0  0  0  0  0
  -62.1726   29.3540  -27.1195 C   0  0  0  0  0  0  0  0  0  0  0  0
  -63.8564   31.1054  -27.4878 C   0  0  0  0  0  0  0  0  0  0  0  0
  -69.5044   31.0415  -23.5417 O   0  0  0  0  0  0  0  0  0  0  0  0
  -68.4980   32.3606  -21.9969 O   0  0  0  0  0  0  0  0  0  0  0  0
  -64.6540   31.6120  -23.4408 C   0  0  0  0  0  0  0  0  0  0  0  0
  -62.1543   30.5487  -24.4600 O   0  0  0  0  0  0  0  0  0  0  0  0
  -63.0637   30.3426  -26.5606 N   0  0  0  0  0  0  0  0  0  0  0  0
  -60.9670   28.6875  -29.1515 C   0  0  0  0  0  0  0  0  0  0  0  0
  -60.7142   27.5783  -28.5973 O   0  0  0  0  0  0  0  0  0  0  0  0
  -60.5418   28.9553  -30.3567 O   0  0  0  0  0  0  0  0  0  0  0  0
  -60.7918   30.1019  -30.9537 C   0  0  0  0  0  0  0  0  0  0  0  0
  -61.7777   32.3047  -30.9815 C   0  0  0  0  0  0  0  0  0  0  0  0
 14  1  1  0
  1 17  1  0
  1 18  2  0
 11  2  1  0
  2 25  1  0
  2 26  2  0
  3  4  2  0
 26  3  1  0
  5  4  1  0
 25  5  2  0
  6 14  2  0
 19  6  1  0
  7  8  1  0
 10  7  1  0
  7 19  2  0
  8  9  2  0
  9 14  1  0
 10 20  2  0
 21 10  1  0
 11 12  1  0
 13 11  2  0
 12 16  1  0
 15 13  1  0
 13 22  1  0
 15 21  1  0
 16 21  1  0
 22 23  2  0
 22 24  1  0
 24 25  1  0
M  END
$$$$
