
     RDKit          3D

 26 29  0  0  0  0  0  0  0  0999 V2000
  -65.4442   35.8466  -18.6096 C   0  0  0  0  0  0  0  0  0  0  0  0
  -62.7580   31.7874  -27.4968 C   0  0  0  0  0  0  0  0  0  0  0  0
  -62.4287   30.8308  -29.6469 C   0  0  0  0  0  0  0  0  0  0  0  0
  -61.4111   31.7451  -29.8724 C   0  0  0  0  0  0  0  0  0  0  0  0
  -61.0552   32.6790  -28.9341 C   0  0  0  0  0  0  0  0  0  0  0  0
  -65.5831   33.5290  -19.4797 C   0  0  0  0  0  0  0  0  0  0  0  0
  -65.6485   33.0068  -21.7963 C   0  0  0  0  0  0  0  0  0  0  0  0
  -65.5821   34.3717  -22.0658 C   0  0  0  0  0  0  0  0  0  0  0  0
  -65.5181   35.2746  -21.0347 C   0  0  0  0  0  0  0  0  0  0  0  0
  -65.7136   32.0959  -22.9325 C   0  0  0  0  0  0  0  0  0  0  0  0
  -63.4176   31.8510  -26.2654 C   0  0  0  0  0  0  0  0  0  0  0  0
  -64.5086   30.9081  -25.9145 C   0  0  0  0  0  0  0  0  0  0  0  0
  -62.9939   32.8235  -25.3873 C   0  0  0  0  0  0  0  0  0  0  0  0
  -65.5150   34.9031  -19.7083 C   0  0  0  0  0  0  0  0  0  0  0  0
  -63.6533   32.9658  -24.0731 C   0  0  0  0  0  0  0  0  0  0  0  0
  -64.3734   30.6390  -24.3978 C   0  0  0  0  0  0  0  0  0  0  0  0
  -65.4367   35.4043  -17.3016 O   0  0  0  0  0  0  0  0  0  0  0  0
  -65.3888   37.0731  -18.8352 O   0  0  0  0  0  0  0  0  0  0  0  0
  -65.6478   32.6092  -20.4884 C   0  0  0  0  0  0  0  0  0  0  0  0
  -66.7682   31.4603  -23.1649 O   0  0  0  0  0  0  0  0  0  0  0  0
  -64.6012   31.9176  -23.7789 N   0  0  0  0  0  0  0  0  0  0  0  0
  -61.9571   33.7177  -25.6807 C   0  0  0  0  0  0  0  0  0  0  0  0
  -61.6001   34.5957  -24.8424 O   0  0  0  0  0  0  0  0  0  0  0  0
  -61.3736   33.6148  -26.8443 O   0  0  0  0  0  0  0  0  0  0  0  0
  -61.7276   32.7100  -27.7328 C   0  0  0  0  0  0  0  0  0  0  0  0
  -63.1078   30.8596  -28.4370 C   0  0  0  0  0  0  0  0  0  0  0  0
 14  1  1  0
  1 17  1  0
  1 18  2  0
 11  2  1  0
  2 25  1  0
  2 26  2  0
  3  4  2  0
 26  3  1  0
  5  4  1  0
 25  5  2  0
  6 14  2  0
 19  6  1  0
  7  8  1  0
 10  7  1  0
  7 19  2  0
  8  9  2  0
  9 14  1  0
 10 20  2  0
 21 10  1  0
 11 12  1  0
 13 11  2  0
 12 16  1  0
 15 13  1  0
 13 22  1  0
 15 21  1  0
 16 21  1  0
 22 23  2  0
 22 24  1  0
 24 25  1  0
M  END
$$$$
