
     RDKit          3D

 26 29  0  0  0  0  0  0  0  0999 V2000
  -66.3373   34.4457  -19.3696 C   0  0  0  0  0  0  0  0  0  0  0  0
  -62.5908   32.2438  -28.7099 C   0  0  0  0  0  0  0  0  0  0  0  0
  -62.8933   33.2763  -30.8862 C   0  0  0  0  0  0  0  0  0  0  0  0
  -62.5430   32.0683  -31.4466 C   0  0  0  0  0  0  0  0  0  0  0  0
  -62.2233   30.9714  -30.6789 C   0  0  0  0  0  0  0  0  0  0  0  0
  -64.4922   33.7984  -20.8974 C   0  0  0  0  0  0  0  0  0  0  0  0
  -64.8352   32.2152  -22.6694 C   0  0  0  0  0  0  0  0  0  0  0  0
  -66.1595   32.1131  -22.2590 C   0  0  0  0  0  0  0  0  0  0  0  0
  -66.6427   32.8347  -21.1935 C   0  0  0  0  0  0  0  0  0  0  0  0
  -64.3991   31.4166  -23.8020 C   0  0  0  0  0  0  0  0  0  0  0  0
  -62.6017   32.2888  -27.3549 C   0  0  0  0  0  0  0  0  0  0  0  0
  -62.9689   33.5166  -26.6147 C   0  0  0  0  0  0  0  0  0  0  0  0
  -62.2649   31.1385  -26.6226 C   0  0  0  0  0  0  0  0  0  0  0  0
  -65.8074   33.6864  -20.5024 C   0  0  0  0  0  0  0  0  0  0  0  0
  -62.2966   31.2884  -25.1477 C   0  0  0  0  0  0  0  0  0  0  0  0
  -64.0104   33.0617  -25.5732 C   0  0  0  0  0  0  0  0  0  0  0  0
  -65.4848   35.2392  -18.6180 O   0  0  0  0  0  0  0  0  0  0  0  0
  -67.5485   34.3770  -19.0851 O   0  0  0  0  0  0  0  0  0  0  0  0
  -64.0163   33.0720  -21.9656 C   0  0  0  0  0  0  0  0  0  0  0  0
  -64.8071   30.2229  -23.8220 O   0  0  0  0  0  0  0  0  0  0  0  0
  -63.5734   31.9126  -24.8303 N   0  0  0  0  0  0  0  0  0  0  0  0
  -61.9292   29.9803  -27.2725 C   0  0  0  0  0  0  0  0  0  0  0  0
  -61.6274   28.9483  -26.5808 O   0  0  0  0  0  0  0  0  0  0  0  0
  -61.9257   29.9589  -28.5824 O   0  0  0  0  0  0  0  0  0  0  0  0
  -62.2377   31.0267  -29.3052 C   0  0  0  0  0  0  0  0  0  0  0  0
  -62.9075   33.3308  -29.4846 C   0  0  0  0  0  0  0  0  0  0  0  0
 14  1  1  0
  1 17  1  0
  1 18  2  0
 11  2  1  0
  2 25  1  0
  2 26  2  0
  3  4  2  0
 26  3  1  0
  5  4  1  0
 25  5  2  0
  6 14  2  0
 19  6  1  0
  7  8  1  0
 10  7  1  0
  7 19  2  0
  8  9  2  0
  9 14  1  0
 10 20  2  0
 21 10  1  0
 12 11  1  1
 13 11  2  0
 12 16  1  0
 15 13  1  0
 13 22  1  0
 15 21  1  6
 16 21  1  6
 22 23  2  0
 22 24  1  0
 24 25  1  0
M  END
$$$$
