
     RDKit          3D

 26 29  0  0  0  0  0  0  0  0999 V2000
  -66.0847   37.4278  -22.5915 C   0  0  0  0  0  0  0  0  0  0  0  0
  -61.7864   31.0311  -28.6801 C   0  0  0  0  0  0  0  0  0  0  0  0
  -60.6650   31.7372  -30.6525 C   0  0  0  0  0  0  0  0  0  0  0  0
  -60.5507   30.4095  -31.0350 C   0  0  0  0  0  0  0  0  0  0  0  0
  -61.0414   29.3883  -30.2633 C   0  0  0  0  0  0  0  0  0  0  0  0
  -64.5806   35.9525  -23.8987 C   0  0  0  0  0  0  0  0  0  0  0  0
  -64.4200   33.6090  -23.5440 C   0  0  0  0  0  0  0  0  0  0  0  0
  -65.3694   33.7366  -22.5329 C   0  0  0  0  0  0  0  0  0  0  0  0
  -65.8963   34.9678  -22.2347 C   0  0  0  0  0  0  0  0  0  0  0  0
  -63.8974   32.2757  -23.8161 C   0  0  0  0  0  0  0  0  0  0  0  0
  -62.4263   31.2968  -27.4654 C   0  0  0  0  0  0  0  0  0  0  0  0
  -62.6180   32.6829  -26.9709 C   0  0  0  0  0  0  0  0  0  0  0  0
  -62.8837   30.2081  -26.7571 C   0  0  0  0  0  0  0  0  0  0  0  0
  -65.5332   36.1214  -22.8943 C   0  0  0  0  0  0  0  0  0  0  0  0
  -63.5544   30.4059  -25.4560 C   0  0  0  0  0  0  0  0  0  0  0  0
  -63.9815   32.6947  -26.2417 C   0  0  0  0  0  0  0  0  0  0  0  0
  -67.1021   37.5653  -21.6683 O   0  0  0  0  0  0  0  0  0  0  0  0
  -65.6439   38.4457  -23.1641 O   0  0  0  0  0  0  0  0  0  0  0  0
  -64.0402   34.7377  -24.2152 C   0  0  0  0  0  0  0  0  0  0  0  0
  -63.5177   31.5476  -22.8696 O   0  0  0  0  0  0  0  0  0  0  0  0
  -63.8115   31.7899  -25.1360 N   0  0  0  0  0  0  0  0  0  0  0  0
  -62.7335   28.8893  -27.2031 C   0  0  0  0  0  0  0  0  0  0  0  0
  -63.1707   27.9187  -26.5190 O   0  0  0  0  0  0  0  0  0  0  0  0
  -62.1295   28.6962  -28.3446 O   0  0  0  0  0  0  0  0  0  0  0  0
  -61.6661   29.6898  -29.0737 C   0  0  0  0  0  0  0  0  0  0  0  0
  -61.2942   32.0439  -29.4542 C   0  0  0  0  0  0  0  0  0  0  0  0
 14  1  1  0
  1 17  1  0
  1 18  2  0
 11  2  1  0
  2 25  1  0
  2 26  2  0
  3  4  2  0
 26  3  1  0
  5  4  1  0
 25  5  2  0
  6 14  2  0
 19  6  1  0
  7  8  1  0
 10  7  1  0
  7 19  2  0
  8  9  2  0
  9 14  1  0
 10 20  2  0
 21 10  1  0
 11 12  1  0
 13 11  2  0
 12 16  1  0
 15 13  1  0
 13 22  1  0
 15 21  1  0
 16 21  1  0
 22 23  2  0
 22 24  1  0
 24 25  1  0
M  END
$$$$
