
     RDKit          3D

 26 29  0  0  0  0  0  0  0  0999 V2000
  -67.5392   33.1812  -21.1014 C   0  0  0  0  0  0  0  0  0  0  0  0
  -62.0120   31.0878  -29.3522 C   0  0  0  0  0  0  0  0  0  0  0  0
  -61.6357   32.2735  -31.3768 C   0  0  0  0  0  0  0  0  0  0  0  0
  -61.3234   31.0724  -31.9950 C   0  0  0  0  0  0  0  0  0  0  0  0
  -61.3484   29.8809  -31.3176 C   0  0  0  0  0  0  0  0  0  0  0  0
  -65.0955   32.8655  -21.3780 C   0  0  0  0  0  0  0  0  0  0  0  0
  -64.1281   31.7223  -23.2222 C   0  0  0  0  0  0  0  0  0  0  0  0
  -65.4136   31.5104  -23.7148 C   0  0  0  0  0  0  0  0  0  0  0  0
  -66.5016   31.9822  -23.0249 C   0  0  0  0  0  0  0  0  0  0  0  0
  -63.0116   31.1987  -23.9994 C   0  0  0  0  0  0  0  0  0  0  0  0
  -62.3570   31.0425  -27.9977 C   0  0  0  0  0  0  0  0  0  0  0  0
  -62.7262   32.2670  -27.2447 C   0  0  0  0  0  0  0  0  0  0  0  0
  -62.3518   29.8019  -27.4002 C   0  0  0  0  0  0  0  0  0  0  0  0
  -66.3980   32.6743  -21.8384 C   0  0  0  0  0  0  0  0  0  0  0  0
  -62.6876   29.6740  -25.9674 C   0  0  0  0  0  0  0  0  0  0  0  0
  -63.8179   31.8393  -26.2367 C   0  0  0  0  0  0  0  0  0  0  0  0
  -67.3609   33.9115  -19.9433 O   0  0  0  0  0  0  0  0  0  0  0  0
  -68.6991   32.9621  -21.5075 O   0  0  0  0  0  0  0  0  0  0  0  0
  -63.9953   32.4058  -22.0458 C   0  0  0  0  0  0  0  0  0  0  0  0
  -61.9008   31.0117  -23.4506 O   0  0  0  0  0  0  0  0  0  0  0  0
  -63.1631   30.8980  -25.3677 N   0  0  0  0  0  0  0  0  0  0  0  0
  -62.0244   28.6258  -28.0859 C   0  0  0  0  0  0  0  0  0  0  0  0
  -62.0336   27.5062  -27.4961 O   0  0  0  0  0  0  0  0  0  0  0  0
  -61.7107   28.7233  -29.3496 O   0  0  0  0  0  0  0  0  0  0  0  0
  -61.6938   29.8766  -29.9847 C   0  0  0  0  0  0  0  0  0  0  0  0
  -61.9844   32.2720  -30.0336 C   0  0  0  0  0  0  0  0  0  0  0  0
 14  1  1  0
  1 17  1  0
  1 18  2  0
 11  2  1  0
  2 25  1  0
  2 26  2  0
  3  4  2  0
 26  3  1  0
  5  4  1  0
 25  5  2  0
  6 14  2  0
 19  6  1  0
  7  8  1  0
 10  7  1  0
  7 19  2  0
  8  9  2  0
  9 14  1  0
 10 20  2  0
 21 10  1  0
 11 12  1  0
 13 11  2  0
 12 16  1  0
 15 13  1  0
 13 22  1  0
 15 21  1  0
 16 21  1  0
 22 23  2  0
 22 24  1  0
 24 25  1  0
M  END
$$$$
