
     RDKit          3D

 26 29  0  0  0  0  0  0  0  0999 V2000
  -63.4268   25.1503  -27.2710 C   0  0  0  0  0  0  0  0  0  0  0  0
  -64.9396   33.3905  -23.4733 C   0  0  0  0  0  0  0  0  0  0  0  0
  -66.3932   33.3098  -21.5953 C   0  0  0  0  0  0  0  0  0  0  0  0
  -66.0494   34.6205  -21.3021 C   0  0  0  0  0  0  0  0  0  0  0  0
  -65.1620   35.3266  -22.0725 C   0  0  0  0  0  0  0  0  0  0  0  0
  -64.2196   27.4927  -27.4514 C   0  0  0  0  0  0  0  0  0  0  0  0
  -62.7583   29.3653  -27.4907 C   0  0  0  0  0  0  0  0  0  0  0  0
  -61.6869   28.4821  -27.3811 C   0  0  0  0  0  0  0  0  0  0  0  0
  -61.9134   27.1308  -27.3101 C   0  0  0  0  0  0  0  0  0  0  0  0
  -62.4556   30.7894  -27.5633 C   0  0  0  0  0  0  0  0  0  0  0  0
  -64.3432   32.8054  -24.5948 C   0  0  0  0  0  0  0  0  0  0  0  0
  -64.6548   31.4146  -25.0084 C   0  0  0  0  0  0  0  0  0  0  0  0
  -63.4627   33.5897  -25.3059 C   0  0  0  0  0  0  0  0  0  0  0  0
  -63.1740   26.5763  -27.3417 C   0  0  0  0  0  0  0  0  0  0  0  0
  -62.7786   33.0371  -26.4927 C   0  0  0  0  0  0  0  0  0  0  0  0
  -64.6159   31.4065  -26.5541 C   0  0  0  0  0  0  0  0  0  0  0  0
  -64.7143   24.6589  -27.3560 O   0  0  0  0  0  0  0  0  0  0  0  0
  -62.4799   24.3489  -27.1323 O   0  0  0  0  0  0  0  0  0  0  0  0
  -64.0212   28.8429  -27.5236 C   0  0  0  0  0  0  0  0  0  0  0  0
  -61.4744   31.1868  -28.2338 O   0  0  0  0  0  0  0  0  0  0  0  0
  -63.2544   31.7323  -26.8863 N   0  0  0  0  0  0  0  0  0  0  0  0
  -63.1595   34.9102  -24.9522 C   0  0  0  0  0  0  0  0  0  0  0  0
  -62.3440   35.5947  -25.6361 O   0  0  0  0  0  0  0  0  0  0  0  0
  -63.7446   35.4090  -23.8968 O   0  0  0  0  0  0  0  0  0  0  0  0
  -64.5960   34.7164  -23.1695 C   0  0  0  0  0  0  0  0  0  0  0  0
  -65.8244   32.6926  -22.7005 C   0  0  0  0  0  0  0  0  0  0  0  0
 14  1  1  0
  1 17  1  0
  1 18  2  0
 11  2  1  0
  2 25  1  0
  2 26  2  0
  3  4  2  0
 26  3  1  0
  5  4  1  0
 25  5  2  0
  6 14  2  0
 19  6  1  0
  7  8  1  0
 10  7  1  0
  7 19  2  0
  8  9  2  0
  9 14  1  0
 10 20  2  0
 21 10  1  0
 11 12  1  0
 13 11  2  0
 12 16  1  0
 15 13  1  0
 13 22  1  0
 15 21  1  0
 16 21  1  0
 22 23  2  0
 22 24  1  0
 24 25  1  0
M  END
$$$$
