
     RDKit          3D

 49 55  0  0  0  0  0  0  0  0999 V2000
    3.2846    3.7109   19.3589 C   0  0  0  0  0  0  0  0  0  0  0  0
    2.7498    5.0555   19.3728 C   0  0  0  0  0  0  0  0  0  0  0  0
    0.6024    4.1785   18.5296 C   0  0  0  0  0  0  0  0  0  0  0  0
    1.0654    2.9662   18.5096 C   0  0  0  0  0  0  0  0  0  0  0  0
   -0.7537    4.5320   18.1380 C   0  0  0  0  0  0  0  0  0  0  0  0
    0.2325    1.8341   18.0798 C   0  0  0  0  0  0  0  0  0  0  0  0
   -1.5921    5.3858   18.7780 C   0  0  0  0  0  0  0  0  0  0  0  0
   -2.8698    5.6555   18.2713 C   0  0  0  0  0  0  0  0  0  0  0  0
   -3.3120    5.0643   17.1150 C   0  0  0  0  0  0  0  0  0  0  0  0
   -2.4796    4.1959   16.4512 C   0  0  0  0  0  0  0  0  0  0  0  0
   -1.2428    3.9457   16.9566 C   0  0  0  0  0  0  0  0  0  0  0  0
    0.1125    0.6586   18.7209 C   0  0  0  0  0  0  0  0  0  0  0  0
   -0.7011   -0.3566   18.1859 C   0  0  0  0  0  0  0  0  0  0  0  0
   -1.3961   -0.2064   17.0172 C   0  0  0  0  0  0  0  0  0  0  0  0
   -1.2636    1.0062   16.3707 C   0  0  0  0  0  0  0  0  0  0  0  0
   -0.4730    2.0075   16.8792 C   0  0  0  0  0  0  0  0  0  0  0  0
   -2.2696   -1.2652   16.4608 C   0  0  0  0  0  0  0  0  0  0  0  0
   -3.2743   -2.1965   14.4658 C   0  0  0  0  0  0  0  0  0  0  0  0
   -4.7763   -2.0102   14.2093 C   0  0  0  0  0  0  0  0  0  0  0  0
   -5.3633   -1.5601   15.5334 C   0  0  1  0  0  0  0  0  0  0  0  0
   -4.9880   -0.0880   15.6347 C   0  0  0  0  0  0  0  0  0  0  0  0
   -3.6000    0.1336   15.0280 C   0  0  0  0  0  0  0  0  0  0  0  0
   -7.6437   -1.0414   16.3199 C   0  0  0  0  0  0  0  0  0  0  0  0
   -8.7534   -2.8027   15.6147 C   0  0  0  0  0  0  0  0  0  0  0  0
   -7.4121   -2.8995   15.2581 C   0  0  0  0  0  0  0  0  0  0  0  0
   -9.6728   -3.7844   15.2943 C   0  0  0  0  0  0  0  0  0  0  0  0
   -9.2484   -4.8869   14.6040 C   0  0  0  0  0  0  0  0  0  0  0  0
   -7.9241   -5.0433   14.2189 C   0  0  0  0  0  0  0  0  0  0  0  0
   -7.0376   -4.0452   14.5555 C   0  0  0  0  0  0  0  0  0  0  0  0
   -7.0885   -7.3314   14.2188 C   0  0  0  0  0  0  0  0  0  0  0  0
   -6.3366   -8.4570   13.6172 C   0  0  0  0  0  0  0  0  0  0  0  0
   -5.4705   -9.1542   14.6575 C   0  0  0  0  0  0  0  0  0  0  0  0
    4.4759    3.3816   19.7626 C   0  0  0  0  0  0  0  0  0  0  0  0
    5.2815    2.2542   19.3807 C   0  0  0  0  0  0  0  0  0  0  0  0
    6.5128    2.3465   18.7793 C   0  0  0  0  0  0  0  0  0  0  0  0
    7.2142    1.2238   18.4234 C   0  0  0  0  0  0  0  0  0  0  0  0
    6.7225   -0.0598   18.6514 C   0  0  0  0  0  0  0  0  0  0  0  0
    5.4844   -0.1221   19.2577 C   0  0  0  0  0  0  0  0  0  0  0  0
    4.7683    0.9894   19.6197 C   0  0  0  0  0  0  0  0  0  0  0  0
    1.4115    5.3007   18.9614 N   0  0  0  0  0  0  0  0  0  0  0  0
    2.4206    2.6497   18.9167 N   0  0  0  0  0  0  0  0  0  0  0  0
   -2.7516   -1.0199   15.1385 N   0  0  1  0  0  4  0  0  0  0  0  0
   -6.7523   -1.8177   15.6964 N   0  0  0  0  0  0  0  0  0  0  0  0
   -8.8508   -1.6434   16.2662 N   0  0  0  0  0  0  0  0  0  0  0  0
   -7.4697   -6.1748   13.5074 N   0  0  0  0  0  0  0  0  0  0  0  0
   -7.4046   -7.4162   15.4398 O   0  0  0  0  0  0  0  0  0  0  0  0
   -7.5147    0.0797   16.9005 O   0  0  0  0  0  0  0  0  0  0  0  0
    3.4919    6.0009   19.7514 O   0  0  0  0  0  0  0  0  0  0  0  0
    7.4462   -1.1871   18.2855 O   0  0  0  0  0  0  0  0  0  0  0  0
  1  2  1  0
  1 33  2  0
 41  1  1  0
 40  2  1  0
  2 48  2  0
  4  3  2  0
  3  5  1  0
  3 40  1  0
  6  4  1  0
  4 41  1  0
  5  7  2  0
  5 11  1  0
 12  6  2  0
 16  6  1  0
  7  8  1  0
  8  9  2  0
 10  9  1  0
 11 10  2  0
 13 12  1  0
 14 13  2  0
 14 15  1  0
 17 14  1  1
 15 16  2  0
 42 17  1  1
 19 18  1  1
 18 42  1  6
 20 19  1  0
 21 20  1  1
 20 43  1  6
 22 21  1  1
 22 42  1  0
 43 23  1  0
 23 44  1  0
 23 47  2  0
 25 24  2  0
 26 24  1  0
 24 44  1  0
 29 25  1  0
 25 43  1  0
 27 26  2  0
 28 27  1  0
 28 29  2  0
 45 28  1  0
 31 30  1  1
 30 45  1  0
 30 46  2  0
 32 31  1  6
 33 34  1  0
 34 35  2  0
 34 39  1  0
 35 36  1  0
 36 37  2  0
 37 38  1  0
 37 49  1  0
 38 39  2  0
M  CHG  1  42   1
M  END
$$$$
