
     RDKit          3D

 49 55  0  0  0  0  0  0  0  0999 V2000
   -7.2106   -0.9077   16.0294 C   0  0  0  0  0  0  0  0  0  0  0  0
   -7.7021    0.0437   17.0029 C   0  0  0  0  0  0  0  0  0  0  0  0
   -5.4430    1.0286   17.1372 C   0  0  0  0  0  0  0  0  0  0  0  0
   -4.9844    0.1826   16.2663 C   0  0  0  0  0  0  0  0  0  0  0  0
   -4.6341    2.0654   17.7600 C   0  0  0  0  0  0  0  0  0  0  0  0
   -3.5798    0.2118   15.8346 C   0  0  0  0  0  0  0  0  0  0  0  0
   -3.8932    3.0119   17.1299 C   0  0  0  0  0  0  0  0  0  0  0  0
   -3.1794    3.9713   17.8593 C   0  0  0  0  0  0  0  0  0  0  0  0
   -3.2066    3.9822   19.2309 C   0  0  0  0  0  0  0  0  0  0  0  0
   -3.9497    3.0325   19.8892 C   0  0  0  0  0  0  0  0  0  0  0  0
   -4.6367    2.1090   19.1659 C   0  0  0  0  0  0  0  0  0  0  0  0
   -3.0944   -0.3249   14.7017 C   0  0  0  0  0  0  0  0  0  0  0  0
   -1.7184   -0.2502   14.4191 C   0  0  0  0  0  0  0  0  0  0  0  0
   -0.8245    0.3568   15.2580 C   0  0  0  0  0  0  0  0  0  0  0  0
   -1.3378    0.9039   16.4170 C   0  0  0  0  0  0  0  0  0  0  0  0
   -2.6785    0.8392   16.7081 C   0  0  0  0  0  0  0  0  0  0  0  0
    0.6218    0.4554   14.9548 C   0  0  0  0  0  0  0  0  0  0  0  0
    1.3966    2.2840   13.5719 C   0  0  0  0  0  0  0  0  0  0  0  0
    2.8522    2.3094   13.0851 C   0  0  0  0  0  0  0  0  0  0  0  0
    3.5858    1.2940   13.9402 C   0  0  1  0  0  0  0  0  0  0  0  0
    3.1950   -0.0537   13.3493 C   0  0  0  0  0  0  0  0  0  0  0  0
    1.7394   -0.0076   12.8773 C   0  0  0  0  0  0  0  0  0  0  0  0
    5.7956    1.0322   15.0061 C   0  0  0  0  0  0  0  0  0  0  0  0
    7.0727    2.1847   13.6381 C   0  0  0  0  0  0  0  0  0  0  0  0
    5.7522    2.2034   13.2005 C   0  0  0  0  0  0  0  0  0  0  0  0
    8.0829    2.8387   12.9573 C   0  0  0  0  0  0  0  0  0  0  0  0
    7.7725    3.5267   11.8161 C   0  0  0  0  0  0  0  0  0  0  0  0
    6.4748    3.5837   11.3269 C   0  0  0  0  0  0  0  0  0  0  0  0
    5.4955    2.9202   12.0315 C   0  0  0  0  0  0  0  0  0  0  0  0
    4.9668    5.0760   10.1299 C   0  0  0  0  0  0  0  0  0  0  0  0
    4.7407    6.1890    9.1788 C   0  0  0  0  0  0  0  0  0  0  0  0
    3.5006    5.9405    8.3311 C   0  0  0  0  0  0  0  0  0  0  0  0
   -7.9418   -1.7981   15.4270 C   0  0  0  0  0  0  0  0  0  0  0  0
   -7.6524   -2.5536   14.2391 C   0  0  0  0  0  0  0  0  0  0  0  0
   -8.3513   -2.4488   13.0614 C   0  0  0  0  0  0  0  0  0  0  0  0
   -8.0298   -3.2202   11.9749 C   0  0  0  0  0  0  0  0  0  0  0  0
   -6.9856   -4.1424   12.0042 C   0  0  0  0  0  0  0  0  0  0  0  0
   -6.3005   -4.2253   13.1993 C   0  0  0  0  0  0  0  0  0  0  0  0
   -6.6083   -3.4630   14.2963 C   0  0  0  0  0  0  0  0  0  0  0  0
   -6.8285    1.0155   17.5622 N   0  0  0  0  0  0  0  0  0  0  0  0
   -5.8232   -0.8321   15.6587 N   0  0  0  0  0  0  0  0  0  0  0  0
    0.9348    0.9082   13.6365 N   0  0  1  0  0  4  0  0  0  0  0  0
    4.9893    1.4962   14.0466 N   0  0  0  0  0  0  0  0  0  0  0  0
    7.0531    1.4523   14.7522 N   0  0  0  0  0  0  0  0  0  0  0  0
    6.1375    4.2898   10.1518 N   0  0  0  0  0  0  0  0  0  0  0  0
    4.0560    4.8194   10.9680 O   0  0  0  0  0  0  0  0  0  0  0  0
    5.5552    0.3173   16.0268 O   0  0  0  0  0  0  0  0  0  0  0  0
   -8.9134   -0.0086   17.3461 O   0  0  0  0  0  0  0  0  0  0  0  0
   -6.6721   -4.9156   10.8941 O   0  0  0  0  0  0  0  0  0  0  0  0
  1  2  1  0
  1 33  2  0
 41  1  1  0
 40  2  1  0
  2 48  2  0
  4  3  2  0
  3  5  1  0
  3 40  1  0
  6  4  1  0
  4 41  1  0
  5  7  2  0
  5 11  1  0
 12  6  2  0
 16  6  1  0
  7  8  1  0
  8  9  2  0
 10  9  1  0
 11 10  2  0
 13 12  1  0
 14 13  2  0
 14 15  1  0
 17 14  1  1
 15 16  2  0
 42 17  1  1
 19 18  1  1
 18 42  1  6
 20 19  1  0
 21 20  1  1
 20 43  1  6
 22 21  1  1
 22 42  1  0
 43 23  1  0
 23 44  1  0
 23 47  2  0
 25 24  2  0
 26 24  1  0
 24 44  1  0
 29 25  1  0
 25 43  1  0
 27 26  2  0
 28 27  1  0
 28 29  2  0
 45 28  1  0
 31 30  1  1
 30 45  1  0
 30 46  2  0
 32 31  1  6
 33 34  1  0
 34 35  2  0
 34 39  1  0
 35 36  1  0
 36 37  2  0
 37 38  1  0
 37 49  1  0
 38 39  2  0
M  CHG  1  42   1
M  END
$$$$
