
     RDKit          3D

 49 55  0  0  0  0  0  0  0  0999 V2000
    2.1462    0.1313   18.4630 C   0  0  0  0  0  0  0  0  0  0  0  0
    1.2241   -0.9209   18.9371 C   0  0  0  0  0  0  0  0  0  0  0  0
    0.2481   -0.9652   16.6701 C   0  0  0  0  0  0  0  0  0  0  0  0
    1.0477   -0.0355   16.2106 C   0  0  0  0  0  0  0  0  0  0  0  0
   -0.7569   -1.5588   15.7884 C   0  0  0  0  0  0  0  0  0  0  0  0
    1.0040    0.4619   14.8171 C   0  0  0  0  0  0  0  0  0  0  0  0
   -2.1089   -1.3628   15.9693 C   0  0  0  0  0  0  0  0  0  0  0  0
   -2.9774   -1.9559   15.0758 C   0  0  0  0  0  0  0  0  0  0  0  0
   -2.5140   -2.7221   14.0328 C   0  0  0  0  0  0  0  0  0  0  0  0
   -1.1670   -2.9061   13.8690 C   0  0  0  0  0  0  0  0  0  0  0  0
   -0.2650   -2.3311   14.7390 C   0  0  0  0  0  0  0  0  0  0  0  0
    2.1398    0.4988   14.0457 C   0  0  0  0  0  0  0  0  0  0  0  0
    2.1045    0.9480   12.7323 C   0  0  0  0  0  0  0  0  0  0  0  0
    0.9188    1.3749   12.1598 C   0  0  0  0  0  0  0  0  0  0  0  0
   -0.2099    1.3331   12.9465 C   0  0  0  0  0  0  0  0  0  0  0  0
   -0.1826    0.8852   14.2582 C   0  0  0  0  0  0  0  0  0  0  0  0
    0.8496    1.8300   10.7574 C   0  0  0  0  0  0  0  0  0  0  0  0
    2.6310    2.2223    9.2557 C   0  0  0  0  0  0  0  0  0  0  0  0
    3.4562    3.3574    8.6176 C   0  0  0  0  0  0  0  0  0  0  0  0
    2.5444    4.2951    7.8629 C   0  0  1  0  0  0  0  0  0  0  0  0
    1.2061    4.2150    8.5090 C   0  0  0  0  0  0  0  0  0  0  0  0
    1.3346    4.0741   10.0319 C   0  0  0  0  0  0  0  0  0  0  0  0
    3.9541    6.2467    8.4679 C   0  0  0  0  0  0  0  0  0  0  0  0
    3.4666    7.5705    6.7773 C   0  0  0  0  0  0  0  0  0  0  0  0
    2.7463    6.4004    6.6081 C   0  0  0  0  0  0  0  0  0  0  0  0
    3.3288    8.5772    5.8269 C   0  0  0  0  0  0  0  0  0  0  0  0
    2.5026    8.4376    4.7362 C   0  0  0  0  0  0  0  0  0  0  0  0
    1.7774    7.2838    4.5488 C   0  0  0  0  0  0  0  0  0  0  0  0
    1.9240    6.2887    5.5040 C   0  0  0  0  0  0  0  0  0  0  0  0
   -0.4630    7.3038    3.5302 C   0  0  0  0  0  0  0  0  0  0  0  0
   -1.2330    7.8569    2.3702 C   0  0  0  0  0  0  0  0  0  0  0  0
   -2.5606    7.1046    2.3119 C   0  0  0  0  0  0  0  0  0  0  0  0
    2.9910    0.6289   19.3359 C   0  0  0  0  0  0  0  0  0  0  0  0
    4.1415    1.4262   18.9820 C   0  0  0  0  0  0  0  0  0  0  0  0
    4.1051    2.1070   17.7686 C   0  0  0  0  0  0  0  0  0  0  0  0
    5.1578    2.9052   17.3849 C   0  0  0  0  0  0  0  0  0  0  0  0
    6.2473    3.0348   18.1936 C   0  0  0  0  0  0  0  0  0  0  0  0
    6.2720    2.3632   19.3808 C   0  0  0  0  0  0  0  0  0  0  0  0
    5.2274    1.5467   19.8053 C   0  0  0  0  0  0  0  0  0  0  0  0
    0.2903   -1.4465   18.0197 N   0  0  0  0  0  0  0  0  0  0  0  0
    2.0131    0.5263   17.1148 N   0  0  0  0  0  0  0  0  0  0  0  0
    1.8413    2.7579   10.3509 N   0  0  1  0  0  4  0  0  0  0  0  0
    3.0764    5.6138    7.6690 N   0  0  0  0  0  0  0  0  0  0  0  0
    4.1821    7.4451    7.9049 N   0  0  0  0  0  0  0  0  0  0  0  0
    0.9154    7.1006    3.4192 N   0  0  0  0  0  0  0  0  0  0  0  0
   -1.0326    7.0072    4.6340 O   0  0  0  0  0  0  0  0  0  0  0  0
    4.4748    5.8068    9.5501 O   0  0  0  0  0  0  0  0  0  0  0  0
    1.2769   -1.3324   20.1314 O   0  0  0  0  0  0  0  0  0  0  0  0
    7.2936    3.8411   17.7880 O   0  0  0  0  0  0  0  0  0  0  0  0
  1  2  1  0
  1 33  2  0
 41  1  1  0
 40  2  1  0
  2 48  2  0
  4  3  2  0
  3  5  1  0
  3 40  1  0
  6  4  1  0
  4 41  1  0
  5  7  2  0
  5 11  1  0
 12  6  2  0
 16  6  1  0
  7  8  1  0
  8  9  2  0
 10  9  1  0
 11 10  2  0
 13 12  1  0
 14 13  2  0
 14 15  1  0
 17 14  1  0
 15 16  2  0
 42 17  1  6
 19 18  1  0
 18 42  1  0
 20 19  1  0
 20 21  1  0
 20 43  1  1
 21 22  1  0
 22 42  1  0
 43 23  1  0
 23 44  1  0
 23 47  2  0
 25 24  2  0
 26 24  1  0
 24 44  1  0
 29 25  1  0
 25 43  1  0
 27 26  2  0
 28 27  1  0
 28 29  2  0
 45 28  1  0
 30 31  1  0
 30 45  1  0
 30 46  2  0
 31 32  1  0
 33 34  1  0
 34 35  2  0
 34 39  1  0
 35 36  1  0
 36 37  2  0
 37 38  1  0
 37 49  1  0
 38 39  2  0
M  CHG  1  42   1
M  END
$$$$
