
     RDKit          3D

 49 55  0  0  0  0  0  0  0  0999 V2000
    0.9326   -0.3679   17.2365 C   0  0  0  0  0  0  0  0  0  0  0  0
   -0.4879   -0.7713   17.2747 C   0  0  0  0  0  0  0  0  0  0  0  0
   -0.6758   -0.0132   14.9329 C   0  0  0  0  0  0  0  0  0  0  0  0
    0.5784    0.3562   14.8580 C   0  0  0  0  0  0  0  0  0  0  0  0
   -1.5528    0.1564   13.7745 C   0  0  0  0  0  0  0  0  0  0  0  0
    1.1841    0.9433   13.6416 C   0  0  0  0  0  0  0  0  0  0  0  0
   -2.1375   -0.9099   13.1263 C   0  0  0  0  0  0  0  0  0  0  0  0
   -2.9596   -0.6453   12.0499 C   0  0  0  0  0  0  0  0  0  0  0  0
   -3.1928    0.6429   11.6306 C   0  0  0  0  0  0  0  0  0  0  0  0
   -2.6028    1.6900   12.2869 C   0  0  0  0  0  0  0  0  0  0  0  0
   -1.7748    1.4695   13.3671 C   0  0  0  0  0  0  0  0  0  0  0  0
    0.9578    0.3915   12.4044 C   0  0  0  0  0  0  0  0  0  0  0  0
    1.5084    0.9458   11.2565 C   0  0  0  0  0  0  0  0  0  0  0  0
    2.3060    2.0749   11.3258 C   0  0  0  0  0  0  0  0  0  0  0  0
    2.5243    2.6148   12.5730 C   0  0  0  0  0  0  0  0  0  0  0  0
    1.9775    2.0675   13.7233 C   0  0  0  0  0  0  0  0  0  0  0  0
    2.8796    2.6997   10.1177 C   0  0  0  0  0  0  0  0  0  0  0  0
    1.6626    4.7217   10.0068 C   0  0  0  0  0  0  0  0  0  0  0  0
    0.9864    5.6810    9.0073 C   0  0  0  0  0  0  0  0  0  0  0  0
    1.9991    6.1744    8.0018 C   0  0  1  0  0  0  0  0  0  0  0  0
    3.0511    5.1273    7.8935 C   0  0  0  0  0  0  0  0  0  0  0  0
    2.4428    3.7209    7.9815 C   0  0  0  0  0  0  0  0  0  0  0  0
    0.3329    6.1530    6.1619 C   0  0  0  0  0  0  0  0  0  0  0  0
    1.1359    7.7999    4.9408 C   0  0  0  0  0  0  0  0  0  0  0  0
    1.9646    7.6577    6.0406 C   0  0  0  0  0  0  0  0  0  0  0  0
    1.4355    8.7880    4.0081 C   0  0  0  0  0  0  0  0  0  0  0  0
    2.5238    9.6164    4.1526 C   0  0  0  0  0  0  0  0  0  0  0  0
    3.3608    9.4921    5.2373 C   0  0  0  0  0  0  0  0  0  0  0  0
    3.0504    8.5030    6.1589 C   0  0  0  0  0  0  0  0  0  0  0  0
    5.4071   10.1073    6.4585 C   0  0  0  0  0  0  0  0  0  0  0  0
    6.6033   10.9947    6.6198 C   0  0  0  0  0  0  0  0  0  0  0  0
    6.9277   11.0458    8.1112 C   0  0  0  0  0  0  0  0  0  0  0  0
    1.6326   -0.5262   18.3357 C   0  0  0  0  0  0  0  0  0  0  0  0
    2.9371    0.0535   18.5526 C   0  0  0  0  0  0  0  0  0  0  0  0
    3.8972   -0.1315   17.5620 C   0  0  0  0  0  0  0  0  0  0  0  0
    5.1514    0.4177   17.6952 C   0  0  0  0  0  0  0  0  0  0  0  0
    5.4630    1.1492   18.8022 C   0  0  0  0  0  0  0  0  0  0  0  0
    4.5141    1.3244   19.7666 C   0  0  0  0  0  0  0  0  0  0  0  0
    3.2341    0.7859   19.6692 C   0  0  0  0  0  0  0  0  0  0  0  0
   -1.2623   -0.5816   16.1110 N   0  0  0  0  0  0  0  0  0  0  0  0
    1.4006    0.1799   16.0233 N   0  0  0  0  0  0  0  0  0  0  0  0
    1.9911    3.4774    9.3334 N   0  0  1  0  0  4  0  0  0  0  0  0
    1.4339    6.6350    6.7657 N   0  0  0  0  0  0  0  0  0  0  0  0
    0.1652    6.8800    5.0445 N   0  0  0  0  0  0  0  0  0  0  0  0
    4.4970   10.3444    5.4245 N   0  0  0  0  0  0  0  0  0  0  0  0
    5.1877    9.1264    7.2462 O   0  0  0  0  0  0  0  0  0  0  0  0
   -0.4138    5.1944    6.5612 O   0  0  0  0  0  0  0  0  0  0  0  0
   -0.9871   -1.2711   18.3234 O   0  0  0  0  0  0  0  0  0  0  0  0
    6.7291    1.6911   18.9155 O   0  0  0  0  0  0  0  0  0  0  0  0
  1  2  1  0
  1 33  2  0
 41  1  1  0
 40  2  1  0
  2 48  2  0
  4  3  2  0
  3  5  1  0
  3 40  1  0
  6  4  1  0
  4 41  1  0
  5  7  2  0
  5 11  1  0
 12  6  2  0
 16  6  1  0
  7  8  1  0
  8  9  2  0
 10  9  1  0
 11 10  2  0
 13 12  1  0
 14 13  2  0
 14 15  1  0
 17 14  1  0
 15 16  2  0
 42 17  1  1
 19 18  1  0
 18 42  1  0
 20 19  1  0
 20 21  1  0
 20 43  1  6
 21 22  1  0
 22 42  1  0
 43 23  1  0
 23 44  1  0
 23 47  2  0
 25 24  2  0
 26 24  1  0
 24 44  1  0
 29 25  1  0
 25 43  1  0
 27 26  2  0
 28 27  1  0
 28 29  2  0
 45 28  1  0
 30 31  1  0
 30 45  1  0
 30 46  2  0
 31 32  1  0
 33 34  1  0
 34 35  2  0
 34 39  1  0
 35 36  1  0
 36 37  2  0
 37 38  1  0
 37 49  1  0
 38 39  2  0
M  CHG  1  42   1
M  END
$$$$
