
     RDKit          3D

 49 55  0  0  0  0  0  0  0  0999 V2000
    2.4862    0.3309   17.7760 C   0  0  0  0  0  0  0  0  0  0  0  0
    1.6301   -0.6997   18.3983 C   0  0  0  0  0  0  0  0  0  0  0  0
    0.3733   -0.8123   16.2766 C   0  0  0  0  0  0  0  0  0  0  0  0
    1.1096    0.0971   15.6885 C   0  0  0  0  0  0  0  0  0  0  0  0
   -0.7367   -1.4285   15.5500 C   0  0  0  0  0  0  0  0  0  0  0  0
    0.8897    0.5489   14.2961 C   0  0  0  0  0  0  0  0  0  0  0  0
   -1.8981   -0.7473   15.2565 C   0  0  0  0  0  0  0  0  0  0  0  0
   -2.8831   -1.4129   14.5555 C   0  0  0  0  0  0  0  0  0  0  0  0
   -2.7171   -2.7184   14.1584 C   0  0  0  0  0  0  0  0  0  0  0  0
   -1.5563   -3.3794   14.4594 C   0  0  0  0  0  0  0  0  0  0  0  0
   -0.5470   -2.7513   15.1579 C   0  0  0  0  0  0  0  0  0  0  0  0
   -0.3714    0.8510   13.8436 C   0  0  0  0  0  0  0  0  0  0  0  0
   -0.5844    1.2914   12.5441 C   0  0  0  0  0  0  0  0  0  0  0  0
    0.4723    1.4384   11.6624 C   0  0  0  0  0  0  0  0  0  0  0  0
    1.7294    1.1302   12.1307 C   0  0  0  0  0  0  0  0  0  0  0  0
    1.9500    0.6906   13.4268 C   0  0  0  0  0  0  0  0  0  0  0  0
    0.2758    1.9318   10.2851 C   0  0  0  0  0  0  0  0  0  0  0  0
    1.8321    1.9401    8.5074 C   0  0  0  0  0  0  0  0  0  0  0  0
    2.7757    2.8720    7.7214 C   0  0  0  0  0  0  0  0  0  0  0  0
    1.9869    4.0028    7.1055 C   0  0  1  0  0  0  0  0  0  0  0  0
    0.7876    4.2138    7.9611 C   0  0  0  0  0  0  0  0  0  0  0  0
    1.1265    4.0220    9.4457 C   0  0  0  0  0  0  0  0  0  0  0  0
    3.9091    5.5464    7.3953 C   0  0  0  0  0  0  0  0  0  0  0  0
    3.4080    7.0274    5.8449 C   0  0  0  0  0  0  0  0  0  0  0  0
    2.4141    6.0637    5.8338 C   0  0  0  0  0  0  0  0  0  0  0  0
    3.3174    8.0838    4.9440 C   0  0  0  0  0  0  0  0  0  0  0  0
    2.2747    8.1910    4.0535 C   0  0  0  0  0  0  0  0  0  0  0  0
    1.2762    7.2452    4.0256 C   0  0  0  0  0  0  0  0  0  0  0  0
    1.3789    6.1978    4.9293 C   0  0  0  0  0  0  0  0  0  0  0  0
   -1.0237    6.6634    3.3703 C   0  0  0  0  0  0  0  0  0  0  0  0
   -1.8968    6.2162    2.2380 C   0  0  0  0  0  0  0  0  0  0  0  0
   -3.3205    6.1149    2.7807 C   0  0  0  0  0  0  0  0  0  0  0  0
    3.4361    0.8518   18.5174 C   0  0  0  0  0  0  0  0  0  0  0  0
    4.3554    1.8654   18.0569 C   0  0  0  0  0  0  0  0  0  0  0  0
    5.3191    2.3168   18.9541 C   0  0  0  0  0  0  0  0  0  0  0  0
    6.2417    3.2619   18.5695 C   0  0  0  0  0  0  0  0  0  0  0  0
    6.2179    3.7642   17.3027 C   0  0  0  0  0  0  0  0  0  0  0  0
    5.2692    3.3143   16.4316 C   0  0  0  0  0  0  0  0  0  0  0  0
    4.3190    2.3591   16.7816 C   0  0  0  0  0  0  0  0  0  0  0  0
    0.5862   -1.2495   17.6251 N   0  0  0  0  0  0  0  0  0  0  0  0
    2.1832    0.6824   16.4434 N   0  0  0  0  0  0  0  0  0  0  0  0
    1.3706    2.6205    9.7049 N   0  0  1  0  0  4  0  0  0  0  0  0
    2.7619    5.1717    6.8016 N   0  0  0  0  0  0  0  0  0  0  0  0
    4.2910    6.6863    6.7953 N   0  0  0  0  0  0  0  0  0  0  0  0
    0.1813    7.3201    3.1048 N   0  0  0  0  0  0  0  0  0  0  0  0
   -1.3485    6.4618    4.5888 O   0  0  0  0  0  0  0  0  0  0  0  0
    4.5238    4.9466    8.3431 O   0  0  0  0  0  0  0  0  0  0  0  0
    1.8338   -1.0722   19.5892 O   0  0  0  0  0  0  0  0  0  0  0  0
    7.1537    4.7133   16.9380 O   0  0  0  0  0  0  0  0  0  0  0  0
  1  2  1  0
  1 33  2  0
 41  1  1  0
 40  2  1  0
  2 48  2  0
  4  3  2  0
  3  5  1  0
  3 40  1  0
  6  4  1  0
  4 41  1  0
  5  7  2  0
  5 11  1  0
 12  6  2  0
 16  6  1  0
  7  8  1  0
  8  9  2  0
 10  9  1  0
 11 10  2  0
 13 12  1  0
 14 13  2  0
 14 15  1  0
 17 14  1  0
 15 16  2  0
 42 17  1  6
 19 18  1  0
 18 42  1  0
 20 19  1  0
 20 21  1  0
 20 43  1  1
 21 22  1  0
 22 42  1  0
 43 23  1  0
 23 44  1  0
 23 47  2  0
 25 24  2  0
 26 24  1  0
 24 44  1  0
 29 25  1  0
 25 43  1  0
 27 26  2  0
 28 27  1  0
 28 29  2  0
 45 28  1  0
 30 31  1  0
 30 45  1  0
 30 46  2  0
 31 32  1  0
 33 34  1  0
 34 35  2  0
 34 39  1  0
 35 36  1  0
 36 37  2  0
 37 38  1  0
 37 49  1  0
 38 39  2  0
M  CHG  1  42   1
M  END
$$$$
