
     RDKit          3D

 49 55  0  0  0  0  0  0  0  0999 V2000
   -4.7951   -0.1082   18.7173 C   0  0  0  0  0  0  0  0  0  0  0  0
   -5.5033   -1.3604   18.5607 C   0  0  0  0  0  0  0  0  0  0  0  0
   -4.6120   -1.5438   16.2666 C   0  0  0  0  0  0  0  0  0  0  0  0
   -3.9709   -0.4219   16.3885 C   0  0  0  0  0  0  0  0  0  0  0  0
   -4.5824   -2.3648   15.0656 C   0  0  0  0  0  0  0  0  0  0  0  0
   -3.1472    0.1135   15.2954 C   0  0  0  0  0  0  0  0  0  0  0  0
   -3.9186   -3.5359   14.8932 C   0  0  0  0  0  0  0  0  0  0  0  0
   -4.0000   -4.2386   13.6843 C   0  0  0  0  0  0  0  0  0  0  0  0
   -4.7512   -3.7641   12.6389 C   0  0  0  0  0  0  0  0  0  0  0  0
   -5.4308   -2.5799   12.7916 C   0  0  0  0  0  0  0  0  0  0  0  0
   -5.3411   -1.9110   13.9715 C   0  0  0  0  0  0  0  0  0  0  0  0
   -3.5796    0.9116   14.3038 C   0  0  0  0  0  0  0  0  0  0  0  0
   -2.6897    1.3340   13.2996 C   0  0  0  0  0  0  0  0  0  0  0  0
   -1.3721    0.9666   13.2789 C   0  0  0  0  0  0  0  0  0  0  0  0
   -0.9426    0.1475   14.3038 C   0  0  0  0  0  0  0  0  0  0  0  0
   -1.7986   -0.2741   15.2917 C   0  0  0  0  0  0  0  0  0  0  0  0
   -0.4271    1.4252   12.2348 C   0  0  0  0  0  0  0  0  0  0  0  0
    1.5376    0.7162   11.0125 C   0  0  0  0  0  0  0  0  0  0  0  0
    2.7875    1.6072   10.9932 C   0  0  0  0  0  0  0  0  0  0  0  0
    2.3277    2.9652   11.4879 C   0  0  1  0  0  0  0  0  0  0  0  0
    2.2153    2.8017   12.9975 C   0  0  0  0  0  0  0  0  0  0  0  0
    1.7138    1.3935   13.3281 C   0  0  0  0  0  0  0  0  0  0  0  0
    2.7309    5.3109   10.8373 C   0  0  0  0  0  0  0  0  0  0  0  0
    4.8971    5.2885   10.4661 C   0  0  0  0  0  0  0  0  0  0  0  0
    4.4593    4.0281   10.8601 C   0  0  0  0  0  0  0  0  0  0  0  0
    6.2218    5.5471   10.1665 C   0  0  0  0  0  0  0  0  0  0  0  0
    7.1312    4.5291   10.2607 C   0  0  0  0  0  0  0  0  0  0  0  0
    6.7586    3.2495   10.6481 C   0  0  0  0  0  0  0  0  0  0  0  0
    5.4308    3.0299   10.9386 C   0  0  0  0  0  0  0  0  0  0  0  0
    8.6340    2.1962   11.7916 C   0  0  0  0  0  0  0  0  0  0  0  0
    9.3498    0.9876   12.2620 C   0  0  0  0  0  0  0  0  0  0  0  0
   10.7228    1.3456   12.8144 C   0  0  0  0  0  0  0  0  0  0  0  0
   -4.7712    0.6000   19.8074 C   0  0  0  0  0  0  0  0  0  0  0  0
   -4.5420    2.0099   19.9660 C   0  0  0  0  0  0  0  0  0  0  0  0
   -3.9381    2.5813   21.0593 C   0  0  0  0  0  0  0  0  0  0  0  0
   -3.7734    3.9392   21.1496 C   0  0  0  0  0  0  0  0  0  0  0  0
   -4.2036    4.8056   20.1468 C   0  0  0  0  0  0  0  0  0  0  0  0
   -4.8053    4.2039   19.0604 C   0  0  0  0  0  0  0  0  0  0  0  0
   -4.9794    2.8484   18.9532 C   0  0  0  0  0  0  0  0  0  0  0  0
   -5.4185   -2.0862   17.3415 N   0  0  0  0  0  0  0  0  0  0  0  0
   -4.0160    0.3655   17.6052 N   0  0  0  0  0  0  0  0  0  0  0  0
    0.8761    0.8433   12.2995 N   0  0  1  0  0  4  0  0  0  0  0  0
    3.1373    4.0614   11.0814 N   0  0  0  0  0  0  0  0  0  0  0  0
    3.8001    6.0466   10.4661 N   0  0  0  0  0  0  0  0  0  0  0  0
    7.6838    2.1880   10.7493 N   0  0  0  0  0  0  0  0  0  0  0  0
    8.8924    3.2957   12.3592 O   0  0  0  0  0  0  0  0  0  0  0  0
    1.5808    5.8436   10.9022 O   0  0  0  0  0  0  0  0  0  0  0  0
   -6.1966   -1.7908   19.5209 O   0  0  0  0  0  0  0  0  0  0  0  0
   -4.0282    6.1791   20.2532 O   0  0  0  0  0  0  0  0  0  0  0  0
  1  2  1  0
  1 33  2  0
 41  1  1  0
 40  2  1  0
  2 48  2  0
  4  3  2  0
  3  5  1  0
  3 40  1  0
  6  4  1  0
  4 41  1  0
  5  7  2  0
  5 11  1  0
 12  6  2  0
 16  6  1  0
  7  8  1  0
  8  9  2  0
 10  9  1  0
 11 10  2  0
 13 12  1  0
 14 13  2  0
 14 15  1  0
 17 14  1  1
 15 16  2  0
 42 17  1  6
 19 18  1  1
 18 42  1  6
 20 19  1  0
 21 20  1  1
 20 43  1  1
 22 21  1  1
 22 42  1  0
 43 23  1  0
 23 44  1  0
 23 47  2  0
 25 24  2  0
 26 24  1  0
 24 44  1  0
 29 25  1  0
 25 43  1  0
 27 26  2  0
 28 27  1  0
 28 29  2  0
 45 28  1  0
 31 30  1  1
 30 45  1  0
 30 46  2  0
 32 31  1  6
 33 34  1  0
 34 35  2  0
 34 39  1  0
 35 36  1  0
 36 37  2  0
 37 38  1  0
 37 49  1  0
 38 39  2  0
M  CHG  1  42   1
M  END
$$$$
