
     RDKit          3D

 49 55  0  0  0  0  0  0  0  0999 V2000
    3.3734    2.9088   17.1278 C   0  0  0  0  0  0  0  0  0  0  0  0
    3.8012    4.2196   17.5672 C   0  0  0  0  0  0  0  0  0  0  0  0
    3.3670    5.0893   15.2986 C   0  0  0  0  0  0  0  0  0  0  0  0
    2.9811    3.9206   14.8866 C   0  0  0  0  0  0  0  0  0  0  0  0
    3.3950    6.2747   14.4552 C   0  0  0  0  0  0  0  0  0  0  0  0
    2.5324    3.7046   13.5038 C   0  0  0  0  0  0  0  0  0  0  0  0
    2.8680    7.4924   14.7403 C   0  0  0  0  0  0  0  0  0  0  0  0
    2.9922    8.5592   13.8411 C   0  0  0  0  0  0  0  0  0  0  0  0
    3.6481    8.4050   12.6461 C   0  0  0  0  0  0  0  0  0  0  0  0
    4.1886    7.1804   12.3369 C   0  0  0  0  0  0  0  0  0  0  0  0
    4.0593    6.1560   13.2210 C   0  0  0  0  0  0  0  0  0  0  0  0
    1.2539    3.6475   13.0922 C   0  0  0  0  0  0  0  0  0  0  0  0
    0.9592    3.4072   11.7379 C   0  0  0  0  0  0  0  0  0  0  0  0
    1.9307    3.2248   10.7922 C   0  0  0  0  0  0  0  0  0  0  0  0
    3.2386    3.2869   11.2297 C   0  0  0  0  0  0  0  0  0  0  0  0
    3.5435    3.5202   12.5484 C   0  0  0  0  0  0  0  0  0  0  0  0
    1.6252    2.9916    9.3619 C   0  0  0  0  0  0  0  0  0  0  0  0
    2.3955    3.3537    7.0964 C   0  0  0  0  0  0  0  0  0  0  0  0
    1.5819    4.2439    6.1466 C   0  0  0  0  0  0  0  0  0  0  0  0
    0.2224    4.4019    6.8004 C   0  0  1  0  0  0  0  0  0  0  0  0
    0.4475    5.4287    7.9018 C   0  0  0  0  0  0  0  0  0  0  0  0
    1.8363    5.2316    8.5150 C   0  0  0  0  0  0  0  0  0  0  0  0
   -2.0451    4.1508    5.8606 C   0  0  0  0  0  0  0  0  0  0  0  0
   -2.0313    5.6849    4.2867 C   0  0  0  0  0  0  0  0  0  0  0  0
   -0.8126    5.6671    4.9577 C   0  0  0  0  0  0  0  0  0  0  0  0
   -2.2851    6.5578    3.2450 C   0  0  0  0  0  0  0  0  0  0  0  0
   -1.3050    7.4324    2.8622 C   0  0  0  0  0  0  0  0  0  0  0  0
   -0.0681    7.4651    3.4910 C   0  0  0  0  0  0  0  0  0  0  0  0
    0.1482    6.5811    4.5242 C   0  0  0  0  0  0  0  0  0  0  0  0
    1.3377    8.4321    1.7525 C   0  0  0  0  0  0  0  0  0  0  0  0
    2.6251    9.0010    1.2907 C   0  0  0  0  0  0  0  0  0  0  0  0
    2.6393    9.1642   -0.2231 C   0  0  0  0  0  0  0  0  0  0  0  0
    3.2913    1.8599   17.8917 C   0  0  0  0  0  0  0  0  0  0  0  0
    2.9609    0.5065   17.5384 C   0  0  0  0  0  0  0  0  0  0  0  0
    2.5419   -0.4499   18.4308 C   0  0  0  0  0  0  0  0  0  0  0  0
    2.2655   -1.7287   18.0220 C   0  0  0  0  0  0  0  0  0  0  0  0
    2.3912   -2.1245   16.6919 C   0  0  0  0  0  0  0  0  0  0  0  0
    2.8125   -1.1431   15.8180 C   0  0  0  0  0  0  0  0  0  0  0  0
    3.0944    0.1403   16.2086 C   0  0  0  0  0  0  0  0  0  0  0  0
    3.8015    5.3159   16.6625 N   0  0  0  0  0  0  0  0  0  0  0  0
    2.9572    2.7628   15.7590 N   0  0  0  0  0  0  0  0  0  0  0  0
    2.2873    3.8697    8.4500 N   0  0  1  0  0  4  0  0  0  0  0  0
   -0.8400    4.7262    5.9126 N   0  0  0  0  0  0  0  0  0  0  0  0
   -2.7594    4.7356    4.8756 N   0  0  0  0  0  0  0  0  0  0  0  0
    0.9542    8.3601    3.1078 N   0  0  0  0  0  0  0  0  0  0  0  0
    0.5402    7.9865    0.8788 O   0  0  0  0  0  0  0  0  0  0  0  0
   -2.5554    3.2155    6.5502 O   0  0  0  0  0  0  0  0  0  0  0  0
    4.1754    4.3683   18.7612 O   0  0  0  0  0  0  0  0  0  0  0  0
    2.1062   -3.4240   16.2939 O   0  0  0  0  0  0  0  0  0  0  0  0
  1  2  1  0
  1 33  2  0
 41  1  1  0
 40  2  1  0
  2 48  2  0
  4  3  2  0
  3  5  1  0
  3 40  1  0
  6  4  1  0
  4 41  1  0
  5  7  2  0
  5 11  1  0
 12  6  2  0
 16  6  1  0
  7  8  1  0
  8  9  2  0
 10  9  1  0
 11 10  2  0
 13 12  1  0
 14 13  2  0
 14 15  1  0
 17 14  1  1
 15 16  2  0
 42 17  1  1
 19 18  1  1
 18 42  1  6
 20 19  1  0
 21 20  1  1
 20 43  1  6
 22 21  1  1
 22 42  1  0
 43 23  1  0
 23 44  1  0
 23 47  2  0
 25 24  2  0
 26 24  1  0
 24 44  1  0
 29 25  1  0
 25 43  1  0
 27 26  2  0
 28 27  1  0
 28 29  2  0
 45 28  1  0
 31 30  1  1
 30 45  1  0
 30 46  2  0
 32 31  1  6
 33 34  1  0
 34 35  2  0
 34 39  1  0
 35 36  1  0
 36 37  2  0
 37 38  1  0
 37 49  1  0
 38 39  2  0
M  CHG  1  42   1
M  END
$$$$
