
     RDKit          3D

 49 55  0  0  0  0  0  0  0  0999 V2000
   -1.5566   -0.9847   18.8399 C   0  0  0  0  0  0  0  0  0  0  0  0
   -0.5276   -1.0472   19.8556 C   0  0  0  0  0  0  0  0  0  0  0  0
    1.0850   -0.1133   18.2373 C   0  0  0  0  0  0  0  0  0  0  0  0
    0.1753   -0.0509   17.3137 C   0  0  0  0  0  0  0  0  0  0  0  0
    2.4628    0.3132   18.0445 C   0  0  0  0  0  0  0  0  0  0  0  0
    0.4783    0.4688   15.9727 C   0  0  0  0  0  0  0  0  0  0  0  0
    3.3122   -0.0877   17.0648 C   0  0  0  0  0  0  0  0  0  0  0  0
    4.6119    0.4280   16.9832 C   0  0  0  0  0  0  0  0  0  0  0  0
    5.0653    1.3516   17.8906 C   0  0  0  0  0  0  0  0  0  0  0  0
    4.2222    1.7708   18.8911 C   0  0  0  0  0  0  0  0  0  0  0  0
    2.9640    1.2604   18.9555 C   0  0  0  0  0  0  0  0  0  0  0  0
    1.0012    1.6762   15.6974 C   0  0  0  0  0  0  0  0  0  0  0  0
    1.2183    2.0629   14.3624 C   0  0  0  0  0  0  0  0  0  0  0  0
    0.9184    1.2532   13.3014 C   0  0  0  0  0  0  0  0  0  0  0  0
    0.3828    0.0162   13.5998 C   0  0  0  0  0  0  0  0  0  0  0  0
    0.1642   -0.3765   14.8976 C   0  0  0  0  0  0  0  0  0  0  0  0
    1.1639    1.6483   11.8953 C   0  0  0  0  0  0  0  0  0  0  0  0
    2.1777    0.8112    9.8634 C   0  0  0  0  0  0  0  0  0  0  0  0
    3.1939    1.6763    9.1048 C   0  0  0  0  0  0  0  0  0  0  0  0
    3.0355    3.0769    9.6650 C   0  0  1  0  0  0  0  0  0  0  0  0
    3.7600    3.0350   11.0034 C   0  0  0  0  0  0  0  0  0  0  0  0
    3.5562    1.6662   11.6580 C   0  0  0  0  0  0  0  0  0  0  0  0
    4.7190    4.5575    8.6346 C   0  0  0  0  0  0  0  0  0  0  0  0
    3.4596    5.7986    7.3292 C   0  0  0  0  0  0  0  0  0  0  0  0
    2.6818    4.8701    8.0138 C   0  0  0  0  0  0  0  0  0  0  0  0
    2.9114    6.7068    6.4425 C   0  0  0  0  0  0  0  0  0  0  0  0
    1.5595    6.6911    6.2322 C   0  0  0  0  0  0  0  0  0  0  0  0
    0.7287    5.7901    6.8837 C   0  0  0  0  0  0  0  0  0  0  0  0
    1.3104    4.9009    7.7592 C   0  0  0  0  0  0  0  0  0  0  0  0
   -1.3229    4.5185    6.5553 C   0  0  0  0  0  0  0  0  0  0  0  0
   -2.5328    4.3047    5.7277 C   0  0  0  0  0  0  0  0  0  0  0  0
   -3.5530    3.4458    6.4624 C   0  0  0  0  0  0  0  0  0  0  0  0
   -2.8019   -1.3097   19.0239 C   0  0  0  0  0  0  0  0  0  0  0  0
   -3.8718   -1.3732   18.0663 C   0  0  0  0  0  0  0  0  0  0  0  0
   -4.2822   -2.5214   17.4340 C   0  0  0  0  0  0  0  0  0  0  0  0
   -5.2980   -2.4999   16.5138 C   0  0  0  0  0  0  0  0  0  0  0  0
   -5.9645   -1.3244   16.1738 C   0  0  0  0  0  0  0  0  0  0  0  0
   -5.5320   -0.1873   16.8252 C   0  0  0  0  0  0  0  0  0  0  0  0
   -4.5176   -0.1894   17.7473 C   0  0  0  0  0  0  0  0  0  0  0  0
    0.7949   -0.6141   19.5660 N   0  0  0  0  0  0  0  0  0  0  0  0
   -1.1913   -0.4763   17.5452 N   0  0  0  0  0  0  0  0  0  0  0  0
    2.3118    1.0509   11.2899 N   0  0  1  0  0  4  0  0  0  0  0  0
    3.4665    4.1234    8.8040 N   0  0  0  0  0  0  0  0  0  0  0  0
    4.7068    5.5699    7.7417 N   0  0  0  0  0  0  0  0  0  0  0  0
   -0.6679    5.7613    6.6790 N   0  0  0  0  0  0  0  0  0  0  0  0
   -0.8537    3.5277    7.1848 O   0  0  0  0  0  0  0  0  0  0  0  0
    5.8127    4.1783    9.1549 O   0  0  0  0  0  0  0  0  0  0  0  0
   -0.8249   -1.4948   20.9953 O   0  0  0  0  0  0  0  0  0  0  0  0
   -6.9924   -1.3199   15.2400 O   0  0  0  0  0  0  0  0  0  0  0  0
  1  2  1  0
  1 33  2  0
 41  1  1  0
 40  2  1  0
  2 48  2  0
  4  3  2  0
  3  5  1  0
  3 40  1  0
  6  4  1  0
  4 41  1  0
  5  7  2  0
  5 11  1  0
 12  6  2  0
 16  6  1  0
  7  8  1  0
  8  9  2  0
 10  9  1  0
 11 10  2  0
 13 12  1  0
 14 13  2  0
 14 15  1  0
 17 14  1  1
 15 16  2  0
 42 17  1  6
 19 18  1  1
 18 42  1  6
 20 19  1  0
 21 20  1  1
 20 43  1  6
 22 21  1  1
 22 42  1  0
 43 23  1  0
 23 44  1  0
 23 47  2  0
 25 24  2  0
 26 24  1  0
 24 44  1  0
 29 25  1  0
 25 43  1  0
 27 26  2  0
 28 27  1  0
 28 29  2  0
 45 28  1  0
 31 30  1  1
 30 45  1  0
 30 46  2  0
 32 31  1  6
 33 34  1  0
 34 35  2  0
 34 39  1  0
 35 36  1  0
 36 37  2  0
 37 38  1  0
 37 49  1  0
 38 39  2  0
M  CHG  1  42   1
M  END
$$$$
