
     RDKit          3D

 49 55  0  0  0  0  0  0  0  0999 V2000
   -6.9858   -0.1361   15.0698 C   0  0  0  0  0  0  0  0  0  0  0  0
   -7.4236    0.3379   16.3652 C   0  0  0  0  0  0  0  0  0  0  0  0
   -5.0625    0.5897   17.0382 C   0  0  0  0  0  0  0  0  0  0  0  0
   -4.6514    0.1656   15.8825 C   0  0  0  0  0  0  0  0  0  0  0  0
   -4.1705    0.9966   18.1134 C   0  0  0  0  0  0  0  0  0  0  0  0
   -3.2194    0.0639   15.5679 C   0  0  0  0  0  0  0  0  0  0  0  0
   -3.2727    2.0140   18.0886 C   0  0  0  0  0  0  0  0  0  0  0  0
   -2.4920    2.3131   19.2125 C   0  0  0  0  0  0  0  0  0  0  0  0
   -2.6104    1.5866   20.3702 C   0  0  0  0  0  0  0  0  0  0  0  0
   -3.5127    0.5517   20.4170 C   0  0  0  0  0  0  0  0  0  0  0  0
   -4.2626    0.2752   19.3174 C   0  0  0  0  0  0  0  0  0  0  0  0
   -2.2858   -0.5244   16.3356 C   0  0  0  0  0  0  0  0  0  0  0  0
   -0.9391   -0.5292   15.9292 C   0  0  0  0  0  0  0  0  0  0  0  0
   -0.5182    0.0477   14.7624 C   0  0  0  0  0  0  0  0  0  0  0  0
   -1.4882    0.6473   13.9843 C   0  0  0  0  0  0  0  0  0  0  0  0
   -2.8073    0.6611   14.3667 C   0  0  0  0  0  0  0  0  0  0  0  0
    0.8954    0.0275   14.3210 C   0  0  0  0  0  0  0  0  0  0  0  0
    3.1053    0.4695   15.2030 C   0  0  0  0  0  0  0  0  0  0  0  0
    4.0871    1.3367   14.4029 C   0  0  0  0  0  0  0  0  0  0  0  0
    3.5124    1.4160   13.0015 C   0  0  1  0  0  0  0  0  0  0  0  0
    2.3833    2.4315   13.1106 C   0  0  0  0  0  0  0  0  0  0  0  0
    1.6923    2.2908   14.4695 C   0  0  0  0  0  0  0  0  0  0  0  0
    4.5791    1.0818   10.8018 C   0  0  0  0  0  0  0  0  0  0  0  0
    6.1400    2.6286   10.8407 C   0  0  0  0  0  0  0  0  0  0  0  0
    5.4020    2.6542   12.0199 C   0  0  0  0  0  0  0  0  0  0  0  0
    7.1887    3.4996   10.6098 C   0  0  0  0  0  0  0  0  0  0  0  0
    7.5105    4.4162   11.5733 C   0  0  0  0  0  0  0  0  0  0  0  0
    6.8133    4.4933   12.7710 C   0  0  0  0  0  0  0  0  0  0  0  0
    5.7753    3.6099   12.9653 C   0  0  0  0  0  0  0  0  0  0  0  0
    6.2074    5.6792   14.8107 C   0  0  0  0  0  0  0  0  0  0  0  0
    6.4864    6.5547   15.9725 C   0  0  0  0  0  0  0  0  0  0  0  0
    5.2730    7.4069   16.3190 C   0  0  0  0  0  0  0  0  0  0  0  0
   -7.7776   -0.4457   14.0861 C   0  0  0  0  0  0  0  0  0  0  0  0
   -7.5119   -0.4385   12.6737 C   0  0  0  0  0  0  0  0  0  0  0  0
   -8.1890   -1.1982   11.7512 C   0  0  0  0  0  0  0  0  0  0  0  0
   -7.8636   -1.1544   10.4204 C   0  0  0  0  0  0  0  0  0  0  0  0
   -6.8398   -0.3437    9.9346 C   0  0  0  0  0  0  0  0  0  0  0  0
   -6.1779    0.4090   10.8832 C   0  0  0  0  0  0  0  0  0  0  0  0
   -6.4887    0.3774   12.2180 C   0  0  0  0  0  0  0  0  0  0  0  0
   -6.4719    0.7038   17.3555 N   0  0  0  0  0  0  0  0  0  0  0  0
   -5.5704   -0.2226   14.8303 N   0  0  0  0  0  0  0  0  0  0  0  0
    1.7523    0.9539   14.9907 N   0  0  1  0  0  4  0  0  0  0  0  0
    4.4561    1.7048   11.9777 N   0  0  0  0  0  0  0  0  0  0  0  0
    5.5987    1.6458   10.1202 N   0  0  0  0  0  0  0  0  0  0  0  0
    7.1331    5.4321   13.7757 N   0  0  0  0  0  0  0  0  0  0  0  0
    5.0737    5.1237   14.7469 O   0  0  0  0  0  0  0  0  0  0  0  0
    3.9250    0.1208   10.2925 O   0  0  0  0  0  0  0  0  0  0  0  0
   -8.6595    0.4159   16.5979 O   0  0  0  0  0  0  0  0  0  0  0  0
   -6.5233   -0.3101    8.5829 O   0  0  0  0  0  0  0  0  0  0  0  0
  1  2  1  0
  1 33  2  0
 41  1  1  0
 40  2  1  0
  2 48  2  0
  4  3  2  0
  3  5  1  0
  3 40  1  0
  6  4  1  0
  4 41  1  0
  5  7  2  0
  5 11  1  0
 12  6  2  0
 16  6  1  0
  7  8  1  0
  8  9  2  0
 10  9  1  0
 11 10  2  0
 13 12  1  0
 14 13  2  0
 14 15  1  0
 17 14  1  1
 15 16  2  0
 42 17  1  6
 19 18  1  1
 18 42  1  6
 20 19  1  0
 21 20  1  1
 20 43  1  6
 22 21  1  1
 22 42  1  0
 43 23  1  0
 23 44  1  0
 23 47  2  0
 25 24  2  0
 26 24  1  0
 24 44  1  0
 29 25  1  0
 25 43  1  0
 27 26  2  0
 28 27  1  0
 28 29  2  0
 45 28  1  0
 31 30  1  1
 30 45  1  0
 30 46  2  0
 32 31  1  6
 33 34  1  0
 34 35  2  0
 34 39  1  0
 35 36  1  0
 36 37  2  0
 37 38  1  0
 37 49  1  0
 38 39  2  0
M  CHG  1  42   1
M  END
$$$$
