
     RDKit          3D

 49 55  0  0  0  0  0  0  0  0999 V2000
   -1.5392   -0.5567   17.2163 C   0  0  0  0  0  0  0  0  0  0  0  0
   -2.9597   -0.7957   17.0773 C   0  0  0  0  0  0  0  0  0  0  0  0
   -2.8461    0.0537   14.7628 C   0  0  0  0  0  0  0  0  0  0  0  0
   -1.5718    0.2757   14.8697 C   0  0  0  0  0  0  0  0  0  0  0  0
   -3.6137    0.3179   13.5551 C   0  0  0  0  0  0  0  0  0  0  0  0
   -0.7921    0.8229   13.7504 C   0  0  0  0  0  0  0  0  0  0  0  0
   -4.6844    1.1426   13.4322 C   0  0  0  0  0  0  0  0  0  0  0  0
   -5.3153    1.3239   12.1949 C   0  0  0  0  0  0  0  0  0  0  0  0
   -4.8714    0.6730   11.0718 C   0  0  0  0  0  0  0  0  0  0  0  0
   -3.7894   -0.1674   11.1738 C   0  0  0  0  0  0  0  0  0  0  0  0
   -3.1886   -0.3316   12.3821 C   0  0  0  0  0  0  0  0  0  0  0  0
   -1.1047    1.9178   13.0358 C   0  0  0  0  0  0  0  0  0  0  0  0
   -0.2834    2.3208   11.9673 C   0  0  0  0  0  0  0  0  0  0  0  0
    0.8475    1.6400   11.6082 C   0  0  0  0  0  0  0  0  0  0  0  0
    1.1560    0.5183   12.3516 C   0  0  0  0  0  0  0  0  0  0  0  0
    0.3646    0.1110   13.3975 C   0  0  0  0  0  0  0  0  0  0  0  0
    1.7259    2.0722   10.4968 C   0  0  0  0  0  0  0  0  0  0  0  0
    0.3156    3.3828    9.0305 C   0  0  0  0  0  0  0  0  0  0  0  0
    0.9478    4.2147    7.9060 C   0  0  0  0  0  0  0  0  0  0  0  0
    2.4262    4.2899    8.2365 C   0  0  1  0  0  0  0  0  0  0  0  0
    2.9777    2.9325    7.8227 C   0  0  0  0  0  0  0  0  0  0  0  0
    1.9411    1.8440    8.1133 C   0  0  0  0  0  0  0  0  0  0  0  0
    4.2056    5.9972    8.1537 C   0  0  0  0  0  0  0  0  0  0  0  0
    3.6869    7.0707    6.3073 C   0  0  0  0  0  0  0  0  0  0  0  0
    2.7842    6.0374    6.5377 C   0  0  0  0  0  0  0  0  0  0  0  0
    3.5848    7.9061    5.2104 C   0  0  0  0  0  0  0  0  0  0  0  0
    2.5620    7.7094    4.3231 C   0  0  0  0  0  0  0  0  0  0  0  0
    1.6290    6.6964    4.4958 C   0  0  0  0  0  0  0  0  0  0  0  0
    1.7629    5.8845    5.5997 C   0  0  0  0  0  0  0  0  0  0  0  0
   -0.7554    6.7480    4.0003 C   0  0  0  0  0  0  0  0  0  0  0  0
   -1.8493    7.1058    3.0676 C   0  0  0  0  0  0  0  0  0  0  0  0
   -3.2087    6.9604    3.7377 C   0  0  0  0  0  0  0  0  0  0  0  0
   -0.8378   -0.8448   18.2725 C   0  0  0  0  0  0  0  0  0  0  0  0
    0.5431   -0.5571   18.5482 C   0  0  0  0  0  0  0  0  0  0  0  0
    0.9914    0.1049   19.6650 C   0  0  0  0  0  0  0  0  0  0  0  0
    2.3251    0.3629   19.8488 C   0  0  0  0  0  0  0  0  0  0  0  0
    3.2898   -0.0298   18.9233 C   0  0  0  0  0  0  0  0  0  0  0  0
    2.8109   -0.6936   17.8122 C   0  0  0  0  0  0  0  0  0  0  0  0
    1.4812   -0.9595   17.6110 C   0  0  0  0  0  0  0  0  0  0  0  0
   -3.6226   -0.4953   15.8563 N   0  0  0  0  0  0  0  0  0  0  0  0
   -0.8373   -0.0092   16.0869 N   0  0  0  0  0  0  0  0  0  0  0  0
    1.0877    2.1674    9.2222 N   0  0  1  0  0  4  0  0  0  0  0  0
    3.1164    5.3951    7.6669 N   0  0  0  0  0  0  0  0  0  0  0  0
    4.5445    7.0088    7.3265 N   0  0  0  0  0  0  0  0  0  0  0  0
    0.5674    6.4806    3.5906 N   0  0  0  0  0  0  0  0  0  0  0  0
   -1.0273    6.6794    5.2329 O   0  0  0  0  0  0  0  0  0  0  0  0
    4.8956    5.7642    9.1931 O   0  0  0  0  0  0  0  0  0  0  0  0
   -3.5951   -1.2697   18.0568 O   0  0  0  0  0  0  0  0  0  0  0  0
    4.6373    0.2384   19.1251 O   0  0  0  0  0  0  0  0  0  0  0  0
  1  2  1  0
  1 33  2  0
 41  1  1  0
 40  2  1  0
  2 48  2  0
  4  3  2  0
  3  5  1  0
  3 40  1  0
  6  4  1  0
  4 41  1  0
  5  7  2  0
  5 11  1  0
 12  6  2  0
 16  6  1  0
  7  8  1  0
  8  9  2  0
 10  9  1  0
 11 10  2  0
 13 12  1  0
 14 13  2  0
 14 15  1  0
 17 14  1  1
 15 16  2  0
 42 17  1  1
 19 18  1  1
 18 42  1  6
 20 19  1  0
 21 20  1  1
 20 43  1  6
 22 21  1  1
 22 42  1  0
 43 23  1  0
 23 44  1  0
 23 47  2  0
 25 24  2  0
 26 24  1  0
 24 44  1  0
 29 25  1  0
 25 43  1  0
 27 26  2  0
 28 27  1  0
 28 29  2  0
 45 28  1  0
 31 30  1  1
 30 45  1  0
 30 46  2  0
 32 31  1  6
 33 34  1  0
 34 35  2  0
 34 39  1  0
 35 36  1  0
 36 37  2  0
 37 38  1  0
 37 49  1  0
 38 39  2  0
M  CHG  1  42   1
M  END
$$$$
