
     RDKit          3D

 49 55  0  0  0  0  0  0  0  0999 V2000
   -0.9860   -0.4905   16.3704 C   0  0  0  0  0  0  0  0  0  0  0  0
   -0.2351   -0.9191   17.5681 C   0  0  0  0  0  0  0  0  0  0  0  0
    1.8364   -0.2607   16.3980 C   0  0  0  0  0  0  0  0  0  0  0  0
    1.2079    0.1310   15.3179 C   0  0  0  0  0  0  0  0  0  0  0  0
    3.2951   -0.1719   16.4613 C   0  0  0  0  0  0  0  0  0  0  0  0
    1.8963    0.6793   14.1276 C   0  0  0  0  0  0  0  0  0  0  0  0
    3.9503    0.5825   17.4102 C   0  0  0  0  0  0  0  0  0  0  0  0
    5.3303    0.5918   17.3946 C   0  0  0  0  0  0  0  0  0  0  0  0
    6.0375   -0.1284   16.4615 C   0  0  0  0  0  0  0  0  0  0  0  0
    5.3693   -0.8722   15.5259 C   0  0  0  0  0  0  0  0  0  0  0  0
    3.9911   -0.9093   15.5065 C   0  0  0  0  0  0  0  0  0  0  0  0
    1.5788    0.2410   12.8652 C   0  0  0  0  0  0  0  0  0  0  0  0
    2.2077    0.7620   11.7422 C   0  0  0  0  0  0  0  0  0  0  0  0
    3.1781    1.7417   11.8625 C   0  0  0  0  0  0  0  0  0  0  0  0
    3.4857    2.1689   13.1343 C   0  0  0  0  0  0  0  0  0  0  0  0
    2.8617    1.6541   14.2601 C   0  0  0  0  0  0  0  0  0  0  0  0
    3.8409    2.3317   10.6829 C   0  0  0  0  0  0  0  0  0  0  0  0
    4.3094    4.1784    9.2856 C   0  0  0  0  0  0  0  0  0  0  0  0
    3.6920    5.4850    8.7489 C   0  0  0  0  0  0  0  0  0  0  0  0
    2.4111    5.1830    8.0084 C   0  0  1  0  0  0  0  0  0  0  0  0
    1.8574    3.9296    8.5894 C   0  0  0  0  0  0  0  0  0  0  0  0
    2.0852    3.8752   10.1062 C   0  0  0  0  0  0  0  0  0  0  0  0
    1.3732    7.2952    8.7975 C   0  0  0  0  0  0  0  0  0  0  0  0
   -0.0359    7.6355    7.1402 C   0  0  0  0  0  0  0  0  0  0  0  0
    0.6475    6.4626    6.8685 C   0  0  0  0  0  0  0  0  0  0  0  0
   -0.9939    8.0709    6.2298 C   0  0  0  0  0  0  0  0  0  0  0  0
   -1.2738    7.3702    5.0799 C   0  0  0  0  0  0  0  0  0  0  0  0
   -0.6071    6.2022    4.7905 C   0  0  0  0  0  0  0  0  0  0  0  0
    0.3448    5.7797    5.7067 C   0  0  0  0  0  0  0  0  0  0  0  0
    0.1426    4.6964    2.9939 C   0  0  0  0  0  0  0  0  0  0  0  0
    0.0272    4.3124    1.5504 C   0  0  0  0  0  0  0  0  0  0  0  0
    1.0399    3.1974    1.2992 C   0  0  0  0  0  0  0  0  0  0  0  0
   -2.2900   -0.6402   16.3924 C   0  0  0  0  0  0  0  0  0  0  0  0
   -3.1642   -0.2648   15.3063 C   0  0  0  0  0  0  0  0  0  0  0  0
   -4.4932    0.0107   15.6148 C   0  0  0  0  0  0  0  0  0  0  0  0
   -5.3714    0.3999   14.6300 C   0  0  0  0  0  0  0  0  0  0  0  0
   -4.9441    0.5187   13.3412 C   0  0  0  0  0  0  0  0  0  0  0  0
   -3.6392    0.2465   13.0505 C   0  0  0  0  0  0  0  0  0  0  0  0
   -2.7196   -0.1493   14.0177 C   0  0  0  0  0  0  0  0  0  0  0  0
    1.1697   -0.7918   17.5504 N   0  0  0  0  0  0  0  0  0  0  0  0
   -0.2244    0.0167   15.2962 N   0  0  0  0  0  0  0  0  0  0  0  0
    3.4915    3.6702   10.3731 N   0  0  1  0  0  4  0  0  0  0  0  0
    1.5045    6.2912    7.9122 N   0  0  0  0  0  0  0  0  0  0  0  0
    0.4243    8.1104    8.3072 N   0  0  0  0  0  0  0  0  0  0  0  0
   -0.8661    5.4526    3.5973 N   0  0  0  0  0  0  0  0  0  0  0  0
    1.1471    4.3504    3.7025 O   0  0  0  0  0  0  0  0  0  0  0  0
    2.0166    7.4537    9.8915 O   0  0  0  0  0  0  0  0  0  0  0  0
   -0.8413   -1.3851   18.5751 O   0  0  0  0  0  0  0  0  0  0  0  0
   -5.8435    0.9103   12.3680 O   0  0  0  0  0  0  0  0  0  0  0  0
  1  2  1  0
  1 33  2  0
 41  1  1  0
 40  2  1  0
  2 48  2  0
  4  3  2  0
  3  5  1  0
  3 40  1  0
  6  4  1  0
  4 41  1  0
  5  7  2  0
  5 11  1  0
 12  6  2  0
 16  6  1  0
  7  8  1  0
  8  9  2  0
 10  9  1  0
 11 10  2  0
 13 12  1  0
 14 13  2  0
 14 15  1  0
 17 14  1  0
 15 16  2  0
 42 17  1  6
 19 18  1  0
 18 42  1  0
 20 19  1  0
 20 21  1  0
 20 43  1  1
 21 22  1  0
 22 42  1  0
 43 23  1  0
 23 44  1  0
 23 47  2  0
 25 24  2  0
 26 24  1  0
 24 44  1  0
 29 25  1  0
 25 43  1  0
 27 26  2  0
 28 27  1  0
 28 29  2  0
 45 28  1  0
 30 31  1  0
 30 45  1  0
 30 46  2  0
 31 32  1  0
 33 34  1  0
 34 35  2  0
 34 39  1  0
 35 36  1  0
 36 37  2  0
 37 38  1  0
 37 49  1  0
 38 39  2  0
M  CHG  1  42   1
M  END
$$$$
