
     RDKit          3D

 49 55  0  0  0  0  0  0  0  0999 V2000
    5.7067    3.1912   13.8081 C   0  0  0  0  0  0  0  0  0  0  0  0
    6.3460    3.9919   12.7861 C   0  0  0  0  0  0  0  0  0  0  0  0
    4.4107    3.5953   11.3067 C   0  0  0  0  0  0  0  0  0  0  0  0
    3.8229    2.8734   12.2110 C   0  0  0  0  0  0  0  0  0  0  0  0
    3.8378    3.8760    9.9988 C   0  0  0  0  0  0  0  0  0  0  0  0
    2.5026    2.2727   11.9740 C   0  0  0  0  0  0  0  0  0  0  0  0
    3.0257    3.0670    9.2724 C   0  0  0  0  0  0  0  0  0  0  0  0
    2.5226    3.4783    8.0316 C   0  0  0  0  0  0  0  0  0  0  0  0
    2.8362    4.7093    7.5134 C   0  0  0  0  0  0  0  0  0  0  0  0
    3.6575    5.5440    8.2318 C   0  0  0  0  0  0  0  0  0  0  0  0
    4.1367    5.1292    9.4344 C   0  0  0  0  0  0  0  0  0  0  0  0
    2.2141    1.3536   11.0364 C   0  0  0  0  0  0  0  0  0  0  0  0
    0.8977    0.8780   10.8965 C   0  0  0  0  0  0  0  0  0  0  0  0
   -0.1317    1.3122   11.6860 C   0  0  0  0  0  0  0  0  0  0  0  0
    0.1800    2.2555   12.6447 C   0  0  0  0  0  0  0  0  0  0  0  0
    1.4599    2.7305   12.7941 C   0  0  0  0  0  0  0  0  0  0  0  0
   -1.5150    0.7995   11.5554 C   0  0  0  0  0  0  0  0  0  0  0  0
   -3.6693    1.3184   10.5825 C   0  0  0  0  0  0  0  0  0  0  0  0
   -4.9113    1.4060   11.4804 C   0  0  0  0  0  0  0  0  0  0  0  0
   -4.5130    0.7561   12.7916 C   0  0  1  0  0  0  0  0  0  0  0  0
   -3.6733    1.8108   13.4990 C   0  0  0  0  0  0  0  0  0  0  0  0
   -2.8417    2.5829   12.4713 C   0  0  0  0  0  0  0  0  0  0  0  0
   -6.5966   -0.5175   13.1447 C   0  0  0  0  0  0  0  0  0  0  0  0
   -6.9627   -0.1601   15.2822 C   0  0  0  0  0  0  0  0  0  0  0  0
   -5.7995    0.4851   14.8747 C   0  0  0  0  0  0  0  0  0  0  0  0
   -7.4240   -0.0932   16.5839 C   0  0  0  0  0  0  0  0  0  0  0  0
   -6.7123    0.6317   17.5005 C   0  0  0  0  0  0  0  0  0  0  0  0
   -5.5441    1.2982   17.1576 C   0  0  0  0  0  0  0  0  0  0  0  0
   -5.1158    1.2087   15.8522 C   0  0  0  0  0  0  0  0  0  0  0  0
   -5.4420    2.5654   19.2355 C   0  0  0  0  0  0  0  0  0  0  0  0
   -4.7405    3.3014   20.3127 C   0  0  0  0  0  0  0  0  0  0  0  0
   -5.0548    4.7900   20.2523 C   0  0  0  0  0  0  0  0  0  0  0  0
    6.1873    2.9853   14.9986 C   0  0  0  0  0  0  0  0  0  0  0  0
    5.8491    1.9590   15.9461 C   0  0  0  0  0  0  0  0  0  0  0  0
    6.7170    0.9889   16.3847 C   0  0  0  0  0  0  0  0  0  0  0  0
    6.3148    0.0276   17.2752 C   0  0  0  0  0  0  0  0  0  0  0  0
    5.0172   -0.0171   17.7810 C   0  0  0  0  0  0  0  0  0  0  0  0
    4.1679    0.9700   17.3241 C   0  0  0  0  0  0  0  0  0  0  0  0
    4.5519    1.9386   16.4333 C   0  0  0  0  0  0  0  0  0  0  0  0
    5.7076    4.2010   11.5334 N   0  0  0  0  0  0  0  0  0  0  0  0
    4.4203    2.6227   13.5082 N   0  0  0  0  0  0  0  0  0  0  0  0
   -2.5103    1.7961   11.3165 N   0  0  1  0  0  4  0  0  0  0  0  0
   -5.5931    0.2560   13.5698 N   0  0  0  0  0  0  0  0  0  0  0  0
   -7.4202   -0.7648   14.1854 N   0  0  0  0  0  0  0  0  0  0  0  0
   -4.7987    2.0512   18.0906 N   0  0  0  0  0  0  0  0  0  0  0  0
   -6.6884    2.3903   19.3529 O   0  0  0  0  0  0  0  0  0  0  0  0
   -6.8514   -1.0021   11.9998 O   0  0  0  0  0  0  0  0  0  0  0  0
    7.4762    4.4946   13.0262 O   0  0  0  0  0  0  0  0  0  0  0  0
    4.6260   -0.9973   18.6835 O   0  0  0  0  0  0  0  0  0  0  0  0
  1  2  1  0
  1 33  2  0
 41  1  1  0
 40  2  1  0
  2 48  2  0
  4  3  2  0
  3  5  1  0
  3 40  1  0
  6  4  1  0
  4 41  1  0
  5  7  2  0
  5 11  1  0
 12  6  2  0
 16  6  1  0
  7  8  1  0
  8  9  2  0
 10  9  1  0
 11 10  2  0
 13 12  1  0
 14 13  2  0
 14 15  1  0
 17 14  1  1
 15 16  2  0
 42 17  1  1
 19 18  1  1
 18 42  1  6
 20 19  1  0
 21 20  1  1
 20 43  1  1
 22 21  1  1
 22 42  1  0
 43 23  1  0
 23 44  1  0
 23 47  2  0
 25 24  2  0
 26 24  1  0
 24 44  1  0
 29 25  1  0
 25 43  1  0
 27 26  2  0
 28 27  1  0
 28 29  2  0
 45 28  1  0
 31 30  1  1
 30 45  1  0
 30 46  2  0
 32 31  1  6
 33 34  1  0
 34 35  2  0
 34 39  1  0
 35 36  1  0
 36 37  2  0
 37 38  1  0
 37 49  1  0
 38 39  2  0
M  CHG  1  42   1
M  END
$$$$
