
     RDKit          3D

 49 55  0  0  0  0  0  0  0  0999 V2000
    4.3595    0.7087   17.0893 C   0  0  0  0  0  0  0  0  0  0  0  0
    5.7622    1.1467   17.2398 C   0  0  0  0  0  0  0  0  0  0  0  0
    5.7144    1.8221   14.8659 C   0  0  0  0  0  0  0  0  0  0  0  0
    4.4719    1.4471   14.6916 C   0  0  0  0  0  0  0  0  0  0  0  0
    6.4632    2.3953   13.7476 C   0  0  0  0  0  0  0  0  0  0  0  0
    3.7544    1.5759   13.4032 C   0  0  0  0  0  0  0  0  0  0  0  0
    7.2066    3.5494   13.8685 C   0  0  0  0  0  0  0  0  0  0  0  0
    7.8880    4.0035   12.7577 C   0  0  0  0  0  0  0  0  0  0  0  0
    7.8309    3.3290   11.5613 C   0  0  0  0  0  0  0  0  0  0  0  0
    7.0868    2.1840   11.4598 C   0  0  0  0  0  0  0  0  0  0  0  0
    6.3910    1.6958   12.5454 C   0  0  0  0  0  0  0  0  0  0  0  0
    3.7935    2.7481   12.6885 C   0  0  0  0  0  0  0  0  0  0  0  0
    3.1373    2.8720   11.4711 C   0  0  0  0  0  0  0  0  0  0  0  0
    2.4203    1.8136   10.9404 C   0  0  0  0  0  0  0  0  0  0  0  0
    2.3897    0.6465   11.6695 C   0  0  0  0  0  0  0  0  0  0  0  0
    3.0429    0.5151   12.8852 C   0  0  0  0  0  0  0  0  0  0  0  0
    1.7378    1.9107    9.6351 C   0  0  0  0  0  0  0  0  0  0  0  0
    0.0067    2.7428    8.2592 C   0  0  0  0  0  0  0  0  0  0  0  0
   -1.4186    3.3273    8.3175 C   0  0  0  0  0  0  0  0  0  0  0  0
   -2.3508    2.3454    8.9860 C   0  0  1  0  0  0  0  0  0  0  0  0
   -1.5245    1.5182    9.9068 C   0  0  0  0  0  0  0  0  0  0  0  0
   -0.4315    2.3615   10.5776 C   0  0  0  0  0  0  0  0  0  0  0  0
   -4.0828    4.1106    9.1995 C   0  0  0  0  0  0  0  0  0  0  0  0
   -5.3057    3.2126   10.7952 C   0  0  0  0  0  0  0  0  0  0  0  0
   -4.2573    2.3454   10.5392 C   0  0  0  0  0  0  0  0  0  0  0  0
   -6.2298    2.8646   11.7754 C   0  0  0  0  0  0  0  0  0  0  0  0
   -6.1260    1.6924   12.4874 C   0  0  0  0  0  0  0  0  0  0  0  0
   -5.0921    0.8166   12.2497 C   0  0  0  0  0  0  0  0  0  0  0  0
   -4.1781    1.1763   11.2702 C   0  0  0  0  0  0  0  0  0  0  0  0
   -4.6770   -0.4244   14.3341 C   0  0  0  0  0  0  0  0  0  0  0  0
   -3.6635   -1.3809   14.8838 C   0  0  0  0  0  0  0  0  0  0  0  0
   -4.4149   -2.3734   15.7681 C   0  0  0  0  0  0  0  0  0  0  0  0
    3.7804    0.1741   18.1392 C   0  0  0  0  0  0  0  0  0  0  0  0
    2.5242   -0.5364   18.0940 C   0  0  0  0  0  0  0  0  0  0  0  0
    2.1419   -1.2420   19.2312 C   0  0  0  0  0  0  0  0  0  0  0  0
    0.9441   -1.9179   19.2626 C   0  0  0  0  0  0  0  0  0  0  0  0
    0.1212   -1.9008   18.1762 C   0  0  0  0  0  0  0  0  0  0  0  0
    0.5060   -1.2057   17.0671 C   0  0  0  0  0  0  0  0  0  0  0  0
    1.7090   -0.5088   16.9958 C   0  0  0  0  0  0  0  0  0  0  0  0
    6.4092    1.6972   16.1135 N   0  0  0  0  0  0  0  0  0  0  0  0
    3.7781    0.8804   15.8152 N   0  0  0  0  0  0  0  0  0  0  0  0
    0.5710    2.7150    9.5973 N   0  0  1  0  0  4  0  0  0  0  0  0
   -3.5305    2.9357    9.5509 N   0  0  0  0  0  0  0  0  0  0  0  0
   -5.1709    4.2636    9.9728 N   0  0  0  0  0  0  0  0  0  0  0  0
   -4.9591   -0.4174   12.9652 N   0  0  0  0  0  0  0  0  0  0  0  0
   -5.3016    0.3975   15.0860 O   0  0  0  0  0  0  0  0  0  0  0  0
   -3.6653    4.9284    8.3091 O   0  0  0  0  0  0  0  0  0  0  0  0
    6.3581    1.0283   18.3486 O   0  0  0  0  0  0  0  0  0  0  0  0
   -1.0769   -2.5873   18.2294 O   0  0  0  0  0  0  0  0  0  0  0  0
  1  2  1  0
  1 33  2  0
 41  1  1  0
 40  2  1  0
  2 48  2  0
  4  3  2  0
  3  5  1  0
  3 40  1  0
  6  4  1  0
  4 41  1  0
  5  7  2  0
  5 11  1  0
 12  6  2  0
 16  6  1  0
  7  8  1  0
  8  9  2  0
 10  9  1  0
 11 10  2  0
 13 12  1  0
 14 13  2  0
 14 15  1  0
 17 14  1  0
 15 16  2  0
 42 17  1  6
 19 18  1  0
 18 42  1  0
 20 19  1  0
 20 21  1  0
 20 43  1  1
 21 22  1  0
 22 42  1  0
 43 23  1  0
 23 44  1  0
 23 47  2  0
 25 24  2  0
 26 24  1  0
 24 44  1  0
 29 25  1  0
 25 43  1  0
 27 26  2  0
 28 27  1  0
 28 29  2  0
 45 28  1  0
 30 31  1  0
 30 45  1  0
 30 46  2  0
 31 32  1  0
 33 34  1  0
 34 35  2  0
 34 39  1  0
 35 36  1  0
 36 37  2  0
 37 38  1  0
 37 49  1  0
 38 39  2  0
M  CHG  1  42   1
M  END
$$$$
