
     RDKit          3D

 49 55  0  0  0  0  0  0  0  0999 V2000
   -1.6306   -0.4582   18.3388 C   0  0  0  0  0  0  0  0  0  0  0  0
   -2.5843   -1.3879   17.6999 C   0  0  0  0  0  0  0  0  0  0  0  0
   -1.6160   -0.7462   15.5217 C   0  0  0  0  0  0  0  0  0  0  0  0
   -0.7544    0.0871   16.0493 C   0  0  0  0  0  0  0  0  0  0  0  0
   -1.6568   -0.9258   14.0706 C   0  0  0  0  0  0  0  0  0  0  0  0
    0.2118    0.8748   15.2511 C   0  0  0  0  0  0  0  0  0  0  0  0
   -1.1284   -2.0353   13.4469 C   0  0  0  0  0  0  0  0  0  0  0  0
   -1.2275   -2.1180   12.0729 C   0  0  0  0  0  0  0  0  0  0  0  0
   -1.8344   -1.1253   11.3409 C   0  0  0  0  0  0  0  0  0  0  0  0
   -2.3535   -0.0299   11.9779 C   0  0  0  0  0  0  0  0  0  0  0  0
   -2.2759    0.0919   13.3491 C   0  0  0  0  0  0  0  0  0  0  0  0
    1.4886    0.4163   15.0365 C   0  0  0  0  0  0  0  0  0  0  0  0
    2.3960    1.1408   14.2751 C   0  0  0  0  0  0  0  0  0  0  0  0
    2.0393    2.3522   13.7085 C   0  0  0  0  0  0  0  0  0  0  0  0
    0.7569    2.7985   13.9341 C   0  0  0  0  0  0  0  0  0  0  0  0
   -0.1547    2.0804   14.6926 C   0  0  0  0  0  0  0  0  0  0  0  0
    2.9761    3.1275   12.8717 C   0  0  0  0  0  0  0  0  0  0  0  0
    1.5368    3.1265   10.9979 C   0  0  0  0  0  0  0  0  0  0  0  0
    1.5435    3.2205    9.4592 C   0  0  0  0  0  0  0  0  0  0  0  0
    2.1932    4.5126    9.0252 C   0  0  1  0  0  0  0  0  0  0  0  0
    3.1490    4.9012   10.0978 C   0  0  0  0  0  0  0  0  0  0  0  0
    3.8444    3.6688   10.6922 C   0  0  0  0  0  0  0  0  0  0  0  0
    3.5341    3.5697    7.1612 C   0  0  0  0  0  0  0  0  0  0  0  0
    3.0959    5.0756    5.6157 C   0  0  0  0  0  0  0  0  0  0  0  0
    2.4177    5.4502    6.7629 C   0  0  0  0  0  0  0  0  0  0  0  0
    2.9772    5.8761    4.4839 C   0  0  0  0  0  0  0  0  0  0  0  0
    2.2105    7.0180    4.4797 C   0  0  0  0  0  0  0  0  0  0  0  0
    1.5287    7.4091    5.6087 C   0  0  0  0  0  0  0  0  0  0  0  0
    1.6563    6.6020    6.7296 C   0  0  0  0  0  0  0  0  0  0  0  0
   -0.6727    8.4940    5.7930 C   0  0  0  0  0  0  0  0  0  0  0  0
   -1.5547    9.6087    5.3198 C   0  0  0  0  0  0  0  0  0  0  0  0
   -2.3217   10.1227    6.5362 C   0  0  0  0  0  0  0  0  0  0  0  0
   -1.6917   -0.3372   19.6446 C   0  0  0  0  0  0  0  0  0  0  0  0
   -0.8286    0.5252   20.4167 C   0  0  0  0  0  0  0  0  0  0  0  0
   -1.1350    0.7057   21.7624 C   0  0  0  0  0  0  0  0  0  0  0  0
   -0.3374    1.4935   22.5596 C   0  0  0  0  0  0  0  0  0  0  0  0
    0.7621    2.1047   22.0347 C   0  0  0  0  0  0  0  0  0  0  0  0
    1.0530    1.9204   20.7147 C   0  0  0  0  0  0  0  0  0  0  0  0
    0.2719    1.1309   19.8752 C   0  0  0  0  0  0  0  0  0  0  0  0
   -2.5518   -1.5087   16.2948 N   0  0  0  0  0  0  0  0  0  0  0  0
   -0.7565    0.2391   17.4782 N   0  0  0  0  0  0  0  0  0  0  0  0
    2.8924    2.9109   11.4733 N   0  0  1  0  0  4  0  0  0  0  0  0
    2.7139    4.4964    7.6880 N   0  0  0  0  0  0  0  0  0  0  0  0
    3.7572    3.9410    5.8893 N   0  0  0  0  0  0  0  0  0  0  0  0
    0.7131    8.5866    5.6366 N   0  0  0  0  0  0  0  0  0  0  0  0
   -1.1521    7.4459    6.3430 O   0  0  0  0  0  0  0  0  0  0  0  0
    4.0134    2.5370    7.7439 O   0  0  0  0  0  0  0  0  0  0  0  0
   -3.4022   -2.0519   18.3989 O   0  0  0  0  0  0  0  0  0  0  0  0
    1.5487    2.8921   22.8536 O   0  0  0  0  0  0  0  0  0  0  0  0
  1  2  1  0
  1 33  2  0
 41  1  1  0
 40  2  1  0
  2 48  2  0
  4  3  2  0
  3  5  1  0
  3 40  1  0
  6  4  1  0
  4 41  1  0
  5  7  2  0
  5 11  1  0
 12  6  2  0
 16  6  1  0
  7  8  1  0
  8  9  2  0
 10  9  1  0
 11 10  2  0
 13 12  1  0
 14 13  2  0
 14 15  1  0
 17 14  1  0
 15 16  2  0
 42 17  1  1
 19 18  1  0
 18 42  1  0
 20 19  1  0
 20 21  1  0
 20 43  1  6
 21 22  1  0
 22 42  1  0
 43 23  1  0
 23 44  1  0
 23 47  2  0
 25 24  2  0
 26 24  1  0
 24 44  1  0
 29 25  1  0
 25 43  1  0
 27 26  2  0
 28 27  1  0
 28 29  2  0
 45 28  1  0
 30 31  1  0
 30 45  1  0
 30 46  2  0
 31 32  1  0
 33 34  1  0
 34 35  2  0
 34 39  1  0
 35 36  1  0
 36 37  2  0
 37 38  1  0
 37 49  1  0
 38 39  2  0
M  CHG  1  42   1
M  END
$$$$
