
     RDKit          3D

 49 55  0  0  0  0  0  0  0  0999 V2000
    1.5247   -0.2471   18.5907 C   0  0  0  0  0  0  0  0  0  0  0  0
    0.1468   -0.7663   18.7084 C   0  0  0  0  0  0  0  0  0  0  0  0
   -0.1301   -0.3319   16.2942 C   0  0  0  0  0  0  0  0  0  0  0  0
    1.0849    0.1344   16.1477 C   0  0  0  0  0  0  0  0  0  0  0  0
   -1.0293   -0.3892   15.1419 C   0  0  0  0  0  0  0  0  0  0  0  0
    1.6241    0.6133   14.8549 C   0  0  0  0  0  0  0  0  0  0  0  0
   -2.0356    0.5309   14.9417 C   0  0  0  0  0  0  0  0  0  0  0  0
   -2.8236    0.3984   13.8165 C   0  0  0  0  0  0  0  0  0  0  0  0
   -2.6165   -0.6203   12.9170 C   0  0  0  0  0  0  0  0  0  0  0  0
   -1.6119   -1.5254   13.1326 C   0  0  0  0  0  0  0  0  0  0  0  0
   -0.8015   -1.4291   14.2439 C   0  0  0  0  0  0  0  0  0  0  0  0
    1.8657   -0.2617   13.8242 C   0  0  0  0  0  0  0  0  0  0  0  0
    2.3555    0.1813   12.6028 C   0  0  0  0  0  0  0  0  0  0  0  0
    2.6170    1.5234   12.3876 C   0  0  0  0  0  0  0  0  0  0  0  0
    2.3710    2.3870   13.4309 C   0  0  0  0  0  0  0  0  0  0  0  0
    1.8814    1.9522   14.6528 C   0  0  0  0  0  0  0  0  0  0  0  0
    3.1109    2.0232   11.0895 C   0  0  0  0  0  0  0  0  0  0  0  0
    1.5499    3.7520   10.6930 C   0  0  0  0  0  0  0  0  0  0  0  0
    0.7522    4.4350    9.5644 C   0  0  0  0  0  0  0  0  0  0  0  0
    1.6989    4.9794    8.5216 C   0  0  1  0  0  0  0  0  0  0  0  0
    2.9285    4.1423    8.5703 C   0  0  0  0  0  0  0  0  0  0  0  0
    2.5849    2.6692    8.8305 C   0  0  0  0  0  0  0  0  0  0  0  0
    0.0285    4.5352    6.7399 C   0  0  0  0  0  0  0  0  0  0  0  0
    0.7610    5.9416    5.2123 C   0  0  0  0  0  0  0  0  0  0  0  0
    1.5985    6.0488    6.3094 C   0  0  0  0  0  0  0  0  0  0  0  0
    1.0179    6.7393    4.1016 C   0  0  0  0  0  0  0  0  0  0  0  0
    2.0728    7.6211    4.0696 C   0  0  0  0  0  0  0  0  0  0  0  0
    2.9178    7.7433    5.1483 C   0  0  0  0  0  0  0  0  0  0  0  0
    2.6503    6.9420    6.2485 C   0  0  0  0  0  0  0  0  0  0  0  0
    4.1054    9.6711    6.1130 C   0  0  0  0  0  0  0  0  0  0  0  0
    4.6127   11.0267    5.7267 C   0  0  0  0  0  0  0  0  0  0  0  0
    5.3045   11.6148    6.9546 C   0  0  0  0  0  0  0  0  0  0  0  0
    2.2461   -0.2018   19.6865 C   0  0  0  0  0  0  0  0  0  0  0  0
    3.5102    0.4878   19.7930 C   0  0  0  0  0  0  0  0  0  0  0  0
    3.9793    1.1513   18.6629 C   0  0  0  0  0  0  0  0  0  0  0  0
    5.1637    1.8497   18.7058 C   0  0  0  0  0  0  0  0  0  0  0  0
    5.8881    1.8965   19.8594 C   0  0  0  0  0  0  0  0  0  0  0  0
    5.4185    1.2427   20.9609 C   0  0  0  0  0  0  0  0  0  0  0  0
    4.2251    0.5260   20.9586 C   0  0  0  0  0  0  0  0  0  0  0  0
   -0.6522   -0.7954   17.5462 N   0  0  0  0  0  0  0  0  0  0  0  0
    1.9302    0.1811   17.3088 N   0  0  0  0  0  0  0  0  0  0  0  0
    2.1289    2.5167   10.1942 N   0  0  1  0  0  4  0  0  0  0  0  0
    1.1116    5.1677    7.2258 N   0  0  0  0  0  0  0  0  0  0  0  0
   -0.1719    5.0231    5.5042 N   0  0  0  0  0  0  0  0  0  0  0  0
    4.0198    8.6587    5.1531 N   0  0  0  0  0  0  0  0  0  0  0  0
    3.7430    9.4053    7.3083 O   0  0  0  0  0  0  0  0  0  0  0  0
   -0.6780    3.6451    7.3267 O   0  0  0  0  0  0  0  0  0  0  0  0
   -0.2957   -1.1707   19.8216 O   0  0  0  0  0  0  0  0  0  0  0  0
    7.0753    2.6033   19.8797 O   0  0  0  0  0  0  0  0  0  0  0  0
  1  2  1  0
  1 33  2  0
 41  1  1  0
 40  2  1  0
  2 48  2  0
  4  3  2  0
  3  5  1  0
  3 40  1  0
  6  4  1  0
  4 41  1  0
  5  7  2  0
  5 11  1  0
 12  6  2  0
 16  6  1  0
  7  8  1  0
  8  9  2  0
 10  9  1  0
 11 10  2  0
 13 12  1  0
 14 13  2  0
 14 15  1  0
 17 14  1  0
 15 16  2  0
 42 17  1  1
 19 18  1  0
 18 42  1  0
 20 19  1  0
 20 21  1  0
 20 43  1  6
 21 22  1  0
 22 42  1  0
 43 23  1  0
 23 44  1  0
 23 47  2  0
 25 24  2  0
 26 24  1  0
 24 44  1  0
 29 25  1  0
 25 43  1  0
 27 26  2  0
 28 27  1  0
 28 29  2  0
 45 28  1  0
 30 31  1  0
 30 45  1  0
 30 46  2  0
 31 32  1  0
 33 34  1  0
 34 35  2  0
 34 39  1  0
 35 36  1  0
 36 37  2  0
 37 38  1  0
 37 49  1  0
 38 39  2  0
M  CHG  1  42   1
M  END
$$$$
