
     RDKit          3D

 49 55  0  0  0  0  0  0  0  0999 V2000
   -3.9100   -1.3738   17.3851 C   0  0  0  0  0  0  0  0  0  0  0  0
   -4.0759   -1.2005   18.8427 C   0  0  0  0  0  0  0  0  0  0  0  0
   -1.6880   -0.5848   18.9534 C   0  0  0  0  0  0  0  0  0  0  0  0
   -1.4996   -0.7265   17.6652 C   0  0  0  0  0  0  0  0  0  0  0  0
   -0.5713   -0.1876   19.8107 C   0  0  0  0  0  0  0  0  0  0  0  0
   -0.1964   -0.4974   17.0016 C   0  0  0  0  0  0  0  0  0  0  0  0
    0.6210   -0.8780   19.8406 C   0  0  0  0  0  0  0  0  0  0  0  0
    1.6191   -0.4164   20.6744 C   0  0  0  0  0  0  0  0  0  0  0  0
    1.4359    0.6995   21.4559 C   0  0  0  0  0  0  0  0  0  0  0  0
    0.2442    1.3726   21.4132 C   0  0  0  0  0  0  0  0  0  0  0  0
   -0.7790    0.9452   20.5938 C   0  0  0  0  0  0  0  0  0  0  0  0
    0.2698   -1.3653   16.0446 C   0  0  0  0  0  0  0  0  0  0  0  0
    1.4832   -1.1489   15.4052 C   0  0  0  0  0  0  0  0  0  0  0  0
    2.2626   -0.0480   15.7158 C   0  0  0  0  0  0  0  0  0  0  0  0
    1.7821    0.8112   16.6779 C   0  0  0  0  0  0  0  0  0  0  0  0
    0.5714    0.6021   17.3199 C   0  0  0  0  0  0  0  0  0  0  0  0
    3.5423    0.2197   15.0305 C   0  0  0  0  0  0  0  0  0  0  0  0
    2.3550    1.4658   13.4120 C   0  0  0  0  0  0  0  0  0  0  0  0
    2.4931    2.0700   12.0004 C   0  0  0  0  0  0  0  0  0  0  0  0
    3.6565    3.0320   11.9638 C   0  0  1  0  0  0  0  0  0  0  0  0
    4.6206    2.5893   13.0076 C   0  0  0  0  0  0  0  0  0  0  0  0
    4.6872    1.0579   13.0854 C   0  0  0  0  0  0  0  0  0  0  0  0
    4.9483    2.3994    9.9408 C   0  0  0  0  0  0  0  0  0  0  0  0
    4.6689    4.2347    8.7568 C   0  0  0  0  0  0  0  0  0  0  0  0
    4.0030    4.4112    9.9576 C   0  0  0  0  0  0  0  0  0  0  0  0
    4.6402    5.2672    7.8246 C   0  0  0  0  0  0  0  0  0  0  0  0
    3.9731    6.4453    8.0667 C   0  0  0  0  0  0  0  0  0  0  0  0
    3.3053    6.6421    9.2532 C   0  0  0  0  0  0  0  0  0  0  0  0
    3.3425    5.6048   10.1734 C   0  0  0  0  0  0  0  0  0  0  0  0
    3.1109    9.0936    9.1557 C   0  0  0  0  0  0  0  0  0  0  0  0
    2.4019   10.3526    9.5516 C   0  0  0  0  0  0  0  0  0  0  0  0
    2.9976   11.4853    8.7185 C   0  0  0  0  0  0  0  0  0  0  0  0
   -4.9604   -1.7662   16.7025 C   0  0  0  0  0  0  0  0  0  0  0  0
   -4.9621   -1.9784   15.2743 C   0  0  0  0  0  0  0  0  0  0  0  0
   -3.7364   -1.9407   14.6160 C   0  0  0  0  0  0  0  0  0  0  0  0
   -3.6660   -2.1617   13.2600 C   0  0  0  0  0  0  0  0  0  0  0  0
   -4.8005   -2.4198   12.5500 C   0  0  0  0  0  0  0  0  0  0  0  0
   -5.9963   -2.4547   13.2057 C   0  0  0  0  0  0  0  0  0  0  0  0
   -6.1096   -2.2372   14.5760 C   0  0  0  0  0  0  0  0  0  0  0  0
   -2.9500   -0.8070   19.5959 N   0  0  0  0  0  0  0  0  0  0  0  0
   -2.6225   -1.1274   16.8630 N   0  0  0  0  0  0  0  0  0  0  0  0
    3.4581    0.5526   13.6552 N   0  0  1  0  0  4  0  0  0  0  0  0
    4.1996    3.2587   10.6550 N   0  0  0  0  0  0  0  0  0  0  0  0
    5.2264    3.0148    8.7793 N   0  0  0  0  0  0  0  0  0  0  0  0
    2.5919    7.8523    9.5343 N   0  0  0  0  0  0  0  0  0  0  0  0
    4.1901    9.1170    8.4734 O   0  0  0  0  0  0  0  0  0  0  0  0
    5.3272    1.2279   10.2870 O   0  0  0  0  0  0  0  0  0  0  0  0
   -5.1974   -1.4012   19.3911 O   0  0  0  0  0  0  0  0  0  0  0  0
   -4.7066   -2.6381   11.1887 O   0  0  0  0  0  0  0  0  0  0  0  0
  1  2  1  0
  1 33  2  0
 41  1  1  0
 40  2  1  0
  2 48  2  0
  4  3  2  0
  3  5  1  0
  3 40  1  0
  6  4  1  0
  4 41  1  0
  5  7  2  0
  5 11  1  0
 12  6  2  0
 16  6  1  0
  7  8  1  0
  8  9  2  0
 10  9  1  0
 11 10  2  0
 13 12  1  0
 14 13  2  0
 14 15  1  0
 17 14  1  0
 15 16  2  0
 42 17  1  1
 19 18  1  0
 18 42  1  0
 20 19  1  0
 20 21  1  0
 20 43  1  6
 21 22  1  0
 22 42  1  0
 43 23  1  0
 23 44  1  0
 23 47  2  0
 25 24  2  0
 26 24  1  0
 24 44  1  0
 29 25  1  0
 25 43  1  0
 27 26  2  0
 28 27  1  0
 28 29  2  0
 45 28  1  0
 30 31  1  0
 30 45  1  0
 30 46  2  0
 31 32  1  0
 33 34  1  0
 34 35  2  0
 34 39  1  0
 35 36  1  0
 36 37  2  0
 37 38  1  0
 37 49  1  0
 38 39  2  0
M  CHG  1  42   1
M  END
$$$$
