
     RDKit          3D

 49 55  0  0  0  0  0  0  0  0999 V2000
   -2.0746   -1.2978   15.6723 C   0  0  0  0  0  0  0  0  0  0  0  0
   -0.9017   -1.7276   16.4608 C   0  0  0  0  0  0  0  0  0  0  0  0
    0.4558   -0.1416   15.1434 C   0  0  0  0  0  0  0  0  0  0  0  0
   -0.5587    0.2672   14.4232 C   0  0  0  0  0  0  0  0  0  0  0  0
    1.7867    0.4167   14.9051 C   0  0  0  0  0  0  0  0  0  0  0  0
   -0.4440    1.2905   13.3598 C   0  0  0  0  0  0  0  0  0  0  0  0
    2.4926    1.0893   15.8790 C   0  0  0  0  0  0  0  0  0  0  0  0
    3.7468    1.5683   15.5595 C   0  0  0  0  0  0  0  0  0  0  0  0
    4.2828    1.3835   14.3072 C   0  0  0  0  0  0  0  0  0  0  0  0
    3.5665    0.7129   13.3520 C   0  0  0  0  0  0  0  0  0  0  0  0
    2.3099    0.2180   13.6298 C   0  0  0  0  0  0  0  0  0  0  0  0
   -0.9311    1.0534   12.0976 C   0  0  0  0  0  0  0  0  0  0  0  0
   -0.8426    2.0141   11.0990 C   0  0  0  0  0  0  0  0  0  0  0  0
   -0.2573    3.2436   11.3467 C   0  0  0  0  0  0  0  0  0  0  0  0
    0.2272    3.4649   12.6160 C   0  0  0  0  0  0  0  0  0  0  0  0
    0.1418    2.5111   13.6183 C   0  0  0  0  0  0  0  0  0  0  0  0
   -0.1765    4.2917   10.3105 C   0  0  0  0  0  0  0  0  0  0  0  0
    1.6051    4.2484    8.7592 C   0  0  0  0  0  0  0  0  0  0  0  0
    2.8419    5.0487    8.3050 C   0  0  0  0  0  0  0  0  0  0  0  0
    2.4274    6.4339    7.8697 C   0  0  1  0  0  0  0  0  0  0  0  0
    1.1834    6.7703    8.6142 C   0  0  0  0  0  0  0  0  0  0  0  0
    1.2328    6.2262   10.0485 C   0  0  0  0  0  0  0  0  0  0  0  0
    4.2596    7.6934    8.9735 C   0  0  0  0  0  0  0  0  0  0  0  0
    4.8666    8.9780    7.2914 C   0  0  0  0  0  0  0  0  0  0  0  0
    3.8196    8.1865    6.8511 C   0  0  0  0  0  0  0  0  0  0  0  0
    5.4319    9.8854    6.4009 C   0  0  0  0  0  0  0  0  0  0  0  0
    4.9790   10.0121    5.1084 C   0  0  0  0  0  0  0  0  0  0  0  0
    3.9396    9.2360    4.6502 C   0  0  0  0  0  0  0  0  0  0  0  0
    3.3853    8.3362    5.5486 C   0  0  0  0  0  0  0  0  0  0  0  0
    4.3242    9.5593    2.2409 C   0  0  0  0  0  0  0  0  0  0  0  0
    3.7838    9.7307    0.8542 C   0  0  0  0  0  0  0  0  0  0  0  0
    4.9811    9.9161   -0.0754 C   0  0  0  0  0  0  0  0  0  0  0  0
   -3.2216   -1.8802   15.9341 C   0  0  0  0  0  0  0  0  0  0  0  0
   -4.4723   -1.5166   15.3111 C   0  0  0  0  0  0  0  0  0  0  0  0
   -4.4692   -0.4234   14.4496 C   0  0  0  0  0  0  0  0  0  0  0  0
   -5.6221   -0.0415   13.8034 C   0  0  0  0  0  0  0  0  0  0  0  0
   -6.7790   -0.7339   14.0034 C   0  0  0  0  0  0  0  0  0  0  0  0
   -6.7702   -1.8040   14.8496 C   0  0  0  0  0  0  0  0  0  0  0  0
   -5.6251   -2.2224   15.5216 C   0  0  0  0  0  0  0  0  0  0  0  0
    0.3446   -1.1327   16.1731 N   0  0  0  0  0  0  0  0  0  0  0  0
   -1.8458   -0.3156   14.6854 N   0  0  0  0  0  0  0  0  0  0  0  0
    1.1201    4.7849   10.0190 N   0  0  1  0  0  4  0  0  0  0  0  0
    3.4775    7.4109    7.9164 N   0  0  0  0  0  0  0  0  0  0  0  0
    5.1059    8.6564    8.5715 N   0  0  0  0  0  0  0  0  0  0  0  0
    3.4495    9.3345    3.3076 N   0  0  0  0  0  0  0  0  0  0  0  0
    5.5767    9.6123    2.4847 O   0  0  0  0  0  0  0  0  0  0  0  0
    4.2163    7.1595   10.1349 O   0  0  0  0  0  0  0  0  0  0  0  0
   -1.0200   -2.6033   17.3651 O   0  0  0  0  0  0  0  0  0  0  0  0
   -7.9253   -0.3324   13.3445 O   0  0  0  0  0  0  0  0  0  0  0  0
  1  2  1  0
  1 33  2  0
 41  1  1  0
 40  2  1  0
  2 48  2  0
  4  3  2  0
  3  5  1  0
  3 40  1  0
  6  4  1  0
  4 41  1  0
  5  7  2  0
  5 11  1  0
 12  6  2  0
 16  6  1  0
  7  8  1  0
  8  9  2  0
 10  9  1  0
 11 10  2  0
 13 12  1  0
 14 13  2  0
 14 15  1  0
 17 14  1  0
 15 16  2  0
 42 17  1  6
 19 18  1  0
 18 42  1  0
 20 19  1  0
 20 21  1  0
 20 43  1  1
 21 22  1  0
 22 42  1  0
 43 23  1  0
 23 44  1  0
 23 47  2  0
 25 24  2  0
 26 24  1  0
 24 44  1  0
 29 25  1  0
 25 43  1  0
 27 26  2  0
 28 27  1  0
 28 29  2  0
 45 28  1  0
 30 31  1  0
 30 45  1  0
 30 46  2  0
 31 32  1  0
 33 34  1  0
 34 35  2  0
 34 39  1  0
 35 36  1  0
 36 37  2  0
 37 38  1  0
 37 49  1  0
 38 39  2  0
M  CHG  1  42   1
M  END
$$$$
