
     RDKit          3D

 49 55  0  0  0  0  0  0  0  0999 V2000
   -5.3424   -0.7311   16.0632 C   0  0  0  0  0  0  0  0  0  0  0  0
   -5.1900   -1.0014   17.4767 C   0  0  0  0  0  0  0  0  0  0  0  0
   -2.7447   -0.7807   17.2250 C   0  0  0  0  0  0  0  0  0  0  0  0
   -2.8622   -0.5376   15.9555 C   0  0  0  0  0  0  0  0  0  0  0  0
   -1.4699   -0.8205   17.9255 C   0  0  0  0  0  0  0  0  0  0  0  0
   -1.6867   -0.2778   15.1125 C   0  0  0  0  0  0  0  0  0  0  0  0
   -0.6539    0.2295   18.1963 C   0  0  0  0  0  0  0  0  0  0  0  0
    0.5397    0.0492   18.9068 C   0  0  0  0  0  0  0  0  0  0  0  0
    0.9199   -1.1927   19.3486 C   0  0  0  0  0  0  0  0  0  0  0  0
    0.1090   -2.2698   19.0846 C   0  0  0  0  0  0  0  0  0  0  0  0
   -1.0460   -2.0772   18.3942 C   0  0  0  0  0  0  0  0  0  0  0  0
   -0.5634   -1.0155   15.0811 C   0  0  0  0  0  0  0  0  0  0  0  0
    0.5035   -0.6405   14.2446 C   0  0  0  0  0  0  0  0  0  0  0  0
    0.4567    0.4642   13.4390 C   0  0  0  0  0  0  0  0  0  0  0  0
   -0.7034    1.2114   13.4815 C   0  0  0  0  0  0  0  0  0  0  0  0
   -1.7541    0.8593   14.2929 C   0  0  0  0  0  0  0  0  0  0  0  0
    1.5697    0.8514   12.5419 C   0  0  0  0  0  0  0  0  0  0  0  0
    3.6169   -0.0440   11.6124 C   0  0  0  0  0  0  0  0  0  0  0  0
    4.9183    0.7640   11.7127 C   0  0  0  0  0  0  0  0  0  0  0  0
    4.4959    2.1727   12.0838 C   0  0  1  0  0  0  0  0  0  0  0  0
    4.1860    2.0968   13.5725 C   0  0  0  0  0  0  0  0  0  0  0  0
    3.5510    0.7425   13.8991 C   0  0  0  0  0  0  0  0  0  0  0  0
    6.6347    3.3895   12.2647 C   0  0  0  0  0  0  0  0  0  0  0  0
    6.3600    4.9690   10.7613 C   0  0  0  0  0  0  0  0  0  0  0  0
    5.2377    4.1484   10.8136 C   0  0  0  0  0  0  0  0  0  0  0  0
    6.4447    6.0459    9.8983 C   0  0  0  0  0  0  0  0  0  0  0  0
    5.3895    6.3126    9.0692 C   0  0  0  0  0  0  0  0  0  0  0  0
    4.2417    5.5322    9.0725 C   0  0  0  0  0  0  0  0  0  0  0  0
    4.1936    4.4684    9.9452 C   0  0  0  0  0  0  0  0  0  0  0  0
    2.1515    4.8067    8.0534 C   0  0  0  0  0  0  0  0  0  0  0  0
    1.2196    4.7674    6.9026 C   0  0  0  0  0  0  0  0  0  0  0  0
   -0.2237    4.9221    7.3621 C   0  0  0  0  0  0  0  0  0  0  0  0
   -6.4819   -0.6369   15.4441 C   0  0  0  0  0  0  0  0  0  0  0  0
   -6.7544   -0.1533   14.1184 C   0  0  0  0  0  0  0  0  0  0  0  0
   -5.8296    0.4606   13.3093 C   0  0  0  0  0  0  0  0  0  0  0  0
   -6.1701    0.9162   12.0621 C   0  0  0  0  0  0  0  0  0  0  0  0
   -7.4592    0.7815   11.5508 C   0  0  0  0  0  0  0  0  0  0  0  0
   -8.3665    0.1603   12.3846 C   0  0  0  0  0  0  0  0  0  0  0  0
   -8.0446   -0.3008   13.6348 C   0  0  0  0  0  0  0  0  0  0  0  0
   -3.8976   -1.0280   18.0678 N   0  0  0  0  0  0  0  0  0  0  0  0
   -4.1511   -0.4963   15.2927 N   0  0  0  0  0  0  0  0  0  0  0  0
    2.8112    0.1926   12.7978 N   0  0  1  0  0  4  0  0  0  0  0  0
    5.4236    3.1924   11.7352 N   0  0  0  0  0  0  0  0  0  0  0  0
    7.1945    4.4649   11.6709 N   0  0  0  0  0  0  0  0  0  0  0  0
    3.1438    5.7942    8.2245 N   0  0  0  0  0  0  0  0  0  0  0  0
    2.0483    3.9016    8.9297 O   0  0  0  0  0  0  0  0  0  0  0  0
    7.2654    2.7580   13.1670 O   0  0  0  0  0  0  0  0  0  0  0  0
   -6.2207   -1.2156   18.1692 O   0  0  0  0  0  0  0  0  0  0  0  0
   -7.7875    1.2478   10.2846 O   0  0  0  0  0  0  0  0  0  0  0  0
  1  2  1  0
  1 33  2  0
 41  1  1  0
 40  2  1  0
  2 48  2  0
  4  3  2  0
  3  5  1  0
  3 40  1  0
  6  4  1  0
  4 41  1  0
  5  7  2  0
  5 11  1  0
 12  6  2  0
 16  6  1  0
  7  8  1  0
  8  9  2  0
 10  9  1  0
 11 10  2  0
 13 12  1  0
 14 13  2  0
 14 15  1  0
 17 14  1  1
 15 16  2  0
 42 17  1  6
 19 18  1  1
 18 42  1  6
 20 19  1  0
 21 20  1  1
 20 43  1  1
 22 21  1  1
 22 42  1  0
 43 23  1  0
 23 44  1  0
 23 47  2  0
 25 24  2  0
 26 24  1  0
 24 44  1  0
 29 25  1  0
 25 43  1  0
 27 26  2  0
 28 27  1  0
 28 29  2  0
 45 28  1  0
 31 30  1  1
 30 45  1  0
 30 46  2  0
 32 31  1  6
 33 34  1  0
 34 35  2  0
 34 39  1  0
 35 36  1  0
 36 37  2  0
 37 38  1  0
 37 49  1  0
 38 39  2  0
M  CHG  1  42   1
M  END
$$$$
