
     RDKit          3D

 49 55  0  0  0  0  0  0  0  0999 V2000
    5.3078    3.9111   12.5282 C   0  0  0  0  0  0  0  0  0  0  0  0
    6.6087    3.9439   13.2273 C   0  0  0  0  0  0  0  0  0  0  0  0
    5.7674    2.1453   14.6939 C   0  0  0  0  0  0  0  0  0  0  0  0
    4.6017    2.0841   14.1002 C   0  0  0  0  0  0  0  0  0  0  0  0
    6.0536    1.2615   15.8239 C   0  0  0  0  0  0  0  0  0  0  0  0
    3.5286    1.1483   14.5050 C   0  0  0  0  0  0  0  0  0  0  0  0
    5.8319   -0.0977   15.7752 C   0  0  0  0  0  0  0  0  0  0  0  0
    6.1459   -0.8483   16.8899 C   0  0  0  0  0  0  0  0  0  0  0  0
    6.6651   -0.2631   18.0203 C   0  0  0  0  0  0  0  0  0  0  0  0
    6.8784    1.0891   18.0504 C   0  0  0  0  0  0  0  0  0  0  0  0
    6.5786    1.8756   16.9583 C   0  0  0  0  0  0  0  0  0  0  0  0
    3.0250    0.2273   13.6191 C   0  0  0  0  0  0  0  0  0  0  0  0
    2.0303   -0.6653   13.9955 C   0  0  0  0  0  0  0  0  0  0  0  0
    1.5138   -0.6525   15.2796 C   0  0  0  0  0  0  0  0  0  0  0  0
    2.0280    0.2773   16.1547 C   0  0  0  0  0  0  0  0  0  0  0  0
    3.0216    1.1712   15.7865 C   0  0  0  0  0  0  0  0  0  0  0  0
    0.4765   -1.6093   15.7125 C   0  0  0  0  0  0  0  0  0  0  0  0
   -1.6538   -2.6029   15.4744 C   0  0  0  0  0  0  0  0  0  0  0  0
   -3.0616   -2.3400   14.9039 C   0  0  0  0  0  0  0  0  0  0  0  0
   -3.6515   -1.1033   15.5385 C   0  0  1  0  0  0  0  0  0  0  0  0
   -2.5120   -0.2362   15.9442 C   0  0  0  0  0  0  0  0  0  0  0  0
   -1.3767   -0.2963   14.9131 C   0  0  0  0  0  0  0  0  0  0  0  0
   -4.8835   -0.6040   13.4422 C   0  0  0  0  0  0  0  0  0  0  0  0
   -6.4268    0.7410   14.2529 C   0  0  0  0  0  0  0  0  0  0  0  0
   -5.6186    0.3543   15.3083 C   0  0  0  0  0  0  0  0  0  0  0  0
   -7.4890    1.6016   14.5118 C   0  0  0  0  0  0  0  0  0  0  0  0
   -7.7507    2.0712   15.7776 C   0  0  0  0  0  0  0  0  0  0  0  0
   -6.9602    1.7003   16.8407 C   0  0  0  0  0  0  0  0  0  0  0  0
   -5.9048    0.8424   16.5682 C   0  0  0  0  0  0  0  0  0  0  0  0
   -7.4608    3.5136   18.4277 C   0  0  0  0  0  0  0  0  0  0  0  0
   -8.2299    3.9145   19.6492 C   0  0  0  0  0  0  0  0  0  0  0  0
   -8.4909    5.4154   19.5439 C   0  0  0  0  0  0  0  0  0  0  0  0
    5.1300    4.7657   11.5478 C   0  0  0  0  0  0  0  0  0  0  0  0
    4.0548    4.6809   10.5879 C   0  0  0  0  0  0  0  0  0  0  0  0
    4.0485    5.6021    9.5445 C   0  0  0  0  0  0  0  0  0  0  0  0
    3.0669    5.5585    8.5817 C   0  0  0  0  0  0  0  0  0  0  0  0
    2.0905    4.6094    8.6437 C   0  0  0  0  0  0  0  0  0  0  0  0
    2.1068    3.7114    9.6706 C   0  0  0  0  0  0  0  0  0  0  0  0
    3.0824    3.7217   10.6636 C   0  0  0  0  0  0  0  0  0  0  0  0
    6.8064    3.0518   14.3020 N   0  0  0  0  0  0  0  0  0  0  0  0
    4.3609    2.9777   13.0009 N   0  0  0  0  0  0  0  0  0  0  0  0
   -0.7366   -1.5912   14.9793 N   0  0  1  0  0  4  0  0  0  0  0  0
   -4.6835   -0.4730   14.7658 N   0  0  0  0  0  0  0  0  0  0  0  0
   -5.9572    0.1472   13.1456 N   0  0  0  0  0  0  0  0  0  0  0  0
   -7.2100    2.1623   18.1736 N   0  0  0  0  0  0  0  0  0  0  0  0
   -7.0198    4.3785   17.5981 O   0  0  0  0  0  0  0  0  0  0  0  0
   -4.1958   -1.3009   12.6192 O   0  0  0  0  0  0  0  0  0  0  0  0
    7.5129    4.7508   12.8667 O   0  0  0  0  0  0  0  0  0  0  0  0
    1.1140    4.5845    7.6663 O   0  0  0  0  0  0  0  0  0  0  0  0
  1  2  1  0
  1 33  2  0
 41  1  1  0
 40  2  1  0
  2 48  2  0
  4  3  2  0
  3  5  1  0
  3 40  1  0
  6  4  1  0
  4 41  1  0
  5  7  2  0
  5 11  1  0
 12  6  2  0
 16  6  1  0
  7  8  1  0
  8  9  2  0
 10  9  1  0
 11 10  2  0
 13 12  1  0
 14 13  2  0
 14 15  1  0
 17 14  1  0
 15 16  2  0
 42 17  1  1
 19 18  1  0
 18 42  1  0
 20 19  1  0
 20 21  1  0
 20 43  1  6
 21 22  1  0
 22 42  1  0
 43 23  1  0
 23 44  1  0
 23 47  2  0
 25 24  2  0
 26 24  1  0
 24 44  1  0
 29 25  1  0
 25 43  1  0
 27 26  2  0
 28 27  1  0
 28 29  2  0
 45 28  1  0
 30 31  1  0
 30 45  1  0
 30 46  2  0
 31 32  1  0
 33 34  1  0
 34 35  2  0
 34 39  1  0
 35 36  1  0
 36 37  2  0
 37 38  1  0
 37 49  1  0
 38 39  2  0
M  CHG  1  42   1
M  END
$$$$
