
     RDKit          3D

 49 55  0  0  0  0  0  0  0  0999 V2000
   -0.3572    4.6517    8.7986 C   0  0  0  0  0  0  0  0  0  0  0  0
    0.5796    5.1143    7.7973 C   0  0  0  0  0  0  0  0  0  0  0  0
    2.4339    4.2350    9.1684 C   0  0  0  0  0  0  0  0  0  0  0  0
    1.6085    3.8142   10.0774 C   0  0  0  0  0  0  0  0  0  0  0  0
    3.8772    4.0677    9.2478 C   0  0  0  0  0  0  0  0  0  0  0  0
    2.0837    3.1203   11.2827 C   0  0  0  0  0  0  0  0  0  0  0  0
    4.6150    3.0698    8.6986 C   0  0  0  0  0  0  0  0  0  0  0  0
    6.0091    3.0474    8.8329 C   0  0  0  0  0  0  0  0  0  0  0  0
    6.6695    4.0315    9.5239 C   0  0  0  0  0  0  0  0  0  0  0  0
    5.9419    5.0509   10.0886 C   0  0  0  0  0  0  0  0  0  0  0  0
    4.5899    5.0575    9.9485 C   0  0  0  0  0  0  0  0  0  0  0  0
    3.2028    2.3811   11.3743 C   0  0  0  0  0  0  0  0  0  0  0  0
    3.5306    1.7450   12.5854 C   0  0  0  0  0  0  0  0  0  0  0  0
    2.7506    1.8423   13.7049 C   0  0  0  0  0  0  0  0  0  0  0  0
    1.6051    2.6052   13.5958 C   0  0  0  0  0  0  0  0  0  0  0  0
    1.2704    3.2324   12.4207 C   0  0  0  0  0  0  0  0  0  0  0  0
    3.1022    1.1908   14.9876 C   0  0  0  0  0  0  0  0  0  0  0  0
    3.8830   -0.8420   16.0437 C   0  0  0  0  0  0  0  0  0  0  0  0
    2.9244   -1.6669   16.9138 C   0  0  0  0  0  0  0  0  0  0  0  0
    1.7465   -0.7552   17.1997 C   0  0  1  0  0  0  0  0  0  0  0  0
    0.9286   -0.7770   15.9157 C   0  0  0  0  0  0  0  0  0  0  0  0
    1.8663   -0.8522   14.7078 C   0  0  0  0  0  0  0  0  0  0  0  0
    1.0649   -0.4656   19.5533 C   0  0  0  0  0  0  0  0  0  0  0  0
   -0.4046   -2.0844   19.7784 C   0  0  0  0  0  0  0  0  0  0  0  0
    0.1089   -2.0715   18.4854 C   0  0  0  0  0  0  0  0  0  0  0  0
   -1.3476   -3.0094   20.1865 C   0  0  0  0  0  0  0  0  0  0  0  0
   -1.7896   -3.9424   19.2886 C   0  0  0  0  0  0  0  0  0  0  0  0
   -1.3172   -3.9828   17.9841 C   0  0  0  0  0  0  0  0  0  0  0  0
   -0.3788   -3.0458   17.6139 C   0  0  0  0  0  0  0  0  0  0  0  0
   -3.1012   -4.9050   16.6055 C   0  0  0  0  0  0  0  0  0  0  0  0
   -3.6536   -5.8187   15.5787 C   0  0  0  0  0  0  0  0  0  0  0  0
   -5.0230   -5.3483   15.1078 C   0  0  0  0  0  0  0  0  0  0  0  0
   -1.6506    4.7467    8.7054 C   0  0  0  0  0  0  0  0  0  0  0  0
   -2.6602    4.2838    9.6175 C   0  0  0  0  0  0  0  0  0  0  0  0
   -3.9293    4.8024    9.7010 C   0  0  0  0  0  0  0  0  0  0  0  0
   -4.8328    4.3226   10.6134 C   0  0  0  0  0  0  0  0  0  0  0  0
   -4.5175    3.2917   11.4962 C   0  0  0  0  0  0  0  0  0  0  0  0
   -3.2366    2.7895   11.3889 C   0  0  0  0  0  0  0  0  0  0  0  0
   -2.3196    3.2571   10.4836 C   0  0  0  0  0  0  0  0  0  0  0  0
    1.9756    4.9110    7.9712 N   0  0  0  0  0  0  0  0  0  0  0  0
    0.1741    3.9902    9.9597 N   0  0  0  0  0  0  0  0  0  0  0  0
    3.1409   -0.2369   14.9512 N   0  0  1  0  0  4  0  0  0  0  0  0
    1.0024   -1.0788   18.3675 N   0  0  0  0  0  0  0  0  0  0  0  0
    0.2116   -1.0789   20.4007 N   0  0  0  0  0  0  0  0  0  0  0  0
   -1.7618   -4.9392   17.0457 N   0  0  0  0  0  0  0  0  0  0  0  0
   -3.8781   -4.0470   17.1138 O   0  0  0  0  0  0  0  0  0  0  0  0
    1.7564    0.5228   19.9479 O   0  0  0  0  0  0  0  0  0  0  0  0
    0.1356    5.7017    6.7748 O   0  0  0  0  0  0  0  0  0  0  0  0
   -5.4449    2.8163   12.4140 O   0  0  0  0  0  0  0  0  0  0  0  0
  1  2  1  0
  1 33  2  0
 41  1  1  0
 40  2  1  0
  2 48  2  0
  4  3  2  0
  3  5  1  0
  3 40  1  0
  6  4  1  0
  4 41  1  0
  5  7  2  0
  5 11  1  0
 12  6  2  0
 16  6  1  0
  7  8  1  0
  8  9  2  0
 10  9  1  0
 11 10  2  0
 13 12  1  0
 14 13  2  0
 14 15  1  0
 17 14  1  1
 15 16  2  0
 42 17  1  1
 19 18  1  1
 18 42  1  6
 20 19  1  0
 21 20  1  1
 20 43  1  1
 22 21  1  1
 22 42  1  0
 43 23  1  0
 23 44  1  0
 23 47  2  0
 25 24  2  0
 26 24  1  0
 24 44  1  0
 29 25  1  0
 25 43  1  0
 27 26  2  0
 28 27  1  0
 28 29  2  0
 45 28  1  0
 31 30  1  1
 30 45  1  0
 30 46  2  0
 32 31  1  6
 33 34  1  0
 34 35  2  0
 34 39  1  0
 35 36  1  0
 36 37  2  0
 37 38  1  0
 37 49  1  0
 38 39  2  0
M  CHG  1  42   1
M  END
$$$$
