
     RDKit          3D

 49 55  0  0  0  0  0  0  0  0999 V2000
    1.8489   -0.1575   17.8409 C   0  0  0  0  0  0  0  0  0  0  0  0
    0.5237   -0.7547   18.1044 C   0  0  0  0  0  0  0  0  0  0  0  0
    0.0149   -0.4691   15.7057 C   0  0  0  0  0  0  0  0  0  0  0  0
    1.1792    0.0636   15.4305 C   0  0  0  0  0  0  0  0  0  0  0  0
   -0.9728   -0.6445   14.6411 C   0  0  0  0  0  0  0  0  0  0  0  0
    1.5736    0.5049   14.0737 C   0  0  0  0  0  0  0  0  0  0  0  0
   -1.5425   -1.8660   14.3539 C   0  0  0  0  0  0  0  0  0  0  0  0
   -2.4746   -1.9261   13.3379 C   0  0  0  0  0  0  0  0  0  0  0  0
   -2.8290   -0.8035   12.6282 C   0  0  0  0  0  0  0  0  0  0  0  0
   -2.2521    0.4018   12.9277 C   0  0  0  0  0  0  0  0  0  0  0  0
   -1.3167    0.5057   13.9353 C   0  0  0  0  0  0  0  0  0  0  0  0
    2.1310    1.7435   13.8694 C   0  0  0  0  0  0  0  0  0  0  0  0
    2.5192    2.1588   12.6025 C   0  0  0  0  0  0  0  0  0  0  0  0
    2.3541    1.3337   11.5035 C   0  0  0  0  0  0  0  0  0  0  0  0
    1.7929    0.0965   11.7249 C   0  0  0  0  0  0  0  0  0  0  0  0
    1.4035   -0.3253   12.9867 C   0  0  0  0  0  0  0  0  0  0  0  0
    2.7846    1.7405   10.1515 C   0  0  0  0  0  0  0  0  0  0  0  0
    4.1611    3.2112    8.9167 C   0  0  0  0  0  0  0  0  0  0  0  0
    4.3427    4.7016    8.5671 C   0  0  0  0  0  0  0  0  0  0  0  0
    3.0933    5.2309    7.9045 C   0  0  1  0  0  0  0  0  0  0  0  0
    1.9564    4.4063    8.3971 C   0  0  0  0  0  0  0  0  0  0  0  0
    2.1369    4.0432    9.8774 C   0  0  0  0  0  0  0  0  0  0  0  0
    3.2256    7.4265    9.0550 C   0  0  0  0  0  0  0  0  0  0  0  0
    2.4523    8.7144    7.4452 C   0  0  0  0  0  0  0  0  0  0  0  0
    2.4456    7.4129    6.9735 C   0  0  0  0  0  0  0  0  0  0  0  0
    2.0041    9.7272    6.6030 C   0  0  0  0  0  0  0  0  0  0  0  0
    1.5596    9.4673    5.3277 C   0  0  0  0  0  0  0  0  0  0  0  0
    1.5438    8.1814    4.8390 C   0  0  0  0  0  0  0  0  0  0  0  0
    1.9929    7.1817    5.6892 C   0  0  0  0  0  0  0  0  0  0  0  0
    0.4271    8.8326    2.7447 C   0  0  0  0  0  0  0  0  0  0  0  0
    0.2586    8.6240    1.2707 C   0  0  0  0  0  0  0  0  0  0  0  0
   -0.1430    9.9689    0.6691 C   0  0  0  0  0  0  0  0  0  0  0  0
    2.6559   -0.0082   18.8655 C   0  0  0  0  0  0  0  0  0  0  0  0
    3.8687    0.7744   18.8305 C   0  0  0  0  0  0  0  0  0  0  0  0
    4.3875    1.1035   17.5816 C   0  0  0  0  0  0  0  0  0  0  0  0
    5.5255    1.8695   17.4789 C   0  0  0  0  0  0  0  0  0  0  0  0
    6.1546    2.3128   18.6038 C   0  0  0  0  0  0  0  0  0  0  0  0
    5.6371    1.9846   19.8227 C   0  0  0  0  0  0  0  0  0  0  0  0
    4.4880    1.2125   19.9690 C   0  0  0  0  0  0  0  0  0  0  0  0
   -0.3670   -0.8962   17.0197 N   0  0  0  0  0  0  0  0  0  0  0  0
    2.1148    0.2256   16.5091 N   0  0  0  0  0  0  0  0  0  0  0  0
    3.2116    3.0847   10.0086 N   0  0  1  0  0  4  0  0  0  0  0  0
    2.9297    6.6538    7.9946 N   0  0  0  0  0  0  0  0  0  0  0  0
    2.9268    8.6873    8.6995 N   0  0  0  0  0  0  0  0  0  0  0  0
    1.0971    7.8759    3.5125 N   0  0  0  0  0  0  0  0  0  0  0  0
   -0.0279    9.8712    3.3321 O   0  0  0  0  0  0  0  0  0  0  0  0
    3.6972    7.0489   10.1823 O   0  0  0  0  0  0  0  0  0  0  0  0
    0.2053   -1.1254   19.2704 O   0  0  0  0  0  0  0  0  0  0  0  0
    7.2967    3.0803   18.4773 O   0  0  0  0  0  0  0  0  0  0  0  0
  1  2  1  0
  1 33  2  0
 41  1  1  0
 40  2  1  0
  2 48  2  0
  4  3  2  0
  3  5  1  0
  3 40  1  0
  6  4  1  0
  4 41  1  0
  5  7  2  0
  5 11  1  0
 12  6  2  0
 16  6  1  0
  7  8  1  0
  8  9  2  0
 10  9  1  0
 11 10  2  0
 13 12  1  0
 14 13  2  0
 14 15  1  0
 17 14  1  0
 15 16  2  0
 42 17  1  6
 19 18  1  0
 18 42  1  0
 20 19  1  0
 20 21  1  0
 20 43  1  1
 21 22  1  0
 22 42  1  0
 43 23  1  0
 23 44  1  0
 23 47  2  0
 25 24  2  0
 26 24  1  0
 24 44  1  0
 29 25  1  0
 25 43  1  0
 27 26  2  0
 28 27  1  0
 28 29  2  0
 45 28  1  0
 30 31  1  0
 30 45  1  0
 30 46  2  0
 31 32  1  0
 33 34  1  0
 34 35  2  0
 34 39  1  0
 35 36  1  0
 36 37  2  0
 37 38  1  0
 37 49  1  0
 38 39  2  0
M  CHG  1  42   1
M  END
$$$$
