
     RDKit          3D

 49 55  0  0  0  0  0  0  0  0999 V2000
    2.3133   -3.8715   15.3458 C   0  0  0  0  0  0  0  0  0  0  0  0
    1.1229   -4.7248   15.1534 C   0  0  0  0  0  0  0  0  0  0  0  0
   -0.2573   -2.6841   15.3090 C   0  0  0  0  0  0  0  0  0  0  0  0
    0.7721   -1.8932   15.4810 C   0  0  0  0  0  0  0  0  0  0  0  0
   -1.6083   -2.1234   15.2910 C   0  0  0  0  0  0  0  0  0  0  0  0
    0.6544   -0.4280   15.6559 C   0  0  0  0  0  0  0  0  0  0  0  0
   -2.1000   -1.3440   16.3156 C   0  0  0  0  0  0  0  0  0  0  0  0
   -3.3838   -0.8511   16.1994 C   0  0  0  0  0  0  0  0  0  0  0  0
   -4.1558   -1.1263   15.0958 C   0  0  0  0  0  0  0  0  0  0  0  0
   -3.6505   -1.9030   14.0876 C   0  0  0  0  0  0  0  0  0  0  0  0
   -2.3726   -2.4151   14.1639 C   0  0  0  0  0  0  0  0  0  0  0  0
    1.2240    0.2013   16.7357 C   0  0  0  0  0  0  0  0  0  0  0  0
    1.1327    1.5772   16.8986 C   0  0  0  0  0  0  0  0  0  0  0  0
    0.4611    2.3583   15.9740 C   0  0  0  0  0  0  0  0  0  0  0  0
   -0.1053    1.7124   14.8985 C   0  0  0  0  0  0  0  0  0  0  0  0
   -0.0177    0.3393   14.7289 C   0  0  0  0  0  0  0  0  0  0  0  0
    0.3742    3.8256   16.1094 C   0  0  0  0  0  0  0  0  0  0  0  0
   -0.1208    5.6178   17.5673 C   0  0  0  0  0  0  0  0  0  0  0  0
   -1.2803    6.2619   18.3529 C   0  0  0  0  0  0  0  0  0  0  0  0
   -2.3866    6.6587   17.4049 C   0  0  1  0  0  0  0  0  0  0  0  0
   -2.3015    5.7482   16.2308 C   0  0  0  0  0  0  0  0  0  0  0  0
   -1.9156    4.3261   16.6604 C   0  0  0  0  0  0  0  0  0  0  0  0
   -4.4779    5.7752   18.4086 C   0  0  0  0  0  0  0  0  0  0  0  0
   -5.4745    7.6811   18.8802 C   0  0  0  0  0  0  0  0  0  0  0  0
   -4.2590    7.9841   18.2907 C   0  0  0  0  0  0  0  0  0  0  0  0
   -6.2999    8.7295   19.2745 C   0  0  0  0  0  0  0  0  0  0  0  0
   -5.9396   10.0444   19.0936 C   0  0  0  0  0  0  0  0  0  0  0  0
   -4.7369   10.3681   18.5094 C   0  0  0  0  0  0  0  0  0  0  0  0
   -3.9242    9.3133   18.1209 C   0  0  0  0  0  0  0  0  0  0  0  0
   -5.0409   12.7806   18.8901 C   0  0  0  0  0  0  0  0  0  0  0  0
   -4.5611   14.1898   18.7215 C   0  0  0  0  0  0  0  0  0  0  0  0
   -5.7779   15.0391   18.3610 C   0  0  0  0  0  0  0  0  0  0  0  0
    3.4818   -4.4686   15.3826 C   0  0  0  0  0  0  0  0  0  0  0  0
    4.7147   -3.8086   15.7422 C   0  0  0  0  0  0  0  0  0  0  0  0
    4.7004   -2.4195   15.8289 C   0  0  0  0  0  0  0  0  0  0  0  0
    5.8348   -1.7318   16.1929 C   0  0  0  0  0  0  0  0  0  0  0  0
    6.9844   -2.4089   16.4720 C   0  0  0  0  0  0  0  0  0  0  0  0
    6.9867   -3.7704   16.3842 C   0  0  0  0  0  0  0  0  0  0  0  0
    5.8602   -4.5027   16.0201 C   0  0  0  0  0  0  0  0  0  0  0  0
   -0.1432   -4.1030   15.1400 N   0  0  0  0  0  0  0  0  0  0  0  0
    2.0798   -2.4887   15.5016 N   0  0  0  0  0  0  0  0  0  0  0  0
   -0.5331    4.3115   17.0842 N   0  0  1  0  0  4  0  0  0  0  0  0
   -3.6783    6.7835   18.0176 N   0  0  0  0  0  0  0  0  0  0  0  0
   -5.5747    6.3446   18.9359 N   0  0  0  0  0  0  0  0  0  0  0  0
   -4.3255   11.7266   18.3149 N   0  0  0  0  0  0  0  0  0  0  0  0
   -6.0979   12.5059   19.5519 O   0  0  0  0  0  0  0  0  0  0  0  0
   -4.2513    4.5207   18.3046 O   0  0  0  0  0  0  0  0  0  0  0  0
    1.2441   -5.9747   15.0060 O   0  0  0  0  0  0  0  0  0  0  0  0
    8.1122   -1.6979   16.8349 O   0  0  0  0  0  0  0  0  0  0  0  0
  1  2  1  0
  1 33  2  0
 41  1  1  0
 40  2  1  0
  2 48  2  0
  4  3  2  0
  3  5  1  0
  3 40  1  0
  6  4  1  0
  4 41  1  0
  5  7  2  0
  5 11  1  0
 12  6  2  0
 16  6  1  0
  7  8  1  0
  8  9  2  0
 10  9  1  0
 11 10  2  0
 13 12  1  0
 14 13  2  0
 14 15  1  0
 17 14  1  0
 15 16  2  0
 42 17  1  6
 19 18  1  0
 18 42  1  0
 20 19  1  0
 20 21  1  0
 20 43  1  1
 21 22  1  0
 22 42  1  0
 43 23  1  0
 23 44  1  0
 23 47  2  0
 25 24  2  0
 26 24  1  0
 24 44  1  0
 29 25  1  0
 25 43  1  0
 27 26  2  0
 28 27  1  0
 28 29  2  0
 45 28  1  0
 30 31  1  0
 30 45  1  0
 30 46  2  0
 31 32  1  0
 33 34  1  0
 34 35  2  0
 34 39  1  0
 35 36  1  0
 36 37  2  0
 37 38  1  0
 37 49  1  0
 38 39  2  0
M  CHG  1  42   1
M  END
$$$$
