
     RDKit          3D

 49 55  0  0  0  0  0  0  0  0999 V2000
    7.2047    2.3106   14.4233 C   0  0  0  0  0  0  0  0  0  0  0  0
    7.4835    2.9727   13.1670 C   0  0  0  0  0  0  0  0  0  0  0  0
    5.0880    2.8252   12.5915 C   0  0  0  0  0  0  0  0  0  0  0  0
    4.8194    2.2295   13.7128 C   0  0  0  0  0  0  0  0  0  0  0  0
    4.0854    3.1470   11.5872 C   0  0  0  0  0  0  0  0  0  0  0  0
    3.4487    1.8274   14.0586 C   0  0  0  0  0  0  0  0  0  0  0  0
    3.1948    2.2945   11.0200 C   0  0  0  0  0  0  0  0  0  0  0  0
    2.2621    2.7488   10.0789 C   0  0  0  0  0  0  0  0  0  0  0  0
    2.2217    4.0672    9.7018 C   0  0  0  0  0  0  0  0  0  0  0  0
    3.1148    4.9474   10.2630 C   0  0  0  0  0  0  0  0  0  0  0  0
    4.0131    4.4899   11.1749 C   0  0  0  0  0  0  0  0  0  0  0  0
    3.0664    1.2475   15.2095 C   0  0  0  0  0  0  0  0  0  0  0  0
    1.7208    0.8864   15.4043 C   0  0  0  0  0  0  0  0  0  0  0  0
    0.7549    1.1010   14.4597 C   0  0  0  0  0  0  0  0  0  0  0  0
    1.1624    1.6978   13.2834 C   0  0  0  0  0  0  0  0  0  0  0  0
    2.4721    2.0561   13.0771 C   0  0  0  0  0  0  0  0  0  0  0  0
   -0.6664    0.7407   14.6685 C   0  0  0  0  0  0  0  0  0  0  0  0
   -1.7811   -1.4047   14.5614 C   0  0  0  0  0  0  0  0  0  0  0  0
   -3.2679   -1.4746   14.1857 C   0  0  0  0  0  0  0  0  0  0  0  0
   -3.7911   -0.0580   14.3273 C   0  0  1  0  0  0  0  0  0  0  0  0
   -3.2967    0.6565   13.0770 C   0  0  0  0  0  0  0  0  0  0  0  0
   -1.9073    0.1356   12.7004 C   0  0  0  0  0  0  0  0  0  0  0  0
   -5.8435   -0.1270   15.6951 C   0  0  0  0  0  0  0  0  0  0  0  0
   -7.3779    0.3422   14.1931 C   0  0  0  0  0  0  0  0  0  0  0  0
   -6.1144    0.3369   13.6107 C   0  0  0  0  0  0  0  0  0  0  0  0
   -8.5230    0.6063   13.4646 C   0  0  0  0  0  0  0  0  0  0  0  0
   -8.4087    0.8707   12.1271 C   0  0  0  0  0  0  0  0  0  0  0  0
   -7.1774    0.8808   11.4864 C   0  0  0  0  0  0  0  0  0  0  0  0
   -6.0595    0.6135   12.2443 C   0  0  0  0  0  0  0  0  0  0  0  0
   -8.1260    0.8919    9.2428 C   0  0  0  0  0  0  0  0  0  0  0  0
   -8.1335    1.2449    7.8042 C   0  0  0  0  0  0  0  0  0  0  0  0
   -9.5130    1.0317    7.1960 C   0  0  0  0  0  0  0  0  0  0  0  0
    8.0863    2.0728   15.3488 C   0  0  0  0  0  0  0  0  0  0  0  0
    7.8932    1.5260   16.6638 C   0  0  0  0  0  0  0  0  0  0  0  0
    8.8720    1.4455   17.6239 C   0  0  0  0  0  0  0  0  0  0  0  0
    8.6179    0.8895   18.8509 C   0  0  0  0  0  0  0  0  0  0  0  0
    7.3650    0.3823   19.1889 C   0  0  0  0  0  0  0  0  0  0  0  0
    6.4011    0.4776   18.2059 C   0  0  0  0  0  0  0  0  0  0  0  0
    6.6371    1.0293   16.9733 C   0  0  0  0  0  0  0  0  0  0  0  0
    6.4341    3.2354   12.2450 N   0  0  0  0  0  0  0  0  0  0  0  0
    5.8439    1.9332   14.6952 N   0  0  0  0  0  0  0  0  0  0  0  0
   -1.1525   -0.3140   13.8365 N   0  0  1  0  0  4  0  0  0  0  0  0
   -5.1929    0.0489   14.5411 N   0  0  0  0  0  0  0  0  0  0  0  0
   -7.1636    0.0520   15.4768 N   0  0  0  0  0  0  0  0  0  0  0  0
   -7.0421    1.1506   10.1073 N   0  0  0  0  0  0  0  0  0  0  0  0
   -9.1514    0.3264    9.7188 O   0  0  0  0  0  0  0  0  0  0  0  0
   -5.4217   -0.4137   16.8572 O   0  0  0  0  0  0  0  0  0  0  0  0
    8.6702    3.3068   12.9062 O   0  0  0  0  0  0  0  0  0  0  0  0
    7.1237   -0.1769   20.4370 O   0  0  0  0  0  0  0  0  0  0  0  0
  1  2  1  0
  1 33  2  0
 41  1  1  0
 40  2  1  0
  2 48  2  0
  4  3  2  0
  3  5  1  0
  3 40  1  0
  6  4  1  0
  4 41  1  0
  5  7  2  0
  5 11  1  0
 12  6  2  0
 16  6  1  0
  7  8  1  0
  8  9  2  0
 10  9  1  0
 11 10  2  0
 13 12  1  0
 14 13  2  0
 14 15  1  0
 17 14  1  1
 15 16  2  0
 42 17  1  1
 19 18  1  1
 18 42  1  6
 20 19  1  0
 21 20  1  1
 20 43  1  6
 22 21  1  1
 22 42  1  0
 43 23  1  0
 23 44  1  0
 23 47  2  0
 25 24  2  0
 26 24  1  0
 24 44  1  0
 29 25  1  0
 25 43  1  0
 27 26  2  0
 28 27  1  0
 28 29  2  0
 45 28  1  0
 31 30  1  1
 30 45  1  0
 30 46  2  0
 32 31  1  6
 33 34  1  0
 34 35  2  0
 34 39  1  0
 35 36  1  0
 36 37  2  0
 37 38  1  0
 37 49  1  0
 38 39  2  0
M  CHG  1  42   1
M  END
$$$$
