
     RDKit          3D

 49 55  0  0  0  0  0  0  0  0999 V2000
   -6.7978   -0.0553   12.5955 C   0  0  0  0  0  0  0  0  0  0  0  0
   -6.5967    0.5665   11.3043 C   0  0  0  0  0  0  0  0  0  0  0  0
   -4.1885    0.7636   11.8073 C   0  0  0  0  0  0  0  0  0  0  0  0
   -4.3501    0.2086   12.9694 C   0  0  0  0  0  0  0  0  0  0  0  0
   -2.9010    1.2111   11.2978 C   0  0  0  0  0  0  0  0  0  0  0  0
   -3.2160   -0.0144   13.8772 C   0  0  0  0  0  0  0  0  0  0  0  0
   -2.6177    2.4151   10.7393 C   0  0  0  0  0  0  0  0  0  0  0  0
   -1.3195    2.7235   10.3131 C   0  0  0  0  0  0  0  0  0  0  0  0
   -0.2971    1.8185   10.4461 C   0  0  0  0  0  0  0  0  0  0  0  0
   -0.5620    0.5932   11.0081 C   0  0  0  0  0  0  0  0  0  0  0  0
   -1.8273    0.3104   11.4166 C   0  0  0  0  0  0  0  0  0  0  0  0
   -2.5288   -1.1622   14.0093 C   0  0  0  0  0  0  0  0  0  0  0  0
   -1.4765   -1.2512   14.9386 C   0  0  0  0  0  0  0  0  0  0  0  0
   -1.1050   -0.2032   15.7355 C   0  0  0  0  0  0  0  0  0  0  0  0
   -1.8193    0.9689   15.5882 C   0  0  0  0  0  0  0  0  0  0  0  0
   -2.8496    1.0724   14.6859 C   0  0  0  0  0  0  0  0  0  0  0  0
    0.0151   -0.2864   16.7008 C   0  0  0  0  0  0  0  0  0  0  0  0
    1.2870   -1.6394   18.2528 C   0  0  0  0  0  0  0  0  0  0  0  0
    0.8794   -1.6915   19.7318 C   0  0  0  0  0  0  0  0  0  0  0  0
   -0.0713   -0.5271   19.9339 C   0  0  1  0  0  0  0  0  0  0  0  0
   -1.3894   -1.0053   19.3407 C   0  0  0  0  0  0  0  0  0  0  0  0
   -1.1165   -1.8726   18.1090 C   0  0  0  0  0  0  0  0  0  0  0  0
    0.3615   -0.6162   22.3614 C   0  0  0  0  0  0  0  0  0  0  0  0
   -0.7220    1.1648   23.0576 C   0  0  0  0  0  0  0  0  0  0  0  0
   -0.8398    1.0339   21.6776 C   0  0  0  0  0  0  0  0  0  0  0  0
   -1.3153    2.2030   23.7517 C   0  0  0  0  0  0  0  0  0  0  0  0
   -2.0422    3.1314   23.0575 C   0  0  0  0  0  0  0  0  0  0  0  0
   -2.1976    3.0574   21.6803 C   0  0  0  0  0  0  0  0  0  0  0  0
   -1.5923    2.0097   21.0233 C   0  0  0  0  0  0  0  0  0  0  0  0
   -2.9005    5.3632   21.3301 C   0  0  0  0  0  0  0  0  0  0  0  0
   -3.7702    6.4107   20.7463 C   0  0  0  0  0  0  0  0  0  0  0  0
   -3.5734    7.7432   21.4563 C   0  0  0  0  0  0  0  0  0  0  0  0
   -7.9354   -0.5094   13.0316 C   0  0  0  0  0  0  0  0  0  0  0  0
   -8.2461   -1.0999   14.3045 C   0  0  0  0  0  0  0  0  0  0  0  0
   -7.5445   -0.8665   15.4620 C   0  0  0  0  0  0  0  0  0  0  0  0
   -7.8878   -1.4846   16.6363 C   0  0  0  0  0  0  0  0  0  0  0  0
   -8.9576   -2.3734   16.7202 C   0  0  0  0  0  0  0  0  0  0  0  0
   -9.6448   -2.5878   15.5428 C   0  0  0  0  0  0  0  0  0  0  0  0
   -9.3155   -1.9796   14.3592 C   0  0  0  0  0  0  0  0  0  0  0  0
   -5.2978    0.9788   10.9000 N   0  0  0  0  0  0  0  0  0  0  0  0
   -5.6480   -0.2342   13.4404 N   0  0  0  0  0  0  0  0  0  0  0  0
    0.0966   -1.5123   17.4300 N   0  0  1  0  0  4  0  0  0  0  0  0
   -0.1735   -0.0567   21.2720 N   0  0  0  0  0  0  0  0  0  0  0  0
    0.0258    0.1279   23.4366 N   0  0  0  0  0  0  0  0  0  0  0  0
   -2.9450    4.0060   20.9492 N   0  0  0  0  0  0  0  0  0  0  0  0
   -2.0727    5.7097   22.2204 O   0  0  0  0  0  0  0  0  0  0  0  0
    1.0748   -1.6563   22.5024 O   0  0  0  0  0  0  0  0  0  0  0  0
   -7.5918    0.7379   10.5505 O   0  0  0  0  0  0  0  0  0  0  0  0
   -9.2930   -2.9907   17.9181 O   0  0  0  0  0  0  0  0  0  0  0  0
  1  2  1  0
  1 33  2  0
 41  1  1  0
 40  2  1  0
  2 48  2  0
  4  3  2  0
  3  5  1  0
  3 40  1  0
  6  4  1  0
  4 41  1  0
  5  7  2  0
  5 11  1  0
 12  6  2  0
 16  6  1  0
  7  8  1  0
  8  9  2  0
 10  9  1  0
 11 10  2  0
 13 12  1  0
 14 13  2  0
 14 15  1  0
 17 14  1  1
 15 16  2  0
 42 17  1  1
 19 18  1  1
 18 42  1  6
 20 19  1  0
 21 20  1  1
 20 43  1  1
 22 21  1  1
 22 42  1  0
 43 23  1  0
 23 44  1  0
 23 47  2  0
 25 24  2  0
 26 24  1  0
 24 44  1  0
 29 25  1  0
 25 43  1  0
 27 26  2  0
 28 27  1  0
 28 29  2  0
 45 28  1  0
 31 30  1  1
 30 45  1  0
 30 46  2  0
 32 31  1  6
 33 34  1  0
 34 35  2  0
 34 39  1  0
 35 36  1  0
 36 37  2  0
 37 38  1  0
 37 49  1  0
 38 39  2  0
M  CHG  1  42   1
M  END
$$$$
