
     RDKit          3D

 49 55  0  0  0  0  0  0  0  0999 V2000
   -2.0762   -3.6421   14.7286 C   0  0  0  0  0  0  0  0  0  0  0  0
   -2.8891   -3.3030   13.5804 C   0  0  0  0  0  0  0  0  0  0  0  0
   -3.5989   -1.2376   14.7299 C   0  0  0  0  0  0  0  0  0  0  0  0
   -2.8764   -1.5259   15.7688 C   0  0  0  0  0  0  0  0  0  0  0  0
   -4.4075   -0.0331   14.6172 C   0  0  0  0  0  0  0  0  0  0  0  0
   -2.8207   -0.6340   16.9357 C   0  0  0  0  0  0  0  0  0  0  0  0
   -4.1498    1.0544   13.8474 C   0  0  0  0  0  0  0  0  0  0  0  0
   -5.0344    2.1400   13.8153 C   0  0  0  0  0  0  0  0  0  0  0  0
   -6.1858    2.1371   14.5611 C   0  0  0  0  0  0  0  0  0  0  0  0
   -6.4660    1.0465   15.3482 C   0  0  0  0  0  0  0  0  0  0  0  0
   -5.5969    0.0014   15.3674 C   0  0  0  0  0  0  0  0  0  0  0  0
   -1.8035   -0.5466   17.8103 C   0  0  0  0  0  0  0  0  0  0  0  0
   -1.8882    0.3329   18.9048 C   0  0  0  0  0  0  0  0  0  0  0  0
   -2.9795    1.1260   19.1316 C   0  0  0  0  0  0  0  0  0  0  0  0
   -4.0156    1.0258   18.2248 C   0  0  0  0  0  0  0  0  0  0  0  0
   -3.9490    0.1719   17.1512 C   0  0  0  0  0  0  0  0  0  0  0  0
   -3.0645    2.0680   20.2713 C   0  0  0  0  0  0  0  0  0  0  0  0
   -4.0502    2.0419   22.4814 C   0  0  0  0  0  0  0  0  0  0  0  0
   -4.7165    3.3092   23.0351 C   0  0  0  0  0  0  0  0  0  0  0  0
   -4.2501    4.4400   22.1384 C   0  0  1  0  0  0  0  0  0  0  0  0
   -5.0930    4.2984   20.8784 C   0  0  0  0  0  0  0  0  0  0  0  0
   -5.3285    2.8156   20.5791 C   0  0  0  0  0  0  0  0  0  0  0  0
   -3.3796    6.2844   23.5272 C   0  0  0  0  0  0  0  0  0  0  0  0
   -4.9806    7.7753   23.3156 C   0  0  0  0  0  0  0  0  0  0  0  0
   -5.2834    6.6311   22.5843 C   0  0  0  0  0  0  0  0  0  0  0  0
   -5.8267    8.8680   23.3563 C   0  0  0  0  0  0  0  0  0  0  0  0
   -7.0001    8.8214   22.6541 C   0  0  0  0  0  0  0  0  0  0  0  0
   -7.3603    7.7098   21.9052 C   0  0  0  0  0  0  0  0  0  0  0  0
   -6.4926    6.6409   21.8885 C   0  0  0  0  0  0  0  0  0  0  0  0
   -9.7702    8.0465   21.7935 C   0  0  0  0  0  0  0  0  0  0  0  0
  -11.1043    7.9076   21.1647 C   0  0  0  0  0  0  0  0  0  0  0  0
  -12.1936    8.4807   22.0609 C   0  0  0  0  0  0  0  0  0  0  0  0
   -1.3070   -4.6871   14.8111 C   0  0  0  0  0  0  0  0  0  0  0  0
   -0.3055   -4.9986   15.7938 C   0  0  0  0  0  0  0  0  0  0  0  0
    0.3468   -4.0653   16.5620 C   0  0  0  0  0  0  0  0  0  0  0  0
    1.3084   -4.4373   17.4652 C   0  0  0  0  0  0  0  0  0  0  0  0
    1.6721   -5.7691   17.6534 C   0  0  0  0  0  0  0  0  0  0  0  0
    0.9999   -6.6844   16.8695 C   0  0  0  0  0  0  0  0  0  0  0  0
    0.0364   -6.3311   15.9606 C   0  0  0  0  0  0  0  0  0  0  0  0
   -3.6531   -2.1045   13.5698 N   0  0  0  0  0  0  0  0  0  0  0  0
   -2.0748   -2.7319   15.8420 N   0  0  0  0  0  0  0  0  0  0  0  0
   -4.2614    1.9753   21.0458 N   0  0  1  0  0  4  0  0  0  0  0  0
   -4.2967    5.7343   22.7257 N   0  0  0  0  0  0  0  0  0  0  0  0
   -3.8000    7.5179   23.8794 N   0  0  0  0  0  0  0  0  0  0  0  0
   -8.5674    7.6451   21.1761 N   0  0  0  0  0  0  0  0  0  0  0  0
   -9.7108    8.5543   22.9496 O   0  0  0  0  0  0  0  0  0  0  0  0
   -2.2721    5.8398   23.9589 O   0  0  0  0  0  0  0  0  0  0  0  0
   -2.9092   -4.0897   12.5962 O   0  0  0  0  0  0  0  0  0  0  0  0
    2.6479   -6.1293   18.5736 O   0  0  0  0  0  0  0  0  0  0  0  0
  1  2  1  0
  1 33  2  0
 41  1  1  0
 40  2  1  0
  2 48  2  0
  4  3  2  0
  3  5  1  0
  3 40  1  0
  6  4  1  0
  4 41  1  0
  5  7  2  0
  5 11  1  0
 12  6  2  0
 16  6  1  0
  7  8  1  0
  8  9  2  0
 10  9  1  0
 11 10  2  0
 13 12  1  0
 14 13  2  0
 14 15  1  0
 17 14  1  1
 15 16  2  0
 42 17  1  6
 19 18  1  1
 18 42  1  6
 20 19  1  0
 21 20  1  1
 20 43  1  1
 22 21  1  1
 22 42  1  0
 43 23  1  0
 23 44  1  0
 23 47  2  0
 25 24  2  0
 26 24  1  0
 24 44  1  0
 29 25  1  0
 25 43  1  0
 27 26  2  0
 28 27  1  0
 28 29  2  0
 45 28  1  0
 31 30  1  1
 30 45  1  0
 30 46  2  0
 32 31  1  6
 33 34  1  0
 34 35  2  0
 34 39  1  0
 35 36  1  0
 36 37  2  0
 37 38  1  0
 37 49  1  0
 38 39  2  0
M  CHG  1  42   1
M  END
$$$$
