
     RDKit          3D

 49 55  0  0  0  0  0  0  0  0999 V2000
    4.3982    1.5624   18.1164 C   0  0  0  0  0  0  0  0  0  0  0  0
    5.8629    1.5096   18.3010 C   0  0  0  0  0  0  0  0  0  0  0  0
    6.0971    2.2975   15.9733 C   0  0  0  0  0  0  0  0  0  0  0  0
    4.8049    2.3588   15.7695 C   0  0  0  0  0  0  0  0  0  0  0  0
    7.0195    2.6576   14.8966 C   0  0  0  0  0  0  0  0  0  0  0  0
    4.2010    2.7876   14.4879 C   0  0  0  0  0  0  0  0  0  0  0  0
    6.8980    3.8272   14.1780 C   0  0  0  0  0  0  0  0  0  0  0  0
    7.8262    4.0825   13.1892 C   0  0  0  0  0  0  0  0  0  0  0  0
    8.8455    3.1994   12.9230 C   0  0  0  0  0  0  0  0  0  0  0  0
    8.9501    2.0419   13.6472 C   0  0  0  0  0  0  0  0  0  0  0  0
    8.0439    1.7485   14.6440 C   0  0  0  0  0  0  0  0  0  0  0  0
    3.3856    3.8912   14.4269 C   0  0  0  0  0  0  0  0  0  0  0  0
    2.8286    4.3101   13.2260 C   0  0  0  0  0  0  0  0  0  0  0  0
    3.0788    3.6241   12.0501 C   0  0  0  0  0  0  0  0  0  0  0  0
    3.8966    2.5196   12.1284 C   0  0  0  0  0  0  0  0  0  0  0  0
    4.4568    2.0959   13.3235 C   0  0  0  0  0  0  0  0  0  0  0  0
    2.5218    4.0654   10.7563 C   0  0  0  0  0  0  0  0  0  0  0  0
    0.3219    3.2238   10.9414 C   0  0  0  0  0  0  0  0  0  0  0  0
   -0.8061    2.5761   10.1141 C   0  0  0  0  0  0  0  0  0  0  0  0
   -1.1939    3.4849    8.9722 C   0  0  1  0  0  0  0  0  0  0  0  0
    0.0040    4.3035    8.6410 C   0  0  0  0  0  0  0  0  0  0  0  0
    1.2914    3.4782    8.7717 C   0  0  0  0  0  0  0  0  0  0  0  0
   -1.2172    2.2738    6.8055 C   0  0  0  0  0  0  0  0  0  0  0  0
   -3.3872    1.9622    6.5999 C   0  0  0  0  0  0  0  0  0  0  0  0
   -3.1777    2.6488    7.7837 C   0  0  0  0  0  0  0  0  0  0  0  0
   -4.6927    1.6414    6.2414 C   0  0  0  0  0  0  0  0  0  0  0  0
   -5.7671    1.9874    7.0273 C   0  0  0  0  0  0  0  0  0  0  0  0
   -5.5819    2.6702    8.2072 C   0  0  0  0  0  0  0  0  0  0  0  0
   -4.2755    2.9838    8.5521 C   0  0  0  0  0  0  0  0  0  0  0  0
   -7.2720    4.2977    8.9502 C   0  0  0  0  0  0  0  0  0  0  0  0
   -8.3808    4.6808    9.8821 C   0  0  0  0  0  0  0  0  0  0  0  0
   -9.5990    5.0078    9.0213 C   0  0  0  0  0  0  0  0  0  0  0  0
    3.6505    1.1873   19.1281 C   0  0  0  0  0  0  0  0  0  0  0  0
    2.2093    1.2742   19.1427 C   0  0  0  0  0  0  0  0  0  0  0  0
    1.5054    0.2112   19.7010 C   0  0  0  0  0  0  0  0  0  0  0  0
    0.1318    0.2439   19.7700 C   0  0  0  0  0  0  0  0  0  0  0  0
   -0.5510    1.3216   19.2904 C   0  0  0  0  0  0  0  0  0  0  0  0
    0.1493    2.3580   18.7457 C   0  0  0  0  0  0  0  0  0  0  0  0
    1.5386    2.3635   18.6578 C   0  0  0  0  0  0  0  0  0  0  0  0
    6.6818    1.8820   17.2144 N   0  0  0  0  0  0  0  0  0  0  0  0
    3.9365    1.9866   16.8523 N   0  0  0  0  0  0  0  0  0  0  0  0
    1.5522    3.2141   10.1693 N   0  0  1  0  0  4  0  0  0  0  0  0
   -1.8299    2.8187    7.8717 N   0  0  0  0  0  0  0  0  0  0  0  0
   -2.1880    1.7527    6.0366 N   0  0  0  0  0  0  0  0  0  0  0  0
   -6.6769    3.0374    9.0549 N   0  0  0  0  0  0  0  0  0  0  0  0
   -6.8459    5.0964    8.0495 O   0  0  0  0  0  0  0  0  0  0  0  0
    0.0379    2.2501    6.5606 O   0  0  0  0  0  0  0  0  0  0  0  0
    6.3597    1.1405   19.4035 O   0  0  0  0  0  0  0  0  0  0  0  0
   -1.9305    1.3331   19.3693 O   0  0  0  0  0  0  0  0  0  0  0  0
  1  2  1  0
  1 33  2  0
 41  1  1  0
 40  2  1  0
  2 48  2  0
  4  3  2  0
  3  5  1  0
  3 40  1  0
  6  4  1  0
  4 41  1  0
  5  7  2  0
  5 11  1  0
 12  6  2  0
 16  6  1  0
  7  8  1  0
  8  9  2  0
 10  9  1  0
 11 10  2  0
 13 12  1  0
 14 13  2  0
 14 15  1  0
 17 14  1  0
 15 16  2  0
 42 17  1  1
 19 18  1  0
 18 42  1  0
 20 19  1  0
 20 21  1  0
 20 43  1  6
 21 22  1  0
 22 42  1  0
 43 23  1  0
 23 44  1  0
 23 47  2  0
 25 24  2  0
 26 24  1  0
 24 44  1  0
 29 25  1  0
 25 43  1  0
 27 26  2  0
 28 27  1  0
 28 29  2  0
 45 28  1  0
 30 31  1  0
 30 45  1  0
 30 46  2  0
 31 32  1  0
 33 34  1  0
 34 35  2  0
 34 39  1  0
 35 36  1  0
 36 37  2  0
 37 38  1  0
 37 49  1  0
 38 39  2  0
M  CHG  1  42   1
M  END
$$$$
