
     RDKit          3D

 49 55  0  0  0  0  0  0  0  0999 V2000
    2.1609    0.4937   18.0470 C   0  0  0  0  0  0  0  0  0  0  0  0
    0.9241   -0.0934   18.5160 C   0  0  0  0  0  0  0  0  0  0  0  0
    0.0864   -0.1107   16.1945 C   0  0  0  0  0  0  0  0  0  0  0  0
    1.1883    0.4165   15.7560 C   0  0  0  0  0  0  0  0  0  0  0  0
   -1.0344   -0.4693   15.3385 C   0  0  0  0  0  0  0  0  0  0  0  0
    1.3893    0.6959   14.3271 C   0  0  0  0  0  0  0  0  0  0  0  0
   -2.2720    0.0876   15.3376 C   0  0  0  0  0  0  0  0  0  0  0  0
   -3.2535   -0.3407   14.4347 C   0  0  0  0  0  0  0  0  0  0  0  0
   -2.9942   -1.3355   13.5264 C   0  0  0  0  0  0  0  0  0  0  0  0
   -1.7480   -1.9136   13.5105 C   0  0  0  0  0  0  0  0  0  0  0  0
   -0.8070   -1.4859   14.3934 C   0  0  0  0  0  0  0  0  0  0  0  0
    2.3383    0.1519   13.5458 C   0  0  0  0  0  0  0  0  0  0  0  0
    2.4392    0.5270   12.1938 C   0  0  0  0  0  0  0  0  0  0  0  0
    1.5996    1.4397   11.6165 C   0  0  0  0  0  0  0  0  0  0  0  0
    0.6297    1.9892   12.4310 C   0  0  0  0  0  0  0  0  0  0  0  0
    0.5179    1.6342   13.7530 C   0  0  0  0  0  0  0  0  0  0  0  0
    1.6895    1.8226   10.1886 C   0  0  0  0  0  0  0  0  0  0  0  0
    3.4292    1.9726    8.5130 C   0  0  0  0  0  0  0  0  0  0  0  0
    3.4441    3.1528    7.5315 C   0  0  0  0  0  0  0  0  0  0  0  0
    2.0711    3.7886    7.6376 C   0  0  1  0  0  0  0  0  0  0  0  0
    2.1240    4.5942    8.9285 C   0  0  0  0  0  0  0  0  0  0  0  0
    2.9649    3.8485    9.9680 C   0  0  0  0  0  0  0  0  0  0  0  0
    0.9158    4.1087    5.4810 C   0  0  0  0  0  0  0  0  0  0  0  0
    1.4058    6.2047    5.0370 C   0  0  0  0  0  0  0  0  0  0  0  0
    1.9737    5.8196    6.2473 C   0  0  0  0  0  0  0  0  0  0  0  0
    1.5647    7.4777    4.5216 C   0  0  0  0  0  0  0  0  0  0  0  0
    2.3051    8.3878    5.2256 C   0  0  0  0  0  0  0  0  0  0  0  0
    2.8975    8.0664    6.4390 C   0  0  0  0  0  0  0  0  0  0  0  0
    2.7172    6.7892    6.9207 C   0  0  0  0  0  0  0  0  0  0  0  0
    3.0444   10.1494    7.6932 C   0  0  0  0  0  0  0  0  0  0  0  0
    3.7862   11.2890    8.2809 C   0  0  0  0  0  0  0  0  0  0  0  0
    3.4126   11.4888    9.7434 C   0  0  0  0  0  0  0  0  0  0  0  0
    3.1871    0.7622   18.7988 C   0  0  0  0  0  0  0  0  0  0  0  0
    4.2562    1.6955   18.5714 C   0  0  0  0  0  0  0  0  0  0  0  0
    5.0838    2.1840   19.5527 C   0  0  0  0  0  0  0  0  0  0  0  0
    6.0700    3.0906   19.2621 C   0  0  0  0  0  0  0  0  0  0  0  0
    6.2863    3.5604   17.9683 C   0  0  0  0  0  0  0  0  0  0  0  0
    5.4413    3.0518   17.0031 C   0  0  0  0  0  0  0  0  0  0  0  0
    4.4493    2.1456   17.2750 C   0  0  0  0  0  0  0  0  0  0  0  0
   -0.1184   -0.4001   17.5998 N   0  0  0  0  0  0  0  0  0  0  0  0
    2.2889    0.7522   16.6382 N   0  0  0  0  0  0  0  0  0  0  0  0
    2.9261    2.4228    9.7992 N   0  0  1  0  0  4  0  0  0  0  0  0
    1.6644    4.5398    6.5007 N   0  0  0  0  0  0  0  0  0  0  0  0
    0.7638    5.1206    4.6006 N   0  0  0  0  0  0  0  0  0  0  0  0
    3.6652    8.9929    7.1773 N   0  0  0  0  0  0  0  0  0  0  0  0
    1.7830   10.2216    7.6537 O   0  0  0  0  0  0  0  0  0  0  0  0
    0.3817    2.9799    5.2548 O   0  0  0  0  0  0  0  0  0  0  0  0
    0.7888   -0.3228   19.7476 O   0  0  0  0  0  0  0  0  0  0  0  0
    7.2907    4.4784   17.6906 O   0  0  0  0  0  0  0  0  0  0  0  0
  1  2  1  0
  1 33  2  0
 41  1  1  0
 40  2  1  0
  2 48  2  0
  4  3  2  0
  3  5  1  0
  3 40  1  0
  6  4  1  0
  4 41  1  0
  5  7  2  0
  5 11  1  0
 12  6  2  0
 16  6  1  0
  7  8  1  0
  8  9  2  0
 10  9  1  0
 11 10  2  0
 13 12  1  0
 14 13  2  0
 14 15  1  0
 17 14  1  1
 15 16  2  0
 42 17  1  6
 19 18  1  1
 18 42  1  6
 20 19  1  0
 21 20  1  1
 20 43  1  6
 22 21  1  1
 22 42  1  0
 43 23  1  0
 23 44  1  0
 23 47  2  0
 25 24  2  0
 26 24  1  0
 24 44  1  0
 29 25  1  0
 25 43  1  0
 27 26  2  0
 28 27  1  0
 28 29  2  0
 45 28  1  0
 31 30  1  1
 30 45  1  0
 30 46  2  0
 32 31  1  6
 33 34  1  0
 34 35  2  0
 34 39  1  0
 35 36  1  0
 36 37  2  0
 37 38  1  0
 37 49  1  0
 38 39  2  0
M  CHG  1  42   1
M  END
$$$$
