
     RDKit          3D

 49 55  0  0  0  0  0  0  0  0999 V2000
   -5.2245   -1.5783   15.8261 C   0  0  0  0  0  0  0  0  0  0  0  0
   -4.8476   -2.2276   17.0983 C   0  0  0  0  0  0  0  0  0  0  0  0
   -2.5748   -1.3147   16.7901 C   0  0  0  0  0  0  0  0  0  0  0  0
   -2.8690   -0.7233   15.6593 C   0  0  0  0  0  0  0  0  0  0  0  0
   -1.2181   -1.2178   17.3283 C   0  0  0  0  0  0  0  0  0  0  0  0
   -1.8929    0.0643   14.8730 C   0  0  0  0  0  0  0  0  0  0  0  0
   -0.1851   -2.0117   16.8792 C   0  0  0  0  0  0  0  0  0  0  0  0
    1.0626   -1.8357   17.4420 C   0  0  0  0  0  0  0  0  0  0  0  0
    1.2760   -0.8971   18.4235 C   0  0  0  0  0  0  0  0  0  0  0  0
    0.2373   -0.1174   18.8574 C   0  0  0  0  0  0  0  0  0  0  0  0
   -1.0249   -0.2608   18.3215 C   0  0  0  0  0  0  0  0  0  0  0  0
   -0.6042   -0.3788   14.7015 C   0  0  0  0  0  0  0  0  0  0  0  0
    0.3130    0.3453   13.9515 C   0  0  0  0  0  0  0  0  0  0  0  0
   -0.0457    1.5407   13.3531 C   0  0  0  0  0  0  0  0  0  0  0  0
   -1.3402    1.9716   13.5357 C   0  0  0  0  0  0  0  0  0  0  0  0
   -2.2616    1.2538   14.2824 C   0  0  0  0  0  0  0  0  0  0  0  0
    0.9021    2.3148   12.5277 C   0  0  0  0  0  0  0  0  0  0  0  0
    2.9020    1.1085   12.1704 C   0  0  0  0  0  0  0  0  0  0  0  0
    4.4333    1.2255   12.3043 C   0  0  0  0  0  0  0  0  0  0  0  0
    4.9331    2.3965   11.4925 C   0  0  1  0  0  0  0  0  0  0  0  0
    3.8158    3.3761   11.4078 C   0  0  0  0  0  0  0  0  0  0  0  0
    3.0268    3.4304   12.7231 C   0  0  0  0  0  0  0  0  0  0  0  0
    7.0302    2.3625   12.8201 C   0  0  0  0  0  0  0  0  0  0  0  0
    7.9494    4.2188   12.0735 C   0  0  0  0  0  0  0  0  0  0  0  0
    6.7325    4.0715   11.4302 C   0  0  0  0  0  0  0  0  0  0  0  0
    8.7308    5.3289   11.7683 C   0  0  0  0  0  0  0  0  0  0  0  0
    8.3258    6.2720   10.8529 C   0  0  0  0  0  0  0  0  0  0  0  0
    7.1202    6.1457   10.2024 C   0  0  0  0  0  0  0  0  0  0  0  0
    6.3514    5.0346   10.5165 C   0  0  0  0  0  0  0  0  0  0  0  0
    5.3147    7.4135    9.1115 C   0  0  0  0  0  0  0  0  0  0  0  0
    4.8885    8.5851    8.2808 C   0  0  0  0  0  0  0  0  0  0  0  0
    3.9854    8.0465    7.1734 C   0  0  0  0  0  0  0  0  0  0  0  0
   -6.4560   -1.7498   15.4050 C   0  0  0  0  0  0  0  0  0  0  0  0
   -7.0717   -0.9578   14.3666 C   0  0  0  0  0  0  0  0  0  0  0  0
   -8.3973   -1.2352   14.0452 C   0  0  0  0  0  0  0  0  0  0  0  0
   -9.0504   -0.4993   13.0837 C   0  0  0  0  0  0  0  0  0  0  0  0
   -8.4012    0.5098   12.4373 C   0  0  0  0  0  0  0  0  0  0  0  0
   -7.1022    0.7731   12.7606 C   0  0  0  0  0  0  0  0  0  0  0  0
   -6.4066    0.0524   13.7274 C   0  0  0  0  0  0  0  0  0  0  0  0
   -3.5201   -2.0775   17.5513 N   0  0  0  0  0  0  0  0  0  0  0  0
   -4.2114   -0.8532   15.1634 N   0  0  0  0  0  0  0  0  0  0  0  0
    2.2711    2.2076   12.8800 N   0  0  1  0  0  4  0  0  0  0  0  0
    6.2010    2.9169   11.9178 N   0  0  0  0  0  0  0  0  0  0  0  0
    8.0975    3.1745   12.9023 N   0  0  0  0  0  0  0  0  0  0  0  0
    6.6719    7.1035    9.2359 N   0  0  0  0  0  0  0  0  0  0  0  0
    4.4665    6.6774    9.7193 O   0  0  0  0  0  0  0  0  0  0  0  0
    6.8501    1.2794   13.4761 O   0  0  0  0  0  0  0  0  0  0  0  0
   -5.6957   -2.8964   17.7555 O   0  0  0  0  0  0  0  0  0  0  0  0
   -9.0763    1.2355   11.4745 O   0  0  0  0  0  0  0  0  0  0  0  0
  1  2  1  0
  1 33  2  0
 41  1  1  0
 40  2  1  0
  2 48  2  0
  4  3  2  0
  3  5  1  0
  3 40  1  0
  6  4  1  0
  4 41  1  0
  5  7  2  0
  5 11  1  0
 12  6  2  0
 16  6  1  0
  7  8  1  0
  8  9  2  0
 10  9  1  0
 11 10  2  0
 13 12  1  0
 14 13  2  0
 14 15  1  0
 17 14  1  0
 15 16  2  0
 42 17  1  6
 19 18  1  0
 18 42  1  0
 20 19  1  0
 20 21  1  0
 20 43  1  1
 21 22  1  0
 22 42  1  0
 43 23  1  0
 23 44  1  0
 23 47  2  0
 25 24  2  0
 26 24  1  0
 24 44  1  0
 29 25  1  0
 25 43  1  0
 27 26  2  0
 28 27  1  0
 28 29  2  0
 45 28  1  0
 30 31  1  0
 30 45  1  0
 30 46  2  0
 31 32  1  0
 33 34  1  0
 34 35  2  0
 34 39  1  0
 35 36  1  0
 36 37  2  0
 37 38  1  0
 37 49  1  0
 38 39  2  0
M  CHG  1  42   1
M  END
$$$$
