
     RDKit          3D

 12 12  0  0  0  0  0  0  0  0999 V2000
    6.1378    2.2760   48.2435 C   0  0  2  0  0  0  0  0  0  0  0  0
    7.2047    3.2326   48.5847 C   0  0  2  0  0  0  0  0  0  0  0  0
    8.4616    2.6790   49.1420 C   0  0  1  0  0  0  0  0  0  0  0  0
    8.4166    1.2181   49.4728 C   0  0  1  0  0  0  0  0  0  0  0  0
    6.9788    0.9522   49.9401 C   0  0  2  0  0  0  0  0  0  0  0  0
    6.8560   -0.4171   50.5484 C   0  0  0  0  0  0  0  0  0  0  0  0
    4.9037    2.8354   48.6233 O   0  0  0  0  0  0  0  0  0  0  0  0
    6.7294    4.2189   49.4816 O   0  0  0  0  0  0  0  0  0  0  0  0
    9.5600    2.8609   48.2687 O   0  0  0  0  0  0  0  0  0  0  0  0
    8.6479    0.4522   48.3366 O   0  0  0  0  0  0  0  0  0  0  0  0
    6.2071    1.0360   48.8082 O   0  0  0  0  0  0  0  0  0  0  0  0
    4.3877    2.2077   49.7544 C   0  0  0  0  0  0  0  0  0  0  0  0
  1  2  1  0
  1  7  1  1
  1 11  1  0
  2  3  1  0
  2  8  1  1
  3  4  1  0
  3  9  1  6
  4  5  1  0
  4 10  1  6
  5  6  1  6
  5 11  1  0
  7 12  1  0
M  END
$$$$
