
     RDKit          3D

 12 12  0  0  0  0  0  0  0  0999 V2000
    5.7555   -1.1328   40.8150 C   0  0  2  0  0  0  0  0  0  0  0  0
    5.4851   -0.7781   39.3955 C   0  0  2  0  0  0  0  0  0  0  0  0
    5.7939   -1.8118   38.3826 C   0  0  1  0  0  0  0  0  0  0  0  0
    5.6871   -3.2267   38.9263 C   0  0  1  0  0  0  0  0  0  0  0  0
    6.5896   -3.1848   40.1709 C   0  0  2  0  0  0  0  0  0  0  0  0
    6.9635   -4.5415   40.6457 C   0  0  0  0  0  0  0  0  0  0  0  0
    6.9233   -0.5106   41.2539 O   0  0  0  0  0  0  0  0  0  0  0  0
    6.2315    0.3803   39.0765 O   0  0  0  0  0  0  0  0  0  0  0  0
    4.9856   -1.6932   37.2397 O   0  0  0  0  0  0  0  0  0  0  0  0
    4.3633   -3.4711   39.3385 O   0  0  0  0  0  0  0  0  0  0  0  0
    5.8627   -2.4720   41.0963 O   0  0  0  0  0  0  0  0  0  0  0  0
    7.0608   -0.6052   42.6486 C   0  0  0  0  0  0  0  0  0  0  0  0
  1  2  1  0
  1  7  1  6
  1 11  1  0
  2  3  1  0
  2  8  1  6
  3  4  1  0
  3  9  1  6
  4  5  1  0
  4 10  1  1
  6  5  1  6
  5 11  1  1
 12  7  1  6
M  END
$$$$
