
     RDKit          3D

 12 12  0  0  0  0  0  0  0  0999 V2000
    7.0002    0.1748   41.1325 C   0  0  2  0  0  0  0  0  0  0  0  0
    6.7401    1.5085   41.7010 C   0  0  2  0  0  0  0  0  0  0  0  0
    7.1214    1.7306   43.1160 C   0  0  1  0  0  0  0  0  0  0  0  0
    7.5503    0.4998   43.8555 C   0  0  1  0  0  0  0  0  0  0  0  0
    6.7013   -0.6392   43.2740 C   0  0  2  0  0  0  0  0  0  0  0  0
    6.8407   -1.8884   44.0988 C   0  0  0  0  0  0  0  0  0  0  0  0
    5.9099   -0.1788   40.3162 O   0  0  0  0  0  0  0  0  0  0  0  0
    5.3766    1.8600   41.5585 O   0  0  0  0  0  0  0  0  0  0  0  0
    8.1748    2.6665   43.2458 O   0  0  0  0  0  0  0  0  0  0  0  0
    8.8859    0.2152   43.5979 O   0  0  0  0  0  0  0  0  0  0  0  0
    7.1936   -0.8512   42.0105 O   0  0  0  0  0  0  0  0  0  0  0  0
    5.4265   -1.4456   40.6345 C   0  0  0  0  0  0  0  0  0  0  0  0
  1  2  1  0
  1  7  1  6
  1 11  1  0
  2  3  1  0
  2  8  1  1
  3  4  1  0
  3  9  1  6
  4  5  1  0
  4 10  1  6
  5  6  1  1
  5 11  1  0
  7 12  1  0
M  END
$$$$
