
     RDKit          3D

 12 12  0  0  0  0  0  0  0  0999 V2000
    7.6277    3.5122   47.7827 C   0  0  2  0  0  0  0  0  0  0  0  0
    8.0983    3.5581   46.3719 C   0  0  2  0  0  0  0  0  0  0  0  0
    8.5498    2.2788   45.7808 C   0  0  1  0  0  0  0  0  0  0  0  0
    7.8707    1.0672   46.3973 C   0  0  1  0  0  0  0  0  0  0  0  0
    8.1217    1.2620   47.9020 C   0  0  2  0  0  0  0  0  0  0  0  0
    7.9033    0.0153   48.6791 C   0  0  0  0  0  0  0  0  0  0  0  0
    8.6024    4.0315   48.6337 O   0  0  0  0  0  0  0  0  0  0  0  0
    9.1701    4.4774   46.2900 O   0  0  0  0  0  0  0  0  0  0  0  0
    8.3759    2.2473   44.3872 O   0  0  0  0  0  0  0  0  0  0  0  0
    6.4847    1.1362   46.1598 O   0  0  0  0  0  0  0  0  0  0  0  0
    7.2667    2.2778   48.2625 O   0  0  0  0  0  0  0  0  0  0  0  0
    8.1346    4.1187   49.9552 C   0  0  0  0  0  0  0  0  0  0  0  0
  1  2  1  0
  1  7  1  1
  1 11  1  0
  2  3  1  0
  2  8  1  1
  3  4  1  0
  3  9  1  6
  4  5  1  0
  4 10  1  1
  6  5  1  6
  5 11  1  1
 12  7  1  6
M  END
$$$$
