
     RDKit          3D

 12 12  0  0  0  0  0  0  0  0999 V2000
    4.9851   -1.8470   39.8166 C   0  0  2  0  0  0  0  0  0  0  0  0
    6.1672   -1.2086   39.2128 C   0  0  2  0  0  0  0  0  0  0  0  0
    7.1810   -2.0983   38.5982 C   0  0  1  0  0  0  0  0  0  0  0  0
    6.9682   -3.5615   38.8415 C   0  0  1  0  0  0  0  0  0  0  0  0
    6.3584   -3.6543   40.2472 C   0  0  2  0  0  0  0  0  0  0  0  0
    6.3296   -5.0787   40.7274 C   0  0  0  0  0  0  0  0  0  0  0  0
    4.6772   -1.1690   41.0106 O   0  0  0  0  0  0  0  0  0  0  0  0
    6.8280   -0.3811   40.1518 O   0  0  0  0  0  0  0  0  0  0  0  0
    7.2602   -1.9303   37.1953 O   0  0  0  0  0  0  0  0  0  0  0  0
    6.0473   -4.0785   37.9384 O   0  0  0  0  0  0  0  0  0  0  0  0
    5.0791   -3.1735   40.1212 O   0  0  0  0  0  0  0  0  0  0  0  0
    5.4266   -1.6553   42.0790 C   0  0  0  0  0  0  0  0  0  0  0  0
  1  2  1  0
  1  7  1  1
  1 11  1  0
  2  3  1  0
  2  8  1  1
  3  4  1  0
  3  9  1  6
  4  5  1  0
  4 10  1  6
  5  6  1  6
  5 11  1  0
  7 12  1  0
M  END
$$$$
