
     RDKit          3D

 12 12  0  0  0  0  0  0  0  0999 V2000
    6.4024   -2.9136   37.1843 C   0  0  2  0  0  0  0  0  0  0  0  0
    5.7834   -1.6510   37.6710 C   0  0  2  0  0  0  0  0  0  0  0  0
    5.2980   -1.6457   39.0689 C   0  0  1  0  0  0  0  0  0  0  0  0
    6.0636   -2.6026   39.9672 C   0  0  1  0  0  0  0  0  0  0  0  0
    5.9702   -3.9360   39.2065 C   0  0  2  0  0  0  0  0  0  0  0  0
    6.2958   -5.1027   40.0659 C   0  0  0  0  0  0  0  0  0  0  0  0
    5.5133   -3.5996   36.3580 O   0  0  0  0  0  0  0  0  0  0  0  0
    4.6903   -1.3382   36.8296 O   0  0  0  0  0  0  0  0  0  0  0  0
    5.3232   -0.3600   39.6345 O   0  0  0  0  0  0  0  0  0  0  0  0
    7.4147   -2.2111   40.0246 O   0  0  0  0  0  0  0  0  0  0  0  0
    6.8377   -3.7876   38.1490 O   0  0  0  0  0  0  0  0  0  0  0  0
    5.9305   -4.9238   36.1446 C   0  0  0  0  0  0  0  0  0  0  0  0
  1  2  1  0
  1  7  1  1
  1 11  1  0
  2  3  1  0
  2  8  1  6
  3  4  1  0
  3  9  1  1
  4  5  1  0
  4 10  1  6
  6  5  1  6
  5 11  1  6
 12  7  1  6
M  END
$$$$
