
     RDKit          3D

 12 12  0  0  0  0  0  0  0  0999 V2000
    7.6426    0.7953   43.2485 C   0  0  2  0  0  0  0  0  0  0  0  0
    7.4715    2.2560   43.3308 C   0  0  2  0  0  0  0  0  0  0  0  0
    7.7615    2.9022   44.6329 C   0  0  1  0  0  0  0  0  0  0  0  0
    8.0083    1.9549   45.7674 C   0  0  1  0  0  0  0  0  0  0  0  0
    7.0991    0.7487   45.4936 C   0  0  2  0  0  0  0  0  0  0  0  0
    7.0502   -0.1684   46.6838 C   0  0  0  0  0  0  0  0  0  0  0  0
    6.5896    0.2690   42.4775 O   0  0  0  0  0  0  0  0  0  0  0  0
    6.1645    2.6332   42.9404 O   0  0  0  0  0  0  0  0  0  0  0  0
    8.8886    3.7554   44.5676 O   0  0  0  0  0  0  0  0  0  0  0  0
    9.3253    1.5118   45.7567 O   0  0  0  0  0  0  0  0  0  0  0  0
    7.6651    0.1022   44.4233 O   0  0  0  0  0  0  0  0  0  0  0  0
    5.5950   -0.2800   43.2831 C   0  0  0  0  0  0  0  0  0  0  0  0
  1  2  1  0
  1  7  1  6
  1 11  1  0
  2  3  1  0
  2  8  1  1
  3  4  1  0
  3  9  1  6
  4  5  1  0
  4 10  1  6
  5  6  1  1
  5 11  1  0
  7 12  1  0
M  END
$$$$
