
     RDKit          3D

 12 12  0  0  0  0  0  0  0  0999 V2000
    6.2894   -2.3051   36.3369 C   0  0  2  0  0  0  0  0  0  0  0  0
    5.0444   -1.9958   37.0608 C   0  0  2  0  0  0  0  0  0  0  0  0
    4.7654   -2.7684   38.2946 C   0  0  1  0  0  0  0  0  0  0  0  0
    5.6988   -3.9130   38.5481 C   0  0  1  0  0  0  0  0  0  0  0  0
    6.0651   -4.4528   37.1586 C   0  0  2  0  0  0  0  0  0  0  0  0
    6.7925   -5.7641   37.2662 C   0  0  0  0  0  0  0  0  0  0  0  0
    6.0176   -2.2768   34.9565 O   0  0  0  0  0  0  0  0  0  0  0  0
    3.9216   -2.1192   36.2080 O   0  0  0  0  0  0  0  0  0  0  0  0
    4.7990   -1.9566   39.4533 O   0  0  0  0  0  0  0  0  0  0  0  0
    6.8654   -3.4669   39.1573 O   0  0  0  0  0  0  0  0  0  0  0  0
    6.8857   -3.5027   36.6040 O   0  0  0  0  0  0  0  0  0  0  0  0
    5.6732   -3.5394   34.4803 C   0  0  0  0  0  0  0  0  0  0  0  0
  1  2  1  0
  1  7  1  6
  1 11  1  0
  2  3  1  0
  2  8  1  6
  3  4  1  0
  3  9  1  1
  4  5  1  0
  4 10  1  6
  5  6  1  1
  5 11  1  0
  7 12  1  0
M  END
$$$$
