
     RDKit          3D

 12 12  0  0  0  0  0  0  0  0999 V2000
    8.5358    4.0254   49.3946 C   0  0  2  0  0  0  0  0  0  0  0  0
    8.8943    3.4332   48.0944 C   0  0  2  0  0  0  0  0  0  0  0  0
    8.0697    2.2995   47.6131 C   0  0  1  0  0  0  0  0  0  0  0  0
    7.0849    1.7668   48.6091 C   0  0  1  0  0  0  0  0  0  0  0  0
    7.7642    1.9268   49.9764 C   0  0  2  0  0  0  0  0  0  0  0  0
    6.9982    1.1985   51.0455 C   0  0  0  0  0  0  0  0  0  0  0  0
    9.7235    4.3215   50.0887 O   0  0  0  0  0  0  0  0  0  0  0  0
   10.2480    3.0204   48.0847 O   0  0  0  0  0  0  0  0  0  0  0  0
    7.3305    2.6302   46.4526 O   0  0  0  0  0  0  0  0  0  0  0  0
    5.9274    2.5358   48.6115 O   0  0  0  0  0  0  0  0  0  0  0  0
    7.7595    3.2758   50.2292 O   0  0  0  0  0  0  0  0  0  0  0  0
    9.7480    3.7083   51.3388 C   0  0  0  0  0  0  0  0  0  0  0  0
  1  2  1  0
  1  7  1  1
  1 11  1  0
  2  3  1  0
  2  8  1  1
  3  4  1  0
  3  9  1  6
  4  5  1  0
  4 10  1  1
  5  6  1  1
  5 11  1  0
  7 12  1  0
M  END
$$$$
