
     RDKit          3D

 12 12  0  0  0  0  0  0  0  0999 V2000
    7.2948    2.7136   44.8956 C   0  0  2  0  0  0  0  0  0  0  0  0
    7.4097    2.6817   43.4124 C   0  0  2  0  0  0  0  0  0  0  0  0
    7.4622    1.3452   42.7793 C   0  0  1  0  0  0  0  0  0  0  0  0
    6.7426    0.2772   43.5859 C   0  0  1  0  0  0  0  0  0  0  0  0
    7.3821    0.4099   44.9783 C   0  0  2  0  0  0  0  0  0  0  0  0
    7.1338   -0.7800   45.8317 C   0  0  0  0  0  0  0  0  0  0  0  0
    8.5248    3.0348   45.4680 O   0  0  0  0  0  0  0  0  0  0  0  0
    8.5795    3.3850   43.0415 O   0  0  0  0  0  0  0  0  0  0  0  0
    6.9530    1.3576   41.4701 O   0  0  0  0  0  0  0  0  0  0  0  0
    5.3772    0.6059   43.6848 O   0  0  0  0  0  0  0  0  0  0  0  0
    6.8409    1.5648   45.4942 O   0  0  0  0  0  0  0  0  0  0  0  0
    8.3742    3.4675   46.7958 C   0  0  0  0  0  0  0  0  0  0  0  0
  1  2  1  0
  1  7  1  1
  1 11  1  0
  2  3  1  0
  2  8  1  1
  3  4  1  0
  3  9  1  6
  4  5  1  0
  4 10  1  1
  6  5  1  6
  5 11  1  1
 12  7  1  6
M  END
$$$$
