
     RDKit          3D

 12 12  0  0  0  0  0  0  0  0999 V2000
    7.2753    3.2317   47.7811 C   0  0  2  0  0  0  0  0  0  0  0  0
    7.9477    3.4270   46.4682 C   0  0  2  0  0  0  0  0  0  0  0  0
    8.8423    2.3399   46.0124 C   0  0  1  0  0  0  0  0  0  0  0  0
    8.4448    0.9771   46.5544 C   0  0  1  0  0  0  0  0  0  0  0  0
    8.3671    1.2204   48.0709 C   0  0  2  0  0  0  0  0  0  0  0  0
    8.3861   -0.0442   48.8495 C   0  0  0  0  0  0  0  0  0  0  0  0
    7.8985    4.0023   48.7618 O   0  0  0  0  0  0  0  0  0  0  0  0
    8.7075    4.6184   46.5303 O   0  0  0  0  0  0  0  0  0  0  0  0
    8.9267    2.2740   44.6118 O   0  0  0  0  0  0  0  0  0  0  0  0
    7.1597    0.6436   46.0858 O   0  0  0  0  0  0  0  0  0  0  0  0
    7.2075    1.9407   48.2425 O   0  0  0  0  0  0  0  0  0  0  0  0
    7.3864    3.7180   50.0385 C   0  0  0  0  0  0  0  0  0  0  0  0
  1  2  1  0
  1  7  1  1
  1 11  1  0
  2  3  1  0
  2  8  1  1
  3  4  1  0
  3  9  1  6
  4  5  1  0
  4 10  1  6
  6  5  1  6
  5 11  1  6
 12  7  1  6
M  END
$$$$
