
     RDKit          3D

 12 12  0  0  0  0  0  0  0  0999 V2000
    6.6129   -2.9808   36.6742 C   0  0  2  0  0  0  0  0  0  0  0  0
    6.0718   -1.7326   37.2769 C   0  0  2  0  0  0  0  0  0  0  0  0
    5.7584   -1.7753   38.7225 C   0  0  1  0  0  0  0  0  0  0  0  0
    6.6155   -2.7703   39.4869 C   0  0  1  0  0  0  0  0  0  0  0  0
    6.4156   -4.0740   38.6959 C   0  0  2  0  0  0  0  0  0  0  0  0
    6.8287   -5.2740   39.4673 C   0  0  0  0  0  0  0  0  0  0  0  0
    5.6229   -3.6294   35.9373 O   0  0  0  0  0  0  0  0  0  0  0  0
    4.8891   -1.3810   36.5855 O   0  0  0  0  0  0  0  0  0  0  0  0
    5.8666   -0.5117   39.3267 O   0  0  0  0  0  0  0  0  0  0  0  0
    7.9682   -2.3910   39.3946 O   0  0  0  0  0  0  0  0  0  0  0  0
    7.1511   -3.8930   37.5473 O   0  0  0  0  0  0  0  0  0  0  0  0
    5.8779   -5.0071   35.8386 C   0  0  0  0  0  0  0  0  0  0  0  0
  1  2  1  0
  1  7  1  1
  1 11  1  0
  2  3  1  0
  2  8  1  6
  3  4  1  0
  3  9  1  1
  4  5  1  0
  4 10  1  6
  6  5  1  6
  5 11  1  6
 12  7  1  6
M  END
$$$$
