
     RDKit          3D

 12 12  0  0  0  0  0  0  0  0999 V2000
    5.5164   -2.7021   36.5793 C   0  0  2  0  0  0  0  0  0  0  0  0
    5.4729   -1.4873   37.4374 C   0  0  2  0  0  0  0  0  0  0  0  0
    5.7350   -1.6844   38.8805 C   0  0  1  0  0  0  0  0  0  0  0  0
    6.6329   -2.8771   39.1636 C   0  0  1  0  0  0  0  0  0  0  0  0
    5.9225   -4.0241   38.4256 C   0  0  2  0  0  0  0  0  0  0  0  0
    6.3847   -5.3612   38.8776 C   0  0  0  0  0  0  0  0  0  0  0  0
    4.2234   -3.1100   36.2545 O   0  0  0  0  0  0  0  0  0  0  0  0
    4.1959   -0.8940   37.3042 O   0  0  0  0  0  0  0  0  0  0  0  0
    6.2837   -0.5393   39.4815 O   0  0  0  0  0  0  0  0  0  0  0  0
    7.8906   -2.6685   38.5662 O   0  0  0  0  0  0  0  0  0  0  0  0
    6.1811   -3.7866   37.0953 O   0  0  0  0  0  0  0  0  0  0  0  0
    4.2352   -4.2866   35.4874 C   0  0  0  0  0  0  0  0  0  0  0  0
  1  2  1  0
  1  7  1  1
  1 11  1  0
  2  3  1  0
  2  8  1  1
  3  4  1  0
  3  9  1  6
  4  5  1  0
  4 10  1  6
  6  5  1  6
  5 11  1  6
 12  7  1  6
M  END
$$$$
