
     RDKit          3D

 12 12  0  0  0  0  0  0  0  0999 V2000
    7.2354    2.2765   43.3125 C   0  0  2  0  0  0  0  0  0  0  0  0
    7.1591    1.9936   41.8690 C   0  0  2  0  0  0  0  0  0  0  0  0
    6.5538    0.7040   41.4599 C   0  0  1  0  0  0  0  0  0  0  0  0
    6.2685   -0.2449   42.5840 C   0  0  1  0  0  0  0  0  0  0  0  0
    7.3885   -0.0099   43.6072 C   0  0  2  0  0  0  0  0  0  0  0  0
    7.3766   -1.0727   44.6704 C   0  0  0  0  0  0  0  0  0  0  0  0
    8.4736    2.8898   43.5787 O   0  0  0  0  0  0  0  0  0  0  0  0
    8.4381    2.0825   41.2697 O   0  0  0  0  0  0  0  0  0  0  0  0
    5.3349    0.8820   40.7634 O   0  0  0  0  0  0  0  0  0  0  0  0
    5.0584    0.0669   43.1920 O   0  0  0  0  0  0  0  0  0  0  0  0
    7.1216    1.2162   44.1633 O   0  0  0  0  0  0  0  0  0  0  0  0
    9.3038    2.0562   44.3240 C   0  0  0  0  0  0  0  0  0  0  0  0
  1  2  1  0
  1  7  1  6
  1 11  1  0
  2  3  1  0
  2  8  1  1
  3  4  1  0
  3  9  1  1
  4  5  1  0
  4 10  1  1
  5  6  1  1
  5 11  1  0
  7 12  1  0
M  END
$$$$
