
     RDKit          3D

 12 12  0  0  0  0  0  0  0  0999 V2000
    7.4257   -2.5525   38.7628 C   0  0  2  0  0  0  0  0  0  0  0  0
    6.5268   -2.5030   37.5970 C   0  0  2  0  0  0  0  0  0  0  0  0
    5.3919   -3.4561   37.5726 C   0  0  1  0  0  0  0  0  0  0  0  0
    5.4133   -4.4920   38.6552 C   0  0  1  0  0  0  0  0  0  0  0  0
    6.8984   -4.7981   38.8942 C   0  0  2  0  0  0  0  0  0  0  0  0
    7.0632   -6.0061   39.7738 C   0  0  0  0  0  0  0  0  0  0  0  0
    8.7474   -2.3843   38.3101 O   0  0  0  0  0  0  0  0  0  0  0  0
    7.2535   -2.6623   36.3931 O   0  0  0  0  0  0  0  0  0  0  0  0
    4.1409   -2.8012   37.6660 O   0  0  0  0  0  0  0  0  0  0  0  0
    4.8850   -3.9787   39.8335 O   0  0  0  0  0  0  0  0  0  0  0  0
    7.4025   -3.6861   39.5214 O   0  0  0  0  0  0  0  0  0  0  0  0
    9.4732   -3.5688   38.4093 C   0  0  0  0  0  0  0  0  0  0  0  0
  1  2  1  0
  1  7  1  6
  1 11  1  0
  2  3  1  0
  2  8  1  6
  3  4  1  0
  3  9  1  1
  4  5  1  0
  4 10  1  1
  5  6  1  1
  5 11  1  0
  7 12  1  0
M  END
$$$$
