
     RDKit          3D

 12 12  0  0  0  0  0  0  0  0999 V2000
    5.0171   -3.0196   37.0936 C   0  0  2  0  0  0  0  0  0  0  0  0
    5.6433   -1.8970   37.8128 C   0  0  2  0  0  0  0  0  0  0  0  0
    6.7395   -2.2209   38.7564 C   0  0  1  0  0  0  0  0  0  0  0  0
    6.9454   -3.6837   39.0078 C   0  0  1  0  0  0  0  0  0  0  0  0
    5.5449   -4.3083   38.9372 C   0  0  2  0  0  0  0  0  0  0  0  0
    5.5656   -5.7305   39.4242 C   0  0  0  0  0  0  0  0  0  0  0  0
    3.6300   -2.7899   37.0361 O   0  0  0  0  0  0  0  0  0  0  0  0
    4.6725   -1.1451   38.5166 O   0  0  0  0  0  0  0  0  0  0  0  0
    7.9855   -1.7065   38.3259 O   0  0  0  0  0  0  0  0  0  0  0  0
    7.7192   -4.2486   38.0013 O   0  0  0  0  0  0  0  0  0  0  0  0
    5.1958   -4.2695   37.6104 O   0  0  0  0  0  0  0  0  0  0  0  0
    2.9409   -3.6160   37.9206 C   0  0  0  0  0  0  0  0  0  0  0  0
  1  2  1  0
  1  7  1  1
  1 11  1  0
  2  3  1  0
  2  8  1  1
  3  4  1  0
  3  9  1  6
  4  5  1  0
  4 10  1  6
  5  6  1  6
  5 11  1  0
  7 12  1  0
M  END
$$$$
