
     RDKit          3D

 12 12  0  0  0  0  0  0  0  0999 V2000
    9.0099    2.3211   48.1765 C   0  0  2  0  0  0  0  0  0  0  0  0
    7.8305    3.1844   47.9934 C   0  0  2  0  0  0  0  0  0  0  0  0
    6.6815    2.9679   48.9043 C   0  0  1  0  0  0  0  0  0  0  0  0
    6.7888    1.7567   49.7801 C   0  0  1  0  0  0  0  0  0  0  0  0
    7.5365    0.7129   48.9388 C   0  0  2  0  0  0  0  0  0  0  0  0
    7.4908   -0.6389   49.5949 C   0  0  0  0  0  0  0  0  0  0  0  0
    9.5040    1.9714   46.9061 O   0  0  0  0  0  0  0  0  0  0  0  0
    7.3512    3.1076   46.6640 O   0  0  0  0  0  0  0  0  0  0  0  0
    6.4660    4.0701   49.7652 O   0  0  0  0  0  0  0  0  0  0  0  0
    7.5572    2.0330   50.9046 O   0  0  0  0  0  0  0  0  0  0  0  0
    8.8322    1.1606   48.8713 O   0  0  0  0  0  0  0  0  0  0  0  0
    8.7245    0.9818   46.3123 C   0  0  0  0  0  0  0  0  0  0  0  0
  1  2  1  0
  1  7  1  6
  1 11  1  0
  2  3  1  0
  2  8  1  6
  3  4  1  0
  3  9  1  1
  4  5  1  0
  4 10  1  1
  5  6  1  1
  5 11  1  0
  7 12  1  0
M  END
$$$$
