
     RDKit          3D

 12 12  0  0  0  0  0  0  0  0999 V2000
    6.3136    0.2191   40.6738 C   0  0  2  0  0  0  0  0  0  0  0  0
    6.4276    1.5754   41.2749 C   0  0  2  0  0  0  0  0  0  0  0  0
    6.5840    1.6388   42.7451 C   0  0  1  0  0  0  0  0  0  0  0  0
    7.2604    0.4075   43.3241 C   0  0  1  0  0  0  0  0  0  0  0  0
    6.4087   -0.7456   42.7671 C   0  0  2  0  0  0  0  0  0  0  0  0
    6.6240   -2.0167   43.5043 C   0  0  0  0  0  0  0  0  0  0  0  0
    4.9885   -0.0473   40.3316 O   0  0  0  0  0  0  0  0  0  0  0  0
    5.2725    2.3144   40.9280 O   0  0  0  0  0  0  0  0  0  0  0  0
    7.2825    2.7864   43.1555 O   0  0  0  0  0  0  0  0  0  0  0  0
    8.5626    0.2988   42.8001 O   0  0  0  0  0  0  0  0  0  0  0  0
    6.7665   -0.8251   41.4410 O   0  0  0  0  0  0  0  0  0  0  0  0
    4.9072   -0.9974   39.3003 C   0  0  0  0  0  0  0  0  0  0  0  0
  1  2  1  0
  1  7  1  1
  1 11  1  0
  2  3  1  0
  2  8  1  1
  3  4  1  0
  3  9  1  6
  4  5  1  0
  4 10  1  6
  6  5  1  6
  5 11  1  6
 12  7  1  6
M  END
$$$$
