
     RDKit          3D

 12 12  0  0  0  0  0  0  0  0999 V2000
    5.1897   -1.8178   40.4449 C   0  0  2  0  0  0  0  0  0  0  0  0
    6.0659   -1.4848   39.3086 C   0  0  2  0  0  0  0  0  0  0  0  0
    6.6407   -2.6140   38.5396 C   0  0  1  0  0  0  0  0  0  0  0  0
    6.4118   -3.9682   39.1390 C   0  0  1  0  0  0  0  0  0  0  0  0
    6.4395   -3.7492   40.6581 C   0  0  2  0  0  0  0  0  0  0  0  0
    6.4794   -5.0620   41.3897 C   0  0  0  0  0  0  0  0  0  0  0  0
    5.4746   -0.9298   41.4987 O   0  0  0  0  0  0  0  0  0  0  0  0
    7.1336   -0.6531   39.7223 O   0  0  0  0  0  0  0  0  0  0  0  0
    6.1420   -2.6693   37.2165 O   0  0  0  0  0  0  0  0  0  0  0  0
    5.1533   -4.4480   38.7968 O   0  0  0  0  0  0  0  0  0  0  0  0
    5.2764   -3.0818   40.9507 O   0  0  0  0  0  0  0  0  0  0  0  0
    6.7328   -1.1747   42.0435 C   0  0  0  0  0  0  0  0  0  0  0  0
  1  2  1  0
  1  7  1  1
  1 11  1  0
  2  3  1  0
  2  8  1  1
  3  4  1  0
  3  9  1  6
  4  5  1  0
  4 10  1  6
  5  6  1  1
  5 11  1  0
  7 12  1  0
M  END
$$$$
