
     RDKit          3D

 12 12  0  0  0  0  0  0  0  0999 V2000
    7.0408    2.4967   45.6531 C   0  0  2  0  0  0  0  0  0  0  0  0
    7.6762    2.6929   44.3388 C   0  0  2  0  0  0  0  0  0  0  0  0
    7.6543    1.5499   43.3955 C   0  0  1  0  0  0  0  0  0  0  0  0
    7.1540    0.2617   43.9751 C   0  0  1  0  0  0  0  0  0  0  0  0
    7.6161    0.2693   45.4390 C   0  0  2  0  0  0  0  0  0  0  0  0
    7.4072   -1.0766   46.0754 C   0  0  0  0  0  0  0  0  0  0  0  0
    7.8412    3.1188   46.6290 O   0  0  0  0  0  0  0  0  0  0  0  0
    9.0210    3.1086   44.4861 O   0  0  0  0  0  0  0  0  0  0  0  0
    6.8608    1.8133   42.2538 O   0  0  0  0  0  0  0  0  0  0  0  0
    5.7649    0.2270   43.9630 O   0  0  0  0  0  0  0  0  0  0  0  0
    6.8360    1.2113   46.0617 O   0  0  0  0  0  0  0  0  0  0  0  0
    8.5878    2.1857   47.3443 C   0  0  0  0  0  0  0  0  0  0  0  0
  1  2  1  0
  1  7  1  1
  1 11  1  0
  2  3  1  0
  2  8  1  1
  3  4  1  0
  3  9  1  6
  4  5  1  0
  4 10  1  1
  5  6  1  1
  5 11  1  0
  7 12  1  0
M  END
$$$$
