
     RDKit          3D

 12 12  0  0  0  0  0  0  0  0999 V2000
    5.7692   -1.4024   40.3625 C   0  0  2  0  0  0  0  0  0  0  0  0
    5.2844   -1.2504   38.9639 C   0  0  2  0  0  0  0  0  0  0  0  0
    5.3413   -2.4555   38.1071 C   0  0  1  0  0  0  0  0  0  0  0  0
    5.2309   -3.7502   38.8948 C   0  0  1  0  0  0  0  0  0  0  0  0
    6.3345   -3.6015   39.9555 C   0  0  2  0  0  0  0  0  0  0  0  0
    6.6887   -4.8966   40.5903 C   0  0  0  0  0  0  0  0  0  0  0  0
    7.0358   -0.8357   40.4984 O   0  0  0  0  0  0  0  0  0  0  0  0
    6.0440   -0.2349   38.3376 O   0  0  0  0  0  0  0  0  0  0  0  0
    4.3590   -2.4398   37.1030 O   0  0  0  0  0  0  0  0  0  0  0  0
    3.9838   -3.7966   39.5466 O   0  0  0  0  0  0  0  0  0  0  0  0
    5.8292   -2.6848   40.8483 O   0  0  0  0  0  0  0  0  0  0  0  0
    7.3603   -0.6252   41.8486 C   0  0  0  0  0  0  0  0  0  0  0  0
  1  2  1  0
  1  7  1  6
  1 11  1  0
  2  3  1  0
  2  8  1  6
  3  4  1  0
  3  9  1  6
  4  5  1  0
  4 10  1  1
  6  5  1  6
  5 11  1  1
 12  7  1  6
M  END
$$$$
