
     RDKit          3D

 12 12  0  0  0  0  0  0  0  0999 V2000
    8.4920    2.4051   46.9976 C   0  0  2  0  0  0  0  0  0  0  0  0
    8.0195    3.7413   47.4510 C   0  0  2  0  0  0  0  0  0  0  0  0
    7.1501    3.7667   48.6482 C   0  0  1  0  0  0  0  0  0  0  0  0
    7.4067    2.6050   49.5934 C   0  0  1  0  0  0  0  0  0  0  0  0
    7.2820    1.3795   48.6726 C   0  0  2  0  0  0  0  0  0  0  0  0
    7.0978    0.1164   49.4318 C   0  0  0  0  0  0  0  0  0  0  0  0
    7.7725    1.9938   45.8765 O   0  0  0  0  0  0  0  0  0  0  0  0
    7.3123    4.3478   46.3868 O   0  0  0  0  0  0  0  0  0  0  0  0
    7.2599    4.9737   49.3584 O   0  0  0  0  0  0  0  0  0  0  0  0
    8.7286    2.6747   50.0728 O   0  0  0  0  0  0  0  0  0  0  0  0
    8.4369    1.3947   47.9251 O   0  0  0  0  0  0  0  0  0  0  0  0
    8.2983    0.8080   45.3374 C   0  0  0  0  0  0  0  0  0  0  0  0
  1  2  1  0
  1  7  1  6
  1 11  1  0
  2  3  1  0
  2  8  1  6
  3  4  1  0
  3  9  1  1
  4  5  1  0
  4 10  1  6
  6  5  1  6
  5 11  1  1
 12  7  1  6
M  END
$$$$
