
     RDKit          3D

 12 12  0  0  0  0  0  0  0  0999 V2000
    7.7855    4.9240   49.5673 C   0  0  2  0  0  0  0  0  0  0  0  0
    8.6815    4.4751   48.4878 C   0  0  2  0  0  0  0  0  0  0  0  0
    8.6338    3.0408   48.1168 C   0  0  1  0  0  0  0  0  0  0  0  0
    7.8115    2.1798   49.0268 C   0  0  1  0  0  0  0  0  0  0  0  0
    7.9836    2.7881   50.4256 C   0  0  2  0  0  0  0  0  0  0  0  0
    7.4217    1.8765   51.4808 C   0  0  0  0  0  0  0  0  0  0  0  0
    8.4859    5.8428   50.3707 O   0  0  0  0  0  0  0  0  0  0  0  0
   10.0268    4.8034   48.7802 O   0  0  0  0  0  0  0  0  0  0  0  0
    8.1294    2.8427   46.8096 O   0  0  0  0  0  0  0  0  0  0  0  0
    6.4660    2.2554   48.6877 O   0  0  0  0  0  0  0  0  0  0  0  0
    7.2813    3.9669   50.3985 O   0  0  0  0  0  0  0  0  0  0  0  0
    8.2364    5.6281   51.7239 C   0  0  0  0  0  0  0  0  0  0  0  0
  1  2  1  0
  1  7  1  1
  1 11  1  0
  2  3  1  0
  2  8  1  1
  3  4  1  0
  3  9  1  6
  4  5  1  0
  4 10  1  6
  5  6  1  1
  5 11  1  0
  7 12  1  0
M  END
$$$$
