
     RDKit          3D

 12 12  0  0  0  0  0  0  0  0999 V2000
    6.2808    1.0402   43.4457 C   0  0  2  0  0  0  0  0  0  0  0  0
    7.0437    1.5953   42.3147 C   0  0  2  0  0  0  0  0  0  0  0  0
    7.2331    0.7250   41.1298 C   0  0  1  0  0  0  0  0  0  0  0  0
    6.7860   -0.6938   41.3100 C   0  0  1  0  0  0  0  0  0  0  0  0
    7.0733   -1.0258   42.7810 C   0  0  2  0  0  0  0  0  0  0  0  0
    6.9131   -2.4978   43.0409 C   0  0  0  0  0  0  0  0  0  0  0  0
    6.9043    1.4438   44.6409 O   0  0  0  0  0  0  0  0  0  0  0  0
    8.3200    2.0381   42.7366 O   0  0  0  0  0  0  0  0  0  0  0  0
    6.5565    1.2191   39.9894 O   0  0  0  0  0  0  0  0  0  0  0  0
    5.4163   -0.8048   41.1038 O   0  0  0  0  0  0  0  0  0  0  0  0
    6.1456   -0.3162   43.5018 O   0  0  0  0  0  0  0  0  0  0  0  0
    7.7010    0.4294   45.1662 C   0  0  0  0  0  0  0  0  0  0  0  0
  1  2  1  0
  1  7  1  1
  1 11  1  0
  2  3  1  0
  2  8  1  1
  3  4  1  0
  3  9  1  6
  4  5  1  0
  4 10  1  1
  5  6  1  6
  5 11  1  0
  7 12  1  0
M  END
$$$$
