
     RDKit          3D

 12 12  0  0  0  0  0  0  0  0999 V2000
    6.2769   -2.3048   36.5195 C   0  0  2  0  0  0  0  0  0  0  0  0
    5.0843   -1.8856   37.3043 C   0  0  2  0  0  0  0  0  0  0  0  0
    4.6220   -2.8166   38.3575 C   0  0  1  0  0  0  0  0  0  0  0  0
    5.7416   -3.6704   38.9288 C   0  0  1  0  0  0  0  0  0  0  0  0
    6.3675   -4.3004   37.6731 C   0  0  2  0  0  0  0  0  0  0  0  0
    7.2180   -5.4753   37.9923 C   0  0  0  0  0  0  0  0  0  0  0  0
    5.8902   -2.7577   35.2589 O   0  0  0  0  0  0  0  0  0  0  0  0
    4.0115   -1.6772   36.4063 O   0  0  0  0  0  0  0  0  0  0  0  0
    3.9681   -2.1491   39.4064 O   0  0  0  0  0  0  0  0  0  0  0  0
    6.6993   -2.8387   39.5398 O   0  0  0  0  0  0  0  0  0  0  0  0
    7.0686   -3.2715   37.0878 O   0  0  0  0  0  0  0  0  0  0  0  0
    6.7484   -2.2764   34.2565 C   0  0  0  0  0  0  0  0  0  0  0  0
  1  2  1  0
  1  7  1  6
  1 11  1  0
  2  3  1  0
  2  8  1  6
  3  4  1  0
  3  9  1  1
  4  5  1  0
  4 10  1  6
  6  5  1  6
  5 11  1  1
 12  7  1  6
M  END
$$$$
