
     RDKit          3D

 12 12  0  0  0  0  0  0  0  0999 V2000
    5.5433   -1.7104   40.0324 C   0  0  2  0  0  0  0  0  0  0  0  0
    5.5730   -0.9845   38.7339 C   0  0  2  0  0  0  0  0  0  0  0  0
    6.3997   -1.5788   37.6600 C   0  0  1  0  0  0  0  0  0  0  0  0
    6.5312   -3.0880   37.7780 C   0  0  1  0  0  0  0  0  0  0  0  0
    7.0292   -3.2771   39.2208 C   0  0  2  0  0  0  0  0  0  0  0  0
    7.6094   -4.6253   39.4479 C   0  0  0  0  0  0  0  0  0  0  0  0
    6.3465   -1.0595   40.9677 O   0  0  0  0  0  0  0  0  0  0  0  0
    6.0434    0.3286   38.9689 O   0  0  0  0  0  0  0  0  0  0  0  0
    5.9199   -1.2550   36.3800 O   0  0  0  0  0  0  0  0  0  0  0  0
    5.2590   -3.6794   37.6601 O   0  0  0  0  0  0  0  0  0  0  0  0
    5.9225   -3.0293   39.9996 O   0  0  0  0  0  0  0  0  0  0  0  0
    6.3407   -1.7294   42.2022 C   0  0  0  0  0  0  0  0  0  0  0  0
  1  2  1  0
  1  7  1  1
  1 11  1  0
  2  3  1  0
  2  8  1  1
  3  4  1  0
  3  9  1  6
  4  5  1  0
  4 10  1  1
  6  5  1  6
  5 11  1  1
 12  7  1  6
M  END
$$$$
