
     RDKit          3D

 12 12  0  0  0  0  0  0  0  0999 V2000
    7.1425    2.8824   45.7371 C   0  0  2  0  0  0  0  0  0  0  0  0
    7.4704    3.1086   44.3035 C   0  0  2  0  0  0  0  0  0  0  0  0
    7.9539    1.9366   43.5403 C   0  0  1  0  0  0  0  0  0  0  0  0
    7.4265    0.6177   44.0799 C   0  0  1  0  0  0  0  0  0  0  0  0
    7.8067    0.6797   45.5688 C   0  0  2  0  0  0  0  0  0  0  0  0
    7.7546   -0.6527   46.2230 C   0  0  0  0  0  0  0  0  0  0  0  0
    8.1547    3.3912   46.5498 O   0  0  0  0  0  0  0  0  0  0  0  0
    8.4602    4.1161   44.2271 O   0  0  0  0  0  0  0  0  0  0  0  0
    7.6492    2.0316   42.1722 O   0  0  0  0  0  0  0  0  0  0  0  0
    6.0227    0.5966   43.9745 O   0  0  0  0  0  0  0  0  0  0  0  0
    6.9193    1.5806   46.1108 O   0  0  0  0  0  0  0  0  0  0  0  0
    7.7707    3.4001   47.9008 C   0  0  0  0  0  0  0  0  0  0  0  0
  1  2  1  0
  1  7  1  1
  1 11  1  0
  2  3  1  0
  2  8  1  1
  3  4  1  0
  3  9  1  6
  4  5  1  0
  4 10  1  1
  6  5  1  6
  5 11  1  1
 12  7  1  6
M  END
$$$$
