
     RDKit          3D

 12 12  0  0  0  0  0  0  0  0999 V2000
    6.1903   -1.1220   39.2764 C   0  0  2  0  0  0  0  0  0  0  0  0
    6.1517   -0.2276   40.4462 C   0  0  2  0  0  0  0  0  0  0  0  0
    6.5972   -0.7868   41.7446 C   0  0  1  0  0  0  0  0  0  0  0  0
    6.8503   -2.2638   41.7430 C   0  0  1  0  0  0  0  0  0  0  0  0
    5.8227   -2.8502   40.7650 C   0  0  2  0  0  0  0  0  0  0  0  0
    5.7891   -4.3505   40.8566 C   0  0  0  0  0  0  0  0  0  0  0  0
    5.0389   -0.8878   38.5021 O   0  0  0  0  0  0  0  0  0  0  0  0
    4.8552    0.3102   40.6269 O   0  0  0  0  0  0  0  0  0  0  0  0
    7.7845   -0.1748   42.2117 O   0  0  0  0  0  0  0  0  0  0  0  0
    8.1197   -2.5417   41.2506 O   0  0  0  0  0  0  0  0  0  0  0  0
    6.2455   -2.4635   39.5179 O   0  0  0  0  0  0  0  0  0  0  0  0
    4.2383   -2.0248   38.4251 C   0  0  0  0  0  0  0  0  0  0  0  0
  1  2  1  0
  1  7  1  6
  1 11  1  0
  2  3  1  0
  2  8  1  1
  3  4  1  0
  3  9  1  6
  4  5  1  0
  4 10  1  6
  5  6  1  6
  5 11  1  0
  7 12  1  0
M  END
$$$$
