
     RDKit          3D

122123  0  0  0  0  0  0  0  0999 V2000
  -61.9640  -52.4319  107.1805 C   0  0  0  0  0  0  0  0  0  0  0  0
  -62.0697  -51.3555  107.7611 O   0  0  0  0  0  0  0  0  0  0  0  0
  -61.2214  -53.5938  107.7824 C   0  0  0  0  0  0  0  0  0  0  0  0
  -62.5019  -52.6802  105.9355 N   0  0  0  0  0  0  0  0  0  0  0  0
  -61.7620  -53.5062  104.9879 C   0  0  2  0  0  0  0  0  0  0  0  0
  -61.7508  -52.7599  103.6378 C   0  0  0  0  0  0  0  0  0  0  0  0
  -61.9857  -51.5536  103.5409 O   0  0  0  0  0  0  0  0  0  0  0  0
  -62.4228  -54.8825  104.8383 C   0  0  0  0  0  0  0  0  0  0  0  0
  -62.0561  -55.8347  105.9810 C   0  0  0  0  0  0  0  0  0  0  0  0
  -61.2783  -57.0473  105.4683 C   0  0  0  0  0  0  0  0  0  0  0  0
  -60.8900  -57.9136  106.5712 N   0  0  0  0  0  0  0  0  0  0  0  0
  -60.0652  -58.9668  106.3837 C   0  0  0  0  0  0  0  0  0  0  0  0
  -58.7907  -58.8964  106.2749 N   0  0  0  0  0  0  0  0  0  0  0  0
  -60.7504  -60.1275  106.3363 N   0  0  0  0  0  0  0  0  0  0  0  0
  -61.5344  -53.5696  102.5533 N   0  0  0  0  0  0  0  0  0  0  0  0
  -61.4343  -53.0890  101.1757 C   0  0  2  0  0  0  0  0  0  0  0  0
  -59.9527  -52.7030  100.9911 C   0  0  0  0  0  0  0  0  0  0  0  0
  -59.1985  -52.5631  101.9538 O   0  0  0  0  0  0  0  0  0  0  0  0
  -62.4273  -51.9243  100.9332 C   0  0  2  0  0  0  0  0  0  0  0  0
  -63.8824  -52.3398  101.2325 C   0  0  0  0  0  0  0  0  0  0  0  0
  -62.2960  -51.3253   99.5253 C   0  0  0  0  0  0  0  0  0  0  0  0
  -64.1268  -53.8360  101.0667 C   0  0  0  0  0  0  0  0  0  0  0  0
  -59.5378  -52.5339   99.6854 N   0  0  0  0  0  0  0  0  0  0  0  0
  -58.1731  -52.0497   99.4122 C   0  0  2  0  0  0  0  0  0  0  0  0
  -58.1812  -50.5098   99.3191 C   0  0  0  0  0  0  0  0  0  0  0  0
  -59.0602  -49.8950   98.7207 O   0  0  0  0  0  0  0  0  0  0  0  0
  -57.5470  -52.7044   98.1467 C   0  0  2  0  0  0  0  0  0  0  0  0
  -56.0272  -52.4781   98.0146 C   0  0  0  0  0  0  0  0  0  0  0  0
  -58.2342  -52.2855   96.8396 C   0  0  0  0  0  0  0  0  0  0  0  0
  -55.6156  -51.7958   96.7186 C   0  0  0  0  0  0  0  0  0  0  0  0
  -57.2074  -49.8653  100.0570 N   0  0  0  0  0  0  0  0  0  0  0  0
  -57.0911  -48.4054  100.0010 C   0  0  2  0  0  0  0  0  0  0  0  0
  -56.7383  -47.9885   98.5626 C   0  0  0  0  0  0  0  0  0  0  0  0
  -55.9968  -48.6621   97.8485 O   0  0  0  0  0  0  0  0  0  0  0  0
  -56.0359  -47.8776  100.9974 C   0  0  0  0  0  0  0  0  0  0  0  0
  -55.5998  -46.4618  100.7011 C   0  0  0  0  0  0  0  0  0  0  0  0
  -54.6696  -45.8303  101.5408 C   0  0  0  0  0  0  0  0  0  0  0  0
  -56.1049  -45.7613   99.5961 C   0  0  0  0  0  0  0  0  0  0  0  0
  -54.2464  -44.5277  101.2752 C   0  0  0  0  0  0  0  0  0  0  0  0
  -55.6780  -44.4572   99.3286 C   0  0  0  0  0  0  0  0  0  0  0  0
  -54.7480  -43.8541  100.1694 C   0  0  0  0  0  0  0  0  0  0  0  0
  -54.2967  -42.5866   99.9386 O   0  0  0  0  0  0  0  0  0  0  0  0
  -57.3328  -46.8215   98.1222 N   0  0  0  0  0  0  0  0  0  0  0  0
  -57.1173  -46.3818   96.7414 C   0  0  2  0  0  0  0  0  0  0  0  0
  -56.4302  -45.0058   96.7276 C   0  0  0  0  0  0  0  0  0  0  0  0
  -56.0167  -44.4791   95.6944 O   0  0  0  0  0  0  0  0  0  0  0  0
  -58.4451  -46.3006   95.9805 C   0  0  0  0  0  0  0  0  0  0  0  0
  -58.9145  -47.6153   95.6781 O   0  0  0  0  0  0  0  0  0  0  0  0
  -56.3135  -44.4300   97.9851 N   0  0  0  0  0  0  0  0  0  0  0  0
  -55.6489  -43.1335   98.1567 C   0  0  2  0  0  0  0  0  0  0  0  0
  -54.1255  -43.4754   98.1263 C   0  0  0  0  0  0  0  0  0  0  0  0
  -53.5334  -43.6302   97.0557 O   0  0  0  0  0  0  0  0  0  0  0  0
  -56.0622  -42.4594   99.4728 C   0  0  0  0  0  0  0  0  0  0  0  0
  -56.7062  -41.0713   99.3522 C   0  0  0  0  0  0  0  0  0  0  0  0
  -56.9167  -40.3497  100.6852 C   0  0  0  0  0  0  0  0  0  0  0  0
  -56.1623  -39.1146  100.7412 N   0  0  0  0  0  0  0  0  0  0  0  0
  -56.1664  -38.3199  101.8323 C   0  0  0  0  0  0  0  0  0  0  0  0
  -56.5687  -37.1036  101.8568 N   0  0  0  0  0  0  0  0  0  0  0  0
  -55.6742  -38.9547  102.9117 N   0  0  0  0  0  0  0  0  0  0  0  0
  -53.4292  -41.6297  100.8573 C   0  0  0  0  0  0  0  0  0  0  0  0
  -53.4609  -43.5916   99.3283 N   0  0  0  0  0  0  0  0  0  0  0  0
  -53.2425  -41.1550  101.9730 O   0  0  0  0  0  0  0  0  0  0  0  0
  -54.0220  -43.0541  100.6044 C   0  0  1  0  0  0  0  0  0  0  0  0
  -53.7225  -44.0303  101.7802 C   0  0  0  0  0  0  0  0  0  0  0  0
  -54.1595  -44.8022  104.1836 C   0  0  0  0  0  0  0  0  0  0  0  0
  -52.7848  -44.5532  104.7449 C   0  0  0  0  0  0  0  0  0  0  0  0
  -54.5828  -43.8646  103.0428 C   0  0  0  0  0  0  0  0  0  0  0  0
  -55.5390  -42.8756  100.3921 C   0  0  0  0  0  0  0  0  0  0  0  0
  -53.3127  -40.8633   99.7134 N   0  0  0  0  0  0  0  0  0  0  0  0
  -52.8554  -39.4814   99.7595 C   0  0  2  0  0  0  0  0  0  0  0  0
  -53.9930  -38.6256  100.3676 C   0  0  0  0  0  0  0  0  0  0  0  0
  -55.1816  -38.8471  100.1008 O   0  0  0  0  0  0  0  0  0  0  0  0
  -52.5977  -38.9403   98.3399 C   0  0  0  0  0  0  0  0  0  0  0  0
  -52.3016  -37.4408   98.2463 C   0  0  0  0  0  0  0  0  0  0  0  0
  -52.3597  -36.7344   99.5806 C   0  0  0  0  0  0  0  0  0  0  0  0
  -53.2543  -36.8772  100.4058 O   0  0  0  0  0  0  0  0  0  0  0  0
  -51.3024  -35.9021   99.8159 N   0  0  0  0  0  0  0  0  0  0  0  0
  -53.6919  -37.5318  101.1312 N   0  0  0  0  0  0  0  0  0  0  0  0
  -52.6207  -37.4236  102.1322 C   0  0  2  0  0  0  0  0  0  0  0  0
  -53.1451  -36.5041  103.2720 C   0  0  0  0  0  0  0  0  0  0  0  0
  -54.2268  -35.9174  103.1878 O   0  0  0  0  0  0  0  0  0  0  0  0
  -51.2842  -36.9133  101.5715 C   0  0  0  0  0  0  0  0  0  0  0  0
  -50.0397  -37.8155  101.7146 C   0  0  1  0  0  0  0  0  0  0  0  0
  -49.3034  -37.6567  103.0430 C   0  0  0  0  0  0  0  0  0  0  0  0
  -50.4620  -39.2821  101.5423 C   0  0  0  0  0  0  0  0  0  0  0  0
  -52.3678  -36.3105  104.3883 N   0  0  0  0  0  0  0  0  0  0  0  0
  -52.0542  -37.4244  105.2883 C   0  0  2  0  0  0  0  0  0  0  0  0
  -53.1317  -37.3884  106.4005 C   0  0  0  0  0  0  0  0  0  0  0  0
  -53.4891  -36.3290  106.9198 O   0  0  0  0  0  0  0  0  0  0  0  0
  -50.7041  -37.2306  106.0088 C   0  0  0  0  0  0  0  0  0  0  0  0
  -49.4526  -37.5851  105.1910 C   0  0  1  0  0  0  0  0  0  0  0  0
  -49.7431  -38.8018  104.3054 C   0  0  0  0  0  0  0  0  0  0  0  0
  -48.9741  -36.4205  104.3260 C   0  0  0  0  0  0  0  0  0  0  0  0
  -55.2471  -40.3072  107.3192 C   0  0  0  0  0  0  0  0  0  0  0  0
  -53.6070  -38.5701  106.9021 N   0  0  0  0  0  0  0  0  0  0  0  0
  -56.0504  -41.2043  107.0439 O   0  0  0  0  0  0  0  0  0  0  0  0
  -54.6642  -39.3601  106.2209 C   0  0  1  0  0  0  0  0  0  0  0  0
  -54.1215  -40.1620  105.0207 C   0  0  0  0  0  0  0  0  0  0  0  0
  -53.2951  -42.4015  105.9870 C   0  0  0  0  0  0  0  0  0  0  0  0
  -52.4141  -43.5291  105.5304 C   0  0  0  0  0  0  0  0  0  0  0  0
  -52.9189  -41.0841  105.3001 C   0  0  0  0  0  0  0  0  0  0  0  0
  -55.8105  -38.4440  105.7482 C   0  0  0  0  0  0  0  0  0  0  0  0
  -54.8433  -40.0906  108.6162 N   0  0  0  0  0  0  0  0  0  0  0  0
  -53.5503  -39.4898  108.9048 C   0  0  2  0  0  0  0  0  0  0  0  0
  -53.5121  -38.0644  108.3205 C   0  0  0  0  0  0  0  0  0  0  0  0
  -53.3788  -37.8405  107.1182 O   0  0  0  0  0  0  0  0  0  0  0  0
  -52.3525  -40.3501  108.4774 C   0  0  0  0  0  0  0  0  0  0  0  0
  -50.9421  -39.7533  108.6889 C   0  0  1  0  0  0  0  0  0  0  0  0
  -50.8978  -39.0472  110.0506 C   0  0  0  0  0  0  0  0  0  0  0  0
  -49.8243  -40.7942  108.6230 C   0  0  0  0  0  0  0  0  0  0  0  0
  -53.6327  -37.0464  109.2484 N   0  0  0  0  0  0  0  0  0  0  0  0
  -54.8055  -36.1697  109.2240 C   0  0  2  0  0  0  0  0  0  0  0  0
  -54.5951  -34.9602  108.2820 C   0  0  0  0  0  0  0  0  0  0  0  0
  -55.1410  -34.8794  107.1792 O   0  0  0  0  0  0  0  0  0  0  0  0
  -55.1779  -35.7192  110.6515 C   0  0  0  0  0  0  0  0  0  0  0  0
  -55.3509  -36.8858  111.6431 C   0  0  0  0  0  0  0  0  0  0  0  0
  -55.7218  -36.4159  113.0596 C   0  0  0  0  0  0  0  0  0  0  0  0
  -54.8321  -36.9639  114.1724 C   0  0  0  0  0  0  0  0  0  0  0  0
  -54.9398  -36.1322  115.3929 N   0  0  0  0  0  4  0  0  0  0  0  0
  -53.8934  -33.9088  108.7850 N   0  0  0  0  0  0  0  0  0  0  0  0
  -58.4162  -58.2694  106.9868 H   0  0  0  0  0  0  0  0  0  0  0  0
  -56.6148  -36.7453  100.9015 H   0  0  0  0  0  0  0  0  0  0  0  0
  1  2  2  0
  1  3  1  0
  4  1  1  0
  5  4  1  0
  6  5  1  0
  5  8  1  6
  6  7  2  0
 15  6  1  0
  8  9  1  0
  9 10  1  0
 10 11  1  0
 11 12  1  0
 12 13  2  0
 12 14  1  0
 16 15  1  1
 17 16  1  0
 16 19  1  0
 17 18  2  0
 23 17  1  0
 19 20  1  0
 19 21  1  6
 20 22  1  0
 24 23  1  6
 25 24  1  0
 24 27  1  0
 25 26  2  0
 31 25  1  0
 27 28  1  0
 27 29  1  6
 28 30  1  0
 32 31  1  0
 33 32  1  0
 32 35  1  1
 33 34  2  0
 43 33  1  0
 35 36  1  0
 36 37  2  0
 36 38  1  0
 37 39  1  0
 38 40  2  0
 39 41  2  0
 40 41  1  0
 41 42  1  0
 44 43  1  0
 45 44  1  0
 44 47  1  1
 45 46  2  0
 49 45  1  0
 47 48  1  0
 50 49  1  0
 51 50  1  0
 50 53  1  1
 51 52  2  0
 61 51  1  0
 53 54  1  0
 54 55  1  0
 55 56  1  0
 56 57  1  0
 57 58  2  0
 57 59  1  0
 60 62  2  0
 60 63  1  0
 69 60  1  0
 63 61  1  0
 63 64  1  0
 63 68  1  6
 64 67  1  0
 65 66  1  0
 67 65  1  0
 66100  2  0
 70 69  1  0
 71 70  1  0
 70 73  1  6
 71 72  2  0
 78 71  1  0
 73 74  1  0
 74 75  1  0
 75 76  2  0
 75 77  1  0
 79 78  1  0
 80 79  1  0
 79 82  1  6
 80 81  2  0
 86 80  1  0
 82 83  1  0
 83 84  1  1
 83 85  1  0
 87 86  1  0
 88 87  1  0
 87 90  1  1
 88 89  2  0
 95 88  1  0
 90 91  1  0
 91 92  1  6
 91 93  1  0
 94 96  2  0
 97 94  1  0
 94103  1  0
 95 97  1  0
 97 98  1  0
 97102  1  6
 98101  1  0
100 99  1  0
 99101  1  0
103104  1  0
104105  1  0
104107  1  6
105106  2  0
105111  1  0
107108  1  0
108109  1  1
108110  1  0
111112  1  0
112113  1  0
112115  1  1
113114  2  0
113120  1  0
115116  1  0
116117  1  0
117118  1  0
118119  1  0
 13121  1  0
 58122  1  0
M  CHG  1 119   1
M  END
$$$$
