
     RDKit          3D

122123  0  0  0  0  0  0  0  0999 V2000
  -57.3811  -32.8612   99.7406 C   0  0  0  0  0  0  0  0  0  0  0  0
  -58.4596  -32.4224   99.3521 O   0  0  0  0  0  0  0  0  0  0  0  0
  -56.6867  -34.0015   99.0467 C   0  0  0  0  0  0  0  0  0  0  0  0
  -56.7092  -32.3651  100.8377 N   0  0  0  0  0  0  0  0  0  0  0  0
  -56.6376  -33.1654  102.0551 C   0  0  2  0  0  0  0  0  0  0  0  0
  -57.8383  -34.1340  102.0403 C   0  0  0  0  0  0  0  0  0  0  0  0
  -58.7386  -34.0669  101.2008 O   0  0  0  0  0  0  0  0  0  0  0  0
  -56.6846  -32.2667  103.2974 C   0  0  0  0  0  0  0  0  0  0  0  0
  -57.2494  -30.8758  102.9919 C   0  0  0  0  0  0  0  0  0  0  0  0
  -56.8966  -29.8765  104.0942 C   0  0  0  0  0  0  0  0  0  0  0  0
  -55.9266  -30.4483  105.0161 N   0  0  0  0  0  0  0  0  0  0  0  0
  -55.5454  -29.7932  106.1343 C   0  0  0  0  0  0  0  0  0  0  0  0
  -55.3919  -30.3288  107.2878 N   0  0  0  0  0  0  0  0  0  0  0  0
  -55.3275  -28.4850  105.8892 N   0  0  0  0  0  0  0  0  0  0  0  0
  -57.8538  -35.0210  103.0850 N   0  0  0  0  0  0  0  0  0  0  0  0
  -57.7240  -36.4699  102.9350 C   0  0  2  0  0  0  0  0  0  0  0  0
  -56.4054  -36.6778  102.1630 C   0  0  0  0  0  0  0  0  0  0  0  0
  -56.1968  -36.1247  101.0833 O   0  0  0  0  0  0  0  0  0  0  0  0
  -58.9716  -37.0567  102.2274 C   0  0  2  0  0  0  0  0  0  0  0  0
  -58.8780  -38.5892  102.0780 C   0  0  0  0  0  0  0  0  0  0  0  0
  -59.2527  -36.3802  100.8778 C   0  0  0  0  0  0  0  0  0  0  0  0
  -57.6139  -39.1776  102.6956 C   0  0  0  0  0  0  0  0  0  0  0  0
  -55.4860  -37.5131  102.7652 N   0  0  0  0  0  0  0  0  0  0  0  0
  -54.2025  -37.7865  102.0949 C   0  0  2  0  0  0  0  0  0  0  0  0
  -53.7321  -39.2137  102.4440 C   0  0  0  0  0  0  0  0  0  0  0  0
  -53.6070  -40.0885  101.5908 O   0  0  0  0  0  0  0  0  0  0  0  0
  -53.1164  -36.7211  102.4224 C   0  0  2  0  0  0  0  0  0  0  0  0
  -53.6277  -35.2677  102.3534 C   0  0  0  0  0  0  0  0  0  0  0  0
  -51.8533  -36.8522  101.5600 C   0  0  0  0  0  0  0  0  0  0  0  0
  -54.1345  -34.7285  103.6827 C   0  0  0  0  0  0  0  0  0  0  0  0
  -53.3418  -39.4061  103.7550 N   0  0  0  0  0  0  0  0  0  0  0  0
  -54.1018  -40.3122  104.6208 C   0  0  2  0  0  0  0  0  0  0  0  0
  -53.6693  -41.7596  104.3289 C   0  0  0  0  0  0  0  0  0  0  0  0
  -52.5136  -42.0488  104.0221 O   0  0  0  0  0  0  0  0  0  0  0  0
  -55.6245  -40.1466  104.4246 C   0  0  0  0  0  0  0  0  0  0  0  0
  -56.3335  -39.6772  105.6735 C   0  0  0  0  0  0  0  0  0  0  0  0
  -55.8316  -38.5779  106.3868 C   0  0  0  0  0  0  0  0  0  0  0  0
  -57.4916  -40.3182  106.1368 C   0  0  0  0  0  0  0  0  0  0  0  0
  -56.4805  -38.1233  107.5351 C   0  0  0  0  0  0  0  0  0  0  0  0
  -58.1433  -39.8602  107.2857 C   0  0  0  0  0  0  0  0  0  0  0  0
  -57.6331  -38.7626  107.9719 C   0  0  0  0  0  0  0  0  0  0  0  0
  -58.2441  -38.2767  109.0917 O   0  0  0  0  0  0  0  0  0  0  0  0
  -54.6619  -42.7117  104.4616 N   0  0  0  0  0  0  0  0  0  0  0  0
  -55.3881  -43.1636  103.2722 C   0  0  2  0  0  0  0  0  0  0  0  0
  -56.4536  -44.2001  103.6672 C   0  0  0  0  0  0  0  0  0  0  0  0
  -56.1826  -45.3796  103.8931 O   0  0  0  0  0  0  0  0  0  0  0  0
  -54.4288  -43.7780  102.2471 C   0  0  0  0  0  0  0  0  0  0  0  0
  -53.2245  -44.1923  102.8940 O   0  0  0  0  0  0  0  0  0  0  0  0
  -57.7389  -43.6797  103.7302 N   0  0  0  0  0  0  0  0  0  0  0  0
  -58.6400  -44.0405  104.8301 C   0  0  2  0  0  0  0  0  0  0  0  0
  -60.0704  -43.8261  104.2414 C   0  0  0  0  0  0  0  0  0  0  0  0
  -60.5161  -42.6907  104.0605 O   0  0  0  0  0  0  0  0  0  0  0  0
  -58.3906  -43.1701  106.0701 C   0  0  0  0  0  0  0  0  0  0  0  0
  -57.1509  -43.5176  106.9060 C   0  0  0  0  0  0  0  0  0  0  0  0
  -56.9853  -42.6807  108.1764 C   0  0  0  0  0  0  0  0  0  0  0  0
  -55.7434  -41.9357  108.1590 N   0  0  0  0  0  0  0  0  0  0  0  0
  -54.8649  -41.9810  109.1828 C   0  0  0  0  0  0  0  0  0  0  0  0
  -54.7035  -41.0582  110.0570 N   0  0  0  0  0  0  0  0  0  0  0  0
  -54.1489  -43.1201  109.1737 N   0  0  0  0  0  0  0  0  0  0  0  0
  -58.9353  -46.1844  102.8737 C   0  0  0  0  0  0  0  0  0  0  0  0
  -60.8165  -44.9406  103.9234 N   0  0  0  0  0  0  0  0  0  0  0  0
  -58.5324  -47.0873  102.1475 O   0  0  0  0  0  0  0  0  0  0  0  0
  -60.2039  -46.2957  103.7806 C   0  0  1  0  0  0  0  0  0  0  0  0
  -61.2456  -47.3024  103.2092 C   0  0  0  0  0  0  0  0  0  0  0  0
  -61.9642  -49.7154  102.7353 C   0  0  0  0  0  0  0  0  0  0  0  0
  -62.0116  -49.6367  101.2325 C   0  0  0  0  0  0  0  0  0  0  0  0
  -60.9360  -48.7944  103.4092 C   0  0  0  0  0  0  0  0  0  0  0  0
  -59.7167  -46.7219  105.1803 C   0  0  0  0  0  0  0  0  0  0  0  0
  -58.1840  -45.0475  103.1034 N   0  0  0  0  0  0  0  0  0  0  0  0
  -56.9251  -44.8076  102.4117 C   0  0  2  0  0  0  0  0  0  0  0  0
  -55.8694  -45.7754  102.9995 C   0  0  0  0  0  0  0  0  0  0  0  0
  -55.8393  -46.0421  104.2083 O   0  0  0  0  0  0  0  0  0  0  0  0
  -56.4171  -43.3770  102.6756 C   0  0  0  0  0  0  0  0  0  0  0  0
  -56.9911  -42.2910  101.7612 C   0  0  0  0  0  0  0  0  0  0  0  0
  -57.1251  -42.7297  100.3216 C   0  0  0  0  0  0  0  0  0  0  0  0
  -58.0455  -43.4100   99.8837 O   0  0  0  0  0  0  0  0  0  0  0  0
  -56.1170  -42.2917   99.5105 N   0  0  0  0  0  0  0  0  0  0  0  0
  -54.8762  -46.2704  102.2004 N   0  0  0  0  0  0  0  0  0  0  0  0
  -55.0092  -46.7260  100.8090 C   0  0  2  0  0  0  0  0  0  0  0  0
  -54.0271  -47.9169  100.6172 C   0  0  0  0  0  0  0  0  0  0  0  0
  -53.2314  -48.2513  101.4984 O   0  0  0  0  0  0  0  0  0  0  0  0
  -54.7688  -45.6279   99.7613 C   0  0  0  0  0  0  0  0  0  0  0  0
  -55.3794  -44.2324  100.0124 C   0  0  1  0  0  0  0  0  0  0  0  0
  -56.0089  -44.0662  101.3938 C   0  0  0  0  0  0  0  0  0  0  0  0
  -54.2895  -43.1674   99.8216 C   0  0  0  0  0  0  0  0  0  0  0  0
  -54.0193  -48.5935   99.4215 N   0  0  0  0  0  0  0  0  0  0  0  0
  -55.1928  -49.3534   98.9801 C   0  0  2  0  0  0  0  0  0  0  0  0
  -54.9627  -50.8078   99.4610 C   0  0  0  0  0  0  0  0  0  0  0  0
  -53.8643  -51.3572   99.3550 O   0  0  0  0  0  0  0  0  0  0  0  0
  -55.2926  -49.4329   97.4429 C   0  0  0  0  0  0  0  0  0  0  0  0
  -53.9672  -49.2913   96.6785 C   0  0  1  0  0  0  0  0  0  0  0  0
  -53.3546  -47.9148   96.9597 C   0  0  0  0  0  0  0  0  0  0  0  0
  -52.9658  -50.3856   97.0433 C   0  0  0  0  0  0  0  0  0  0  0  0
  -57.4105  -52.7140  101.5137 C   0  0  0  0  0  0  0  0  0  0  0  0
  -56.0338  -51.5387   99.8996 N   0  0  0  0  0  0  0  0  0  0  0  0
  -58.2460  -52.7941  102.4199 O   0  0  0  0  0  0  0  0  0  0  0  0
  -56.5780  -51.4125  101.2758 C   0  0  1  0  0  0  0  0  0  0  0  0
  -57.4474  -50.1514  101.4539 C   0  0  0  0  0  0  0  0  0  0  0  0
  -59.8282  -50.8329  100.7474 C   0  0  0  0  0  0  0  0  0  0  0  0
  -61.1011  -50.1272  100.3759 C   0  0  0  0  0  0  0  0  0  0  0  0
  -58.6002  -49.9661  100.4483 C   0  0  0  0  0  0  0  0  0  0  0  0
  -55.4383  -51.3996  102.3139 C   0  0  0  0  0  0  0  0  0  0  0  0
  -57.1625  -53.7808  100.6815 N   0  0  0  0  0  0  0  0  0  0  0  0
  -55.8626  -53.9488  100.0505 C   0  0  2  0  0  0  0  0  0  0  0  0
  -55.8886  -55.2093   99.1645 C   0  0  0  0  0  0  0  0  0  0  0  0
  -54.8948  -55.6287   98.5730 O   0  0  0  0  0  0  0  0  0  0  0  0
  -54.6834  -53.9258  101.0336 C   0  0  0  0  0  0  0  0  0  0  0  0
  -53.6376  -55.0576  100.9098 C   0  0  1  0  0  0  0  0  0  0  0  0
  -53.4115  -55.3683   99.4242 C   0  0  0  0  0  0  0  0  0  0  0  0
  -52.2977  -54.7229  101.5655 C   0  0  0  0  0  0  0  0  0  0  0  0
  -57.1169  -55.8378   99.0742 N   0  0  0  0  0  0  0  0  0  0  0  0
  -57.1966  -57.2991   99.1307 C   0  0  2  0  0  0  0  0  0  0  0  0
  -56.1845  -57.9641   98.1675 C   0  0  0  0  0  0  0  0  0  0  0  0
  -56.0490  -57.5991   96.9974 O   0  0  0  0  0  0  0  0  0  0  0  0
  -58.6378  -57.7764   98.8577 C   0  0  0  0  0  0  0  0  0  0  0  0
  -58.8699  -59.2636   99.1866 C   0  0  0  0  0  0  0  0  0  0  0  0
  -58.0334  -60.2077   98.3068 C   0  0  0  0  0  0  0  0  0  0  0  0
  -56.8057  -60.8042   98.9901 C   0  0  0  0  0  0  0  0  0  0  0  0
  -56.6259  -62.2236   98.6084 N   0  0  0  0  0  4  0  0  0  0  0  0
  -55.3363  -58.8795   98.7090 N   0  0  0  0  0  0  0  0  0  0  0  0
  -54.4603  -30.7377  107.3589 H   0  0  0  0  0  0  0  0  0  0  0  0
  -55.5476  -40.4849  110.1007 H   0  0  0  0  0  0  0  0  0  0  0  0
  1  2  2  0
  1  3  1  0
  4  1  1  0
  5  4  1  0
  6  5  1  0
  5  8  1  1
  6  7  2  0
 15  6  1  0
  8  9  1  0
  9 10  1  0
 10 11  1  0
 11 12  1  0
 12 13  2  0
 12 14  1  0
 16 15  1  6
 17 16  1  0
 16 19  1  0
 17 18  2  0
 23 17  1  0
 19 20  1  0
 19 21  1  6
 20 22  1  0
 24 23  1  1
 25 24  1  0
 24 27  1  0
 25 26  2  0
 31 25  1  0
 27 28  1  0
 27 29  1  6
 28 30  1  0
 32 31  1  0
 33 32  1  0
 32 35  1  6
 33 34  2  0
 43 33  1  0
 35 36  1  0
 36 37  2  0
 36 38  1  0
 37 39  1  0
 38 40  2  0
 39 41  2  0
 40 41  1  0
 41 42  1  0
 44 43  1  0
 45 44  1  0
 44 47  1  6
 45 46  2  0
 49 45  1  0
 47 48  1  0
 50 49  1  0
 51 50  1  0
 50 53  1  1
 51 52  2  0
 61 51  1  0
 53 54  1  0
 54 55  1  0
 55 56  1  0
 56 57  1  0
 57 58  2  0
 57 59  1  0
 60 62  2  0
 60 63  1  0
 69 60  1  0
 63 61  1  0
 63 64  1  0
 63 68  1  1
 64 67  1  0
 65 66  1  0
 67 65  1  0
 66100  2  0
 70 69  1  0
 71 70  1  0
 70 73  1  1
 71 72  2  0
 78 71  1  0
 73 74  1  0
 74 75  1  0
 75 76  2  0
 75 77  1  0
 79 78  1  0
 80 79  1  0
 79 82  1  6
 80 81  2  0
 86 80  1  0
 82 83  1  0
 83 84  1  1
 83 85  1  0
 87 86  1  0
 88 87  1  0
 87 90  1  6
 88 89  2  0
 95 88  1  0
 90 91  1  0
 91 92  1  1
 91 93  1  0
 94 96  2  0
 97 94  1  0
 94103  1  0
 95 97  1  0
 97 98  1  0
 97102  1  1
 98101  1  0
100 99  1  0
 99101  1  0
103104  1  0
104105  1  0
104107  1  1
105106  2  0
105111  1  0
107108  1  0
108109  1  6
108110  1  0
111112  1  0
112113  1  0
112115  1  6
113114  2  0
113120  1  0
115116  1  0
116117  1  0
117118  1  0
118119  1  0
 13121  1  0
 58122  1  0
M  CHG  1 119   1
M  END
$$$$
