
     RDKit          3D

122123  0  0  0  0  0  0  0  0999 V2000
  -58.7708  -53.0895  100.2563 C   0  0  0  0  0  0  0  0  0  0  0  0
  -59.8065  -53.6570  100.5910 O   0  0  0  0  0  0  0  0  0  0  0  0
  -57.7703  -53.7328   99.3349 C   0  0  0  0  0  0  0  0  0  0  0  0
  -58.4220  -51.8272  100.6876 N   0  0  0  0  0  0  0  0  0  0  0  0
  -59.2165  -50.6805  100.2617 C   0  0  2  0  0  0  0  0  0  0  0  0
  -58.4058  -49.4105  100.5933 C   0  0  0  0  0  0  0  0  0  0  0  0
  -57.9531  -49.1830  101.7171 O   0  0  0  0  0  0  0  0  0  0  0  0
  -60.5696  -50.6609  100.9840 C   0  0  0  0  0  0  0  0  0  0  0  0
  -61.7437  -50.9152  100.0334 C   0  0  0  0  0  0  0  0  0  0  0  0
  -62.0542  -52.4080   99.9180 C   0  0  0  0  0  0  0  0  0  0  0  0
  -63.4786  -52.6231   99.7117 N   0  0  0  0  0  0  0  0  0  0  0  0
  -63.9335  -53.6037   98.9017 C   0  0  0  0  0  0  0  0  0  0  0  0
  -65.1679  -53.8663   98.6816 N   0  0  0  0  0  0  0  0  0  0  0  0
  -62.9177  -54.2808   98.3286 N   0  0  0  0  0  0  0  0  0  0  0  0
  -58.3019  -48.5259   99.5515 N   0  0  0  0  0  0  0  0  0  0  0  0
  -57.5468  -47.2747   99.6080 C   0  0  2  0  0  0  0  0  0  0  0  0
  -58.6140  -46.1620   99.6421 C   0  0  0  0  0  0  0  0  0  0  0  0
  -59.8026  -46.4026   99.4306 O   0  0  0  0  0  0  0  0  0  0  0  0
  -56.5675  -47.1766   98.4109 C   0  0  2  0  0  0  0  0  0  0  0  0
  -55.1031  -47.3814   98.8501 C   0  0  0  0  0  0  0  0  0  0  0  0
  -56.7362  -45.8707   97.6209 C   0  0  0  0  0  0  0  0  0  0  0  0
  -54.1077  -47.2571   97.7014 C   0  0  0  0  0  0  0  0  0  0  0  0
  -58.1471  -44.8951   99.9289 N   0  0  0  0  0  0  0  0  0  0  0  0
  -59.0939  -43.7677   99.9936 C   0  0  2  0  0  0  0  0  0  0  0  0
  -58.8809  -42.8448   98.7758 C   0  0  0  0  0  0  0  0  0  0  0  0
  -58.8030  -43.2807   97.6301 O   0  0  0  0  0  0  0  0  0  0  0  0
  -59.0048  -42.9865  101.3366 C   0  0  2  0  0  0  0  0  0  0  0  0
  -59.1721  -43.8740  102.5867 C   0  0  0  0  0  0  0  0  0  0  0  0
  -59.9827  -41.8063  101.4221 C   0  0  0  0  0  0  0  0  0  0  0  0
  -60.3970  -44.7753  102.5437 C   0  0  0  0  0  0  0  0  0  0  0  0
  -58.9096  -41.4903   99.0453 N   0  0  0  0  0  0  0  0  0  0  0  0
  -59.4121  -40.5526   98.0371 C   0  0  2  0  0  0  0  0  0  0  0  0
  -59.3186  -39.1224   98.5965 C   0  0  0  0  0  0  0  0  0  0  0  0
  -60.2761  -38.3500   98.5835 O   0  0  0  0  0  0  0  0  0  0  0  0
  -60.8621  -40.8834   97.6216 C   0  0  0  0  0  0  0  0  0  0  0  0
  -61.0477  -40.9460   96.1235 C   0  0  0  0  0  0  0  0  0  0  0  0
  -59.9712  -40.6430   95.2759 C   0  0  0  0  0  0  0  0  0  0  0  0
  -62.2794  -41.3059   95.5577 C   0  0  0  0  0  0  0  0  0  0  0  0
  -60.1213  -40.7077   93.8904 C   0  0  0  0  0  0  0  0  0  0  0  0
  -62.4283  -41.3738   94.1693 C   0  0  0  0  0  0  0  0  0  0  0  0
  -61.3447  -41.0781   93.3482 C   0  0  0  0  0  0  0  0  0  0  0  0
  -61.4440  -41.1423   91.9883 O   0  0  0  0  0  0  0  0  0  0  0  0
  -58.0947  -38.7774   99.1370 N   0  0  0  0  0  0  0  0  0  0  0  0
  -57.8947  -37.4222   99.6564 C   0  0  2  0  0  0  0  0  0  0  0  0
  -56.4674  -37.2754  100.2106 C   0  0  0  0  0  0  0  0  0  0  0  0
  -55.4724  -37.6594   99.5958 O   0  0  0  0  0  0  0  0  0  0  0  0
  -58.9095  -37.1049  100.7600 C   0  0  0  0  0  0  0  0  0  0  0  0
  -58.7318  -38.0013  101.8578 O   0  0  0  0  0  0  0  0  0  0  0  0
  -56.4165  -36.6840  101.4653 N   0  0  0  0  0  0  0  0  0  0  0  0
  -55.1305  -36.4491  102.1311 C   0  0  2  0  0  0  0  0  0  0  0  0
  -55.4731  -35.4623  103.2919 C   0  0  0  0  0  0  0  0  0  0  0  0
  -56.2636  -34.5320  103.1184 O   0  0  0  0  0  0  0  0  0  0  0  0
  -54.0946  -35.8617  101.1620 C   0  0  0  0  0  0  0  0  0  0  0  0
  -53.0791  -34.8814  101.7652 C   0  0  0  0  0  0  0  0  0  0  0  0
  -53.5637  -34.1576  103.0234 C   0  0  0  0  0  0  0  0  0  0  0  0
  -54.9927  -33.9258  102.9811 N   0  0  0  0  0  0  0  0  0  0  0  0
  -55.6416  -33.2626  103.9616 C   0  0  0  0  0  0  0  0  0  0  0  0
  -55.2877  -32.1296  104.4441 N   0  0  0  0  0  0  0  0  0  0  0  0
  -56.7151  -33.9462  104.3981 N   0  0  0  0  0  0  0  0  0  0  0  0
  -53.8153  -37.8904  104.1739 C   0  0  0  0  0  0  0  0  0  0  0  0
  -54.8732  -35.6652  104.5162 N   0  0  0  0  0  0  0  0  0  0  0  0
  -53.2080  -38.8582  104.6206 O   0  0  0  0  0  0  0  0  0  0  0  0
  -53.5929  -36.4215  104.6608 C   0  0  1  0  0  0  0  0  0  0  0  0
  -53.0936  -36.3624  106.1347 C   0  0  0  0  0  0  0  0  0  0  0  0
  -51.2271  -36.7045  107.8560 C   0  0  0  0  0  0  0  0  0  0  0  0
  -51.8898  -37.7719  108.6855 C   0  0  0  0  0  0  0  0  0  0  0  0
  -51.6116  -36.6953  106.3687 C   0  0  0  0  0  0  0  0  0  0  0  0
  -52.5764  -35.7796  103.6949 C   0  0  0  0  0  0  0  0  0  0  0  0
  -54.6174  -37.9908  103.0532 N   0  0  0  0  0  0  0  0  0  0  0  0
  -54.8743  -39.2698  102.4061 C   0  0  2  0  0  0  0  0  0  0  0  0
  -53.5803  -39.6980  101.6720 C   0  0  0  0  0  0  0  0  0  0  0  0
  -52.8649  -38.8726  101.0888 O   0  0  0  0  0  0  0  0  0  0  0  0
  -55.9727  -39.1324  101.3341 C   0  0  0  0  0  0  0  0  0  0  0  0
  -56.3841  -40.4323  100.6369 C   0  0  0  0  0  0  0  0  0  0  0  0
  -55.4114  -41.5663  100.8619 C   0  0  0  0  0  0  0  0  0  0  0  0
  -55.7303  -42.7428  100.9875 O   0  0  0  0  0  0  0  0  0  0  0  0
  -54.1031  -41.1760  100.9081 N   0  0  0  0  0  0  0  0  0  0  0  0
  -53.2630  -41.0237  101.5636 N   0  0  0  0  0  0  0  0  0  0  0  0
  -53.4151  -42.0541  102.6011 C   0  0  2  0  0  0  0  0  0  0  0  0
  -52.2353  -43.0541  102.4351 C   0  0  0  0  0  0  0  0  0  0  0  0
  -51.4470  -42.9779  101.4895 O   0  0  0  0  0  0  0  0  0  0  0  0
  -54.7703  -42.7780  102.5754 C   0  0  0  0  0  0  0  0  0  0  0  0
  -56.0556  -41.9231  102.5923 C   0  0  1  0  0  0  0  0  0  0  0  0
  -56.1366  -40.9414  103.7593 C   0  0  0  0  0  0  0  0  0  0  0  0
  -56.1586  -41.1476  101.2707 C   0  0  0  0  0  0  0  0  0  0  0  0
  -52.0862  -44.0721  103.3457 N   0  0  0  0  0  0  0  0  0  0  0  0
  -51.7835  -43.7851  104.7512 C   0  0  2  0  0  0  0  0  0  0  0  0
  -50.2409  -43.8516  104.8757 C   0  0  0  0  0  0  0  0  0  0  0  0
  -49.5864  -44.7422  104.3298 O   0  0  0  0  0  0  0  0  0  0  0  0
  -52.3260  -44.8741  105.6994 C   0  0  0  0  0  0  0  0  0  0  0  0
  -52.6631  -46.2230  105.0454 C   0  0  1  0  0  0  0  0  0  0  0  0
  -53.5265  -45.9909  103.8006 C   0  0  0  0  0  0  0  0  0  0  0  0
  -51.4123  -47.0134  104.6653 C   0  0  0  0  0  0  0  0  0  0  0  0
  -48.1658  -41.1118  106.2990 C   0  0  0  0  0  0  0  0  0  0  0  0
  -49.6045  -42.9736  105.7111 N   0  0  0  0  0  0  0  0  0  0  0  0
  -47.2674  -40.3412  105.9456 O   0  0  0  0  0  0  0  0  0  0  0  0
  -49.2832  -41.5798  105.3113 C   0  0  1  0  0  0  0  0  0  0  0  0
  -50.5114  -40.6493  105.3740 C   0  0  0  0  0  0  0  0  0  0  0  0
  -50.6012  -39.7650  107.7910 C   0  0  0  0  0  0  0  0  0  0  0  0
  -51.6138  -39.0860  108.6684 C   0  0  0  0  0  0  0  0  0  0  0  0
  -51.2780  -40.6154  106.7103 C   0  0  0  0  0  0  0  0  0  0  0  0
  -48.6857  -41.5438  103.8906 C   0  0  0  0  0  0  0  0  0  0  0  0
  -48.2102  -41.6088  107.5809 N   0  0  0  0  0  0  0  0  0  0  0  0
  -48.4168  -43.0280  107.8244 C   0  0  2  0  0  0  0  0  0  0  0  0
  -49.4908  -43.5574  106.8543 C   0  0  0  0  0  0  0  0  0  0  0  0
  -49.2506  -43.8314  105.6793 O   0  0  0  0  0  0  0  0  0  0  0  0
  -48.7051  -43.3745  109.2921 C   0  0  0  0  0  0  0  0  0  0  0  0
  -48.1841  -44.7336  109.8132 C   0  0  1  0  0  0  0  0  0  0  0  0
  -46.8474  -44.5129  110.5338 C   0  0  0  0  0  0  0  0  0  0  0  0
  -49.1578  -45.4368  110.7590 C   0  0  0  0  0  0  0  0  0  0  0  0
  -50.7543  -43.6986  107.3981 N   0  0  0  0  0  0  0  0  0  0  0  0
  -51.8139  -44.3514  106.6262 C   0  0  2  0  0  0  0  0  0  0  0  0
  -53.1570  -44.3615  107.3945 C   0  0  0  0  0  0  0  0  0  0  0  0
  -53.5832  -43.3705  107.9921 O   0  0  0  0  0  0  0  0  0  0  0  0
  -51.3868  -45.7743  106.2111 C   0  0  0  0  0  0  0  0  0  0  0  0
  -52.1949  -46.8893  106.9024 C   0  0  0  0  0  0  0  0  0  0  0  0
  -51.3892  -48.1866  107.0834 C   0  0  0  0  0  0  0  0  0  0  0  0
  -52.0975  -49.4543  106.6132 C   0  0  0  0  0  0  0  0  0  0  0  0
  -51.2926  -50.6569  106.9273 N   0  0  0  0  0  4  0  0  0  0  0  0
  -53.9290  -45.4736  107.2609 N   0  0  0  0  0  0  0  0  0  0  0  0
  -65.6523  -54.0215   99.5656 H   0  0  0  0  0  0  0  0  0  0  0  0
  -56.0536  -31.4630  104.3337 H   0  0  0  0  0  0  0  0  0  0  0  0
  1  2  2  0
  1  3  1  0
  4  1  1  0
  5  4  1  0
  6  5  1  0
  5  8  1  1
  6  7  2  0
 15  6  1  0
  8  9  1  0
  9 10  1  0
 10 11  1  0
 11 12  1  0
 12 13  2  0
 12 14  1  0
 16 15  1  6
 17 16  1  0
 16 19  1  0
 17 18  2  0
 23 17  1  0
 19 20  1  0
 19 21  1  1
 20 22  1  0
 24 23  1  1
 25 24  1  0
 24 27  1  0
 25 26  2  0
 31 25  1  0
 27 28  1  0
 27 29  1  6
 28 30  1  0
 32 31  1  0
 33 32  1  0
 32 35  1  1
 33 34  2  0
 43 33  1  0
 35 36  1  0
 36 37  2  0
 36 38  1  0
 37 39  1  0
 38 40  2  0
 39 41  2  0
 40 41  1  0
 41 42  1  0
 44 43  1  0
 45 44  1  0
 44 47  1  1
 45 46  2  0
 49 45  1  0
 47 48  1  0
 50 49  1  0
 51 50  1  0
 50 53  1  6
 51 52  2  0
 61 51  1  0
 53 54  1  0
 54 55  1  0
 55 56  1  0
 56 57  1  0
 57 58  2  0
 57 59  1  0
 60 62  2  0
 60 63  1  0
 69 60  1  0
 63 61  1  0
 63 64  1  0
 63 68  1  6
 64 67  1  0
 65 66  1  0
 67 65  1  0
 66100  2  0
 70 69  1  0
 71 70  1  0
 70 73  1  6
 71 72  2  0
 78 71  1  0
 73 74  1  0
 74 75  1  0
 75 76  2  0
 75 77  1  0
 79 78  1  0
 80 79  1  0
 79 82  1  6
 80 81  2  0
 86 80  1  0
 82 83  1  0
 83 84  1  1
 83 85  1  0
 87 86  1  0
 88 87  1  0
 87 90  1  1
 88 89  2  0
 95 88  1  0
 90 91  1  0
 91 92  1  6
 91 93  1  0
 94 96  2  0
 97 94  1  0
 94103  1  0
 95 97  1  0
 97 98  1  0
 97102  1  6
 98101  1  0
100 99  1  0
 99101  1  0
103104  1  0
104105  1  0
104107  1  1
105106  2  0
105111  1  0
107108  1  0
108109  1  1
108110  1  0
111112  1  0
112113  1  0
112115  1  1
113114  2  0
113120  1  0
115116  1  0
116117  1  0
117118  1  0
118119  1  0
 13121  1  0
 58122  1  0
M  CHG  1 119   1
M  END
$$$$
