
     RDKit          3D

122123  0  0  0  0  0  0  0  0999 V2000
  -58.6026  -54.1376  102.6556 C   0  0  0  0  0  0  0  0  0  0  0  0
  -58.0594  -53.7098  103.6698 O   0  0  0  0  0  0  0  0  0  0  0  0
  -59.2664  -55.4873  102.6145 C   0  0  0  0  0  0  0  0  0  0  0  0
  -58.6546  -53.4384  101.4684 N   0  0  0  0  0  0  0  0  0  0  0  0
  -57.5945  -53.6210  100.4833 C   0  0  2  0  0  0  0  0  0  0  0  0
  -57.6615  -52.4270   99.5086 C   0  0  0  0  0  0  0  0  0  0  0  0
  -56.9356  -52.3347   98.5165 O   0  0  0  0  0  0  0  0  0  0  0  0
  -57.7782  -54.9441   99.7291 C   0  0  0  0  0  0  0  0  0  0  0  0
  -56.6892  -55.1732   98.6762 C   0  0  0  0  0  0  0  0  0  0  0  0
  -57.0733  -54.5520   97.3328 C   0  0  0  0  0  0  0  0  0  0  0  0
  -56.9988  -55.5412   96.2682 N   0  0  0  0  0  0  0  0  0  0  0  0
  -57.3315  -55.2339   94.9955 C   0  0  0  0  0  0  0  0  0  0  0  0
  -56.5099  -55.1565   94.0156 N   0  0  0  0  0  0  0  0  0  0  0  0
  -58.6581  -55.0260   94.8692 N   0  0  0  0  0  0  0  0  0  0  0  0
  -58.5413  -51.4461   99.8860 N   0  0  0  0  0  0  0  0  0  0  0  0
  -58.7493  -50.2005   99.1485 C   0  0  2  0  0  0  0  0  0  0  0  0
  -58.4141  -49.0783  100.1518 C   0  0  0  0  0  0  0  0  0  0  0  0
  -58.8173  -49.1118  101.3144 O   0  0  0  0  0  0  0  0  0  0  0  0
  -60.1917  -50.1368   98.5856 C   0  0  2  0  0  0  0  0  0  0  0  0
  -61.2481  -50.1893   99.7085 C   0  0  0  0  0  0  0  0  0  0  0  0
  -60.4539  -51.2126   97.5215 C   0  0  0  0  0  0  0  0  0  0  0  0
  -60.6892  -50.6870  101.0372 C   0  0  0  0  0  0  0  0  0  0  0  0
  -57.6348  -48.0506   99.6600 N   0  0  0  0  0  0  0  0  0  0  0  0
  -57.3006  -46.9096  100.5306 C   0  0  2  0  0  0  0  0  0  0  0  0
  -58.0977  -45.6674  100.0815 C   0  0  0  0  0  0  0  0  0  0  0  0
  -58.0378  -44.5985  100.6838 O   0  0  0  0  0  0  0  0  0  0  0  0
  -55.7712  -46.6280  100.5890 C   0  0  2  0  0  0  0  0  0  0  0  0
  -54.9482  -47.7784  101.2036 C   0  0  0  0  0  0  0  0  0  0  0  0
  -55.4189  -45.3174  101.3063 C   0  0  0  0  0  0  0  0  0  0  0  0
  -53.4966  -47.8095  100.7494 C   0  0  0  0  0  0  0  0  0  0  0  0
  -58.7823  -45.8004   98.8892 N   0  0  0  0  0  0  0  0  0  0  0  0
  -59.7345  -44.7676   98.4712 C   0  0  2  0  0  0  0  0  0  0  0  0
  -59.0652  -43.3889   98.6066 C   0  0  0  0  0  0  0  0  0  0  0  0
  -59.3966  -42.4288   97.9123 O   0  0  0  0  0  0  0  0  0  0  0  0
  -61.0387  -44.8254   99.2961 C   0  0  0  0  0  0  0  0  0  0  0  0
  -62.0375  -43.7644   98.8971 C   0  0  0  0  0  0  0  0  0  0  0  0
  -62.4009  -42.7696   99.8177 C   0  0  0  0  0  0  0  0  0  0  0  0
  -62.6108  -43.7498   97.6173 C   0  0  0  0  0  0  0  0  0  0  0  0
  -63.3124  -41.7751   99.4621 C   0  0  0  0  0  0  0  0  0  0  0  0
  -63.5216  -42.7510   97.2604 C   0  0  0  0  0  0  0  0  0  0  0  0
  -63.8603  -41.7693   98.1863 C   0  0  0  0  0  0  0  0  0  0  0  0
  -64.7371  -40.7702   97.8755 O   0  0  0  0  0  0  0  0  0  0  0  0
  -58.0872  -43.2988   99.5785 N   0  0  0  0  0  0  0  0  0  0  0  0
  -57.4748  -41.9989   99.8637 C   0  0  2  0  0  0  0  0  0  0  0  0
  -58.1316  -41.3672  101.1028 C   0  0  0  0  0  0  0  0  0  0  0  0
  -58.1093  -40.1561  101.3228 O   0  0  0  0  0  0  0  0  0  0  0  0
  -57.6194  -41.0526   98.6670 C   0  0  0  0  0  0  0  0  0  0  0  0
  -58.7404  -40.1890   98.8613 O   0  0  0  0  0  0  0  0  0  0  0  0
  -58.7344  -42.2917  101.9445 N   0  0  0  0  0  0  0  0  0  0  0  0
  -58.8484  -42.0316  103.3838 C   0  0  2  0  0  0  0  0  0  0  0  0
  -59.5405  -43.3109  103.9521 C   0  0  0  0  0  0  0  0  0  0  0  0
  -60.4844  -43.8363  103.3575 O   0  0  0  0  0  0  0  0  0  0  0  0
  -59.6654  -40.7620  103.6629 C   0  0  0  0  0  0  0  0  0  0  0  0
  -59.9995  -39.8877  102.4463 C   0  0  0  0  0  0  0  0  0  0  0  0
  -60.5341  -38.4959  102.7907 C   0  0  0  0  0  0  0  0  0  0  0  0
  -60.8562  -37.7440  101.5954 N   0  0  0  0  0  0  0  0  0  0  0  0
  -61.3571  -38.3340  100.4895 C   0  0  0  0  0  0  0  0  0  0  0  0
  -60.8447  -38.2587   99.3175 N   0  0  0  0  0  0  0  0  0  0  0  0
  -62.4889  -39.0108  100.7563 N   0  0  0  0  0  0  0  0  0  0  0  0
  -57.1771  -42.2168  105.0921 C   0  0  0  0  0  0  0  0  0  0  0  0
  -59.0621  -43.8395  105.1318 N   0  0  0  0  0  0  0  0  0  0  0  0
  -56.0098  -41.9505  104.8250 O   0  0  0  0  0  0  0  0  0  0  0  0
  -57.6588  -43.6170  105.5936 C   0  0  1  0  0  0  0  0  0  0  0  0
  -56.7362  -44.7675  105.0932 C   0  0  0  0  0  0  0  0  0  0  0  0
  -54.5091  -46.0287  105.2074 C   0  0  0  0  0  0  0  0  0  0  0  0
  -54.0342  -45.7580  103.8045 C   0  0  0  0  0  0  0  0  0  0  0  0
  -55.3944  -44.9350  105.8236 C   0  0  0  0  0  0  0  0  0  0  0  0
  -57.6942  -43.5520  107.1340 C   0  0  0  0  0  0  0  0  0  0  0  0
  -58.1482  -41.2360  105.1601 N   0  0  0  0  0  0  0  0  0  0  0  0
  -57.8647  -39.8507  104.8115 C   0  0  2  0  0  0  0  0  0  0  0  0
  -56.9970  -39.2456  105.9416 C   0  0  0  0  0  0  0  0  0  0  0  0
  -57.1959  -39.5280  107.1307 O   0  0  0  0  0  0  0  0  0  0  0  0
  -59.1629  -39.0227  104.7513 C   0  0  0  0  0  0  0  0  0  0  0  0
  -59.0595  -37.5895  105.2809 C   0  0  0  0  0  0  0  0  0  0  0  0
  -58.6053  -37.5142  106.7199 C   0  0  0  0  0  0  0  0  0  0  0  0
  -58.3701  -36.4733  107.3223 O   0  0  0  0  0  0  0  0  0  0  0  0
  -58.4792  -38.7309  107.3279 N   0  0  0  0  0  0  0  0  0  0  0  0
  -56.0581  -38.2956  105.6481 N   0  0  0  0  0  0  0  0  0  0  0  0
  -55.1557  -38.2773  104.4877 C   0  0  2  0  0  0  0  0  0  0  0  0
  -53.8114  -37.6519  104.9582 C   0  0  0  0  0  0  0  0  0  0  0  0
  -53.6783  -37.1702  106.0858 O   0  0  0  0  0  0  0  0  0  0  0  0
  -55.7188  -37.5384  103.2638 C   0  0  0  0  0  0  0  0  0  0  0  0
  -56.4727  -38.3610  102.1969 C   0  0  1  0  0  0  0  0  0  0  0  0
  -57.3581  -37.5252  101.2753 C   0  0  0  0  0  0  0  0  0  0  0  0
  -55.4530  -39.1380  101.3511 C   0  0  0  0  0  0  0  0  0  0  0  0
  -52.7530  -37.6017  104.0835 N   0  0  0  0  0  0  0  0  0  0  0  0
  -52.1284  -38.8319  103.5878 C   0  0  2  0  0  0  0  0  0  0  0  0
  -50.9402  -39.1184  104.5393 C   0  0  0  0  0  0  0  0  0  0  0  0
  -50.1876  -38.2201  104.9219 O   0  0  0  0  0  0  0  0  0  0  0  0
  -51.5072  -38.6482  102.1879 C   0  0  0  0  0  0  0  0  0  0  0  0
  -52.1959  -39.4104  101.0453 C   0  0  1  0  0  0  0  0  0  0  0  0
  -53.4964  -40.0402  101.5561 C   0  0  0  0  0  0  0  0  0  0  0  0
  -52.4941  -38.5136   99.8451 C   0  0  0  0  0  0  0  0  0  0  0  0
  -50.4452  -42.3547  106.3057 C   0  0  0  0  0  0  0  0  0  0  0  0
  -50.6474  -40.4159  104.8628 N   0  0  0  0  0  0  0  0  0  0  0  0
  -50.5445  -42.9319  107.3932 O   0  0  0  0  0  0  0  0  0  0  0  0
  -51.3770  -41.1601  105.9209 C   0  0  1  0  0  0  0  0  0  0  0  0
  -52.7581  -41.6572  105.4481 C   0  0  0  0  0  0  0  0  0  0  0  0
  -52.3423  -43.9481  104.3478 C   0  0  0  0  0  0  0  0  0  0  0  0
  -53.0942  -44.8733  103.4341 C   0  0  0  0  0  0  0  0  0  0  0  0
  -52.7795  -42.4922  104.1532 C   0  0  0  0  0  0  0  0  0  0  0  0
  -51.5504  -40.2881  107.1803 C   0  0  0  0  0  0  0  0  0  0  0  0
  -49.4911  -42.7296  105.3885 N   0  0  0  0  0  0  0  0  0  0  0  0
  -49.4317  -42.1054  104.0759 C   0  0  2  0  0  0  0  0  0  0  0  0
  -50.3769  -42.8535  103.1159 C   0  0  0  0  0  0  0  0  0  0  0  0
  -51.1536  -42.2731  102.3587 O   0  0  0  0  0  0  0  0  0  0  0  0
  -48.0081  -41.9495  103.5222 C   0  0  0  0  0  0  0  0  0  0  0  0
  -47.8570  -41.8072  101.9902 C   0  0  1  0  0  0  0  0  0  0  0  0
  -46.3655  -41.7109  101.6423 C   0  0  0  0  0  0  0  0  0  0  0  0
  -48.4850  -42.9601  101.2068 C   0  0  0  0  0  0  0  0  0  0  0  0
  -50.2958  -44.2328  103.1689 N   0  0  0  0  0  0  0  0  0  0  0  0
  -51.4918  -45.0452  102.9359 C   0  0  2  0  0  0  0  0  0  0  0  0
  -51.3643  -46.4470  103.5787 C   0  0  0  0  0  0  0  0  0  0  0  0
  -52.1769  -47.3490  103.3622 O   0  0  0  0  0  0  0  0  0  0  0  0
  -51.8008  -45.1385  101.4276 C   0  0  0  0  0  0  0  0  0  0  0  0
  -52.7818  -44.0600  100.9291 C   0  0  0  0  0  0  0  0  0  0  0  0
  -53.2096  -44.2712   99.4671 C   0  0  0  0  0  0  0  0  0  0  0  0
  -52.3505  -45.2591   98.6821 C   0  0  0  0  0  0  0  0  0  0  0  0
  -52.2203  -44.8387   97.2682 N   0  0  0  0  0  4  0  0  0  0  0  0
  -50.2275  -46.6949  104.2836 N   0  0  0  0  0  0  0  0  0  0  0  0
  -56.7763  -54.3884   93.3997 H   0  0  0  0  0  0  0  0  0  0  0  0
  -59.8311  -38.3637   99.3861 H   0  0  0  0  0  0  0  0  0  0  0  0
  1  2  2  0
  1  3  1  0
  4  1  1  0
  5  4  1  0
  6  5  1  0
  5  8  1  6
  6  7  2  0
 15  6  1  0
  8  9  1  0
  9 10  1  0
 10 11  1  0
 11 12  1  0
 12 13  2  0
 12 14  1  0
 16 15  1  1
 17 16  1  0
 16 19  1  0
 17 18  2  0
 23 17  1  0
 19 20  1  0
 19 21  1  6
 20 22  1  0
 24 23  1  6
 25 24  1  0
 24 27  1  0
 25 26  2  0
 31 25  1  0
 27 28  1  0
 27 29  1  1
 28 30  1  0
 32 31  1  0
 33 32  1  0
 32 35  1  1
 33 34  2  0
 43 33  1  0
 35 36  1  0
 36 37  2  0
 36 38  1  0
 37 39  1  0
 38 40  2  0
 39 41  2  0
 40 41  1  0
 41 42  1  0
 44 43  1  0
 45 44  1  0
 44 47  1  6
 45 46  2  0
 49 45  1  0
 47 48  1  0
 50 49  1  0
 51 50  1  0
 50 53  1  6
 51 52  2  0
 61 51  1  0
 53 54  1  0
 54 55  1  0
 55 56  1  0
 56 57  1  0
 57 58  2  0
 57 59  1  0
 60 62  2  0
 60 63  1  0
 69 60  1  0
 63 61  1  0
 63 64  1  0
 63 68  1  1
 64 67  1  0
 65 66  1  0
 67 65  1  0
 66100  2  0
 70 69  1  0
 71 70  1  0
 70 73  1  1
 71 72  2  0
 78 71  1  0
 73 74  1  0
 74 75  1  0
 75 76  2  0
 75 77  1  0
 79 78  1  0
 80 79  1  0
 79 82  1  6
 80 81  2  0
 86 80  1  0
 82 83  1  0
 83 84  1  6
 83 85  1  0
 87 86  1  0
 88 87  1  0
 87 90  1  6
 88 89  2  0
 95 88  1  0
 90 91  1  0
 91 92  1  1
 91 93  1  0
 94 96  2  0
 97 94  1  0
 94103  1  0
 95 97  1  0
 97 98  1  0
 97102  1  1
 98101  1  0
100 99  1  0
 99101  1  0
103104  1  0
104105  1  0
104107  1  6
105106  2  0
105111  1  0
107108  1  0
108109  1  1
108110  1  0
111112  1  0
112113  1  0
112115  1  6
113114  2  0
113120  1  0
115116  1  0
116117  1  0
117118  1  0
118119  1  0
 13121  1  0
 58122  1  0
M  CHG  1 119   1
M  END
$$$$
