
     RDKit          3D

122123  0  0  0  0  0  0  0  0999 V2000
  -54.6868  -52.8535   97.2252 C   0  0  0  0  0  0  0  0  0  0  0  0
  -55.2880  -53.8810   97.5246 O   0  0  0  0  0  0  0  0  0  0  0  0
  -53.4637  -52.3976   97.9735 C   0  0  0  0  0  0  0  0  0  0  0  0
  -55.0679  -52.0232   96.1924 N   0  0  0  0  0  0  0  0  0  0  0  0
  -56.2288  -52.3751   95.3824 C   0  0  2  0  0  0  0  0  0  0  0  0
  -57.4683  -52.2995   96.2977 C   0  0  0  0  0  0  0  0  0  0  0  0
  -58.5946  -52.6332   95.9236 O   0  0  0  0  0  0  0  0  0  0  0  0
  -56.0743  -53.7853   94.7986 C   0  0  0  0  0  0  0  0  0  0  0  0
  -55.3976  -53.7784   93.4242 C   0  0  0  0  0  0  0  0  0  0  0  0
  -56.1877  -52.9408   92.4181 C   0  0  0  0  0  0  0  0  0  0  0  0
  -55.6183  -53.0658   91.0847 N   0  0  0  0  0  0  0  0  0  0  0  0
  -55.7983  -54.1803   90.3428 C   0  0  0  0  0  0  0  0  0  0  0  0
  -54.8701  -54.8202   89.7345 N   0  0  0  0  0  0  0  0  0  0  0  0
  -57.0929  -54.5578   90.3263 N   0  0  0  0  0  0  0  0  0  0  0  0
  -57.2197  -51.7574   97.5317 N   0  0  0  0  0  0  0  0  0  0  0  0
  -58.2558  -51.4400   98.5139 C   0  0  2  0  0  0  0  0  0  0  0  0
  -57.5073  -50.7777   99.6883 C   0  0  0  0  0  0  0  0  0  0  0  0
  -56.4236  -51.2059  100.0852 O   0  0  0  0  0  0  0  0  0  0  0  0
  -59.0436  -52.7162   98.9040 C   0  0  2  0  0  0  0  0  0  0  0  0
  -59.2089  -53.6759   97.7078 C   0  0  0  0  0  0  0  0  0  0  0  0
  -60.3977  -52.3940   99.5527 C   0  0  0  0  0  0  0  0  0  0  0  0
  -59.1227  -55.1470   98.1006 C   0  0  0  0  0  0  0  0  0  0  0  0
  -58.1293  -49.6812  100.2506 N   0  0  0  0  0  0  0  0  0  0  0  0
  -57.4702  -48.9550  101.3505 C   0  0  2  0  0  0  0  0  0  0  0  0
  -58.5089  -48.0873  102.0910 C   0  0  0  0  0  0  0  0  0  0  0  0
  -59.6537  -47.9367  101.6720 O   0  0  0  0  0  0  0  0  0  0  0  0
  -56.2507  -48.1164  100.8692 C   0  0  2  0  0  0  0  0  0  0  0  0
  -56.6375  -46.8536  100.0728 C   0  0  0  0  0  0  0  0  0  0  0  0
  -55.2319  -48.9303  100.0594 C   0  0  0  0  0  0  0  0  0  0  0  0
  -58.0735  -46.8570   99.5705 C   0  0  0  0  0  0  0  0  0  0  0  0
  -58.1054  -47.5951  103.3170 N   0  0  0  0  0  0  0  0  0  0  0  0
  -59.0576  -47.5270  104.4291 C   0  0  2  0  0  0  0  0  0  0  0  0
  -59.0156  -46.1134  105.0351 C   0  0  0  0  0  0  0  0  0  0  0  0
  -58.8889  -45.9223  106.2438 O   0  0  0  0  0  0  0  0  0  0  0  0
  -58.7560  -48.5923  105.5055 C   0  0  0  0  0  0  0  0  0  0  0  0
  -58.4521  -49.9523  104.9219 C   0  0  0  0  0  0  0  0  0  0  0  0
  -57.1194  -50.3724  104.7938 C   0  0  0  0  0  0  0  0  0  0  0  0
  -59.4797  -50.8112  104.5058 C   0  0  0  0  0  0  0  0  0  0  0  0
  -56.8211  -51.6300  104.2685 C   0  0  0  0  0  0  0  0  0  0  0  0
  -59.1803  -52.0726  103.9825 C   0  0  0  0  0  0  0  0  0  0  0  0
  -57.8521  -52.4720  103.8733 C   0  0  0  0  0  0  0  0  0  0  0  0
  -57.5163  -53.6988  103.3779 O   0  0  0  0  0  0  0  0  0  0  0  0
  -59.1032  -45.0770  104.1255 N   0  0  0  0  0  0  0  0  0  0  0  0
  -59.1901  -43.6982  104.6130 C   0  0  2  0  0  0  0  0  0  0  0  0
  -59.7094  -42.7761  103.4969 C   0  0  0  0  0  0  0  0  0  0  0  0
  -59.7005  -43.0994  102.3090 O   0  0  0  0  0  0  0  0  0  0  0  0
  -57.8225  -43.2020  105.0946 C   0  0  0  0  0  0  0  0  0  0  0  0
  -56.7836  -43.9737  104.4902 O   0  0  0  0  0  0  0  0  0  0  0  0
  -60.1723  -41.5514  103.9580 N   0  0  0  0  0  0  0  0  0  0  0  0
  -60.5558  -40.4932  103.0172 C   0  0  2  0  0  0  0  0  0  0  0  0
  -60.8388  -39.2550  103.9258 C   0  0  0  0  0  0  0  0  0  0  0  0
  -61.9662  -39.0494  104.3810 O   0  0  0  0  0  0  0  0  0  0  0  0
  -61.7855  -40.8944  102.1901 C   0  0  0  0  0  0  0  0  0  0  0  0
  -62.4588  -39.7736  101.3861 C   0  0  0  0  0  0  0  0  0  0  0  0
  -63.6270  -40.2324  100.5104 C   0  0  0  0  0  0  0  0  0  0  0  0
  -64.6531  -40.8832  101.2986 N   0  0  0  0  0  0  0  0  0  0  0  0
  -65.9516  -40.8802  100.9296 C   0  0  0  0  0  0  0  0  0  0  0  0
  -66.4092  -40.3682   99.8478 N   0  0  0  0  0  0  0  0  0  0  0  0
  -66.7320  -41.4720  101.8520 N   0  0  0  0  0  0  0  0  0  0  0  0
  -57.7872  -39.7796  103.6858 C   0  0  0  0  0  0  0  0  0  0  0  0
  -59.7924  -38.4040  104.2099 N   0  0  0  0  0  0  0  0  0  0  0  0
  -56.5682  -39.9156  103.6632 O   0  0  0  0  0  0  0  0  0  0  0  0
  -58.5175  -38.4209  103.4313 C   0  0  1  0  0  0  0  0  0  0  0  0
  -57.6323  -37.1991  103.8169 C   0  0  0  0  0  0  0  0  0  0  0  0
  -55.6384  -35.6667  103.3275 C   0  0  0  0  0  0  0  0  0  0  0  0
  -54.8275  -35.9651  104.5605 C   0  0  0  0  0  0  0  0  0  0  0  0
  -56.5201  -36.8204  102.8262 C   0  0  0  0  0  0  0  0  0  0  0  0
  -58.8991  -38.3917  101.9374 C   0  0  0  0  0  0  0  0  0  0  0  0
  -58.6379  -40.8669  103.7460 N   0  0  0  0  0  0  0  0  0  0  0  0
  -58.1362  -42.2257  103.8971 C   0  0  2  0  0  0  0  0  0  0  0  0
  -57.4923  -42.6455  102.5534 C   0  0  0  0  0  0  0  0  0  0  0  0
  -57.9883  -42.3148  101.4680 O   0  0  0  0  0  0  0  0  0  0  0  0
  -59.2900  -43.2105  104.1678 C   0  0  0  0  0  0  0  0  0  0  0  0
  -59.5347  -44.2594  103.0793 C   0  0  0  0  0  0  0  0  0  0  0  0
  -58.8827  -43.9168  101.7601 C   0  0  0  0  0  0  0  0  0  0  0  0
  -57.7221  -44.1797  101.4679 O   0  0  0  0  0  0  0  0  0  0  0  0
  -59.7098  -43.2783  100.8801 N   0  0  0  0  0  0  0  0  0  0  0  0
  -56.4155  -43.4884  102.5454 N   0  0  0  0  0  0  0  0  0  0  0  0
  -55.2737  -43.4683  103.4712 C   0  0  2  0  0  0  0  0  0  0  0  0
  -54.0150  -43.8910  102.6609 C   0  0  0  0  0  0  0  0  0  0  0  0
  -54.0943  -44.2798  101.4931 O   0  0  0  0  0  0  0  0  0  0  0  0
  -55.4584  -44.3477  104.7176 C   0  0  0  0  0  0  0  0  0  0  0  0
  -56.2060  -43.7502  105.9290 C   0  0  1  0  0  0  0  0  0  0  0  0
  -55.8132  -42.3114  106.2567 C   0  0  0  0  0  0  0  0  0  0  0  0
  -57.7177  -43.8147  105.6659 C   0  0  0  0  0  0  0  0  0  0  0  0
  -52.7846  -43.8651  103.2719 N   0  0  0  0  0  0  0  0  0  0  0  0
  -52.1973  -42.6010  103.7261 C   0  0  2  0  0  0  0  0  0  0  0  0
  -51.2971  -42.1094  102.5653 C   0  0  0  0  0  0  0  0  0  0  0  0
  -50.5616  -42.8813  101.9466 O   0  0  0  0  0  0  0  0  0  0  0  0
  -51.2548  -42.7949  104.9317 C   0  0  0  0  0  0  0  0  0  0  0  0
  -51.2721  -41.6730  105.9814 C   0  0  1  0  0  0  0  0  0  0  0  0
  -50.3999  -40.5067  105.5038 C   0  0  0  0  0  0  0  0  0  0  0  0
  -52.6855  -41.1732  106.2749 C   0  0  0  0  0  0  0  0  0  0  0  0
  -51.5689  -38.7310  101.0320 C   0  0  0  0  0  0  0  0  0  0  0  0
  -51.2263  -40.7677  102.3033 N   0  0  0  0  0  0  0  0  0  0  0  0
  -52.1654  -37.9022  100.3369 O   0  0  0  0  0  0  0  0  0  0  0  0
  -52.2547  -40.0539  101.5040 C   0  0  1  0  0  0  0  0  0  0  0  0
  -53.5348  -39.7630  102.3131 C   0  0  0  0  0  0  0  0  0  0  0  0
  -53.1232  -37.5129  103.4960 C   0  0  0  0  0  0  0  0  0  0  0  0
  -53.7389  -36.7481  104.6328 C   0  0  0  0  0  0  0  0  0  0  0  0
  -53.3465  -39.0213  103.6506 C   0  0  0  0  0  0  0  0  0  0  0  0
  -52.6193  -40.8588  100.2407 C   0  0  0  0  0  0  0  0  0  0  0  0
  -50.2605  -38.5318  101.4069 N   0  0  0  0  0  0  0  0  0  0  0  0
  -49.5633  -39.5073  102.2305 C   0  0  2  0  0  0  0  0  0  0  0  0
  -48.1541  -38.9776  102.5597 C   0  0  0  0  0  0  0  0  0  0  0  0
  -47.1933  -39.7195  102.7597 O   0  0  0  0  0  0  0  0  0  0  0  0
  -49.5535  -40.9265  101.6446 C   0  0  0  0  0  0  0  0  0  0  0  0
  -48.9897  -42.0559  102.5371 C   0  0  1  0  0  0  0  0  0  0  0  0
  -47.4574  -42.0368  102.4583 C   0  0  0  0  0  0  0  0  0  0  0  0
  -49.4217  -41.9491  103.9998 C   0  0  0  0  0  0  0  0  0  0  0  0
  -48.0444  -37.6007  102.6216 N   0  0  0  0  0  0  0  0  0  0  0  0
  -48.0445  -36.9247  103.9208 C   0  0  2  0  0  0  0  0  0  0  0  0
  -49.4532  -36.9178  104.5611 C   0  0  0  0  0  0  0  0  0  0  0  0
  -50.1612  -35.9085  104.5881 O   0  0  0  0  0  0  0  0  0  0  0  0
  -47.4728  -35.4978  103.7917 C   0  0  0  0  0  0  0  0  0  0  0  0
  -48.2596  -34.6019  102.8159 C   0  0  0  0  0  0  0  0  0  0  0  0
  -47.7394  -33.1551  102.7815 C   0  0  0  0  0  0  0  0  0  0  0  0
  -46.4336  -32.9593  102.0157 C   0  0  0  0  0  0  0  0  0  0  0  0
  -46.0733  -31.5248  101.9434 N   0  0  0  0  0  4  0  0  0  0  0  0
  -49.9458  -38.1192  104.9668 N   0  0  0  0  0  0  0  0  0  0  0  0
  -54.0802  -54.1999   89.5572 H   0  0  0  0  0  0  0  0  0  0  0  0
  -65.6450  -39.9235   99.3366 H   0  0  0  0  0  0  0  0  0  0  0  0
  1  2  2  0
  1  3  1  0
  4  1  1  0
  5  4  1  0
  6  5  1  0
  5  8  1  1
  6  7  2  0
 15  6  1  0
  8  9  1  0
  9 10  1  0
 10 11  1  0
 11 12  1  0
 12 13  2  0
 12 14  1  0
 16 15  1  6
 17 16  1  0
 16 19  1  0
 17 18  2  0
 23 17  1  0
 19 20  1  0
 19 21  1  6
 20 22  1  0
 24 23  1  6
 25 24  1  0
 24 27  1  0
 25 26  2  0
 31 25  1  0
 27 28  1  0
 27 29  1  6
 28 30  1  0
 32 31  1  0
 33 32  1  0
 32 35  1  1
 33 34  2  0
 43 33  1  0
 35 36  1  0
 36 37  2  0
 36 38  1  0
 37 39  1  0
 38 40  2  0
 39 41  2  0
 40 41  1  0
 41 42  1  0
 44 43  1  0
 45 44  1  0
 44 47  1  6
 45 46  2  0
 49 45  1  0
 47 48  1  0
 50 49  1  0
 51 50  1  0
 50 53  1  1
 51 52  2  0
 61 51  1  0
 53 54  1  0
 54 55  1  0
 55 56  1  0
 56 57  1  0
 57 58  2  0
 57 59  1  0
 60 62  2  0
 60 63  1  0
 69 60  1  0
 63 61  1  0
 63 64  1  0
 63 68  1  6
 64 67  1  0
 65 66  1  0
 67 65  1  0
 66100  2  0
 70 69  1  0
 71 70  1  0
 70 73  1  6
 71 72  2  0
 78 71  1  0
 73 74  1  0
 74 75  1  0
 75 76  2  0
 75 77  1  0
 79 78  1  0
 80 79  1  0
 79 82  1  1
 80 81  2  0
 86 80  1  0
 82 83  1  0
 83 84  1  6
 83 85  1  0
 87 86  1  0
 88 87  1  0
 87 90  1  1
 88 89  2  0
 95 88  1  0
 90 91  1  0
 91 92  1  6
 91 93  1  0
 94 96  2  0
 97 94  1  0
 94103  1  0
 95 97  1  0
 97 98  1  0
 97102  1  6
 98101  1  0
100 99  1  0
 99101  1  0
103104  1  0
104105  1  0
104107  1  6
105106  2  0
105111  1  0
107108  1  0
108109  1  1
108110  1  0
111112  1  0
112113  1  0
112115  1  6
113114  2  0
113120  1  0
115116  1  0
116117  1  0
117118  1  0
118119  1  0
 13121  1  0
 58122  1  0
M  CHG  1 119   1
M  END
$$$$
