
     RDKit          3D

122123  0  0  0  0  0  0  0  0999 V2000
  -55.5581  -56.8848   97.3330 C   0  0  0  0  0  0  0  0  0  0  0  0
  -56.4635  -57.6329   97.6901 O   0  0  0  0  0  0  0  0  0  0  0  0
  -54.2309  -57.4091   96.8562 C   0  0  0  0  0  0  0  0  0  0  0  0
  -55.6618  -55.5099   97.3371 N   0  0  0  0  0  0  0  0  0  0  0  0
  -56.2309  -54.8387   98.5004 C   0  0  2  0  0  0  0  0  0  0  0  0
  -56.2365  -53.3252   98.2012 C   0  0  0  0  0  0  0  0  0  0  0  0
  -55.3326  -52.5702   98.5653 O   0  0  0  0  0  0  0  0  0  0  0  0
  -55.4028  -55.1372   99.7567 C   0  0  0  0  0  0  0  0  0  0  0  0
  -55.9269  -54.3979  100.9919 C   0  0  0  0  0  0  0  0  0  0  0  0
  -56.7633  -55.3198  101.8801 C   0  0  0  0  0  0  0  0  0  0  0  0
  -57.6147  -56.1798  101.0718 N   0  0  0  0  0  0  0  0  0  0  0  0
  -58.4575  -57.0707  101.6381 C   0  0  0  0  0  0  0  0  0  0  0  0
  -59.7323  -57.0642  101.5124 N   0  0  0  0  0  0  0  0  0  0  0  0
  -57.7878  -57.9955  102.3559 N   0  0  0  0  0  0  0  0  0  0  0  0
  -57.3685  -52.8853   97.5657 N   0  0  0  0  0  0  0  0  0  0  0  0
  -57.6135  -51.4924   97.1936 C   0  0  2  0  0  0  0  0  0  0  0  0
  -57.9813  -50.7825   98.5123 C   0  0  0  0  0  0  0  0  0  0  0  0
  -57.8964  -51.3560   99.5981 O   0  0  0  0  0  0  0  0  0  0  0  0
  -58.7092  -51.4066   96.1011 C   0  0  2  0  0  0  0  0  0  0  0  0
  -58.3976  -52.3272   94.9032 C   0  0  0  0  0  0  0  0  0  0  0  0
  -58.9695  -49.9640   95.6437 C   0  0  0  0  0  0  0  0  0  0  0  0
  -57.0524  -52.0292   94.2495 C   0  0  0  0  0  0  0  0  0  0  0  0
  -58.4010  -49.4733   98.3889 N   0  0  0  0  0  0  0  0  0  0  0  0
  -58.8591  -48.7402   99.5823 C   0  0  2  0  0  0  0  0  0  0  0  0
  -59.6101  -47.4647   99.1473 C   0  0  0  0  0  0  0  0  0  0  0  0
  -59.1032  -46.6282   98.4043 O   0  0  0  0  0  0  0  0  0  0  0  0
  -57.7009  -48.4227  100.5720 C   0  0  2  0  0  0  0  0  0  0  0  0
  -58.1080  -47.4882  101.7294 C   0  0  0  0  0  0  0  0  0  0  0  0
  -56.4491  -47.8587   99.8857 C   0  0  0  0  0  0  0  0  0  0  0  0
  -58.7636  -48.2057  102.8999 C   0  0  0  0  0  0  0  0  0  0  0  0
  -60.9305  -47.3881   99.5458 N   0  0  0  0  0  0  0  0  0  0  0  0
  -61.7246  -46.1981   99.2274 C   0  0  2  0  0  0  0  0  0  0  0  0
  -62.0015  -45.4217  100.5266 C   0  0  0  0  0  0  0  0  0  0  0  0
  -63.0746  -44.8581  100.7368 O   0  0  0  0  0  0  0  0  0  0  0  0
  -63.0462  -46.5661   98.5184 C   0  0  0  0  0  0  0  0  0  0  0  0
  -62.9320  -47.8059   97.6625 C   0  0  0  0  0  0  0  0  0  0  0  0
  -61.6961  -48.4602   97.5470 C   0  0  0  0  0  0  0  0  0  0  0  0
  -64.0423  -48.3225   96.9790 C   0  0  0  0  0  0  0  0  0  0  0  0
  -61.5754  -49.6132   96.7709 C   0  0  0  0  0  0  0  0  0  0  0  0
  -63.9216  -49.4798   96.2040 C   0  0  0  0  0  0  0  0  0  0  0  0
  -62.6884  -50.1173   96.1113 C   0  0  0  0  0  0  0  0  0  0  0  0
  -62.5293  -51.2552   95.3743 O   0  0  0  0  0  0  0  0  0  0  0  0
  -60.9723  -45.4250  101.4485 N   0  0  0  0  0  0  0  0  0  0  0  0
  -61.1349  -44.6977  102.7098 C   0  0  2  0  0  0  0  0  0  0  0  0
  -60.2472  -43.4416  102.7122 C   0  0  0  0  0  0  0  0  0  0  0  0
  -60.1040  -42.7303  103.7068 O   0  0  0  0  0  0  0  0  0  0  0  0
  -60.7704  -45.5866  103.9038 C   0  0  0  0  0  0  0  0  0  0  0  0
  -61.0342  -46.9551  103.5909 O   0  0  0  0  0  0  0  0  0  0  0  0
  -59.6408  -43.1871  101.4899 N   0  0  0  0  0  0  0  0  0  0  0  0
  -58.7527  -42.0319  101.3204 C   0  0  2  0  0  0  0  0  0  0  0  0
  -59.6872  -40.7963  101.5168 C   0  0  0  0  0  0  0  0  0  0  0  0
  -60.5407  -40.5087  100.6746 O   0  0  0  0  0  0  0  0  0  0  0  0
  -58.0838  -42.0347   99.9384 C   0  0  0  0  0  0  0  0  0  0  0  0
  -56.5613  -41.8404   99.9200 C   0  0  0  0  0  0  0  0  0  0  0  0
  -55.9570  -41.6829   98.5230 C   0  0  0  0  0  0  0  0  0  0  0  0
  -56.9865  -41.5045   97.5200 N   0  0  0  0  0  0  0  0  0  0  0  0
  -57.2981  -40.2901   97.0195 C   0  0  0  0  0  0  0  0  0  0  0  0
  -57.0750  -39.1723   97.6047 N   0  0  0  0  0  0  0  0  0  0  0  0
  -57.8982  -40.3861   95.8191 N   0  0  0  0  0  0  0  0  0  0  0  0
  -57.2136  -39.1765  102.8743 C   0  0  0  0  0  0  0  0  0  0  0  0
  -59.5360  -40.0418  102.6604 N   0  0  0  0  0  0  0  0  0  0  0  0
  -56.0071  -39.3812  102.9607 O   0  0  0  0  0  0  0  0  0  0  0  0
  -58.3025  -40.1069  103.5009 C   0  0  1  0  0  0  0  0  0  0  0  0
  -57.8120  -41.5795  103.6279 C   0  0  0  0  0  0  0  0  0  0  0  0
  -56.3408  -43.3319  104.7803 C   0  0  0  0  0  0  0  0  0  0  0  0
  -55.4910  -43.7136  103.5975 C   0  0  0  0  0  0  0  0  0  0  0  0
  -56.8465  -41.8814  104.7849 C   0  0  0  0  0  0  0  0  0  0  0  0
  -58.6609  -39.5112  104.8775 C   0  0  0  0  0  0  0  0  0  0  0  0
  -57.7145  -37.9885  102.3771 N   0  0  0  0  0  0  0  0  0  0  0  0
  -56.8433  -36.9595  101.8267 C   0  0  2  0  0  0  0  0  0  0  0  0
  -56.0918  -36.2943  103.0053 C   0  0  0  0  0  0  0  0  0  0  0  0
  -56.6509  -36.0791  104.0890 O   0  0  0  0  0  0  0  0  0  0  0  0
  -57.6662  -35.8531  101.1388 C   0  0  0  0  0  0  0  0  0  0  0  0
  -58.5752  -35.0342  102.0597 C   0  0  0  0  0  0  0  0  0  0  0  0
  -58.3049  -35.2655  103.5280 C   0  0  0  0  0  0  0  0  0  0  0  0
  -57.2582  -35.7132  103.9813 O   0  0  0  0  0  0  0  0  0  0  0  0
  -59.3430  -34.9199  104.3459 N   0  0  0  0  0  0  0  0  0  0  0  0
  -54.8174  -35.8308  102.8288 N   0  0  0  0  0  0  0  0  0  0  0  0
  -53.7397  -36.4827  102.0707 C   0  0  2  0  0  0  0  0  0  0  0  0
  -52.4042  -36.1684  102.8037 C   0  0  0  0  0  0  0  0  0  0  0  0
  -52.3558  -35.3934  103.7621 O   0  0  0  0  0  0  0  0  0  0  0  0
  -53.6753  -36.0746  100.5907 C   0  0  0  0  0  0  0  0  0  0  0  0
  -52.5765  -36.7029   99.7068 C   0  0  1  0  0  0  0  0  0  0  0  0
  -52.7894  -36.5001   98.2083 C   0  0  0  0  0  0  0  0  0  0  0  0
  -51.2149  -36.1169  100.1084 C   0  0  0  0  0  0  0  0  0  0  0  0
  -51.2402  -36.7408  102.3509 N   0  0  0  0  0  0  0  0  0  0  0  0
  -51.0477  -38.1933  102.4008 C   0  0  2  0  0  0  0  0  0  0  0  0
  -50.3160  -38.4793  103.7357 C   0  0  0  0  0  0  0  0  0  0  0  0
  -49.3825  -37.7745  104.1249 O   0  0  0  0  0  0  0  0  0  0  0  0
  -50.1018  -38.6953  101.2905 C   0  0  0  0  0  0  0  0  0  0  0  0
  -49.9734  -40.2210  101.1606 C   0  0  1  0  0  0  0  0  0  0  0  0
  -49.9011  -40.8528  102.5550 C   0  0  0  0  0  0  0  0  0  0  0  0
  -51.1297  -40.8368  100.3749 C   0  0  0  0  0  0  0  0  0  0  0  0
  -51.5362  -40.9048  106.2788 C   0  0  0  0  0  0  0  0  0  0  0  0
  -50.6331  -39.6118  104.4364 N   0  0  0  0  0  0  0  0  0  0  0  0
  -52.4345  -41.4289  106.9453 O   0  0  0  0  0  0  0  0  0  0  0  0
  -51.8155  -39.6932  105.3315 C   0  0  1  0  0  0  0  0  0  0  0  0
  -53.1334  -39.8830  104.5535 C   0  0  0  0  0  0  0  0  0  0  0  0
  -53.4014  -42.4242  104.2334 C   0  0  0  0  0  0  0  0  0  0  0  0
  -54.2234  -43.3349  103.3667 C   0  0  0  0  0  0  0  0  0  0  0  0
  -53.1811  -41.0632  103.5639 C   0  0  0  0  0  0  0  0  0  0  0  0
  -51.9191  -38.4336  106.2144 C   0  0  0  0  0  0  0  0  0  0  0  0
  -50.2394  -41.3568  106.3570 N   0  0  0  0  0  0  0  0  0  0  0  0
  -49.1198  -40.4533  106.1423 C   0  0  2  0  0  0  0  0  0  0  0  0
  -47.8175  -41.2723  106.0536 C   0  0  0  0  0  0  0  0  0  0  0  0
  -46.7146  -40.7541  105.8851 O   0  0  0  0  0  0  0  0  0  0  0  0
  -49.0420  -39.3030  107.1564 C   0  0  0  0  0  0  0  0  0  0  0  0
  -47.9100  -38.2676  106.9655 C   0  0  1  0  0  0  0  0  0  0  0  0
  -46.5835  -39.0105  106.7575 C   0  0  0  0  0  0  0  0  0  0  0  0
  -48.1460  -37.3168  105.7918 C   0  0  0  0  0  0  0  0  0  0  0  0
  -47.9759  -42.6409  106.1709 N   0  0  0  0  0  0  0  0  0  0  0  0
  -48.3026  -43.2305  107.4712 C   0  0  2  0  0  0  0  0  0  0  0  0
  -47.5240  -44.5455  107.7140 C   0  0  0  0  0  0  0  0  0  0  0  0
  -47.4847  -45.0954  108.8170 O   0  0  0  0  0  0  0  0  0  0  0  0
  -49.8249  -43.4389  107.6070 C   0  0  0  0  0  0  0  0  0  0  0  0
  -50.2568  -43.9614  108.9907 C   0  0  0  0  0  0  0  0  0  0  0  0
  -50.8377  -45.3844  108.9374 C   0  0  0  0  0  0  0  0  0  0  0  0
  -52.1636  -45.5101  108.1916 C   0  0  0  0  0  0  0  0  0  0  0  0
  -52.5707  -46.9289  108.0731 N   0  0  0  0  0  4  0  0  0  0  0  0
  -47.0002  -45.1569  106.6173 N   0  0  0  0  0  0  0  0  0  0  0  0
  -59.9857  -56.7878  100.5639 H   0  0  0  0  0  0  0  0  0  0  0  0
  -57.3802  -39.2349   98.5773 H   0  0  0  0  0  0  0  0  0  0  0  0
  1  2  2  0
  1  3  1  0
  4  1  1  0
  5  4  1  0
  6  5  1  0
  5  8  1  1
  6  7  2  0
 15  6  1  0
  8  9  1  0
  9 10  1  0
 10 11  1  0
 11 12  1  0
 12 13  2  0
 12 14  1  0
 16 15  1  1
 17 16  1  0
 16 19  1  0
 17 18  2  0
 23 17  1  0
 19 20  1  0
 19 21  1  6
 20 22  1  0
 24 23  1  6
 25 24  1  0
 24 27  1  0
 25 26  2  0
 31 25  1  0
 27 28  1  0
 27 29  1  6
 28 30  1  0
 32 31  1  0
 33 32  1  0
 32 35  1  1
 33 34  2  0
 43 33  1  0
 35 36  1  0
 36 37  2  0
 36 38  1  0
 37 39  1  0
 38 40  2  0
 39 41  2  0
 40 41  1  0
 41 42  1  0
 44 43  1  0
 45 44  1  0
 44 47  1  1
 45 46  2  0
 49 45  1  0
 47 48  1  0
 50 49  1  0
 51 50  1  0
 50 53  1  6
 51 52  2  0
 61 51  1  0
 53 54  1  0
 54 55  1  0
 55 56  1  0
 56 57  1  0
 57 58  2  0
 57 59  1  0
 60 62  2  0
 60 63  1  0
 69 60  1  0
 63 61  1  0
 63 64  1  0
 63 68  1  1
 64 67  1  0
 65 66  1  0
 67 65  1  0
 66100  2  0
 70 69  1  0
 71 70  1  0
 70 73  1  1
 71 72  2  0
 78 71  1  0
 73 74  1  0
 74 75  1  0
 75 76  2  0
 75 77  1  0
 79 78  1  0
 80 79  1  0
 79 82  1  6
 80 81  2  0
 86 80  1  0
 82 83  1  0
 83 84  1  6
 83 85  1  0
 87 86  1  0
 88 87  1  0
 87 90  1  6
 88 89  2  0
 95 88  1  0
 90 91  1  0
 91 92  1  1
 91 93  1  0
 94 96  2  0
 97 94  1  0
 94103  1  0
 95 97  1  0
 97 98  1  0
 97102  1  1
 98101  1  0
100 99  1  0
 99101  1  0
103104  1  0
104105  1  0
104107  1  1
105106  2  0
105111  1  0
107108  1  0
108109  1  6
108110  1  0
111112  1  0
112113  1  0
112115  1  6
113114  2  0
113120  1  0
115116  1  0
116117  1  0
117118  1  0
118119  1  0
 13121  1  0
 58122  1  0
M  CHG  1 119   1
M  END
$$$$
