
     RDKit          3D

122123  0  0  0  0  0  0  0  0999 V2000
  -59.4836  -56.0309   95.8725 C   0  0  0  0  0  0  0  0  0  0  0  0
  -60.4859  -56.6628   95.5516 O   0  0  0  0  0  0  0  0  0  0  0  0
  -58.0956  -56.5401   95.5930 C   0  0  0  0  0  0  0  0  0  0  0  0
  -59.5269  -54.8122   96.5160 N   0  0  0  0  0  0  0  0  0  0  0  0
  -58.3314  -53.9772   96.5483 C   0  0  2  0  0  0  0  0  0  0  0  0
  -58.7656  -52.5696   97.0069 C   0  0  0  0  0  0  0  0  0  0  0  0
  -59.1234  -51.6923   96.2183 O   0  0  0  0  0  0  0  0  0  0  0  0
  -57.6768  -53.9150   95.1624 C   0  0  0  0  0  0  0  0  0  0  0  0
  -56.4569  -52.9886   95.1327 C   0  0  0  0  0  0  0  0  0  0  0  0
  -55.2174  -53.7157   94.6102 C   0  0  0  0  0  0  0  0  0  0  0  0
  -54.0794  -53.4893   95.4885 N   0  0  0  0  0  0  0  0  0  0  0  0
  -52.9543  -52.8882   95.0439 C   0  0  0  0  0  0  0  0  0  0  0  0
  -52.8924  -52.0763   94.0549 N   0  0  0  0  0  0  0  0  0  0  0  0
  -51.8828  -53.2380   95.7844 N   0  0  0  0  0  0  0  0  0  0  0  0
  -58.6436  -52.3589   98.3558 N   0  0  0  0  0  0  0  0  0  0  0  0
  -59.0300  -51.1214   99.0325 C   0  0  2  0  0  0  0  0  0  0  0  0
  -57.7267  -50.3062   99.1554 C   0  0  0  0  0  0  0  0  0  0  0  0
  -56.6528  -50.8448   99.4236 O   0  0  0  0  0  0  0  0  0  0  0  0
  -59.7118  -51.4339  100.3886 C   0  0  2  0  0  0  0  0  0  0  0  0
  -60.9825  -52.2895  100.2076 C   0  0  0  0  0  0  0  0  0  0  0  0
  -60.0039  -50.1658  101.2040 C   0  0  0  0  0  0  0  0  0  0  0  0
  -61.6458  -52.6680  101.5276 C   0  0  0  0  0  0  0  0  0  0  0  0
  -57.8489  -48.9484   98.9398 N   0  0  0  0  0  0  0  0  0  0  0  0
  -56.7867  -48.0389   99.4049 C   0  0  2  0  0  0  0  0  0  0  0  0
  -57.4024  -46.9389  100.2942 C   0  0  0  0  0  0  0  0  0  0  0  0
  -58.3208  -46.2215   99.9061 O   0  0  0  0  0  0  0  0  0  0  0  0
  -55.9547  -47.4404   98.2337 C   0  0  2  0  0  0  0  0  0  0  0  0
  -54.8047  -46.5206   98.6920 C   0  0  0  0  0  0  0  0  0  0  0  0
  -56.8083  -46.7002   97.1947 C   0  0  0  0  0  0  0  0  0  0  0  0
  -53.7336  -46.2988   97.6346 C   0  0  0  0  0  0  0  0  0  0  0  0
  -56.9390  -46.8984  101.5948 N   0  0  0  0  0  0  0  0  0  0  0  0
  -57.5208  -45.9526  102.5514 C   0  0  2  0  0  0  0  0  0  0  0  0
  -56.4729  -44.8781  102.8898 C   0  0  0  0  0  0  0  0  0  0  0  0
  -55.2954  -45.1580  103.1108 O   0  0  0  0  0  0  0  0  0  0  0  0
  -58.0084  -46.6631  103.8328 C   0  0  0  0  0  0  0  0  0  0  0  0
  -59.3382  -46.1434  104.3269 C   0  0  0  0  0  0  0  0  0  0  0  0
  -59.8995  -44.9990  103.7398 C   0  0  0  0  0  0  0  0  0  0  0  0
  -60.0302  -46.7856  105.3639 C   0  0  0  0  0  0  0  0  0  0  0  0
  -61.1323  -44.5125  104.1752 C   0  0  0  0  0  0  0  0  0  0  0  0
  -61.2672  -46.2994  105.7976 C   0  0  0  0  0  0  0  0  0  0  0  0
  -61.8091  -45.1687  105.1948 C   0  0  0  0  0  0  0  0  0  0  0  0
  -63.0186  -44.6672  105.5805 O   0  0  0  0  0  0  0  0  0  0  0  0
  -56.9409  -43.5781  102.9015 N   0  0  0  0  0  0  0  0  0  0  0  0
  -56.3275  -42.6014  103.8048 C   0  0  2  0  0  0  0  0  0  0  0  0
  -57.4082  -41.9343  104.6724 C   0  0  0  0  0  0  0  0  0  0  0  0
  -57.1572  -41.0293  105.4684 O   0  0  0  0  0  0  0  0  0  0  0  0
  -55.5681  -41.5294  103.0157 C   0  0  0  0  0  0  0  0  0  0  0  0
  -55.9098  -40.2313  103.5042 O   0  0  0  0  0  0  0  0  0  0  0  0
  -58.6787  -42.4585  104.4784 N   0  0  0  0  0  0  0  0  0  0  0  0
  -59.8364  -41.5735  104.3094 C   0  0  2  0  0  0  0  0  0  0  0  0
  -60.0779  -40.9801  105.7335 C   0  0  0  0  0  0  0  0  0  0  0  0
  -60.6868  -41.6232  106.5916 O   0  0  0  0  0  0  0  0  0  0  0  0
  -61.0602  -42.3414  103.7898 C   0  0  0  0  0  0  0  0  0  0  0  0
  -61.0424  -42.7223  102.3029 C   0  0  0  0  0  0  0  0  0  0  0  0
  -62.2500  -43.5412  101.8416 C   0  0  0  0  0  0  0  0  0  0  0  0
  -62.1613  -43.8634  100.4323 N   0  0  0  0  0  0  0  0  0  0  0  0
  -63.2283  -44.2930   99.7257 C   0  0  0  0  0  0  0  0  0  0  0  0
  -63.7477  -45.4611   99.8120 N   0  0  0  0  0  0  0  0  0  0  0  0
  -63.6858  -43.3435   98.8894 N   0  0  0  0  0  0  0  0  0  0  0  0
  -57.4561  -40.3021  104.8580 C   0  0  0  0  0  0  0  0  0  0  0  0
  -59.5854  -39.7219  106.0059 N   0  0  0  0  0  0  0  0  0  0  0  0
  -56.2931  -40.6890  104.9084 O   0  0  0  0  0  0  0  0  0  0  0  0
  -58.1255  -39.4088  105.9527 C   0  0  1  0  0  0  0  0  0  0  0  0
  -57.4771  -39.6144  107.3535 C   0  0  0  0  0  0  0  0  0  0  0  0
  -55.5093  -39.2630  108.9559 C   0  0  0  0  0  0  0  0  0  0  0  0
  -55.1379  -40.7073  109.1636 C   0  0  0  0  0  0  0  0  0  0  0  0
  -56.1195  -38.9323  107.5855 C   0  0  0  0  0  0  0  0  0  0  0  0
  -57.9932  -37.9471  105.4790 C   0  0  0  0  0  0  0  0  0  0  0  0
  -58.2258  -40.4618  103.7216 N   0  0  0  0  0  0  0  0  0  0  0  0
  -57.7377  -41.1946  102.5616 C   0  0  2  0  0  0  0  0  0  0  0  0
  -56.6667  -40.3204  101.8649 C   0  0  0  0  0  0  0  0  0  0  0  0
  -56.7915  -39.0914  101.7793 O   0  0  0  0  0  0  0  0  0  0  0  0
  -58.8675  -41.4190  101.5381 C   0  0  0  0  0  0  0  0  0  0  0  0
  -58.5173  -42.3226  100.3524 C   0  0  0  0  0  0  0  0  0  0  0  0
  -57.4220  -41.7622   99.4755 C   0  0  0  0  0  0  0  0  0  0  0  0
  -57.2490  -40.5695   99.2540 O   0  0  0  0  0  0  0  0  0  0  0  0
  -56.6023  -42.7115   98.9343 N   0  0  0  0  0  0  0  0  0  0  0  0
  -55.6086  -40.9114  101.2314 N   0  0  0  0  0  0  0  0  0  0  0  0
  -54.8391  -42.0736  101.6984 C   0  0  2  0  0  0  0  0  0  0  0  0
  -53.3647  -41.8612  101.2508 C   0  0  0  0  0  0  0  0  0  0  0  0
  -53.0350  -40.9195  100.5256 O   0  0  0  0  0  0  0  0  0  0  0  0
  -55.3828  -43.4257  101.2111 C   0  0  0  0  0  0  0  0  0  0  0  0
  -54.5976  -44.7035  101.5769 C   0  0  1  0  0  0  0  0  0  0  0  0
  -54.0011  -44.6882  102.9826 C   0  0  0  0  0  0  0  0  0  0  0  0
  -55.5250  -45.9193  101.4340 C   0  0  0  0  0  0  0  0  0  0  0  0
  -52.4080  -42.7658  101.6434 N   0  0  0  0  0  0  0  0  0  0  0  0
  -52.0649  -42.9304  103.0592 C   0  0  2  0  0  0  0  0  0  0  0  0
  -50.8565  -41.9956  103.3150 C   0  0  0  0  0  0  0  0  0  0  0  0
  -49.9217  -41.9145  102.5154 O   0  0  0  0  0  0  0  0  0  0  0  0
  -51.5655  -44.3547  103.3772 C   0  0  0  0  0  0  0  0  0  0  0  0
  -52.2184  -45.4880  102.5709 C   0  0  1  0  0  0  0  0  0  0  0  0
  -53.2596  -44.9034  101.6100 C   0  0  0  0  0  0  0  0  0  0  0  0
  -51.1954  -46.3072  101.7862 C   0  0  0  0  0  0  0  0  0  0  0  0
  -50.7680  -39.4266  106.0040 C   0  0  0  0  0  0  0  0  0  0  0  0
  -50.7675  -41.3394  104.5130 N   0  0  0  0  0  0  0  0  0  0  0  0
  -51.3643  -38.7216  106.8245 O   0  0  0  0  0  0  0  0  0  0  0  0
  -51.5070  -40.0821  104.7925 C   0  0  1  0  0  0  0  0  0  0  0  0
  -52.9950  -40.3306  105.1124 C   0  0  0  0  0  0  0  0  0  0  0  0
  -53.1055  -40.7706  107.6474 C   0  0  0  0  0  0  0  0  0  0  0  0
  -54.0981  -41.3539  108.6122 C   0  0  0  0  0  0  0  0  0  0  0  0
  -53.2948  -41.3403  106.2372 C   0  0  0  0  0  0  0  0  0  0  0  0
  -51.3949  -39.1073  103.6035 C   0  0  0  0  0  0  0  0  0  0  0  0
  -49.4152  -39.6508  106.1122 N   0  0  0  0  0  0  0  0  0  0  0  0
  -48.7839  -40.7587  105.4122 C   0  0  2  0  0  0  0  0  0  0  0  0
  -48.0679  -40.2230  104.1572 C   0  0  0  0  0  0  0  0  0  0  0  0
  -47.9871  -40.8651  103.1110 O   0  0  0  0  0  0  0  0  0  0  0  0
  -49.7309  -41.9298  105.1136 C   0  0  0  0  0  0  0  0  0  0  0  0
  -49.2079  -43.3546  105.4074 C   0  0  1  0  0  0  0  0  0  0  0  0
  -48.4439  -43.8691  104.1801 C   0  0  0  0  0  0  0  0  0  0  0  0
  -48.3001  -43.4287  106.6353 C   0  0  0  0  0  0  0  0  0  0  0  0
  -47.5128  -38.9637  104.2910 N   0  0  0  0  0  0  0  0  0  0  0  0
  -48.2076  -37.7962  103.7441 C   0  0  2  0  0  0  0  0  0  0  0  0
  -47.8545  -36.5054  104.5210 C   0  0  0  0  0  0  0  0  0  0  0  0
  -48.3065  -35.4017  104.2075 O   0  0  0  0  0  0  0  0  0  0  0  0
  -49.7307  -38.0376  103.7071 C   0  0  0  0  0  0  0  0  0  0  0  0
  -50.5156  -37.1964  104.7318 C   0  0  0  0  0  0  0  0  0  0  0  0
  -52.0275  -37.1709  104.4513 C   0  0  0  0  0  0  0  0  0  0  0  0
  -52.7971  -36.0684  105.1740 C   0  0  0  0  0  0  0  0  0  0  0  0
  -52.7258  -34.7944  104.4224 N   0  0  0  0  0  4  0  0  0  0  0  0
  -47.1350  -36.6585  105.6653 N   0  0  0  0  0  0  0  0  0  0  0  0
  -53.8291  -51.7551   93.8109 H   0  0  0  0  0  0  0  0  0  0  0  0
  -63.0637  -46.1045  100.2137 H   0  0  0  0  0  0  0  0  0  0  0  0
  1  2  2  0
  1  3  1  0
  4  1  1  0
  5  4  1  0
  6  5  1  0
  5  8  1  6
  6  7  2  0
 15  6  1  0
  8  9  1  0
  9 10  1  0
 10 11  1  0
 11 12  1  0
 12 13  2  0
 12 14  1  0
 16 15  1  1
 17 16  1  0
 16 19  1  0
 17 18  2  0
 23 17  1  0
 19 20  1  0
 19 21  1  6
 20 22  1  0
 24 23  1  6
 25 24  1  0
 24 27  1  0
 25 26  2  0
 31 25  1  0
 27 28  1  0
 27 29  1  6
 28 30  1  0
 32 31  1  0
 33 32  1  0
 32 35  1  1
 33 34  2  0
 43 33  1  0
 35 36  1  0
 36 37  2  0
 36 38  1  0
 37 39  1  0
 38 40  2  0
 39 41  2  0
 40 41  1  0
 41 42  1  0
 44 43  1  0
 45 44  1  0
 44 47  1  6
 45 46  2  0
 49 45  1  0
 47 48  1  0
 50 49  1  0
 51 50  1  0
 50 53  1  1
 51 52  2  0
 61 51  1  0
 53 54  1  0
 54 55  1  0
 55 56  1  0
 56 57  1  0
 57 58  2  0
 57 59  1  0
 60 62  2  0
 60 63  1  0
 69 60  1  0
 63 61  1  0
 63 64  1  0
 63 68  1  6
 64 67  1  0
 65 66  1  0
 67 65  1  0
 66100  2  0
 70 69  1  0
 71 70  1  0
 70 73  1  6
 71 72  2  0
 78 71  1  0
 73 74  1  0
 74 75  1  0
 75 76  2  0
 75 77  1  0
 79 78  1  0
 80 79  1  0
 79 82  1  6
 80 81  2  0
 86 80  1  0
 82 83  1  0
 83 84  1  1
 83 85  1  0
 87 86  1  0
 88 87  1  0
 87 90  1  6
 88 89  2  0
 95 88  1  0
 90 91  1  0
 91 92  1  6
 91 93  1  0
 94 96  2  0
 97 94  1  0
 94103  1  0
 95 97  1  0
 97 98  1  0
 97102  1  6
 98101  1  0
100 99  1  0
 99101  1  0
103104  1  0
104105  1  0
104107  1  6
105106  2  0
105111  1  0
107108  1  0
108109  1  6
108110  1  0
111112  1  0
112113  1  0
112115  1  1
113114  2  0
113120  1  0
115116  1  0
116117  1  0
117118  1  0
118119  1  0
 13121  1  0
 58122  1  0
M  CHG  1 119   1
M  END
$$$$
