
     RDKit          3D

122123  0  0  0  0  0  0  0  0999 V2000
  -57.4447  -54.5918  100.0580 C   0  0  0  0  0  0  0  0  0  0  0  0
  -58.4652  -54.6622  100.7366 O   0  0  0  0  0  0  0  0  0  0  0  0
  -57.2396  -55.4433   98.8346 C   0  0  0  0  0  0  0  0  0  0  0  0
  -56.3974  -53.7426  100.3458 N   0  0  0  0  0  0  0  0  0  0  0  0
  -56.6431  -52.5498  101.1487 C   0  0  2  0  0  0  0  0  0  0  0  0
  -56.5295  -51.3314  100.2093 C   0  0  0  0  0  0  0  0  0  0  0  0
  -55.5832  -51.1722   99.4354 O   0  0  0  0  0  0  0  0  0  0  0  0
  -55.6248  -52.4470  102.2913 C   0  0  0  0  0  0  0  0  0  0  0  0
  -55.4712  -51.0139  102.8106 C   0  0  0  0  0  0  0  0  0  0  0  0
  -54.9724  -50.9952  104.2560 C   0  0  0  0  0  0  0  0  0  0  0  0
  -55.6615  -52.0004  105.0512 N   0  0  0  0  0  0  0  0  0  0  0  0
  -56.5213  -51.6542  106.0340 C   0  0  0  0  0  0  0  0  0  0  0  0
  -57.5558  -50.9139  105.8831 N   0  0  0  0  0  0  0  0  0  0  0  0
  -56.1655  -52.1995  107.2150 N   0  0  0  0  0  0  0  0  0  0  0  0
  -57.5301  -50.4081  100.3678 N   0  0  0  0  0  0  0  0  0  0  0  0
  -57.5804  -49.1230   99.6716 C   0  0  2  0  0  0  0  0  0  0  0  0
  -57.0092  -48.0998  100.6740 C   0  0  0  0  0  0  0  0  0  0  0  0
  -57.1180  -48.2591  101.8898 O   0  0  0  0  0  0  0  0  0  0  0  0
  -59.0256  -48.8140   99.2053 C   0  0  2  0  0  0  0  0  0  0  0  0
  -59.6835  -50.0351   98.5304 C   0  0  0  0  0  0  0  0  0  0  0  0
  -59.0983  -47.5719   98.3052 C   0  0  0  0  0  0  0  0  0  0  0  0
  -60.2428  -49.7279   97.1452 C   0  0  0  0  0  0  0  0  0  0  0  0
  -56.3704  -47.0103  100.1169 N   0  0  0  0  0  0  0  0  0  0  0  0
  -56.0078  -45.8645  100.9696 C   0  0  2  0  0  0  0  0  0  0  0  0
  -56.9887  -44.7013  100.7150 C   0  0  0  0  0  0  0  0  0  0  0  0
  -57.9946  -44.8332  100.0225 O   0  0  0  0  0  0  0  0  0  0  0  0
  -54.5263  -45.4253  100.7853 C   0  0  2  0  0  0  0  0  0  0  0  0
  -53.5015  -46.5161  101.1573 C   0  0  0  0  0  0  0  0  0  0  0  0
  -54.1764  -44.1301  101.5310 C   0  0  0  0  0  0  0  0  0  0  0  0
  -53.5458  -47.7383  100.2524 C   0  0  0  0  0  0  0  0  0  0  0  0
  -56.7284  -43.5408  101.4175 N   0  0  0  0  0  0  0  0  0  0  0  0
  -57.5538  -42.3498  101.1974 C   0  0  2  0  0  0  0  0  0  0  0  0
  -56.9934  -41.1923  102.0420 C   0  0  0  0  0  0  0  0  0  0  0  0
  -56.3709  -41.3844  103.0857 O   0  0  0  0  0  0  0  0  0  0  0  0
  -59.0363  -42.6103  101.5425 C   0  0  0  0  0  0  0  0  0  0  0  0
  -59.5171  -43.9704  101.0936 C   0  0  0  0  0  0  0  0  0  0  0  0
  -59.0867  -45.1198  101.7737 C   0  0  0  0  0  0  0  0  0  0  0  0
  -60.3926  -44.1100  100.0069 C   0  0  0  0  0  0  0  0  0  0  0  0
  -59.5305  -46.3826  101.3805 C   0  0  0  0  0  0  0  0  0  0  0  0
  -60.8395  -45.3755   99.6154 C   0  0  0  0  0  0  0  0  0  0  0  0
  -60.4070  -46.5007  100.3101 C   0  0  0  0  0  0  0  0  0  0  0  0
  -60.8272  -47.7535   99.9677 O   0  0  0  0  0  0  0  0  0  0  0  0
  -57.2152  -39.9270  101.5329 N   0  0  0  0  0  0  0  0  0  0  0  0
  -56.3259  -38.8297  101.9218 C   0  0  2  0  0  0  0  0  0  0  0  0
  -56.7046  -37.5487  101.1594 C   0  0  0  0  0  0  0  0  0  0  0  0
  -56.1615  -36.4641  101.3701 O   0  0  0  0  0  0  0  0  0  0  0  0
  -54.8628  -39.1845  101.6352 C   0  0  0  0  0  0  0  0  0  0  0  0
  -54.4071  -38.4773  100.4809 O   0  0  0  0  0  0  0  0  0  0  0  0
  -57.7179  -37.7345  100.2292 N   0  0  0  0  0  0  0  0  0  0  0  0
  -59.0532  -37.1699  100.4532 C   0  0  2  0  0  0  0  0  0  0  0  0
  -59.9600  -37.9033   99.4147 C   0  0  0  0  0  0  0  0  0  0  0  0
  -60.1010  -37.4588   98.2732 O   0  0  0  0  0  0  0  0  0  0  0  0
  -59.0612  -35.6478  100.2521 C   0  0  0  0  0  0  0  0  0  0  0  0
  -59.7727  -34.8232  101.3337 C   0  0  0  0  0  0  0  0  0  0  0  0
  -59.9172  -33.3352  101.0070 C   0  0  0  0  0  0  0  0  0  0  0  0
  -58.6250  -32.6871  100.9171 N   0  0  0  0  0  0  0  0  0  0  0  0
  -58.4378  -31.5549  100.2064 C   0  0  0  0  0  0  0  0  0  0  0  0
  -57.4780  -31.3523   99.3821 N   0  0  0  0  0  0  0  0  0  0  0  0
  -59.3816  -30.6353  100.4782 N   0  0  0  0  0  0  0  0  0  0  0  0
  -58.5067  -39.8282  100.9290 C   0  0  0  0  0  0  0  0  0  0  0  0
  -60.5914  -39.0638   99.8076 N   0  0  0  0  0  0  0  0  0  0  0  0
  -57.7712  -40.7378  101.2987 O   0  0  0  0  0  0  0  0  0  0  0  0
  -60.0673  -39.9213  100.9131 C   0  0  1  0  0  0  0  0  0  0  0  0
  -60.5648  -41.3870  100.7427 C   0  0  0  0  0  0  0  0  0  0  0  0
  -60.9159  -43.7331  101.7103 C   0  0  0  0  0  0  0  0  0  0  0  0
  -60.0206  -44.4928  100.7679 C   0  0  0  0  0  0  0  0  0  0  0  0
  -60.4951  -42.2824  101.9898 C   0  0  0  0  0  0  0  0  0  0  0  0
  -60.5651  -39.3070  102.2371 C   0  0  0  0  0  0  0  0  0  0  0  0
  -58.0213  -38.5594  100.6761 N   0  0  0  0  0  0  0  0  0  0  0  0
  -56.5973  -38.2589  100.7270 C   0  0  2  0  0  0  0  0  0  0  0  0
  -56.1646  -38.2639  102.2133 C   0  0  0  0  0  0  0  0  0  0  0  0
  -56.8977  -37.8088  103.1014 O   0  0  0  0  0  0  0  0  0  0  0  0
  -56.3143  -36.8452  100.1830 C   0  0  0  0  0  0  0  0  0  0  0  0
  -55.8448  -35.8189  101.2180 C   0  0  0  0  0  0  0  0  0  0  0  0
  -55.5935  -36.4166  102.5827 C   0  0  0  0  0  0  0  0  0  0  0  0
  -56.0801  -35.9980  103.6266 O   0  0  0  0  0  0  0  0  0  0  0  0
  -54.7633  -37.5013  102.5707 N   0  0  0  0  0  0  0  0  0  0  0  0
  -54.9070  -38.6764  102.5575 N   0  0  0  0  0  0  0  0  0  0  0  0
  -54.1656  -39.8119  101.9898 C   0  0  2  0  0  0  0  0  0  0  0  0
  -53.3157  -40.4285  103.1374 C   0  0  0  0  0  0  0  0  0  0  0  0
  -53.2475  -39.9017  104.2506 O   0  0  0  0  0  0  0  0  0  0  0  0
  -53.2922  -39.4509  100.7782 C   0  0  0  0  0  0  0  0  0  0  0  0
  -53.7899  -38.3454   99.8224 C   0  0  1  0  0  0  0  0  0  0  0  0
  -54.7217  -37.3278  100.4768 C   0  0  0  0  0  0  0  0  0  0  0  0
  -52.5772  -37.6130   99.2294 C   0  0  0  0  0  0  0  0  0  0  0  0
  -52.5923  -41.5714  102.8962 N   0  0  0  0  0  0  0  0  0  0  0  0
  -53.2655  -42.8334  102.5747 C   0  0  2  0  0  0  0  0  0  0  0  0
  -53.4308  -43.5817  103.9208 C   0  0  0  0  0  0  0  0  0  0  0  0
  -52.5214  -43.6251  104.7519 O   0  0  0  0  0  0  0  0  0  0  0  0
  -52.3953  -43.7508  101.6913 C   0  0  0  0  0  0  0  0  0  0  0  0
  -51.8182  -43.1055  100.4219 C   0  0  1  0  0  0  0  0  0  0  0  0
  -52.9608  -42.5835   99.5438 C   0  0  0  0  0  0  0  0  0  0  0  0
  -50.8492  -41.9675  100.7372 C   0  0  0  0  0  0  0  0  0  0  0  0
  -56.6855  -44.8717  105.1784 C   0  0  0  0  0  0  0  0  0  0  0  0
  -54.5672  -44.3134  104.1378 N   0  0  0  0  0  0  0  0  0  0  0  0
  -57.9167  -44.8116  105.2578 O   0  0  0  0  0  0  0  0  0  0  0  0
  -55.8416  -43.6966  104.5865 C   0  0  1  0  0  0  0  0  0  0  0  0
  -56.5923  -42.9907  103.4393 C   0  0  0  0  0  0  0  0  0  0  0  0
  -58.0465  -44.8035  102.3299 C   0  0  0  0  0  0  0  0  0  0  0  0
  -58.7923  -44.9647  101.0360 C   0  0  0  0  0  0  0  0  0  0  0  0
  -56.8687  -43.8344  102.1798 C   0  0  0  0  0  0  0  0  0  0  0  0
  -55.5890  -42.6915  105.7278 C   0  0  0  0  0  0  0  0  0  0  0  0
  -55.9989  -45.9756  105.6281 N   0  0  0  0  0  0  0  0  0  0  0  0
  -54.7798  -46.4162  104.9681 C   0  0  2  0  0  0  0  0  0  0  0  0
  -53.5917  -45.5867  105.4924 C   0  0  0  0  0  0  0  0  0  0  0  0
  -52.7219  -45.1275  104.7535 O   0  0  0  0  0  0  0  0  0  0  0  0
  -54.8719  -46.4376  103.4356 C   0  0  0  0  0  0  0  0  0  0  0  0
  -53.6822  -45.8430  102.6475 C   0  0  1  0  0  0  0  0  0  0  0  0
  -52.7404  -46.9807  102.2313 C   0  0  0  0  0  0  0  0  0  0  0  0
  -54.1060  -45.0582  101.4057 C   0  0  0  0  0  0  0  0  0  0  0  0
  -53.5668  -45.3979  106.8620 N   0  0  0  0  0  0  0  0  0  0  0  0
  -52.6792  -46.2109  107.6964 C   0  0  2  0  0  0  0  0  0  0  0  0
  -53.4701  -47.0202  108.7518 C   0  0  0  0  0  0  0  0  0  0  0  0
  -52.9238  -47.8174  109.5178 O   0  0  0  0  0  0  0  0  0  0  0  0
  -51.5931  -45.3330  108.3513 C   0  0  0  0  0  0  0  0  0  0  0  0
  -50.3564  -45.1107  107.4596 C   0  0  0  0  0  0  0  0  0  0  0  0
  -50.2190  -43.6559  106.9804 C   0  0  0  0  0  0  0  0  0  0  0  0
  -49.0347  -43.3932  106.0538 C   0  0  0  0  0  0  0  0  0  0  0  0
  -49.0354  -41.9902  105.5801 N   0  0  0  0  0  4  0  0  0  0  0  0
  -54.7850  -46.7061  108.9033 N   0  0  0  0  0  0  0  0  0  0  0  0
  -57.5147  -50.4406  104.9806 H   0  0  0  0  0  0  0  0  0  0  0  0
  -57.0434  -32.2457   99.1456 H   0  0  0  0  0  0  0  0  0  0  0  0
  1  2  2  0
  1  3  1  0
  4  1  1  0
  5  4  1  0
  6  5  1  0
  5  8  1  1
  6  7  2  0
 15  6  1  0
  8  9  1  0
  9 10  1  0
 10 11  1  0
 11 12  1  0
 12 13  2  0
 12 14  1  0
 16 15  1  1
 17 16  1  0
 16 19  1  0
 17 18  2  0
 23 17  1  0
 19 20  1  0
 19 21  1  6
 20 22  1  0
 24 23  1  6
 25 24  1  0
 24 27  1  0
 25 26  2  0
 31 25  1  0
 27 28  1  0
 27 29  1  1
 28 30  1  0
 32 31  1  0
 33 32  1  0
 32 35  1  1
 33 34  2  0
 43 33  1  0
 35 36  1  0
 36 37  2  0
 36 38  1  0
 37 39  1  0
 38 40  2  0
 39 41  2  0
 40 41  1  0
 41 42  1  0
 44 43  1  0
 45 44  1  0
 44 47  1  6
 45 46  2  0
 49 45  1  0
 47 48  1  0
 50 49  1  0
 51 50  1  0
 50 53  1  6
 51 52  2  0
 61 51  1  0
 53 54  1  0
 54 55  1  0
 55 56  1  0
 56 57  1  0
 57 58  2  0
 57 59  1  0
 60 62  2  0
 60 63  1  0
 69 60  1  0
 63 61  1  0
 63 64  1  0
 63 68  1  1
 64 67  1  0
 65 66  1  0
 67 65  1  0
 66100  2  0
 70 69  1  0
 71 70  1  0
 70 73  1  1
 71 72  2  0
 78 71  1  0
 73 74  1  0
 74 75  1  0
 75 76  2  0
 75 77  1  0
 79 78  1  0
 80 79  1  0
 79 82  1  6
 80 81  2  0
 86 80  1  0
 82 83  1  0
 83 84  1  1
 83 85  1  0
 87 86  1  0
 88 87  1  0
 87 90  1  6
 88 89  2  0
 95 88  1  0
 90 91  1  0
 91 92  1  6
 91 93  1  0
 94 96  2  0
 97 94  1  0
 94103  1  0
 95 97  1  0
 97 98  1  0
 97102  1  1
 98101  1  0
100 99  1  0
 99101  1  0
103104  1  0
104105  1  0
104107  1  6
105106  2  0
105111  1  0
107108  1  0
108109  1  6
108110  1  0
111112  1  0
112113  1  0
112115  1  1
113114  2  0
113120  1  0
115116  1  0
116117  1  0
117118  1  0
118119  1  0
 13121  1  0
 58122  1  0
M  CHG  1 119   1
M  END
$$$$
