
     RDKit          3D

122123  0  0  0  0  0  0  0  0999 V2000
  -64.0418  -41.5255  100.1615 C   0  0  0  0  0  0  0  0  0  0  0  0
  -64.8573  -41.3848   99.2548 O   0  0  0  0  0  0  0  0  0  0  0  0
  -64.1750  -42.6127  101.1930 C   0  0  0  0  0  0  0  0  0  0  0  0
  -62.9414  -40.7115  100.3273 N   0  0  0  0  0  0  0  0  0  0  0  0
  -61.6842  -41.0668   99.6784 C   0  0  2  0  0  0  0  0  0  0  0  0
  -60.5410  -40.5485  100.5753 C   0  0  0  0  0  0  0  0  0  0  0  0
  -59.3928  -40.3783  100.1602 O   0  0  0  0  0  0  0  0  0  0  0  0
  -61.6002  -40.4398   98.2809 C   0  0  0  0  0  0  0  0  0  0  0  0
  -60.1642  -40.3844   97.7502 C   0  0  0  0  0  0  0  0  0  0  0  0
  -59.1504  -40.6969   98.8515 C   0  0  0  0  0  0  0  0  0  0  0  0
  -57.8925  -41.1524   98.2790 N   0  0  0  0  0  0  0  0  0  0  0  0
  -56.7358  -40.4916   98.5028 C   0  0  0  0  0  0  0  0  0  0  0  0
  -56.6169  -39.4294   99.2090 N   0  0  0  0  0  0  0  0  0  0  0  0
  -55.6958  -41.0986   97.8953 N   0  0  0  0  0  0  0  0  0  0  0  0
  -60.8967  -40.3699  101.8869 N   0  0  0  0  0  0  0  0  0  0  0  0
  -59.9640  -39.9885  102.9468 C   0  0  2  0  0  0  0  0  0  0  0  0
  -58.6043  -39.8109  102.2413 C   0  0  0  0  0  0  0  0  0  0  0  0
  -58.5085  -39.2181  101.1668 O   0  0  0  0  0  0  0  0  0  0  0  0
  -59.9586  -41.0518  104.0742 C   0  0  2  0  0  0  0  0  0  0  0  0
  -61.2952  -41.0782  104.8437 C   0  0  0  0  0  0  0  0  0  0  0  0
  -58.7675  -40.8874  105.0294 C   0  0  0  0  0  0  0  0  0  0  0  0
  -61.7049  -39.7124  105.3846 C   0  0  0  0  0  0  0  0  0  0  0  0
  -57.5164  -40.3523  102.8962 N   0  0  0  0  0  0  0  0  0  0  0  0
  -56.1657  -40.1734  102.3347 C   0  0  2  0  0  0  0  0  0  0  0  0
  -55.4881  -41.5498  102.1727 C   0  0  0  0  0  0  0  0  0  0  0  0
  -54.2674  -41.6761  102.1193 O   0  0  0  0  0  0  0  0  0  0  0  0
  -55.2941  -39.1922  103.1709 C   0  0  2  0  0  0  0  0  0  0  0  0
  -53.7803  -39.3218  102.9059 C   0  0  0  0  0  0  0  0  0  0  0  0
  -55.5507  -39.2838  104.6816 C   0  0  0  0  0  0  0  0  0  0  0  0
  -53.4407  -39.9046  101.5422 C   0  0  0  0  0  0  0  0  0  0  0  0
  -56.3370  -42.6385  102.2181 N   0  0  0  0  0  0  0  0  0  0  0  0
  -55.8098  -43.9890  102.0026 C   0  0  2  0  0  0  0  0  0  0  0  0
  -56.8747  -45.0137  102.4306 C   0  0  0  0  0  0  0  0  0  0  0  0
  -57.0944  -45.2753  103.6125 O   0  0  0  0  0  0  0  0  0  0  0  0
  -54.4910  -44.2171  102.7728 C   0  0  0  0  0  0  0  0  0  0  0  0
  -54.2030  -45.6775  103.0316 C   0  0  0  0  0  0  0  0  0  0  0  0
  -54.6539  -46.6472  102.1230 C   0  0  0  0  0  0  0  0  0  0  0  0
  -53.4873  -46.0878  104.1657 C   0  0  0  0  0  0  0  0  0  0  0  0
  -54.3863  -47.9991  102.3398 C   0  0  0  0  0  0  0  0  0  0  0  0
  -53.2166  -47.4424  104.3808 C   0  0  0  0  0  0  0  0  0  0  0  0
  -53.6654  -48.3857  103.4618 C   0  0  0  0  0  0  0  0  0  0  0  0
  -53.4138  -49.7170  103.6281 O   0  0  0  0  0  0  0  0  0  0  0  0
  -57.5828  -45.5976  101.3977 N   0  0  0  0  0  0  0  0  0  0  0  0
  -59.0473  -45.5816  101.4311 C   0  0  2  0  0  0  0  0  0  0  0  0
  -59.6028  -45.2426  100.0374 C   0  0  0  0  0  0  0  0  0  0  0  0
  -59.6574  -44.0912   99.6051 O   0  0  0  0  0  0  0  0  0  0  0  0
  -59.5593  -44.5585  102.4509 C   0  0  0  0  0  0  0  0  0  0  0  0
  -59.0160  -43.2694  102.1626 O   0  0  0  0  0  0  0  0  0  0  0  0
  -60.0427  -46.3525   99.3294 N   0  0  0  0  0  0  0  0  0  0  0  0
  -60.8064  -47.4124   99.9968 C   0  0  2  0  0  0  0  0  0  0  0  0
  -60.0567  -48.7271   99.6119 C   0  0  0  0  0  0  0  0  0  0  0  0
  -60.1497  -49.1987   98.4764 O   0  0  0  0  0  0  0  0  0  0  0  0
  -62.2704  -47.4272   99.5343 C   0  0  0  0  0  0  0  0  0  0  0  0
  -63.2515  -46.5807  100.3572 C   0  0  0  0  0  0  0  0  0  0  0  0
  -64.7219  -46.9712  100.1923 C   0  0  0  0  0  0  0  0  0  0  0  0
  -65.0056  -47.3974   98.8374 N   0  0  0  0  0  0  0  0  0  0  0  0
  -65.8817  -46.7414   98.0473 C   0  0  0  0  0  0  0  0  0  0  0  0
  -66.8841  -46.0609   98.4645 N   0  0  0  0  0  0  0  0  0  0  0  0
  -65.5900  -46.8990   96.7434 N   0  0  0  0  0  0  0  0  0  0  0  0
  -58.4687  -47.0731  101.1942 C   0  0  0  0  0  0  0  0  0  0  0  0
  -59.2834  -49.3403  100.5741 N   0  0  0  0  0  0  0  0  0  0  0  0
  -57.5525  -46.3261  101.5218 O   0  0  0  0  0  0  0  0  0  0  0  0
  -58.5762  -48.5679  101.6396 C   0  0  1  0  0  0  0  0  0  0  0  0
  -57.1800  -49.1954  101.9260 C   0  0  0  0  0  0  0  0  0  0  0  0
  -55.1089  -49.4013  103.4198 C   0  0  0  0  0  0  0  0  0  0  0  0
  -54.0846  -48.8888  102.4426 C   0  0  0  0  0  0  0  0  0  0  0  0
  -56.5197  -48.8148  103.2605 C   0  0  0  0  0  0  0  0  0  0  0  0
  -59.4754  -48.5973  102.8922 C   0  0  0  0  0  0  0  0  0  0  0  0
  -59.5990  -46.5991  100.5560 N   0  0  0  0  0  0  0  0  0  0  0  0
  -59.7178  -45.2090  100.1385 C   0  0  2  0  0  0  0  0  0  0  0  0
  -59.9218  -44.3483  101.4090 C   0  0  0  0  0  0  0  0  0  0  0  0
  -60.6183  -44.7445  102.3530 O   0  0  0  0  0  0  0  0  0  0  0  0
  -60.9636  -45.0052   99.2548 C   0  0  0  0  0  0  0  0  0  0  0  0
  -62.2978  -45.4116   99.8870 C   0  0  0  0  0  0  0  0  0  0  0  0
  -62.3139  -46.8372  100.3871 C   0  0  0  0  0  0  0  0  0  0  0  0
  -63.3044  -47.5585  100.4028 O   0  0  0  0  0  0  0  0  0  0  0  0
  -61.1013  -47.2857  100.8282 N   0  0  0  0  0  0  0  0  0  0  0  0
  -59.4187  -43.0778  101.4617 N   0  0  0  0  0  0  0  0  0  0  0  0
  -58.1144  -42.6247  100.9571 C   0  0  2  0  0  0  0  0  0  0  0  0
  -57.6077  -41.5130  101.9198 C   0  0  0  0  0  0  0  0  0  0  0  0
  -58.3110  -41.0743  102.8333 O   0  0  0  0  0  0  0  0  0  0  0  0
  -58.1382  -42.1357   99.5006 C   0  0  0  0  0  0  0  0  0  0  0  0
  -58.2389  -43.1901   98.3776 C   0  0  1  0  0  0  0  0  0  0  0  0
  -57.5224  -44.5025   98.6879 C   0  0  0  0  0  0  0  0  0  0  0  0
  -59.7203  -43.4777   98.0920 C   0  0  0  0  0  0  0  0  0  0  0  0
  -56.3566  -40.9786  101.7275 N   0  0  0  0  0  0  0  0  0  0  0  0
  -55.1549  -41.8046  101.8796 C   0  0  2  0  0  0  0  0  0  0  0  0
  -54.6859  -41.6070  103.3426 C   0  0  0  0  0  0  0  0  0  0  0  0
  -54.6745  -40.4941  103.8728 O   0  0  0  0  0  0  0  0  0  0  0  0
  -53.9905  -41.3092  100.9976 C   0  0  0  0  0  0  0  0  0  0  0  0
  -54.0533  -39.8335  100.5738 C   0  0  1  0  0  0  0  0  0  0  0  0
  -55.3150  -39.5904   99.7383 C   0  0  0  0  0  0  0  0  0  0  0  0
  -54.0364  -38.8839  101.7703 C   0  0  0  0  0  0  0  0  0  0  0  0
  -54.0708  -44.4109  105.7087 C   0  0  0  0  0  0  0  0  0  0  0  0
  -54.1572  -42.6730  104.0193 N   0  0  0  0  0  0  0  0  0  0  0  0
  -54.4828  -45.3148  106.4428 O   0  0  0  0  0  0  0  0  0  0  0  0
  -55.0030  -43.7052  104.6712 C   0  0  1  0  0  0  0  0  0  0  0  0
  -55.5840  -44.7163  103.6621 C   0  0  0  0  0  0  0  0  0  0  0  0
  -53.8054  -46.5616  103.4119 C   0  0  0  0  0  0  0  0  0  0  0  0
  -53.5138  -47.6733  102.4447 C   0  0  0  0  0  0  0  0  0  0  0  0
  -54.5723  -45.4194  102.7367 C   0  0  0  0  0  0  0  0  0  0  0  0
  -56.1542  -43.0491  105.4592 C   0  0  0  0  0  0  0  0  0  0  0  0
  -52.7697  -43.9714  105.7869 N   0  0  0  0  0  0  0  0  0  0  0  0
  -51.9029  -43.9936  104.6189 C   0  0  2  0  0  0  0  0  0  0  0  0
  -50.7871  -42.9456  104.7961 C   0  0  0  0  0  0  0  0  0  0  0  0
  -49.7421  -42.9687  104.1473 O   0  0  0  0  0  0  0  0  0  0  0  0
  -52.6499  -43.8608  103.2841 C   0  0  0  0  0  0  0  0  0  0  0  0
  -51.7993  -43.8776  101.9932 C   0  0  1  0  0  0  0  0  0  0  0  0
  -50.5321  -44.7067  102.2409 C   0  0  0  0  0  0  0  0  0  0  0  0
  -52.5426  -44.4406  100.7816 C   0  0  0  0  0  0  0  0  0  0  0  0
  -51.0405  -41.9735  105.7462 N   0  0  0  0  0  0  0  0  0  0  0  0
  -50.0493  -40.9266  106.0039 C   0  0  2  0  0  0  0  0  0  0  0  0
  -49.2894  -40.5299  104.7157 C   0  0  0  0  0  0  0  0  0  0  0  0
  -48.0603  -40.5823  104.6316 O   0  0  0  0  0  0  0  0  0  0  0  0
  -49.0807  -41.3584  107.1240 C   0  0  0  0  0  0  0  0  0  0  0  0
  -49.7691  -42.1016  108.2849 C   0  0  0  0  0  0  0  0  0  0  0  0
  -48.7884  -42.5138  109.3956 C   0  0  0  0  0  0  0  0  0  0  0  0
  -48.2993  -43.9577  109.3182 C   0  0  0  0  0  0  0  0  0  0  0  0
  -49.3790  -44.9018  109.6869 N   0  0  0  0  0  4  0  0  0  0  0  0
  -50.0467  -40.2583  103.6187 N   0  0  0  0  0  0  0  0  0  0  0  0
  -57.5286  -39.1494   99.5701 H   0  0  0  0  0  0  0  0  0  0  0  0
  -67.1022  -46.3366   99.4234 H   0  0  0  0  0  0  0  0  0  0  0  0
  1  2  2  0
  1  3  1  0
  4  1  1  0
  5  4  1  0
  6  5  1  0
  5  8  1  6
  6  7  2  0
 15  6  1  0
  8  9  1  0
  9 10  1  0
 10 11  1  0
 11 12  1  0
 12 13  2  0
 12 14  1  0
 16 15  1  6
 17 16  1  0
 16 19  1  0
 17 18  2  0
 23 17  1  0
 19 20  1  0
 19 21  1  1
 20 22  1  0
 24 23  1  1
 25 24  1  0
 24 27  1  0
 25 26  2  0
 31 25  1  0
 27 28  1  0
 27 29  1  1
 28 30  1  0
 32 31  1  0
 33 32  1  0
 32 35  1  1
 33 34  2  0
 43 33  1  0
 35 36  1  0
 36 37  2  0
 36 38  1  0
 37 39  1  0
 38 40  2  0
 39 41  2  0
 40 41  1  0
 41 42  1  0
 44 43  1  0
 45 44  1  0
 44 47  1  1
 45 46  2  0
 49 45  1  0
 47 48  1  0
 50 49  1  0
 51 50  1  0
 50 53  1  6
 51 52  2  0
 61 51  1  0
 53 54  1  0
 54 55  1  0
 55 56  1  0
 56 57  1  0
 57 58  2  0
 57 59  1  0
 60 62  2  0
 60 63  1  0
 69 60  1  0
 63 61  1  0
 63 64  1  0
 63 68  1  1
 64 67  1  0
 65 66  1  0
 67 65  1  0
 66100  2  0
 70 69  1  0
 71 70  1  0
 70 73  1  6
 71 72  2  0
 78 71  1  0
 73 74  1  0
 74 75  1  0
 75 76  2  0
 75 77  1  0
 79 78  1  0
 80 79  1  0
 79 82  1  6
 80 81  2  0
 86 80  1  0
 82 83  1  0
 83 84  1  1
 83 85  1  0
 87 86  1  0
 88 87  1  0
 87 90  1  6
 88 89  2  0
 95 88  1  0
 90 91  1  0
 91 92  1  1
 91 93  1  0
 94 96  2  0
 97 94  1  0
 94103  1  0
 95 97  1  0
 97 98  1  0
 97102  1  1
 98101  1  0
100 99  1  0
 99101  1  0
103104  1  0
104105  1  0
104107  1  6
105106  2  0
105111  1  0
107108  1  0
108109  1  1
108110  1  0
111112  1  0
112113  1  0
112115  1  1
113114  2  0
113120  1  0
115116  1  0
116117  1  0
117118  1  0
118119  1  0
 13121  1  0
 58122  1  0
M  CHG  1 119   1
M  END
$$$$
