
     RDKit          3D

122123  0  0  0  0  0  0  0  0999 V2000
  -58.7310  -57.5098   95.5870 C   0  0  0  0  0  0  0  0  0  0  0  0
  -57.5503  -57.4100   95.2663 O   0  0  0  0  0  0  0  0  0  0  0  0
  -59.2711  -58.7360   96.2715 C   0  0  0  0  0  0  0  0  0  0  0  0
  -59.6684  -56.5264   95.3519 N   0  0  0  0  0  0  0  0  0  0  0  0
  -59.3378  -55.4214   94.4591 C   0  0  2  0  0  0  0  0  0  0  0  0
  -58.8607  -54.2467   95.3381 C   0  0  0  0  0  0  0  0  0  0  0  0
  -58.4900  -53.1694   94.8672 O   0  0  0  0  0  0  0  0  0  0  0  0
  -60.5608  -55.0119   93.6286 C   0  0  0  0  0  0  0  0  0  0  0  0
  -60.2616  -53.8435   92.6839 C   0  0  0  0  0  0  0  0  0  0  0  0
  -61.5482  -53.1681   92.2078 C   0  0  0  0  0  0  0  0  0  0  0  0
  -61.6320  -51.8061   92.7136 N   0  0  0  0  0  0  0  0  0  0  0  0
  -62.3960  -50.8735   92.1042 C   0  0  0  0  0  0  0  0  0  0  0  0
  -63.5935  -51.0571   91.6879 N   0  0  0  0  0  0  0  0  0  0  0  0
  -61.7444  -49.6979   91.9936 N   0  0  0  0  0  0  0  0  0  0  0  0
  -58.8124  -54.5343   96.6773 N   0  0  0  0  0  0  0  0  0  0  0  0
  -58.3438  -53.6018   97.7018 C   0  0  2  0  0  0  0  0  0  0  0  0
  -58.3471  -52.2191   97.0189 C   0  0  0  0  0  0  0  0  0  0  0  0
  -57.8439  -52.0477   95.9087 O   0  0  0  0  0  0  0  0  0  0  0  0
  -56.9583  -54.0386   98.2411 C   0  0  2  0  0  0  0  0  0  0  0  0
  -56.5356  -53.2111   99.4725 C   0  0  0  0  0  0  0  0  0  0  0  0
  -55.8730  -54.0175   97.1549 C   0  0  0  0  0  0  0  0  0  0  0  0
  -55.1821  -53.6255  100.0398 C   0  0  0  0  0  0  0  0  0  0  0  0
  -58.9524  -51.2029   97.7305 N   0  0  0  0  0  0  0  0  0  0  0  0
  -58.9224  -49.8271   97.2034 C   0  0  2  0  0  0  0  0  0  0  0  0
  -58.1590  -48.9149   98.1857 C   0  0  0  0  0  0  0  0  0  0  0  0
  -58.0297  -49.1965   99.3744 O   0  0  0  0  0  0  0  0  0  0  0  0
  -60.3426  -49.2765   96.8842 C   0  0  2  0  0  0  0  0  0  0  0  0
  -61.4165  -49.6879   97.9118 C   0  0  0  0  0  0  0  0  0  0  0  0
  -60.8324  -49.6326   95.4737 C   0  0  0  0  0  0  0  0  0  0  0  0
  -62.5819  -48.7149   98.0091 C   0  0  0  0  0  0  0  0  0  0  0  0
  -57.5254  -47.8277   97.6161 N   0  0  0  0  0  0  0  0  0  0  0  0
  -56.8340  -46.8539   98.4657 C   0  0  2  0  0  0  0  0  0  0  0  0
  -57.5993  -45.5200   98.4191 C   0  0  0  0  0  0  0  0  0  0  0  0
  -58.6629  -45.3958   97.8134 O   0  0  0  0  0  0  0  0  0  0  0  0
  -55.3655  -46.6570   98.0304 C   0  0  0  0  0  0  0  0  0  0  0  0
  -54.5881  -45.7586   98.9638 C   0  0  0  0  0  0  0  0  0  0  0  0
  -54.1622  -46.2493  100.2075 C   0  0  0  0  0  0  0  0  0  0  0  0
  -54.2779  -44.4373   98.6107 C   0  0  0  0  0  0  0  0  0  0  0  0
  -53.4328  -45.4375  101.0765 C   0  0  0  0  0  0  0  0  0  0  0  0
  -53.5440  -43.6253   99.4806 C   0  0  0  0  0  0  0  0  0  0  0  0
  -53.1240  -44.1357  100.7048 C   0  0  0  0  0  0  0  0  0  0  0  0
  -52.3967  -43.3805  101.5789 O   0  0  0  0  0  0  0  0  0  0  0  0
  -57.0225  -44.4821   99.1257 N   0  0  0  0  0  0  0  0  0  0  0  0
  -57.6812  -43.1736   99.1469 C   0  0  2  0  0  0  0  0  0  0  0  0
  -57.8222  -42.6778  100.5960 C   0  0  0  0  0  0  0  0  0  0  0  0
  -58.7459  -43.0266  101.3315 O   0  0  0  0  0  0  0  0  0  0  0  0
  -59.0649  -43.2480   98.4924 C   0  0  0  0  0  0  0  0  0  0  0  0
  -59.9758  -43.9312   99.3549 O   0  0  0  0  0  0  0  0  0  0  0  0
  -56.8209  -41.7976  100.9823 N   0  0  0  0  0  0  0  0  0  0  0  0
  -56.9579  -40.9963  102.2034 C   0  0  2  0  0  0  0  0  0  0  0  0
  -58.4555  -41.1692  102.6108 C   0  0  0  0  0  0  0  0  0  0  0  0
  -59.2114  -41.8862  101.9513 O   0  0  0  0  0  0  0  0  0  0  0  0
  -56.5943  -39.5254  101.9547 C   0  0  0  0  0  0  0  0  0  0  0  0
  -55.2445  -39.2652  101.2718 C   0  0  0  0  0  0  0  0  0  0  0  0
  -54.0265  -39.4477  102.1800 C   0  0  0  0  0  0  0  0  0  0  0  0
  -52.7929  -39.1907  101.4658 N   0  0  0  0  0  0  0  0  0  0  0  0
  -51.5827  -39.4198  102.0182 C   0  0  0  0  0  0  0  0  0  0  0  0
  -50.6008  -39.9950  101.4295 N   0  0  0  0  0  0  0  0  0  0  0  0
  -51.5258  -38.9833  103.2896 N   0  0  0  0  0  0  0  0  0  0  0  0
  -56.5089  -40.0847  104.2488 C   0  0  0  0  0  0  0  0  0  0  0  0
  -58.9055  -40.5045  103.7313 N   0  0  0  0  0  0  0  0  0  0  0  0
  -55.5291  -40.2645  104.9648 O   0  0  0  0  0  0  0  0  0  0  0  0
  -57.9751  -39.9964  104.7840 C   0  0  1  0  0  0  0  0  0  0  0  0
  -58.1652  -40.7976  106.1059 C   0  0  0  0  0  0  0  0  0  0  0  0
  -57.7715  -41.0376  108.6260 C   0  0  0  0  0  0  0  0  0  0  0  0
  -56.9633  -42.3075  108.5994 C   0  0  0  0  0  0  0  0  0  0  0  0
  -57.6270  -40.1411  107.3870 C   0  0  0  0  0  0  0  0  0  0  0  0
  -58.2893  -38.4996  104.9816 C   0  0  0  0  0  0  0  0  0  0  0  0
  -56.3810  -39.7463  102.9151 N   0  0  0  0  0  0  0  0  0  0  0  0
  -55.0822  -39.6922  102.2587 C   0  0  2  0  0  0  0  0  0  0  0  0
  -54.3407  -38.4363  102.7776 C   0  0  0  0  0  0  0  0  0  0  0  0
  -54.9403  -37.3743  102.9919 O   0  0  0  0  0  0  0  0  0  0  0  0
  -55.2428  -39.5202  100.7359 C   0  0  0  0  0  0  0  0  0  0  0  0
  -53.9746  -39.1191   99.9772 C   0  0  0  0  0  0  0  0  0  0  0  0
  -53.9756  -39.5619   98.5327 C   0  0  0  0  0  0  0  0  0  0  0  0
  -54.7909  -40.3337   98.0415 O   0  0  0  0  0  0  0  0  0  0  0  0
  -52.9735  -39.0150   97.7825 N   0  0  0  0  0  0  0  0  0  0  0  0
  -52.9792  -38.4503  102.9046 N   0  0  0  0  0  0  0  0  0  0  0  0
  -52.1521  -39.5575  103.4058 C   0  0  2  0  0  0  0  0  0  0  0  0
  -50.9554  -38.9284  104.1750 C   0  0  0  0  0  0  0  0  0  0  0  0
  -50.7593  -37.7107  104.1880 O   0  0  0  0  0  0  0  0  0  0  0  0
  -51.6692  -40.5263  102.3151 C   0  0  0  0  0  0  0  0  0  0  0  0
  -50.2559  -40.3208  101.7291 C   0  0  1  0  0  0  0  0  0  0  0  0
  -49.4779  -39.1709  102.3651 C   0  0  0  0  0  0  0  0  0  0  0  0
  -49.4548  -41.6217  101.8860 C   0  0  0  0  0  0  0  0  0  0  0  0
  -50.0714  -39.7521  104.8290 N   0  0  0  0  0  0  0  0  0  0  0  0
  -50.5064  -40.5717  105.9641 C   0  0  2  0  0  0  0  0  0  0  0  0
  -50.2017  -39.7365  107.2326 C   0  0  0  0  0  0  0  0  0  0  0  0
  -49.1440  -39.1163  107.3592 O   0  0  0  0  0  0  0  0  0  0  0  0
  -49.6744  -41.8629  106.1048 C   0  0  0  0  0  0  0  0  0  0  0  0
  -50.3851  -43.1639  105.7006 C   0  0  1  0  0  0  0  0  0  0  0  0
  -50.1554  -44.2320  106.7754 C   0  0  0  0  0  0  0  0  0  0  0  0
  -51.8841  -42.9643  105.4842 C   0  0  0  0  0  0  0  0  0  0  0  0
  -52.7343  -38.9468  109.8405 C   0  0  0  0  0  0  0  0  0  0  0  0
  -51.0737  -39.7890  108.2866 N   0  0  0  0  0  0  0  0  0  0  0  0
  -52.2494  -38.1278  110.6279 O   0  0  0  0  0  0  0  0  0  0  0  0
  -52.3203  -38.9831  108.3337 C   0  0  1  0  0  0  0  0  0  0  0  0
  -53.4421  -39.5786  107.4591 C   0  0  0  0  0  0  0  0  0  0  0  0
  -54.6734  -41.2760  108.9540 C   0  0  0  0  0  0  0  0  0  0  0  0
  -55.6334  -42.4136  108.7527 C   0  0  0  0  0  0  0  0  0  0  0  0
  -53.7992  -41.0557  107.7145 C   0  0  0  0  0  0  0  0  0  0  0  0
  -52.0473  -37.5301  107.8968 C   0  0  0  0  0  0  0  0  0  0  0  0
  -53.6517  -39.8802  110.2639 N   0  0  0  0  0  0  0  0  0  0  0  0
  -53.3130  -41.2943  110.3051 C   0  0  2  0  0  0  0  0  0  0  0  0
  -52.0694  -41.5431  109.4298 C   0  0  0  0  0  0  0  0  0  0  0  0
  -52.0782  -41.4117  108.2067 O   0  0  0  0  0  0  0  0  0  0  0  0
  -54.4849  -42.2275  109.9685 C   0  0  0  0  0  0  0  0  0  0  0  0
  -54.8024  -43.3557  110.9767 C   0  0  1  0  0  0  0  0  0  0  0  0
  -53.9185  -44.5699  110.6619 C   0  0  0  0  0  0  0  0  0  0  0  0
  -54.5960  -42.9451  112.4348 C   0  0  0  0  0  0  0  0  0  0  0  0
  -50.9356  -41.9333  110.1185 N   0  0  0  0  0  0  0  0  0  0  0  0
  -49.6759  -42.1346  109.3991 C   0  0  2  0  0  0  0  0  0  0  0  0
  -48.6281  -42.8627  110.2745 C   0  0  0  0  0  0  0  0  0  0  0  0
  -48.3140  -44.0402  110.0861 O   0  0  0  0  0  0  0  0  0  0  0  0
  -49.1347  -40.7930  108.8639 C   0  0  0  0  0  0  0  0  0  0  0  0
  -48.6233  -40.8669  107.4123 C   0  0  0  0  0  0  0  0  0  0  0  0
  -49.2014  -39.7573  106.5180 C   0  0  0  0  0  0  0  0  0  0  0  0
  -48.4441  -38.4329  106.5660 C   0  0  0  0  0  0  0  0  0  0  0  0
  -48.8694  -37.5407  105.4632 N   0  0  0  0  0  4  0  0  0  0  0  0
  -47.9513  -42.1023  111.1769 N   0  0  0  0  0  0  0  0  0  0  0  0
  -63.6158  -51.8345   91.0281 H   0  0  0  0  0  0  0  0  0  0  0  0
  -50.2248  -39.3705  100.7142 H   0  0  0  0  0  0  0  0  0  0  0  0
  1  2  2  0
  1  3  1  0
  4  1  1  0
  5  4  1  0
  6  5  1  0
  5  8  1  1
  6  7  2  0
 15  6  1  0
  8  9  1  0
  9 10  1  0
 10 11  1  0
 11 12  1  0
 12 13  2  0
 12 14  1  0
 16 15  1  6
 17 16  1  0
 16 19  1  0
 17 18  2  0
 23 17  1  0
 19 20  1  0
 19 21  1  6
 20 22  1  0
 24 23  1  1
 25 24  1  0
 24 27  1  0
 25 26  2  0
 31 25  1  0
 27 28  1  0
 27 29  1  6
 28 30  1  0
 32 31  1  0
 33 32  1  0
 32 35  1  6
 33 34  2  0
 43 33  1  0
 35 36  1  0
 36 37  2  0
 36 38  1  0
 37 39  1  0
 38 40  2  0
 39 41  2  0
 40 41  1  0
 41 42  1  0
 44 43  1  0
 45 44  1  0
 44 47  1  1
 45 46  2  0
 49 45  1  0
 47 48  1  0
 50 49  1  0
 51 50  1  0
 50 53  1  6
 51 52  2  0
 61 51  1  0
 53 54  1  0
 54 55  1  0
 55 56  1  0
 56 57  1  0
 57 58  2  0
 57 59  1  0
 60 62  2  0
 60 63  1  0
 69 60  1  0
 63 61  1  0
 63 64  1  0
 63 68  1  1
 64 67  1  0
 65 66  1  0
 67 65  1  0
 66100  2  0
 70 69  1  0
 71 70  1  0
 70 73  1  6
 71 72  2  0
 78 71  1  0
 73 74  1  0
 74 75  1  0
 75 76  2  0
 75 77  1  0
 79 78  1  0
 80 79  1  0
 79 82  1  6
 80 81  2  0
 86 80  1  0
 82 83  1  0
 83 84  1  1
 83 85  1  0
 87 86  1  0
 88 87  1  0
 87 90  1  1
 88 89  2  0
 95 88  1  0
 90 91  1  0
 91 92  1  1
 91 93  1  0
 94 96  2  0
 97 94  1  0
 94103  1  0
 95 97  1  0
 97 98  1  0
 97102  1  6
 98101  1  0
100 99  1  0
 99101  1  0
103104  1  0
104105  1  0
104107  1  6
105106  2  0
105111  1  0
107108  1  0
108109  1  6
108110  1  0
111112  1  0
112113  1  0
112115  1  1
113114  2  0
113120  1  0
115116  1  0
116117  1  0
117118  1  0
118119  1  0
 13121  1  0
 58122  1  0
M  CHG  1 119   1
M  END
$$$$
