
     RDKit          3D

122123  0  0  0  0  0  0  0  0999 V2000
  -68.5314  -45.6532   97.0294 C   0  0  0  0  0  0  0  0  0  0  0  0
  -68.8938  -44.9710   97.9835 O   0  0  0  0  0  0  0  0  0  0  0  0
  -69.1780  -45.5394   95.6757 C   0  0  0  0  0  0  0  0  0  0  0  0
  -67.5146  -46.5816   97.1014 N   0  0  0  0  0  0  0  0  0  0  0  0
  -66.2083  -46.2573   96.5395 C   0  0  2  0  0  0  0  0  0  0  0  0
  -65.1575  -47.0808   97.3126 C   0  0  0  0  0  0  0  0  0  0  0  0
  -64.8890  -46.8743   98.4979 O   0  0  0  0  0  0  0  0  0  0  0  0
  -65.9202  -44.7562   96.6703 C   0  0  0  0  0  0  0  0  0  0  0  0
  -64.5425  -44.3750   96.1193 C   0  0  0  0  0  0  0  0  0  0  0  0
  -63.7521  -43.5374   97.1252 C   0  0  0  0  0  0  0  0  0  0  0  0
  -64.6011  -42.5206   97.7280 N   0  0  0  0  0  0  0  0  0  0  0  0
  -64.1173  -41.6465   98.6371 C   0  0  0  0  0  0  0  0  0  0  0  0
  -62.9262  -41.1748   98.6468 N   0  0  0  0  0  0  0  0  0  0  0  0
  -65.0556  -41.3100   99.5455 N   0  0  0  0  0  0  0  0  0  0  0  0
  -64.4976  -48.0057   96.5459 N   0  0  0  0  0  0  0  0  0  0  0  0
  -63.4423  -48.8857   97.0466 C   0  0  2  0  0  0  0  0  0  0  0  0
  -62.1673  -48.0181   97.0589 C   0  0  0  0  0  0  0  0  0  0  0  0
  -61.9294  -47.2097   96.1617 O   0  0  0  0  0  0  0  0  0  0  0  0
  -63.3340  -50.1582   96.1687 C   0  0  2  0  0  0  0  0  0  0  0  0
  -64.7225  -50.7215   95.8023 C   0  0  0  0  0  0  0  0  0  0  0  0
  -62.4445  -51.2358   96.8055 C   0  0  0  0  0  0  0  0  0  0  0  0
  -64.6887  -51.6805   94.6170 C   0  0  0  0  0  0  0  0  0  0  0  0
  -61.3268  -48.2070   98.1374 N   0  0  0  0  0  0  0  0  0  0  0  0
  -60.0605  -47.4570   98.2135 C   0  0  2  0  0  0  0  0  0  0  0  0
  -58.8741  -48.4421   98.1680 C   0  0  0  0  0  0  0  0  0  0  0  0
  -58.9389  -49.5178   97.5786 O   0  0  0  0  0  0  0  0  0  0  0  0
  -59.9914  -46.5221   99.4557 C   0  0  2  0  0  0  0  0  0  0  0  0
  -60.9579  -45.3222   99.3877 C   0  0  0  0  0  0  0  0  0  0  0  0
  -58.5754  -46.0120   99.7575 C   0  0  0  0  0  0  0  0  0  0  0  0
  -61.9475  -45.3920   98.2343 C   0  0  0  0  0  0  0  0  0  0  0  0
  -57.6974  -47.9804   98.7251 N   0  0  0  0  0  0  0  0  0  0  0  0
  -56.6479  -48.9276   99.1115 C   0  0  2  0  0  0  0  0  0  0  0  0
  -55.5619  -48.1741   99.8988 C   0  0  0  0  0  0  0  0  0  0  0  0
  -55.3822  -48.3532  101.1026 O   0  0  0  0  0  0  0  0  0  0  0  0
  -56.0388  -49.6379   97.8831 C   0  0  0  0  0  0  0  0  0  0  0  0
  -55.8356  -51.1195   98.0978 C   0  0  0  0  0  0  0  0  0  0  0  0
  -56.9477  -51.9539   98.2883 C   0  0  0  0  0  0  0  0  0  0  0  0
  -54.5516  -51.6835   98.1078 C   0  0  0  0  0  0  0  0  0  0  0  0
  -56.7792  -53.3260   98.4757 C   0  0  0  0  0  0  0  0  0  0  0  0
  -54.3836  -53.0591   98.2924 C   0  0  0  0  0  0  0  0  0  0  0  0
  -55.5011  -53.8687   98.4701 C   0  0  0  0  0  0  0  0  0  0  0  0
  -55.3824  -55.2175   98.6430 O   0  0  0  0  0  0  0  0  0  0  0  0
  -54.7878  -47.3044   99.1547 N   0  0  0  0  0  0  0  0  0  0  0  0
  -54.0957  -46.2025   99.8278 C   0  0  2  0  0  0  0  0  0  0  0  0
  -54.9463  -45.6829  100.9993 C   0  0  0  0  0  0  0  0  0  0  0  0
  -54.5236  -44.8652  101.8169 O   0  0  0  0  0  0  0  0  0  0  0  0
  -53.8132  -45.0566   98.8503 C   0  0  0  0  0  0  0  0  0  0  0  0
  -54.6374  -45.1903   97.6914 O   0  0  0  0  0  0  0  0  0  0  0  0
  -56.2200  -46.2324  101.0481 N   0  0  0  0  0  0  0  0  0  0  0  0
  -57.1647  -45.8415  102.1001 C   0  0  2  0  0  0  0  0  0  0  0  0
  -56.4694  -44.6392  102.8140 C   0  0  0  0  0  0  0  0  0  0  0  0
  -55.2483  -44.4827  102.7442 O   0  0  0  0  0  0  0  0  0  0  0  0
  -57.4432  -47.0024  103.0656 C   0  0  0  0  0  0  0  0  0  0  0  0
  -58.8054  -47.6949  102.9208 C   0  0  0  0  0  0  0  0  0  0  0  0
  -58.8764  -49.0940  103.5365 C   0  0  0  0  0  0  0  0  0  0  0  0
  -57.5862  -49.7513  103.5024 N   0  0  0  0  0  0  0  0  0  0  0  0
  -57.4054  -51.0024  103.9760 C   0  0  0  0  0  0  0  0  0  0  0  0
  -58.0873  -51.5395  104.9185 N   0  0  0  0  0  0  0  0  0  0  0  0
  -56.3959  -51.6311  103.3469 N   0  0  0  0  0  0  0  0  0  0  0  0
  -55.1327  -42.6053  104.1027 C   0  0  0  0  0  0  0  0  0  0  0  0
  -57.2594  -43.7552  103.5171 N   0  0  0  0  0  0  0  0  0  0  0  0
  -54.3652  -42.1567  104.9481 O   0  0  0  0  0  0  0  0  0  0  0  0
  -56.6901  -42.5761  104.2366 C   0  0  1  0  0  0  0  0  0  0  0  0
  -57.1501  -42.5769  105.7244 C   0  0  0  0  0  0  0  0  0  0  0  0
  -57.4169  -41.3553  107.9605 C   0  0  0  0  0  0  0  0  0  0  0  0
  -56.5195  -42.2306  108.7944 C   0  0  0  0  0  0  0  0  0  0  0  0
  -57.0311  -41.2427  106.4778 C   0  0  0  0  0  0  0  0  0  0  0  0
  -57.1787  -41.3148  103.4959 C   0  0  0  0  0  0  0  0  0  0  0  0
  -54.6877  -43.0037  102.8566 N   0  0  0  0  0  0  0  0  0  0  0  0
  -53.2719  -43.0175  102.5162 C   0  0  2  0  0  0  0  0  0  0  0  0
  -52.8101  -41.5493  102.3498 C   0  0  0  0  0  0  0  0  0  0  0  0
  -53.5380  -40.6990  101.8203 O   0  0  0  0  0  0  0  0  0  0  0  0
  -53.0389  -43.7163  101.1628 C   0  0  0  0  0  0  0  0  0  0  0  0
  -51.8999  -43.1482  100.3114 C   0  0  0  0  0  0  0  0  0  0  0  0
  -51.8362  -41.6388  100.3266 C   0  0  0  0  0  0  0  0  0  0  0  0
  -52.7748  -40.8994  100.0546 O   0  0  0  0  0  0  0  0  0  0  0  0
  -50.6178  -41.1370  100.6865 N   0  0  0  0  0  0  0  0  0  0  0  0
  -51.5351  -41.1911  102.6906 N   0  0  0  0  0  0  0  0  0  0  0  0
  -50.7738  -41.6502  103.8615 C   0  0  2  0  0  0  0  0  0  0  0  0
  -49.8848  -40.4624  104.3288 C   0  0  0  0  0  0  0  0  0  0  0  0
  -49.8094  -39.4140  103.6834 O   0  0  0  0  0  0  0  0  0  0  0  0
  -49.9347  -42.9128  103.6112 C   0  0  0  0  0  0  0  0  0  0  0  0
  -50.0810  -44.0939  104.5945 C   0  0  1  0  0  0  0  0  0  0  0  0
  -49.5291  -45.4166  104.0674 C   0  0  0  0  0  0  0  0  0  0  0  0
  -49.3744  -43.7397  105.9113 C   0  0  0  0  0  0  0  0  0  0  0  0
  -49.1348  -40.5957  105.4722 N   0  0  0  0  0  0  0  0  0  0  0  0
  -49.7790  -40.7646  106.7783 C   0  0  2  0  0  0  0  0  0  0  0  0
  -49.8970  -39.3426  107.3809 C   0  0  0  0  0  0  0  0  0  0  0  0
  -48.9706  -38.5323  107.3112 O   0  0  0  0  0  0  0  0  0  0  0  0
  -48.9012  -41.5637  107.7632 C   0  0  0  0  0  0  0  0  0  0  0  0
  -47.7999  -42.4272  107.1286 C   0  0  1  0  0  0  0  0  0  0  0  0
  -48.4370  -43.5373  106.2855 C   0  0  0  0  0  0  0  0  0  0  0  0
  -46.8442  -41.6073  106.2640 C   0  0  0  0  0  0  0  0  0  0  0  0
  -53.0894  -37.8809  108.6100 C   0  0  0  0  0  0  0  0  0  0  0  0
  -51.0082  -39.0228  108.1136 N   0  0  0  0  0  0  0  0  0  0  0  0
  -54.1969  -38.2791  108.9853 O   0  0  0  0  0  0  0  0  0  0  0  0
  -52.2902  -38.6144  107.4846 C   0  0  1  0  0  0  0  0  0  0  0  0
  -53.0825  -39.8137  106.9260 C   0  0  0  0  0  0  0  0  0  0  0  0
  -54.5074  -40.6890  108.8844 C   0  0  0  0  0  0  0  0  0  0  0  0
  -55.2736  -41.9410  109.2032 C   0  0  0  0  0  0  0  0  0  0  0  0
  -53.3601  -40.9687  107.9074 C   0  0  0  0  0  0  0  0  0  0  0  0
  -52.0432  -37.5935  106.3561 C   0  0  0  0  0  0  0  0  0  0  0  0
  -52.5172  -36.7564  109.1579 N   0  0  0  0  0  0  0  0  0  0  0  0
  -51.0863  -36.6958  109.4129 C   0  0  2  0  0  0  0  0  0  0  0  0
  -50.3909  -35.9894  108.2331 C   0  0  0  0  0  0  0  0  0  0  0  0
  -49.8669  -34.8811  108.3352 O   0  0  0  0  0  0  0  0  0  0  0  0
  -50.4560  -38.0518  109.7614 C   0  0  0  0  0  0  0  0  0  0  0  0
  -49.8416  -38.8655  108.5993 C   0  0  1  0  0  0  0  0  0  0  0  0
  -48.5810  -39.5812  109.1026 C   0  0  0  0  0  0  0  0  0  0  0  0
  -50.8020  -39.8941  108.0019 C   0  0  0  0  0  0  0  0  0  0  0  0
  -50.4019  -36.6898  107.0409 N   0  0  0  0  0  0  0  0  0  0  0  0
  -49.3157  -36.5074  106.0755 C   0  0  2  0  0  0  0  0  0  0  0  0
  -49.8462  -36.4483  104.6231 C   0  0  0  0  0  0  0  0  0  0  0  0
  -49.3448  -35.7167  103.7663 O   0  0  0  0  0  0  0  0  0  0  0  0
  -48.2470  -37.6067  106.2450 C   0  0  0  0  0  0  0  0  0  0  0  0
  -47.6918  -38.1409  104.9107 C   0  0  0  0  0  0  0  0  0  0  0  0
  -46.4801  -37.3405  104.4045 C   0  0  0  0  0  0  0  0  0  0  0  0
  -45.5778  -36.7783  105.4998 C   0  0  0  0  0  0  0  0  0  0  0  0
  -44.4906  -35.9575  104.9193 N   0  0  0  0  0  4  0  0  0  0  0  0
  -50.8041  -37.3533  104.2851 N   0  0  0  0  0  0  0  0  0  0  0  0
  -62.4163  -41.5041   97.8273 H   0  0  0  0  0  0  0  0  0  0  0  0
  -58.9844  -51.8557  104.5466 H   0  0  0  0  0  0  0  0  0  0  0  0
  1  2  2  0
  1  3  1  0
  4  1  1  0
  5  4  1  0
  6  5  1  0
  5  8  1  1
  6  7  2  0
 15  6  1  0
  8  9  1  0
  9 10  1  0
 10 11  1  0
 11 12  1  0
 12 13  2  0
 12 14  1  0
 16 15  1  6
 17 16  1  0
 16 19  1  0
 17 18  2  0
 23 17  1  0
 19 20  1  0
 19 21  1  1
 20 22  1  0
 24 23  1  1
 25 24  1  0
 24 27  1  0
 25 26  2  0
 31 25  1  0
 27 28  1  0
 27 29  1  6
 28 30  1  0
 32 31  1  0
 33 32  1  0
 32 35  1  6
 33 34  2  0
 43 33  1  0
 35 36  1  0
 36 37  2  0
 36 38  1  0
 37 39  1  0
 38 40  2  0
 39 41  2  0
 40 41  1  0
 41 42  1  0
 44 43  1  0
 45 44  1  0
 44 47  1  6
 45 46  2  0
 49 45  1  0
 47 48  1  0
 50 49  1  0
 51 50  1  0
 50 53  1  1
 51 52  2  0
 61 51  1  0
 53 54  1  0
 54 55  1  0
 55 56  1  0
 56 57  1  0
 57 58  2  0
 57 59  1  0
 60 62  2  0
 60 63  1  0
 69 60  1  0
 63 61  1  0
 63 64  1  0
 63 68  1  6
 64 67  1  0
 65 66  1  0
 67 65  1  0
 66100  2  0
 70 69  1  0
 71 70  1  0
 70 73  1  6
 71 72  2  0
 78 71  1  0
 73 74  1  0
 74 75  1  0
 75 76  2  0
 75 77  1  0
 79 78  1  0
 80 79  1  0
 79 82  1  6
 80 81  2  0
 86 80  1  0
 82 83  1  0
 83 84  1  6
 83 85  1  0
 87 86  1  0
 88 87  1  0
 87 90  1  1
 88 89  2  0
 95 88  1  0
 90 91  1  0
 91 92  1  6
 91 93  1  0
 94 96  2  0
 97 94  1  0
 94103  1  0
 95 97  1  0
 97 98  1  0
 97102  1  6
 98101  1  0
100 99  1  0
 99101  1  0
103104  1  0
104105  1  0
104107  1  6
105106  2  0
105111  1  0
107108  1  0
108109  1  1
108110  1  0
111112  1  0
112113  1  0
112115  1  6
113114  2  0
113120  1  0
115116  1  0
116117  1  0
117118  1  0
118119  1  0
 13121  1  0
 58122  1  0
M  CHG  1 119   1
M  END
$$$$
