
     RDKit          3D

122123  0  0  0  0  0  0  0  0999 V2000
  -68.8100  -49.7495   95.2978 C   0  0  0  0  0  0  0  0  0  0  0  0
  -68.9219  -49.1606   94.2267 O   0  0  0  0  0  0  0  0  0  0  0  0
  -68.6314  -51.2416   95.3733 C   0  0  0  0  0  0  0  0  0  0  0  0
  -68.8410  -49.1147   96.5214 N   0  0  0  0  0  0  0  0  0  0  0  0
  -67.5865  -48.7899   97.1910 C   0  0  2  0  0  0  0  0  0  0  0  0
  -66.5352  -48.5225   96.0941 C   0  0  0  0  0  0  0  0  0  0  0  0
  -66.3350  -49.3001   95.1588 O   0  0  0  0  0  0  0  0  0  0  0  0
  -67.1405  -49.9458   98.0956 C   0  0  0  0  0  0  0  0  0  0  0  0
  -67.4536  -49.6868   99.5727 C   0  0  0  0  0  0  0  0  0  0  0  0
  -67.9331  -48.2523   99.7977 C   0  0  0  0  0  0  0  0  0  0  0  0
  -67.5642  -47.7889  101.1269 N   0  0  0  0  0  0  0  0  0  0  0  0
  -67.7917  -46.5161  101.5182 C   0  0  0  0  0  0  0  0  0  0  0  0
  -67.1238  -45.8881  102.4130 N   0  0  0  0  0  0  0  0  0  0  0  0
  -68.8162  -45.9660  100.8351 N   0  0  0  0  0  0  0  0  0  0  0  0
  -65.7940  -47.3872   96.2951 N   0  0  0  0  0  0  0  0  0  0  0  0
  -64.4219  -47.2071   95.8223 C   0  0  2  0  0  0  0  0  0  0  0  0
  -63.5309  -47.5490   97.0337 C   0  0  0  0  0  0  0  0  0  0  0  0
  -63.6682  -46.9788   98.1159 O   0  0  0  0  0  0  0  0  0  0  0  0
  -64.2205  -45.7721   95.2730 C   0  0  2  0  0  0  0  0  0  0  0  0
  -62.9625  -45.6691   94.3863 C   0  0  0  0  0  0  0  0  0  0  0  0
  -64.2072  -44.7145   96.3863 C   0  0  0  0  0  0  0  0  0  0  0  0
  -62.7118  -44.2600   93.8595 C   0  0  0  0  0  0  0  0  0  0  0  0
  -62.5851  -48.5317   96.8211 N   0  0  0  0  0  0  0  0  0  0  0  0
  -61.4946  -48.7155   97.7951 C   0  0  2  0  0  0  0  0  0  0  0  0
  -60.4479  -47.5966   97.6146 C   0  0  0  0  0  0  0  0  0  0  0  0
  -60.1791  -47.1234   96.5134 O   0  0  0  0  0  0  0  0  0  0  0  0
  -60.8515  -50.1304   97.7148 C   0  0  2  0  0  0  0  0  0  0  0  0
  -61.8374  -51.2809   98.0024 C   0  0  0  0  0  0  0  0  0  0  0  0
  -59.6153  -50.2905   98.6107 C   0  0  0  0  0  0  0  0  0  0  0  0
  -63.0884  -51.2519   97.1371 C   0  0  0  0  0  0  0  0  0  0  0  0
  -59.9266  -47.0772   98.7835 N   0  0  0  0  0  0  0  0  0  0  0  0
  -58.7698  -46.1786   98.7348 C   0  0  2  0  0  0  0  0  0  0  0  0
  -57.6213  -46.8003   99.5481 C   0  0  0  0  0  0  0  0  0  0  0  0
  -57.4270  -48.0146   99.5847 O   0  0  0  0  0  0  0  0  0  0  0  0
  -59.1168  -44.7711   99.2668 C   0  0  0  0  0  0  0  0  0  0  0  0
  -59.6894  -44.7926  100.6648 C   0  0  0  0  0  0  0  0  0  0  0  0
  -58.8367  -44.6377  101.7684 C   0  0  0  0  0  0  0  0  0  0  0  0
  -61.0641  -44.9617  100.8851 C   0  0  0  0  0  0  0  0  0  0  0  0
  -59.3499  -44.6427  103.0656 C   0  0  0  0  0  0  0  0  0  0  0  0
  -61.5782  -44.9633  102.1852 C   0  0  0  0  0  0  0  0  0  0  0  0
  -60.7153  -44.7988  103.2640 C   0  0  0  0  0  0  0  0  0  0  0  0
  -61.1768  -44.7838  104.5486 O   0  0  0  0  0  0  0  0  0  0  0  0
  -56.8102  -45.8991  100.2108 N   0  0  0  0  0  0  0  0  0  0  0  0
  -56.0268  -46.3500  101.3638 C   0  0  2  0  0  0  0  0  0  0  0  0
  -55.6965  -45.1565  102.2760 C   0  0  0  0  0  0  0  0  0  0  0  0
  -55.0845  -44.1649  101.8787 O   0  0  0  0  0  0  0  0  0  0  0  0
  -54.7278  -47.0254  100.9110 C   0  0  0  0  0  0  0  0  0  0  0  0
  -54.9847  -47.8748   99.7918 O   0  0  0  0  0  0  0  0  0  0  0  0
  -56.1426  -45.3141  103.5809 N   0  0  0  0  0  0  0  0  0  0  0  0
  -56.5613  -44.1537  104.3748 C   0  0  2  0  0  0  0  0  0  0  0  0
  -56.8111  -44.7345  105.8027 C   0  0  0  0  0  0  0  0  0  0  0  0
  -57.9557  -44.8517  106.2463 O   0  0  0  0  0  0  0  0  0  0  0  0
  -57.8207  -43.4977  103.7909 C   0  0  0  0  0  0  0  0  0  0  0  0
  -59.0479  -43.4442  104.7112 C   0  0  0  0  0  0  0  0  0  0  0  0
  -59.8088  -44.7661  104.8344 C   0  0  0  0  0  0  0  0  0  0  0  0
  -61.0147  -44.6092  105.6210 N   0  0  0  0  0  0  0  0  0  0  0  0
  -62.1630  -45.2470  105.3095 C   0  0  0  0  0  0  0  0  0  0  0  0
  -63.0937  -45.5375  106.1408 N   0  0  0  0  0  0  0  0  0  0  0  0
  -62.2157  -45.5666  104.0036 N   0  0  0  0  0  0  0  0  0  0  0  0
  -54.1256  -43.3366  105.8586 C   0  0  0  0  0  0  0  0  0  0  0  0
  -55.7178  -45.1188  106.5489 N   0  0  0  0  0  0  0  0  0  0  0  0
  -52.9874  -42.8796  105.8348 O   0  0  0  0  0  0  0  0  0  0  0  0
  -54.7192  -44.1346  107.0648 C   0  0  1  0  0  0  0  0  0  0  0  0
  -53.6146  -44.8645  107.8847 C   0  0  0  0  0  0  0  0  0  0  0  0
  -51.6548  -44.7727  109.5322 C   0  0  0  0  0  0  0  0  0  0  0  0
  -50.5805  -45.3051  108.6215 C   0  0  0  0  0  0  0  0  0  0  0  0
  -52.7793  -43.9922  108.8351 C   0  0  0  0  0  0  0  0  0  0  0  0
  -55.4904  -43.1213  107.9348 C   0  0  0  0  0  0  0  0  0  0  0  0
  -55.0576  -43.0145  104.8906 N   0  0  0  0  0  0  0  0  0  0  0  0
  -54.7102  -42.2053  103.7307 C   0  0  2  0  0  0  0  0  0  0  0  0
  -54.5197  -40.7459  104.2108 C   0  0  0  0  0  0  0  0  0  0  0  0
  -55.2491  -40.2514  105.0806 O   0  0  0  0  0  0  0  0  0  0  0  0
  -55.8601  -42.1928  102.7051 C   0  0  0  0  0  0  0  0  0  0  0  0
  -56.7403  -40.9397  102.7121 C   0  0  0  0  0  0  0  0  0  0  0  0
  -56.9437  -40.3584  104.0917 C   0  0  0  0  0  0  0  0  0  0  0  0
  -56.1992  -39.5406  104.6195 O   0  0  0  0  0  0  0  0  0  0  0  0
  -58.0609  -40.8177  104.7297 N   0  0  0  0  0  0  0  0  0  0  0  0
  -53.6026  -39.9387  103.5965 N   0  0  0  0  0  0  0  0  0  0  0  0
  -52.2571  -40.3195  103.1427 C   0  0  2  0  0  0  0  0  0  0  0  0
  -51.3342  -39.0842  103.3470 C   0  0  0  0  0  0  0  0  0  0  0  0
  -51.7805  -37.9919  103.7063 O   0  0  0  0  0  0  0  0  0  0  0  0
  -52.2016  -40.8261  101.6931 C   0  0  0  0  0  0  0  0  0  0  0  0
  -53.4087  -41.6207  101.1502 C   0  0  1  0  0  0  0  0  0  0  0  0
  -53.0902  -43.0698  100.7887 C   0  0  0  0  0  0  0  0  0  0  0  0
  -54.5351  -41.5954  102.1939 C   0  0  0  0  0  0  0  0  0  0  0  0
  -49.9903  -39.2011  103.0864 N   0  0  0  0  0  0  0  0  0  0  0  0
  -49.1452  -40.0961  103.8828 C   0  0  2  0  0  0  0  0  0  0  0  0
  -48.5446  -39.2210  105.0110 C   0  0  0  0  0  0  0  0  0  0  0  0
  -48.1118  -38.0883  104.7892 O   0  0  0  0  0  0  0  0  0  0  0  0
  -47.9398  -40.6280  103.0807 C   0  0  0  0  0  0  0  0  0  0  0  0
  -48.2739  -41.5921  101.9318 C   0  0  1  0  0  0  0  0  0  0  0  0
  -49.2672  -40.9266  100.9728 C   0  0  0  0  0  0  0  0  0  0  0  0
  -47.0301  -42.0322  101.1619 C   0  0  0  0  0  0  0  0  0  0  0  0
  -48.7970  -40.0574  108.6270 C   0  0  0  0  0  0  0  0  0  0  0  0
  -48.3790  -39.7656  106.2559 N   0  0  0  0  0  0  0  0  0  0  0  0
  -49.3737  -39.7792  109.6834 O   0  0  0  0  0  0  0  0  0  0  0  0
  -49.4885  -39.8669  107.2381 C   0  0  1  0  0  0  0  0  0  0  0  0
  -50.4488  -41.0325  106.9263 C   0  0  0  0  0  0  0  0  0  0  0  0
  -49.4456  -43.1004  108.0879 C   0  0  0  0  0  0  0  0  0  0  0  0
  -49.6225  -44.5900  108.0098 C   0  0  0  0  0  0  0  0  0  0  0  0
  -49.8072  -42.4237  106.7611 C   0  0  0  0  0  0  0  0  0  0  0  0
  -50.2857  -38.5488  107.2983 C   0  0  0  0  0  0  0  0  0  0  0  0
  -47.5061  -40.5323  108.6276 N   0  0  0  0  0  0  0  0  0  0  0  0
  -46.6236  -40.2966  107.4955 C   0  0  2  0  0  0  0  0  0  0  0  0
  -46.5315  -38.7811  107.2318 C   0  0  0  0  0  0  0  0  0  0  0  0
  -47.1040  -37.9470  107.9318 O   0  0  0  0  0  0  0  0  0  0  0  0
  -46.9850  -41.1068  106.2424 C   0  0  0  0  0  0  0  0  0  0  0  0
  -47.4625  -42.5618  106.4546 C   0  0  1  0  0  0  0  0  0  0  0  0
  -46.7404  -43.1516  107.6733 C   0  0  0  0  0  0  0  0  0  0  0  0
  -48.9733  -42.6837  106.6547 C   0  0  0  0  0  0  0  0  0  0  0  0
  -45.7604  -38.4209  106.1421 N   0  0  0  0  0  0  0  0  0  0  0  0
  -46.3588  -38.3739  104.8062 C   0  0  2  0  0  0  0  0  0  0  0  0
  -47.7280  -37.6531  104.8186 C   0  0  0  0  0  0  0  0  0  0  0  0
  -48.4021  -37.5338  105.8443 O   0  0  0  0  0  0  0  0  0  0  0  0
  -46.4693  -39.7920  104.2094 C   0  0  0  0  0  0  0  0  0  0  0  0
  -45.5074  -40.0448  103.0326 C   0  0  0  0  0  0  0  0  0  0  0  0
  -44.0373  -39.7740  103.3939 C   0  0  0  0  0  0  0  0  0  0  0  0
  -43.0538  -39.9162  102.2352 C   0  0  0  0  0  0  0  0  0  0  0  0
  -41.6676  -39.6497  102.6829 N   0  0  0  0  0  4  0  0  0  0  0  0
  -48.0956  -37.0201  103.6719 N   0  0  0  0  0  0  0  0  0  0  0  0
  -66.1989  -46.3063  102.5122 H   0  0  0  0  0  0  0  0  0  0  0  0
  -63.7961  -44.7962  106.1320 H   0  0  0  0  0  0  0  0  0  0  0  0
  1  2  2  0
  1  3  1  0
  4  1  1  0
  5  4  1  0
  6  5  1  0
  5  8  1  1
  6  7  2  0
 15  6  1  0
  8  9  1  0
  9 10  1  0
 10 11  1  0
 11 12  1  0
 12 13  2  0
 12 14  1  0
 16 15  1  1
 17 16  1  0
 16 19  1  0
 17 18  2  0
 23 17  1  0
 19 20  1  0
 19 21  1  1
 20 22  1  0
 24 23  1  6
 25 24  1  0
 24 27  1  0
 25 26  2  0
 31 25  1  0
 27 28  1  0
 27 29  1  1
 28 30  1  0
 32 31  1  0
 33 32  1  0
 32 35  1  1
 33 34  2  0
 43 33  1  0
 35 36  1  0
 36 37  2  0
 36 38  1  0
 37 39  1  0
 38 40  2  0
 39 41  2  0
 40 41  1  0
 41 42  1  0
 44 43  1  0
 45 44  1  0
 44 47  1  6
 45 46  2  0
 49 45  1  0
 47 48  1  0
 50 49  1  0
 51 50  1  0
 50 53  1  6
 51 52  2  0
 61 51  1  0
 53 54  1  0
 54 55  1  0
 55 56  1  0
 56 57  1  0
 57 58  2  0
 57 59  1  0
 60 62  2  0
 60 63  1  0
 69 60  1  0
 63 61  1  0
 63 64  1  0
 63 68  1  1
 64 67  1  0
 65 66  1  0
 67 65  1  0
 66100  2  0
 70 69  1  0
 71 70  1  0
 70 73  1  6
 71 72  2  0
 78 71  1  0
 73 74  1  0
 74 75  1  0
 75 76  2  0
 75 77  1  0
 79 78  1  0
 80 79  1  0
 79 82  1  6
 80 81  2  0
 86 80  1  0
 82 83  1  0
 83 84  1  1
 83 85  1  0
 87 86  1  0
 88 87  1  0
 87 90  1  6
 88 89  2  0
 95 88  1  0
 90 91  1  0
 91 92  1  6
 91 93  1  0
 94 96  2  0
 97 94  1  0
 94103  1  0
 95 97  1  0
 97 98  1  0
 97102  1  1
 98101  1  0
100 99  1  0
 99101  1  0
103104  1  0
104105  1  0
104107  1  6
105106  2  0
105111  1  0
107108  1  0
108109  1  1
108110  1  0
111112  1  0
112113  1  0
112115  1  1
113114  2  0
113120  1  0
115116  1  0
116117  1  0
117118  1  0
118119  1  0
 13121  1  0
 58122  1  0
M  CHG  1 119   1
M  END
$$$$
