
     RDKit          3D

122123  0  0  0  0  0  0  0  0999 V2000
  -61.1932  -55.3451   98.7691 C   0  0  0  0  0  0  0  0  0  0  0  0
  -60.2723  -55.7965   99.4436 O   0  0  0  0  0  0  0  0  0  0  0  0
  -62.6287  -55.7122   99.0309 C   0  0  0  0  0  0  0  0  0  0  0  0
  -61.0086  -54.4738   97.7166 N   0  0  0  0  0  0  0  0  0  0  0  0
  -59.6909  -53.8890   97.4944 C   0  0  2  0  0  0  0  0  0  0  0  0
  -59.5499  -52.6930   98.4586 C   0  0  0  0  0  0  0  0  0  0  0  0
  -60.3746  -51.7783   98.5114 O   0  0  0  0  0  0  0  0  0  0  0  0
  -59.5411  -53.4291   96.0387 C   0  0  0  0  0  0  0  0  0  0  0  0
  -58.1276  -52.9276   95.7263 C   0  0  0  0  0  0  0  0  0  0  0  0
  -58.1526  -51.7917   94.7031 C   0  0  0  0  0  0  0  0  0  0  0  0
  -59.2453  -51.9730   93.7593 N   0  0  0  0  0  0  0  0  0  0  0  0
  -59.2757  -51.3137   92.5806 C   0  0  0  0  0  0  0  0  0  0  0  0
  -59.2715  -50.0397   92.4469 N   0  0  0  0  0  0  0  0  0  0  0  0
  -59.2980  -52.1688   91.5379 N   0  0  0  0  0  0  0  0  0  0  0  0
  -58.3916  -52.6994   99.1916 N   0  0  0  0  0  0  0  0  0  0  0  0
  -58.0181  -51.6576  100.1474 C   0  0  2  0  0  0  0  0  0  0  0  0
  -56.8481  -50.9034   99.4835 C   0  0  0  0  0  0  0  0  0  0  0  0
  -56.7582  -50.8025   98.2600 O   0  0  0  0  0  0  0  0  0  0  0  0
  -57.6704  -52.2814  101.5227 C   0  0  2  0  0  0  0  0  0  0  0  0
  -58.7840  -53.2248  102.0222 C   0  0  0  0  0  0  0  0  0  0  0  0
  -57.3229  -51.2203  102.5769 C   0  0  0  0  0  0  0  0  0  0  0  0
  -60.1877  -52.6830  101.7731 C   0  0  0  0  0  0  0  0  0  0  0  0
  -55.9250  -50.3521  100.3491 N   0  0  0  0  0  0  0  0  0  0  0  0
  -54.8147  -49.5456   99.8122 C   0  0  2  0  0  0  0  0  0  0  0  0
  -55.0114  -48.0680  100.2097 C   0  0  0  0  0  0  0  0  0  0  0  0
  -56.0824  -47.4861  100.0568 O   0  0  0  0  0  0  0  0  0  0  0  0
  -54.6396  -49.7148   98.2751 C   0  0  2  0  0  0  0  0  0  0  0  0
  -55.1552  -51.0635   97.7334 C   0  0  0  0  0  0  0  0  0  0  0  0
  -53.1967  -49.4986   97.7979 C   0  0  0  0  0  0  0  0  0  0  0  0
  -54.6100  -51.4254   96.3599 C   0  0  0  0  0  0  0  0  0  0  0  0
  -53.9445  -47.4817  100.8625 N   0  0  0  0  0  0  0  0  0  0  0  0
  -54.1598  -46.3048  101.7090 C   0  0  2  0  0  0  0  0  0  0  0  0
  -55.2201  -46.6425  102.7715 C   0  0  0  0  0  0  0  0  0  0  0  0
  -55.8578  -47.6944  102.7493 O   0  0  0  0  0  0  0  0  0  0  0  0
  -54.5896  -45.0752  100.8795 C   0  0  0  0  0  0  0  0  0  0  0  0
  -54.0278  -43.7777  101.4118 C   0  0  0  0  0  0  0  0  0  0  0  0
  -54.9003  -42.7614  101.8299 C   0  0  0  0  0  0  0  0  0  0  0  0
  -52.6442  -43.5666  101.5010 C   0  0  0  0  0  0  0  0  0  0  0  0
  -54.3988  -41.5617  102.3356 C   0  0  0  0  0  0  0  0  0  0  0  0
  -52.1423  -42.3655  102.0108 C   0  0  0  0  0  0  0  0  0  0  0  0
  -53.0260  -41.3752  102.4281 C   0  0  0  0  0  0  0  0  0  0  0  0
  -52.5783  -40.1924  102.9417 O   0  0  0  0  0  0  0  0  0  0  0  0
  -55.3857  -45.6956  103.7639 N   0  0  0  0  0  0  0  0  0  0  0  0
  -56.3835  -45.9206  104.8128 C   0  0  2  0  0  0  0  0  0  0  0  0
  -57.7575  -45.4047  104.3528 C   0  0  0  0  0  0  0  0  0  0  0  0
  -58.2020  -45.6122  103.2236 O   0  0  0  0  0  0  0  0  0  0  0  0
  -55.9787  -45.2156  106.1120 C   0  0  0  0  0  0  0  0  0  0  0  0
  -54.6547  -44.6935  105.9910 O   0  0  0  0  0  0  0  0  0  0  0  0
  -58.4327  -44.6791  105.3246 N   0  0  0  0  0  0  0  0  0  0  0  0
  -59.8346  -44.2925  105.1319 C   0  0  2  0  0  0  0  0  0  0  0  0
  -60.2755  -43.7382  106.5236 C   0  0  0  0  0  0  0  0  0  0  0  0
  -60.4824  -44.4999  107.4709 O   0  0  0  0  0  0  0  0  0  0  0  0
  -60.6917  -45.4872  104.6894 C   0  0  0  0  0  0  0  0  0  0  0  0
  -61.3292  -45.3873  103.2968 C   0  0  0  0  0  0  0  0  0  0  0  0
  -62.7517  -44.8230  103.2873 C   0  0  0  0  0  0  0  0  0  0  0  0
  -63.3147  -44.8344  101.9529 N   0  0  0  0  0  0  0  0  0  0  0  0
  -63.9861  -45.8995  101.4662 C   0  0  0  0  0  0  0  0  0  0  0  0
  -64.2702  -46.0903  100.2314 N   0  0  0  0  0  0  0  0  0  0  0  0
  -64.3475  -46.7490  102.4449 N   0  0  0  0  0  0  0  0  0  0  0  0
  -58.7897  -42.0578  104.8120 C   0  0  0  0  0  0  0  0  0  0  0  0
  -60.4192  -42.3746  106.6646 N   0  0  0  0  0  0  0  0  0  0  0  0
  -57.6516  -41.8063  104.4293 O   0  0  0  0  0  0  0  0  0  0  0  0
  -59.4503  -41.4053  106.0698 C   0  0  1  0  0  0  0  0  0  0  0  0
  -58.3937  -40.9772  107.1306 C   0  0  0  0  0  0  0  0  0  0  0  0
  -56.5289  -39.3901  107.8836 C   0  0  0  0  0  0  0  0  0  0  0  0
  -55.4058  -40.3907  107.9498 C   0  0  0  0  0  0  0  0  0  0  0  0
  -57.6122  -39.6872  106.8358 C   0  0  0  0  0  0  0  0  0  0  0  0
  -60.2682  -40.1975  105.5692 C   0  0  0  0  0  0  0  0  0  0  0  0
  -59.6659  -42.8012  104.0446 N   0  0  0  0  0  0  0  0  0  0  0  0
  -59.2537  -43.4196  102.7922 C   0  0  2  0  0  0  0  0  0  0  0  0
  -59.0893  -42.2958  101.7402 C   0  0  0  0  0  0  0  0  0  0  0  0
  -59.8658  -41.3322  101.6973 O   0  0  0  0  0  0  0  0  0  0  0  0
  -60.3446  -44.3712  102.2641 C   0  0  0  0  0  0  0  0  0  0  0  0
  -60.8712  -45.3985  103.2703 C   0  0  0  0  0  0  0  0  0  0  0  0
  -60.9910  -44.8542  104.6746 C   0  0  0  0  0  0  0  0  0  0  0  0
  -61.5951  -43.8316  104.9760 O   0  0  0  0  0  0  0  0  0  0  0  0
  -60.3639  -45.6139  105.6210 N   0  0  0  0  0  0  0  0  0  0  0  0
  -58.1388  -42.4079  100.7635 N   0  0  0  0  0  0  0  0  0  0  0  0
  -56.7704  -42.9217  100.9202 C   0  0  2  0  0  0  0  0  0  0  0  0
  -55.8594  -42.1109   99.9546 C   0  0  0  0  0  0  0  0  0  0  0  0
  -56.3244  -41.2985   99.1513 O   0  0  0  0  0  0  0  0  0  0  0  0
  -56.6343  -44.4334  100.6808 C   0  0  0  0  0  0  0  0  0  0  0  0
  -57.8513  -45.3335  100.9842 C   0  0  1  0  0  0  0  0  0  0  0  0
  -58.3443  -45.2505  102.4272 C   0  0  0  0  0  0  0  0  0  0  0  0
  -58.9994  -44.9599  100.0350 C   0  0  0  0  0  0  0  0  0  0  0  0
  -54.5031  -42.3298   99.9705 N   0  0  0  0  0  0  0  0  0  0  0  0
  -53.7045  -42.0133  101.1585 C   0  0  2  0  0  0  0  0  0  0  0  0
  -53.1672  -40.5772  100.9391 C   0  0  0  0  0  0  0  0  0  0  0  0
  -52.7219  -40.2135   99.8487 O   0  0  0  0  0  0  0  0  0  0  0  0
  -52.4566  -42.9118  101.2795 C   0  0  0  0  0  0  0  0  0  0  0  0
  -52.5691  -44.3029  100.6365 C   0  0  1  0  0  0  0  0  0  0  0  0
  -54.0464  -44.6701  100.4577 C   0  0  0  0  0  0  0  0  0  0  0  0
  -51.8520  -44.3806   99.2900 C   0  0  0  0  0  0  0  0  0  0  0  0
  -53.6218  -37.8084  103.3816 C   0  0  0  0  0  0  0  0  0  0  0  0
  -53.0718  -39.7334  102.0128 N   0  0  0  0  0  0  0  0  0  0  0  0
  -54.3092  -37.1377  104.1584 O   0  0  0  0  0  0  0  0  0  0  0  0
  -54.2344  -38.9724  102.5372 C   0  0  1  0  0  0  0  0  0  0  0  0
  -55.1767  -39.8465  103.3894 C   0  0  0  0  0  0  0  0  0  0  0  0
  -54.2414  -39.7579  105.7872 C   0  0  0  0  0  0  0  0  0  0  0  0
  -54.4146  -40.5421  107.0565 C   0  0  0  0  0  0  0  0  0  0  0  0
  -54.5278  -40.6205  104.5531 C   0  0  0  0  0  0  0  0  0  0  0  0
  -55.0329  -38.3329  101.3839 C   0  0  0  0  0  0  0  0  0  0  0  0
  -52.2823  -37.5451  103.2121 N   0  0  0  0  0  0  0  0  0  0  0  0
  -51.5071  -38.2426  102.1979 C   0  0  2  0  0  0  0  0  0  0  0  0
  -50.0276  -37.8285  102.3173 C   0  0  0  0  0  0  0  0  0  0  0  0
  -49.1829  -38.1232  101.4728 O   0  0  0  0  0  0  0  0  0  0  0  0
  -52.0631  -38.0934  100.7744 C   0  0  0  0  0  0  0  0  0  0  0  0
  -51.5943  -36.8677   99.9572 C   0  0  1  0  0  0  0  0  0  0  0  0
  -52.3125  -35.6158  100.4783 C   0  0  0  0  0  0  0  0  0  0  0  0
  -50.0831  -36.6422  100.0106 C   0  0  0  0  0  0  0  0  0  0  0  0
  -49.7111  -37.1027  103.4508 N   0  0  0  0  0  0  0  0  0  0  0  0
  -50.1461  -37.5752  104.7670 C   0  0  2  0  0  0  0  0  0  0  0  0
  -49.3473  -36.9019  105.9084 C   0  0  0  0  0  0  0  0  0  0  0  0
  -49.8108  -36.7561  107.0418 O   0  0  0  0  0  0  0  0  0  0  0  0
  -50.0636  -39.1134  104.8473 C   0  0  0  0  0  0  0  0  0  0  0  0
  -50.2896  -39.6720  106.2654 C   0  0  0  0  0  0  0  0  0  0  0  0
  -50.3480  -41.2084  106.3001 C   0  0  0  0  0  0  0  0  0  0  0  0
  -51.3722  -41.7912  107.2703 C   0  0  0  0  0  0  0  0  0  0  0  0
  -51.4762  -43.2596  107.1098 N   0  0  0  0  0  4  0  0  0  0  0  0
  -48.0447  -36.6060  105.6507 N   0  0  0  0  0  0  0  0  0  0  0  0
  -58.3587  -49.6668   92.7074 H   0  0  0  0  0  0  0  0  0  0  0  0
  -64.6352  -45.2239   99.8324 H   0  0  0  0  0  0  0  0  0  0  0  0
  1  2  2  0
  1  3  1  0
  4  1  1  0
  5  4  1  0
  6  5  1  0
  5  8  1  6
  6  7  2  0
 15  6  1  0
  8  9  1  0
  9 10  1  0
 10 11  1  0
 11 12  1  0
 12 13  2  0
 12 14  1  0
 16 15  1  6
 17 16  1  0
 16 19  1  0
 17 18  2  0
 23 17  1  0
 19 20  1  0
 19 21  1  1
 20 22  1  0
 24 23  1  6
 25 24  1  0
 24 27  1  0
 25 26  2  0
 31 25  1  0
 27 28  1  0
 27 29  1  1
 28 30  1  0
 32 31  1  0
 33 32  1  0
 32 35  1  6
 33 34  2  0
 43 33  1  0
 35 36  1  0
 36 37  2  0
 36 38  1  0
 37 39  1  0
 38 40  2  0
 39 41  2  0
 40 41  1  0
 41 42  1  0
 44 43  1  0
 45 44  1  0
 44 47  1  1
 45 46  2  0
 49 45  1  0
 47 48  1  0
 50 49  1  0
 51 50  1  0
 50 53  1  1
 51 52  2  0
 61 51  1  0
 53 54  1  0
 54 55  1  0
 55 56  1  0
 56 57  1  0
 57 58  2  0
 57 59  1  0
 60 62  2  0
 60 63  1  0
 69 60  1  0
 63 61  1  0
 63 64  1  0
 63 68  1  6
 64 67  1  0
 65 66  1  0
 67 65  1  0
 66100  2  0
 70 69  1  0
 71 70  1  0
 70 73  1  6
 71 72  2  0
 78 71  1  0
 73 74  1  0
 74 75  1  0
 75 76  2  0
 75 77  1  0
 79 78  1  0
 80 79  1  0
 79 82  1  6
 80 81  2  0
 86 80  1  0
 82 83  1  0
 83 84  1  1
 83 85  1  0
 87 86  1  0
 88 87  1  0
 87 90  1  6
 88 89  2  0
 95 88  1  0
 90 91  1  0
 91 92  1  6
 91 93  1  0
 94 96  2  0
 97 94  1  0
 94103  1  0
 95 97  1  0
 97 98  1  0
 97102  1  6
 98101  1  0
100 99  1  0
 99101  1  0
103104  1  0
104105  1  0
104107  1  6
105106  2  0
105111  1  0
107108  1  0
108109  1  1
108110  1  0
111112  1  0
112113  1  0
112115  1  6
113114  2  0
113120  1  0
115116  1  0
116117  1  0
117118  1  0
118119  1  0
 13121  1  0
 58122  1  0
M  CHG  1 119   1
M  END
$$$$
