
     RDKit          3D

122123  0  0  0  0  0  0  0  0999 V2000
  -63.4880  -54.6540  102.5232 C   0  0  0  0  0  0  0  0  0  0  0  0
  -64.3711  -54.8164  103.3602 O   0  0  0  0  0  0  0  0  0  0  0  0
  -62.7378  -55.8104  101.9199 C   0  0  0  0  0  0  0  0  0  0  0  0
  -63.0965  -53.4151  102.0618 N   0  0  0  0  0  0  0  0  0  0  0  0
  -61.7588  -53.2491  101.5044 C   0  0  2  0  0  0  0  0  0  0  0  0
  -61.9120  -53.1033   99.9762 C   0  0  0  0  0  0  0  0  0  0  0  0
  -62.5774  -53.8863   99.2952 O   0  0  0  0  0  0  0  0  0  0  0  0
  -60.8764  -54.4566  101.8455 C   0  0  0  0  0  0  0  0  0  0  0  0
  -59.4260  -54.2684  101.3895 C   0  0  0  0  0  0  0  0  0  0  0  0
  -58.7442  -53.1331  102.1538 C   0  0  0  0  0  0  0  0  0  0  0  0
  -57.4183  -52.8724  101.6136 N   0  0  0  0  0  0  0  0  0  0  0  0
  -56.6241  -51.9087  102.1286 C   0  0  0  0  0  0  0  0  0  0  0  0
  -56.5253  -50.7139  101.6772 N   0  0  0  0  0  0  0  0  0  0  0  0
  -55.9420  -52.3541  103.2035 N   0  0  0  0  0  0  0  0  0  0  0  0
  -61.1821  -52.0762   99.4368 N   0  0  0  0  0  0  0  0  0  0  0  0
  -60.9903  -51.8694   98.0018 C   0  0  2  0  0  0  0  0  0  0  0  0
  -59.7865  -50.9120   97.8908 C   0  0  0  0  0  0  0  0  0  0  0  0
  -58.6650  -51.2394   98.2784 O   0  0  0  0  0  0  0  0  0  0  0  0
  -62.2900  -51.3308   97.3521 C   0  0  2  0  0  0  0  0  0  0  0  0
  -62.0251  -50.7220   95.9597 C   0  0  0  0  0  0  0  0  0  0  0  0
  -63.0340  -50.3421   98.2615 C   0  0  0  0  0  0  0  0  0  0  0  0
  -62.1090  -51.7438   94.8307 C   0  0  0  0  0  0  0  0  0  0  0  0
  -60.0528  -49.6803   97.3274 N   0  0  0  0  0  0  0  0  0  0  0  0
  -58.9833  -48.6697   97.2475 C   0  0  2  0  0  0  0  0  0  0  0  0
  -58.6517  -48.1566   98.6641 C   0  0  0  0  0  0  0  0  0  0  0  0
  -59.0725  -48.7111   99.6761 O   0  0  0  0  0  0  0  0  0  0  0  0
  -59.3303  -47.5054   96.2749 C   0  0  2  0  0  0  0  0  0  0  0  0
  -59.6349  -47.9656   94.8348 C   0  0  0  0  0  0  0  0  0  0  0  0
  -58.2623  -46.4036   96.2364 C   0  0  0  0  0  0  0  0  0  0  0  0
  -59.0890  -47.0355   93.7617 C   0  0  0  0  0  0  0  0  0  0  0  0
  -57.7507  -47.1111   98.7210 N   0  0  0  0  0  0  0  0  0  0  0  0
  -57.2526  -46.6422  100.0172 C   0  0  2  0  0  0  0  0  0  0  0  0
  -57.6702  -45.1740  100.2099 C   0  0  0  0  0  0  0  0  0  0  0  0
  -57.3865  -44.5400  101.2253 O   0  0  0  0  0  0  0  0  0  0  0  0
  -55.7199  -46.7936  100.1290 C   0  0  0  0  0  0  0  0  0  0  0  0
  -55.2839  -48.2177  100.3829 C   0  0  0  0  0  0  0  0  0  0  0  0
  -55.1783  -48.6885  101.7006 C   0  0  0  0  0  0  0  0  0  0  0  0
  -54.9836  -49.0862   99.3235 C   0  0  0  0  0  0  0  0  0  0  0  0
  -54.7892  -50.0042  101.9531 C   0  0  0  0  0  0  0  0  0  0  0  0
  -54.5968  -50.4056   99.5771 C   0  0  0  0  0  0  0  0  0  0  0  0
  -54.5079  -50.8536  100.8913 C   0  0  0  0  0  0  0  0  0  0  0  0
  -54.1444  -52.1367  101.1827 O   0  0  0  0  0  0  0  0  0  0  0  0
  -58.3611  -44.6119   99.1535 N   0  0  0  0  0  0  0  0  0  0  0  0
  -58.7625  -43.2047   99.2245 C   0  0  2  0  0  0  0  0  0  0  0  0
  -58.1120  -42.5319  100.4452 C   0  0  0  0  0  0  0  0  0  0  0  0
  -57.3245  -43.1191  101.1873 O   0  0  0  0  0  0  0  0  0  0  0  0
  -60.2866  -43.0755   99.3182 C   0  0  0  0  0  0  0  0  0  0  0  0
  -60.7750  -43.8509  100.4139 O   0  0  0  0  0  0  0  0  0  0  0  0
  -58.5078  -41.2145  100.6304 N   0  0  0  0  0  0  0  0  0  0  0  0
  -58.0199  -40.4399  101.7767 C   0  0  2  0  0  0  0  0  0  0  0  0
  -59.2096  -39.4945  102.1363 C   0  0  0  0  0  0  0  0  0  0  0  0
  -60.2872  -39.5803  101.5430 O   0  0  0  0  0  0  0  0  0  0  0  0
  -56.7470  -39.6565  101.4253 C   0  0  0  0  0  0  0  0  0  0  0  0
  -56.9135  -38.5013  100.4284 C   0  0  0  0  0  0  0  0  0  0  0  0
  -56.6367  -38.8744   98.9703 C   0  0  0  0  0  0  0  0  0  0  0  0
  -56.2491  -37.7150   98.1937 N   0  0  0  0  0  0  0  0  0  0  0  0
  -57.1387  -36.7706   97.8210 C   0  0  0  0  0  0  0  0  0  0  0  0
  -58.4110  -36.8703   97.9360 N   0  0  0  0  0  0  0  0  0  0  0  0
  -56.5294  -35.6963   97.2875 N   0  0  0  0  0  0  0  0  0  0  0  0
  -56.7440  -39.5285  103.4018 C   0  0  0  0  0  0  0  0  0  0  0  0
  -59.0235  -38.5677  103.1395 N   0  0  0  0  0  0  0  0  0  0  0  0
  -55.8413  -39.9408  104.1229 O   0  0  0  0  0  0  0  0  0  0  0  0
  -57.6939  -38.3469  103.7839 C   0  0  1  0  0  0  0  0  0  0  0  0
  -57.8577  -38.2023  105.3258 C   0  0  0  0  0  0  0  0  0  0  0  0
  -56.8936  -37.5280  107.6016 C   0  0  0  0  0  0  0  0  0  0  0  0
  -56.9298  -38.8805  108.2620 C   0  0  0  0  0  0  0  0  0  0  0  0
  -56.6901  -37.5458  106.0791 C   0  0  0  0  0  0  0  0  0  0  0  0
  -57.0940  -37.0713  103.1584 C   0  0  0  0  0  0  0  0  0  0  0  0
  -56.8767  -39.9492  102.0923 N   0  0  0  0  0  0  0  0  0  0  0  0
  -56.0220  -40.9853  101.5294 C   0  0  2  0  0  0  0  0  0  0  0  0
  -54.6133  -40.3775  101.3230 C   0  0  0  0  0  0  0  0  0  0  0  0
  -54.4633  -39.2110  100.9354 O   0  0  0  0  0  0  0  0  0  0  0  0
  -56.5291  -41.4218  100.1413 C   0  0  0  0  0  0  0  0  0  0  0  0
  -57.0928  -40.3034   99.2602 C   0  0  0  0  0  0  0  0  0  0  0  0
  -57.4058  -39.0386  100.0252 C   0  0  0  0  0  0  0  0  0  0  0  0
  -57.5098  -38.9697  101.2442 O   0  0  0  0  0  0  0  0  0  0  0  0
  -57.5617  -37.9350   99.2354 N   0  0  0  0  0  0  0  0  0  0  0  0
  -53.5028  -41.1631  101.4629 N   0  0  0  0  0  0  0  0  0  0  0  0
  -53.2755  -42.1934  102.4867 C   0  0  2  0  0  0  0  0  0  0  0  0
  -51.7587  -42.1751  102.8312 C   0  0  0  0  0  0  0  0  0  0  0  0
  -50.9585  -41.4759  102.2049 O   0  0  0  0  0  0  0  0  0  0  0  0
  -53.7397  -43.6000  102.0782 C   0  0  0  0  0  0  0  0  0  0  0  0
  -54.9195  -43.7216  101.0900 C   0  0  1  0  0  0  0  0  0  0  0  0
  -55.7064  -42.4274  100.8955 C   0  0  0  0  0  0  0  0  0  0  0  0
  -54.3872  -44.1993   99.7309 C   0  0  0  0  0  0  0  0  0  0  0  0
  -51.2899  -42.9855  103.8367 N   0  0  0  0  0  0  0  0  0  0  0  0
  -51.7151  -42.7834  105.2251 C   0  0  2  0  0  0  0  0  0  0  0  0
  -50.6424  -41.8705  105.8695 C   0  0  0  0  0  0  0  0  0  0  0  0
  -49.4389  -42.0474  105.6699 O   0  0  0  0  0  0  0  0  0  0  0  0
  -51.6921  -44.0933  106.0394 C   0  0  0  0  0  0  0  0  0  0  0  0
  -52.7169  -45.1590  105.6210 C   0  0  1  0  0  0  0  0  0  0  0  0
  -54.1168  -44.7359  106.0794 C   0  0  0  0  0  0  0  0  0  0  0  0
  -52.7199  -45.4023  104.1129 C   0  0  0  0  0  0  0  0  0  0  0  0
  -51.4275  -38.6861  107.6250 C   0  0  0  0  0  0  0  0  0  0  0  0
  -51.0352  -40.9242  106.7773 N   0  0  0  0  0  0  0  0  0  0  0  0
  -51.4810  -37.4550  107.5390 O   0  0  0  0  0  0  0  0  0  0  0  0
  -51.5841  -39.6055  106.3706 C   0  0  1  0  0  0  0  0  0  0  0  0
  -53.0564  -39.6920  105.9202 C   0  0  0  0  0  0  0  0  0  0  0  0
  -54.4633  -39.4370  108.0620 C   0  0  0  0  0  0  0  0  0  0  0  0
  -55.8847  -39.6971  108.4723 C   0  0  0  0  0  0  0  0  0  0  0  0
  -54.0378  -40.3517  106.9082 C   0  0  0  0  0  0  0  0  0  0  0  0
  -50.7381  -38.9879  105.2395 C   0  0  0  0  0  0  0  0  0  0  0  0
  -51.2077  -39.3035  108.8345 N   0  0  0  0  0  0  0  0  0  0  0  0
  -51.0277  -40.7448  108.9149 C   0  0  2  0  0  0  0  0  0  0  0  0
  -49.5216  -41.0697  108.8856 C   0  0  0  0  0  0  0  0  0  0  0  0
  -48.8567  -41.2401  109.9065 O   0  0  0  0  0  0  0  0  0  0  0  0
  -51.8362  -41.5342  107.8753 C   0  0  0  0  0  0  0  0  0  0  0  0
  -53.3731  -41.5528  108.0406 C   0  0  1  0  0  0  0  0  0  0  0  0
  -53.9926  -42.3192  106.8643 C   0  0  0  0  0  0  0  0  0  0  0  0
  -53.8367  -42.1828  109.3542 C   0  0  0  0  0  0  0  0  0  0  0  0
  -48.9633  -41.1508  107.6232 N   0  0  0  0  0  0  0  0  0  0  0  0
  -47.5089  -41.0918  107.4616 C   0  0  2  0  0  0  0  0  0  0  0  0
  -47.0470  -39.7076  106.9468 C   0  0  0  0  0  0  0  0  0  0  0  0
  -46.1962  -39.5821  106.0630 O   0  0  0  0  0  0  0  0  0  0  0  0
  -47.0166  -42.2311  106.5457 C   0  0  0  0  0  0  0  0  0  0  0  0
  -47.5370  -43.6225  106.9546 C   0  0  0  0  0  0  0  0  0  0  0  0
  -46.9608  -44.7545  106.0877 C   0  0  0  0  0  0  0  0  0  0  0  0
  -45.7509  -45.4689  106.6840 C   0  0  0  0  0  0  0  0  0  0  0  0
  -45.2584  -46.5258  105.7711 N   0  0  0  0  0  4  0  0  0  0  0  0
  -47.7297  -38.6251  107.4082 N   0  0  0  0  0  0  0  0  0  0  0  0
  -57.1799  -50.5792  100.9068 H   0  0  0  0  0  0  0  0  0  0  0  0
  -58.7025  -37.8059   97.6483 H   0  0  0  0  0  0  0  0  0  0  0  0
  1  2  2  0
  1  3  1  0
  4  1  1  0
  5  4  1  0
  6  5  1  0
  5  8  1  6
  6  7  2  0
 15  6  1  0
  8  9  1  0
  9 10  1  0
 10 11  1  0
 11 12  1  0
 12 13  2  0
 12 14  1  0
 16 15  1  1
 17 16  1  0
 16 19  1  0
 17 18  2  0
 23 17  1  0
 19 20  1  0
 19 21  1  1
 20 22  1  0
 24 23  1  1
 25 24  1  0
 24 27  1  0
 25 26  2  0
 31 25  1  0
 27 28  1  0
 27 29  1  6
 28 30  1  0
 32 31  1  0
 33 32  1  0
 32 35  1  6
 33 34  2  0
 43 33  1  0
 35 36  1  0
 36 37  2  0
 36 38  1  0
 37 39  1  0
 38 40  2  0
 39 41  2  0
 40 41  1  0
 41 42  1  0
 44 43  1  0
 45 44  1  0
 44 47  1  1
 45 46  2  0
 49 45  1  0
 47 48  1  0
 50 49  1  0
 51 50  1  0
 50 53  1  6
 51 52  2  0
 61 51  1  0
 53 54  1  0
 54 55  1  0
 55 56  1  0
 56 57  1  0
 57 58  2  0
 57 59  1  0
 60 62  2  0
 60 63  1  0
 69 60  1  0
 63 61  1  0
 63 64  1  0
 63 68  1  6
 64 67  1  0
 65 66  1  0
 67 65  1  0
 66100  2  0
 70 69  1  0
 71 70  1  0
 70 73  1  6
 71 72  2  0
 78 71  1  0
 73 74  1  0
 74 75  1  0
 75 76  2  0
 75 77  1  0
 79 78  1  0
 80 79  1  0
 79 82  1  6
 80 81  2  0
 86 80  1  0
 82 83  1  0
 83 84  1  6
 83 85  1  0
 87 86  1  0
 88 87  1  0
 87 90  1  1
 88 89  2  0
 95 88  1  0
 90 91  1  0
 91 92  1  6
 91 93  1  0
 94 96  2  0
 97 94  1  0
 94103  1  0
 95 97  1  0
 97 98  1  0
 97102  1  6
 98101  1  0
100 99  1  0
 99101  1  0
103104  1  0
104105  1  0
104107  1  6
105106  2  0
105111  1  0
107108  1  0
108109  1  6
108110  1  0
111112  1  0
112113  1  0
112115  1  6
113114  2  0
113120  1  0
115116  1  0
116117  1  0
117118  1  0
118119  1  0
 13121  1  0
 58122  1  0
M  CHG  1 119   1
M  END
$$$$
