
     RDKit          3D

122123  0  0  0  0  0  0  0  0999 V2000
  -59.6300  -50.9056   93.6393 C   0  0  0  0  0  0  0  0  0  0  0  0
  -58.6207  -50.7824   94.3270 O   0  0  0  0  0  0  0  0  0  0  0  0
  -60.3007  -52.2373   93.4378 C   0  0  0  0  0  0  0  0  0  0  0  0
  -60.2392  -49.8541   92.9879 N   0  0  0  0  0  0  0  0  0  0  0  0
  -61.6472  -49.5727   93.2442 C   0  0  2  0  0  0  0  0  0  0  0  0
  -61.9288  -49.9382   94.7164 C   0  0  0  0  0  0  0  0  0  0  0  0
  -62.9340  -50.5589   95.0686 O   0  0  0  0  0  0  0  0  0  0  0  0
  -62.5426  -50.3903   92.3045 C   0  0  0  0  0  0  0  0  0  0  0  0
  -62.6280  -49.7813   90.9014 C   0  0  0  0  0  0  0  0  0  0  0  0
  -63.9921  -49.1355   90.6561 C   0  0  0  0  0  0  0  0  0  0  0  0
  -64.9035  -50.0805   90.0283 N   0  0  0  0  0  0  0  0  0  0  0  0
  -65.8353  -49.6760   89.1378 C   0  0  0  0  0  0  0  0  0  0  0  0
  -66.0724  -50.2372   88.0108 N   0  0  0  0  0  0  0  0  0  0  0  0
  -66.5109  -48.5983   89.5863 N   0  0  0  0  0  0  0  0  0  0  0  0
  -61.0053  -49.4454   95.6012 N   0  0  0  0  0  0  0  0  0  0  0  0
  -61.1752  -49.4490   97.0537 C   0  0  2  0  0  0  0  0  0  0  0  0
  -59.8520  -48.8902   97.6149 C   0  0  0  0  0  0  0  0  0  0  0  0
  -58.7675  -49.4030   97.3388 O   0  0  0  0  0  0  0  0  0  0  0  0
  -61.5253  -50.8725   97.5562 C   0  0  2  0  0  0  0  0  0  0  0  0
  -62.7891  -51.4285   96.8683 C   0  0  0  0  0  0  0  0  0  0  0  0
  -61.6458  -50.9413   99.0855 C   0  0  0  0  0  0  0  0  0  0  0  0
  -62.7752  -52.9463   96.7208 C   0  0  0  0  0  0  0  0  0  0  0  0
  -59.9697  -47.7848   98.4331 N   0  0  0  0  0  0  0  0  0  0  0  0
  -58.7872  -47.2858   99.1572 C   0  0  2  0  0  0  0  0  0  0  0  0
  -58.4509  -48.2444  100.3182 C   0  0  0  0  0  0  0  0  0  0  0  0
  -59.3224  -48.8163  100.9680 O   0  0  0  0  0  0  0  0  0  0  0  0
  -58.9593  -45.8187   99.6471 C   0  0  2  0  0  0  0  0  0  0  0  0
  -59.7756  -44.9317   98.6852 C   0  0  0  0  0  0  0  0  0  0  0  0
  -57.6294  -45.1226   99.9681 C   0  0  0  0  0  0  0  0  0  0  0  0
  -59.2210  -44.8844   97.2693 C   0  0  0  0  0  0  0  0  0  0  0  0
  -57.1077  -48.5132  100.4961 N   0  0  0  0  0  0  0  0  0  0  0  0
  -56.6901  -49.6357  101.3409 C   0  0  2  0  0  0  0  0  0  0  0  0
  -57.1172  -49.3532  102.7917 C   0  0  0  0  0  0  0  0  0  0  0  0
  -56.9791  -50.1836  103.6888 O   0  0  0  0  0  0  0  0  0  0  0  0
  -55.1675  -49.8786  101.2568 C   0  0  0  0  0  0  0  0  0  0  0  0
  -54.7090  -51.0499  102.0938 C   0  0  0  0  0  0  0  0  0  0  0  0
  -55.0360  -52.3565  101.7003 C   0  0  0  0  0  0  0  0  0  0  0  0
  -53.9558  -50.8589  103.2613 C   0  0  0  0  0  0  0  0  0  0  0  0
  -54.6104  -53.4503  102.4544 C   0  0  0  0  0  0  0  0  0  0  0  0
  -53.5268  -51.9555  104.0148 C   0  0  0  0  0  0  0  0  0  0  0  0
  -53.8548  -53.2426  103.6007 C   0  0  0  0  0  0  0  0  0  0  0  0
  -53.4473  -54.3411  104.3011 O   0  0  0  0  0  0  0  0  0  0  0  0
  -57.6407  -48.0950  103.0200 N   0  0  0  0  0  0  0  0  0  0  0  0
  -57.4027  -47.4404  104.3088 C   0  0  2  0  0  0  0  0  0  0  0  0
  -56.3883  -46.2966  104.1398 C   0  0  0  0  0  0  0  0  0  0  0  0
  -56.7278  -45.1320  103.9298 O   0  0  0  0  0  0  0  0  0  0  0  0
  -56.8786  -48.4433  105.3423 C   0  0  0  0  0  0  0  0  0  0  0  0
  -57.8933  -48.7233  106.3078 O   0  0  0  0  0  0  0  0  0  0  0  0
  -55.0659  -46.7078  104.2346 N   0  0  0  0  0  0  0  0  0  0  0  0
  -53.9689  -45.7605  104.0090 C   0  0  2  0  0  0  0  0  0  0  0  0
  -53.4044  -46.1525  102.6068 C   0  0  0  0  0  0  0  0  0  0  0  0
  -53.2358  -47.3351  102.3011 O   0  0  0  0  0  0  0  0  0  0  0  0
  -52.9024  -45.8628  105.1088 C   0  0  0  0  0  0  0  0  0  0  0  0
  -53.2881  -45.3001  106.4838 C   0  0  0  0  0  0  0  0  0  0  0  0
  -52.2032  -45.4371  107.5544 C   0  0  0  0  0  0  0  0  0  0  0  0
  -52.4520  -44.5522  108.6736 N   0  0  0  0  0  0  0  0  0  0  0  0
  -51.9538  -44.7945  109.9046 C   0  0  0  0  0  0  0  0  0  0  0  0
  -51.6057  -43.8956  110.7489 N   0  0  0  0  0  0  0  0  0  0  0  0
  -51.8442  -46.1135  110.1460 N   0  0  0  0  0  0  0  0  0  0  0  0
  -53.1205  -42.8301  102.6408 C   0  0  0  0  0  0  0  0  0  0  0  0
  -53.1076  -45.1406  101.7192 N   0  0  0  0  0  0  0  0  0  0  0  0
  -53.6889  -41.9358  103.2589 O   0  0  0  0  0  0  0  0  0  0  0  0
  -53.8544  -43.8467  101.7069 C   0  0  1  0  0  0  0  0  0  0  0  0
  -55.3344  -44.0725  102.1355 C   0  0  0  0  0  0  0  0  0  0  0  0
  -57.7458  -43.2234  102.3024 C   0  0  0  0  0  0  0  0  0  0  0  0
  -57.8716  -43.2208  103.8028 C   0  0  0  0  0  0  0  0  0  0  0  0
  -56.3315  -42.9644  101.7616 C   0  0  0  0  0  0  0  0  0  0  0  0
  -53.7618  -43.2843  100.2739 C   0  0  0  0  0  0  0  0  0  0  0  0
  -51.7424  -42.8958  102.5624 N   0  0  0  0  0  0  0  0  0  0  0  0
  -50.8877  -41.9744  103.2981 C   0  0  2  0  0  0  0  0  0  0  0  0
  -50.9854  -40.5889  102.6148 C   0  0  0  0  0  0  0  0  0  0  0  0
  -51.0524  -40.4790  101.3832 O   0  0  0  0  0  0  0  0  0  0  0  0
  -49.4120  -42.4105  103.2174 C   0  0  0  0  0  0  0  0  0  0  0  0
  -48.4619  -41.4122  102.5497 C   0  0  0  0  0  0  0  0  0  0  0  0
  -48.7900  -41.1522  101.0980 C   0  0  0  0  0  0  0  0  0  0  0  0
  -49.0567  -40.0513  100.6307 O   0  0  0  0  0  0  0  0  0  0  0  0
  -48.7588  -42.2690  100.3120 N   0  0  0  0  0  0  0  0  0  0  0  0
  -50.8885  -39.4490  103.3640 N   0  0  0  0  0  0  0  0  0  0  0  0
  -51.4821  -39.2113  104.6878 C   0  0  2  0  0  0  0  0  0  0  0  0
  -51.8860  -37.7104  104.7498 C   0  0  0  0  0  0  0  0  0  0  0  0
  -51.5949  -36.9213  103.8476 O   0  0  0  0  0  0  0  0  0  0  0  0
  -50.5712  -39.5949  105.8642 C   0  0  0  0  0  0  0  0  0  0  0  0
  -50.7766  -40.9737  106.5277 C   0  0  1  0  0  0  0  0  0  0  0  0
  -52.1061  -41.1195  107.2647 C   0  0  0  0  0  0  0  0  0  0  0  0
  -50.6705  -42.0668  105.4542 C   0  0  0  0  0  0  0  0  0  0  0  0
  -52.5540  -37.2411  105.8549 N   0  0  0  0  0  0  0  0  0  0  0  0
  -53.8986  -37.7251  106.1823 C   0  0  2  0  0  0  0  0  0  0  0  0
  -54.8818  -36.7196  105.5328 C   0  0  0  0  0  0  0  0  0  0  0  0
  -54.6927  -35.5028  105.5892 O   0  0  0  0  0  0  0  0  0  0  0  0
  -54.1861  -37.6708  107.6967 C   0  0  0  0  0  0  0  0  0  0  0  0
  -53.4586  -38.7185  108.5535 C   0  0  1  0  0  0  0  0  0  0  0  0
  -53.7355  -40.1203  107.9990 C   0  0  0  0  0  0  0  0  0  0  0  0
  -51.9515  -38.4761  108.6128 C   0  0  0  0  0  0  0  0  0  0  0  0
  -57.6253  -37.7140  103.2256 C   0  0  0  0  0  0  0  0  0  0  0  0
  -56.0487  -37.1883  104.9919 N   0  0  0  0  0  0  0  0  0  0  0  0
  -58.0512  -38.2786  102.2128 O   0  0  0  0  0  0  0  0  0  0  0  0
  -56.1176  -37.7826  103.6325 C   0  0  1  0  0  0  0  0  0  0  0  0
  -55.5928  -39.2321  103.5942 C   0  0  0  0  0  0  0  0  0  0  0  0
  -57.6088  -40.7256  104.1747 C   0  0  0  0  0  0  0  0  0  0  0  0
  -57.8257  -42.1473  104.6083 C   0  0  0  0  0  0  0  0  0  0  0  0
  -56.2259  -40.2169  104.5961 C   0  0  0  0  0  0  0  0  0  0  0  0
  -55.3293  -36.9258  102.6220 C   0  0  0  0  0  0  0  0  0  0  0  0
  -58.4626  -36.9803  104.0335 N   0  0  0  0  0  0  0  0  0  0  0  0
  -58.1651  -36.7964  105.4455 C   0  0  2  0  0  0  0  0  0  0  0  0
  -57.2789  -35.5475  105.6180 C   0  0  0  0  0  0  0  0  0  0  0  0
  -56.9220  -35.1305  106.7190 O   0  0  0  0  0  0  0  0  0  0  0  0
  -57.5898  -38.0444  106.1304 C   0  0  0  0  0  0  0  0  0  0  0  0
  -57.3030  -39.2726  105.2365 C   0  0  1  0  0  0  0  0  0  0  0  0
  -58.5320  -39.5508  104.3608 C   0  0  0  0  0  0  0  0  0  0  0  0
  -56.0743  -39.1016  104.3429 C   0  0  0  0  0  0  0  0  0  0  0  0
  -56.9148  -34.9193  104.4413 N   0  0  0  0  0  0  0  0  0  0  0  0
  -56.9266  -33.4571  104.3588 C   0  0  2  0  0  0  0  0  0  0  0  0
  -55.5115  -32.8624  104.5547 C   0  0  0  0  0  0  0  0  0  0  0  0
  -55.2925  -31.6499  104.5068 O   0  0  0  0  0  0  0  0  0  0  0  0
  -57.9356  -32.8637  105.3634 C   0  0  0  0  0  0  0  0  0  0  0  0
  -57.5590  -31.4543  105.8592 C   0  0  0  0  0  0  0  0  0  0  0  0
  -57.8125  -30.3628  104.8059 C   0  0  0  0  0  0  0  0  0  0  0  0
  -57.5679  -28.9352  105.2877 C   0  0  0  0  0  0  0  0  0  0  0  0
  -58.0616  -27.9513  104.2971 N   0  0  0  0  0  4  0  0  0  0  0  0
  -54.5321  -33.7277  104.9324 N   0  0  0  0  0  0  0  0  0  0  0  0
  -65.3913  -50.9773   87.8420 H   0  0  0  0  0  0  0  0  0  0  0  0
  -50.6597  -43.5781  110.5313 H   0  0  0  0  0  0  0  0  0  0  0  0
  1  2  2  0
  1  3  1  0
  4  1  1  0
  5  4  1  0
  6  5  1  0
  5  8  1  6
  6  7  2  0
 15  6  1  0
  8  9  1  0
  9 10  1  0
 10 11  1  0
 11 12  1  0
 12 13  2  0
 12 14  1  0
 16 15  1  6
 17 16  1  0
 16 19  1  0
 17 18  2  0
 23 17  1  0
 19 20  1  0
 19 21  1  1
 20 22  1  0
 24 23  1  1
 25 24  1  0
 24 27  1  0
 25 26  2  0
 31 25  1  0
 27 28  1  0
 27 29  1  6
 28 30  1  0
 32 31  1  0
 33 32  1  0
 32 35  1  1
 33 34  2  0
 43 33  1  0
 35 36  1  0
 36 37  2  0
 36 38  1  0
 37 39  1  0
 38 40  2  0
 39 41  2  0
 40 41  1  0
 41 42  1  0
 44 43  1  0
 45 44  1  0
 44 47  1  1
 45 46  2  0
 49 45  1  0
 47 48  1  0
 50 49  1  0
 51 50  1  0
 50 53  1  1
 51 52  2  0
 61 51  1  0
 53 54  1  0
 54 55  1  0
 55 56  1  0
 56 57  1  0
 57 58  2  0
 57 59  1  0
 60 62  2  0
 60 63  1  0
 69 60  1  0
 63 61  1  0
 63 64  1  0
 63 68  1  6
 64 67  1  0
 65 66  1  0
 67 65  1  0
 66100  2  0
 70 69  1  0
 71 70  1  0
 70 73  1  6
 71 72  2  0
 78 71  1  0
 73 74  1  0
 74 75  1  0
 75 76  2  0
 75 77  1  0
 79 78  1  0
 80 79  1  0
 79 82  1  1
 80 81  2  0
 86 80  1  0
 82 83  1  0
 83 84  1  6
 83 85  1  0
 87 86  1  0
 88 87  1  0
 87 90  1  1
 88 89  2  0
 95 88  1  0
 90 91  1  0
 91 92  1  6
 91 93  1  0
 94 96  2  0
 97 94  1  0
 94103  1  0
 95 97  1  0
 97 98  1  0
 97102  1  6
 98101  1  0
100 99  1  0
 99101  1  0
103104  1  0
104105  1  0
104107  1  6
105106  2  0
105111  1  0
107108  1  0
108109  1  6
108110  1  0
111112  1  0
112113  1  0
112115  1  1
113114  2  0
113120  1  0
115116  1  0
116117  1  0
117118  1  0
118119  1  0
 13121  1  0
 58122  1  0
M  CHG  1 119   1
M  END
$$$$
