
     RDKit          3D

  7  6  0  0  0  0  0  0  0  0999 V2000
   98.7694  -39.9889  124.8641 O   0  0  0  0  0  0  0  0  0  0  0  0
   99.0111  -39.6724  123.5358 C   0  0  0  0  0  0  0  0  0  0  0  0
   99.5412  -38.2407  123.5190 C   0  0  0  0  0  0  0  0  0  0  0  0
  100.3647  -37.9731  122.3787 N   0  0  2  0  0  4  0  0  0  0  0  0
  100.9170  -36.6287  122.4227 C   0  0  0  0  0  0  0  0  0  0  0  0
   99.5348  -38.1307  121.1900 C   0  0  0  0  0  0  0  0  0  0  0  0
  101.4654  -38.9014  122.2442 C   0  0  0  0  0  0  0  0  0  0  0  0
  1  2  1  0
  2  3  1  0
  3  4  1  0
  4  5  1  1
  4  6  1  0
  4  7  1  0
M  CHG  1   4   1
M  END
$$$$
