
     RDKit          3D

  7  6  0  0  0  0  0  0  0  0999 V2000
   98.4670  -39.9149  123.9592 O   0  0  0  0  0  0  0  0  0  0  0  0
   99.5061  -39.8165  123.0461 C   0  0  0  0  0  0  0  0  0  0  0  0
  100.3614  -38.6309  123.4861 C   0  0  0  0  0  0  0  0  0  0  0  0
  100.2738  -37.5245  122.5816 N   0  0  2  0  0  4  0  0  0  0  0  0
   98.9037  -37.0586  122.4393 C   0  0  0  0  0  0  0  0  0  0  0  0
  100.7835  -37.9707  121.2901 C   0  0  0  0  0  0  0  0  0  0  0  0
  101.0867  -36.3980  122.9835 C   0  0  0  0  0  0  0  0  0  0  0  0
  1  2  1  0
  2  3  1  0
  3  4  1  0
  4  5  1  6
  4  6  1  0
  4  7  1  0
M  CHG  1   4   1
M  END
$$$$
