
     RDKit          3D

  7  6  0  0  0  0  0  0  0  0999 V2000
  100.1771  -40.2899  123.9142 O   0  0  0  0  0  0  0  0  0  0  0  0
  100.2768  -39.9743  122.5676 C   0  0  0  0  0  0  0  0  0  0  0  0
   99.3090  -38.8202  122.3180 C   0  0  0  0  0  0  0  0  0  0  0  0
   99.9726  -37.5538  122.2399 N   0  0  2  0  0  4  0  0  0  0  0  0
  100.5868  -37.1939  123.5078 C   0  0  0  0  0  0  0  0  0  0  0  0
   98.9748  -36.5564  121.8704 C   0  0  0  0  0  0  0  0  0  0  0  0
  100.9987  -37.5134  121.2217 C   0  0  0  0  0  0  0  0  0  0  0  0
  1  2  1  0
  2  3  1  0
  3  4  1  0
  4  5  1  1
  4  6  1  0
  4  7  1  0
M  CHG  1   4   1
M  END
$$$$
