
     RDKit          3D

  7  6  0  0  0  0  0  0  0  0999 V2000
   99.2026  -40.2447  123.0982 O   0  0  0  0  0  0  0  0  0  0  0  0
  100.1140  -39.7530  122.1759 C   0  0  0  0  0  0  0  0  0  0  0  0
   99.7263  -38.3000  121.9128 C   0  0  0  0  0  0  0  0  0  0  0  0
  100.4251  -37.3826  122.7615 N   0  0  2  0  0  4  0  0  0  0  0  0
  101.8648  -37.5693  122.6785 C   0  0  0  0  0  0  0  0  0  0  0  0
   99.9719  -37.6151  124.1280 C   0  0  0  0  0  0  0  0  0  0  0  0
  100.1383  -35.9982  122.4574 C   0  0  0  0  0  0  0  0  0  0  0  0
  1  2  1  0
  2  3  1  0
  3  4  1  0
  4  5  1  1
  4  6  1  0
  4  7  1  0
M  CHG  1   4   1
M  END
$$$$
