
     RDKit          3D

  7  6  0  0  0  0  0  0  0  0999 V2000
   98.8129  -39.6771  124.2477 O   0  0  0  0  0  0  0  0  0  0  0  0
  100.0190  -39.7447  123.5666 C   0  0  0  0  0  0  0  0  0  0  0  0
   99.8129  -39.0127  122.2427 C   0  0  0  0  0  0  0  0  0  0  0  0
  100.1263  -37.6184  122.3314 N   0  0  2  0  0  4  0  0  0  0  0  0
   99.1832  -36.9124  123.1837 C   0  0  0  0  0  0  0  0  0  0  0  0
  100.0814  -37.0707  120.9805 C   0  0  0  0  0  0  0  0  0  0  0  0
  101.4572  -37.3677  122.8383 C   0  0  0  0  0  0  0  0  0  0  0  0
  1  2  1  0
  2  3  1  0
  3  4  1  0
  4  5  1  1
  4  6  1  0
  4  7  1  0
M  CHG  1   4   1
M  END
$$$$
