
     RDKit          3D

  7  6  0  0  0  0  0  0  0  0999 V2000
   98.0751  -38.8631  124.2697 O   0  0  0  0  0  0  0  0  0  0  0  0
   99.4288  -39.1567  124.2021 C   0  0  0  0  0  0  0  0  0  0  0  0
  100.1259  -37.8871  123.7191 C   0  0  0  0  0  0  0  0  0  0  0  0
  100.4234  -37.9225  122.3190 N   0  0  2  0  0  4  0  0  0  0  0  0
  101.2215  -36.7766  121.9137 C   0  0  0  0  0  0  0  0  0  0  0  0
   99.1548  -37.9238  121.5996 C   0  0  0  0  0  0  0  0  0  0  0  0
  101.1297  -39.1196  121.9196 C   0  0  0  0  0  0  0  0  0  0  0  0
  1  2  1  0
  2  3  1  0
  3  4  1  0
  4  5  1  6
  4  6  1  0
  4  7  1  0
M  CHG  1   4   1
M  END
$$$$
