
     RDKit          3D

  7  6  0  0  0  0  0  0  0  0999 V2000
   98.6222  -38.9387  124.4615 O   0  0  0  0  0  0  0  0  0  0  0  0
   99.1090  -39.5787  123.3317 C   0  0  0  0  0  0  0  0  0  0  0  0
  100.4991  -39.0039  123.0707 C   0  0  0  0  0  0  0  0  0  0  0  0
  100.4693  -37.8678  122.1997 N   0  0  2  0  0  4  0  0  0  0  0  0
   99.9178  -38.2076  120.8979 C   0  0  0  0  0  0  0  0  0  0  0  0
  101.8397  -37.3923  122.0500 C   0  0  0  0  0  0  0  0  0  0  0  0
   99.7016  -36.7645  122.7333 C   0  0  0  0  0  0  0  0  0  0  0  0
  1  2  1  0
  2  3  1  0
  3  4  1  0
  4  5  1  6
  4  6  1  0
  4  7  1  0
M  CHG  1   4   1
M  END
$$$$
