
     RDKit          3D

  7  6  0  0  0  0  0  0  0  0999 V2000
   99.6652  -40.2010  124.3289 O   0  0  0  0  0  0  0  0  0  0  0  0
  100.1866  -40.0761  123.0499 C   0  0  0  0  0  0  0  0  0  0  0  0
  100.8830  -38.7186  122.9944 C   0  0  0  0  0  0  0  0  0  0  0  0
  100.0315  -37.6846  122.4887 N   0  0  2  0  0  4  0  0  0  0  0  0
   99.5365  -38.0033  121.1590 C   0  0  0  0  0  0  0  0  0  0  0  0
  100.8120  -36.4534  122.4464 C   0  0  0  0  0  0  0  0  0  0  0  0
   98.8897  -37.4249  123.3374 C   0  0  0  0  0  0  0  0  0  0  0  0
  1  2  1  0
  2  3  1  0
  3  4  1  0
  4  5  1  6
  4  6  1  0
  4  7  1  0
M  CHG  1   4   1
M  END
$$$$
