
     RDKit          3D

  7  6  0  0  0  0  0  0  0  0999 V2000
   98.7195  -39.2860  124.7695 O   0  0  0  0  0  0  0  0  0  0  0  0
   99.7405  -39.6988  123.9268 C   0  0  0  0  0  0  0  0  0  0  0  0
  100.5830  -38.4617  123.6254 C   0  0  0  0  0  0  0  0  0  0  0  0
  100.1899  -37.8117  122.4117 N   0  0  2  0  0  4  0  0  0  0  0  0
  100.2410  -38.7211  121.2782 C   0  0  0  0  0  0  0  0  0  0  0  0
  101.1031  -36.6955  122.1948 C   0  0  0  0  0  0  0  0  0  0  0  0
   98.8573  -37.2534  122.4737 C   0  0  0  0  0  0  0  0  0  0  0  0
  1  2  1  0
  2  3  1  0
  3  4  1  0
  4  5  1  6
  4  6  1  0
  4  7  1  0
M  CHG  1   4   1
M  END
$$$$
