
     RDKit          3D

  7  6  0  0  0  0  0  0  0  0999 V2000
   98.3548  -39.3963  124.5733 O   0  0  0  0  0  0  0  0  0  0  0  0
   99.3457  -39.6246  123.6304 C   0  0  0  0  0  0  0  0  0  0  0  0
  100.2548  -38.3982  123.6486 C   0  0  0  0  0  0  0  0  0  0  0  0
  100.4502  -37.8399  122.3447 N   0  0  2  0  0  4  0  0  0  0  0  0
   99.1853  -37.4895  121.7189 C   0  0  0  0  0  0  0  0  0  0  0  0
  101.1439  -38.8376  121.5384 C   0  0  0  0  0  0  0  0  0  0  0  0
  101.2841  -36.6583  122.3532 C   0  0  0  0  0  0  0  0  0  0  0  0
  1  2  1  0
  2  3  1  0
  3  4  1  0
  4  5  1  6
  4  6  1  0
  4  7  1  0
M  CHG  1   4   1
M  END
$$$$
