
     RDKit          3D

  7  6  0  0  0  0  0  0  0  0999 V2000
   98.8593  -40.2319  124.8975 O   0  0  0  0  0  0  0  0  0  0  0  0
   99.3787  -39.9691  123.6388 C   0  0  0  0  0  0  0  0  0  0  0  0
  100.0161  -38.5837  123.7115 C   0  0  0  0  0  0  0  0  0  0  0  0
  100.3162  -38.0485  122.4178 N   0  0  2  0  0  4  0  0  0  0  0  0
  100.9929  -36.7651  122.5149 C   0  0  0  0  0  0  0  0  0  0  0  0
   99.0547  -37.8922  121.7029 C   0  0  0  0  0  0  0  0  0  0  0  0
  101.1417  -38.9268  121.6186 C   0  0  0  0  0  0  0  0  0  0  0  0
  1  2  1  0
  2  3  1  0
  3  4  1  0
  4  5  1  1
  4  6  1  0
  4  7  1  0
M  CHG  1   4   1
M  END
$$$$
