
     RDKit          3D

  7  6  0  0  0  0  0  0  0  0999 V2000
   98.8748  -39.5115  124.5581 O   0  0  0  0  0  0  0  0  0  0  0  0
   98.9438  -38.2282  124.0371 C   0  0  0  0  0  0  0  0  0  0  0  0
   99.1300  -38.3798  122.5294 C   0  0  0  0  0  0  0  0  0  0  0  0
  100.5059  -38.3237  122.1374 N   0  0  2  0  0  4  0  0  0  0  0  0
  101.2858  -39.3724  122.7748 C   0  0  0  0  0  0  0  0  0  0  0  0
  101.0209  -37.0158  122.5258 C   0  0  0  0  0  0  0  0  0  0  0  0
  100.6931  -38.4372  120.7079 C   0  0  0  0  0  0  0  0  0  0  0  0
  1  2  1  0
  2  3  1  0
  3  4  1  0
  4  5  1  1
  4  6  1  0
  4  7  1  0
M  CHG  1   4   1
M  END
$$$$
