
     RDKit          3D

  7  6  0  0  0  0  0  0  0  0999 V2000
   99.0011  -40.6669  122.7729 O   0  0  0  0  0  0  0  0  0  0  0  0
   99.0210  -39.3251  123.1222 C   0  0  0  0  0  0  0  0  0  0  0  0
  100.4583  -38.8468  122.9314 C   0  0  0  0  0  0  0  0  0  0  0  0
  100.5296  -37.5159  122.4082 N   0  0  2  0  0  4  0  0  0  0  0  0
   99.7658  -36.5817  123.2196 C   0  0  0  0  0  0  0  0  0  0  0  0
   99.9956  -37.5474  121.0515 C   0  0  0  0  0  0  0  0  0  0  0  0
  101.8834  -37.0167  122.3115 C   0  0  0  0  0  0  0  0  0  0  0  0
  1  2  1  0
  2  3  1  0
  3  4  1  0
  4  5  1  1
  4  6  1  0
  4  7  1  0
M  CHG  1   4   1
M  END
$$$$
