
     RDKit          3D

  7  6  0  0  0  0  0  0  0  0999 V2000
   99.1148  -39.4573  124.9836 O   0  0  0  0  0  0  0  0  0  0  0  0
   99.6650  -39.7844  123.7534 C   0  0  0  0  0  0  0  0  0  0  0  0
   99.2661  -38.6708  122.7882 C   0  0  0  0  0  0  0  0  0  0  0  0
  100.3741  -37.8445  122.4144 N   0  0  2  0  0  4  0  0  0  0  0  0
  100.8558  -37.0572  123.5380 C   0  0  0  0  0  0  0  0  0  0  0  0
   99.9230  -36.9609  121.3456 C   0  0  0  0  0  0  0  0  0  0  0  0
  101.4909  -38.5979  121.8884 C   0  0  0  0  0  0  0  0  0  0  0  0
  1  2  1  0
  2  3  1  0
  3  4  1  0
  4  5  1  1
  4  6  1  0
  4  7  1  0
M  CHG  1   4   1
M  END
$$$$
