
     RDKit          3D

  7  6  0  0  0  0  0  0  0  0999 V2000
   98.2309  -39.6831  122.6330 O   0  0  0  0  0  0  0  0  0  0  0  0
   99.1726  -39.3615  121.6671 C   0  0  0  0  0  0  0  0  0  0  0  0
   99.4828  -37.8765  121.8388 C   0  0  0  0  0  0  0  0  0  0  0  0
  100.6538  -37.6479  122.6304 N   0  0  2  0  0  4  0  0  0  0  0  0
  100.9420  -36.2285  122.7597 C   0  0  0  0  0  0  0  0  0  0  0  0
  101.7673  -38.3231  121.9738 C   0  0  0  0  0  0  0  0  0  0  0  0
  100.5558  -38.2045  123.9615 C   0  0  0  0  0  0  0  0  0  0  0  0
  1  2  1  0
  2  3  1  0
  3  4  1  0
  4  5  1  1
  4  6  1  0
  4  7  1  0
M  CHG  1   4   1
M  END
$$$$
