
     RDKit          3D

  7  6  0  0  0  0  0  0  0  0999 V2000
   98.5018  -38.9254  124.5358 O   0  0  0  0  0  0  0  0  0  0  0  0
   99.5757  -39.4694  123.8473 C   0  0  0  0  0  0  0  0  0  0  0  0
   99.5820  -38.8187  122.4662 C   0  0  0  0  0  0  0  0  0  0  0  0
  100.5423  -37.7619  122.3612 N   0  0  2  0  0  4  0  0  0  0  0  0
  101.8623  -38.1954  122.7904 C   0  0  0  0  0  0  0  0  0  0  0  0
  100.0818  -36.6638  123.2031 C   0  0  0  0  0  0  0  0  0  0  0  0
  100.6619  -37.2360  121.0193 C   0  0  0  0  0  0  0  0  0  0  0  0
  1  2  1  0
  2  3  1  0
  3  4  1  0
  4  5  1  1
  4  6  1  0
  4  7  1  0
M  CHG  1   4   1
M  END
$$$$
