
     RDKit          3D

 15 16  0  0  0  0  0  0  0  0999 V2000
  -10.9604    0.7466  -27.6984 C   0  0  0  0  0  0  0  0  0  0  0  0
   -9.5969   -1.6733  -27.3478 C   0  0  0  0  0  0  0  0  0  0  0  0
   -9.6266    0.7435  -27.3639 C   0  0  0  0  0  0  0  0  0  0  0  0
  -12.1904    4.7936  -28.2292 O   0  0  0  0  0  0  0  0  0  0  0  0
  -11.0375    4.4270  -27.9166 C   0  0  0  0  0  0  0  0  0  0  0  0
   -9.9866    5.3945  -27.6920 C   0  0  0  0  0  0  0  0  0  0  0  0
  -10.1095    6.7521  -27.8395 C   0  0  0  0  0  0  0  0  0  0  0  0
   -8.9100    7.3016  -27.5375 N   0  0  0  0  0  0  0  0  0  0  0  0
   -8.0560    6.3376  -27.2107 N   0  0  0  0  0  0  0  0  0  0  0  0
   -8.6961    5.1410  -27.2974 C   0  0  0  0  0  0  0  0  0  0  0  0
  -10.7832    3.0957  -27.7897 O   0  0  0  0  0  0  0  0  0  0  0  0
  -11.6547    2.0244  -27.8977 C   0  0  0  0  0  0  0  0  0  0  0  0
  -11.6052   -0.4531  -27.8563 C   0  0  0  0  0  0  0  0  0  0  0  0
  -10.9301   -1.6489  -27.6825 C   0  0  0  0  0  0  0  0  0  0  0  0
   -8.9474   -0.4609  -27.1893 C   0  0  0  0  0  0  0  0  0  0  0  0
  1  3  1  0
 12  1  1  0
  1 13  2  0
  2 14  2  0
 15  2  1  0
  3 15  2  0
  5  4  2  0
  5  6  1  0
 11  5  1  0
  6  7  1  0
  6 10  2  0
  7  8  2  0
  9  8  1  0
 10  9  1  0
 12 11  1  6
 13 14  1  0
M  END
$$$$
