
     RDKit          3D

 15 16  0  0  0  0  0  0  0  0999 V2000
  -23.2772   19.7743  -12.0365 C   0  0  0  0  0  0  0  0  0  0  0  0
  -24.4120   20.8093   -9.6806 C   0  0  0  0  0  0  0  0  0  0  0  0
  -24.4899   19.3059  -11.5230 C   0  0  0  0  0  0  0  0  0  0  0  0
  -21.4053   17.3522  -15.0024 O   0  0  0  0  0  0  0  0  0  0  0  0
  -20.8045   17.8090  -14.0255 C   0  0  0  0  0  0  0  0  0  0  0  0
  -19.3792   17.5010  -13.8355 C   0  0  0  0  0  0  0  0  0  0  0  0
  -18.6972   16.4439  -14.3722 C   0  0  0  0  0  0  0  0  0  0  0  0
  -17.4162   16.5077  -13.9665 N   0  0  0  0  0  0  0  0  0  0  0  0
  -17.2943   17.5739  -13.1964 N   0  0  0  0  0  0  0  0  0  0  0  0
  -18.4736   18.2127  -13.0886 C   0  0  0  0  0  0  0  0  0  0  0  0
  -21.4613   18.5943  -13.1295 O   0  0  0  0  0  0  0  0  0  0  0  0
  -22.6978   19.2039  -13.2694 C   0  0  0  0  0  0  0  0  0  0  0  0
  -22.6630   20.7730  -11.3266 C   0  0  0  0  0  0  0  0  0  0  0  0
  -23.2308   21.2841  -10.1567 C   0  0  0  0  0  0  0  0  0  0  0  0
  -25.0466   19.8101  -10.3720 C   0  0  0  0  0  0  0  0  0  0  0  0
  1  3  1  0
 12  1  1  0
  1 13  2  0
  2 14  2  0
 15  2  1  0
  3 15  2  0
  5  4  2  0
  5  6  1  0
 11  5  1  0
  6  7  1  0
  6 10  2  0
  7  8  2  0
  9  8  1  0
 10  9  1  0
 11 12  1  0
 13 14  1  0
M  END
$$$$
