
     RDKit          3D

 15 16  0  0  0  0  0  0  0  0999 V2000
  -12.5848    9.3094  -28.4985 C   0  0  0  0  0  0  0  0  0  0  0  0
  -11.9097    6.9035  -29.7611 C   0  0  0  0  0  0  0  0  0  0  0  0
  -12.1065    8.2500  -27.7636 C   0  0  0  0  0  0  0  0  0  0  0  0
  -13.0914   12.5748  -25.8203 O   0  0  0  0  0  0  0  0  0  0  0  0
  -12.9932   11.3771  -25.4784 C   0  0  0  0  0  0  0  0  0  0  0  0
  -12.9719   11.0034  -24.0817 C   0  0  0  0  0  0  0  0  0  0  0  0
  -12.9416   11.8760  -23.0246 C   0  0  0  0  0  0  0  0  0  0  0  0
  -12.9297   11.1368  -21.8908 N   0  0  0  0  0  0  0  0  0  0  0  0
  -12.9514    9.8468  -22.2082 N   0  0  0  0  0  0  0  0  0  0  0  0
  -12.9780    9.7321  -23.5629 C   0  0  0  0  0  0  0  0  0  0  0  0
  -12.9060   10.4229  -26.4455 O   0  0  0  0  0  0  0  0  0  0  0  0
  -12.9151   10.5699  -27.8229 C   0  0  0  0  0  0  0  0  0  0  0  0
  -12.7229    9.1642  -29.8549 C   0  0  0  0  0  0  0  0  0  0  0  0
  -12.3891    7.9741  -30.4780 C   0  0  0  0  0  0  0  0  0  0  0  0
  -11.7703    7.0522  -28.3916 C   0  0  0  0  0  0  0  0  0  0  0  0
  1  3  1  0
 12  1  1  0
  1 13  2  0
  2 14  2  0
 15  2  1  0
  3 15  2  0
  5  4  2  0
  5  6  1  0
 11  5  1  0
  6  7  1  0
  6 10  2  0
  7  8  2  0
  9  8  1  0
 10  9  1  0
 12 11  1  6
 13 14  1  0
M  END
$$$$
