
     RDKit          3D

 15 16  0  0  0  0  0  0  0  0999 V2000
  -24.7611   19.4799   -9.2312 C   0  0  0  0  0  0  0  0  0  0  0  0
  -26.1858   19.1193  -11.6141 C   0  0  0  0  0  0  0  0  0  0  0  0
  -24.1074   19.1017  -10.3804 C   0  0  0  0  0  0  0  0  0  0  0  0
  -22.3732   21.8925   -7.2538 O   0  0  0  0  0  0  0  0  0  0  0  0
  -21.8677   20.9559   -7.9083 C   0  0  0  0  0  0  0  0  0  0  0  0
  -20.4724   20.9836   -8.2870 C   0  0  0  0  0  0  0  0  0  0  0  0
  -19.5067   21.7684   -7.7113 C   0  0  0  0  0  0  0  0  0  0  0  0
  -18.3401   21.5029   -8.3440 N   0  0  0  0  0  0  0  0  0  0  0  0
  -18.5496   20.5877   -9.2841 N   0  0  0  0  0  0  0  0  0  0  0  0
  -19.8656   20.2453   -9.2729 C   0  0  0  0  0  0  0  0  0  0  0  0
  -22.6539   19.9023   -8.2620 O   0  0  0  0  0  0  0  0  0  0  0  0
  -23.9956   19.6837   -7.9955 C   0  0  0  0  0  0  0  0  0  0  0  0
  -26.1174   19.6763   -9.2761 C   0  0  0  0  0  0  0  0  0  0  0  0
  -26.8207   19.4974  -10.4548 C   0  0  0  0  0  0  0  0  0  0  0  0
  -24.8162   18.9220  -11.5668 C   0  0  0  0  0  0  0  0  0  0  0  0
  1  3  1  0
 12  1  1  0
  1 13  2  0
  2 14  2  0
 15  2  1  0
  3 15  2  0
  5  4  2  0
  5  6  1  0
 11  5  1  0
  6  7  1  0
  6 10  2  0
  7  8  2  0
  9  8  1  0
 10  9  1  0
 12 11  1  6
 13 14  1  0
M  END
$$$$
