
     RDKit          3D

 15 16  0  0  0  0  0  0  0  0999 V2000
  -23.3908   19.9509  -11.7701 C   0  0  0  0  0  0  0  0  0  0  0  0
  -25.6091   19.1874  -10.2423 C   0  0  0  0  0  0  0  0  0  0  0  0
  -23.8728   20.7792  -10.7838 C   0  0  0  0  0  0  0  0  0  0  0  0
  -19.4847   20.3604  -13.3355 O   0  0  0  0  0  0  0  0  0  0  0  0
  -20.0658   19.2711  -13.1433 C   0  0  0  0  0  0  0  0  0  0  0  0
  -19.3536   18.0186  -13.2647 C   0  0  0  0  0  0  0  0  0  0  0  0
  -18.0133   17.8866  -13.5220 C   0  0  0  0  0  0  0  0  0  0  0  0
  -17.7373   16.5621  -13.5582 N   0  0  0  0  0  0  0  0  0  0  0  0
  -18.8526   15.8756  -13.3338 N   0  0  0  0  0  0  0  0  0  0  0  0
  -19.8743   16.7535  -13.1477 C   0  0  0  0  0  0  0  0  0  0  0  0
  -21.3871   19.2802  -12.8160 O   0  0  0  0  0  0  0  0  0  0  0  0
  -22.2147   20.3583  -12.5481 C   0  0  0  0  0  0  0  0  0  0  0  0
  -24.0151   18.7498  -11.9883 C   0  0  0  0  0  0  0  0  0  0  0  0
  -25.1119   18.3735  -11.2325 C   0  0  0  0  0  0  0  0  0  0  0  0
  -24.9770   20.3996  -10.0231 C   0  0  0  0  0  0  0  0  0  0  0  0
  1  3  1  0
 12  1  1  0
  1 13  2  0
  2 14  2  0
 15  2  1  0
  3 15  2  0
  5  4  2  0
  5  6  1  0
 11  5  1  0
  6  7  1  0
  6 10  2  0
  7  8  2  0
  9  8  1  0
 10  9  1  0
 12 11  1  6
 13 14  1  0
M  END
$$$$
