
     RDKit          3D

 15 16  0  0  0  0  0  0  0  0999 V2000
  -21.0989   18.1666  -14.4422 C   0  0  0  0  0  0  0  0  0  0  0  0
  -22.6888   18.8248  -12.2177 C   0  0  0  0  0  0  0  0  0  0  0  0
  -20.6568   19.0323  -13.4378 C   0  0  0  0  0  0  0  0  0  0  0  0
  -18.2774   16.8437  -17.3819 O   0  0  0  0  0  0  0  0  0  0  0  0
  -18.0191   16.9491  -16.1794 C   0  0  0  0  0  0  0  0  0  0  0  0
  -16.6771   16.6030  -15.6878 C   0  0  0  0  0  0  0  0  0  0  0  0
  -15.7184   15.9023  -16.3663 C   0  0  0  0  0  0  0  0  0  0  0  0
  -14.6307   15.7916  -15.5824 N   0  0  0  0  0  0  0  0  0  0  0  0
  -14.8962   16.4048  -14.4430 N   0  0  0  0  0  0  0  0  0  0  0  0
  -16.1402   16.9170  -14.4640 C   0  0  0  0  0  0  0  0  0  0  0  0
  -18.9748   17.3841  -15.3143 O   0  0  0  0  0  0  0  0  0  0  0  0
  -20.2475   17.8477  -15.6061 C   0  0  0  0  0  0  0  0  0  0  0  0
  -22.3589   17.6500  -14.2867 C   0  0  0  0  0  0  0  0  0  0  0  0
  -23.1450   17.9799  -13.1796 C   0  0  0  0  0  0  0  0  0  0  0  0
  -21.4317   19.3555  -12.3497 C   0  0  0  0  0  0  0  0  0  0  0  0
  1  3  1  0
 12  1  1  0
  1 13  2  0
  2 14  2  0
 15  2  1  0
  3 15  2  0
  5  4  2  0
  5  6  1  0
 11  5  1  0
  6  7  1  0
  6 10  2  0
  7  8  2  0
  9  8  1  0
 10  9  1  0
 11 12  1  0
 13 14  1  0
M  END
$$$$
