
     RDKit          3D

 15 16  0  0  0  0  0  0  0  0999 V2000
  -23.5259   19.9739  -11.8027 C   0  0  0  0  0  0  0  0  0  0  0  0
  -25.8164   19.4210  -10.2675 C   0  0  0  0  0  0  0  0  0  0  0  0
  -23.9658   20.8242  -10.7843 C   0  0  0  0  0  0  0  0  0  0  0  0
  -19.6636   20.3883  -13.5705 O   0  0  0  0  0  0  0  0  0  0  0  0
  -20.1631   19.3021  -13.2631 C   0  0  0  0  0  0  0  0  0  0  0  0
  -19.3633   18.0731  -13.3743 C   0  0  0  0  0  0  0  0  0  0  0  0
  -18.0279   17.9951  -13.6591 C   0  0  0  0  0  0  0  0  0  0  0  0
  -17.6658   16.6996  -13.6724 N   0  0  0  0  0  0  0  0  0  0  0  0
  -18.7416   15.9818  -13.4039 N   0  0  0  0  0  0  0  0  0  0  0  0
  -19.8056   16.7834  -13.2141 C   0  0  0  0  0  0  0  0  0  0  0  0
  -21.4492   19.2453  -12.8231 O   0  0  0  0  0  0  0  0  0  0  0  0
  -22.3262   20.2951  -12.6019 C   0  0  0  0  0  0  0  0  0  0  0  0
  -24.2749   18.8463  -12.0176 C   0  0  0  0  0  0  0  0  0  0  0  0
  -25.4120   18.5758  -11.2521 C   0  0  0  0  0  0  0  0  0  0  0  0
  -25.0848   20.5562  -10.0326 C   0  0  0  0  0  0  0  0  0  0  0  0
  1  3  1  0
 12  1  1  0
  1 13  2  0
  2 14  2  0
 15  2  1  0
  3 15  2  0
  5  4  2  0
  5  6  1  0
 11  5  1  0
  6  7  1  0
  6 10  2  0
  7  8  2  0
  9  8  1  0
 10  9  1  0
 11 12  1  0
 13 14  1  0
M  END
$$$$
