
     RDKit          3D

 15 16  0  0  0  0  0  0  0  0999 V2000
  -23.1220   20.0658  -11.4149 C   0  0  0  0  0  0  0  0  0  0  0  0
  -23.6903   21.1480   -8.8962 C   0  0  0  0  0  0  0  0  0  0  0  0
  -24.3468   19.8514  -10.8275 C   0  0  0  0  0  0  0  0  0  0  0  0
  -21.8074   17.7828  -14.7464 O   0  0  0  0  0  0  0  0  0  0  0  0
  -21.1089   18.0489  -13.7452 C   0  0  0  0  0  0  0  0  0  0  0  0
  -19.7711   17.5168  -13.6111 C   0  0  0  0  0  0  0  0  0  0  0  0
  -19.2097   16.5615  -14.4186 C   0  0  0  0  0  0  0  0  0  0  0  0
  -17.9536   16.3380  -13.9669 N   0  0  0  0  0  0  0  0  0  0  0  0
  -17.7207   17.1165  -12.9157 N   0  0  0  0  0  0  0  0  0  0  0  0
  -18.8320   17.8608  -12.6703 C   0  0  0  0  0  0  0  0  0  0  0  0
  -21.6284   18.8518  -12.7764 O   0  0  0  0  0  0  0  0  0  0  0  0
  -22.8482   19.5076  -12.7445 C   0  0  0  0  0  0  0  0  0  0  0  0
  -22.1902   20.8168  -10.7458 C   0  0  0  0  0  0  0  0  0  0  0  0
  -22.4723   21.3511   -9.5005 C   0  0  0  0  0  0  0  0  0  0  0  0
  -24.6301   20.3898   -9.5737 C   0  0  0  0  0  0  0  0  0  0  0  0
  1  3  1  0
 12  1  1  0
  1 13  2  0
  2 14  2  0
 15  2  1  0
  3 15  2  0
  5  4  2  0
  5  6  1  0
 11  5  1  0
  6  7  1  0
  6 10  2  0
  7  8  2  0
  9  8  1  0
 10  9  1  0
 12 11  1  6
 13 14  1  0
M  END
$$$$
