
     RDKit          3D

 15 16  0  0  0  0  0  0  0  0999 V2000
  -23.2816   20.2209  -12.1133 C   0  0  0  0  0  0  0  0  0  0  0  0
  -25.0267   20.2925   -9.9091 C   0  0  0  0  0  0  0  0  0  0  0  0
  -24.3919   21.0687  -12.0667 C   0  0  0  0  0  0  0  0  0  0  0  0
  -20.2059   19.8545  -15.0672 O   0  0  0  0  0  0  0  0  0  0  0  0
  -20.3502   19.0744  -14.1214 C   0  0  0  0  0  0  0  0  0  0  0  0
  -19.3654   18.0049  -13.9004 C   0  0  0  0  0  0  0  0  0  0  0  0
  -18.1162   17.9234  -14.4512 C   0  0  0  0  0  0  0  0  0  0  0  0
  -17.5224   16.8011  -14.0067 N   0  0  0  0  0  0  0  0  0  0  0  0
  -18.3726   16.1928  -13.1993 N   0  0  0  0  0  0  0  0  0  0  0  0
  -19.5158   16.8962  -13.1050 C   0  0  0  0  0  0  0  0  0  0  0  0
  -21.4175   19.2061  -13.2881 O   0  0  0  0  0  0  0  0  0  0  0  0
  -22.3884   20.1948  -13.2892 C   0  0  0  0  0  0  0  0  0  0  0  0
  -23.0848   19.4182  -11.0199 C   0  0  0  0  0  0  0  0  0  0  0  0
  -23.9545   19.4575   -9.9271 C   0  0  0  0  0  0  0  0  0  0  0  0
  -25.2462   21.1056  -10.9907 C   0  0  0  0  0  0  0  0  0  0  0  0
  1  3  1  0
 12  1  1  0
  1 13  2  0
  2 14  2  0
 15  2  1  0
  3 15  2  0
  5  4  2  0
  5  6  1  0
 11  5  1  0
  6  7  1  0
  6 10  2  0
  7  8  2  0
  9  8  1  0
 10  9  1  0
 11 12  1  0
 13 14  1  0
M  END
$$$$
