
     RDKit          3D

 15 16  0  0  0  0  0  0  0  0999 V2000
  -23.3793   19.3440  -11.9744 C   0  0  0  0  0  0  0  0  0  0  0  0
  -24.3033   21.1965  -10.0895 C   0  0  0  0  0  0  0  0  0  0  0  0
  -22.4884   20.0512  -11.2016 C   0  0  0  0  0  0  0  0  0  0  0  0
  -21.2256   16.1637  -13.6727 O   0  0  0  0  0  0  0  0  0  0  0  0
  -20.6979   17.2378  -13.3135 C   0  0  0  0  0  0  0  0  0  0  0  0
  -19.2625   17.4082  -13.3505 C   0  0  0  0  0  0  0  0  0  0  0  0
  -18.3584   16.4595  -13.7536 C   0  0  0  0  0  0  0  0  0  0  0  0
  -17.1244   17.0043  -13.6422 N   0  0  0  0  0  0  0  0  0  0  0  0
  -17.2336   18.2479  -13.1874 N   0  0  0  0  0  0  0  0  0  0  0  0
  -18.5506   18.5277  -12.9966 C   0  0  0  0  0  0  0  0  0  0  0  0
  -21.4985   18.2516  -12.8840 O   0  0  0  0  0  0  0  0  0  0  0  0
  -22.8780   18.3624  -12.9437 C   0  0  0  0  0  0  0  0  0  0  0  0
  -24.7220   19.5631  -11.8034 C   0  0  0  0  0  0  0  0  0  0  0  0
  -25.1775   20.4794  -10.8714 C   0  0  0  0  0  0  0  0  0  0  0  0
  -22.9478   20.9735  -10.2632 C   0  0  0  0  0  0  0  0  0  0  0  0
  1  3  1  0
 12  1  1  0
  1 13  2  0
  2 14  2  0
 15  2  1  0
  3 15  2  0
  5  4  2  0
  5  6  1  0
 11  5  1  0
  6  7  1  0
  6 10  2  0
  7  8  2  0
  9  8  1  0
 10  9  1  0
 12 11  1  6
 13 14  1  0
M  END
$$$$
