
     RDKit          3D

 15 16  0  0  0  0  0  0  0  0999 V2000
  -12.7083    9.7362  -28.3165 C   0  0  0  0  0  0  0  0  0  0  0  0
  -11.2513   10.4515  -30.6132 C   0  0  0  0  0  0  0  0  0  0  0  0
  -12.3146    8.7972  -29.2740 C   0  0  0  0  0  0  0  0  0  0  0  0
  -14.1213    8.6091  -24.4609 O   0  0  0  0  0  0  0  0  0  0  0  0
  -13.4827    9.6438  -24.6746 C   0  0  0  0  0  0  0  0  0  0  0  0
  -13.0580   10.4859  -23.5464 C   0  0  0  0  0  0  0  0  0  0  0  0
  -13.2411   10.2180  -22.2177 C   0  0  0  0  0  0  0  0  0  0  0  0
  -12.7148   11.2260  -21.4991 N   0  0  0  0  0  0  0  0  0  0  0  0
  -12.2144   12.1038  -22.3499 N   0  0  0  0  0  0  0  0  0  0  0  0
  -12.4028   11.6902  -23.6164 C   0  0  0  0  0  0  0  0  0  0  0  0
  -13.1744   10.0011  -25.9506 O   0  0  0  0  0  0  0  0  0  0  0  0
  -13.4838    9.3346  -27.1254 C   0  0  0  0  0  0  0  0  0  0  0  0
  -12.3451   11.0359  -28.5561 C   0  0  0  0  0  0  0  0  0  0  0  0
  -11.6210   11.3864  -29.6985 C   0  0  0  0  0  0  0  0  0  0  0  0
  -11.6025    9.1441  -30.3972 C   0  0  0  0  0  0  0  0  0  0  0  0
  1  3  1  0
 12  1  1  0
  1 13  2  0
  2 14  2  0
 15  2  1  0
  3 15  2  0
  5  4  2  0
  5  6  1  0
 11  5  1  0
  6  7  1  0
  6 10  2  0
  7  8  2  0
  9  8  1  0
 10  9  1  0
 11 12  1  0
 13 14  1  0
M  END
$$$$
