
     RDKit          3D

 15 16  0  0  0  0  0  0  0  0999 V2000
  -23.5713   19.8272  -11.8046 C   0  0  0  0  0  0  0  0  0  0  0  0
  -25.0885   19.8015   -9.4367 C   0  0  0  0  0  0  0  0  0  0  0  0
  -24.7184   19.0416  -11.6608 C   0  0  0  0  0  0  0  0  0  0  0  0
  -20.5571   19.8471  -14.8068 O   0  0  0  0  0  0  0  0  0  0  0  0
  -20.6289   18.9831  -13.9281 C   0  0  0  0  0  0  0  0  0  0  0  0
  -19.5765   17.9617  -13.8206 C   0  0  0  0  0  0  0  0  0  0  0  0
  -18.4380   17.8849  -14.5746 C   0  0  0  0  0  0  0  0  0  0  0  0
  -17.7298   16.8127  -14.1765 N   0  0  0  0  0  0  0  0  0  0  0  0
  -18.4023   16.2306  -13.2000 N   0  0  0  0  0  0  0  0  0  0  0  0
  -19.5411   16.9018  -12.9489 C   0  0  0  0  0  0  0  0  0  0  0  0
  -21.6794   18.9783  -13.0635 O   0  0  0  0  0  0  0  0  0  0  0  0
  -22.7861   19.8120  -13.0554 C   0  0  0  0  0  0  0  0  0  0  0  0
  -23.2197   20.5915  -10.7226 C   0  0  0  0  0  0  0  0  0  0  0  0
  -23.9768   20.5755   -9.5483 C   0  0  0  0  0  0  0  0  0  0  0  0
  -25.4615   19.0273  -10.5047 C   0  0  0  0  0  0  0  0  0  0  0  0
  1  3  1  0
 12  1  1  0
  1 13  2  0
  2 14  2  0
 15  2  1  0
  3 15  2  0
  5  4  2  0
  5  6  1  0
 11  5  1  0
  6  7  1  0
  6 10  2  0
  7  8  2  0
  9  8  1  0
 10  9  1  0
 11 12  1  0
 13 14  1  0
M  END
$$$$
