
     RDKit          3D

 15 16  0  0  0  0  0  0  0  0999 V2000
  -23.3374   20.4468  -11.8877 C   0  0  0  0  0  0  0  0  0  0  0  0
  -25.6540   19.7663  -10.4705 C   0  0  0  0  0  0  0  0  0  0  0  0
  -23.8338   19.1655  -11.9429 C   0  0  0  0  0  0  0  0  0  0  0  0
  -19.4811   20.6469  -13.6695 O   0  0  0  0  0  0  0  0  0  0  0  0
  -20.0630   19.5978  -13.3203 C   0  0  0  0  0  0  0  0  0  0  0  0
  -19.3792   18.3242  -13.3520 C   0  0  0  0  0  0  0  0  0  0  0  0
  -18.0578   18.1376  -13.6667 C   0  0  0  0  0  0  0  0  0  0  0  0
  -17.8059   16.8105  -13.5828 N   0  0  0  0  0  0  0  0  0  0  0  0
  -18.9179   16.1747  -13.2296 N   0  0  0  0  0  0  0  0  0  0  0  0
  -19.9131   17.0890  -13.0787 C   0  0  0  0  0  0  0  0  0  0  0  0
  -21.3580   19.6714  -12.9069 O   0  0  0  0  0  0  0  0  0  0  0  0
  -22.1330   20.7911  -12.6529 C   0  0  0  0  0  0  0  0  0  0  0  0
  -23.9969   21.3792  -11.1290 C   0  0  0  0  0  0  0  0  0  0  0  0
  -25.1420   21.0415  -10.4286 C   0  0  0  0  0  0  0  0  0  0  0  0
  -24.9869   18.8263  -11.2376 C   0  0  0  0  0  0  0  0  0  0  0  0
  1  3  1  0
 12  1  1  0
  1 13  2  0
  2 14  2  0
 15  2  1  0
  3 15  2  0
  5  4  2  0
  5  6  1  0
 11  5  1  0
  6  7  1  0
  6 10  2  0
  7  8  2  0
  9  8  1  0
 10  9  1  0
 12 11  1  6
 13 14  1  0
M  END
$$$$
