
     RDKit          3D

 15 16  0  0  0  0  0  0  0  0999 V2000
  -13.1169    9.7126  -28.4108 C   0  0  0  0  0  0  0  0  0  0  0  0
  -11.0281    9.4546  -30.2569 C   0  0  0  0  0  0  0  0  0  0  0  0
  -12.2779   10.7727  -28.6624 C   0  0  0  0  0  0  0  0  0  0  0  0
  -15.6268   10.0676  -24.9932 O   0  0  0  0  0  0  0  0  0  0  0  0
  -14.4108   10.3523  -25.0283 C   0  0  0  0  0  0  0  0  0  0  0  0
  -13.6992   10.7175  -23.8237 C   0  0  0  0  0  0  0  0  0  0  0  0
  -14.2456   10.7945  -22.5686 C   0  0  0  0  0  0  0  0  0  0  0  0
  -13.2587   11.1662  -21.7203 N   0  0  0  0  0  0  0  0  0  0  0  0
  -12.1291   11.3204  -22.4026 N   0  0  0  0  0  0  0  0  0  0  0  0
  -12.3712   11.0485  -23.7128 C   0  0  0  0  0  0  0  0  0  0  0  0
  -13.7613   10.3136  -26.2240 O   0  0  0  0  0  0  0  0  0  0  0  0
  -14.2191    9.8717  -27.4545 C   0  0  0  0  0  0  0  0  0  0  0  0
  -12.9110    8.5333  -29.0793 C   0  0  0  0  0  0  0  0  0  0  0  0
  -11.8778    8.4069  -29.9916 C   0  0  0  0  0  0  0  0  0  0  0  0
  -11.2380   10.6447  -29.5812 C   0  0  0  0  0  0  0  0  0  0  0  0
  1  3  1  0
 12  1  1  0
  1 13  2  0
  2 14  2  0
 15  2  1  0
  3 15  2  0
  5  4  2  0
  5  6  1  0
 11  5  1  0
  6  7  1  0
  6 10  2  0
  7  8  2  0
  9  8  1  0
 10  9  1  0
 12 11  1  6
 13 14  1  0
M  END
$$$$
