
     RDKit          3D

 15 16  0  0  0  0  0  0  0  0999 V2000
  -23.2564   20.4696  -11.7999 C   0  0  0  0  0  0  0  0  0  0  0  0
  -25.1115   20.2034   -9.7200 C   0  0  0  0  0  0  0  0  0  0  0  0
  -24.6052   20.4749  -12.0678 C   0  0  0  0  0  0  0  0  0  0  0  0
  -19.7796   20.5369  -14.2113 O   0  0  0  0  0  0  0  0  0  0  0  0
  -20.1736   19.5392  -13.5705 C   0  0  0  0  0  0  0  0  0  0  0  0
  -19.3888   18.3254  -13.5309 C   0  0  0  0  0  0  0  0  0  0  0  0
  -18.0953   18.1990  -13.9678 C   0  0  0  0  0  0  0  0  0  0  0  0
  -17.7221   16.9148  -13.7596 N   0  0  0  0  0  0  0  0  0  0  0  0
  -18.7328   16.2477  -13.2130 N   0  0  0  0  0  0  0  0  0  0  0  0
  -19.7828   17.0978  -13.0585 C   0  0  0  0  0  0  0  0  0  0  0  0
  -21.3595   19.6116  -12.9060 O   0  0  0  0  0  0  0  0  0  0  0  0
  -22.2983   20.6302  -12.9002 C   0  0  0  0  0  0  0  0  0  0  0  0
  -22.8410   20.3326  -10.5004 C   0  0  0  0  0  0  0  0  0  0  0  0
  -23.7591   20.2008   -9.4730 C   0  0  0  0  0  0  0  0  0  0  0  0
  -25.5291   20.3424  -11.0328 C   0  0  0  0  0  0  0  0  0  0  0  0
  1  3  1  0
 12  1  1  0
  1 13  2  0
  2 14  2  0
 15  2  1  0
  3 15  2  0
  5  4  2  0
  5  6  1  0
 11  5  1  0
  6  7  1  0
  6 10  2  0
  7  8  2  0
  9  8  1  0
 10  9  1  0
 12 11  1  6
 13 14  1  0
M  END
$$$$
