
     RDKit          3D

 15 16  0  0  0  0  0  0  0  0999 V2000
  -23.3845   20.0554  -11.8225 C   0  0  0  0  0  0  0  0  0  0  0  0
  -24.4793   20.8445   -9.3697 C   0  0  0  0  0  0  0  0  0  0  0  0
  -23.1046   21.2984  -11.3052 C   0  0  0  0  0  0  0  0  0  0  0  0
  -21.7019   17.6507  -14.8618 O   0  0  0  0  0  0  0  0  0  0  0  0
  -21.0965   17.9831  -13.8207 C   0  0  0  0  0  0  0  0  0  0  0  0
  -19.7387   17.5474  -13.5806 C   0  0  0  0  0  0  0  0  0  0  0  0
  -19.0719   16.5881  -14.2982 C   0  0  0  0  0  0  0  0  0  0  0  0
  -17.8337   16.4719  -13.7642 N   0  0  0  0  0  0  0  0  0  0  0  0
  -17.7128   17.3201  -12.7486 N   0  0  0  0  0  0  0  0  0  0  0  0
  -18.8808   18.0027  -12.6101 C   0  0  0  0  0  0  0  0  0  0  0  0
  -21.7371   18.7660  -12.9097 O   0  0  0  0  0  0  0  0  0  0  0  0
  -22.7860   19.6506  -13.1002 C   0  0  0  0  0  0  0  0  0  0  0  0
  -24.2057   19.2148  -11.1161 C   0  0  0  0  0  0  0  0  0  0  0  0
  -24.7466   19.6062   -9.9037 C   0  0  0  0  0  0  0  0  0  0  0  0
  -23.6494   21.6917  -10.0842 C   0  0  0  0  0  0  0  0  0  0  0  0
  1  3  1  0
 12  1  1  0
  1 13  2  0
  2 14  2  0
 15  2  1  0
  3 15  2  0
  5  4  2  0
  5  6  1  0
 11  5  1  0
  6  7  1  0
  6 10  2  0
  7  8  2  0
  9  8  1  0
 10  9  1  0
 12 11  1  6
 13 14  1  0
M  END
$$$$
