
     RDKit          3D

 15 16  0  0  0  0  0  0  0  0999 V2000
  -12.6435    9.6541  -28.5351 C   0  0  0  0  0  0  0  0  0  0  0  0
  -12.0592    7.3824  -30.0867 C   0  0  0  0  0  0  0  0  0  0  0  0
  -13.2329    8.4105  -28.2906 C   0  0  0  0  0  0  0  0  0  0  0  0
  -12.6728   12.7681  -25.6625 O   0  0  0  0  0  0  0  0  0  0  0  0
  -12.8206   11.5798  -25.3623 C   0  0  0  0  0  0  0  0  0  0  0  0
  -12.8618   11.1840  -23.9467 C   0  0  0  0  0  0  0  0  0  0  0  0
  -12.6070   11.9878  -22.8699 C   0  0  0  0  0  0  0  0  0  0  0  0
  -12.7469   11.2602  -21.7471 N   0  0  0  0  0  0  0  0  0  0  0  0
  -13.0802   10.0334  -22.1057 N   0  0  0  0  0  0  0  0  0  0  0  0
  -13.1620    9.9417  -23.4456 C   0  0  0  0  0  0  0  0  0  0  0  0
  -12.9446   10.6419  -26.3401 O   0  0  0  0  0  0  0  0  0  0  0  0
  -12.9780   10.8338  -27.7120 C   0  0  0  0  0  0  0  0  0  0  0  0
  -11.7579    9.7109  -29.5797 C   0  0  0  0  0  0  0  0  0  0  0  0
  -11.4707    8.5795  -30.3477 C   0  0  0  0  0  0  0  0  0  0  0  0
  -12.9491    7.2989  -29.0474 C   0  0  0  0  0  0  0  0  0  0  0  0
  1  3  1  0
 12  1  1  0
  1 13  2  0
  2 14  2  0
 15  2  1  0
  3 15  2  0
  5  4  2  0
  5  6  1  0
 11  5  1  0
  6  7  1  0
  6 10  2  0
  7  8  2  0
  9  8  1  0
 10  9  1  0
 11 12  1  0
 13 14  1  0
M  END
$$$$
