
     RDKit          3D

 15 16  0  0  0  0  0  0  0  0999 V2000
  -23.3873   19.9202  -12.0722 C   0  0  0  0  0  0  0  0  0  0  0  0
  -24.5132   20.8619   -9.6732 C   0  0  0  0  0  0  0  0  0  0  0  0
  -23.7021   21.2674  -11.8728 C   0  0  0  0  0  0  0  0  0  0  0  0
  -21.7229   17.3307  -14.8862 O   0  0  0  0  0  0  0  0  0  0  0  0
  -21.0224   17.8898  -14.0373 C   0  0  0  0  0  0  0  0  0  0  0  0
  -19.6190   17.4850  -13.8669 C   0  0  0  0  0  0  0  0  0  0  0  0
  -19.0042   16.4148  -14.4562 C   0  0  0  0  0  0  0  0  0  0  0  0
  -17.7216   16.3792  -14.0520 N   0  0  0  0  0  0  0  0  0  0  0  0
  -17.5334   17.3974  -13.2318 N   0  0  0  0  0  0  0  0  0  0  0  0
  -18.6707   18.1022  -13.0896 C   0  0  0  0  0  0  0  0  0  0  0  0
  -21.5498   18.8767  -13.2634 O   0  0  0  0  0  0  0  0  0  0  0  0
  -22.8081   19.4509  -13.3471 C   0  0  0  0  0  0  0  0  0  0  0  0
  -23.6582   19.0731  -11.0293 C   0  0  0  0  0  0  0  0  0  0  0  0
  -24.2175   19.5458   -9.8392 C   0  0  0  0  0  0  0  0  0  0  0  0
  -24.2523   21.7301  -10.7015 C   0  0  0  0  0  0  0  0  0  0  0  0
  1  3  1  0
 12  1  1  0
  1 13  2  0
  2 14  2  0
 15  2  1  0
  3 15  2  0
  5  4  2  0
  5  6  1  0
 11  5  1  0
  6  7  1  0
  6 10  2  0
  7  8  2  0
  9  8  1  0
 10  9  1  0
 11 12  1  0
 13 14  1  0
M  END
$$$$
