
     RDKit          3D

 15 16  0  0  0  0  0  0  0  0999 V2000
  -23.2903   19.9868  -11.7511 C   0  0  0  0  0  0  0  0  0  0  0  0
  -24.2625   21.1557   -9.3852 C   0  0  0  0  0  0  0  0  0  0  0  0
  -24.5091   19.6120  -11.1788 C   0  0  0  0  0  0  0  0  0  0  0  0
  -21.7131   17.0187  -14.1908 O   0  0  0  0  0  0  0  0  0  0  0  0
  -20.9723   17.7894  -13.5735 C   0  0  0  0  0  0  0  0  0  0  0  0
  -19.5268   17.5251  -13.5179 C   0  0  0  0  0  0  0  0  0  0  0  0
  -18.8960   16.3722  -13.8967 C   0  0  0  0  0  0  0  0  0  0  0  0
  -17.5741   16.5189  -13.6951 N   0  0  0  0  0  0  0  0  0  0  0  0
  -17.3773   17.7290  -13.2035 N   0  0  0  0  0  0  0  0  0  0  0  0
  -18.5477   18.3810  -13.0783 C   0  0  0  0  0  0  0  0  0  0  0  0
  -21.4943   18.8788  -12.9476 O   0  0  0  0  0  0  0  0  0  0  0  0
  -22.7977   19.3474  -12.9880 C   0  0  0  0  0  0  0  0  0  0  0  0
  -22.5859   20.9621  -11.0944 C   0  0  0  0  0  0  0  0  0  0  0  0
  -23.0732   21.5400   -9.9192 C   0  0  0  0  0  0  0  0  0  0  0  0
  -24.9864   20.1817  -10.0227 C   0  0  0  0  0  0  0  0  0  0  0  0
  1  3  1  0
 12  1  1  0
  1 13  2  0
  2 14  2  0
 15  2  1  0
  3 15  2  0
  5  4  2  0
  5  6  1  0
 11  5  1  0
  6  7  1  0
  6 10  2  0
  7  8  2  0
  9  8  1  0
 10  9  1  0
 11 12  1  0
 13 14  1  0
M  END
$$$$
