
     RDKit          3D

 15 16  0  0  0  0  0  0  0  0999 V2000
  -12.2144    8.4797  -29.3465 C   0  0  0  0  0  0  0  0  0  0  0  0
  -12.9749   11.1013  -28.6699 C   0  0  0  0  0  0  0  0  0  0  0  0
  -12.7294    9.3748  -30.2884 C   0  0  0  0  0  0  0  0  0  0  0  0
  -11.1655    4.3305  -29.7899 O   0  0  0  0  0  0  0  0  0  0  0  0
  -11.0562    4.9760  -28.7434 C   0  0  0  0  0  0  0  0  0  0  0  0
  -10.4192    4.3610  -27.5693 C   0  0  0  0  0  0  0  0  0  0  0  0
   -9.9954    3.0652  -27.4597 C   0  0  0  0  0  0  0  0  0  0  0  0
   -9.4675    2.8873  -26.2352 N   0  0  0  0  0  0  0  0  0  0  0  0
   -9.5559    4.0375  -25.5917 N   0  0  0  0  0  0  0  0  0  0  0  0
  -10.1332    4.9691  -26.3723 C   0  0  0  0  0  0  0  0  0  0  0  0
  -11.5243    6.2518  -28.6794 O   0  0  0  0  0  0  0  0  0  0  0  0
  -11.8344    7.1041  -29.7270 C   0  0  0  0  0  0  0  0  0  0  0  0
  -12.0980    8.9488  -28.0640 C   0  0  0  0  0  0  0  0  0  0  0  0
  -12.4770   10.2522  -27.7327 C   0  0  0  0  0  0  0  0  0  0  0  0
  -13.1018   10.6565  -29.9603 C   0  0  0  0  0  0  0  0  0  0  0  0
  1  3  1  0
 12  1  1  0
  1 13  2  0
  2 14  2  0
 15  2  1  0
  3 15  2  0
  5  4  2  0
  5  6  1  0
 11  5  1  0
  6  7  1  0
  6 10  2  0
  7  8  2  0
  9  8  1  0
 10  9  1  0
 11 12  1  0
 13 14  1  0
M  END
$$$$
