
     RDKit          3D

 15 16  0  0  0  0  0  0  0  0999 V2000
  -22.5182   19.4889  -12.5432 C   0  0  0  0  0  0  0  0  0  0  0  0
  -24.9554   18.5675  -11.4848 C   0  0  0  0  0  0  0  0  0  0  0  0
  -23.5040   20.3596  -12.0701 C   0  0  0  0  0  0  0  0  0  0  0  0
  -18.5294   20.4051  -13.7816 O   0  0  0  0  0  0  0  0  0  0  0  0
  -18.9630   19.2557  -13.6601 C   0  0  0  0  0  0  0  0  0  0  0  0
  -18.0616   18.1107  -13.8568 C   0  0  0  0  0  0  0  0  0  0  0  0
  -16.8389   18.1343  -14.4693 C   0  0  0  0  0  0  0  0  0  0  0  0
  -16.3249   16.8913  -14.4520 N   0  0  0  0  0  0  0  0  0  0  0  0
  -17.1982   16.1069  -13.8463 N   0  0  0  0  0  0  0  0  0  0  0  0
  -18.2781   16.8131  -13.4647 C   0  0  0  0  0  0  0  0  0  0  0  0
  -20.2708   19.0521  -13.3451 O   0  0  0  0  0  0  0  0  0  0  0  0
  -21.2520   20.0007  -13.1055 C   0  0  0  0  0  0  0  0  0  0  0  0
  -22.8024   18.1504  -12.4647 C   0  0  0  0  0  0  0  0  0  0  0  0
  -24.0147   17.6975  -11.9379 C   0  0  0  0  0  0  0  0  0  0  0  0
  -24.6958   19.9119  -11.5524 C   0  0  0  0  0  0  0  0  0  0  0  0
  1  3  1  0
 12  1  1  0
  1 13  2  0
  2 14  2  0
 15  2  1  0
  3 15  2  0
  5  4  2  0
  5  6  1  0
 11  5  1  0
  6  7  1  0
  6 10  2  0
  7  8  2  0
  9  8  1  0
 10  9  1  0
 11 12  1  0
 13 14  1  0
M  END
$$$$
