
     RDKit          3D

 15 16  0  0  0  0  0  0  0  0999 V2000
  -23.7628   19.9750  -11.8629 C   0  0  0  0  0  0  0  0  0  0  0  0
  -25.8283   19.4850  -10.0182 C   0  0  0  0  0  0  0  0  0  0  0  0
  -24.1140   20.8965  -10.8724 C   0  0  0  0  0  0  0  0  0  0  0  0
  -20.6289   20.0788  -14.7886 O   0  0  0  0  0  0  0  0  0  0  0  0
  -20.7380   19.2047  -13.9238 C   0  0  0  0  0  0  0  0  0  0  0  0
  -19.7283   18.1398  -13.8305 C   0  0  0  0  0  0  0  0  0  0  0  0
  -19.9172   16.8137  -14.1072 C   0  0  0  0  0  0  0  0  0  0  0  0
  -18.7581   16.1623  -13.9031 N   0  0  0  0  0  0  0  0  0  0  0  0
  -17.8645   17.0517  -13.5092 N   0  0  0  0  0  0  0  0  0  0  0  0
  -18.4163   18.2775  -13.4507 C   0  0  0  0  0  0  0  0  0  0  0  0
  -21.7899   19.2292  -13.0613 O   0  0  0  0  0  0  0  0  0  0  0  0
  -22.6817   20.2635  -12.8269 C   0  0  0  0  0  0  0  0  0  0  0  0
  -24.4833   18.8093  -11.8901 C   0  0  0  0  0  0  0  0  0  0  0  0
  -25.5085   18.5704  -10.9713 C   0  0  0  0  0  0  0  0  0  0  0  0
  -25.1230   20.6595   -9.9698 C   0  0  0  0  0  0  0  0  0  0  0  0
  1  3  1  0
 12  1  1  0
  1 13  2  0
  2 14  2  0
 15  2  1  0
  3 15  2  0
  5  4  2  0
  5  6  1  0
 11  5  1  0
  6  7  1  0
  6 10  2  0
  7  8  2  0
  9  8  1  0
 10  9  1  0
 11 12  1  0
 13 14  1  0
M  END
$$$$
