
     RDKit          3D

 15 16  0  0  0  0  0  0  0  0999 V2000
  -23.3310   20.3000  -12.2001 C   0  0  0  0  0  0  0  0  0  0  0  0
  -25.6313   19.7184  -10.7141 C   0  0  0  0  0  0  0  0  0  0  0  0
  -24.3148   21.2481  -12.0441 C   0  0  0  0  0  0  0  0  0  0  0  0
  -19.3055   20.5584  -13.3157 O   0  0  0  0  0  0  0  0  0  0  0  0
  -19.9391   19.4841  -13.2420 C   0  0  0  0  0  0  0  0  0  0  0  0
  -19.2541   18.2125  -13.3088 C   0  0  0  0  0  0  0  0  0  0  0  0
  -17.9160   18.0410  -13.5539 C   0  0  0  0  0  0  0  0  0  0  0  0
  -17.6690   16.7104  -13.5348 N   0  0  0  0  0  0  0  0  0  0  0  0
  -18.7999   16.0581  -13.2882 N   0  0  0  0  0  0  0  0  0  0  0  0
  -19.8028   16.9648  -13.1430 C   0  0  0  0  0  0  0  0  0  0  0  0
  -21.2920   19.5279  -13.0970 O   0  0  0  0  0  0  0  0  0  0  0  0
  -22.1227   20.6287  -12.9658 C   0  0  0  0  0  0  0  0  0  0  0  0
  -23.4986   19.0710  -11.6158 C   0  0  0  0  0  0  0  0  0  0  0  0
  -24.6364   18.7846  -10.8816 C   0  0  0  0  0  0  0  0  0  0  0  0
  -25.4601   20.9591  -11.3044 C   0  0  0  0  0  0  0  0  0  0  0  0
  1  3  1  0
 12  1  1  0
  1 13  2  0
  2 14  2  0
 15  2  1  0
  3 15  2  0
  5  4  2  0
  5  6  1  0
 11  5  1  0
  6  7  1  0
  6 10  2  0
  7  8  2  0
  9  8  1  0
 10  9  1  0
 12 11  1  6
 13 14  1  0
M  END
$$$$
