
     RDKit          3D

 15 16  0  0  0  0  0  0  0  0999 V2000
  -23.6452   19.8782  -11.4117 C   0  0  0  0  0  0  0  0  0  0  0  0
  -25.7048   19.2029   -9.6197 C   0  0  0  0  0  0  0  0  0  0  0  0
  -24.0207   20.7137  -10.3559 C   0  0  0  0  0  0  0  0  0  0  0  0
  -20.0372   20.6025  -13.5758 O   0  0  0  0  0  0  0  0  0  0  0  0
  -20.3478   19.5005  -13.1143 C   0  0  0  0  0  0  0  0  0  0  0  0
  -19.4006   18.3790  -13.2015 C   0  0  0  0  0  0  0  0  0  0  0  0
  -18.0854   18.4524  -13.5697 C   0  0  0  0  0  0  0  0  0  0  0  0
  -17.5568   17.2161  -13.5259 N   0  0  0  0  0  0  0  0  0  0  0  0
  -18.5109   16.3876  -13.1414 N   0  0  0  0  0  0  0  0  0  0  0  0
  -19.6585   17.0580  -12.9314 C   0  0  0  0  0  0  0  0  0  0  0  0
  -21.5629   19.3270  -12.5275 O   0  0  0  0  0  0  0  0  0  0  0  0
  -22.5679   20.2635  -12.3457 C   0  0  0  0  0  0  0  0  0  0  0  0
  -24.3386   18.7019  -11.5307 C   0  0  0  0  0  0  0  0  0  0  0  0
  -25.3610   18.3707  -10.6378 C   0  0  0  0  0  0  0  0  0  0  0  0
  -25.0268   20.3860   -9.4788 C   0  0  0  0  0  0  0  0  0  0  0  0
  1  3  1  0
 12  1  1  0
  1 13  2  0
  2 14  2  0
 15  2  1  0
  3 15  2  0
  5  4  2  0
  5  6  1  0
 11  5  1  0
  6  7  1  0
  6 10  2  0
  7  8  2  0
  9  8  1  0
 10  9  1  0
 11 12  1  0
 13 14  1  0
M  END
$$$$
