
     RDKit          3D

 15 16  0  0  0  0  0  0  0  0999 V2000
  -20.9536   17.8318  -14.0051 C   0  0  0  0  0  0  0  0  0  0  0  0
  -22.2232   19.3335  -12.0123 C   0  0  0  0  0  0  0  0  0  0  0  0
  -22.3264   17.8690  -13.9325 C   0  0  0  0  0  0  0  0  0  0  0  0
  -18.3668   15.5769  -16.5244 O   0  0  0  0  0  0  0  0  0  0  0  0
  -17.9899   16.3607  -15.6273 C   0  0  0  0  0  0  0  0  0  0  0  0
  -16.5845   16.5297  -15.3318 C   0  0  0  0  0  0  0  0  0  0  0  0
  -15.5543   15.8867  -15.9682 C   0  0  0  0  0  0  0  0  0  0  0  0
  -14.4009   16.3145  -15.4039 N   0  0  0  0  0  0  0  0  0  0  0  0
  -14.6804   17.1934  -14.4475 N   0  0  0  0  0  0  0  0  0  0  0  0
  -16.0297   17.3479  -14.3789 C   0  0  0  0  0  0  0  0  0  0  0  0
  -18.9269   17.0578  -14.9277 O   0  0  0  0  0  0  0  0  0  0  0  0
  -20.3049   17.0553  -15.0685 C   0  0  0  0  0  0  0  0  0  0  0  0
  -20.2235   18.5417  -13.0870 C   0  0  0  0  0  0  0  0  0  0  0  0
  -20.8523   19.2835  -12.1021 C   0  0  0  0  0  0  0  0  0  0  0  0
  -22.9588   18.6164  -12.9406 C   0  0  0  0  0  0  0  0  0  0  0  0
  1  3  1  0
 12  1  1  0
  1 13  2  0
  2 14  2  0
 15  2  1  0
  3 15  2  0
  5  4  2  0
  5  6  1  0
 11  5  1  0
  6  7  1  0
  6 10  2  0
  7  8  2  0
  9  8  1  0
 10  9  1  0
 12 11  1  6
 13 14  1  0
M  END
$$$$
