
     RDKit          3D

 15 16  0  0  0  0  0  0  0  0999 V2000
  -23.4004   20.1709  -12.0324 C   0  0  0  0  0  0  0  0  0  0  0  0
  -24.8006   20.7281   -9.6579 C   0  0  0  0  0  0  0  0  0  0  0  0
  -23.4360   19.2767  -10.9587 C   0  0  0  0  0  0  0  0  0  0  0  0
  -20.8978   18.8090  -15.2484 O   0  0  0  0  0  0  0  0  0  0  0  0
  -20.6881   18.5772  -14.0542 C   0  0  0  0  0  0  0  0  0  0  0  0
  -19.4623   17.8716  -13.6517 C   0  0  0  0  0  0  0  0  0  0  0  0
  -18.5437   17.2969  -14.4863 C   0  0  0  0  0  0  0  0  0  0  0  0
  -17.5663   16.7516  -13.7400 N   0  0  0  0  0  0  0  0  0  0  0  0
  -17.8601   16.9761  -12.4719 N   0  0  0  0  0  0  0  0  0  0  0  0
  -19.0145   17.6599  -12.3714 C   0  0  0  0  0  0  0  0  0  0  0  0
  -21.5897   18.9742  -13.1159 O   0  0  0  0  0  0  0  0  0  0  0  0
  -22.6467   19.8580  -13.2633 C   0  0  0  0  0  0  0  0  0  0  0  0
  -24.0889   21.3446  -11.8676 C   0  0  0  0  0  0  0  0  0  0  0  0
  -24.7832   21.6168  -10.6861 C   0  0  0  0  0  0  0  0  0  0  0  0
  -24.1195   19.5466   -9.7973 C   0  0  0  0  0  0  0  0  0  0  0  0
  1  3  1  0
 12  1  1  0
  1 13  2  0
  2 14  2  0
 15  2  1  0
  3 15  2  0
  5  4  2  0
  5  6  1  0
 11  5  1  0
  6  7  1  0
  6 10  2  0
  7  8  2  0
  9  8  1  0
 10  9  1  0
 11 12  1  0
 13 14  1  0
M  END
$$$$
