
     RDKit          3D

 15 16  0  0  0  0  0  0  0  0999 V2000
  -23.1661   19.8535  -12.0031 C   0  0  0  0  0  0  0  0  0  0  0  0
  -24.0744   20.8836   -9.5634 C   0  0  0  0  0  0  0  0  0  0  0  0
  -22.3495   20.6560  -11.2413 C   0  0  0  0  0  0  0  0  0  0  0  0
  -21.2430   17.5781  -15.0172 O   0  0  0  0  0  0  0  0  0  0  0  0
  -20.6881   17.9854  -13.9745 C   0  0  0  0  0  0  0  0  0  0  0  0
  -19.3261   17.6120  -13.6642 C   0  0  0  0  0  0  0  0  0  0  0  0
  -18.5432   16.7669  -14.4078 C   0  0  0  0  0  0  0  0  0  0  0  0
  -17.3441   16.6759  -13.7869 N   0  0  0  0  0  0  0  0  0  0  0  0
  -17.3584   17.4299  -12.6930 N   0  0  0  0  0  0  0  0  0  0  0  0
  -18.5771   18.0244  -12.5899 C   0  0  0  0  0  0  0  0  0  0  0  0
  -21.3883   18.7909  -13.1294 O   0  0  0  0  0  0  0  0  0  0  0  0
  -22.6665   19.3060  -13.2700 C   0  0  0  0  0  0  0  0  0  0  0  0
  -24.4270   19.5693  -11.5456 C   0  0  0  0  0  0  0  0  0  0  0  0
  -24.8750   20.0794  -10.3394 C   0  0  0  0  0  0  0  0  0  0  0  0
  -22.8012   21.1690  -10.0267 C   0  0  0  0  0  0  0  0  0  0  0  0
  1  3  1  0
 12  1  1  0
  1 13  2  0
  2 14  2  0
 15  2  1  0
  3 15  2  0
  5  4  2  0
  5  6  1  0
 11  5  1  0
  6  7  1  0
  6 10  2  0
  7  8  2  0
  9  8  1  0
 10  9  1  0
 12 11  1  6
 13 14  1  0
M  END
$$$$
