
     RDKit          3D

 15 16  0  0  0  0  0  0  0  0999 V2000
  -23.5585   20.3710  -11.9152 C   0  0  0  0  0  0  0  0  0  0  0  0
  -25.9108   19.7412  -10.5084 C   0  0  0  0  0  0  0  0  0  0  0  0
  -23.6840   19.2061  -11.1530 C   0  0  0  0  0  0  0  0  0  0  0  0
  -19.7149   20.7062  -13.7817 O   0  0  0  0  0  0  0  0  0  0  0  0
  -20.1680   19.6546  -13.3203 C   0  0  0  0  0  0  0  0  0  0  0  0
  -19.3514   18.4321  -13.3508 C   0  0  0  0  0  0  0  0  0  0  0  0
  -19.7841   17.1588  -13.1017 C   0  0  0  0  0  0  0  0  0  0  0  0
  -18.7418   16.3178  -13.2279 N   0  0  0  0  0  0  0  0  0  0  0  0
  -17.6829   17.0399  -13.5472 N   0  0  0  0  0  0  0  0  0  0  0  0
  -18.0110   18.3420  -13.6332 C   0  0  0  0  0  0  0  0  0  0  0  0
  -21.4190   19.6299  -12.7860 O   0  0  0  0  0  0  0  0  0  0  0  0
  -22.3067   20.6830  -12.6342 C   0  0  0  0  0  0  0  0  0  0  0  0
  -24.6504   21.1989  -11.9423 C   0  0  0  0  0  0  0  0  0  0  0  0
  -25.8170   20.8817  -11.2418 C   0  0  0  0  0  0  0  0  0  0  0  0
  -24.8324   18.8960  -10.4646 C   0  0  0  0  0  0  0  0  0  0  0  0
  1  3  1  0
 12  1  1  0
  1 13  2  0
  2 14  2  0
 15  2  1  0
  3 15  2  0
  5  4  2  0
  5  6  1  0
 11  5  1  0
  6  7  1  0
  6 10  2  0
  7  8  2  0
  9  8  1  0
 10  9  1  0
 11 12  1  0
 13 14  1  0
M  END
$$$$
