
     RDKit          3D

 15 16  0  0  0  0  0  0  0  0999 V2000
  -23.4970   19.3598  -12.1236 C   0  0  0  0  0  0  0  0  0  0  0  0
  -26.0081   18.2895  -11.4468 C   0  0  0  0  0  0  0  0  0  0  0  0
  -24.3247   19.9466  -11.1622 C   0  0  0  0  0  0  0  0  0  0  0  0
  -19.4766   20.4714  -13.1231 O   0  0  0  0  0  0  0  0  0  0  0  0
  -19.8747   19.3054  -13.0475 C   0  0  0  0  0  0  0  0  0  0  0  0
  -18.9256   18.1967  -13.2275 C   0  0  0  0  0  0  0  0  0  0  0  0
  -17.5674   18.3009  -13.3504 C   0  0  0  0  0  0  0  0  0  0  0  0
  -17.0529   17.0668  -13.4984 N   0  0  0  0  0  0  0  0  0  0  0  0
  -18.0574   16.2096  -13.4695 N   0  0  0  0  0  0  0  0  0  0  0  0
  -19.2243   16.8590  -13.3051 C   0  0  0  0  0  0  0  0  0  0  0  0
  -21.1876   19.0500  -12.7985 O   0  0  0  0  0  0  0  0  0  0  0  0
  -22.1879   19.9503  -12.4685 C   0  0  0  0  0  0  0  0  0  0  0  0
  -23.9759   18.2255  -12.7258 C   0  0  0  0  0  0  0  0  0  0  0  0
  -25.2241   17.6974  -12.3860 C   0  0  0  0  0  0  0  0  0  0  0  0
  -25.5523   19.4256  -10.8297 C   0  0  0  0  0  0  0  0  0  0  0  0
  1  3  1  0
 12  1  1  0
  1 13  2  0
  2 14  2  0
 15  2  1  0
  3 15  2  0
  5  4  2  0
  5  6  1  0
 11  5  1  0
  6  7  1  0
  6 10  2  0
  7  8  2  0
  9  8  1  0
 10  9  1  0
 11 12  1  0
 13 14  1  0
M  END
$$$$
