
     RDKit          3D

 15 16  0  0  0  0  0  0  0  0999 V2000
  -12.8848    9.9051  -28.2104 C   0  0  0  0  0  0  0  0  0  0  0  0
  -12.2070    7.8131  -29.9430 C   0  0  0  0  0  0  0  0  0  0  0  0
  -12.4750   10.1731  -29.4954 C   0  0  0  0  0  0  0  0  0  0  0  0
  -12.8206   12.6280  -25.0270 O   0  0  0  0  0  0  0  0  0  0  0  0
  -13.0148   11.4021  -24.8836 C   0  0  0  0  0  0  0  0  0  0  0  0
  -13.0397   10.8037  -23.5674 C   0  0  0  0  0  0  0  0  0  0  0  0
  -12.8351   11.4693  -22.3863 C   0  0  0  0  0  0  0  0  0  0  0  0
  -12.9396   10.5617  -21.3877 N   0  0  0  0  0  0  0  0  0  0  0  0
  -13.1998    9.3667  -21.9069 N   0  0  0  0  0  0  0  0  0  0  0  0
  -13.2679    9.4852  -23.2598 C   0  0  0  0  0  0  0  0  0  0  0  0
  -13.2039   10.6329  -25.9908 O   0  0  0  0  0  0  0  0  0  0  0  0
  -13.2553   11.0131  -27.3218 C   0  0  0  0  0  0  0  0  0  0  0  0
  -12.9547    8.5995  -27.7975 C   0  0  0  0  0  0  0  0  0  0  0  0
  -12.6191    7.5661  -28.6549 C   0  0  0  0  0  0  0  0  0  0  0  0
  -12.1375    9.1321  -30.3583 C   0  0  0  0  0  0  0  0  0  0  0  0
  1  3  1  0
 12  1  1  0
  1 13  2  0
  2 14  2  0
 15  2  1  0
  3 15  2  0
  5  4  2  0
  5  6  1  0
 11  5  1  0
  6  7  1  0
  6 10  2  0
  7  8  2  0
  9  8  1  0
 10  9  1  0
 12 11  1  6
 13 14  1  0
M  END
$$$$
