
     RDKit          3D

 15 16  0  0  0  0  0  0  0  0999 V2000
  -13.0786    9.6705  -28.6127 C   0  0  0  0  0  0  0  0  0  0  0  0
  -12.1354    7.6979  -30.3815 C   0  0  0  0  0  0  0  0  0  0  0  0
  -13.6946    8.4220  -28.7367 C   0  0  0  0  0  0  0  0  0  0  0  0
  -13.5382   12.5986  -25.5809 O   0  0  0  0  0  0  0  0  0  0  0  0
  -13.3638   11.4024  -25.3305 C   0  0  0  0  0  0  0  0  0  0  0  0
  -13.2113   10.9632  -23.9354 C   0  0  0  0  0  0  0  0  0  0  0  0
  -13.0369   11.7686  -22.8438 C   0  0  0  0  0  0  0  0  0  0  0  0
  -12.9378   10.9936  -21.7488 N   0  0  0  0  0  0  0  0  0  0  0  0
  -13.0465    9.7363  -22.1387 N   0  0  0  0  0  0  0  0  0  0  0  0
  -13.2154    9.6710  -23.4720 C   0  0  0  0  0  0  0  0  0  0  0  0
  -13.3134   10.4960  -26.3438 O   0  0  0  0  0  0  0  0  0  0  0  0
  -13.6026   10.6929  -27.6845 C   0  0  0  0  0  0  0  0  0  0  0  0
  -11.9812    9.8870  -29.4048 C   0  0  0  0  0  0  0  0  0  0  0  0
  -11.5162    8.9037  -30.2820 C   0  0  0  0  0  0  0  0  0  0  0  0
  -13.2357    7.4563  -29.6003 C   0  0  0  0  0  0  0  0  0  0  0  0
  1  3  1  0
 12  1  1  0
  1 13  2  0
  2 14  2  0
 15  2  1  0
  3 15  2  0
  5  4  2  0
  5  6  1  0
 11  5  1  0
  6  7  1  0
  6 10  2  0
  7  8  2  0
  9  8  1  0
 10  9  1  0
 11 12  1  0
 13 14  1  0
M  END
$$$$
