
     RDKit          3D

 15 16  0  0  0  0  0  0  0  0999 V2000
  -12.8619    9.6803  -28.3541 C   0  0  0  0  0  0  0  0  0  0  0  0
  -11.2697   10.5014  -30.5055 C   0  0  0  0  0  0  0  0  0  0  0  0
  -12.5124    8.7871  -29.3396 C   0  0  0  0  0  0  0  0  0  0  0  0
  -14.4808    8.7146  -24.5455 O   0  0  0  0  0  0  0  0  0  0  0  0
  -13.7559    9.7026  -24.7894 C   0  0  0  0  0  0  0  0  0  0  0  0
  -13.2782   10.5538  -23.7226 C   0  0  0  0  0  0  0  0  0  0  0  0
  -13.5141   10.3628  -22.3855 C   0  0  0  0  0  0  0  0  0  0  0  0
  -12.9011   11.3688  -21.7192 N   0  0  0  0  0  0  0  0  0  0  0  0
  -12.2987   12.1694  -22.5919 N   0  0  0  0  0  0  0  0  0  0  0  0
  -12.5152   11.6887  -23.8454 C   0  0  0  0  0  0  0  0  0  0  0  0
  -13.4201    9.9680  -26.0817 O   0  0  0  0  0  0  0  0  0  0  0  0
  -13.6808    9.2277  -27.2231 C   0  0  0  0  0  0  0  0  0  0  0  0
  -12.4167   10.9738  -28.4459 C   0  0  0  0  0  0  0  0  0  0  0  0
  -11.6298   11.3787  -29.5102 C   0  0  0  0  0  0  0  0  0  0  0  0
  -11.7198    9.1954  -30.4107 C   0  0  0  0  0  0  0  0  0  0  0  0
  1  3  1  0
 12  1  1  0
  1 13  2  0
  2 14  2  0
 15  2  1  0
  3 15  2  0
  5  4  2  0
  5  6  1  0
 11  5  1  0
  6  7  1  0
  6 10  2  0
  7  8  2  0
  9  8  1  0
 10  9  1  0
 12 11  1  6
 13 14  1  0
M  END
$$$$
