
     RDKit          3D

 14 14  0  0  0  0  0  0  0  0999 V2000
  -22.2369   12.0140  -15.6004 C   0  0  0  0  0  0  0  0  0  0  0  0
  -22.1184   12.0771  -17.0755 C   0  0  0  0  0  0  0  0  0  0  0  0
  -22.0429   18.2250  -14.4203 C   0  0  0  0  0  0  0  0  0  0  0  0
  -22.7348   18.0731  -13.1990 O   0  0  0  0  0  0  0  0  0  0  0  0
  -22.7397   16.8339  -12.5866 C   0  0  0  0  0  0  0  0  0  0  0  0
  -22.8293   16.7085  -11.2181 C   0  0  0  0  0  0  0  0  0  0  0  0
  -22.9156   17.8459  -10.4519 O   0  0  0  0  0  0  0  0  0  0  0  0
  -22.8336   15.4608  -10.6106 C   0  0  0  0  0  0  0  0  0  0  0  0
  -22.7490   14.3153  -11.3494 C   0  0  0  0  0  0  0  0  0  0  0  0
  -22.6575   14.4223  -12.7365 C   0  0  0  0  0  0  0  0  0  0  0  0
  -22.6547   15.6587  -13.3188 C   0  0  0  0  0  0  0  0  0  0  0  0
  -22.5684   13.2184  -13.5148 C   0  0  0  0  0  0  0  0  0  0  0  0
  -22.4891   13.2216  -14.8162 C   0  0  0  0  0  0  0  0  0  0  0  0
  -22.1151   10.8985  -15.0458 O   0  0  0  0  0  0  0  0  0  0  0  0
  2  1  1  6
 13  1  1  0
  1 14  2  0
  3  4  1  6
  5  4  1  0
  5  6  2  0
 11  5  1  0
  6  7  1  0
  8  6  1  0
  9  8  2  0
 10  9  1  0
 10 11  2  0
 12 10  1  0
 12 13  2  0
M  END
$$$$
