
     RDKit          3D

 14 14  0  0  0  0  0  0  0  0999 V2000
  -22.6229   17.7884  -12.6028 C   0  0  0  0  0  0  0  0  0  0  0  0
  -22.5375   18.9548  -13.5051 C   0  0  0  0  0  0  0  0  0  0  0  0
  -21.7119   13.3242  -16.9050 C   0  0  0  0  0  0  0  0  0  0  0  0
  -21.8757   12.2319  -16.0077 O   0  0  0  0  0  0  0  0  0  0  0  0
  -22.1606   12.4812  -14.6482 C   0  0  0  0  0  0  0  0  0  0  0  0
  -22.2705   11.3950  -13.8070 C   0  0  0  0  0  0  0  0  0  0  0  0
  -22.1039   10.1032  -14.2946 O   0  0  0  0  0  0  0  0  0  0  0  0
  -22.5473   11.6038  -12.4771 C   0  0  0  0  0  0  0  0  0  0  0  0
  -22.7096   12.8923  -12.0098 C   0  0  0  0  0  0  0  0  0  0  0  0
  -22.6064   13.9980  -12.8231 C   0  0  0  0  0  0  0  0  0  0  0  0
  -22.3239   13.7523  -14.1714 C   0  0  0  0  0  0  0  0  0  0  0  0
  -22.7731   15.3707  -12.3569 C   0  0  0  0  0  0  0  0  0  0  0  0
  -22.6504   16.4071  -13.1350 C   0  0  0  0  0  0  0  0  0  0  0  0
  -22.6718   18.0060  -11.3654 O   0  0  0  0  0  0  0  0  0  0  0  0
  1  2  1  0
 13  1  1  0
  1 14  2  0
  4  3  1  0
  5  4  1  0
  5  6  2  0
 11  5  1  0
  6  7  1  0
  8  6  1  0
  9  8  2  0
 10  9  1  0
 10 11  2  0
 12 10  1  0
 12 13  2  0
M  END
$$$$
