
     RDKit          3D

 14 14  0  0  0  0  0  0  0  0999 V2000
  -22.0884   12.1293  -13.9597 C   0  0  0  0  0  0  0  0  0  0  0  0
  -22.6038   11.5641  -12.6961 C   0  0  0  0  0  0  0  0  0  0  0  0
  -22.4446   17.5938  -17.4543 C   0  0  0  0  0  0  0  0  0  0  0  0
  -22.0507   18.3212  -16.2964 O   0  0  0  0  0  0  0  0  0  0  0  0
  -22.2761   17.7720  -15.0161 C   0  0  0  0  0  0  0  0  0  0  0  0
  -22.4242   18.6463  -13.9609 C   0  0  0  0  0  0  0  0  0  0  0  0
  -22.3517   20.0201  -14.1653 O   0  0  0  0  0  0  0  0  0  0  0  0
  -22.6449   18.1434  -12.7012 C   0  0  0  0  0  0  0  0  0  0  0  0
  -22.7140   16.7774  -12.5160 C   0  0  0  0  0  0  0  0  0  0  0  0
  -22.5705   15.8778  -13.5478 C   0  0  0  0  0  0  0  0  0  0  0  0
  -22.3470   16.4209  -14.8179 C   0  0  0  0  0  0  0  0  0  0  0  0
  -22.6387   14.4296  -13.3816 C   0  0  0  0  0  0  0  0  0  0  0  0
  -22.0544   13.5917  -14.1885 C   0  0  0  0  0  0  0  0  0  0  0  0
  -21.6785   11.3276  -14.8372 O   0  0  0  0  0  0  0  0  0  0  0  0
  1  2  1  0
 13  1  1  0
  1 14  2  0
  4  3  1  0
  5  4  1  0
  5  6  2  0
 11  5  1  0
  6  7  1  0
  8  6  1  0
  9  8  2  0
 10  9  1  0
 10 11  2  0
 12 10  1  0
 12 13  2  0
M  END
$$$$
