
     RDKit          3D

 14 14  0  0  0  0  0  0  0  0999 V2000
  -22.6195   18.0994  -13.4753 C   0  0  0  0  0  0  0  0  0  0  0  0
  -22.9352   18.6994  -12.1630 C   0  0  0  0  0  0  0  0  0  0  0  0
  -21.4440   12.5383  -17.0702 C   0  0  0  0  0  0  0  0  0  0  0  0
  -22.3446   11.9823  -16.1190 O   0  0  0  0  0  0  0  0  0  0  0  0
  -22.3664   12.4852  -14.8006 C   0  0  0  0  0  0  0  0  0  0  0  0
  -22.5043   11.5789  -13.7714 C   0  0  0  0  0  0  0  0  0  0  0  0
  -22.6170   10.2185  -14.0374 O   0  0  0  0  0  0  0  0  0  0  0  0
  -22.5292   12.0364  -12.4757 C   0  0  0  0  0  0  0  0  0  0  0  0
  -22.4161   13.3898  -12.2295 C   0  0  0  0  0  0  0  0  0  0  0  0
  -22.2772   14.3204  -13.2340 C   0  0  0  0  0  0  0  0  0  0  0  0
  -22.2554   13.8233  -14.5418 C   0  0  0  0  0  0  0  0  0  0  0  0
  -22.1558   15.7563  -13.0033 C   0  0  0  0  0  0  0  0  0  0  0  0
  -22.7836   16.6476  -13.7146 C   0  0  0  0  0  0  0  0  0  0  0  0
  -22.2060   18.8624  -14.3852 O   0  0  0  0  0  0  0  0  0  0  0  0
  1  2  1  0
 13  1  1  0
  1 14  2  0
  4  3  1  0
  5  4  1  0
  5  6  2  0
 11  5  1  0
  6  7  1  0
  8  6  1  0
  9  8  2  0
 10  9  1  0
 10 11  2  0
 12 10  1  0
 12 13  2  0
M  END
$$$$
