
     RDKit          3D

 14 14  0  0  0  0  0  0  0  0999 V2000
  -22.2735   18.5102  -13.3628 C   0  0  0  0  0  0  0  0  0  0  0  0
  -22.6551   19.0489  -12.0414 C   0  0  0  0  0  0  0  0  0  0  0  0
  -21.1503   11.7972  -16.2753 C   0  0  0  0  0  0  0  0  0  0  0  0
  -22.3537   12.4027  -15.8167 O   0  0  0  0  0  0  0  0  0  0  0  0
  -22.4257   12.9038  -14.4994 C   0  0  0  0  0  0  0  0  0  0  0  0
  -22.4582   11.9908  -13.4674 C   0  0  0  0  0  0  0  0  0  0  0  0
  -22.4206   10.6255  -13.7297 O   0  0  0  0  0  0  0  0  0  0  0  0
  -22.5283   12.4465  -12.1728 C   0  0  0  0  0  0  0  0  0  0  0  0
  -22.5648   13.8047  -11.9303 C   0  0  0  0  0  0  0  0  0  0  0  0
  -22.5340   14.7422  -12.9376 C   0  0  0  0  0  0  0  0  0  0  0  0
  -22.4626   14.2467  -14.2443 C   0  0  0  0  0  0  0  0  0  0  0  0
  -22.5714   16.1833  -12.7109 C   0  0  0  0  0  0  0  0  0  0  0  0
  -22.3286   17.0577  -13.6442 C   0  0  0  0  0  0  0  0  0  0  0  0
  -21.8994   19.3260  -14.2433 O   0  0  0  0  0  0  0  0  0  0  0  0
  1  2  1  0
 13  1  1  0
  1 14  2  0
  4  3  1  0
  5  4  1  0
  5  6  2  0
 11  5  1  0
  6  7  1  0
  8  6  1  0
  9  8  2  0
 10  9  1  0
 10 11  2  0
 12 10  1  0
 12 13  2  0
M  END
$$$$
