
     RDKit          3D

 14 14  0  0  0  0  0  0  0  0999 V2000
  -22.7704   11.6243  -14.0026 C   0  0  0  0  0  0  0  0  0  0  0  0
  -22.6890   10.8576  -12.7427 C   0  0  0  0  0  0  0  0  0  0  0  0
  -21.3006   18.3797  -15.9659 C   0  0  0  0  0  0  0  0  0  0  0  0
  -22.5901   18.0451  -15.4656 O   0  0  0  0  0  0  0  0  0  0  0  0
  -22.7061   17.3439  -14.2465 C   0  0  0  0  0  0  0  0  0  0  0  0
  -22.8985   18.0821  -13.0985 C   0  0  0  0  0  0  0  0  0  0  0  0
  -22.9739   19.4697  -13.1544 O   0  0  0  0  0  0  0  0  0  0  0  0
  -23.0154   17.4292  -11.8948 C   0  0  0  0  0  0  0  0  0  0  0  0
  -22.9382   16.0517  -11.8573 C   0  0  0  0  0  0  0  0  0  0  0  0
  -22.7468   15.2855  -12.9846 C   0  0  0  0  0  0  0  0  0  0  0  0
  -22.6316   15.9795  -14.1943 C   0  0  0  0  0  0  0  0  0  0  0  0
  -22.6612   13.8288  -12.9748 C   0  0  0  0  0  0  0  0  0  0  0  0
  -22.9831   13.0895  -13.9967 C   0  0  0  0  0  0  0  0  0  0  0  0
  -22.6530   10.9920  -15.0831 O   0  0  0  0  0  0  0  0  0  0  0  0
  1  2  1  0
 13  1  1  0
  1 14  2  0
  4  3  1  0
  5  4  1  0
  5  6  2  0
 11  5  1  0
  6  7  1  0
  8  6  1  0
  9  8  2  0
 10  9  1  0
 10 11  2  0
 12 10  1  0
 12 13  2  0
M  END
$$$$
