
     RDKit          3D

 14 14  0  0  0  0  0  0  0  0999 V2000
  -22.3323   18.2545  -13.6825 C   0  0  0  0  0  0  0  0  0  0  0  0
  -22.7107   18.7276  -12.3309 C   0  0  0  0  0  0  0  0  0  0  0  0
  -21.9935   13.1997  -17.3430 C   0  0  0  0  0  0  0  0  0  0  0  0
  -22.1035   12.2456  -16.3080 O   0  0  0  0  0  0  0  0  0  0  0  0
  -22.2933   12.6881  -15.0124 C   0  0  0  0  0  0  0  0  0  0  0  0
  -22.4080   11.8062  -13.9609 C   0  0  0  0  0  0  0  0  0  0  0  0
  -22.3307   10.4579  -14.2144 O   0  0  0  0  0  0  0  0  0  0  0  0
  -22.5986   12.2582  -12.6628 C   0  0  0  0  0  0  0  0  0  0  0  0
  -22.6788   13.5928  -12.3843 C   0  0  0  0  0  0  0  0  0  0  0  0
  -22.5649   14.5010  -13.4360 C   0  0  0  0  0  0  0  0  0  0  0  0
  -22.3775   14.0391  -14.7086 C   0  0  0  0  0  0  0  0  0  0  0  0
  -22.6492   15.9049  -13.1447 C   0  0  0  0  0  0  0  0  0  0  0  0
  -22.2755   16.8262  -13.9883 C   0  0  0  0  0  0  0  0  0  0  0  0
  -22.0630   19.1119  -14.5539 O   0  0  0  0  0  0  0  0  0  0  0  0
  2  1  1  6
 13  1  1  0
  1 14  2  0
  3  4  1  6
  5  4  1  0
  5  6  2  0
 11  5  1  0
  6  7  1  0
  8  6  1  0
  9  8  2  0
 10  9  1  0
 10 11  2  0
 12 10  1  0
 12 13  2  0
M  END
$$$$
