
     RDKit          3D

 14 14  0  0  0  0  0  0  0  0999 V2000
  -22.2436   11.4537  -13.8208 C   0  0  0  0  0  0  0  0  0  0  0  0
  -22.5306   10.6183  -12.6318 C   0  0  0  0  0  0  0  0  0  0  0  0
  -23.2407   19.2664  -14.5958 C   0  0  0  0  0  0  0  0  0  0  0  0
  -22.5998   18.0089  -14.6324 O   0  0  0  0  0  0  0  0  0  0  0  0
  -22.7040   17.1767  -13.5336 C   0  0  0  0  0  0  0  0  0  0  0  0
  -22.7491   17.6796  -12.2524 C   0  0  0  0  0  0  0  0  0  0  0  0
  -22.6886   19.0403  -12.0713 O   0  0  0  0  0  0  0  0  0  0  0  0
  -22.8537   16.8375  -11.1543 C   0  0  0  0  0  0  0  0  0  0  0  0
  -22.9154   15.4818  -11.3073 C   0  0  0  0  0  0  0  0  0  0  0  0
  -22.8712   14.9541  -12.5970 C   0  0  0  0  0  0  0  0  0  0  0  0
  -22.7680   15.7973  -13.6676 C   0  0  0  0  0  0  0  0  0  0  0  0
  -22.9359   13.5284  -12.7594 C   0  0  0  0  0  0  0  0  0  0  0  0
  -22.3980   12.9065  -13.7712 C   0  0  0  0  0  0  0  0  0  0  0  0
  -21.8655   10.8806  -14.8674 O   0  0  0  0  0  0  0  0  0  0  0  0
  2  1  1  6
 13  1  1  0
  1 14  2  0
  3  4  1  6
  5  4  1  0
  5  6  2  0
 11  5  1  0
  6  7  1  0
  8  6  1  0
  9  8  2  0
 10  9  1  0
 10 11  2  0
 12 10  1  0
 12 13  2  0
M  END
$$$$
