
     RDKit          3D

 14 14  0  0  0  0  0  0  0  0999 V2000
  -22.2519   12.4488  -13.5437 C   0  0  0  0  0  0  0  0  0  0  0  0
  -23.1021   12.2185  -12.3579 C   0  0  0  0  0  0  0  0  0  0  0  0
  -22.7402   19.5010  -11.9332 C   0  0  0  0  0  0  0  0  0  0  0  0
  -22.5047   19.6464  -13.3291 O   0  0  0  0  0  0  0  0  0  0  0  0
  -22.4840   18.5036  -14.1568 C   0  0  0  0  0  0  0  0  0  0  0  0
  -22.2827   18.6939  -15.5069 C   0  0  0  0  0  0  0  0  0  0  0  0
  -22.1075   19.9738  -16.0223 O   0  0  0  0  0  0  0  0  0  0  0  0
  -22.2571   17.6014  -16.3403 C   0  0  0  0  0  0  0  0  0  0  0  0
  -22.4327   16.3383  -15.8123 C   0  0  0  0  0  0  0  0  0  0  0  0
  -22.6357   16.1141  -14.4695 C   0  0  0  0  0  0  0  0  0  0  0  0
  -22.6565   17.2463  -13.6475 C   0  0  0  0  0  0  0  0  0  0  0  0
  -22.8242   14.7908  -13.8838 C   0  0  0  0  0  0  0  0  0  0  0  0
  -21.9723   13.8179  -14.0331 C   0  0  0  0  0  0  0  0  0  0  0  0
  -21.7719   11.4431  -14.1259 O   0  0  0  0  0  0  0  0  0  0  0  0
  1  2  1  0
 13  1  1  0
  1 14  2  0
  4  3  1  0
  5  4  1  0
  5  6  2  0
 11  5  1  0
  6  7  1  0
  8  6  1  0
  9  8  2  0
 10  9  1  0
 10 11  2  0
 12 10  1  0
 12 13  2  0
M  END
$$$$
