
     RDKit          3D

 14 14  0  0  0  0  0  0  0  0999 V2000
  -22.3417   18.1448  -13.6696 C   0  0  0  0  0  0  0  0  0  0  0  0
  -22.7749   18.7080  -12.3746 C   0  0  0  0  0  0  0  0  0  0  0  0
  -21.7823   12.8044  -17.0315 C   0  0  0  0  0  0  0  0  0  0  0  0
  -22.2667   11.9764  -15.9804 O   0  0  0  0  0  0  0  0  0  0  0  0
  -22.4167   12.5106  -14.6829 C   0  0  0  0  0  0  0  0  0  0  0  0
  -22.4954   11.6244  -13.6302 C   0  0  0  0  0  0  0  0  0  0  0  0
  -22.4279   10.2533  -13.8536 O   0  0  0  0  0  0  0  0  0  0  0  0
  -22.6418   12.1125  -12.3539 C   0  0  0  0  0  0  0  0  0  0  0  0
  -22.7070   13.4760  -12.1500 C   0  0  0  0  0  0  0  0  0  0  0  0
  -22.6316   14.3874  -13.1788 C   0  0  0  0  0  0  0  0  0  0  0  0
  -22.4828   13.8591  -14.4660 C   0  0  0  0  0  0  0  0  0  0  0  0
  -22.6979   15.8332  -12.9929 C   0  0  0  0  0  0  0  0  0  0  0  0
  -22.3760   16.6863  -13.9220 C   0  0  0  0  0  0  0  0  0  0  0  0
  -21.9419   18.9450  -14.5533 O   0  0  0  0  0  0  0  0  0  0  0  0
  1  2  1  0
 13  1  1  0
  1 14  2  0
  4  3  1  0
  5  4  1  0
  5  6  2  0
 11  5  1  0
  6  7  1  0
  8  6  1  0
  9  8  2  0
 10  9  1  0
 10 11  2  0
 12 10  1  0
 12 13  2  0
M  END
$$$$
