
     RDKit          3D

 14 14  0  0  0  0  0  0  0  0999 V2000
  -22.2961   12.8885  -13.7104 C   0  0  0  0  0  0  0  0  0  0  0  0
  -22.6164   12.6465  -12.2846 C   0  0  0  0  0  0  0  0  0  0  0  0
  -23.8297   20.3316  -12.2486 C   0  0  0  0  0  0  0  0  0  0  0  0
  -22.6170   20.1362  -12.9447 O   0  0  0  0  0  0  0  0  0  0  0  0
  -22.4940   19.0351  -13.7711 C   0  0  0  0  0  0  0  0  0  0  0  0
  -22.3147   19.1721  -15.1296 C   0  0  0  0  0  0  0  0  0  0  0  0
  -22.2579   20.4353  -15.6672 O   0  0  0  0  0  0  0  0  0  0  0  0
  -22.1921   18.0616  -15.9528 C   0  0  0  0  0  0  0  0  0  0  0  0
  -22.2452   16.7956  -15.4434 C   0  0  0  0  0  0  0  0  0  0  0  0
  -22.4262   16.6369  -14.0701 C   0  0  0  0  0  0  0  0  0  0  0  0
  -22.5452   17.7411  -13.2736 C   0  0  0  0  0  0  0  0  0  0  0  0
  -22.4823   15.3060  -13.5329 C   0  0  0  0  0  0  0  0  0  0  0  0
  -22.3296   14.2396  -14.2674 C   0  0  0  0  0  0  0  0  0  0  0  0
  -21.9965   11.9042  -14.4232 O   0  0  0  0  0  0  0  0  0  0  0  0
  2  1  1  6
 13  1  1  0
  1 14  2  0
  3  4  1  6
  5  4  1  0
  5  6  2  0
 11  5  1  0
  6  7  1  0
  8  6  1  0
  9  8  2  0
 10  9  1  0
 10 11  2  0
 12 10  1  0
 12 13  2  0
M  END
$$$$
