
     RDKit          3D

 14 14  0  0  0  0  0  0  0  0999 V2000
  -22.6375   18.2173  -13.6655 C   0  0  0  0  0  0  0  0  0  0  0  0
  -22.9682   18.7217  -12.3172 C   0  0  0  0  0  0  0  0  0  0  0  0
  -21.5972   12.8472  -17.1306 C   0  0  0  0  0  0  0  0  0  0  0  0
  -22.4245   12.1584  -16.1999 O   0  0  0  0  0  0  0  0  0  0  0  0
  -22.5285   12.6311  -14.8743 C   0  0  0  0  0  0  0  0  0  0  0  0
  -22.5819   11.6962  -13.8630 C   0  0  0  0  0  0  0  0  0  0  0  0
  -22.5339   10.3369  -14.1533 O   0  0  0  0  0  0  0  0  0  0  0  0
  -22.6833   12.1239  -12.5609 C   0  0  0  0  0  0  0  0  0  0  0  0
  -22.7297   13.4766  -12.2904 C   0  0  0  0  0  0  0  0  0  0  0  0
  -22.6786   14.4354  -13.2766 C   0  0  0  0  0  0  0  0  0  0  0  0
  -22.5755   13.9682  -14.5916 C   0  0  0  0  0  0  0  0  0  0  0  0
  -22.7259   15.8712  -13.0202 C   0  0  0  0  0  0  0  0  0  0  0  0
  -22.6237   16.7663  -13.9598 C   0  0  0  0  0  0  0  0  0  0  0  0
  -22.3674   19.0609  -14.5578 O   0  0  0  0  0  0  0  0  0  0  0  0
  1  2  1  0
 13  1  1  0
  1 14  2  0
  4  3  1  0
  5  4  1  0
  5  6  2  0
 11  5  1  0
  6  7  1  0
  8  6  1  0
  9  8  2  0
 10  9  1  0
 10 11  2  0
 12 10  1  0
 12 13  2  0
M  END
$$$$
