
     RDKit          3D

 14 14  0  0  0  0  0  0  0  0999 V2000
  -22.3676   12.0161  -13.5030 C   0  0  0  0  0  0  0  0  0  0  0  0
  -22.7385   11.4914  -12.1729 C   0  0  0  0  0  0  0  0  0  0  0  0
  -22.8234   17.5172  -17.1357 C   0  0  0  0  0  0  0  0  0  0  0  0
  -22.2224   18.1220  -15.9963 O   0  0  0  0  0  0  0  0  0  0  0  0
  -22.5026   17.6178  -14.7084 C   0  0  0  0  0  0  0  0  0  0  0  0
  -22.7228   18.5287  -13.6977 C   0  0  0  0  0  0  0  0  0  0  0  0
  -22.6677   19.8948  -13.9525 O   0  0  0  0  0  0  0  0  0  0  0  0
  -22.9982   18.0701  -12.4317 C   0  0  0  0  0  0  0  0  0  0  0  0
  -23.0491   16.7111  -12.1962 C   0  0  0  0  0  0  0  0  0  0  0  0
  -22.8341   15.7757  -13.1828 C   0  0  0  0  0  0  0  0  0  0  0  0
  -22.5562   16.2741  -14.4605 C   0  0  0  0  0  0  0  0  0  0  0  0
  -22.8815   14.3339  -12.9628 C   0  0  0  0  0  0  0  0  0  0  0  0
  -22.3388   13.4715  -13.7729 C   0  0  0  0  0  0  0  0  0  0  0  0
  -22.0763   11.1857  -14.4011 O   0  0  0  0  0  0  0  0  0  0  0  0
  1  2  1  0
 13  1  1  0
  1 14  2  0
  4  3  1  0
  5  4  1  0
  5  6  2  0
 11  5  1  0
  6  7  1  0
  8  6  1  0
  9  8  2  0
 10  9  1  0
 10 11  2  0
 12 10  1  0
 12 13  2  0
M  END
$$$$
