
     RDKit          3D

 14 14  0  0  0  0  0  0  0  0999 V2000
  -22.5919   11.2912  -14.1173 C   0  0  0  0  0  0  0  0  0  0  0  0
  -22.5379   10.4344  -12.9153 C   0  0  0  0  0  0  0  0  0  0  0  0
  -21.8934   17.3845  -16.0402 C   0  0  0  0  0  0  0  0  0  0  0  0
  -22.7095   17.7978  -14.9501 O   0  0  0  0  0  0  0  0  0  0  0  0
  -22.7995   16.9874  -13.7983 C   0  0  0  0  0  0  0  0  0  0  0  0
  -22.9419   17.6179  -12.5809 C   0  0  0  0  0  0  0  0  0  0  0  0
  -22.9938   19.0056  -12.5050 O   0  0  0  0  0  0  0  0  0  0  0  0
  -23.0324   16.8572  -11.4399 C   0  0  0  0  0  0  0  0  0  0  0  0
  -22.9792   15.4812  -11.5332 C   0  0  0  0  0  0  0  0  0  0  0  0
  -22.8376   14.8210  -12.7326 C   0  0  0  0  0  0  0  0  0  0  0  0
  -22.7483   15.6231  -13.8757 C   0  0  0  0  0  0  0  0  0  0  0  0
  -22.7783   13.3686  -12.8611 C   0  0  0  0  0  0  0  0  0  0  0  0
  -22.7945   12.7538  -14.0084 C   0  0  0  0  0  0  0  0  0  0  0  0
  -22.4602   10.7380  -15.2387 O   0  0  0  0  0  0  0  0  0  0  0  0
  1  2  1  0
 13  1  1  0
  1 14  2  0
  4  3  1  0
  5  4  1  0
  5  6  2  0
 11  5  1  0
  6  7  1  0
  8  6  1  0
  9  8  2  0
 10  9  1  0
 10 11  2  0
 12 10  1  0
 12 13  2  0
M  END
$$$$
