
     RDKit          3D

 14 14  0  0  0  0  0  0  0  0999 V2000
  -22.7686   17.3691  -12.1445 C   0  0  0  0  0  0  0  0  0  0  0  0
  -22.7194   18.3818  -13.2243 C   0  0  0  0  0  0  0  0  0  0  0  0
  -21.4661   12.4222  -17.7508 C   0  0  0  0  0  0  0  0  0  0  0  0
  -22.4577   11.8672  -16.9127 O   0  0  0  0  0  0  0  0  0  0  0  0
  -22.5354   12.2945  -15.6005 C   0  0  0  0  0  0  0  0  0  0  0  0
  -22.5043   11.4033  -14.5511 C   0  0  0  0  0  0  0  0  0  0  0  0
  -22.3933   10.0611  -14.8236 O   0  0  0  0  0  0  0  0  0  0  0  0
  -22.5828   11.8400  -13.2362 C   0  0  0  0  0  0  0  0  0  0  0  0
  -22.6937   13.1683  -12.9387 C   0  0  0  0  0  0  0  0  0  0  0  0
  -22.7267   14.0857  -13.9880 C   0  0  0  0  0  0  0  0  0  0  0  0
  -22.6483   13.6388  -15.2772 C   0  0  0  0  0  0  0  0  0  0  0  0
  -22.8434   15.4830  -13.6766 C   0  0  0  0  0  0  0  0  0  0  0  0
  -22.8062   15.9415  -12.4567 C   0  0  0  0  0  0  0  0  0  0  0  0
  -22.7771   17.7705  -10.9589 O   0  0  0  0  0  0  0  0  0  0  0  0
  2  1  1  6
 13  1  1  0
  1 14  2  0
  3  4  1  6
  5  4  1  0
  5  6  2  0
 11  5  1  0
  6  7  1  0
  8  6  1  0
  9  8  2  0
 10  9  1  0
 10 11  2  0
 12 10  1  0
 12 13  2  0
M  END
$$$$
