
     RDKit          3D

 14 14  0  0  0  0  0  0  0  0999 V2000
  -22.5773   11.4297  -13.8863 C   0  0  0  0  0  0  0  0  0  0  0  0
  -22.2871   10.5594  -12.7286 C   0  0  0  0  0  0  0  0  0  0  0  0
  -22.4336   17.6832  -15.8232 C   0  0  0  0  0  0  0  0  0  0  0  0
  -22.1263   18.0649  -14.4872 O   0  0  0  0  0  0  0  0  0  0  0  0
  -22.4269   17.1879  -13.4234 C   0  0  0  0  0  0  0  0  0  0  0  0
  -22.8817   17.7412  -12.2458 C   0  0  0  0  0  0  0  0  0  0  0  0
  -23.0344   19.1182  -12.1241 O   0  0  0  0  0  0  0  0  0  0  0  0
  -23.1833   16.9142  -11.1904 C   0  0  0  0  0  0  0  0  0  0  0  0
  -23.0261   15.5499  -11.3282 C   0  0  0  0  0  0  0  0  0  0  0  0
  -22.5744   14.9658  -12.4898 C   0  0  0  0  0  0  0  0  0  0  0  0
  -22.2759   15.8343  -13.5456 C   0  0  0  0  0  0  0  0  0  0  0  0
  -22.3985   13.5277  -12.6637 C   0  0  0  0  0  0  0  0  0  0  0  0
  -22.8127   12.8813  -13.7150 C   0  0  0  0  0  0  0  0  0  0  0  0
  -22.6182   10.8976  -15.0248 O   0  0  0  0  0  0  0  0  0  0  0  0
  1  2  1  0
 13  1  1  0
  1 14  2  0
  4  3  1  0
  5  4  1  0
  5  6  2  0
 11  5  1  0
  6  7  1  0
  8  6  1  0
  9  8  2  0
 10  9  1  0
 10 11  2  0
 12 10  1  0
 12 13  2  0
M  END
$$$$
