
     RDKit          3D

 14 14  0  0  0  0  0  0  0  0999 V2000
  -22.6145   18.0829  -13.3617 C   0  0  0  0  0  0  0  0  0  0  0  0
  -22.5606   18.6115  -11.9835 C   0  0  0  0  0  0  0  0  0  0  0  0
  -21.8458   12.8306  -16.7905 C   0  0  0  0  0  0  0  0  0  0  0  0
  -22.2616   11.9577  -15.7463 O   0  0  0  0  0  0  0  0  0  0  0  0
  -22.4423   12.4652  -14.4420 C   0  0  0  0  0  0  0  0  0  0  0  0
  -22.6438   11.5582  -13.4239 C   0  0  0  0  0  0  0  0  0  0  0  0
  -22.6658   10.1928  -13.6873 O   0  0  0  0  0  0  0  0  0  0  0  0
  -22.8232   12.0201  -12.1420 C   0  0  0  0  0  0  0  0  0  0  0  0
  -22.7984   13.3784  -11.8982 C   0  0  0  0  0  0  0  0  0  0  0  0
  -22.5996   14.3098  -12.8918 C   0  0  0  0  0  0  0  0  0  0  0  0
  -22.4202   13.8082  -14.1857 C   0  0  0  0  0  0  0  0  0  0  0  0
  -22.5687   15.7508  -12.6634 C   0  0  0  0  0  0  0  0  0  0  0  0
  -22.6430   16.6261  -13.6241 C   0  0  0  0  0  0  0  0  0  0  0  0
  -22.6355   18.9111  -14.3075 O   0  0  0  0  0  0  0  0  0  0  0  0
  1  2  1  0
 13  1  1  0
  1 14  2  0
  4  3  1  0
  5  4  1  0
  5  6  2  0
 11  5  1  0
  6  7  1  0
  8  6  1  0
  9  8  2  0
 10  9  1  0
 10 11  2  0
 12 10  1  0
 12 13  2  0
M  END
$$$$
