
     RDKit          3D

 14 14  0  0  0  0  0  0  0  0999 V2000
  -22.8943   17.4308  -13.1571 C   0  0  0  0  0  0  0  0  0  0  0  0
  -22.8750   17.7178  -11.7083 C   0  0  0  0  0  0  0  0  0  0  0  0
  -22.0277   12.8778  -17.4612 C   0  0  0  0  0  0  0  0  0  0  0  0
  -22.3613   11.8234  -16.5656 O   0  0  0  0  0  0  0  0  0  0  0  0
  -22.4954   12.0938  -15.1871 C   0  0  0  0  0  0  0  0  0  0  0  0
  -22.5977   11.0190  -14.3303 C   0  0  0  0  0  0  0  0  0  0  0  0
  -22.5683    9.7181  -14.8212 O   0  0  0  0  0  0  0  0  0  0  0  0
  -22.7295   11.2484  -12.9817 C   0  0  0  0  0  0  0  0  0  0  0  0
  -22.7570   12.5457  -12.5115 C   0  0  0  0  0  0  0  0  0  0  0  0
  -22.6572   13.6404  -13.3398 C   0  0  0  0  0  0  0  0  0  0  0  0
  -22.5241   13.3739  -14.7070 C   0  0  0  0  0  0  0  0  0  0  0  0
  -22.6834   15.0221  -12.8709 C   0  0  0  0  0  0  0  0  0  0  0  0
  -22.8490   16.0406  -13.6644 C   0  0  0  0  0  0  0  0  0  0  0  0
  -22.9503   18.4066  -13.9481 O   0  0  0  0  0  0  0  0  0  0  0  0
  1  2  1  0
 13  1  1  0
  1 14  2  0
  4  3  1  0
  5  4  1  0
  5  6  2  0
 11  5  1  0
  6  7  1  0
  8  6  1  0
  9  8  2  0
 10  9  1  0
 10 11  2  0
 12 10  1  0
 12 13  2  0
M  END
$$$$
