
     RDKit          3D

 14 14  0  0  0  0  0  0  0  0999 V2000
  -22.4260   12.4113  -13.5636 C   0  0  0  0  0  0  0  0  0  0  0  0
  -22.6340   12.3736  -12.1018 C   0  0  0  0  0  0  0  0  0  0  0  0
  -23.2879   19.6811  -12.2888 C   0  0  0  0  0  0  0  0  0  0  0  0
  -22.8704   19.7251  -13.6485 O   0  0  0  0  0  0  0  0  0  0  0  0
  -22.6361   18.5213  -14.3467 C   0  0  0  0  0  0  0  0  0  0  0  0
  -22.3326   18.6074  -15.6884 C   0  0  0  0  0  0  0  0  0  0  0  0
  -22.2629   19.8447  -16.3196 O   0  0  0  0  0  0  0  0  0  0  0  0
  -22.0989   17.4534  -16.3970 C   0  0  0  0  0  0  0  0  0  0  0  0
  -22.1721   16.2338  -15.7550 C   0  0  0  0  0  0  0  0  0  0  0  0
  -22.4726   16.1132  -14.4172 C   0  0  0  0  0  0  0  0  0  0  0  0
  -22.7051   17.3061  -13.7236 C   0  0  0  0  0  0  0  0  0  0  0  0
  -22.5569   14.8380  -13.7128 C   0  0  0  0  0  0  0  0  0  0  0  0
  -22.4867   13.6858  -14.3146 C   0  0  0  0  0  0  0  0  0  0  0  0
  -22.1953   11.3242  -14.1518 O   0  0  0  0  0  0  0  0  0  0  0  0
  1  2  1  0
 13  1  1  0
  1 14  2  0
  4  3  1  0
  5  4  1  0
  5  6  2  0
 11  5  1  0
  6  7  1  0
  8  6  1  0
  9  8  2  0
 10  9  1  0
 10 11  2  0
 12 10  1  0
 12 13  2  0
M  END
$$$$
