
     RDKit          3D

 14 14  0  0  0  0  0  0  0  0999 V2000
  -22.3739   12.8091  -13.6731 C   0  0  0  0  0  0  0  0  0  0  0  0
  -22.8606   12.5789  -12.2933 C   0  0  0  0  0  0  0  0  0  0  0  0
  -22.0981   19.2037  -13.3602 C   0  0  0  0  0  0  0  0  0  0  0  0
  -22.6193   19.3307  -14.6662 O   0  0  0  0  0  0  0  0  0  0  0  0
  -22.5438   18.2472  -15.5212 C   0  0  0  0  0  0  0  0  0  0  0  0
  -22.3665   18.4119  -16.8769 C   0  0  0  0  0  0  0  0  0  0  0  0
  -22.2633   19.6854  -17.3825 O   0  0  0  0  0  0  0  0  0  0  0  0
  -22.2917   17.3190  -17.7288 C   0  0  0  0  0  0  0  0  0  0  0  0
  -22.3914   16.0434  -17.2515 C   0  0  0  0  0  0  0  0  0  0  0  0
  -22.5711   15.8566  -15.8816 C   0  0  0  0  0  0  0  0  0  0  0  0
  -22.6427   16.9438  -15.0564 C   0  0  0  0  0  0  0  0  0  0  0  0
  -22.6762   14.5156  -15.3781 C   0  0  0  0  0  0  0  0  0  0  0  0
  -22.2347   14.1645  -14.2027 C   0  0  0  0  0  0  0  0  0  0  0  0
  -22.0856   11.8110  -14.3714 O   0  0  0  0  0  0  0  0  0  0  0  0
  2  1  1  6
 13  1  1  0
  1 14  2  0
  3  4  1  6
  5  4  1  0
  5  6  2  0
 11  5  1  0
  6  7  1  0
  8  6  1  0
  9  8  2  0
 10  9  1  0
 10 11  2  0
 12 10  1  0
 12 13  2  0
M  END
$$$$
