
     RDKit          3D

 14 14  0  0  0  0  0  0  0  0999 V2000
  -22.0765   18.2316  -13.6286 C   0  0  0  0  0  0  0  0  0  0  0  0
  -22.5456   18.8301  -12.3575 C   0  0  0  0  0  0  0  0  0  0  0  0
  -22.9965   11.4620  -16.8882 C   0  0  0  0  0  0  0  0  0  0  0  0
  -21.9709   12.1676  -16.2221 O   0  0  0  0  0  0  0  0  0  0  0  0
  -22.2115   12.6459  -14.9477 C   0  0  0  0  0  0  0  0  0  0  0  0
  -22.3581   11.7940  -13.8757 C   0  0  0  0  0  0  0  0  0  0  0  0
  -22.2617   10.4397  -14.0866 O   0  0  0  0  0  0  0  0  0  0  0  0
  -22.5996   12.2820  -12.5992 C   0  0  0  0  0  0  0  0  0  0  0  0
  -22.6998   13.6234  -12.3631 C   0  0  0  0  0  0  0  0  0  0  0  0
  -22.5541   14.5015  -13.4362 C   0  0  0  0  0  0  0  0  0  0  0  0
  -22.3167   14.0044  -14.6870 C   0  0  0  0  0  0  0  0  0  0  0  0
  -22.6594   15.9126  -13.1895 C   0  0  0  0  0  0  0  0  0  0  0  0
  -21.8717   16.7891  -13.7474 C   0  0  0  0  0  0  0  0  0  0  0  0
  -21.8607   18.9956  -14.5964 O   0  0  0  0  0  0  0  0  0  0  0  0
  2  1  1  6
 13  1  1  0
  1 14  2  0
  3  4  1  6
  5  4  1  0
  5  6  2  0
 11  5  1  0
  6  7  1  0
  8  6  1  0
  9  8  2  0
 10  9  1  0
 10 11  2  0
 12 10  1  0
 12 13  2  0
M  END
$$$$
