
     RDKit          3D

 14 14  0  0  0  0  0  0  0  0999 V2000
  -22.3192   17.6418  -13.2215 C   0  0  0  0  0  0  0  0  0  0  0  0
  -22.9875   18.0273  -11.9618 C   0  0  0  0  0  0  0  0  0  0  0  0
  -21.6552   12.5799  -17.2811 C   0  0  0  0  0  0  0  0  0  0  0  0
  -22.3626   11.7722  -16.3472 O   0  0  0  0  0  0  0  0  0  0  0  0
  -22.4185   12.1585  -14.9910 C   0  0  0  0  0  0  0  0  0  0  0  0
  -22.3385   11.1658  -14.0382 C   0  0  0  0  0  0  0  0  0  0  0  0
  -22.2073    9.8334  -14.4145 O   0  0  0  0  0  0  0  0  0  0  0  0
  -22.3900   11.5089  -12.7084 C   0  0  0  0  0  0  0  0  0  0  0  0
  -22.5205   12.8360  -12.3524 C   0  0  0  0  0  0  0  0  0  0  0  0
  -22.6029   13.8509  -13.2786 C   0  0  0  0  0  0  0  0  0  0  0  0
  -22.5476   13.4694  -14.6237 C   0  0  0  0  0  0  0  0  0  0  0  0
  -22.7413   15.2615  -12.9313 C   0  0  0  0  0  0  0  0  0  0  0  0
  -22.1977   16.2217  -13.6221 C   0  0  0  0  0  0  0  0  0  0  0  0
  -21.8555   18.5599  -13.9447 O   0  0  0  0  0  0  0  0  0  0  0  0
  1  2  1  0
 13  1  1  0
  1 14  2  0
  4  3  1  0
  5  4  1  0
  5  6  2  0
 11  5  1  0
  6  7  1  0
  8  6  1  0
  9  8  2  0
 10  9  1  0
 10 11  2  0
 12 10  1  0
 12 13  2  0
M  END
$$$$
