
     RDKit          3D

 14 14  0  0  0  0  0  0  0  0999 V2000
  -22.8738   17.8096  -12.5922 C   0  0  0  0  0  0  0  0  0  0  0  0
  -22.6701   18.9830  -13.4728 C   0  0  0  0  0  0  0  0  0  0  0  0
  -22.3969   13.3126  -17.0031 C   0  0  0  0  0  0  0  0  0  0  0  0
  -22.1146   12.3056  -16.0545 O   0  0  0  0  0  0  0  0  0  0  0  0
  -22.4434   12.5276  -14.7305 C   0  0  0  0  0  0  0  0  0  0  0  0
  -22.6539   11.4839  -13.8571 C   0  0  0  0  0  0  0  0  0  0  0  0
  -22.5321   10.1961  -14.3207 O   0  0  0  0  0  0  0  0  0  0  0  0
  -22.9838   11.7149  -12.5291 C   0  0  0  0  0  0  0  0  0  0  0  0
  -23.1108   12.9850  -12.0436 C   0  0  0  0  0  0  0  0  0  0  0  0
  -22.9015   14.0547  -12.9129 C   0  0  0  0  0  0  0  0  0  0  0  0
  -22.5773   13.8098  -14.2178 C   0  0  0  0  0  0  0  0  0  0  0  0
  -23.0349   15.3911  -12.4038 C   0  0  0  0  0  0  0  0  0  0  0  0
  -22.7861   16.4502  -13.1224 C   0  0  0  0  0  0  0  0  0  0  0  0
  -23.1227   18.0154  -11.3829 O   0  0  0  0  0  0  0  0  0  0  0  0
  2  1  1  6
 13  1  1  0
  1 14  2  0
  3  4  1  6
  5  4  1  0
  5  6  2  0
 11  5  1  0
  6  7  1  0
  8  6  1  0
  9  8  2  0
 10  9  1  0
 10 11  2  0
 12 10  1  0
 12 13  2  0
M  END
$$$$
