
     RDKit          3D

 14 14  0  0  0  0  0  0  0  0999 V2000
  -22.2278   11.1769  -14.4802 C   0  0  0  0  0  0  0  0  0  0  0  0
  -22.4762   11.4283  -15.9144 C   0  0  0  0  0  0  0  0  0  0  0  0
  -22.8588   18.6765  -14.2097 C   0  0  0  0  0  0  0  0  0  0  0  0
  -22.4536   18.3239  -12.8919 O   0  0  0  0  0  0  0  0  0  0  0  0
  -22.5789   16.9874  -12.4566 C   0  0  0  0  0  0  0  0  0  0  0  0
  -22.8472   16.7706  -11.1222 C   0  0  0  0  0  0  0  0  0  0  0  0
  -22.9871   17.8416  -10.2460 O   0  0  0  0  0  0  0  0  0  0  0  0
  -22.9751   15.4805  -10.6662 C   0  0  0  0  0  0  0  0  0  0  0  0
  -22.8332   14.4293  -11.5493 C   0  0  0  0  0  0  0  0  0  0  0  0
  -22.5654   14.6114  -12.8871 C   0  0  0  0  0  0  0  0  0  0  0  0
  -22.4409   15.9361  -13.3202 C   0  0  0  0  0  0  0  0  0  0  0  0
  -22.4103   13.5197  -13.8429 C   0  0  0  0  0  0  0  0  0  0  0  0
  -22.2893   12.2733  -13.4872 C   0  0  0  0  0  0  0  0  0  0  0  0
  -21.9618    9.9995  -14.1283 O   0  0  0  0  0  0  0  0  0  0  0  0
  1  2  1  0
 13  1  1  0
  1 14  2  0
  4  3  1  0
  5  4  1  0
  5  6  2  0
 11  5  1  0
  6  7  1  0
  8  6  1  0
  9  8  2  0
 10  9  1  0
 10 11  2  0
 12 10  1  0
 12 13  2  0
M  END
$$$$
