
     RDKit          3D

 14 14  0  0  0  0  0  0  0  0999 V2000
  -22.4292   11.8704  -13.5701 C   0  0  0  0  0  0  0  0  0  0  0  0
  -22.7828   11.2513  -12.2717 C   0  0  0  0  0  0  0  0  0  0  0  0
  -22.8973   17.5467  -16.6654 C   0  0  0  0  0  0  0  0  0  0  0  0
  -22.4306   18.1896  -15.4982 O   0  0  0  0  0  0  0  0  0  0  0  0
  -22.6198   17.5710  -14.2767 C   0  0  0  0  0  0  0  0  0  0  0  0
  -22.7161   18.2968  -13.1104 C   0  0  0  0  0  0  0  0  0  0  0  0
  -22.6208   19.6662  -13.1714 O   0  0  0  0  0  0  0  0  0  0  0  0
  -22.9061   17.6684  -11.8877 C   0  0  0  0  0  0  0  0  0  0  0  0
  -23.0040   16.3091  -11.8000 C   0  0  0  0  0  0  0  0  0  0  0  0
  -22.9090   15.5573  -12.9704 C   0  0  0  0  0  0  0  0  0  0  0  0
  -22.7219   16.1919  -14.1662 C   0  0  0  0  0  0  0  0  0  0  0  0
  -23.0117   14.1275  -12.8797 C   0  0  0  0  0  0  0  0  0  0  0  0
  -22.4534   13.3221  -13.7397 C   0  0  0  0  0  0  0  0  0  0  0  0
  -22.1096   11.1157  -14.5161 O   0  0  0  0  0  0  0  0  0  0  0  0
  2  1  1  6
 13  1  1  0
  1 14  2  0
  3  4  1  6
  5  4  1  0
  5  6  2  0
 11  5  1  0
  6  7  1  0
  8  6  1  0
  9  8  2  0
 10  9  1  0
 10 11  2  0
 12 10  1  0
 12 13  2  0
M  END
$$$$
