
     RDKit          3D

 14 14  0  0  0  0  0  0  0  0999 V2000
  -22.5190   11.9135  -13.5386 C   0  0  0  0  0  0  0  0  0  0  0  0
  -23.5143   10.8716  -13.1956 C   0  0  0  0  0  0  0  0  0  0  0  0
  -21.0279   18.5060  -16.3021 C   0  0  0  0  0  0  0  0  0  0  0  0
  -22.1170   18.7625  -15.4409 O   0  0  0  0  0  0  0  0  0  0  0  0
  -22.3510   17.8978  -14.3883 C   0  0  0  0  0  0  0  0  0  0  0  0
  -22.8967   18.3388  -13.2033 C   0  0  0  0  0  0  0  0  0  0  0  0
  -23.2126   19.6696  -13.0730 O   0  0  0  0  0  0  0  0  0  0  0  0
  -23.1287   17.4644  -12.1508 C   0  0  0  0  0  0  0  0  0  0  0  0
  -22.8236   16.1373  -12.2549 C   0  0  0  0  0  0  0  0  0  0  0  0
  -22.2704   15.6723  -13.4472 C   0  0  0  0  0  0  0  0  0  0  0  0
  -22.0483   16.5467  -14.4738 C   0  0  0  0  0  0  0  0  0  0  0  0
  -21.9489   14.2768  -13.5581 C   0  0  0  0  0  0  0  0  0  0  0  0
  -22.8214   13.3309  -13.3481 C   0  0  0  0  0  0  0  0  0  0  0  0
  -21.4132   11.5456  -13.9955 O   0  0  0  0  0  0  0  0  0  0  0  0
  2  1  1  6
 13  1  1  0
  1 14  2  0
  3  4  1  6
  5  4  1  0
  5  6  2  0
 11  5  1  0
  6  7  1  0
  8  6  1  0
  9  8  2  0
 10  9  1  0
 10 11  2  0
 12 10  1  0
 12 13  2  0
M  END
$$$$
