
     RDKit          3D

 14 14  0  0  0  0  0  0  0  0999 V2000
  -21.9327   11.3352  -13.9470 C   0  0  0  0  0  0  0  0  0  0  0  0
  -22.7788   11.1853  -15.1484 C   0  0  0  0  0  0  0  0  0  0  0  0
  -22.1858   18.5609  -14.9269 C   0  0  0  0  0  0  0  0  0  0  0  0
  -22.6118   18.5300  -13.5695 O   0  0  0  0  0  0  0  0  0  0  0  0
  -22.5913   17.3113  -12.8584 C   0  0  0  0  0  0  0  0  0  0  0  0
  -22.5475   17.3730  -11.4822 C   0  0  0  0  0  0  0  0  0  0  0  0
  -22.5247   18.6011  -10.8299 O   0  0  0  0  0  0  0  0  0  0  0  0
  -22.5266   16.2039  -10.7602 C   0  0  0  0  0  0  0  0  0  0  0  0
  -22.5497   14.9937  -11.4235 C   0  0  0  0  0  0  0  0  0  0  0  0
  -22.5934   14.8974  -12.7958 C   0  0  0  0  0  0  0  0  0  0  0  0
  -22.6138   16.1051  -13.5023 C   0  0  0  0  0  0  0  0  0  0  0  0
  -22.6185   13.6327  -13.5234 C   0  0  0  0  0  0  0  0  0  0  0  0
  -21.9483   12.5816  -13.1482 C   0  0  0  0  0  0  0  0  0  0  0  0
  -21.1968   10.3685  -13.6231 O   0  0  0  0  0  0  0  0  0  0  0  0
  1  2  1  0
 13  1  1  0
  1 14  2  0
  4  3  1  0
  5  4  1  0
  5  6  2  0
 11  5  1  0
  6  7  1  0
  8  6  1  0
  9  8  2  0
 10  9  1  0
 10 11  2  0
 12 10  1  0
 12 13  2  0
M  END
$$$$
