
     RDKit          3D

 14 14  0  0  0  0  0  0  0  0999 V2000
  -22.0666   18.0748  -13.6463 C   0  0  0  0  0  0  0  0  0  0  0  0
  -23.0990   18.6418  -12.7482 C   0  0  0  0  0  0  0  0  0  0  0  0
  -22.2136   12.7721  -17.4314 C   0  0  0  0  0  0  0  0  0  0  0  0
  -22.2476   11.9011  -16.3207 O   0  0  0  0  0  0  0  0  0  0  0  0
  -22.4132   12.4389  -15.0582 C   0  0  0  0  0  0  0  0  0  0  0  0
  -22.4567   11.6409  -13.9367 C   0  0  0  0  0  0  0  0  0  0  0  0
  -22.3318   10.2806  -14.0852 O   0  0  0  0  0  0  0  0  0  0  0  0
  -22.6232   12.1884  -12.6724 C   0  0  0  0  0  0  0  0  0  0  0  0
  -22.7496   13.5369  -12.4979 C   0  0  0  0  0  0  0  0  0  0  0  0
  -22.7080   14.3611  -13.6216 C   0  0  0  0  0  0  0  0  0  0  0  0
  -22.5434   13.8057  -14.8595 C   0  0  0  0  0  0  0  0  0  0  0  0
  -22.8410   15.7796  -13.4396 C   0  0  0  0  0  0  0  0  0  0  0  0
  -21.9199   16.6287  -13.8010 C   0  0  0  0  0  0  0  0  0  0  0  0
  -21.3247   18.8686  -14.2679 O   0  0  0  0  0  0  0  0  0  0  0  0
  2  1  1  6
 13  1  1  0
  1 14  2  0
  3  4  1  6
  5  4  1  0
  5  6  2  0
 11  5  1  0
  6  7  1  0
  8  6  1  0
  9  8  2  0
 10  9  1  0
 10 11  2  0
 12 10  1  0
 12 13  2  0
M  END
$$$$
