
     RDKit          3D

 14 14  0  0  0  0  0  0  0  0999 V2000
  -22.8586   17.7261  -12.5329 C   0  0  0  0  0  0  0  0  0  0  0  0
  -22.1979   18.9124  -13.1246 C   0  0  0  0  0  0  0  0  0  0  0  0
  -22.8633   11.1500  -17.0282 C   0  0  0  0  0  0  0  0  0  0  0  0
  -22.5475   12.4037  -16.4608 O   0  0  0  0  0  0  0  0  0  0  0  0
  -22.6947   12.5730  -15.0969 C   0  0  0  0  0  0  0  0  0  0  0  0
  -22.6553   11.5028  -14.2311 C   0  0  0  0  0  0  0  0  0  0  0  0
  -22.4650   10.2420  -14.7431 O   0  0  0  0  0  0  0  0  0  0  0  0
  -22.8039   11.6809  -12.8629 C   0  0  0  0  0  0  0  0  0  0  0  0
  -22.9941   12.9234  -12.3290 C   0  0  0  0  0  0  0  0  0  0  0  0
  -23.0368   14.0192  -13.1899 C   0  0  0  0  0  0  0  0  0  0  0  0
  -22.8888   13.8264  -14.5348 C   0  0  0  0  0  0  0  0  0  0  0  0
  -23.2370   15.3266  -12.6298 C   0  0  0  0  0  0  0  0  0  0  0  0
  -22.6425   16.3919  -13.0897 C   0  0  0  0  0  0  0  0  0  0  0  0
  -23.6062   17.8990  -11.5440 O   0  0  0  0  0  0  0  0  0  0  0  0
  2  1  1  6
 13  1  1  0
  1 14  2  0
  3  4  1  6
  5  4  1  0
  5  6  2  0
 11  5  1  0
  6  7  1  0
  8  6  1  0
  9  8  2  0
 10  9  1  0
 10 11  2  0
 12 10  1  0
 12 13  2  0
M  END
$$$$
