
     RDKit          3D

 14 14  0  0  0  0  0  0  0  0999 V2000
  -22.3989   17.1408  -12.2860 C   0  0  0  0  0  0  0  0  0  0  0  0
  -22.9584   17.2243  -10.9170 C   0  0  0  0  0  0  0  0  0  0  0  0
  -21.7165   13.1007  -17.2395 C   0  0  0  0  0  0  0  0  0  0  0  0
  -22.3382   12.0675  -16.5051 O   0  0  0  0  0  0  0  0  0  0  0  0
  -22.3517   12.1471  -15.1252 C   0  0  0  0  0  0  0  0  0  0  0  0
  -22.2204   11.0242  -14.3389 C   0  0  0  0  0  0  0  0  0  0  0  0
  -22.0732    9.8013  -14.9479 O   0  0  0  0  0  0  0  0  0  0  0  0
  -22.2350   11.1122  -12.9540 C   0  0  0  0  0  0  0  0  0  0  0  0
  -22.3800   12.3154  -12.3243 C   0  0  0  0  0  0  0  0  0  0  0  0
  -22.5142   13.4635  -13.1039 C   0  0  0  0  0  0  0  0  0  0  0  0
  -22.4978   13.3592  -14.4665 C   0  0  0  0  0  0  0  0  0  0  0  0
  -22.6669   14.7296  -12.4430 C   0  0  0  0  0  0  0  0  0  0  0  0
  -22.2326   15.8494  -12.9504 C   0  0  0  0  0  0  0  0  0  0  0  0
  -22.0732   18.2064  -12.8564 O   0  0  0  0  0  0  0  0  0  0  0  0
  2  1  1  6
 13  1  1  0
  1 14  2  0
  3  4  1  6
  5  4  1  0
  5  6  2  0
 11  5  1  0
  6  7  1  0
  8  6  1  0
  9  8  2  0
 10  9  1  0
 10 11  2  0
 12 10  1  0
 12 13  2  0
M  END
$$$$
