
     RDKit          3D

 14 14  0  0  0  0  0  0  0  0999 V2000
  -22.4441   11.3051  -14.6738 C   0  0  0  0  0  0  0  0  0  0  0  0
  -23.5241   11.1312  -15.6725 C   0  0  0  0  0  0  0  0  0  0  0  0
  -22.3880   18.2876  -14.7439 C   0  0  0  0  0  0  0  0  0  0  0  0
  -22.5929   18.2146  -13.3489 O   0  0  0  0  0  0  0  0  0  0  0  0
  -22.8416   16.9813  -12.7764 C   0  0  0  0  0  0  0  0  0  0  0  0
  -23.0036   16.8394  -11.4163 C   0  0  0  0  0  0  0  0  0  0  0  0
  -22.9145   17.9541  -10.6177 O   0  0  0  0  0  0  0  0  0  0  0  0
  -23.2531   15.5977  -10.8490 C   0  0  0  0  0  0  0  0  0  0  0  0
  -23.3463   14.4747  -11.6205 C   0  0  0  0  0  0  0  0  0  0  0  0
  -23.1851   14.5986  -12.9998 C   0  0  0  0  0  0  0  0  0  0  0  0
  -22.9399   15.8288  -13.5424 C   0  0  0  0  0  0  0  0  0  0  0  0
  -23.2827   13.4183  -13.8125 C   0  0  0  0  0  0  0  0  0  0  0  0
  -22.3166   12.5490  -13.9165 C   0  0  0  0  0  0  0  0  0  0  0  0
  -21.6453   10.3578  -14.4973 O   0  0  0  0  0  0  0  0  0  0  0  0
  2  1  1  6
 13  1  1  0
  1 14  2  0
  3  4  1  6
  5  4  1  0
  5  6  2  0
 11  5  1  0
  6  7  1  0
  8  6  1  0
  9  8  2  0
 10  9  1  0
 10 11  2  0
 12 10  1  0
 12 13  2  0
M  END
$$$$
