
     RDKit          3D

 14 14  0  0  0  0  0  0  0  0999 V2000
  -22.9167   17.8309  -12.6922 C   0  0  0  0  0  0  0  0  0  0  0  0
  -22.7727   18.9648  -13.6277 C   0  0  0  0  0  0  0  0  0  0  0  0
  -22.1066   13.2167  -16.8729 C   0  0  0  0  0  0  0  0  0  0  0  0
  -22.2591   12.1553  -15.9374 O   0  0  0  0  0  0  0  0  0  0  0  0
  -22.5059   12.4507  -14.5798 C   0  0  0  0  0  0  0  0  0  0  0  0
  -22.6285   11.3921  -13.7057 C   0  0  0  0  0  0  0  0  0  0  0  0
  -22.5107   10.0828  -14.1598 O   0  0  0  0  0  0  0  0  0  0  0  0
  -22.8691   11.6461  -12.3766 C   0  0  0  0  0  0  0  0  0  0  0  0
  -22.9831   12.9513  -11.9429 C   0  0  0  0  0  0  0  0  0  0  0  0
  -22.8660   14.0304  -12.7893 C   0  0  0  0  0  0  0  0  0  0  0  0
  -22.6212   13.7390  -14.1359 C   0  0  0  0  0  0  0  0  0  0  0  0
  -22.9821   15.4199  -12.3589 C   0  0  0  0  0  0  0  0  0  0  0  0
  -22.8201   16.4306  -13.1632 C   0  0  0  0  0  0  0  0  0  0  0  0
  -23.1246   18.0928  -11.4801 O   0  0  0  0  0  0  0  0  0  0  0  0
  1  2  1  0
 13  1  1  0
  1 14  2  0
  4  3  1  0
  5  4  1  0
  5  6  2  0
 11  5  1  0
  6  7  1  0
  8  6  1  0
  9  8  2  0
 10  9  1  0
 10 11  2  0
 12 10  1  0
 12 13  2  0
M  END
$$$$
