
     RDKit          3D

 35 38  0  0  0  0  0  0  0  0999 V2000
   20.8361   -3.7398  -18.2415 C   0  0  0  0  0  0  0  0  0  0  0  0
   21.5968   -5.0748  -18.5790 C   0  0  1  0  0  0  0  0  0  0  0  0
   24.0378   -4.9311  -17.8320 C   0  0  0  0  0  0  0  0  0  0  0  0
   23.1010   -6.1217  -20.2336 C   0  0  0  0  0  0  0  0  0  0  0  0
   22.0139   -5.1063  -19.9629 C   0  0  2  0  0  0  0  0  0  0  0  0
   22.6363   -3.7781  -20.3904 C   0  0  0  0  0  0  0  0  0  0  0  0
   22.5242   -3.5199  -21.8758 C   0  0  0  0  0  0  0  0  0  0  0  0
   22.6536   -4.9849  -17.6023 N   0  0  0  0  0  0  0  0  0  0  0  0
   24.8900   -4.3244  -17.1053 N   0  0  0  0  0  0  0  0  0  0  0  0
   20.5066   -3.0487  -23.6475 O   0  0  0  0  0  0  0  0  0  0  0  0
   19.9712   -4.5991  -21.4563 C   0  0  0  0  0  0  0  0  0  0  0  0
   20.3945   -1.9593  -21.4685 O   0  0  0  0  0  0  0  0  0  0  0  0
   20.8191   -9.2895  -16.1567 N   0  0  0  0  0  0  0  0  0  0  0  0
   20.9683   -5.5507  -20.9661 C   0  0  0  0  0  0  0  0  0  0  0  0
   20.6448   -6.1315  -18.1075 C   0  0  0  0  0  0  0  0  0  0  0  0
   21.0977   -7.2208  -17.4013 C   0  0  0  0  0  0  0  0  0  0  0  0
   20.2570   -8.2141  -16.8620 C   0  0  0  0  0  0  0  0  0  0  0  0
   20.8044  -10.6443  -16.5395 C   0  0  0  0  0  0  0  0  0  0  0  0
   21.8776  -11.5563  -16.1047 C   0  0  0  0  0  0  0  0  0  0  0  0
   23.9641  -11.9360  -15.1187 C   0  0  0  0  0  0  0  0  0  0  0  0
   18.7291   -5.0034  -19.0356 F   0  0  0  0  0  0  0  0  0  0  0  0
   19.2826   -6.0275  -18.2871 C   0  0  0  0  0  0  0  0  0  0  0  0
   20.8007   -3.2059  -22.2100 S   0  0  1  0  0  6  0  0  0  0  0  0
   24.6099   -5.8203  -19.3055 S   0  0  0  0  0  0  0  0  0  0  0  0
   18.4476   -6.9668  -17.7790 C   0  0  0  0  0  0  0  0  0  0  0  0
   18.9124   -8.0772  -17.0578 C   0  0  0  0  0  0  0  0  0  0  0  0
   19.8758  -11.0779  -17.2523 O   0  0  0  0  0  0  0  0  0  0  0  0
   21.7625  -12.9099  -16.2911 C   0  0  0  0  0  0  0  0  0  0  0  0
   22.7123  -13.7634  -15.9075 N   0  0  0  0  0  0  0  0  0  0  0  0
   23.8677  -13.3279  -15.2994 C   0  0  0  0  0  0  0  0  0  0  0  0
   22.9929  -11.1155  -15.5159 N   0  0  0  0  0  0  0  0  0  0  0  0
   24.8143  -14.1404  -14.9131 O   0  0  0  0  0  0  0  0  0  0  0  0
   25.7348  -14.9503  -14.5523 C   0  0  0  0  0  0  0  0  0  0  0  0
   25.2877  -15.8026  -13.5071 F   0  0  0  0  0  0  0  0  0  0  0  0
   25.8203   -4.7403  -16.8966 H   0  0  0  0  0  0  0  0  0  0  0  0
  2  1  1  6
  2  5  1  0
  2  8  1  0
 15  2  1  0
  8  3  1  0
  3  9  2  0
  3 24  1  0
  5  4  1  1
  4 24  1  0
  5  6  1  0
  5 14  1  0
  6  7  1  0
 23  7  1  6
 23 10  2  0
 14 11  1  0
 11 23  1  0
 23 12  2  0
 13 17  1  0
 18 13  1  0
 16 15  2  0
 15 22  1  0
 17 16  1  0
 17 26  2  0
 19 18  1  0
 18 27  2  0
 19 28  1  0
 31 19  2  0
 20 30  2  0
 20 31  1  0
 22 21  1  0
 22 25  2  0
 25 26  1  0
 28 29  2  0
 29 30  1  0
 30 32  1  0
 32 33  1  0
 33 34  1  0
  9 35  1  0
M  END
$$$$
