
     RDKit          3D

 35 38  0  0  0  0  0  0  0  0999 V2000
   22.4753   -3.9979  -19.3034 C   0  0  0  0  0  0  0  0  0  0  0  0
   22.0765   -5.4463  -19.3258 C   0  0  1  0  0  0  0  0  0  0  0  0
   24.3695   -5.9231  -18.4697 C   0  0  0  0  0  0  0  0  0  0  0  0
   23.6572   -5.5043  -21.2284 C   0  0  0  0  0  0  0  0  0  0  0  0
   22.3768   -6.1376  -20.6540 C   0  0  2  0  0  0  0  0  0  0  0  0
   21.3485   -5.9713  -21.6867 C   0  0  0  0  0  0  0  0  0  0  0  0
   21.6610   -6.8428  -22.9357 C   0  0  0  0  0  0  0  0  0  0  0  0
   22.9470   -6.1423  -18.3575 N   0  0  0  0  0  0  0  0  0  0  0  0
   25.1456   -6.1251  -17.4925 N   0  0  0  0  0  0  0  0  0  0  0  0
   22.5880   -9.3901  -22.9573 O   0  0  0  0  0  0  0  0  0  0  0  0
   21.4757   -8.4872  -20.6557 C   0  0  0  0  0  0  0  0  0  0  0  0
   20.1469   -9.0981  -22.8938 O   0  0  0  0  0  0  0  0  0  0  0  0
   17.6914   -3.6151  -17.9783 N   0  0  0  0  0  0  0  0  0  0  0  0
   22.6711   -7.5930  -20.3335 C   0  0  0  0  0  0  0  0  0  0  0  0
   20.6570   -5.6247  -18.8751 C   0  0  0  0  0  0  0  0  0  0  0  0
   19.8014   -4.5944  -18.6750 C   0  0  0  0  0  0  0  0  0  0  0  0
   18.5147   -4.7601  -18.1498 C   0  0  0  0  0  0  0  0  0  0  0  0
   17.2111   -3.0648  -16.7780 C   0  0  0  0  0  0  0  0  0  0  0  0
   16.7419   -1.6555  -16.7259 C   0  0  0  0  0  0  0  0  0  0  0  0
   16.6248    0.4956  -17.6038 C   0  0  0  0  0  0  0  0  0  0  0  0
   20.9452   -8.0140  -18.7959 F   0  0  0  0  0  0  0  0  0  0  0  0
   20.2110   -6.8971  -18.5380 C   0  0  0  0  0  0  0  0  0  0  0  0
   21.4441   -8.5358  -22.4562 S   0  0  1  0  0  6  0  0  0  0  0  0
   24.9799   -5.3635  -20.0310 S   0  0  0  0  0  0  0  0  0  0  0  0
   18.9615   -7.0672  -18.0246 C   0  0  0  0  0  0  0  0  0  0  0  0
   18.0738   -6.0104  -17.8134 C   0  0  0  0  0  0  0  0  0  0  0  0
   17.1812   -3.7709  -15.7514 O   0  0  0  0  0  0  0  0  0  0  0  0
   15.9637   -1.2612  -15.6770 C   0  0  0  0  0  0  0  0  0  0  0  0
   15.5157    0.0049  -15.5878 N   0  0  0  0  0  0  0  0  0  0  0  0
   15.8380    0.8882  -16.5405 C   0  0  0  0  0  0  0  0  0  0  0  0
   17.0724   -0.7916  -17.6820 N   0  0  0  0  0  0  0  0  0  0  0  0
   15.3863    2.2071  -16.4714 O   0  0  0  0  0  0  0  0  0  0  0  0
   14.5399    2.6243  -15.4278 C   0  0  0  0  0  0  0  0  0  0  0  0
   13.2180    2.6680  -15.8666 F   0  0  0  0  0  0  0  0  0  0  0  0
   25.0025   -5.6105  -16.6023 H   0  0  0  0  0  0  0  0  0  0  0  0
  1  2  1  6
  2  5  1  0
  2  8  1  0
  2 15  1  1
  8  3  1  0
  3  9  2  0
  3 24  1  0
  5  4  1  6
  4 24  1  6
  6  5  1  1
 14  5  1  1
  7  6  1  1
 23  7  1  6
 23 10  2  0
 11 14  1  1
 11 23  1  0
 23 12  2  0
 13 17  1  0
 18 13  1  0
 16 15  2  0
 15 22  1  0
 17 16  1  0
 17 26  2  0
 19 18  1  0
 18 27  2  0
 19 28  1  0
 31 19  2  0
 20 30  2  0
 20 31  1  0
 22 21  1  0
 22 25  2  0
 25 26  1  0
 28 29  2  0
 29 30  1  0
 30 32  1  0
 32 33  1  0
 33 34  1  6
  9 35  1  0
M  END
$$$$
