
     RDKit          3D

 35 38  0  0  0  0  0  0  0  0999 V2000
   20.7213   -3.7002  -18.4417 C   0  0  0  0  0  0  0  0  0  0  0  0
   21.6026   -4.9466  -18.8218 C   0  0  1  0  0  0  0  0  0  0  0  0
   24.0318   -4.5784  -18.1145 C   0  0  0  0  0  0  0  0  0  0  0  0
   23.1697   -5.8065  -20.5252 C   0  0  0  0  0  0  0  0  0  0  0  0
   21.9937   -4.9088  -20.2131 C   0  0  2  0  0  0  0  0  0  0  0  0
   22.4743   -3.5174  -20.6220 C   0  0  0  0  0  0  0  0  0  0  0  0
   22.3084   -3.2415  -22.0992 C   0  0  0  0  0  0  0  0  0  0  0  0
   22.6643   -4.7729  -17.8619 N   0  0  0  0  0  0  0  0  0  0  0  0
   24.8344   -3.9055  -17.3896 N   0  0  0  0  0  0  0  0  0  0  0  0
   20.2201   -2.9356  -23.8246 O   0  0  0  0  0  0  0  0  0  0  0  0
   19.8824   -4.5752  -21.6591 C   0  0  0  0  0  0  0  0  0  0  0  0
   20.0443   -1.9068  -21.6205 O   0  0  0  0  0  0  0  0  0  0  0  0
   21.3144   -9.3378  -16.6148 N   0  0  0  0  0  0  0  0  0  0  0  0
   20.9774   -5.4337  -21.2075 C   0  0  0  0  0  0  0  0  0  0  0  0
   20.7683   -6.1013  -18.3572 C   0  0  0  0  0  0  0  0  0  0  0  0
   21.3496   -7.1878  -17.7472 C   0  0  0  0  0  0  0  0  0  0  0  0
   20.6255   -8.2741  -17.2180 C   0  0  0  0  0  0  0  0  0  0  0  0
   20.8929  -10.6793  -16.5452 C   0  0  0  0  0  0  0  0  0  0  0  0
   21.8062  -11.7257  -16.0516 C   0  0  0  0  0  0  0  0  0  0  0  0
   23.8498  -12.3859  -15.1255 C   0  0  0  0  0  0  0  0  0  0  0  0
   18.7140   -5.0823  -19.0961 F   0  0  0  0  0  0  0  0  0  0  0  0
   19.3933   -6.0981  -18.4462 C   0  0  0  0  0  0  0  0  0  0  0  0
   20.5562   -3.0920  -22.3962 S   0  0  1  0  0  6  0  0  0  0  0  0
   24.6595   -5.3768  -19.6171 S   0  0  0  0  0  0  0  0  0  0  0  0
   18.6686   -7.1285  -17.9452 C   0  0  0  0  0  0  0  0  0  0  0  0
   19.2644   -8.2358  -17.3222 C   0  0  0  0  0  0  0  0  0  0  0  0
   19.7373  -10.9864  -16.9036 O   0  0  0  0  0  0  0  0  0  0  0  0
   21.4294  -13.0442  -16.0628 C   0  0  0  0  0  0  0  0  0  0  0  0
   22.2289  -14.0155  -15.6214 N   0  0  0  0  0  0  0  0  0  0  0  0
   23.4846  -13.7447  -15.1272 C   0  0  0  0  0  0  0  0  0  0  0  0
   23.0223  -11.4442  -15.5754 N   0  0  0  0  0  0  0  0  0  0  0  0
   24.2888  -14.6751  -14.6881 O   0  0  0  0  0  0  0  0  0  0  0  0
   25.0737  -15.5970  -14.2789 C   0  0  0  0  0  0  0  0  0  0  0  0
   25.5644  -15.3125  -12.9762 F   0  0  0  0  0  0  0  0  0  0  0  0
   25.6926   -4.3341  -16.9871 H   0  0  0  0  0  0  0  0  0  0  0  0
  2  1  1  6
  2  5  1  0
  2  8  1  0
 15  2  1  0
  8  3  1  0
  3  9  2  0
  3 24  1  0
  5  4  1  1
  4 24  1  0
  5  6  1  0
  5 14  1  0
  6  7  1  0
 23  7  1  6
 23 10  2  0
 14 11  1  0
 11 23  1  0
 23 12  2  0
 13 17  1  0
 18 13  1  0
 16 15  2  0
 15 22  1  0
 17 16  1  0
 17 26  2  0
 19 18  1  0
 18 27  2  0
 19 28  1  0
 31 19  2  0
 20 30  2  0
 20 31  1  0
 22 21  1  0
 22 25  2  0
 25 26  1  0
 28 29  2  0
 29 30  1  0
 30 32  1  0
 32 33  1  0
 33 34  1  0
  9 35  1  0
M  END
$$$$
