
     RDKit          3D

 35 38  0  0  0  0  0  0  0  0999 V2000
   20.6375   -3.5759  -18.3095 C   0  0  0  0  0  0  0  0  0  0  0  0
   21.5025   -4.8542  -18.6134 C   0  0  1  0  0  0  0  0  0  0  0  0
   23.9179   -4.5063  -17.8508 C   0  0  0  0  0  0  0  0  0  0  0  0
   23.0986   -5.8141  -20.2343 C   0  0  0  0  0  0  0  0  0  0  0  0
   21.9336   -4.8810  -19.9931 C   0  0  2  0  0  0  0  0  0  0  0  0
   22.4551   -3.5174  -20.4433 C   0  0  0  0  0  0  0  0  0  0  0  0
   22.3371   -3.2986  -21.9345 C   0  0  0  0  0  0  0  0  0  0  0  0
   22.5400   -4.6628  -17.6306 N   0  0  0  0  0  0  0  0  0  0  0  0
   24.7138   -3.8207  -17.1303 N   0  0  0  0  0  0  0  0  0  0  0  0
   20.3055   -3.0214  -23.7311 O   0  0  0  0  0  0  0  0  0  0  0  0
   19.8717   -4.5642  -21.5123 C   0  0  0  0  0  0  0  0  0  0  0  0
   20.0891   -1.9004  -21.5761 O   0  0  0  0  0  0  0  0  0  0  0  0
   21.0483   -9.1134  -16.1867 N   0  0  0  0  0  0  0  0  0  0  0  0
   20.9350   -5.4255  -20.9948 C   0  0  0  0  0  0  0  0  0  0  0  0
   20.6310   -5.9721  -18.1273 C   0  0  0  0  0  0  0  0  0  0  0  0
   21.1674   -7.0297  -17.4316 C   0  0  0  0  0  0  0  0  0  0  0  0
   20.4039   -8.0769  -16.8796 C   0  0  0  0  0  0  0  0  0  0  0  0
   20.7463  -10.4866  -16.2588 C   0  0  0  0  0  0  0  0  0  0  0  0
   21.6964  -11.4897  -15.7453 C   0  0  0  0  0  0  0  0  0  0  0  0
   23.6968  -12.0498  -14.6707 C   0  0  0  0  0  0  0  0  0  0  0  0
   18.6287   -4.9722  -19.0191 F   0  0  0  0  0  0  0  0  0  0  0  0
   19.2619   -5.9582  -18.2827 C   0  0  0  0  0  0  0  0  0  0  0  0
   20.5975   -3.1262  -22.2883 S   0  0  1  0  0  6  0  0  0  0  0  0
   24.5709   -5.3778  -19.3011 S   0  0  0  0  0  0  0  0  0  0  0  0
   18.5000   -6.9512  -17.7619 C   0  0  0  0  0  0  0  0  0  0  0  0
   19.0500   -8.0291  -17.0514 C   0  0  0  0  0  0  0  0  0  0  0  0
   19.6658  -10.8591  -16.7609 O   0  0  0  0  0  0  0  0  0  0  0  0
   21.4349  -12.8297  -15.8730 C   0  0  0  0  0  0  0  0  0  0  0  0
   22.2706  -13.7635  -15.4176 N   0  0  0  0  0  0  0  0  0  0  0  0
   23.4493  -13.4296  -14.7904 C   0  0  0  0  0  0  0  0  0  0  0  0
   22.8366  -11.1471  -15.1390 N   0  0  0  0  0  0  0  0  0  0  0  0
   24.2864  -14.3221  -14.3343 O   0  0  0  0  0  0  0  0  0  0  0  0
   25.0991  -15.1904  -13.8661 C   0  0  0  0  0  0  0  0  0  0  0  0
   26.2677  -14.5718  -13.3463 F   0  0  0  0  0  0  0  0  0  0  0  0
   25.5031   -4.2649  -16.6187 H   0  0  0  0  0  0  0  0  0  0  0  0
  2  1  1  6
  2  5  1  0
  2  8  1  0
 15  2  1  0
  8  3  1  0
  3  9  2  0
  3 24  1  0
  5  4  1  1
  4 24  1  0
  5  6  1  0
  5 14  1  0
  6  7  1  0
 23  7  1  6
 23 10  2  0
 14 11  1  0
 11 23  1  0
 23 12  2  0
 13 17  1  0
 18 13  1  0
 16 15  2  0
 15 22  1  0
 17 16  1  0
 17 26  2  0
 19 18  1  0
 18 27  2  0
 19 28  1  0
 31 19  2  0
 20 30  2  0
 20 31  1  0
 22 21  1  0
 22 25  2  0
 25 26  1  0
 28 29  2  0
 29 30  1  0
 30 32  1  0
 32 33  1  0
 33 34  1  0
  9 35  1  0
M  END
$$$$
