
     RDKit          3D

 35 38  0  0  0  0  0  0  0  0999 V2000
   23.5556   -5.8126  -17.9405 C   0  0  0  0  0  0  0  0  0  0  0  0
   22.4935   -5.5033  -18.9572 C   0  0  1  0  0  0  0  0  0  0  0  0
   24.3659   -5.1366  -20.5626 C   0  0  0  0  0  0  0  0  0  0  0  0
   23.3665   -3.2054  -18.6744 C   0  0  0  0  0  0  0  0  0  0  0  0
   22.1052   -4.0268  -18.9986 C   0  0  2  0  0  0  0  0  0  0  0  0
   21.0980   -3.6220  -18.0123 C   0  0  0  0  0  0  0  0  0  0  0  0
   20.6476   -2.1516  -18.2408 C   0  0  0  0  0  0  0  0  0  0  0  0
   23.0899   -5.7519  -20.2847 N   0  0  0  0  0  0  0  0  0  0  0  0
   25.1318   -5.5871  -21.4617 N   0  0  0  0  0  0  0  0  0  0  0  0
   20.1475   -0.9492  -20.6183 O   0  0  0  0  0  0  0  0  0  0  0  0
   20.1771   -3.6597  -20.5734 C   0  0  0  0  0  0  0  0  0  0  0  0
   18.2628   -2.1048  -19.5412 O   0  0  0  0  0  0  0  0  0  0  0  0
   20.2303   -9.3432  -16.8285 N   0  0  0  0  0  0  0  0  0  0  0  0
   21.6963   -3.7216  -20.4294 C   0  0  0  0  0  0  0  0  0  0  0  0
   21.3154   -6.4194  -18.8062 C   0  0  0  0  0  0  0  0  0  0  0  0
   21.2555   -7.4150  -17.8903 C   0  0  0  0  0  0  0  0  0  0  0  0
   20.2018   -8.3342  -17.8281 C   0  0  0  0  0  0  0  0  0  0  0  0
   20.6985  -10.6631  -16.9424 C   0  0  0  0  0  0  0  0  0  0  0  0
   21.4665  -11.2919  -15.8361 C   0  0  0  0  0  0  0  0  0  0  0  0
   22.5755  -11.1808  -13.7942 C   0  0  0  0  0  0  0  0  0  0  0  0
   20.1712   -5.3023  -20.6064 F   0  0  0  0  0  0  0  0  0  0  0  0
   20.2671   -6.3255  -19.7139 C   0  0  0  0  0  0  0  0  0  0  0  0
   19.7270   -2.1190  -19.7556 S   0  0  1  0  0  6  0  0  0  0  0  0
   24.8103   -3.7259  -19.5953 S   0  0  0  0  0  0  0  0  0  0  0  0
   19.2391   -7.2167  -19.6618 C   0  0  0  0  0  0  0  0  0  0  0  0
   19.1703   -8.2471  -18.7221 C   0  0  0  0  0  0  0  0  0  0  0  0
   20.4639  -11.3066  -17.9837 O   0  0  0  0  0  0  0  0  0  0  0  0
   21.7496  -12.6246  -15.9083 C   0  0  0  0  0  0  0  0  0  0  0  0
   22.4424  -13.2369  -14.9302 N   0  0  0  0  0  0  0  0  0  0  0  0
   22.8587  -12.5289  -13.8731 C   0  0  0  0  0  0  0  0  0  0  0  0
   21.8720  -10.5724  -14.7933 N   0  0  0  0  0  0  0  0  0  0  0  0
   23.5788  -13.1401  -12.8453 O   0  0  0  0  0  0  0  0  0  0  0  0
   24.1925  -14.3908  -13.0415 C   0  0  0  0  0  0  0  0  0  0  0  0
   25.4384  -14.2279  -13.6440 F   0  0  0  0  0  0  0  0  0  0  0  0
   24.7962   -6.3313  -22.1031 H   0  0  0  0  0  0  0  0  0  0  0  0
  1  2  1  6
  2  5  1  0
  2  8  1  0
  2 15  1  1
  8  3  1  0
  3  9  2  0
  3 24  1  0
  5  4  1  1
  4 24  1  6
  6  5  1  1
 14  5  1  1
  7  6  1  1
 23  7  1  1
 23 10  2  0
 11 14  1  1
 11 23  1  0
 23 12  2  0
 13 17  1  0
 18 13  1  0
 16 15  2  0
 15 22  1  0
 17 16  1  0
 17 26  2  0
 19 18  1  0
 18 27  2  0
 19 28  1  0
 31 19  2  0
 20 30  2  0
 20 31  1  0
 22 21  1  0
 22 25  2  0
 25 26  1  0
 28 29  2  0
 29 30  1  0
 30 32  1  0
 32 33  1  0
 33 34  1  6
  9 35  1  0
M  END
$$$$
