
     RDKit          3D

 35 38  0  0  0  0  0  0  0  0999 V2000
   20.5199   -3.6987  -18.1751 C   0  0  0  0  0  0  0  0  0  0  0  0
   21.3327   -4.9843  -18.5767 C   0  0  1  0  0  0  0  0  0  0  0  0
   23.7348   -4.8341  -17.7139 C   0  0  0  0  0  0  0  0  0  0  0  0
   22.9351   -5.8644  -20.2362 C   0  0  0  0  0  0  0  0  0  0  0  0
   21.8085   -4.9007  -19.9393 C   0  0  2  0  0  0  0  0  0  0  0  0
   22.4094   -3.5285  -20.2393 C   0  0  0  0  0  0  0  0  0  0  0  0
   22.3525   -3.1622  -21.7049 C   0  0  0  0  0  0  0  0  0  0  0  0
   22.3443   -4.9409  -17.5502 N   0  0  0  0  0  0  0  0  0  0  0  0
   24.5376   -4.2620  -16.9074 N   0  0  0  0  0  0  0  0  0  0  0  0
   20.3984   -2.6114  -23.5243 O   0  0  0  0  0  0  0  0  0  0  0  0
   19.8166   -4.3356  -21.4798 C   0  0  0  0  0  0  0  0  0  0  0  0
   20.1630   -1.6923  -21.2777 O   0  0  0  0  0  0  0  0  0  0  0  0
   20.6328   -9.7067  -17.3744 N   0  0  0  0  0  0  0  0  0  0  0  0
   20.8195   -5.2953  -21.0178 C   0  0  0  0  0  0  0  0  0  0  0  0
   20.3929   -6.0979  -18.2273 C   0  0  0  0  0  0  0  0  0  0  0  0
   20.8645   -7.3679  -17.9925 C   0  0  0  0  0  0  0  0  0  0  0  0
   20.0537   -8.4461  -17.5872 C   0  0  0  0  0  0  0  0  0  0  0  0
   20.4430  -10.5401  -16.2556 C   0  0  0  0  0  0  0  0  0  0  0  0
   21.5584  -11.3431  -15.7231 C   0  0  0  0  0  0  0  0  0  0  0  0
   23.7962  -11.5616  -15.0794 C   0  0  0  0  0  0  0  0  0  0  0  0
   18.4567   -4.6672  -18.3205 F   0  0  0  0  0  0  0  0  0  0  0  0
   19.0420   -5.8920  -18.0505 C   0  0  0  0  0  0  0  0  0  0  0  0
   20.6361   -2.8686  -22.0907 S   0  0  1  0  0  6  0  0  0  0  0  0
   24.3941   -5.5948  -19.2225 S   0  0  0  0  0  0  0  0  0  0  0  0
   18.2359   -6.9096  -17.6599 C   0  0  0  0  0  0  0  0  0  0  0  0
   18.7200   -8.2047  -17.4201 C   0  0  0  0  0  0  0  0  0  0  0  0
   19.3222  -10.6001  -15.7093 O   0  0  0  0  0  0  0  0  0  0  0  0
   21.3681  -12.6533  -15.3659 C   0  0  0  0  0  0  0  0  0  0  0  0
   22.3536  -13.4074  -14.8784 N   0  0  0  0  0  0  0  0  0  0  0  0
   23.6242  -12.9072  -14.7064 C   0  0  0  0  0  0  0  0  0  0  0  0
   22.7859  -10.8407  -15.5630 N   0  0  0  0  0  0  0  0  0  0  0  0
   24.6084  -13.6219  -14.2311 O   0  0  0  0  0  0  0  0  0  0  0  0
   25.5697  -14.3359  -13.7844 C   0  0  0  0  0  0  0  0  0  0  0  0
   25.9157  -13.9594  -12.4588 F   0  0  0  0  0  0  0  0  0  0  0  0
   25.3215   -4.7806  -16.4616 H   0  0  0  0  0  0  0  0  0  0  0  0
  2  1  1  1
  2  5  1  0
  2  8  1  0
 15  2  1  0
  8  3  1  0
  3  9  2  0
  3 24  1  0
  5  4  1  1
  4 24  1  0
  5  6  1  0
  5 14  1  0
  6  7  1  0
 23  7  1  6
 23 10  2  0
 14 11  1  0
 11 23  1  0
 23 12  2  0
 13 17  1  0
 18 13  1  0
 16 15  2  0
 15 22  1  0
 17 16  1  0
 17 26  2  0
 19 18  1  0
 18 27  2  0
 19 28  1  0
 31 19  2  0
 20 30  2  0
 20 31  1  0
 22 21  1  0
 22 25  2  0
 25 26  1  0
 28 29  2  0
 29 30  1  0
 30 32  1  0
 32 33  1  0
 33 34  1  0
  9 35  1  0
M  END
$$$$
