
     RDKit          3D

 35 38  0  0  0  0  0  0  0  0999 V2000
   21.1078   -4.0277  -17.7479 C   0  0  0  0  0  0  0  0  0  0  0  0
   21.5963   -5.1413  -18.6302 C   0  0  1  0  0  0  0  0  0  0  0  0
   23.8900   -4.2714  -18.1827 C   0  0  0  0  0  0  0  0  0  0  0  0
   22.0664   -3.2626  -20.1702 C   0  0  0  0  0  0  0  0  0  0  0  0
   21.6846   -4.7527  -20.1045 C   0  0  2  0  0  0  0  0  0  0  0  0
   20.4314   -4.8797  -20.8560 C   0  0  0  0  0  0  0  0  0  0  0  0
   20.6582   -4.6250  -22.3729 C   0  0  0  0  0  0  0  0  0  0  0  0
   22.9976   -5.4044  -18.2468 N   0  0  0  0  0  0  0  0  0  0  0  0
   24.9541   -4.3096  -17.5014 N   0  0  0  0  0  0  0  0  0  0  0  0
   22.7328   -5.5007  -23.8820 O   0  0  0  0  0  0  0  0  0  0  0  0
   22.3018   -6.7451  -21.5123 C   0  0  0  0  0  0  0  0  0  0  0  0
   20.7856   -6.9919  -23.7004 O   0  0  0  0  0  0  0  0  0  0  0  0
   21.3522   -9.9783  -17.6597 N   0  0  0  0  0  0  0  0  0  0  0  0
   22.8239   -5.5601  -20.7026 C   0  0  0  0  0  0  0  0  0  0  0  0
   20.8145   -6.4000  -18.3973 C   0  0  0  0  0  0  0  0  0  0  0  0
   21.3860   -7.5892  -18.0925 C   0  0  0  0  0  0  0  0  0  0  0  0
   20.6602   -8.7811  -17.9851 C   0  0  0  0  0  0  0  0  0  0  0  0
   20.8848  -11.0748  -16.9158 C   0  0  0  0  0  0  0  0  0  0  0  0
   21.8326  -12.0913  -16.3889 C   0  0  0  0  0  0  0  0  0  0  0  0
   23.9347  -12.7237  -15.6189 C   0  0  0  0  0  0  0  0  0  0  0  0
   18.7481   -5.2351  -18.8108 F   0  0  0  0  0  0  0  0  0  0  0  0
   19.4403   -6.3889  -18.6050 C   0  0  0  0  0  0  0  0  0  0  0  0
   21.6095   -5.9868  -22.9924 S   0  0  1  0  0  6  0  0  0  0  0  0
   23.4336   -2.8307  -19.0990 S   0  0  0  0  0  0  0  0  0  0  0  0
   18.7268   -7.5441  -18.5045 C   0  0  0  0  0  0  0  0  0  0  0  0
   19.3083   -8.7746  -18.1926 C   0  0  0  0  0  0  0  0  0  0  0  0
   19.6627  -11.1898  -16.6996 O   0  0  0  0  0  0  0  0  0  0  0  0
   21.3897  -13.3685  -16.2049 C   0  0  0  0  0  0  0  0  0  0  0  0
   22.2121  -14.3224  -15.7302 N   0  0  0  0  0  0  0  0  0  0  0  0
   23.4808  -14.0136  -15.4350 C   0  0  0  0  0  0  0  0  0  0  0  0
   23.0900  -11.7660  -16.1011 N   0  0  0  0  0  0  0  0  0  0  0  0
   24.3538  -14.9844  -14.9413 O   0  0  0  0  0  0  0  0  0  0  0  0
   24.0002  -16.3461  -14.9582 C   0  0  0  0  0  0  0  0  0  0  0  0
   23.4529  -16.7179  -13.7318 F   0  0  0  0  0  0  0  0  0  0  0  0
   25.6725   -5.0315  -17.7028 H   0  0  0  0  0  0  0  0  0  0  0  0
  1  2  1  6
  2  5  1  0
  2  8  1  0
  2 15  1  6
  8  3  1  0
  3  9  2  0
  3 24  1  0
  5  4  1  1
  4 24  1  6
  6  5  1  1
 14  5  1  1
  7  6  1  1
 23  7  1  1
 23 10  2  0
 11 14  1  1
 11 23  1  0
 23 12  2  0
 13 17  1  0
 18 13  1  0
 16 15  2  0
 15 22  1  0
 17 16  1  0
 17 26  2  0
 19 18  1  0
 18 27  2  0
 19 28  1  0
 31 19  2  0
 20 30  2  0
 20 31  1  0
 22 21  1  0
 22 25  2  0
 25 26  1  0
 28 29  2  0
 29 30  1  0
 30 32  1  0
 32 33  1  0
 33 34  1  6
  9 35  1  0
M  END
$$$$
