
     RDKit          3D

 35 38  0  0  0  0  0  0  0  0999 V2000
   20.4522   -3.8314  -18.4208 C   0  0  0  0  0  0  0  0  0  0  0  0
   21.3800   -5.0640  -18.7283 C   0  0  1  0  0  0  0  0  0  0  0  0
   23.7846   -4.5802  -18.0067 C   0  0  0  0  0  0  0  0  0  0  0  0
   23.0004   -5.9507  -20.3667 C   0  0  0  0  0  0  0  0  0  0  0  0
   21.7907   -5.0795  -20.1144 C   0  0  2  0  0  0  0  0  0  0  0  0
   22.2309   -3.6938  -20.5834 C   0  0  0  0  0  0  0  0  0  0  0  0
   22.0784   -3.4946  -22.0743 C   0  0  0  0  0  0  0  0  0  0  0  0
   22.4207   -4.8086  -17.7636 N   0  0  0  0  0  0  0  0  0  0  0  0
   24.5534   -3.8466  -17.3044 N   0  0  0  0  0  0  0  0  0  0  0  0
   20.0075   -3.3425  -23.8406 O   0  0  0  0  0  0  0  0  0  0  0  0
   19.6915   -4.8872  -21.6033 C   0  0  0  0  0  0  0  0  0  0  0  0
   19.7642   -2.2161  -21.6913 O   0  0  0  0  0  0  0  0  0  0  0  0
   21.2296   -9.4431  -16.4839 N   0  0  0  0  0  0  0  0  0  0  0  0
   20.8075   -5.6855  -21.0959 C   0  0  0  0  0  0  0  0  0  0  0  0
   20.5775   -6.2228  -18.2198 C   0  0  0  0  0  0  0  0  0  0  0  0
   21.1951   -7.3002  -17.6298 C   0  0  0  0  0  0  0  0  0  0  0  0
   20.5051   -8.3892  -17.0622 C   0  0  0  0  0  0  0  0  0  0  0  0
   20.8616  -10.8018  -16.4608 C   0  0  0  0  0  0  0  0  0  0  0  0
   21.8292  -11.8319  -16.0421 C   0  0  0  0  0  0  0  0  0  0  0  0
   23.9142  -12.4497  -15.1812 C   0  0  0  0  0  0  0  0  0  0  0  0
   18.4834   -5.2262  -18.8723 F   0  0  0  0  0  0  0  0  0  0  0  0
   19.1999   -6.2319  -18.2472 C   0  0  0  0  0  0  0  0  0  0  0  0
   20.3268   -3.4190  -22.4019 S   0  0  1  0  0  6  0  0  0  0  0  0
   24.4612   -5.4279  -19.4603 S   0  0  0  0  0  0  0  0  0  0  0  0
   18.5075   -7.2653  -17.7080 C   0  0  0  0  0  0  0  0  0  0  0  0
   19.1404   -8.3634  -17.1056 C   0  0  0  0  0  0  0  0  0  0  0  0
   19.7075  -11.1383  -16.7969 O   0  0  0  0  0  0  0  0  0  0  0  0
   21.5138  -13.1636  -16.1291 C   0  0  0  0  0  0  0  0  0  0  0  0
   22.3636  -14.1210  -15.7566 N   0  0  0  0  0  0  0  0  0  0  0  0
   23.6123  -13.8216  -15.2613 C   0  0  0  0  0  0  0  0  0  0  0  0
   23.0376  -11.5226  -15.5636 N   0  0  0  0  0  0  0  0  0  0  0  0
   24.4648  -14.7379  -14.8887 O   0  0  0  0  0  0  0  0  0  0  0  0
   25.3002  -15.6249  -14.5027 C   0  0  0  0  0  0  0  0  0  0  0  0
   26.1066  -16.0748  -15.5825 F   0  0  0  0  0  0  0  0  0  0  0  0
   25.1584   -4.2495  -16.5602 H   0  0  0  0  0  0  0  0  0  0  0  0
  2  1  1  6
  2  5  1  0
  2  8  1  0
 15  2  1  0
  8  3  1  0
  3  9  2  0
  3 24  1  0
  5  4  1  1
  4 24  1  0
  5  6  1  0
  5 14  1  0
  6  7  1  0
 23  7  1  6
 23 10  2  0
 14 11  1  0
 11 23  1  0
 23 12  2  0
 13 17  1  0
 18 13  1  0
 16 15  2  0
 15 22  1  0
 17 16  1  0
 17 26  2  0
 19 18  1  0
 18 27  2  0
 19 28  1  0
 31 19  2  0
 20 30  2  0
 20 31  1  0
 22 21  1  0
 22 25  2  0
 25 26  1  0
 28 29  2  0
 29 30  1  0
 30 32  1  0
 32 33  1  0
 33 34  1  0
  9 35  1  0
M  END
$$$$
