
     RDKit          3D

 35 38  0  0  0  0  0  0  0  0999 V2000
   20.5239   -3.8198  -18.3668 C   0  0  0  0  0  0  0  0  0  0  0  0
   21.3817   -5.0189  -18.9156 C   0  0  1  0  0  0  0  0  0  0  0  0
   23.8260   -4.7729  -18.2072 C   0  0  0  0  0  0  0  0  0  0  0  0
   22.9112   -5.6757  -20.7392 C   0  0  0  0  0  0  0  0  0  0  0  0
   21.7529   -4.8103  -20.2972 C   0  0  2  0  0  0  0  0  0  0  0  0
   22.2472   -3.3844  -20.5350 C   0  0  0  0  0  0  0  0  0  0  0  0
   22.0636   -2.9219  -21.9626 C   0  0  0  0  0  0  0  0  0  0  0  0
   22.4597   -4.9810  -17.9589 N   0  0  0  0  0  0  0  0  0  0  0  0
   24.6487   -4.2070  -17.4164 N   0  0  0  0  0  0  0  0  0  0  0  0
   19.9548   -2.3746  -23.6012 O   0  0  0  0  0  0  0  0  0  0  0  0
   19.6255   -4.2706  -21.6548 C   0  0  0  0  0  0  0  0  0  0  0  0
   19.8260   -1.6308  -21.2823 O   0  0  0  0  0  0  0  0  0  0  0  0
   21.0784   -9.8006  -17.7843 N   0  0  0  0  0  0  0  0  0  0  0  0
   20.7147   -5.1927  -21.3331 C   0  0  0  0  0  0  0  0  0  0  0  0
   20.5379   -6.2128  -18.5869 C   0  0  0  0  0  0  0  0  0  0  0  0
   21.1141   -7.4417  -18.3679 C   0  0  0  0  0  0  0  0  0  0  0  0
   20.3957   -8.5904  -17.9821 C   0  0  0  0  0  0  0  0  0  0  0  0
   20.7235  -10.8285  -16.8902 C   0  0  0  0  0  0  0  0  0  0  0  0
   21.7454  -11.7568  -16.3738 C   0  0  0  0  0  0  0  0  0  0  0  0
   23.9076  -12.1902  -15.5946 C   0  0  0  0  0  0  0  0  0  0  0  0
   18.4882   -4.9493  -18.6697 F   0  0  0  0  0  0  0  0  0  0  0  0
   19.1737   -6.1242  -18.4142 C   0  0  0  0  0  0  0  0  0  0  0  0
   20.3095   -2.7146  -22.2097 S   0  0  1  0  0  6  0  0  0  0  0  0
   24.4202   -5.3826  -19.8086 S   0  0  0  0  0  0  0  0  0  0  0  0
   18.4549   -7.2118  -18.0423 C   0  0  0  0  0  0  0  0  0  0  0  0
   19.0458   -8.4648  -17.8184 C   0  0  0  0  0  0  0  0  0  0  0  0
   19.5349  -10.9559  -16.5308 O   0  0  0  0  0  0  0  0  0  0  0  0
   21.4543  -13.0839  -16.1884 C   0  0  0  0  0  0  0  0  0  0  0  0
   22.3534  -13.9501  -15.7205 N   0  0  0  0  0  0  0  0  0  0  0  0
   23.6314  -13.5555  -15.3963 C   0  0  0  0  0  0  0  0  0  0  0  0
   22.9817  -11.3559  -16.0643 N   0  0  0  0  0  0  0  0  0  0  0  0
   24.5323  -14.3812  -14.9361 O   0  0  0  0  0  0  0  0  0  0  0  0
   25.4216  -15.1932  -14.5076 C   0  0  0  0  0  0  0  0  0  0  0  0
   25.3185  -16.4546  -15.1531 F   0  0  0  0  0  0  0  0  0  0  0  0
   25.4775   -4.7120  -17.0420 H   0  0  0  0  0  0  0  0  0  0  0  0
  2  1  1  1
  2  5  1  0
  2  8  1  0
 15  2  1  0
  8  3  1  0
  3  9  2  0
  3 24  1  0
  5  4  1  6
  4 24  1  0
  5  6  1  0
  5 14  1  0
  6  7  1  0
 23  7  1  6
 23 10  2  0
 14 11  1  0
 11 23  1  0
 23 12  2  0
 13 17  1  0
 18 13  1  0
 16 15  2  0
 15 22  1  0
 17 16  1  0
 17 26  2  0
 19 18  1  0
 18 27  2  0
 19 28  1  0
 31 19  2  0
 20 30  2  0
 20 31  1  0
 22 21  1  0
 22 25  2  0
 25 26  1  0
 28 29  2  0
 29 30  1  0
 30 32  1  0
 32 33  1  0
 33 34  1  0
  9 35  1  0
M  END
$$$$
