
     RDKit          3D

 35 38  0  0  0  0  0  0  0  0999 V2000
   21.2546   -4.2775  -18.0147 C   0  0  0  0  0  0  0  0  0  0  0  0
   21.6456   -5.5959  -18.6197 C   0  0  1  0  0  0  0  0  0  0  0  0
   24.0061   -4.8691  -18.2762 C   0  0  0  0  0  0  0  0  0  0  0  0
   22.3306   -4.1460  -20.5040 C   0  0  0  0  0  0  0  0  0  0  0  0
   21.8003   -5.5444  -20.1382 C   0  0  2  0  0  0  0  0  0  0  0  0
   20.5551   -5.7123  -20.8949 C   0  0  0  0  0  0  0  0  0  0  0  0
   20.8349   -5.8130  -22.4210 C   0  0  0  0  0  0  0  0  0  0  0  0
   23.0061   -5.9004  -18.1335 N   0  0  0  0  0  0  0  0  0  0  0  0
   25.0480   -4.8591  -17.5604 N   0  0  0  0  0  0  0  0  0  0  0  0
   22.8394   -7.1841  -23.6252 O   0  0  0  0  0  0  0  0  0  0  0  0
   22.2413   -7.8423  -21.0642 C   0  0  0  0  0  0  0  0  0  0  0  0
   20.7496   -8.4117  -23.2086 O   0  0  0  0  0  0  0  0  0  0  0  0
   20.8658   -9.8941  -16.3141 N   0  0  0  0  0  0  0  0  0  0  0  0
   22.8641   -6.5649  -20.5049 C   0  0  0  0  0  0  0  0  0  0  0  0
   20.7374   -6.6958  -18.1558 C   0  0  0  0  0  0  0  0  0  0  0  0
   21.1587   -7.7540  -17.4233 C   0  0  0  0  0  0  0  0  0  0  0  0
   20.3294   -8.8305  -17.0881 C   0  0  0  0  0  0  0  0  0  0  0  0
   21.1170  -11.2171  -16.7152 C   0  0  0  0  0  0  0  0  0  0  0  0
   22.3237  -11.9382  -16.2326 C   0  0  0  0  0  0  0  0  0  0  0  0
   24.3803  -11.9865  -15.1463 C   0  0  0  0  0  0  0  0  0  0  0  0
   18.8562   -5.6427  -19.2283 F   0  0  0  0  0  0  0  0  0  0  0  0
   19.4138   -6.7016  -18.5796 C   0  0  0  0  0  0  0  0  0  0  0  0
   21.6565   -7.3594  -22.6982 S   0  0  1  0  0  6  0  0  0  0  0  0
   23.7137   -3.6235  -19.4954 S   0  0  0  0  0  0  0  0  0  0  0  0
   18.6006   -7.7458  -18.2598 C   0  0  0  0  0  0  0  0  0  0  0  0
   19.0274   -8.8414  -17.5067 C   0  0  0  0  0  0  0  0  0  0  0  0
   20.3162  -11.7849  -17.4831 O   0  0  0  0  0  0  0  0  0  0  0  0
   22.4294  -13.2765  -16.4753 C   0  0  0  0  0  0  0  0  0  0  0  0
   23.5040  -13.9709  -16.0572 N   0  0  0  0  0  0  0  0  0  0  0  0
   24.4813  -13.3400  -15.3949 C   0  0  0  0  0  0  0  0  0  0  0  0
   23.2850  -11.2944  -15.5759 N   0  0  0  0  0  0  0  0  0  0  0  0
   25.6060  -14.0371  -14.9506 O   0  0  0  0  0  0  0  0  0  0  0  0
   25.4992  -15.3680  -14.5069 C   0  0  0  0  0  0  0  0  0  0  0  0
   25.1741  -15.4004  -13.1522 F   0  0  0  0  0  0  0  0  0  0  0  0
   24.9926   -5.1347  -16.5611 H   0  0  0  0  0  0  0  0  0  0  0  0
  1  2  1  6
  2  5  1  0
  2  8  1  0
  2 15  1  6
  8  3  1  0
  3  9  2  0
  3 24  1  0
  5  4  1  1
  4 24  1  6
  6  5  1  1
 14  5  1  1
  7  6  1  1
 23  7  1  1
 23 10  2  0
 11 14  1  1
 11 23  1  0
 23 12  2  0
 13 17  1  0
 18 13  1  0
 16 15  2  0
 15 22  1  0
 17 16  1  0
 17 26  2  0
 19 18  1  0
 18 27  2  0
 19 28  1  0
 31 19  2  0
 20 30  2  0
 20 31  1  0
 22 21  1  0
 22 25  2  0
 25 26  1  0
 28 29  2  0
 29 30  1  0
 30 32  1  0
 32 33  1  0
 33 34  1  6
  9 35  1  0
M  END
$$$$
