
     RDKit          3D

 35 38  0  0  0  0  0  0  0  0999 V2000
   21.3455   -3.9154  -17.9849 C   0  0  0  0  0  0  0  0  0  0  0  0
   21.6934   -5.2307  -18.6223 C   0  0  1  0  0  0  0  0  0  0  0  0
   24.0751   -4.6101  -18.2217 C   0  0  0  0  0  0  0  0  0  0  0  0
   22.4666   -3.7561  -20.4526 C   0  0  0  0  0  0  0  0  0  0  0  0
   21.8749   -5.1419  -20.1361 C   0  0  2  0  0  0  0  0  0  0  0  0
   20.6366   -5.2374  -20.9163 C   0  0  0  0  0  0  0  0  0  0  0  0
   20.9371   -5.3055  -22.4403 C   0  0  0  0  0  0  0  0  0  0  0  0
   23.0324   -5.6038  -18.1246 N   0  0  0  0  0  0  0  0  0  0  0  0
   25.1047   -4.6629  -17.4902 N   0  0  0  0  0  0  0  0  0  0  0  0
   22.9047   -6.7214  -23.6536 O   0  0  0  0  0  0  0  0  0  0  0  0
   22.2388   -7.4282  -21.1224 C   0  0  0  0  0  0  0  0  0  0  0  0
   20.7609   -7.8749  -23.3050 O   0  0  0  0  0  0  0  0  0  0  0  0
   20.6811   -9.4906  -16.3361 N   0  0  0  0  0  0  0  0  0  0  0  0
   22.9029   -6.1936  -20.5164 C   0  0  0  0  0  0  0  0  0  0  0  0
   20.7345   -6.3059  -18.2049 C   0  0  0  0  0  0  0  0  0  0  0  0
   21.0876   -7.3670  -17.4414 C   0  0  0  0  0  0  0  0  0  0  0  0
   20.2155   -8.4217  -17.1479 C   0  0  0  0  0  0  0  0  0  0  0  0
   21.1495  -10.7501  -16.7464 C   0  0  0  0  0  0  0  0  0  0  0  0
   22.2139  -11.4484  -15.9793 C   0  0  0  0  0  0  0  0  0  0  0  0
   23.7285  -11.5585  -14.2170 C   0  0  0  0  0  0  0  0  0  0  0  0
   18.9441   -5.2196  -19.3934 F   0  0  0  0  0  0  0  0  0  0  0  0
   19.4382   -6.2853  -18.7057 C   0  0  0  0  0  0  0  0  0  0  0  0
   21.7006   -6.8753  -22.7503 S   0  0  1  0  0  6  0  0  0  0  0  0
   23.8528   -3.3192  -19.4081 S   0  0  0  0  0  0  0  0  0  0  0  0
   18.5839   -7.3081  -18.4267 C   0  0  0  0  0  0  0  0  0  0  0  0
   18.9403   -8.4067  -17.6421 C   0  0  0  0  0  0  0  0  0  0  0  0
   20.6633  -11.2808  -17.7640 O   0  0  0  0  0  0  0  0  0  0  0  0
   22.6307  -12.6762  -16.4037 C   0  0  0  0  0  0  0  0  0  0  0  0
   23.5919  -13.3459  -15.7409 N   0  0  0  0  0  0  0  0  0  0  0  0
   24.1457  -12.7999  -14.6513 C   0  0  0  0  0  0  0  0  0  0  0  0
   22.7528  -10.8902  -14.8987 N   0  0  0  0  0  0  0  0  0  0  0  0
   25.1442  -13.4737  -13.9460 O   0  0  0  0  0  0  0  0  0  0  0  0
   25.8105  -14.5741  -14.5160 C   0  0  0  0  0  0  0  0  0  0  0  0
   26.8154  -14.1369  -15.3767 F   0  0  0  0  0  0  0  0  0  0  0  0
   25.0535   -5.1113  -16.5553 H   0  0  0  0  0  0  0  0  0  0  0  0
  1  2  1  6
  2  5  1  0
  2  8  1  0
  2 15  1  6
  8  3  1  0
  3  9  2  0
  3 24  1  0
  5  4  1  1
  4 24  1  6
  6  5  1  1
 14  5  1  1
  7  6  1  1
 23  7  1  1
 23 10  2  0
 11 14  1  1
 11 23  1  0
 23 12  2  0
 13 17  1  0
 18 13  1  0
 16 15  2  0
 15 22  1  0
 17 16  1  0
 17 26  2  0
 19 18  1  0
 18 27  2  0
 19 28  1  0
 31 19  2  0
 20 30  2  0
 20 31  1  0
 22 21  1  0
 22 25  2  0
 25 26  1  0
 28 29  2  0
 29 30  1  0
 30 32  1  0
 32 33  1  0
 33 34  1  6
  9 35  1  0
M  END
$$$$
