
     RDKit          3D

 35 38  0  0  0  0  0  0  0  0999 V2000
   20.6138   -3.4849  -18.2697 C   0  0  0  0  0  0  0  0  0  0  0  0
   21.5203   -4.7141  -18.6466 C   0  0  1  0  0  0  0  0  0  0  0  0
   23.9414   -4.2949  -17.9395 C   0  0  0  0  0  0  0  0  0  0  0  0
   23.1050   -5.5461  -20.3474 C   0  0  0  0  0  0  0  0  0  0  0  0
   21.9110   -4.6717  -20.0379 C   0  0  2  0  0  0  0  0  0  0  0  0
   22.3634   -3.2719  -20.4500 C   0  0  0  0  0  0  0  0  0  0  0  0
   22.1925   -3.0029  -21.9278 C   0  0  0  0  0  0  0  0  0  0  0  0
   22.5780   -4.5165  -17.6868 N   0  0  0  0  0  0  0  0  0  0  0  0
   24.7299   -3.6041  -17.2160 N   0  0  0  0  0  0  0  0  0  0  0  0
   20.0989   -2.7436  -23.6546 O   0  0  0  0  0  0  0  0  0  0  0  0
   19.7938   -4.3845  -21.4852 C   0  0  0  0  0  0  0  0  0  0  0  0
   19.9015   -1.7133  -21.4530 O   0  0  0  0  0  0  0  0  0  0  0  0
   21.3164   -9.0923  -16.4047 N   0  0  0  0  0  0  0  0  0  0  0  0
   20.9059   -5.2195  -21.0312 C   0  0  0  0  0  0  0  0  0  0  0  0
   20.7095   -5.8843  -18.1794 C   0  0  0  0  0  0  0  0  0  0  0  0
   21.3108   -6.9516  -17.5551 C   0  0  0  0  0  0  0  0  0  0  0  0
   20.6080   -8.0503  -17.0229 C   0  0  0  0  0  0  0  0  0  0  0  0
   20.9342  -10.4458  -16.3415 C   0  0  0  0  0  0  0  0  0  0  0  0
   21.8824  -11.4695  -15.8664 C   0  0  0  0  0  0  0  0  0  0  0  0
   23.9782  -12.0850  -15.0308 C   0  0  0  0  0  0  0  0  0  0  0  0
   18.6383   -4.9206  -18.9448 F   0  0  0  0  0  0  0  0  0  0  0  0
   19.3356   -5.9144  -18.2803 C   0  0  0  0  0  0  0  0  0  0  0  0
   20.4376   -2.8898  -22.2257 S   0  0  1  0  0  6  0  0  0  0  0  0
   24.5856   -5.0841  -19.4399 S   0  0  0  0  0  0  0  0  0  0  0  0
   18.6311   -6.9576  -17.7768 C   0  0  0  0  0  0  0  0  0  0  0  0
   19.2474   -8.0452  -17.1393 C   0  0  0  0  0  0  0  0  0  0  0  0
   19.7839  -10.7830  -16.6898 O   0  0  0  0  0  0  0  0  0  0  0  0
   21.5184  -12.7908  -15.8190 C   0  0  0  0  0  0  0  0  0  0  0  0
   22.3495  -13.7420  -15.3922 N   0  0  0  0  0  0  0  0  0  0  0  0
   23.6268  -13.4461  -14.9733 C   0  0  0  0  0  0  0  0  0  0  0  0
   23.1190  -11.1640  -15.4636 N   0  0  0  0  0  0  0  0  0  0  0  0
   24.4620  -14.3565  -14.5503 O   0  0  0  0  0  0  0  0  0  0  0  0
   25.2674  -15.2490  -14.1162 C   0  0  0  0  0  0  0  0  0  0  0  0
   24.6429  -16.5242  -14.0685 F   0  0  0  0  0  0  0  0  0  0  0  0
   25.3358   -4.0477  -16.4961 H   0  0  0  0  0  0  0  0  0  0  0  0
  2  1  1  6
  2  5  1  0
  2  8  1  0
 15  2  1  0
  8  3  1  0
  3  9  2  0
  3 24  1  0
  5  4  1  1
  4 24  1  0
  5  6  1  0
  5 14  1  0
  6  7  1  0
 23  7  1  6
 23 10  2  0
 14 11  1  0
 11 23  1  0
 23 12  2  0
 13 17  1  0
 18 13  1  0
 16 15  2  0
 15 22  1  0
 17 16  1  0
 17 26  2  0
 19 18  1  0
 18 27  2  0
 19 28  1  0
 31 19  2  0
 20 30  2  0
 20 31  1  0
 22 21  1  0
 22 25  2  0
 25 26  1  0
 28 29  2  0
 29 30  1  0
 30 32  1  0
 32 33  1  0
 33 34  1  0
  9 35  1  0
M  END
$$$$
