
     RDKit          3D

 35 38  0  0  0  0  0  0  0  0999 V2000
   21.2866   -4.1225  -17.8627 C   0  0  0  0  0  0  0  0  0  0  0  0
   21.6763   -5.4074  -18.5370 C   0  0  1  0  0  0  0  0  0  0  0  0
   24.0376   -4.6998  -18.1604 C   0  0  0  0  0  0  0  0  0  0  0  0
   22.3578   -3.8604  -20.3438 C   0  0  0  0  0  0  0  0  0  0  0  0
   21.8280   -5.2761  -20.0510 C   0  0  2  0  0  0  0  0  0  0  0  0
   20.5813   -5.4039  -20.8130 C   0  0  0  0  0  0  0  0  0  0  0  0
   20.8580   -5.4243  -22.3428 C   0  0  0  0  0  0  0  0  0  0  0  0
   23.0376   -5.7371  -18.0701 N   0  0  0  0  0  0  0  0  0  0  0  0
   25.0809   -4.7275  -17.4472 N   0  0  0  0  0  0  0  0  0  0  0  0
   22.8599   -6.7304  -23.6214 O   0  0  0  0  0  0  0  0  0  0  0  0
   22.2667   -7.5222  -21.0973 C   0  0  0  0  0  0  0  0  0  0  0  0
   20.7707   -7.9780  -23.2657 O   0  0  0  0  0  0  0  0  0  0  0  0
   20.8949   -9.8054  -16.4285 N   0  0  0  0  0  0  0  0  0  0  0  0
   22.8908   -6.2761  -20.4729 C   0  0  0  0  0  0  0  0  0  0  0  0
   20.7688   -6.5301  -18.1297 C   0  0  0  0  0  0  0  0  0  0  0  0
   21.1882   -7.6176  -17.4405 C   0  0  0  0  0  0  0  0  0  0  0  0
   20.3607   -8.7110  -17.1601 C   0  0  0  0  0  0  0  0  0  0  0  0
   21.4103  -11.0131  -16.9285 C   0  0  0  0  0  0  0  0  0  0  0  0
   22.3173  -11.8496  -16.0998 C   0  0  0  0  0  0  0  0  0  0  0  0
   23.4844  -12.2697  -14.1318 C   0  0  0  0  0  0  0  0  0  0  0  0
   18.8925   -5.4385  -19.1718 F   0  0  0  0  0  0  0  0  0  0  0  0
   19.4489   -6.5225  -18.5652 C   0  0  0  0  0  0  0  0  0  0  0  0
   21.6787   -6.9541  -22.7025 S   0  0  1  0  0  6  0  0  0  0  0  0
   23.7429   -3.3918  -19.3119 S   0  0  0  0  0  0  0  0  0  0  0  0
   18.6376   -7.5829  -18.2985 C   0  0  0  0  0  0  0  0  0  0  0  0
   19.0624   -8.7087  -17.5903 C   0  0  0  0  0  0  0  0  0  0  0  0
   21.0997  -11.3802  -18.0783 O   0  0  0  0  0  0  0  0  0  0  0  0
   22.8060  -13.0089  -16.6276 C   0  0  0  0  0  0  0  0  0  0  0  0
   23.6305  -13.7983  -15.9144 N   0  0  0  0  0  0  0  0  0  0  0  0
   23.9752  -13.4410  -14.6713 C   0  0  0  0  0  0  0  0  0  0  0  0
   22.6490  -11.4784  -14.8661 N   0  0  0  0  0  0  0  0  0  0  0  0
   24.8287  -14.2419  -13.9107 O   0  0  0  0  0  0  0  0  0  0  0  0
   26.0579  -14.6833  -14.4339 C   0  0  0  0  0  0  0  0  0  0  0  0
   25.9518  -16.0033  -14.8677 F   0  0  0  0  0  0  0  0  0  0  0  0
   25.4807   -3.8428  -17.0795 H   0  0  0  0  0  0  0  0  0  0  0  0
  1  2  1  6
  2  5  1  0
  2  8  1  0
  2 15  1  6
  8  3  1  0
  3  9  2  0
  3 24  1  0
  5  4  1  1
  4 24  1  6
  6  5  1  1
 14  5  1  1
  7  6  1  1
 23  7  1  1
 23 10  2  0
 11 14  1  1
 11 23  1  0
 23 12  2  0
 13 17  1  0
 18 13  1  0
 16 15  2  0
 15 22  1  0
 17 16  1  0
 17 26  2  0
 19 18  1  0
 18 27  2  0
 19 28  1  0
 31 19  2  0
 20 30  2  0
 20 31  1  0
 22 21  1  0
 22 25  2  0
 25 26  1  0
 28 29  2  0
 29 30  1  0
 30 32  1  0
 32 33  1  0
 33 34  1  6
  9 35  1  0
M  END
$$$$
