
     RDKit          3D

 35 38  0  0  0  0  0  0  0  0999 V2000
   21.0408   -4.1133  -17.9910 C   0  0  0  0  0  0  0  0  0  0  0  0
   21.5306   -5.4202  -18.5474 C   0  0  1  0  0  0  0  0  0  0  0  0
   23.8293   -4.5047  -18.2371 C   0  0  0  0  0  0  0  0  0  0  0  0
   22.1046   -3.9941  -20.4862 C   0  0  0  0  0  0  0  0  0  0  0  0
   21.6815   -5.4139  -20.0671 C   0  0  2  0  0  0  0  0  0  0  0  0
   20.4528   -5.7036  -20.8139 C   0  0  0  0  0  0  0  0  0  0  0  0
   20.7399   -5.8399  -22.3358 C   0  0  0  0  0  0  0  0  0  0  0  0
   22.9100   -5.6025  -18.0535 N   0  0  0  0  0  0  0  0  0  0  0  0
   24.8672   -4.3892  -17.5248 N   0  0  0  0  0  0  0  0  0  0  0  0
   22.8428   -7.0997  -23.4931 O   0  0  0  0  0  0  0  0  0  0  0  0
   22.2953   -7.7049  -20.9078 C   0  0  0  0  0  0  0  0  0  0  0  0
   20.8516   -8.4652  -23.0257 O   0  0  0  0  0  0  0  0  0  0  0  0
   21.0940   -9.7236  -16.1625 N   0  0  0  0  0  0  0  0  0  0  0  0
   22.8195   -6.3641  -20.3981 C   0  0  0  0  0  0  0  0  0  0  0  0
   20.7080   -6.5674  -18.0405 C   0  0  0  0  0  0  0  0  0  0  0  0
   21.2174   -7.5862  -17.3082 C   0  0  0  0  0  0  0  0  0  0  0  0
   20.4681   -8.7072  -16.9327 C   0  0  0  0  0  0  0  0  0  0  0  0
   21.0974  -11.1093  -16.3953 C   0  0  0  0  0  0  0  0  0  0  0  0
   22.2441  -11.9475  -15.9572 C   0  0  0  0  0  0  0  0  0  0  0  0
   24.3724  -12.1897  -15.0499 C   0  0  0  0  0  0  0  0  0  0  0  0
   18.7321   -5.6497  -19.0659 F   0  0  0  0  0  0  0  0  0  0  0  0
   19.3748   -6.6620  -18.4217 C   0  0  0  0  0  0  0  0  0  0  0  0
   21.6762   -7.3291  -22.5572 S   0  0  1  0  0  6  0  0  0  0  0  0
   23.4439   -3.3312  -19.5012 S   0  0  0  0  0  0  0  0  0  0  0  0
   18.6391   -7.7499  -18.0625 C   0  0  0  0  0  0  0  0  0  0  0  0
   19.1569   -8.8054  -17.3093 C   0  0  0  0  0  0  0  0  0  0  0  0
   20.1267  -11.6336  -16.9750 O   0  0  0  0  0  0  0  0  0  0  0  0
   22.1563  -13.3022  -16.0927 C   0  0  0  0  0  0  0  0  0  0  0  0
   23.1695  -14.1011  -15.7098 N   0  0  0  0  0  0  0  0  0  0  0  0
   24.2774  -13.5592  -15.1895 C   0  0  0  0  0  0  0  0  0  0  0  0
   23.3372  -11.3911  -15.4423 N   0  0  0  0  0  0  0  0  0  0  0  0
   25.3425  -14.3656  -14.7847 O   0  0  0  0  0  0  0  0  0  0  0  0
   25.4382  -14.8181  -13.4559 C   0  0  0  0  0  0  0  0  0  0  0  0
   24.3384  -15.6117  -13.1359 F   0  0  0  0  0  0  0  0  0  0  0  0
   24.7794   -4.2630  -16.4981 H   0  0  0  0  0  0  0  0  0  0  0  0
  1  2  1  6
  2  5  1  0
  2  8  1  0
  2 15  1  6
  8  3  1  0
  3  9  2  0
  3 24  1  0
  5  4  1  6
  4 24  1  6
  6  5  1  1
 14  5  1  1
  7  6  1  1
 23  7  1  1
 23 10  2  0
 11 14  1  1
 11 23  1  0
 23 12  2  0
 13 17  1  0
 18 13  1  0
 16 15  2  0
 15 22  1  0
 17 16  1  0
 17 26  2  0
 19 18  1  0
 18 27  2  0
 19 28  1  0
 31 19  2  0
 20 30  2  0
 20 31  1  0
 22 21  1  0
 22 25  2  0
 25 26  1  0
 28 29  2  0
 29 30  1  0
 30 32  1  0
 32 33  1  0
 33 34  1  6
  9 35  1  0
M  END
$$$$
