
     RDKit          3D

 35 38  0  0  0  0  0  0  0  0999 V2000
   20.7567   -3.8002  -18.2263 C   0  0  0  0  0  0  0  0  0  0  0  0
   21.4835   -5.1587  -18.5439 C   0  0  1  0  0  0  0  0  0  0  0  0
   23.9216   -5.0731  -17.7788 C   0  0  0  0  0  0  0  0  0  0  0  0
   22.9716   -6.2632  -20.1755 C   0  0  0  0  0  0  0  0  0  0  0  0
   21.9104   -5.2160  -19.9240 C   0  0  2  0  0  0  0  0  0  0  0  0
   22.5718   -3.9097  -20.3601 C   0  0  0  0  0  0  0  0  0  0  0  0
   22.4783   -3.6643  -21.8490 C   0  0  0  0  0  0  0  0  0  0  0  0
   22.5347   -5.0871  -17.5597 N   0  0  0  0  0  0  0  0  0  0  0  0
   24.7843   -4.4821  -17.0516 N   0  0  0  0  0  0  0  0  0  0  0  0
   20.4880   -3.1575  -23.6417 O   0  0  0  0  0  0  0  0  0  0  0  0
   19.8939   -4.6696  -21.4390 C   0  0  0  0  0  0  0  0  0  0  0  0
   20.3886   -2.0425  -21.4750 O   0  0  0  0  0  0  0  0  0  0  0  0
   20.5736   -9.3268  -16.0873 N   0  0  0  0  0  0  0  0  0  0  0  0
   20.8610   -5.6426  -20.9309 C   0  0  0  0  0  0  0  0  0  0  0  0
   20.4996   -6.1843  -18.0692 C   0  0  0  0  0  0  0  0  0  0  0  0
   20.9175   -7.2787  -17.3495 C   0  0  0  0  0  0  0  0  0  0  0  0
   20.0461   -8.2433  -16.8067 C   0  0  0  0  0  0  0  0  0  0  0  0
   20.6086  -10.6721  -16.5008 C   0  0  0  0  0  0  0  0  0  0  0  0
   21.6702  -11.5750  -16.0207 C   0  0  0  0  0  0  0  0  0  0  0  0
   23.7108  -11.9380  -14.9371 C   0  0  0  0  0  0  0  0  0  0  0  0
   18.6221   -5.0131  -19.0217 F   0  0  0  0  0  0  0  0  0  0  0  0
   19.1421   -6.0447  -18.2595 C   0  0  0  0  0  0  0  0  0  0  0  0
   20.7666   -3.3073  -22.2003 S   0  0  1  0  0  6  0  0  0  0  0  0
   24.4808   -5.9929  -19.2384 S   0  0  0  0  0  0  0  0  0  0  0  0
   18.2780   -6.9558  -17.7485 C   0  0  0  0  0  0  0  0  0  0  0  0
   18.7072   -8.0715  -17.0135 C   0  0  0  0  0  0  0  0  0  0  0  0
   19.7345  -11.1052  -17.2797 O   0  0  0  0  0  0  0  0  0  0  0  0
   21.5804  -12.9284  -16.2218 C   0  0  0  0  0  0  0  0  0  0  0  0
   22.5205  -13.7738  -15.7985 N   0  0  0  0  0  0  0  0  0  0  0  0
   23.6398  -13.3295  -15.1320 C   0  0  0  0  0  0  0  0  0  0  0  0
   22.7504  -11.1258  -15.3754 N   0  0  0  0  0  0  0  0  0  0  0  0
   24.5761  -14.1339  -14.7058 O   0  0  0  0  0  0  0  0  0  0  0  0
   25.4839  -14.9382  -14.3024 C   0  0  0  0  0  0  0  0  0  0  0  0
   25.8253  -15.8757  -15.3138 F   0  0  0  0  0  0  0  0  0  0  0  0
   25.6810   -4.9404  -16.7909 H   0  0  0  0  0  0  0  0  0  0  0  0
  2  1  1  6
  2  5  1  0
  2  8  1  0
 15  2  1  0
  8  3  1  0
  3  9  2  0
  3 24  1  0
  5  4  1  1
  4 24  1  0
  5  6  1  0
  5 14  1  0
  6  7  1  0
 23  7  1  6
 23 10  2  0
 14 11  1  0
 11 23  1  0
 23 12  2  0
 13 17  1  0
 18 13  1  0
 16 15  2  0
 15 22  1  0
 17 16  1  0
 17 26  2  0
 19 18  1  0
 18 27  2  0
 19 28  1  0
 31 19  2  0
 20 30  2  0
 20 31  1  0
 22 21  1  0
 22 25  2  0
 25 26  1  0
 28 29  2  0
 29 30  1  0
 30 32  1  0
 32 33  1  0
 33 34  1  0
  9 35  1  0
M  END
$$$$
