
     RDKit          3D

 35 38  0  0  0  0  0  0  0  0999 V2000
   20.3522   -3.6566  -18.4810 C   0  0  0  0  0  0  0  0  0  0  0  0
   21.3043   -4.8667  -18.8034 C   0  0  1  0  0  0  0  0  0  0  0  0
   23.6934   -4.3554  -18.0497 C   0  0  0  0  0  0  0  0  0  0  0  0
   22.9550   -5.6932  -20.4431 C   0  0  0  0  0  0  0  0  0  0  0  0
   21.7280   -4.8481  -20.1855 C   0  0  2  0  0  0  0  0  0  0  0  0
   22.1482   -3.4461  -20.6235 C   0  0  0  0  0  0  0  0  0  0  0  0
   22.0060   -3.2206  -22.1116 C   0  0  0  0  0  0  0  0  0  0  0  0
   22.3314   -4.6122  -17.8241 N   0  0  0  0  0  0  0  0  0  0  0  0
   24.4426   -3.6225  -17.3260 N   0  0  0  0  0  0  0  0  0  0  0  0
   19.9491   -3.0700  -23.8944 O   0  0  0  0  0  0  0  0  0  0  0  0
   19.6396   -4.6632  -21.6904 C   0  0  0  0  0  0  0  0  0  0  0  0
   19.6663   -1.9901  -21.7262 O   0  0  0  0  0  0  0  0  0  0  0  0
   21.2071   -9.2802  -16.6245 N   0  0  0  0  0  0  0  0  0  0  0  0
   20.7647   -5.4518  -21.1879 C   0  0  0  0  0  0  0  0  0  0  0  0
   20.5176   -6.0489  -18.3251 C   0  0  0  0  0  0  0  0  0  0  0  0
   21.1474   -7.1220  -17.7402 C   0  0  0  0  0  0  0  0  0  0  0  0
   20.4707   -8.2330  -17.1998 C   0  0  0  0  0  0  0  0  0  0  0  0
   20.8050  -10.6243  -16.5075 C   0  0  0  0  0  0  0  0  0  0  0  0
   21.7582  -11.6539  -16.0558 C   0  0  0  0  0  0  0  0  0  0  0  0
   23.8740  -12.2838  -15.2835 C   0  0  0  0  0  0  0  0  0  0  0  0
   18.4144   -5.0858  -18.9985 F   0  0  0  0  0  0  0  0  0  0  0  0
   19.1411   -6.0857  -18.3758 C   0  0  0  0  0  0  0  0  0  0  0  0
   20.2565   -3.1690  -22.4545 S   0  0  1  0  0  6  0  0  0  0  0  0
   24.3980   -5.1628  -19.5128 S   0  0  0  0  0  0  0  0  0  0  0  0
   18.4614   -7.1407  -17.8632 C   0  0  0  0  0  0  0  0  0  0  0  0
   19.1067   -8.2343  -17.2659 C   0  0  0  0  0  0  0  0  0  0  0  0
   19.6325  -10.9482  -16.7879 O   0  0  0  0  0  0  0  0  0  0  0  0
   21.3836  -12.9712  -15.9873 C   0  0  0  0  0  0  0  0  0  0  0  0
   22.2190  -13.9274  -15.5806 N   0  0  0  0  0  0  0  0  0  0  0  0
   23.5118  -13.6410  -15.2051 C   0  0  0  0  0  0  0  0  0  0  0  0
   23.0100  -11.3574  -15.6951 N   0  0  0  0  0  0  0  0  0  0  0  0
   24.3516  -14.5564  -14.8025 O   0  0  0  0  0  0  0  0  0  0  0  0
   25.1882  -15.4463  -14.4259 C   0  0  0  0  0  0  0  0  0  0  0  0
   26.3146  -14.8562  -13.7922 F   0  0  0  0  0  0  0  0  0  0  0  0
   24.7136   -3.9064  -16.3626 H   0  0  0  0  0  0  0  0  0  0  0  0
  2  1  1  6
  2  5  1  0
  2  8  1  0
 15  2  1  0
  8  3  1  0
  3  9  2  0
  3 24  1  0
  5  4  1  1
  4 24  1  0
  5  6  1  0
  5 14  1  0
  6  7  1  0
 23  7  1  6
 23 10  2  0
 14 11  1  0
 11 23  1  0
 23 12  2  0
 13 17  1  0
 18 13  1  0
 16 15  2  0
 15 22  1  0
 17 16  1  0
 17 26  2  0
 19 18  1  0
 18 27  2  0
 19 28  1  0
 31 19  2  0
 20 30  2  0
 20 31  1  0
 22 21  1  0
 22 25  2  0
 25 26  1  0
 28 29  2  0
 29 30  1  0
 30 32  1  0
 32 33  1  0
 33 34  1  0
  9 35  1  0
M  END
$$$$
