
     RDKit          3D

 35 38  0  0  0  0  0  0  0  0999 V2000
   20.4270   -3.8037  -18.4522 C   0  0  0  0  0  0  0  0  0  0  0  0
   21.2668   -5.0111  -19.0103 C   0  0  1  0  0  0  0  0  0  0  0  0
   23.7053   -4.8305  -18.2632 C   0  0  0  0  0  0  0  0  0  0  0  0
   22.8082   -5.6685  -20.8237 C   0  0  0  0  0  0  0  0  0  0  0  0
   21.6623   -4.7863  -20.3826 C   0  0  2  0  0  0  0  0  0  0  0  0
   22.1903   -3.3674  -20.5877 C   0  0  0  0  0  0  0  0  0  0  0  0
   22.0374   -2.8759  -22.0092 C   0  0  0  0  0  0  0  0  0  0  0  0
   22.3315   -5.0134  -18.0380 N   0  0  0  0  0  0  0  0  0  0  0  0
   24.5283   -4.2965  -17.4509 N   0  0  0  0  0  0  0  0  0  0  0  0
   19.9646   -2.2544  -23.6673 O   0  0  0  0  0  0  0  0  0  0  0  0
   19.5668   -4.1769  -21.7601 C   0  0  0  0  0  0  0  0  0  0  0  0
   19.8181   -1.5490  -21.3374 O   0  0  0  0  0  0  0  0  0  0  0  0
   20.8484   -9.7858  -17.8862 N   0  0  0  0  0  0  0  0  0  0  0  0
   20.6313   -5.1278  -21.4397 C   0  0  0  0  0  0  0  0  0  0  0  0
   20.3931   -6.1921  -18.7150 C   0  0  0  0  0  0  0  0  0  0  0  0
   20.9421   -7.4288  -18.4708 C   0  0  0  0  0  0  0  0  0  0  0  0
   20.1919   -8.5663  -18.1135 C   0  0  0  0  0  0  0  0  0  0  0  0
   20.5074  -10.7568  -16.9254 C   0  0  0  0  0  0  0  0  0  0  0  0
   21.5522  -11.5800  -16.2903 C   0  0  0  0  0  0  0  0  0  0  0  0
   23.7802  -11.9413  -15.6776 C   0  0  0  0  0  0  0  0  0  0  0  0
   18.3670   -4.8996  -18.8837 F   0  0  0  0  0  0  0  0  0  0  0  0
   19.0244   -6.0837  -18.5987 C   0  0  0  0  0  0  0  0  0  0  0  0
   20.2918   -2.6264  -22.2772 S   0  0  1  0  0  6  0  0  0  0  0  0
   24.3095   -5.4245  -19.8668 S   0  0  0  0  0  0  0  0  0  0  0  0
   18.2753   -7.1602  -18.2552 C   0  0  0  0  0  0  0  0  0  0  0  0
   18.8383   -8.4211  -18.0056 C   0  0  0  0  0  0  0  0  0  0  0  0
   19.3117  -10.9227  -16.6077 O   0  0  0  0  0  0  0  0  0  0  0  0
   21.2372  -12.7794  -15.7049 C   0  0  0  0  0  0  0  0  0  0  0  0
   22.1563  -13.5474  -15.1193 N   0  0  0  0  0  0  0  0  0  0  0  0
   23.4803  -13.1747  -15.0708 C   0  0  0  0  0  0  0  0  0  0  0  0
   22.8331  -11.2022  -16.2529 N   0  0  0  0  0  0  0  0  0  0  0  0
   24.4017  -13.9062  -14.5041 O   0  0  0  0  0  0  0  0  0  0  0  0
   25.3190  -14.6048  -13.9527 C   0  0  0  0  0  0  0  0  0  0  0  0
   26.0102  -13.8552  -12.9633 F   0  0  0  0  0  0  0  0  0  0  0  0
   25.0970   -4.8718  -16.7968 H   0  0  0  0  0  0  0  0  0  0  0  0
  2  1  1  1
  2  5  1  0
  2  8  1  0
 15  2  1  0
  8  3  1  0
  3  9  2  0
  3 24  1  0
  5  4  1  6
  4 24  1  0
  5  6  1  0
  5 14  1  0
  6  7  1  0
 23  7  1  6
 23 10  2  0
 14 11  1  0
 11 23  1  0
 23 12  2  0
 13 17  1  0
 18 13  1  0
 16 15  2  0
 15 22  1  0
 17 16  1  0
 17 26  2  0
 19 18  1  0
 18 27  2  0
 19 28  1  0
 31 19  2  0
 20 30  2  0
 20 31  1  0
 22 21  1  0
 22 25  2  0
 25 26  1  0
 28 29  2  0
 29 30  1  0
 30 32  1  0
 32 33  1  0
 33 34  1  0
  9 35  1  0
M  END
$$$$
