
     RDKit          3D

 35 38  0  0  0  0  0  0  0  0999 V2000
   20.7040   -3.5679  -18.2267 C   0  0  0  0  0  0  0  0  0  0  0  0
   21.4907   -4.8212  -18.7607 C   0  0  1  0  0  0  0  0  0  0  0  0
   23.9339   -4.7339  -18.0121 C   0  0  0  0  0  0  0  0  0  0  0  0
   23.0039   -5.5792  -20.5584 C   0  0  0  0  0  0  0  0  0  0  0  0
   21.8974   -4.6394  -20.1361 C   0  0  2  0  0  0  0  0  0  0  0  0
   22.4874   -3.2491  -20.3663 C   0  0  0  0  0  0  0  0  0  0  0  0
   22.3579   -2.7779  -21.7969 C   0  0  0  0  0  0  0  0  0  0  0  0
   22.5530   -4.8521  -17.7863 N   0  0  0  0  0  0  0  0  0  0  0  0
   24.7786   -4.2216  -17.2081 N   0  0  0  0  0  0  0  0  0  0  0  0
   20.3165   -2.0969  -23.4705 O   0  0  0  0  0  0  0  0  0  0  0  0
   19.8323   -3.9643  -21.5289 C   0  0  0  0  0  0  0  0  0  0  0  0
   20.1983   -1.3426  -21.1543 O   0  0  0  0  0  0  0  0  0  0  0  0
   20.8602   -9.5600  -17.5850 N   0  0  0  0  0  0  0  0  0  0  0  0
   20.8536   -4.9550  -21.1888 C   0  0  0  0  0  0  0  0  0  0  0  0
   20.5656   -5.9570  -18.4454 C   0  0  0  0  0  0  0  0  0  0  0  0
   21.0584   -7.2157  -18.1940 C   0  0  0  0  0  0  0  0  0  0  0  0
   20.2594   -8.3133  -17.8183 C   0  0  0  0  0  0  0  0  0  0  0  0
   20.5470  -10.4629  -16.5511 C   0  0  0  0  0  0  0  0  0  0  0  0
   21.3706  -11.6658  -16.3334 C   0  0  0  0  0  0  0  0  0  0  0  0
   23.4529  -12.7226  -16.2044 C   0  0  0  0  0  0  0  0  0  0  0  0
   18.6007   -4.5724  -18.6078 F   0  0  0  0  0  0  0  0  0  0  0  0
   19.2047   -5.7833  -18.3172 C   0  0  0  0  0  0  0  0  0  0  0  0
   20.6254   -2.4570  -22.0731 S   0  0  1  0  0  6  0  0  0  0  0  0
   24.5133   -5.3836  -19.6032 S   0  0  0  0  0  0  0  0  0  0  0  0
   18.4094   -6.8201  -17.9559 C   0  0  0  0  0  0  0  0  0  0  0  0
   18.9152   -8.1036  -17.6991 C   0  0  0  0  0  0  0  0  0  0  0  0
   19.5650  -10.2442  -15.8122 O   0  0  0  0  0  0  0  0  0  0  0  0
   20.7842  -12.8712  -16.0441 C   0  0  0  0  0  0  0  0  0  0  0  0
   21.4987  -13.9779  -15.8386 N   0  0  0  0  0  0  0  0  0  0  0  0
   22.8733  -13.9695  -15.9064 C   0  0  0  0  0  0  0  0  0  0  0  0
   22.7045  -11.6390  -16.4033 N   0  0  0  0  0  0  0  0  0  0  0  0
   23.5987  -15.0374  -15.7095 O   0  0  0  0  0  0  0  0  0  0  0  0
   24.3209  -16.0709  -15.5007 C   0  0  0  0  0  0  0  0  0  0  0  0
   25.5701  -15.7161  -14.9242 F   0  0  0  0  0  0  0  0  0  0  0  0
   25.6296   -4.7406  -16.9106 H   0  0  0  0  0  0  0  0  0  0  0  0
  2  1  1  1
  2  5  1  0
  2  8  1  0
 15  2  1  0
  8  3  1  0
  3  9  2  0
  3 24  1  0
  5  4  1  6
  4 24  1  0
  5  6  1  0
  5 14  1  0
  6  7  1  0
 23  7  1  6
 23 10  2  0
 14 11  1  0
 11 23  1  0
 23 12  2  0
 13 17  1  0
 18 13  1  0
 16 15  2  0
 15 22  1  0
 17 16  1  0
 17 26  2  0
 19 18  1  0
 18 27  2  0
 19 28  1  0
 31 19  2  0
 20 30  2  0
 20 31  1  0
 22 21  1  0
 22 25  2  0
 25 26  1  0
 28 29  2  0
 29 30  1  0
 30 32  1  0
 32 33  1  0
 33 34  1  0
  9 35  1  0
M  END
$$$$
