
     RDKit          3D

 35 38  0  0  0  0  0  0  0  0999 V2000
   20.5901   -3.6882  -18.4571 C   0  0  0  0  0  0  0  0  0  0  0  0
   21.5022   -4.9297  -18.7759 C   0  0  1  0  0  0  0  0  0  0  0  0
   23.9086   -4.4910  -18.0315 C   0  0  0  0  0  0  0  0  0  0  0  0
   23.1209   -5.8166  -20.4159 C   0  0  0  0  0  0  0  0  0  0  0  0
   21.9222   -4.9316  -20.1593 C   0  0  2  0  0  0  0  0  0  0  0  0
   22.3855   -3.5459  -20.6057 C   0  0  0  0  0  0  0  0  0  0  0  0
   22.2462   -3.3236  -22.0945 C   0  0  0  0  0  0  0  0  0  0  0  0
   22.5398   -4.7030  -17.8008 N   0  0  0  0  0  0  0  0  0  0  0  0
   24.6829   -3.7786  -17.3137 N   0  0  0  0  0  0  0  0  0  0  0  0
   20.1898   -3.1166  -23.8723 O   0  0  0  0  0  0  0  0  0  0  0  0
   19.8363   -4.6879  -21.6593 C   0  0  0  0  0  0  0  0  0  0  0  0
   19.9480   -2.0172  -21.7089 O   0  0  0  0  0  0  0  0  0  0  0  0
   21.2618   -9.2917  -16.5063 N   0  0  0  0  0  0  0  0  0  0  0  0
   20.9372   -5.5094  -21.1558 C   0  0  0  0  0  0  0  0  0  0  0  0
   20.6797   -6.0838  -18.2893 C   0  0  0  0  0  0  0  0  0  0  0  0
   21.2732   -7.1575  -17.6686 C   0  0  0  0  0  0  0  0  0  0  0  0
   20.5609   -8.2414  -17.1191 C   0  0  0  0  0  0  0  0  0  0  0  0
   20.8818  -10.6469  -16.4709 C   0  0  0  0  0  0  0  0  0  0  0  0
   21.8241  -11.6759  -15.9957 C   0  0  0  0  0  0  0  0  0  0  0  0
   23.8912  -12.2961  -15.0944 C   0  0  0  0  0  0  0  0  0  0  0  0
   18.6128   -5.0898  -19.0271 F   0  0  0  0  0  0  0  0  0  0  0  0
   19.3041   -6.0916  -18.3681 C   0  0  0  0  0  0  0  0  0  0  0  0
   20.4982   -3.2180  -22.4328 S   0  0  1  0  0  6  0  0  0  0  0  0
   24.5828   -5.3278  -19.4924 S   0  0  0  0  0  0  0  0  0  0  0  0
   18.5905   -7.1201  -17.8477 C   0  0  0  0  0  0  0  0  0  0  0  0
   19.1989   -8.2144  -17.2139 C   0  0  0  0  0  0  0  0  0  0  0  0
   19.7385  -10.9810  -16.8441 O   0  0  0  0  0  0  0  0  0  0  0  0
   21.4787  -13.0028  -16.0165 C   0  0  0  0  0  0  0  0  0  0  0  0
   22.3051  -13.9590  -15.5917 N   0  0  0  0  0  0  0  0  0  0  0  0
   23.5584  -13.6630  -15.1062 C   0  0  0  0  0  0  0  0  0  0  0  0
   23.0375  -11.3701  -15.5276 N   0  0  0  0  0  0  0  0  0  0  0  0
   24.3885  -14.5782  -14.6834 O   0  0  0  0  0  0  0  0  0  0  0  0
   25.2157  -15.4570  -14.2628 C   0  0  0  0  0  0  0  0  0  0  0  0
   25.8370  -15.0405  -13.0548 F   0  0  0  0  0  0  0  0  0  0  0  0
   25.4854   -4.1965  -16.8003 H   0  0  0  0  0  0  0  0  0  0  0  0
  2  1  1  6
  2  5  1  0
  2  8  1  0
 15  2  1  0
  8  3  1  0
  3  9  2  0
  3 24  1  0
  5  4  1  1
  4 24  1  0
  5  6  1  0
  5 14  1  0
  6  7  1  0
 23  7  1  6
 23 10  2  0
 14 11  1  0
 11 23  1  0
 23 12  2  0
 13 17  1  0
 18 13  1  0
 16 15  2  0
 15 22  1  0
 17 16  1  0
 17 26  2  0
 19 18  1  0
 18 27  2  0
 19 28  1  0
 31 19  2  0
 20 30  2  0
 20 31  1  0
 22 21  1  0
 22 25  2  0
 25 26  1  0
 28 29  2  0
 29 30  1  0
 30 32  1  0
 32 33  1  0
 33 34  1  0
  9 35  1  0
M  END
$$$$
