
     RDKit          3D

 35 38  0  0  0  0  0  0  0  0999 V2000
   21.3419   -3.8178  -17.9954 C   0  0  0  0  0  0  0  0  0  0  0  0
   21.6130   -5.0844  -18.7567 C   0  0  1  0  0  0  0  0  0  0  0  0
   24.0310   -4.5425  -18.4781 C   0  0  0  0  0  0  0  0  0  0  0  0
   22.2937   -3.4834  -20.5162 C   0  0  0  0  0  0  0  0  0  0  0  0
   21.6918   -4.8787  -20.2680 C   0  0  2  0  0  0  0  0  0  0  0  0
   20.4007   -4.8886  -20.9638 C   0  0  0  0  0  0  0  0  0  0  0  0
   20.5936   -4.8406  -22.5058 C   0  0  0  0  0  0  0  0  0  0  0  0
   22.9737   -5.5210  -18.3855 N   0  0  0  0  0  0  0  0  0  0  0  0
   25.1070   -4.6727  -17.8275 N   0  0  0  0  0  0  0  0  0  0  0  0
   22.4379   -6.1921  -23.9620 O   0  0  0  0  0  0  0  0  0  0  0  0
   21.9312   -7.0856  -21.4531 C   0  0  0  0  0  0  0  0  0  0  0  0
   20.2958   -7.3293  -23.5541 O   0  0  0  0  0  0  0  0  0  0  0  0
   20.6489   -9.4643  -16.6867 N   0  0  0  0  0  0  0  0  0  0  0  0
   22.6653   -5.9159  -20.8009 C   0  0  0  0  0  0  0  0  0  0  0  0
   20.6592   -6.1712  -18.3578 C   0  0  0  0  0  0  0  0  0  0  0  0
   21.0332   -7.2818  -17.6793 C   0  0  0  0  0  0  0  0  0  0  0  0
   20.1604   -8.3416  -17.4072 C   0  0  0  0  0  0  0  0  0  0  0  0
   20.9966  -10.7306  -17.1867 C   0  0  0  0  0  0  0  0  0  0  0  0
   21.9387  -11.6059  -16.4414 C   0  0  0  0  0  0  0  0  0  0  0  0
   23.0506  -13.6270  -16.1404 C   0  0  0  0  0  0  0  0  0  0  0  0
   18.8293   -4.9913  -19.3860 F   0  0  0  0  0  0  0  0  0  0  0  0
   19.3402   -6.1035  -18.7904 C   0  0  0  0  0  0  0  0  0  0  0  0
   21.2956   -6.3948  -22.9907 S   0  0  1  0  0  6  0  0  0  0  0  0
   23.7588   -3.1572  -19.5413 S   0  0  0  0  0  0  0  0  0  0  0  0
   18.4849   -7.1308  -18.5317 C   0  0  0  0  0  0  0  0  0  0  0  0
   18.8627   -8.2801  -17.8347 C   0  0  0  0  0  0  0  0  0  0  0  0
   20.5068  -11.1168  -18.2656 O   0  0  0  0  0  0  0  0  0  0  0  0
   22.5543  -11.1107  -15.3291 C   0  0  0  0  0  0  0  0  0  0  0  0
   23.4150  -11.8667  -14.6225 N   0  0  0  0  0  0  0  0  0  0  0  0
   23.6700  -13.1204  -15.0163 C   0  0  0  0  0  0  0  0  0  0  0  0
   22.1798  -12.8494  -16.8478 N   0  0  0  0  0  0  0  0  0  0  0  0
   24.5585  -13.9250  -14.3010 O   0  0  0  0  0  0  0  0  0  0  0  0
   25.5947  -13.3531  -13.5402 C   0  0  0  0  0  0  0  0  0  0  0  0
   26.6099  -12.8927  -14.3764 F   0  0  0  0  0  0  0  0  0  0  0  0
   25.0897   -4.6586  -16.7895 H   0  0  0  0  0  0  0  0  0  0  0  0
  1  2  1  6
  2  5  1  0
  2  8  1  0
  2 15  1  6
  8  3  1  0
  3  9  2  0
  3 24  1  0
  5  4  1  1
  4 24  1  6
  6  5  1  1
 14  5  1  1
  7  6  1  1
 23  7  1  1
 23 10  2  0
 11 14  1  1
 11 23  1  0
 23 12  2  0
 13 17  1  0
 18 13  1  0
 16 15  2  0
 15 22  1  0
 17 16  1  0
 17 26  2  0
 19 18  1  0
 18 27  2  0
 19 28  1  0
 31 19  2  0
 20 30  2  0
 20 31  1  0
 22 21  1  0
 22 25  2  0
 25 26  1  0
 28 29  2  0
 29 30  1  0
 30 32  1  0
 32 33  1  0
 33 34  1  6
  9 35  1  0
M  END
$$$$
