
     RDKit          3D

 35 38  0  0  0  0  0  0  0  0999 V2000
   21.1838   -3.9524  -17.7052 C   0  0  0  0  0  0  0  0  0  0  0  0
   21.6770   -5.1961  -18.3889 C   0  0  1  0  0  0  0  0  0  0  0  0
   23.9735   -4.3143  -17.9810 C   0  0  0  0  0  0  0  0  0  0  0  0
   22.2549   -3.5813  -20.1724 C   0  0  0  0  0  0  0  0  0  0  0  0
   21.8323   -5.0365  -19.8998 C   0  0  2  0  0  0  0  0  0  0  0  0
   20.6062   -5.2507  -20.6758 C   0  0  0  0  0  0  0  0  0  0  0  0
   20.8979   -5.2326  -22.2028 C   0  0  0  0  0  0  0  0  0  0  0  0
   23.0551   -5.4260  -17.9117 N   0  0  0  0  0  0  0  0  0  0  0  0
   25.0092   -4.2703  -17.2575 N   0  0  0  0  0  0  0  0  0  0  0  0
   23.0058   -6.3674  -23.4747 O   0  0  0  0  0  0  0  0  0  0  0  0
   22.4514   -7.2306  -20.9652 C   0  0  0  0  0  0  0  0  0  0  0  0
   21.0150   -7.7750  -23.1534 O   0  0  0  0  0  0  0  0  0  0  0  0
   21.2242   -9.6844  -16.3770 N   0  0  0  0  0  0  0  0  0  0  0  0
   22.9725   -5.9475  -20.3214 C   0  0  0  0  0  0  0  0  0  0  0  0
   20.8543   -6.3894  -18.0028 C   0  0  0  0  0  0  0  0  0  0  0  0
   21.3545   -7.4593  -17.3405 C   0  0  0  0  0  0  0  0  0  0  0  0
   20.6087   -8.6149  -17.0809 C   0  0  0  0  0  0  0  0  0  0  0  0
   20.9637  -11.0605  -16.4907 C   0  0  0  0  0  0  0  0  0  0  0  0
   21.9598  -12.0604  -16.0248 C   0  0  0  0  0  0  0  0  0  0  0  0
   23.9865  -12.6182  -15.0283 C   0  0  0  0  0  0  0  0  0  0  0  0
   18.8983   -5.4112  -19.0105 F   0  0  0  0  0  0  0  0  0  0  0  0
   19.5344   -6.4661  -18.4314 C   0  0  0  0  0  0  0  0  0  0  0  0
   21.8367   -6.6910  -22.5703 S   0  0  1  0  0  6  0  0  0  0  0  0
   23.5904   -3.0198  -19.1216 S   0  0  0  0  0  0  0  0  0  0  0  0
   18.8023   -7.5873  -18.1848 C   0  0  0  0  0  0  0  0  0  0  0  0
   19.3107   -8.6954  -17.5045 C   0  0  0  0  0  0  0  0  0  0  0  0
   19.8852  -11.4388  -16.9879 O   0  0  0  0  0  0  0  0  0  0  0  0
   21.6916  -13.3861  -16.2029 C   0  0  0  0  0  0  0  0  0  0  0  0
   22.5640  -14.3273  -15.7971 N   0  0  0  0  0  0  0  0  0  0  0  0
   23.7094  -13.9574  -15.2112 C   0  0  0  0  0  0  0  0  0  0  0  0
   23.0928  -11.6741  -15.4446 N   0  0  0  0  0  0  0  0  0  0  0  0
   24.6308  -14.9138  -14.7814 O   0  0  0  0  0  0  0  0  0  0  0  0
   24.2915  -16.2789  -14.7537 C   0  0  0  0  0  0  0  0  0  0  0  0
   23.6031  -16.5815  -13.5805 F   0  0  0  0  0  0  0  0  0  0  0  0
   25.4043   -3.3531  -16.9738 H   0  0  0  0  0  0  0  0  0  0  0  0
  1  2  1  6
  2  5  1  0
  2  8  1  0
  2 15  1  6
  8  3  1  0
  3  9  2  0
  3 24  1  0
  5  4  1  1
  4 24  1  6
  6  5  1  1
 14  5  1  1
  7  6  1  1
 23  7  1  1
 23 10  2  0
 11 14  1  1
 11 23  1  0
 23 12  2  0
 13 17  1  0
 18 13  1  0
 16 15  2  0
 15 22  1  0
 17 16  1  0
 17 26  2  0
 19 18  1  0
 18 27  2  0
 19 28  1  0
 31 19  2  0
 20 30  2  0
 20 31  1  0
 22 21  1  0
 22 25  2  0
 25 26  1  0
 28 29  2  0
 29 30  1  0
 30 32  1  0
 32 33  1  0
 33 34  1  6
  9 35  1  0
M  END
$$$$
