
     RDKit          3D

 35 38  0  0  0  0  0  0  0  0999 V2000
   20.5050   -3.6689  -18.5557 C   0  0  0  0  0  0  0  0  0  0  0  0
   21.4275   -4.9250  -18.7702 C   0  0  1  0  0  0  0  0  0  0  0  0
   23.7921   -4.4590  -17.9168 C   0  0  0  0  0  0  0  0  0  0  0  0
   23.1282   -5.8865  -20.2799 C   0  0  0  0  0  0  0  0  0  0  0  0
   21.9213   -4.9886  -20.1274 C   0  0  2  0  0  0  0  0  0  0  0  0
   22.4142   -3.6247  -20.6083 C   0  0  0  0  0  0  0  0  0  0  0  0
   22.3562   -3.4677  -22.1108 C   0  0  0  0  0  0  0  0  0  0  0  0
   22.4120   -4.6579  -17.7513 N   0  0  0  0  0  0  0  0  0  0  0  0
   24.5299   -3.7174  -17.1901 N   0  0  0  0  0  0  0  0  0  0  0  0
   20.3995   -3.3347  -24.0044 O   0  0  0  0  0  0  0  0  0  0  0  0
   19.9204   -4.8066  -21.7471 C   0  0  0  0  0  0  0  0  0  0  0  0
   20.0464   -2.1409  -21.9074 O   0  0  0  0  0  0  0  0  0  0  0  0
   21.0612   -9.2298  -16.4100 N   0  0  0  0  0  0  0  0  0  0  0  0
   20.9888   -5.6075  -21.1495 C   0  0  0  0  0  0  0  0  0  0  0  0
   20.5748   -6.0549  -18.2787 C   0  0  0  0  0  0  0  0  0  0  0  0
   21.1355   -7.1231  -17.6192 C   0  0  0  0  0  0  0  0  0  0  0  0
   20.3926   -8.1832  -17.0637 C   0  0  0  0  0  0  0  0  0  0  0  0
   20.7710  -10.6038  -16.5099 C   0  0  0  0  0  0  0  0  0  0  0  0
   21.7694  -11.6106  -16.1073 C   0  0  0  0  0  0  0  0  0  0  0  0
   23.8849  -12.1788  -15.2876 C   0  0  0  0  0  0  0  0  0  0  0  0
   18.5430   -5.0464  -19.0906 F   0  0  0  0  0  0  0  0  0  0  0  0
   19.2016   -6.0434  -18.3920 C   0  0  0  0  0  0  0  0  0  0  0  0
   20.6295   -3.3735  -22.5473 S   0  0  1  0  0  6  0  0  0  0  0  0
   24.5404   -5.3606  -19.3012 S   0  0  0  0  0  0  0  0  0  0  0  0
   18.4591   -7.0487  -17.8668 C   0  0  0  0  0  0  0  0  0  0  0  0
   19.0339   -8.1374  -17.1934 C   0  0  0  0  0  0  0  0  0  0  0  0
   19.6599  -10.9738  -16.9423 O   0  0  0  0  0  0  0  0  0  0  0  0
   21.4816  -12.9492  -16.1823 C   0  0  0  0  0  0  0  0  0  0  0  0
   22.3597  -13.8861  -15.8237 N   0  0  0  0  0  0  0  0  0  0  0  0
   23.6116  -13.5572  -15.3558 C   0  0  0  0  0  0  0  0  0  0  0  0
   22.9804  -11.2728  -15.6554 N   0  0  0  0  0  0  0  0  0  0  0  0
   24.4916  -14.4530  -14.9974 O   0  0  0  0  0  0  0  0  0  0  0  0
   25.3701  -15.3146  -14.6518 C   0  0  0  0  0  0  0  0  0  0  0  0
   25.0184  -15.9434  -13.4273 F   0  0  0  0  0  0  0  0  0  0  0  0
   24.9134   -4.0539  -16.2835 H   0  0  0  0  0  0  0  0  0  0  0  0
  2  1  1  6
  2  5  1  0
  2  8  1  0
 15  2  1  0
  8  3  1  0
  3  9  2  0
  3 24  1  0
  5  4  1  1
  4 24  1  0
  5  6  1  0
  5 14  1  0
  6  7  1  0
 23  7  1  6
 23 10  2  0
 14 11  1  0
 11 23  1  0
 23 12  2  0
 13 17  1  0
 18 13  1  0
 16 15  2  0
 15 22  1  0
 17 16  1  0
 17 26  2  0
 19 18  1  0
 18 27  2  0
 19 28  1  0
 31 19  2  0
 20 30  2  0
 20 31  1  0
 22 21  1  0
 22 25  2  0
 25 26  1  0
 28 29  2  0
 29 30  1  0
 30 32  1  0
 32 33  1  0
 33 34  1  0
  9 35  1  0
M  END
$$$$
