
     RDKit          3D

 35 38  0  0  0  0  0  0  0  0999 V2000
   21.1345   -4.2038  -17.8946 C   0  0  0  0  0  0  0  0  0  0  0  0
   21.4553   -5.4616  -18.6511 C   0  0  1  0  0  0  0  0  0  0  0  0
   23.8509   -4.9041  -18.2407 C   0  0  0  0  0  0  0  0  0  0  0  0
   22.2152   -3.8401  -20.3587 C   0  0  0  0  0  0  0  0  0  0  0  0
   21.6120   -5.2419  -20.1543 C   0  0  2  0  0  0  0  0  0  0  0  0
   20.3595   -5.2552  -20.9174 C   0  0  0  0  0  0  0  0  0  0  0  0
   20.6331   -5.1923  -22.4466 C   0  0  0  0  0  0  0  0  0  0  0  0
   22.7980   -5.8913  -18.2123 N   0  0  0  0  0  0  0  0  0  0  0  0
   24.8921   -5.0320  -17.5353 N   0  0  0  0  0  0  0  0  0  0  0  0
   22.5623   -6.5169  -23.8148 O   0  0  0  0  0  0  0  0  0  0  0  0
   21.9311   -7.4364  -21.3438 C   0  0  0  0  0  0  0  0  0  0  0  0
   20.4107   -7.6736  -23.5301 O   0  0  0  0  0  0  0  0  0  0  0  0
   20.4692  -10.1417  -17.4174 N   0  0  0  0  0  0  0  0  0  0  0  0
   22.6205   -6.2671  -20.6439 C   0  0  0  0  0  0  0  0  0  0  0  0
   20.4905   -6.5589  -18.3123 C   0  0  0  0  0  0  0  0  0  0  0  0
   20.8737   -7.8134  -17.9759 C   0  0  0  0  0  0  0  0  0  0  0  0
   19.9675   -8.8598  -17.7686 C   0  0  0  0  0  0  0  0  0  0  0  0
   21.3433  -10.4727  -16.3683 C   0  0  0  0  0  0  0  0  0  0  0  0
   22.1059  -11.7483  -16.3926 C   0  0  0  0  0  0  0  0  0  0  0  0
   22.7482  -13.7285  -17.4307 C   0  0  0  0  0  0  0  0  0  0  0  0
   18.6256   -5.0804  -18.6782 F   0  0  0  0  0  0  0  0  0  0  0  0
   19.1274   -6.3247  -18.4486 C   0  0  0  0  0  0  0  0  0  0  0  0
   21.3720   -6.7368  -22.9069 S   0  0  1  0  0  6  0  0  0  0  0  0
   23.6242   -3.5116  -19.3051 S   0  0  0  0  0  0  0  0  0  0  0  0
   18.2390   -7.3374  -18.2508 C   0  0  0  0  0  0  0  0  0  0  0  0
   18.6256   -8.6339  -17.9056 C   0  0  0  0  0  0  0  0  0  0  0  0
   21.4753   -9.6848  -15.4117 O   0  0  0  0  0  0  0  0  0  0  0  0
   22.8827  -12.0690  -15.3179 C   0  0  0  0  0  0  0  0  0  0  0  0
   23.5909  -13.2134  -15.2953 N   0  0  0  0  0  0  0  0  0  0  0  0
   23.5320  -14.0472  -16.3408 C   0  0  0  0  0  0  0  0  0  0  0  0
   22.0351  -12.5646  -17.4405 N   0  0  0  0  0  0  0  0  0  0  0  0
   24.2567  -15.2402  -16.3423 O   0  0  0  0  0  0  0  0  0  0  0  0
   23.9925  -16.2441  -15.3925 C   0  0  0  0  0  0  0  0  0  0  0  0
   24.5005  -15.8767  -14.1480 F   0  0  0  0  0  0  0  0  0  0  0  0
   25.1331   -5.9571  -17.1304 H   0  0  0  0  0  0  0  0  0  0  0  0
  1  2  1  6
  2  5  1  0
  2  8  1  0
  2 15  1  6
  8  3  1  0
  3  9  2  0
  3 24  1  0
  5  4  1  1
  4 24  1  6
  6  5  1  1
 14  5  1  1
  7  6  1  1
 23  7  1  1
 23 10  2  0
 11 14  1  1
 11 23  1  0
 23 12  2  0
 13 17  1  0
 18 13  1  0
 16 15  2  0
 15 22  1  0
 17 16  1  0
 17 26  2  0
 19 18  1  0
 18 27  2  0
 19 28  1  0
 31 19  2  0
 20 30  2  0
 20 31  1  0
 22 21  1  0
 22 25  2  0
 25 26  1  0
 28 29  2  0
 29 30  1  0
 30 32  1  0
 32 33  1  0
 33 34  1  6
  9 35  1  0
M  END
$$$$
