
     RDKit          3D

 35 38  0  0  0  0  0  0  0  0999 V2000
   20.7657   -3.7409  -18.3856 C   0  0  0  0  0  0  0  0  0  0  0  0
   21.5440   -5.0897  -18.6083 C   0  0  1  0  0  0  0  0  0  0  0  0
   23.9534   -4.8841  -17.7781 C   0  0  0  0  0  0  0  0  0  0  0  0
   23.1155   -6.2296  -20.1340 C   0  0  0  0  0  0  0  0  0  0  0  0
   22.0149   -5.2059  -19.9703 C   0  0  2  0  0  0  0  0  0  0  0  0
   22.6485   -3.9035  -20.4566 C   0  0  0  0  0  0  0  0  0  0  0  0
   22.5934   -3.7402  -21.9585 C   0  0  0  0  0  0  0  0  0  0  0  0
   22.5615   -4.9319  -17.5991 N   0  0  0  0  0  0  0  0  0  0  0  0
   24.7744   -4.2275  -17.0588 N   0  0  0  0  0  0  0  0  0  0  0  0
   20.6447   -3.3942  -23.8332 O   0  0  0  0  0  0  0  0  0  0  0  0
   20.0301   -4.8066  -21.5707 C   0  0  0  0  0  0  0  0  0  0  0  0
   20.4436   -2.1703  -21.7335 O   0  0  0  0  0  0  0  0  0  0  0  0
   20.7109   -9.2233  -16.0675 N   0  0  0  0  0  0  0  0  0  0  0  0
   21.0109   -5.7192  -20.9830 C   0  0  0  0  0  0  0  0  0  0  0  0
   20.5783   -6.1205  -18.1081 C   0  0  0  0  0  0  0  0  0  0  0  0
   21.0167   -7.1948  -17.3704 C   0  0  0  0  0  0  0  0  0  0  0  0
   20.1631   -8.1615  -16.8040 C   0  0  0  0  0  0  0  0  0  0  0  0
   20.7213  -10.5825  -16.4343 C   0  0  0  0  0  0  0  0  0  0  0  0
   21.7472  -11.4945  -15.8973 C   0  0  0  0  0  0  0  0  0  0  0  0
   23.6729  -11.8867  -14.6293 C   0  0  0  0  0  0  0  0  0  0  0  0
   18.6779   -4.9955  -19.0708 F   0  0  0  0  0  0  0  0  0  0  0  0
   19.2177   -6.0046  -18.2925 C   0  0  0  0  0  0  0  0  0  0  0  0
   20.8830   -3.4585  -22.3783 S   0  0  1  0  0  6  0  0  0  0  0  0
   24.5859   -5.8609  -19.1691 S   0  0  0  0  0  0  0  0  0  0  0  0
   18.3704   -6.9185  -17.7589 C   0  0  0  0  0  0  0  0  0  0  0  0
   18.8205   -8.0135  -17.0055 C   0  0  0  0  0  0  0  0  0  0  0  0
   19.8556  -11.0202  -17.2199 O   0  0  0  0  0  0  0  0  0  0  0  0
   21.7080  -12.8354  -16.1813 C   0  0  0  0  0  0  0  0  0  0  0  0
   22.6177  -13.6886  -15.7101 N   0  0  0  0  0  0  0  0  0  0  0  0
   23.6526  -13.2657  -14.9073 C   0  0  0  0  0  0  0  0  0  0  0  0
   22.7453  -11.0661  -15.1193 N   0  0  0  0  0  0  0  0  0  0  0  0
   24.5573  -14.0783  -14.4314 O   0  0  0  0  0  0  0  0  0  0  0  0
   25.4585  -14.8561  -13.9662 C   0  0  0  0  0  0  0  0  0  0  0  0
   26.3529  -15.2742  -14.9879 F   0  0  0  0  0  0  0  0  0  0  0  0
   25.7233   -4.5956  -16.8435 H   0  0  0  0  0  0  0  0  0  0  0  0
  2  1  1  6
  2  5  1  0
  2  8  1  0
 15  2  1  0
  8  3  1  0
  3  9  2  0
  3 24  1  0
  5  4  1  1
  4 24  1  0
  5  6  1  0
  5 14  1  0
  6  7  1  0
 23  7  1  6
 23 10  2  0
 14 11  1  0
 11 23  1  0
 23 12  2  0
 13 17  1  0
 18 13  1  0
 16 15  2  0
 15 22  1  0
 17 16  1  0
 17 26  2  0
 19 18  1  0
 18 27  2  0
 19 28  1  0
 31 19  2  0
 20 30  2  0
 20 31  1  0
 22 21  1  0
 22 25  2  0
 25 26  1  0
 28 29  2  0
 29 30  1  0
 30 32  1  0
 32 33  1  0
 33 34  1  0
  9 35  1  0
M  END
$$$$
