
     RDKit          3D

 35 38  0  0  0  0  0  0  0  0999 V2000
   21.0087   -4.0710  -18.2841 C   0  0  0  0  0  0  0  0  0  0  0  0
   21.4928   -5.4294  -18.7056 C   0  0  1  0  0  0  0  0  0  0  0  0
   23.7895   -4.5757  -18.2423 C   0  0  0  0  0  0  0  0  0  0  0  0
   22.2990   -4.1612  -20.6714 C   0  0  0  0  0  0  0  0  0  0  0  0
   21.7814   -5.5332  -20.2017 C   0  0  2  0  0  0  0  0  0  0  0  0
   20.6148   -5.8305  -21.0397 C   0  0  0  0  0  0  0  0  0  0  0  0
   21.0332   -6.0813  -22.5159 C   0  0  0  0  0  0  0  0  0  0  0  0
   22.8129   -5.6255  -18.0741 N   0  0  0  0  0  0  0  0  0  0  0  0
   24.7622   -4.4479  -17.4452 N   0  0  0  0  0  0  0  0  0  0  0  0
   23.1790   -7.4906  -23.3866 O   0  0  0  0  0  0  0  0  0  0  0  0
   22.3741   -7.8967  -20.8298 C   0  0  0  0  0  0  0  0  0  0  0  0
   21.0990   -8.7502  -23.0192 O   0  0  0  0  0  0  0  0  0  0  0  0
   20.6505   -9.5063  -16.0471 N   0  0  0  0  0  0  0  0  0  0  0  0
   22.9047   -6.5432  -20.3620 C   0  0  0  0  0  0  0  0  0  0  0  0
   20.5809   -6.5096  -18.2040 C   0  0  0  0  0  0  0  0  0  0  0  0
   20.9718   -7.4759  -17.3396 C   0  0  0  0  0  0  0  0  0  0  0  0
   20.1480   -8.5426  -16.9620 C   0  0  0  0  0  0  0  0  0  0  0  0
   20.9572  -10.8556  -16.2911 C   0  0  0  0  0  0  0  0  0  0  0  0
   22.0982  -11.5096  -15.5984 C   0  0  0  0  0  0  0  0  0  0  0  0
   23.9187  -11.4507  -14.1514 C   0  0  0  0  0  0  0  0  0  0  0  0
   18.7621   -5.6320  -19.5154 F   0  0  0  0  0  0  0  0  0  0  0  0
   19.2954   -6.6025  -18.7239 C   0  0  0  0  0  0  0  0  0  0  0  0
   21.9236   -7.6140  -22.5509 S   0  0  1  0  0  6  0  0  0  0  0  0
   23.5693   -3.4794  -19.6109 S   0  0  0  0  0  0  0  0  0  0  0  0
   18.4881   -7.6380  -18.3635 C   0  0  0  0  0  0  0  0  0  0  0  0
   18.8837   -8.6394  -17.4745 C   0  0  0  0  0  0  0  0  0  0  0  0
   20.2619  -11.5040  -17.0969 O   0  0  0  0  0  0  0  0  0  0  0  0
   22.3319  -12.8344  -15.8259 C   0  0  0  0  0  0  0  0  0  0  0  0
   23.3534  -13.4687  -15.2210 N   0  0  0  0  0  0  0  0  0  0  0  0
   24.1499  -12.7907  -14.3856 C   0  0  0  0  0  0  0  0  0  0  0  0
   22.8792  -10.8197  -14.7715 N   0  0  0  0  0  0  0  0  0  0  0  0
   25.2160  -13.4252  -13.7458 O   0  0  0  0  0  0  0  0  0  0  0  0
   25.5199  -14.7718  -14.0172 C   0  0  0  0  0  0  0  0  0  0  0  0
   26.3578  -14.8632  -15.1269 F   0  0  0  0  0  0  0  0  0  0  0  0
   24.6880   -4.8102  -16.4751 H   0  0  0  0  0  0  0  0  0  0  0  0
  1  2  1  6
  2  5  1  0
  2  8  1  0
  2 15  1  1
  8  3  1  0
  3  9  2  0
  3 24  1  0
  5  4  1  6
  4 24  1  6
  6  5  1  1
 14  5  1  1
  7  6  1  1
 23  7  1  1
 23 10  2  0
 11 14  1  1
 11 23  1  0
 23 12  2  0
 13 17  1  0
 18 13  1  0
 16 15  2  0
 15 22  1  0
 17 16  1  0
 17 26  2  0
 19 18  1  0
 18 27  2  0
 19 28  1  0
 31 19  2  0
 20 30  2  0
 20 31  1  0
 22 21  1  0
 22 25  2  0
 25 26  1  0
 28 29  2  0
 29 30  1  0
 30 32  1  0
 32 33  1  0
 33 34  1  6
  9 35  1  0
M  END
$$$$
