
     RDKit          3D

 35 38  0  0  0  0  0  0  0  0999 V2000
   20.6985   -3.5231  -18.2765 C   0  0  0  0  0  0  0  0  0  0  0  0
   21.5079   -4.7823  -18.7599 C   0  0  1  0  0  0  0  0  0  0  0  0
   23.9520   -4.6141  -18.0286 C   0  0  0  0  0  0  0  0  0  0  0  0
   23.0282   -5.5871  -20.5311 C   0  0  0  0  0  0  0  0  0  0  0  0
   21.9048   -4.6522  -20.1440 C   0  0  2  0  0  0  0  0  0  0  0  0
   22.4658   -3.2617  -20.4371 C   0  0  0  0  0  0  0  0  0  0  0  0
   22.3206   -2.8554  -21.8860 C   0  0  0  0  0  0  0  0  0  0  0  0
   22.5748   -4.7499  -17.7907 N   0  0  0  0  0  0  0  0  0  0  0  0
   24.7897   -4.0508  -17.2518 N   0  0  0  0  0  0  0  0  0  0  0  0
   20.2587   -2.2883  -23.5768 O   0  0  0  0  0  0  0  0  0  0  0  0
   19.8206   -4.0792  -21.5539 C   0  0  0  0  0  0  0  0  0  0  0  0
   20.1354   -1.4370  -21.2948 O   0  0  0  0  0  0  0  0  0  0  0  0
   20.9543   -9.2951  -16.8718 N   0  0  0  0  0  0  0  0  0  0  0  0
   20.8631   -5.0337  -21.1766 C   0  0  0  0  0  0  0  0  0  0  0  0
   20.6072   -5.9217  -18.3911 C   0  0  0  0  0  0  0  0  0  0  0  0
   21.1206   -7.0765  -17.8496 C   0  0  0  0  0  0  0  0  0  0  0  0
   20.3322   -8.1578  -17.4098 C   0  0  0  0  0  0  0  0  0  0  0  0
   20.5101  -10.6265  -16.9817 C   0  0  0  0  0  0  0  0  0  0  0  0
   21.4179  -11.7460  -16.6730 C   0  0  0  0  0  0  0  0  0  0  0  0
   23.5543  -12.5795  -16.2140 C   0  0  0  0  0  0  0  0  0  0  0  0
   18.6221   -4.7487  -19.0895 F   0  0  0  0  0  0  0  0  0  0  0  0
   19.2361   -5.8409  -18.5016 C   0  0  0  0  0  0  0  0  0  0  0  0
   20.5808   -2.5814  -22.1668 S   0  0  1  0  0  6  0  0  0  0  0  0
   24.5375   -5.3203  -19.5931 S   0  0  0  0  0  0  0  0  0  0  0  0
   18.4505   -6.8646  -18.0860 C   0  0  0  0  0  0  0  0  0  0  0  0
   18.9771   -8.0419  -17.5329 C   0  0  0  0  0  0  0  0  0  0  0  0
   19.3387  -10.8623  -17.3431 O   0  0  0  0  0  0  0  0  0  0  0  0
   20.9356  -13.0240  -16.5524 C   0  0  0  0  0  0  0  0  0  0  0  0
   21.7277  -14.0589  -16.2712 N   0  0  0  0  0  0  0  0  0  0  0  0
   23.0819  -13.8985  -16.0855 C   0  0  0  0  0  0  0  0  0  0  0  0
   22.7306  -11.5716  -16.4961 N   0  0  0  0  0  0  0  0  0  0  0  0
   23.8816  -14.8932  -15.8090 O   0  0  0  0  0  0  0  0  0  0  0  0
   24.6768  -15.8616  -15.5575 C   0  0  0  0  0  0  0  0  0  0  0  0
   24.2210  -16.6256  -14.4497 F   0  0  0  0  0  0  0  0  0  0  0  0
   25.3778   -4.6026  -16.5947 H   0  0  0  0  0  0  0  0  0  0  0  0
  2  1  1  1
  2  5  1  0
  2  8  1  0
 15  2  1  0
  8  3  1  0
  3  9  2  0
  3 24  1  0
  5  4  1  1
  4 24  1  0
  5  6  1  0
  5 14  1  0
  6  7  1  0
 23  7  1  6
 23 10  2  0
 14 11  1  0
 11 23  1  0
 23 12  2  0
 13 17  1  0
 18 13  1  0
 16 15  2  0
 15 22  1  0
 17 16  1  0
 17 26  2  0
 19 18  1  0
 18 27  2  0
 19 28  1  0
 31 19  2  0
 20 30  2  0
 20 31  1  0
 22 21  1  0
 22 25  2  0
 25 26  1  0
 28 29  2  0
 29 30  1  0
 30 32  1  0
 32 33  1  0
 33 34  1  0
  9 35  1  0
M  END
$$$$
