
     RDKit          3D

 35 38  0  0  0  0  0  0  0  0999 V2000
   20.5467   -3.6854  -18.4718 C   0  0  0  0  0  0  0  0  0  0  0  0
   21.3853   -4.9849  -18.7591 C   0  0  1  0  0  0  0  0  0  0  0  0
   23.8060   -4.6789  -17.9952 C   0  0  0  0  0  0  0  0  0  0  0  0
   22.9641   -5.9966  -20.3655 C   0  0  0  0  0  0  0  0  0  0  0  0
   21.8185   -5.0366  -20.1375 C   0  0  2  0  0  0  0  0  0  0  0  0
   22.3693   -3.6894  -20.6021 C   0  0  0  0  0  0  0  0  0  0  0  0
   22.2588   -3.4854  -22.0960 C   0  0  0  0  0  0  0  0  0  0  0  0
   22.4247   -4.8041  -17.7763 N   0  0  0  0  0  0  0  0  0  0  0  0
   24.6147   -4.0019  -17.2810 N   0  0  0  0  0  0  0  0  0  0  0  0
   20.2370   -3.1863  -23.9001 O   0  0  0  0  0  0  0  0  0  0  0  0
   19.7666   -4.6942  -21.6648 C   0  0  0  0  0  0  0  0  0  0  0  0
   20.0399   -2.0363  -21.7585 O   0  0  0  0  0  0  0  0  0  0  0  0
   20.8260   -9.1714  -16.2299 N   0  0  0  0  0  0  0  0  0  0  0  0
   20.8106   -5.5715  -21.1351 C   0  0  0  0  0  0  0  0  0  0  0  0
   20.4897   -6.0787  -18.2622 C   0  0  0  0  0  0  0  0  0  0  0  0
   20.9977   -7.1236  -17.5272 C   0  0  0  0  0  0  0  0  0  0  0  0
   20.2096   -8.1462  -16.9639 C   0  0  0  0  0  0  0  0  0  0  0  0
   20.7304  -10.5544  -16.4754 C   0  0  0  0  0  0  0  0  0  0  0  0
   21.7569  -11.4784  -15.9606 C   0  0  0  0  0  0  0  0  0  0  0  0
   23.7815  -11.8782  -14.8602 C   0  0  0  0  0  0  0  0  0  0  0  0
   18.5195   -5.0790  -19.2232 F   0  0  0  0  0  0  0  0  0  0  0  0
   19.1245   -6.0524  -18.4472 C   0  0  0  0  0  0  0  0  0  0  0  0
   20.5239   -3.2807  -22.4556 S   0  0  1  0  0  6  0  0  0  0  0  0
   24.4434   -5.5805  -19.4340 S   0  0  0  0  0  0  0  0  0  0  0  0
   18.3391   -7.0217  -17.9166 C   0  0  0  0  0  0  0  0  0  0  0  0
   18.8603   -8.0867  -17.1659 C   0  0  0  0  0  0  0  0  0  0  0  0
   19.7693  -11.0031  -17.1337 O   0  0  0  0  0  0  0  0  0  0  0  0
   21.6164  -12.8340  -16.1126 C   0  0  0  0  0  0  0  0  0  0  0  0
   22.5237  -13.6980  -15.6568 N   0  0  0  0  0  0  0  0  0  0  0  0
   23.6584  -13.2722  -15.0045 C   0  0  0  0  0  0  0  0  0  0  0  0
   22.8527  -11.0470  -15.3297 N   0  0  0  0  0  0  0  0  0  0  0  0
   24.5635  -14.0951  -14.5474 O   0  0  0  0  0  0  0  0  0  0  0  0
   25.4651  -14.8832  -14.1005 C   0  0  0  0  0  0  0  0  0  0  0  0
   25.1269  -15.3704  -12.8094 F   0  0  0  0  0  0  0  0  0  0  0  0
   25.3877   -4.4578  -16.7550 H   0  0  0  0  0  0  0  0  0  0  0  0
  2  1  1  6
  2  5  1  0
  2  8  1  0
 15  2  1  0
  8  3  1  0
  3  9  2  0
  3 24  1  0
  5  4  1  1
  4 24  1  0
  5  6  1  0
  5 14  1  0
  6  7  1  0
 23  7  1  6
 23 10  2  0
 14 11  1  0
 11 23  1  0
 23 12  2  0
 13 17  1  0
 18 13  1  0
 16 15  2  0
 15 22  1  0
 17 16  1  0
 17 26  2  0
 19 18  1  0
 18 27  2  0
 19 28  1  0
 31 19  2  0
 20 30  2  0
 20 31  1  0
 22 21  1  0
 22 25  2  0
 25 26  1  0
 28 29  2  0
 29 30  1  0
 30 32  1  0
 32 33  1  0
 33 34  1  0
  9 35  1  0
M  END
$$$$
