
     RDKit          3D

 35 38  0  0  0  0  0  0  0  0999 V2000
   20.7988   -3.7487  -18.2346 C   0  0  0  0  0  0  0  0  0  0  0  0
   21.6569   -4.9595  -18.7563 C   0  0  1  0  0  0  0  0  0  0  0  0
   24.1084   -4.6775  -18.0872 C   0  0  0  0  0  0  0  0  0  0  0  0
   23.1673   -5.6647  -20.5778 C   0  0  0  0  0  0  0  0  0  0  0  0
   22.0094   -4.7924  -20.1484 C   0  0  2  0  0  0  0  0  0  0  0  0
   22.4920   -3.3718  -20.4371 C   0  0  0  0  0  0  0  0  0  0  0  0
   22.2877   -2.9555  -21.8760 C   0  0  0  0  0  0  0  0  0  0  0  0
   22.7466   -4.8854  -17.8151 N   0  0  0  0  0  0  0  0  0  0  0  0
   24.9374   -4.0823  -17.3251 N   0  0  0  0  0  0  0  0  0  0  0  0
   20.1552   -2.4721  -23.5041 O   0  0  0  0  0  0  0  0  0  0  0  0
   19.8619   -4.3077  -21.4951 C   0  0  0  0  0  0  0  0  0  0  0  0
   20.0510   -1.6564  -21.2081 O   0  0  0  0  0  0  0  0  0  0  0  0
   21.4022   -9.6777  -17.3742 N   0  0  0  0  0  0  0  0  0  0  0  0
   20.9606   -5.2131  -21.1585 C   0  0  0  0  0  0  0  0  0  0  0  0
   20.8246   -6.1472  -18.3796 C   0  0  0  0  0  0  0  0  0  0  0  0
   21.4145   -7.3533  -18.0836 C   0  0  0  0  0  0  0  0  0  0  0  0
   20.7057   -8.4908  -17.6500 C   0  0  0  0  0  0  0  0  0  0  0  0
   20.9770  -10.7254  -16.5353 C   0  0  0  0  0  0  0  0  0  0  0  0
   21.9543  -11.6674  -15.9609 C   0  0  0  0  0  0  0  0  0  0  0  0
   24.0956  -12.1552  -15.1566 C   0  0  0  0  0  0  0  0  0  0  0  0
   18.7584   -4.9228  -18.5693 F   0  0  0  0  0  0  0  0  0  0  0  0
   19.4561   -6.0712  -18.2378 C   0  0  0  0  0  0  0  0  0  0  0  0
   20.5294   -2.7661  -22.1072 S   0  0  1  0  0  6  0  0  0  0  0  0
   24.6861   -5.3339  -19.6761 S   0  0  0  0  0  0  0  0  0  0  0  0
   18.7463   -7.1485  -17.8212 C   0  0  0  0  0  0  0  0  0  0  0  0
   19.3511   -8.3781  -17.5189 C   0  0  0  0  0  0  0  0  0  0  0  0
   19.7635  -10.8586  -16.2750 O   0  0  0  0  0  0  0  0  0  0  0  0
   21.5995  -12.9641  -15.6904 C   0  0  0  0  0  0  0  0  0  0  0  0
   22.4570  -13.8414  -15.1683 N   0  0  0  0  0  0  0  0  0  0  0  0
   23.7539  -13.4898  -14.8708 C   0  0  0  0  0  0  0  0  0  0  0  0
   23.2099  -11.3084  -15.6785 N   0  0  0  0  0  0  0  0  0  0  0  0
   24.6152  -14.3274  -14.3589 O   0  0  0  0  0  0  0  0  0  0  0  0
   25.4750  -15.1376  -13.8712 C   0  0  0  0  0  0  0  0  0  0  0  0
   26.1240  -14.5767  -12.7387 F   0  0  0  0  0  0  0  0  0  0  0  0
   25.6374   -4.6107  -16.7657 H   0  0  0  0  0  0  0  0  0  0  0  0
  2  1  1  1
  2  5  1  0
  2  8  1  0
 15  2  1  0
  8  3  1  0
  3  9  2  0
  3 24  1  0
  5  4  1  6
  4 24  1  0
  5  6  1  0
  5 14  1  0
  6  7  1  0
 23  7  1  6
 23 10  2  0
 14 11  1  0
 11 23  1  0
 23 12  2  0
 13 17  1  0
 18 13  1  0
 16 15  2  0
 15 22  1  0
 17 16  1  0
 17 26  2  0
 19 18  1  0
 18 27  2  0
 19 28  1  0
 31 19  2  0
 20 30  2  0
 20 31  1  0
 22 21  1  0
 22 25  2  0
 25 26  1  0
 28 29  2  0
 29 30  1  0
 30 32  1  0
 32 33  1  0
 33 34  1  0
  9 35  1  0
M  END
$$$$
