
     RDKit          3D

 21 21  0  0  0  0  0  0  0  0999 V2000
  -33.3551  -18.8646   17.2679 C   0  0  0  0  0  0  0  0  0  0  0  0
  -33.1034  -18.8740   15.8199 C   0  0  2  0  0  0  0  0  0  0  0  0
  -33.1153  -17.4671   15.2239 C   0  0  0  0  0  0  0  0  0  0  0  0
  -32.6968  -17.5599   13.8043 C   0  0  0  0  0  0  0  0  0  0  0  0
  -33.5759  -17.3524   12.7759 C   0  0  0  0  0  0  0  0  0  0  0  0
  -33.2195  -17.4294   11.4228 C   0  0  0  0  0  0  0  0  0  0  0  0
  -35.3370  -15.7166   10.1366 C   0  0  0  0  0  0  0  0  0  0  0  0
  -36.6038  -15.7077    9.3434 C   0  0  2  0  0  0  0  0  0  0  0  0
  -37.0376  -14.2948    9.2178 C   0  0  0  0  0  0  0  0  0  0  0  0
  -31.9094  -17.7324   11.1471 C   0  0  0  0  0  0  0  0  0  0  0  0
  -30.9939  -17.9478   12.1670 C   0  0  0  0  0  0  0  0  0  0  0  0
  -31.3898  -17.8610   13.4992 C   0  0  0  0  0  0  0  0  0  0  0  0
  -34.0491  -19.7110   15.1024 N   0  0  0  0  0  4  0  0  0  0  0  0
  -37.6191  -16.5954    9.8023 N   0  0  0  0  0  4  0  0  0  0  0  0
  -34.3883  -19.6081   17.7963 O   0  0  0  0  0  0  0  0  0  0  0  0
  -32.6360  -18.1857   18.0169 O   0  0  0  0  0  0  0  0  0  0  0  0
  -36.3165  -13.4933    8.5974 O   0  0  0  0  0  0  0  0  0  0  0  0
  -38.2176  -13.8643    9.7746 O   0  0  0  0  0  0  0  0  0  0  0  0
  -31.4291  -17.8441    9.8581 O   0  0  0  0  0  0  0  0  0  0  0  0
  -29.6725  -18.2519   11.8331 O   0  0  0  0  0  0  0  0  0  0  0  0
  -34.4088  -17.2201   10.1526 S   0  0  0  0  0  0  0  0  0  0  0  0
  2  1  1  0
  1 15  1  0
  1 16  2  0
  3  2  1  0
  2 13  1  6
  4  3  1  0
  5  4  2  0
  4 12  1  0
  6  5  1  0
  6 10  2  0
 21  6  1  0
  7  8  1  0
  7 21  1  0
  8  9  1  0
  8 14  1  1
  9 17  2  0
  9 18  1  0
 10 11  1  0
 10 19  1  0
 11 12  2  0
 11 20  1  0
M  CHG  2  13   1  14   1
M  END
$$$$
