
     RDKit          3D

 21 21  0  0  0  0  0  0  0  0999 V2000
  -18.8984  -33.4319  -17.4933 C   0  0  0  0  0  0  0  0  0  0  0  0
  -18.6849  -33.4348  -16.0390 C   0  0  2  0  0  0  0  0  0  0  0  0
  -17.3774  -32.7481  -15.6474 C   0  0  0  0  0  0  0  0  0  0  0  0
  -17.2920  -32.7203  -14.1672 C   0  0  0  0  0  0  0  0  0  0  0  0
  -16.6678  -33.7120  -13.4598 C   0  0  0  0  0  0  0  0  0  0  0  0
  -16.5647  -33.7214  -12.0622 C   0  0  0  0  0  0  0  0  0  0  0  0
  -16.8696  -36.2927  -10.5236 C   0  0  0  0  0  0  0  0  0  0  0  0
  -16.5104  -37.7193  -10.7883 C   0  0  2  0  0  0  0  0  0  0  0  0
  -17.0543  -38.5276   -9.6697 C   0  0  0  0  0  0  0  0  0  0  0  0
  -17.1320  -32.6642  -11.3955 C   0  0  0  0  0  0  0  0  0  0  0  0
  -17.7713  -31.6431  -12.0836 C   0  0  0  0  0  0  0  0  0  0  0  0
  -17.8510  -31.6722  -13.4736 C   0  0  0  0  0  0  0  0  0  0  0  0
  -18.7126  -34.7757  -15.4815 N   0  0  0  0  0  4  0  0  0  0  0  0
  -15.1358  -37.9611  -11.0737 N   0  0  0  0  0  4  0  0  0  0  0  0
  -18.6867  -34.5794  -18.2267 O   0  0  0  0  0  0  0  0  0  0  0  0
  -19.2699  -32.3942  -18.0625 O   0  0  0  0  0  0  0  0  0  0  0  0
  -18.2787  -38.5119   -9.4515 O   0  0  0  0  0  0  0  0  0  0  0  0
  -16.2277  -39.2877   -8.8781 O   0  0  0  0  0  0  0  0  0  0  0  0
  -17.1060  -32.5544  -10.0201 O   0  0  0  0  0  0  0  0  0  0  0  0
  -18.3312  -30.5894  -11.3582 O   0  0  0  0  0  0  0  0  0  0  0  0
  -15.8116  -35.0561  -11.2119 S   0  0  0  0  0  0  0  0  0  0  0  0
  2  1  1  0
  1 15  1  0
  1 16  2  0
  3  2  1  0
  2 13  1  6
  4  3  1  0
  5  4  2  0
  4 12  1  0
  6  5  1  0
  6 10  2  0
 21  6  1  0
  7  8  1  0
  7 21  1  0
  8  9  1  0
  8 14  1  1
  9 17  2  0
  9 18  1  0
 10 11  1  0
 10 19  1  0
 11 12  2  0
 11 20  1  0
M  CHG  2  13   1  14   1
M  END
$$$$
