
     RDKit          3D

 21 21  0  0  0  0  0  0  0  0999 V2000
  -18.3851  -36.1840  -16.9965 C   0  0  0  0  0  0  0  0  0  0  0  0
  -18.0067  -35.1100  -16.0671 C   0  0  2  0  0  0  0  0  0  0  0  0
  -19.2250  -34.4481  -15.4250 C   0  0  0  0  0  0  0  0  0  0  0  0
  -18.7467  -33.4839  -14.4050 C   0  0  0  0  0  0  0  0  0  0  0  0
  -18.4983  -33.8612  -13.1130 C   0  0  0  0  0  0  0  0  0  0  0  0
  -18.0445  -32.9814  -12.1211 C   0  0  0  0  0  0  0  0  0  0  0  0
  -16.1650  -33.9041   -9.9558 C   0  0  0  0  0  0  0  0  0  0  0  0
  -15.6072  -35.2164  -10.4038 C   0  0  2  0  0  0  0  0  0  0  0  0
  -14.2079  -35.2918   -9.9173 C   0  0  0  0  0  0  0  0  0  0  0  0
  -17.8491  -31.6761  -12.4979 C   0  0  0  0  0  0  0  0  0  0  0  0
  -18.0913  -31.2622  -13.7998 C   0  0  0  0  0  0  0  0  0  0  0  0
  -18.5414  -32.1697  -14.7554 C   0  0  0  0  0  0  0  0  0  0  0  0
  -17.1848  -34.0957  -16.7036 N   0  0  0  0  0  4  0  0  0  0  0  0
  -15.7638  -35.5065  -11.7897 N   0  0  0  0  0  4  0  0  0  0  0  0
  -18.0473  -36.0971  -18.3299 O   0  0  0  0  0  0  0  0  0  0  0  0
  -19.0101  -37.1713  -16.5803 O   0  0  0  0  0  0  0  0  0  0  0  0
  -13.9654  -35.0211   -8.7278 O   0  0  0  0  0  0  0  0  0  0  0  0
  -13.1843  -35.6546  -10.7590 O   0  0  0  0  0  0  0  0  0  0  0  0
  -17.4102  -30.7076  -11.6181 O   0  0  0  0  0  0  0  0  0  0  0  0
  -17.8757  -29.9233  -14.1322 O   0  0  0  0  0  0  0  0  0  0  0  0
  -17.8105  -33.5131  -10.4675 S   0  0  0  0  0  0  0  0  0  0  0  0
  2  1  1  0
  1 15  1  0
  1 16  2  0
  3  2  1  0
  2 13  1  6
  4  3  1  0
  5  4  2  0
  4 12  1  0
  6  5  1  0
  6 10  2  0
 21  6  1  0
  7  8  1  0
  7 21  1  0
  8  9  1  0
  8 14  1  6
  9 17  2  0
  9 18  1  0
 10 11  1  0
 10 19  1  0
 11 12  2  0
 11 20  1  0
M  CHG  2  13   1  14   1
M  END
$$$$
