
     RDKit          3D

 21 21  0  0  0  0  0  0  0  0999 V2000
  -38.0537  -17.1972   13.8507 C   0  0  0  0  0  0  0  0  0  0  0  0
  -36.6008  -16.9856   13.9196 C   0  0  2  0  0  0  0  0  0  0  0  0
  -35.7872  -18.2006   13.5237 C   0  0  0  0  0  0  0  0  0  0  0  0
  -34.3263  -17.9171   13.5543 C   0  0  0  0  0  0  0  0  0  0  0  0
  -33.6864  -17.3879   12.4460 C   0  0  0  0  0  0  0  0  0  0  0  0
  -32.3386  -17.1073   12.4368 C   0  0  0  0  0  0  0  0  0  0  0  0
  -30.2388  -17.2918   10.3012 C   0  0  0  0  0  0  0  0  0  0  0  0
  -30.7359  -18.4992    9.5674 C   0  0  2  0  0  0  0  0  0  0  0  0
  -29.6790  -19.2108    8.8343 C   0  0  0  0  0  0  0  0  0  0  0  0
  -31.6166  -17.3652   13.5739 C   0  0  0  0  0  0  0  0  0  0  0  0
  -32.2282  -17.8991   14.7096 C   0  0  0  0  0  0  0  0  0  0  0  0
  -33.5717  -18.1651   14.6784 C   0  0  0  0  0  0  0  0  0  0  0  0
  -36.2599  -16.7714   15.3564 N   0  0  0  0  0  4  0  0  0  0  0  0
  -31.6673  -17.9432    8.5108 N   0  0  0  0  0  4  0  0  0  0  0  0
  -38.8520  -17.1707   14.9796 O   0  0  0  0  0  0  0  0  0  0  0  0
  -38.5810  -17.4083   12.7288 O   0  0  0  0  0  0  0  0  0  0  0  0
  -28.8868  -19.9811    9.3897 O   0  0  0  0  0  0  0  0  0  0  0  0
  -29.5768  -19.0016    7.4658 O   0  0  0  0  0  0  0  0  0  0  0  0
  -30.2559  -17.1169   13.6774 O   0  0  0  0  0  0  0  0  0  0  0  0
  -31.4942  -18.1617   15.8625 O   0  0  0  0  0  0  0  0  0  0  0  0
  -31.6251  -16.4015   10.9827 S   0  0  0  0  0  0  0  0  0  0  0  0
  2  1  1  1
  1 15  1  0
  1 16  2  0
  3  2  1  0
 13  2  1  6
  3  4  1  6
  5  4  2  0
  4 12  1  0
  6  5  1  0
  6 10  2  0
 21  6  1  0
  7  8  1  0
  7 21  1  6
  8  9  1  6
 14  8  1  6
  9 17  2  0
  9 18  1  0
 10 11  1  0
 10 19  1  0
 11 12  2  0
 11 20  1  0
M  CHG  2  13   1  14   1
M  END
$$$$
