
     RDKit          3D

 21 21  0  0  0  0  0  0  0  0999 V2000
  -18.7248  -32.0633  -17.0161 C   0  0  0  0  0  0  0  0  0  0  0  0
  -18.7812  -32.1793  -15.5519 C   0  0  2  0  0  0  0  0  0  0  0  0
  -18.7455  -33.6345  -15.0876 C   0  0  0  0  0  0  0  0  0  0  0  0
  -18.3613  -33.6564  -13.6555 C   0  0  0  0  0  0  0  0  0  0  0  0
  -18.2433  -34.8269  -12.9559 C   0  0  0  0  0  0  0  0  0  0  0  0
  -17.8813  -34.8896  -11.6035 C   0  0  0  0  0  0  0  0  0  0  0  0
  -16.2820  -37.2972  -10.7560 C   0  0  0  0  0  0  0  0  0  0  0  0
  -15.4944  -37.3047   -9.4857 C   0  0  2  0  0  0  0  0  0  0  0  0
  -14.7029  -38.5590   -9.4630 C   0  0  0  0  0  0  0  0  0  0  0  0
  -17.6395  -33.6939  -10.9744 C   0  0  0  0  0  0  0  0  0  0  0  0
  -17.7500  -32.4905  -11.6559 C   0  0  0  0  0  0  0  0  0  0  0  0
  -18.1120  -32.4729  -13.0005 C   0  0  0  0  0  0  0  0  0  0  0  0
  -19.9492  -31.5218  -14.9924 N   0  0  0  0  0  4  0  0  0  0  0  0
  -16.2448  -37.0620   -8.2993 N   0  0  0  0  0  4  0  0  0  0  0  0
  -17.7775  -32.7643  -17.7305 O   0  0  0  0  0  0  0  0  0  0  0  0
  -19.5318  -31.3324  -17.6107 O   0  0  0  0  0  0  0  0  0  0  0  0
  -13.7138  -38.6638  -10.2098 O   0  0  0  0  0  0  0  0  0  0  0  0
  -15.0469  -39.5984   -8.6330 O   0  0  0  0  0  0  0  0  0  0  0  0
  -17.2806  -33.6147   -9.6441 O   0  0  0  0  0  0  0  0  0  0  0  0
  -17.4920  -31.3018  -10.9702 O   0  0  0  0  0  0  0  0  0  0  0  0
  -17.8143  -36.4172  -10.7469 S   0  0  0  0  0  0  0  0  0  0  0  0
  2  1  1  0
  1 15  1  0
  1 16  2  0
  3  2  1  0
  2 13  1  6
  4  3  1  0
  5  4  2  0
  4 12  1  0
  6  5  1  0
  6 10  2  0
 21  6  1  0
  7  8  1  0
  7 21  1  0
  8  9  1  0
  8 14  1  1
  9 17  2  0
  9 18  1  0
 10 11  1  0
 10 19  1  0
 11 12  2  0
 11 20  1  0
M  CHG  2  13   1  14   1
M  END
$$$$
