
     RDKit          3D

 21 21  0  0  0  0  0  0  0  0999 V2000
  -20.3738  -32.2340  -15.6933 C   0  0  0  0  0  0  0  0  0  0  0  0
  -19.1567  -32.8654  -15.1638 C   0  0  2  0  0  0  0  0  0  0  0  0
  -19.3049  -33.2607  -13.6953 C   0  0  0  0  0  0  0  0  0  0  0  0
  -18.2623  -34.2658  -13.3768 C   0  0  0  0  0  0  0  0  0  0  0  0
  -18.5692  -35.5810  -13.1542 C   0  0  0  0  0  0  0  0  0  0  0  0
  -17.6136  -36.5607  -12.8524 C   0  0  0  0  0  0  0  0  0  0  0  0
  -17.3040  -39.0212  -11.1429 C   0  0  0  0  0  0  0  0  0  0  0  0
  -17.0513  -40.4886  -11.2722 C   0  0  2  0  0  0  0  0  0  0  0  0
  -16.1847  -40.8902  -10.1372 C   0  0  0  0  0  0  0  0  0  0  0  0
  -16.3070  -36.1459  -12.7826 C   0  0  0  0  0  0  0  0  0  0  0  0
  -15.9634  -34.8201  -13.0035 C   0  0  0  0  0  0  0  0  0  0  0  0
  -16.9447  -33.8780  -13.3015 C   0  0  0  0  0  0  0  0  0  0  0  0
  -17.9856  -32.0208  -15.3212 N   0  0  0  0  0  4  0  0  0  0  0  0
  -16.5857  -40.9191  -12.5479 N   0  0  0  0  0  4  0  0  0  0  0  0
  -20.3076  -30.9925  -16.2881 O   0  0  0  0  0  0  0  0  0  0  0  0
  -21.4638  -32.8197  -15.6047 O   0  0  0  0  0  0  0  0  0  0  0  0
  -15.2053  -41.6255  -10.3545 O   0  0  0  0  0  0  0  0  0  0  0  0
  -16.4492  -40.4626   -8.8586 O   0  0  0  0  0  0  0  0  0  0  0  0
  -15.2698  -37.0076  -12.4888 O   0  0  0  0  0  0  0  0  0  0  0  0
  -14.6195  -34.4499  -12.9219 O   0  0  0  0  0  0  0  0  0  0  0  0
  -18.0798  -38.2153  -12.5108 S   0  0  0  0  0  0  0  0  0  0  0  0
  2  1  1  0
  1 15  1  0
  1 16  2  0
  3  2  1  0
  2 13  1  1
  4  3  1  0
  5  4  2  0
  4 12  1  0
  6  5  1  0
  6 10  2  0
 21  6  1  0
  7  8  1  0
  7 21  1  0
  8  9  1  0
  8 14  1  6
  9 17  2  0
  9 18  1  0
 10 11  1  0
 10 19  1  0
 11 12  2  0
 11 20  1  0
M  CHG  2  13   1  14   1
M  END
$$$$
