
     RDKit          3D

 21 21  0  0  0  0  0  0  0  0999 V2000
  -19.6041  -32.7502  -16.1314 C   0  0  0  0  0  0  0  0  0  0  0  0
  -18.6988  -32.6241  -14.9803 C   0  0  2  0  0  0  0  0  0  0  0  0
  -19.3012  -33.1004  -13.6745 C   0  0  0  0  0  0  0  0  0  0  0  0
  -18.3287  -33.0002  -12.5522 C   0  0  0  0  0  0  0  0  0  0  0  0
  -17.4130  -34.0126  -12.3187 C   0  0  0  0  0  0  0  0  0  0  0  0
  -16.4947  -33.9546  -11.2947 C   0  0  0  0  0  0  0  0  0  0  0  0
  -16.0394  -36.8117  -10.4988 C   0  0  0  0  0  0  0  0  0  0  0  0
  -16.5647  -37.6099  -11.6522 C   0  0  2  0  0  0  0  0  0  0  0  0
  -17.0862  -38.9268  -11.2591 C   0  0  0  0  0  0  0  0  0  0  0  0
  -16.4978  -32.8476  -10.4852 C   0  0  0  0  0  0  0  0  0  0  0  0
  -17.4068  -31.8080  -10.6904 C   0  0  0  0  0  0  0  0  0  0  0  0
  -18.3053  -31.9040  -11.7201 C   0  0  0  0  0  0  0  0  0  0  0  0
  -18.4693  -31.1655  -14.7649 N   0  0  0  0  0  4  0  0  0  0  0  0
  -15.3458  -37.8878  -12.5067 N   0  0  0  0  0  4  0  0  0  0  0  0
  -19.2879  -32.2282  -17.3724 O   0  0  0  0  0  0  0  0  0  0  0  0
  -20.6976  -33.3517  -15.9771 O   0  0  0  0  0  0  0  0  0  0  0  0
  -16.4680  -39.9771  -11.4692 O   0  0  0  0  0  0  0  0  0  0  0  0
  -18.3215  -38.9801  -10.6281 O   0  0  0  0  0  0  0  0  0  0  0  0
  -15.6150  -32.6821   -9.4282 O   0  0  0  0  0  0  0  0  0  0  0  0
  -17.4100  -30.6858   -9.8675 O   0  0  0  0  0  0  0  0  0  0  0  0
  -15.3468  -35.2840  -11.1032 S   0  0  0  0  0  0  0  0  0  0  0  0
  2  1  1  6
  1 15  1  0
  1 16  2  0
  3  2  1  0
 13  2  1  6
  3  4  1  6
  5  4  2  0
  4 12  1  0
  6  5  1  0
  6 10  2  0
 21  6  1  0
  7  8  1  0
  7 21  1  6
  8  9  1  1
 14  8  1  6
  9 17  2  0
  9 18  1  0
 10 11  1  0
 10 19  1  0
 11 12  2  0
 11 20  1  0
M  CHG  2  13   1  14   1
M  END
$$$$
