
     RDKit          3D

 21 21  0  0  0  0  0  0  0  0999 V2000
  -37.6017  -19.2739   20.5003 C   0  0  0  0  0  0  0  0  0  0  0  0
  -37.0055  -18.9853   19.1882 C   0  0  2  0  0  0  0  0  0  0  0  0
  -36.7045  -17.4983   19.0067 C   0  0  0  0  0  0  0  0  0  0  0  0
  -36.1425  -17.3000   17.6488 C   0  0  0  0  0  0  0  0  0  0  0  0
  -36.9269  -16.9389   16.5869 C   0  0  0  0  0  0  0  0  0  0  0  0
  -36.4341  -16.7404   15.2901 C   0  0  0  0  0  0  0  0  0  0  0  0
  -37.1245  -17.0249   12.3721 C   0  0  0  0  0  0  0  0  0  0  0  0
  -38.1980  -17.8168   11.6979 C   0  0  2  0  0  0  0  0  0  0  0  0
  -38.0990  -17.5475   10.2425 C   0  0  0  0  0  0  0  0  0  0  0  0
  -35.0866  -16.9274   15.1078 C   0  0  0  0  0  0  0  0  0  0  0  0
  -34.2646  -17.2931   16.1639 C   0  0  0  0  0  0  0  0  0  0  0  0
  -34.7952  -17.4797   17.4379 C   0  0  0  0  0  0  0  0  0  0  0  0
  -37.8385  -19.4472   18.0917 N   0  0  0  0  0  4  0  0  0  0  0  0
  -39.5067  -17.6566   12.2374 N   0  0  0  0  0  4  0  0  0  0  0  0
  -36.9170  -18.9641   21.6556 O   0  0  0  0  0  0  0  0  0  0  0  0
  -38.7240  -19.7979   20.5686 O   0  0  0  0  0  0  0  0  0  0  0  0
  -36.9843  -17.5950    9.6929 O   0  0  0  0  0  0  0  0  0  0  0  0
  -39.2159  -17.2485    9.5003 O   0  0  0  0  0  0  0  0  0  0  0  0
  -34.4750  -16.7698   13.8807 O   0  0  0  0  0  0  0  0  0  0  0  0
  -32.9001  -17.4696   15.9258 O   0  0  0  0  0  0  0  0  0  0  0  0
  -37.5029  -16.3449   13.9585 S   0  0  0  0  0  0  0  0  0  0  0  0
  2  1  1  0
  1 15  1  0
  1 16  2  0
  3  2  1  0
  2 13  1  6
  4  3  1  0
  5  4  2  0
  4 12  1  0
  6  5  1  0
  6 10  2  0
 21  6  1  0
  7  8  1  0
  7 21  1  0
  8  9  1  0
  8 14  1  1
  9 17  2  0
  9 18  1  0
 10 11  1  0
 10 19  1  0
 11 12  2  0
 11 20  1  0
M  CHG  2  13   1  14   1
M  END
$$$$
