
     RDKit          3D

 21 21  0  0  0  0  0  0  0  0999 V2000
  -17.2379  -37.9593  -11.1995 C   0  0  0  0  0  0  0  0  0  0  0  0
  -16.9351  -36.5426  -10.9516 C   0  0  2  0  0  0  0  0  0  0  0  0
  -18.0689  -35.6235  -11.4037 C   0  0  0  0  0  0  0  0  0  0  0  0
  -17.7124  -34.2311  -11.0386 C   0  0  0  0  0  0  0  0  0  0  0  0
  -17.0748  -33.3943  -11.9141 C   0  0  0  0  0  0  0  0  0  0  0  0
  -16.7227  -32.0728  -11.6079 C   0  0  0  0  0  0  0  0  0  0  0  0
  -14.5566  -30.0434  -12.1197 C   0  0  0  0  0  0  0  0  0  0  0  0
  -14.9626  -28.7343  -11.5237 C   0  0  2  0  0  0  0  0  0  0  0  0
  -13.7692  -28.1647  -10.8516 C   0  0  0  0  0  0  0  0  0  0  0  0
  -17.0482  -31.6237  -10.3524 C   0  0  0  0  0  0  0  0  0  0  0  0
  -17.6950  -32.4471   -9.4422 C   0  0  0  0  0  0  0  0  0  0  0  0
  -18.0277  -33.7546   -9.7874 C   0  0  0  0  0  0  0  0  0  0  0  0
  -15.6947  -36.1265  -11.5825 N   0  0  0  0  0  4  0  0  0  0  0  0
  -16.1334  -28.7682  -10.7127 N   0  0  0  0  0  4  0  0  0  0  0  0
  -16.4343  -38.7033  -12.0362 O   0  0  0  0  0  0  0  0  0  0  0  0
  -18.2193  -38.4872  -10.6545 O   0  0  0  0  0  0  0  0  0  0  0  0
  -13.9235  -27.2751   -9.9961 O   0  0  0  0  0  0  0  0  0  0  0  0
  -12.5050  -28.6052  -11.1605 O   0  0  0  0  0  0  0  0  0  0  0  0
  -16.7535  -30.3460   -9.9219 O   0  0  0  0  0  0  0  0  0  0  0  0
  -18.0050  -31.9414   -8.1781 O   0  0  0  0  0  0  0  0  0  0  0  0
  -15.8458  -31.0741  -12.7505 S   0  0  0  0  0  0  0  0  0  0  0  0
  2  1  1  0
  1 15  1  0
  1 16  2  0
  3  2  1  0
  2 13  1  6
  4  3  1  0
  5  4  2  0
  4 12  1  0
  6  5  1  0
  6 10  2  0
 21  6  1  0
  7  8  1  0
  7 21  1  0
  8  9  1  0
  8 14  1  1
  9 17  2  0
  9 18  1  0
 10 11  1  0
 10 19  1  0
 11 12  2  0
 11 20  1  0
M  CHG  2  13   1  14   1
M  END
$$$$
