
     RDKit          3D

 21 21  0  0  0  0  0  0  0  0999 V2000
  -18.6669  -35.0718  -18.7519 C   0  0  0  0  0  0  0  0  0  0  0  0
  -18.5965  -34.6815  -17.3365 C   0  0  2  0  0  0  0  0  0  0  0  0
  -17.4105  -35.2686  -16.5994 C   0  0  0  0  0  0  0  0  0  0  0  0
  -17.3235  -34.7580  -15.2040 C   0  0  0  0  0  0  0  0  0  0  0  0
  -16.6324  -35.4657  -14.2348 C   0  0  0  0  0  0  0  0  0  0  0  0
  -16.5249  -35.0242  -12.9353 C   0  0  0  0  0  0  0  0  0  0  0  0
  -16.5206  -36.6580  -10.4184 C   0  0  0  0  0  0  0  0  0  0  0  0
  -16.9267  -38.0637  -10.7388 C   0  0  2  0  0  0  0  0  0  0  0  0
  -17.3717  -38.8236   -9.5617 C   0  0  0  0  0  0  0  0  0  0  0  0
  -17.1284  -33.8384  -12.6032 C   0  0  0  0  0  0  0  0  0  0  0  0
  -17.8340  -33.0985  -13.5539 C   0  0  0  0  0  0  0  0  0  0  0  0
  -17.9184  -33.5723  -14.8365 C   0  0  0  0  0  0  0  0  0  0  0  0
  -19.7814  -35.2848  -16.6593 N   0  0  0  0  0  4  0  0  0  0  0  0
  -15.6483  -38.7311  -11.2007 N   0  0  0  0  0  4  0  0  0  0  0  0
  -19.8534  -35.4616  -19.3459 O   0  0  0  0  0  0  0  0  0  0  0  0
  -17.6135  -35.0489  -19.4381 O   0  0  0  0  0  0  0  0  0  0  0  0
  -16.6827  -39.7092   -9.0418 O   0  0  0  0  0  0  0  0  0  0  0  0
  -18.6155  -38.5257   -9.0220 O   0  0  0  0  0  0  0  0  0  0  0  0
  -17.0801  -33.2975  -11.3269 O   0  0  0  0  0  0  0  0  0  0  0  0
  -18.4471  -31.8959  -13.2155 O   0  0  0  0  0  0  0  0  0  0  0  0
  -15.5915  -35.9851  -11.7833 S   0  0  0  0  0  0  0  0  0  0  0  0
  2  1  1  6
  1 15  1  0
  1 16  2  0
  3  2  1  0
 13  2  1  6
  3  4  1  6
  5  4  2  0
  4 12  1  0
  6  5  1  0
  6 10  2  0
 21  6  1  0
  7  8  1  0
  7 21  1  6
  8  9  1  1
 14  8  1  6
  9 17  2  0
  9 18  1  0
 10 11  1  0
 10 19  1  0
 11 12  2  0
 11 20  1  0
M  CHG  2  13   1  14   1
M  END
$$$$
