
     RDKit          3D

 21 21  0  0  0  0  0  0  0  0999 V2000
  -34.8889  -18.6603   18.3145 C   0  0  0  0  0  0  0  0  0  0  0  0
  -34.7306  -18.7274   16.8548 C   0  0  2  0  0  0  0  0  0  0  0  0
  -35.1409  -17.4580   16.1370 C   0  0  0  0  0  0  0  0  0  0  0  0
  -34.9115  -17.5581   14.6697 C   0  0  0  0  0  0  0  0  0  0  0  0
  -35.9681  -17.7849   13.8037 C   0  0  0  0  0  0  0  0  0  0  0  0
  -35.7974  -17.8786   12.4408 C   0  0  0  0  0  0  0  0  0  0  0  0
  -38.1748  -16.6761   11.0602 C   0  0  0  0  0  0  0  0  0  0  0  0
  -37.3691  -15.7523   10.1995 C   0  0  2  0  0  0  0  0  0  0  0  0
  -38.0764  -14.5096    9.8585 C   0  0  0  0  0  0  0  0  0  0  0  0
  -34.5297  -17.7390   11.9368 C   0  0  0  0  0  0  0  0  0  0  0  0
  -33.4407  -17.5101   12.7798 C   0  0  0  0  0  0  0  0  0  0  0  0
  -33.6521  -17.4240   14.1307 C   0  0  0  0  0  0  0  0  0  0  0  0
  -35.6938  -19.7536   16.3593 N   0  0  0  0  0  4  0  0  0  0  0  0
  -37.2004  -16.5016    8.8944 N   0  0  0  0  0  4  0  0  0  0  0  0
  -35.6226  -19.5998   19.0155 O   0  0  0  0  0  0  0  0  0  0  0  0
  -34.3385  -17.7179   18.9393 O   0  0  0  0  0  0  0  0  0  0  0  0
  -38.4295  -13.6887   10.7134 O   0  0  0  0  0  0  0  0  0  0  0  0
  -38.3525  -14.2592    8.5213 O   0  0  0  0  0  0  0  0  0  0  0  0
  -34.2434  -17.8103   10.5814 O   0  0  0  0  0  0  0  0  0  0  0  0
  -32.1544  -17.3700   12.2674 O   0  0  0  0  0  0  0  0  0  0  0  0
  -37.2164  -18.1358   11.4200 S   0  0  0  0  0  0  0  0  0  0  0  0
  2  1  1  1
  1 15  1  0
  1 16  2  0
  3  2  1  0
 13  2  1  6
  3  4  1  6
  5  4  2  0
  4 12  1  0
  6  5  1  0
  6 10  2  0
 21  6  1  0
  7  8  1  0
  7 21  1  6
  8  9  1  6
 14  8  1  6
  9 17  2  0
  9 18  1  0
 10 11  1  0
 10 19  1  0
 11 12  2  0
 11 20  1  0
M  CHG  2  13   1  14   1
M  END
$$$$
