
     RDKit          3D

 21 21  0  0  0  0  0  0  0  0999 V2000
  -18.2577  -29.5528  -14.7884 C   0  0  0  0  0  0  0  0  0  0  0  0
  -17.7647  -30.5660  -13.8446 C   0  0  2  0  0  0  0  0  0  0  0  0
  -18.8405  -31.5060  -13.3407 C   0  0  0  0  0  0  0  0  0  0  0  0
  -18.2732  -32.5771  -12.4767 C   0  0  0  0  0  0  0  0  0  0  0  0
  -18.3708  -33.9082  -12.8462 C   0  0  0  0  0  0  0  0  0  0  0  0
  -17.8547  -34.9267  -12.0771 C   0  0  0  0  0  0  0  0  0  0  0  0
  -16.4984  -37.5470  -12.6234 C   0  0  0  0  0  0  0  0  0  0  0  0
  -16.4078  -38.2872  -11.3244 C   0  0  2  0  0  0  0  0  0  0  0  0
  -15.2264  -39.1569  -11.2313 C   0  0  0  0  0  0  0  0  0  0  0  0
  -17.2228  -34.5961  -10.9058 C   0  0  0  0  0  0  0  0  0  0  0  0
  -17.1063  -33.2650  -10.5012 C   0  0  0  0  0  0  0  0  0  0  0  0
  -17.6339  -32.2804  -11.2944 C   0  0  0  0  0  0  0  0  0  0  0  0
  -17.3141  -29.8391  -12.6218 N   0  0  0  0  0  4  0  0  0  0  0  0
  -17.6036  -39.2162  -11.3339 N   0  0  0  0  0  4  0  0  0  0  0  0
  -17.4001  -28.8081  -15.5774 O   0  0  0  0  0  0  0  0  0  0  0  0
  -19.4974  -29.3616  -14.8766 O   0  0  0  0  0  0  0  0  0  0  0  0
  -14.0747  -38.7107  -11.1696 O   0  0  0  0  0  0  0  0  0  0  0  0
  -15.4247  -40.5307  -11.2124 O   0  0  0  0  0  0  0  0  0  0  0  0
  -16.6625  -35.5395  -10.0572 O   0  0  0  0  0  0  0  0  0  0  0  0
  -16.4660  -32.9307   -9.3117 O   0  0  0  0  0  0  0  0  0  0  0  0
  -18.0022  -36.5898  -12.6552 S   0  0  0  0  0  0  0  0  0  0  0  0
  2  1  1  6
  1 15  1  0
  1 16  2  0
  3  2  1  0
 13  2  1  6
  3  4  1  6
  5  4  2  0
  4 12  1  0
  6  5  1  0
  6 10  2  0
 21  6  1  0
  7  8  1  0
  7 21  1  6
  8  9  1  6
 14  8  1  6
  9 17  2  0
  9 18  1  0
 10 11  1  0
 10 19  1  0
 11 12  2  0
 11 20  1  0
M  CHG  2  13   1  14   1
M  END
$$$$
