
     RDKit          3D

 21 21  0  0  0  0  0  0  0  0999 V2000
  -19.7303  -31.5333  -16.4729 C   0  0  0  0  0  0  0  0  0  0  0  0
  -19.3298  -32.2752  -15.2690 C   0  0  2  0  0  0  0  0  0  0  0  0
  -17.8801  -31.9954  -14.8756 C   0  0  0  0  0  0  0  0  0  0  0  0
  -17.6116  -32.6674  -13.5812 C   0  0  0  0  0  0  0  0  0  0  0  0
  -17.1028  -33.9364  -13.5167 C   0  0  0  0  0  0  0  0  0  0  0  0
  -16.8341  -34.6046  -12.3145 C   0  0  0  0  0  0  0  0  0  0  0  0
  -17.0133  -37.3904  -11.1832 C   0  0  0  0  0  0  0  0  0  0  0  0
  -17.7363  -38.5524  -11.7840 C   0  0  2  0  0  0  0  0  0  0  0  0
  -18.0578  -39.4916  -10.6818 C   0  0  0  0  0  0  0  0  0  0  0  0
  -17.1080  -33.9219  -11.1556 C   0  0  0  0  0  0  0  0  0  0  0  0
  -17.6237  -32.6343  -11.1874 C   0  0  0  0  0  0  0  0  0  0  0  0
  -17.8758  -32.0061  -12.4044 C   0  0  0  0  0  0  0  0  0  0  0  0
  -19.5233  -33.7072  -15.4153 N   0  0  0  0  0  4  0  0  0  0  0  0
  -17.0971  -39.1578  -12.9040 N   0  0  0  0  0  4  0  0  0  0  0  0
  -19.8180  -30.1582  -16.4421 O   0  0  0  0  0  0  0  0  0  0  0  0
  -19.9903  -32.1459  -17.5198 O   0  0  0  0  0  0  0  0  0  0  0  0
  -17.9268  -40.7139  -10.8708 O   0  0  0  0  0  0  0  0  0  0  0  0
  -18.4953  -39.0305   -9.4637 O   0  0  0  0  0  0  0  0  0  0  0  0
  -16.8948  -34.4665   -9.9056 O   0  0  0  0  0  0  0  0  0  0  0  0
  -17.8838  -31.9828   -9.9801 O   0  0  0  0  0  0  0  0  0  0  0  0
  -16.2466  -36.2558  -12.3000 S   0  0  0  0  0  0  0  0  0  0  0  0
  2  1  1  0
  1 15  1  0
  1 16  2  0
  3  2  1  0
  2 13  1  6
  4  3  1  0
  5  4  2  0
  4 12  1  0
  6  5  1  0
  6 10  2  0
 21  6  1  0
  7  8  1  0
  7 21  1  0
  8  9  1  0
  8 14  1  6
  9 17  2  0
  9 18  1  0
 10 11  1  0
 10 19  1  0
 11 12  2  0
 11 20  1  0
M  CHG  2  13   1  14   1
M  END
$$$$
