
     RDKit          3D

 21 21  0  0  0  0  0  0  0  0999 V2000
  -33.9683  -18.7755   17.3150 C   0  0  0  0  0  0  0  0  0  0  0  0
  -33.8920  -18.5800   15.8602 C   0  0  2  0  0  0  0  0  0  0  0  0
  -33.4130  -17.1766   15.4919 C   0  0  0  0  0  0  0  0  0  0  0  0
  -33.3783  -17.0703   14.0132 C   0  0  0  0  0  0  0  0  0  0  0  0
  -34.4163  -16.5316   13.3021 C   0  0  0  0  0  0  0  0  0  0  0  0
  -34.4211  -16.4122   11.9058 C   0  0  0  0  0  0  0  0  0  0  0  0
  -37.1055  -16.9029   10.6309 C   0  0  0  0  0  0  0  0  0  0  0  0
  -38.2085  -17.0715   11.6252 C   0  0  2  0  0  0  0  0  0  0  0  0
  -39.4393  -17.4072   10.8684 C   0  0  0  0  0  0  0  0  0  0  0  0
  -33.3092  -16.8708   11.2444 C   0  0  0  0  0  0  0  0  0  0  0  0
  -32.2403  -17.4216   11.9365 C   0  0  0  0  0  0  0  0  0  0  0  0
  -32.2760  -17.5211   13.3250 C   0  0  0  0  0  0  0  0  0  0  0  0
  -35.1589  -18.8467   15.2020 N   0  0  0  0  0  4  0  0  0  0  0  0
  -38.3633  -16.0027   12.5543 N   0  0  0  0  0  4  0  0  0  0  0  0
  -32.8258  -18.7134   18.0832 O   0  0  0  0  0  0  0  0  0  0  0  0
  -35.0638  -18.9970   17.8532 O   0  0  0  0  0  0  0  0  0  0  0  0
  -40.4587  -16.7137   11.0328 O   0  0  0  0  0  0  0  0  0  0  0  0
  -39.4662  -18.4670    9.9944 O   0  0  0  0  0  0  0  0  0  0  0  0
  -33.1883  -16.8174    9.8707 O   0  0  0  0  0  0  0  0  0  0  0  0
  -31.1320  -17.8724   11.2165 O   0  0  0  0  0  0  0  0  0  0  0  0
  -35.8111  -15.7751   11.0493 S   0  0  0  0  0  0  0  0  0  0  0  0
  2  1  1  0
  1 15  1  0
  1 16  2  0
  3  2  1  0
  2 13  1  6
  4  3  1  0
  5  4  2  0
  4 12  1  0
  6  5  1  0
  6 10  2  0
 21  6  1  0
  7  8  1  0
  7 21  1  0
  8  9  1  0
  8 14  1  6
  9 17  2  0
  9 18  1  0
 10 11  1  0
 10 19  1  0
 11 12  2  0
 11 20  1  0
M  CHG  2  13   1  14   1
M  END
$$$$
