
     RDKit          3D

 21 21  0  0  0  0  0  0  0  0999 V2000
  -18.7554  -33.5980  -16.7689 C   0  0  0  0  0  0  0  0  0  0  0  0
  -18.0380  -33.5588  -15.4866 C   0  0  2  0  0  0  0  0  0  0  0  0
  -18.9488  -33.4636  -14.2799 C   0  0  0  0  0  0  0  0  0  0  0  0
  -18.1736  -33.3621  -13.0133 C   0  0  0  0  0  0  0  0  0  0  0  0
  -18.0891  -34.4406  -12.1488 C   0  0  0  0  0  0  0  0  0  0  0  0
  -17.3781  -34.3877  -10.9710 C   0  0  0  0  0  0  0  0  0  0  0  0
  -17.8044  -37.3492  -10.7440 C   0  0  0  0  0  0  0  0  0  0  0  0
  -16.6600  -37.8942  -11.5420 C   0  0  2  0  0  0  0  0  0  0  0  0
  -16.9115  -39.2406  -12.0755 C   0  0  0  0  0  0  0  0  0  0  0  0
  -16.7343  -33.2184  -10.6564 C   0  0  0  0  0  0  0  0  0  0  0  0
  -16.7980  -32.1107  -11.5037 C   0  0  0  0  0  0  0  0  0  0  0  0
  -17.5166  -32.2034  -12.6664 C   0  0  0  0  0  0  0  0  0  0  0  0
  -17.2637  -32.2836  -15.4600 N   0  0  0  0  0  4  0  0  0  0  0  0
  -15.5387  -38.0524  -10.5365 N   0  0  0  0  0  4  0  0  0  0  0  0
  -19.8966  -34.3586  -16.9466 O   0  0  0  0  0  0  0  0  0  0  0  0
  -18.3134  -32.9176  -17.7297 O   0  0  0  0  0  0  0  0  0  0  0  0
  -16.5249  -40.2663  -11.5029 O   0  0  0  0  0  0  0  0  0  0  0  0
  -17.6115  -39.3516  -13.2691 O   0  0  0  0  0  0  0  0  0  0  0  0
  -15.9864  -33.0555   -9.4996 O   0  0  0  0  0  0  0  0  0  0  0  0
  -16.1454  -30.9242  -11.1826 O   0  0  0  0  0  0  0  0  0  0  0  0
  -17.3049  -35.8308   -9.9543 S   0  0  0  0  0  0  0  0  0  0  0  0
  2  1  1  6
  1 15  1  0
  1 16  2  0
  3  2  1  0
 13  2  1  6
  3  4  1  6
  5  4  2  0
  4 12  1  0
  6  5  1  0
  6 10  2  0
 21  6  1  0
  7  8  1  0
  7 21  1  6
  8  9  1  1
 14  8  1  6
  9 17  2  0
  9 18  1  0
 10 11  1  0
 10 19  1  0
 11 12  2  0
 11 20  1  0
M  CHG  2  13   1  14   1
M  END
$$$$
