
     RDKit          3D

 21 21  0  0  0  0  0  0  0  0999 V2000
  -41.3080  -18.3099   11.7042 C   0  0  0  0  0  0  0  0  0  0  0  0
  -39.8835  -18.2378   12.0593 C   0  0  2  0  0  0  0  0  0  0  0  0
  -39.3432  -16.8245   12.1326 C   0  0  0  0  0  0  0  0  0  0  0  0
  -37.9492  -16.7957   12.6535 C   0  0  0  0  0  0  0  0  0  0  0  0
  -36.9072  -16.3491   11.8582 C   0  0  0  0  0  0  0  0  0  0  0  0
  -35.6058  -16.3026   12.3051 C   0  0  0  0  0  0  0  0  0  0  0  0
  -33.3072  -16.9198   10.4777 C   0  0  0  0  0  0  0  0  0  0  0  0
  -31.9236  -16.8026   11.0393 C   0  0  2  0  0  0  0  0  0  0  0  0
  -31.0005  -17.8276   10.5313 C   0  0  0  0  0  0  0  0  0  0  0  0
  -35.3473  -16.7157   13.5869 C   0  0  0  0  0  0  0  0  0  0  0  0
  -36.3726  -17.1727   14.4169 C   0  0  0  0  0  0  0  0  0  0  0  0
  -37.6544  -17.2042   13.9345 C   0  0  0  0  0  0  0  0  0  0  0  0
  -39.1231  -18.8608   10.9368 N   0  0  0  0  0  4  0  0  0  0  0  0
  -32.0888  -17.0926   12.5164 N   0  0  0  0  0  4  0  0  0  0  0  0
  -42.2958  -18.4453   12.6626 O   0  0  0  0  0  0  0  0  0  0  0  0
  -41.6323  -18.2462   10.4909 O   0  0  0  0  0  0  0  0  0  0  0  0
  -30.0421  -18.2460   11.1914 O   0  0  0  0  0  0  0  0  0  0  0  0
  -31.2243  -18.3379    9.2599 O   0  0  0  0  0  0  0  0  0  0  0  0
  -34.0759  -16.7068   14.1416 O   0  0  0  0  0  0  0  0  0  0  0  0
  -36.1088  -17.5929   15.7171 O   0  0  0  0  0  0  0  0  0  0  0  0
  -34.3545  -15.6837   11.2221 S   0  0  0  0  0  0  0  0  0  0  0  0
  2  1  1  6
  1 15  1  0
  1 16  2  0
  3  2  1  0
 13  2  1  6
  3  4  1  6
  5  4  2  0
  4 12  1  0
  6  5  1  0
  6 10  2  0
 21  6  1  0
  7  8  1  0
  7 21  1  6
  8  9  1  6
 14  8  1  6
  9 17  2  0
  9 18  1  0
 10 11  1  0
 10 19  1  0
 11 12  2  0
 11 20  1  0
M  CHG  2  13   1  14   1
M  END
$$$$
