
     RDKit          3D

 21 21  0  0  0  0  0  0  0  0999 V2000
  -37.8968  -14.8407    8.8349 C   0  0  0  0  0  0  0  0  0  0  0  0
  -36.9445  -15.3247    9.8445 C   0  0  2  0  0  0  0  0  0  0  0  0
  -36.0528  -16.4470    9.3544 C   0  0  0  0  0  0  0  0  0  0  0  0
  -35.0772  -16.8684   10.3966 C   0  0  0  0  0  0  0  0  0  0  0  0
  -35.3479  -16.6673   11.7397 C   0  0  0  0  0  0  0  0  0  0  0  0
  -34.4739  -17.0474   12.7332 C   0  0  0  0  0  0  0  0  0  0  0  0
  -35.7899  -18.1258   15.2048 C   0  0  0  0  0  0  0  0  0  0  0  0
  -34.7960  -19.0340   15.8611 C   0  0  2  0  0  0  0  0  0  0  0  0
  -35.3934  -20.2728   16.3798 C   0  0  0  0  0  0  0  0  0  0  0  0
  -33.2969  -17.6468   12.3643 C   0  0  0  0  0  0  0  0  0  0  0  0
  -32.9902  -17.8650   11.0199 C   0  0  0  0  0  0  0  0  0  0  0  0
  -33.8863  -17.4715   10.0612 C   0  0  0  0  0  0  0  0  0  0  0  0
  -37.7475  -15.9480   10.9368 N   0  0  0  0  0  4  0  0  0  0  0  0
  -34.3242  -18.2637   17.0765 N   0  0  0  0  0  4  0  0  0  0  0  0
  -39.1861  -14.4649    9.1651 O   0  0  0  0  0  0  0  0  0  0  0  0
  -37.5225  -14.7684    7.6366 O   0  0  0  0  0  0  0  0  0  0  0  0
  -34.8947  -20.9119   17.3138 O   0  0  0  0  0  0  0  0  0  0  0  0
  -36.5630  -20.7326   15.7901 O   0  0  0  0  0  0  0  0  0  0  0  0
  -32.3469  -18.0738   13.2804 O   0  0  0  0  0  0  0  0  0  0  0  0
  -31.7949  -18.4721   10.6467 O   0  0  0  0  0  0  0  0  0  0  0  0
  -34.9295  -16.7766   14.4186 S   0  0  0  0  0  0  0  0  0  0  0  0
  2  1  1  6
  1 15  1  0
  1 16  2  0
  3  2  1  0
 13  2  1  6
  3  4  1  6
  5  4  2  0
  4 12  1  0
  6  5  1  0
  6 10  2  0
 21  6  1  0
  7  8  1  0
  7 21  1  6
  8  9  1  1
 14  8  1  6
  9 17  2  0
  9 18  1  0
 10 11  1  0
 10 19  1  0
 11 12  2  0
 11 20  1  0
M  CHG  2  13   1  14   1
M  END
$$$$
