
     RDKit          3D

 21 21  0  0  0  0  0  0  0  0999 V2000
  -37.8697  -17.8236   10.2283 C   0  0  0  0  0  0  0  0  0  0  0  0
  -36.4951  -18.0470   10.6983 C   0  0  2  0  0  0  0  0  0  0  0  0
  -35.7193  -16.7397   10.8520 C   0  0  0  0  0  0  0  0  0  0  0  0
  -34.4040  -17.0486   11.4632 C   0  0  0  0  0  0  0  0  0  0  0  0
  -34.2753  -17.3394   12.7945 C   0  0  0  0  0  0  0  0  0  0  0  0
  -33.0517  -17.6378   13.4090 C   0  0  0  0  0  0  0  0  0  0  0  0
  -34.2234  -18.8983   15.8810 C   0  0  0  0  0  0  0  0  0  0  0  0
  -34.9348  -18.2951   17.0489 C   0  0  2  0  0  0  0  0  0  0  0  0
  -35.6821  -19.3848   17.7229 C   0  0  0  0  0  0  0  0  0  0  0  0
  -31.9398  -17.6287   12.6042 C   0  0  0  0  0  0  0  0  0  0  0  0
  -32.0371  -17.3384   11.2511 C   0  0  0  0  0  0  0  0  0  0  0  0
  -33.2734  -17.0477   10.6799 C   0  0  0  0  0  0  0  0  0  0  0  0
  -35.7567  -18.9483    9.8312 N   0  0  0  0  0  4  0  0  0  0  0  0
  -35.7155  -17.1392   16.7591 N   0  0  0  0  0  4  0  0  0  0  0  0
  -38.2434  -18.2256    8.9641 O   0  0  0  0  0  0  0  0  0  0  0  0
  -38.6960  -17.2718   10.9709 O   0  0  0  0  0  0  0  0  0  0  0  0
  -35.0855  -20.4359   18.0167 O   0  0  0  0  0  0  0  0  0  0  0  0
  -37.0156  -19.2477   18.0244 O   0  0  0  0  0  0  0  0  0  0  0  0
  -30.6744  -17.8997   13.0840 O   0  0  0  0  0  0  0  0  0  0  0  0
  -30.8757  -17.3436   10.4757 O   0  0  0  0  0  0  0  0  0  0  0  0
  -32.9449  -17.9348   15.1330 S   0  0  0  0  0  0  0  0  0  0  0  0
  2  1  1  0
  1 15  1  0
  1 16  2  0
  3  2  1  0
  2 13  1  6
  4  3  1  0
  5  4  2  0
  4 12  1  0
  6  5  1  0
  6 10  2  0
 21  6  1  0
  7  8  1  0
  7 21  1  0
  8  9  1  0
  8 14  1  6
  9 17  2  0
  9 18  1  0
 10 11  1  0
 10 19  1  0
 11 12  2  0
 11 20  1  0
M  CHG  2  13   1  14   1
M  END
$$$$
