
     RDKit          3D

 21 21  0  0  0  0  0  0  0  0999 V2000
  -16.8430  -38.4036  -13.5156 C   0  0  0  0  0  0  0  0  0  0  0  0
  -16.7287  -36.9473  -13.6776 C   0  0  2  0  0  0  0  0  0  0  0  0
  -17.9961  -36.2172  -13.2359 C   0  0  0  0  0  0  0  0  0  0  0  0
  -17.7326  -34.7587  -13.2819 C   0  0  0  0  0  0  0  0  0  0  0  0
  -17.3257  -34.0618  -12.1764 C   0  0  0  0  0  0  0  0  0  0  0  0
  -17.0652  -32.6848  -12.1795 C   0  0  0  0  0  0  0  0  0  0  0  0
  -17.5163  -30.3789  -10.2948 C   0  0  0  0  0  0  0  0  0  0  0  0
  -18.8246  -30.5655   -9.5966 C   0  0  2  0  0  0  0  0  0  0  0  0
  -19.1617  -29.2803   -8.9372 C   0  0  0  0  0  0  0  0  0  0  0  0
  -17.2380  -32.0277  -13.3721 C   0  0  0  0  0  0  0  0  0  0  0  0
  -17.6491  -32.7057  -14.5106 C   0  0  0  0  0  0  0  0  0  0  0  0
  -17.8968  -34.0752  -14.4643 C   0  0  0  0  0  0  0  0  0  0  0  0
  -16.4036  -36.5692  -15.0418 N   0  0  0  0  0  4  0  0  0  0  0  0
  -18.9053  -31.7029   -8.7425 N   0  0  0  0  0  4  0  0  0  0  0  0
  -16.8034  -39.2286  -14.6189 O   0  0  0  0  0  0  0  0  0  0  0  0
  -16.9756  -38.8921  -12.3830 O   0  0  0  0  0  0  0  0  0  0  0  0
  -19.3220  -29.2567   -7.7040 O   0  0  0  0  0  0  0  0  0  0  0  0
  -19.2978  -28.1243   -9.6672 O   0  0  0  0  0  0  0  0  0  0  0  0
  -17.0210  -30.6718  -13.5105 O   0  0  0  0  0  0  0  0  0  0  0  0
  -17.8088  -31.9909  -15.6995 O   0  0  0  0  0  0  0  0  0  0  0  0
  -16.6125  -31.8386  -10.7129 S   0  0  0  0  0  0  0  0  0  0  0  0
  2  1  1  0
  1 15  1  0
  1 16  2  0
  3  2  1  0
  2 13  1  6
  4  3  1  0
  5  4  2  0
  4 12  1  0
  6  5  1  0
  6 10  2  0
 21  6  1  0
  7  8  1  0
  7 21  1  0
  8  9  1  0
  8 14  1  1
  9 17  2  0
  9 18  1  0
 10 11  1  0
 10 19  1  0
 11 12  2  0
 11 20  1  0
M  CHG  2  13   1  14   1
M  END
$$$$
