
     RDKit          3D

 21 21  0  0  0  0  0  0  0  0999 V2000
  -34.9149  -15.9282   10.7325 C   0  0  0  0  0  0  0  0  0  0  0  0
  -35.3095  -16.1614   12.1290 C   0  0  2  0  0  0  0  0  0  0  0  0
  -35.3719  -17.6263   12.5096 C   0  0  0  0  0  0  0  0  0  0  0  0
  -35.6884  -17.8058   13.9529 C   0  0  0  0  0  0  0  0  0  0  0  0
  -36.9018  -18.3437   14.3481 C   0  0  0  0  0  0  0  0  0  0  0  0
  -37.2296  -18.5302   15.6722 C   0  0  0  0  0  0  0  0  0  0  0  0
  -39.4449  -18.8331   17.6732 C   0  0  0  0  0  0  0  0  0  0  0  0
  -39.9477  -20.0724   18.3475 C   0  0  2  0  0  0  0  0  0  0  0  0
  -40.2150  -19.8874   19.7811 C   0  0  0  0  0  0  0  0  0  0  0  0
  -36.3108  -18.1666   16.6231 C   0  0  0  0  0  0  0  0  0  0  0  0
  -35.0777  -17.6207   16.2616 C   0  0  0  0  0  0  0  0  0  0  0  0
  -34.7898  -17.4505   14.9331 C   0  0  0  0  0  0  0  0  0  0  0  0
  -36.7180  -15.6887   12.2680 N   0  0  0  0  0  4  0  0  0  0  0  0
  -38.7891  -21.0441   18.2666 N   0  0  0  0  0  4  0  0  0  0  0  0
  -33.6921  -16.3437   10.2379 O   0  0  0  0  0  0  0  0  0  0  0  0
  -35.7173  -15.3325    9.9692 O   0  0  0  0  0  0  0  0  0  0  0  0
  -41.3236  -20.1037   20.2847 O   0  0  0  0  0  0  0  0  0  0  0  0
  -39.1742  -19.4530   20.5904 O   0  0  0  0  0  0  0  0  0  0  0  0
  -36.5333  -18.3144   17.9842 O   0  0  0  0  0  0  0  0  0  0  0  0
  -34.1467  -17.2508   17.2275 O   0  0  0  0  0  0  0  0  0  0  0  0
  -38.7906  -19.2561   16.0696 S   0  0  0  0  0  0  0  0  0  0  0  0
  2  1  1  6
  1 15  1  0
  1 16  2  0
  3  2  1  0
 13  2  1  6
  3  4  1  6
  5  4  2  0
  4 12  1  0
  6  5  1  0
  6 10  2  0
 21  6  1  0
  7  8  1  0
  7 21  1  6
  8  9  1  1
 14  8  1  6
  9 17  2  0
  9 18  1  0
 10 11  1  0
 10 19  1  0
 11 12  2  0
 11 20  1  0
M  CHG  2  13   1  14   1
M  END
$$$$
