
     RDKit          3D

 21 21  0  0  0  0  0  0  0  0999 V2000
  -17.9790  -37.2956  -15.3528 C   0  0  0  0  0  0  0  0  0  0  0  0
  -17.6495  -35.8782  -15.1466 C   0  0  2  0  0  0  0  0  0  0  0  0
  -18.8395  -35.0818  -14.6135 C   0  0  0  0  0  0  0  0  0  0  0  0
  -18.3885  -33.6946  -14.3462 C   0  0  0  0  0  0  0  0  0  0  0  0
  -17.7032  -33.3633  -13.2087 C   0  0  0  0  0  0  0  0  0  0  0  0
  -17.2590  -32.0657  -12.9204 C   0  0  0  0  0  0  0  0  0  0  0  0
  -17.3995  -30.9426  -10.1292 C   0  0  0  0  0  0  0  0  0  0  0  0
  -18.2895  -31.8389   -9.3301 C   0  0  2  0  0  0  0  0  0  0  0  0
  -18.6201  -31.1267   -8.0716 C   0  0  0  0  0  0  0  0  0  0  0  0
  -17.5436  -31.0965  -13.8497 C   0  0  0  0  0  0  0  0  0  0  0  0
  -18.2360  -31.4004  -15.0129 C   0  0  0  0  0  0  0  0  0  0  0  0
  -18.6593  -32.7037  -15.2609 C   0  0  0  0  0  0  0  0  0  0  0  0
  -17.1488  -35.2481  -16.3557 N   0  0  0  0  0  4  0  0  0  0  0  0
  -17.8117  -33.1682   -9.1448 N   0  0  0  0  0  4  0  0  0  0  0  0
  -17.9285  -37.8417  -16.6172 O   0  0  0  0  0  0  0  0  0  0  0  0
  -18.3036  -38.0027  -14.3866 O   0  0  0  0  0  0  0  0  0  0  0  0
  -18.4157  -31.6940   -6.9837 O   0  0  0  0  0  0  0  0  0  0  0  0
  -19.1455  -29.8574   -8.0934 O   0  0  0  0  0  0  0  0  0  0  0  0
  -17.1682  -29.7785  -13.6860 O   0  0  0  0  0  0  0  0  0  0  0  0
  -18.4992  -30.3780  -15.9269 O   0  0  0  0  0  0  0  0  0  0  0  0
  -16.4457  -31.6936  -11.4132 S   0  0  0  0  0  0  0  0  0  0  0  0
  2  1  1  0
  1 15  1  0
  1 16  2  0
  3  2  1  0
  2 13  1  6
  4  3  1  0
  5  4  2  0
  4 12  1  0
  6  5  1  0
  6 10  2  0
 21  6  1  0
  7  8  1  0
  7 21  1  0
  8  9  1  0
  8 14  1  1
  9 17  2  0
  9 18  1  0
 10 11  1  0
 10 19  1  0
 11 12  2  0
 11 20  1  0
M  CHG  2  13   1  14   1
M  END
$$$$
