
     RDKit          3D

 22 24  0  0  0  0  0  0  0  0999 V2000
   -1.8529    7.7961  -19.5212 N   0  0  0  0  0  0  0  0  0  0  0  0
   -2.3017    6.9227  -18.6002 C   0  0  0  0  0  0  0  0  0  0  0  0
   -0.5936    8.5389  -19.5320 C   0  0  0  0  0  0  0  0  0  0  0  0
   -2.6943    8.7396  -21.6782 C   0  0  0  0  0  0  0  0  0  0  0  0
   -5.0553    6.8851  -20.9566 C   0  0  0  0  0  0  0  0  0  0  0  0
   -2.4809    8.9029  -24.0911 C   0  0  0  0  0  0  0  0  0  0  0  0
   -2.7290   10.1193  -21.6260 C   0  0  0  0  0  0  0  0  0  0  0  0
   -6.2727    5.6139  -22.5574 C   0  0  0  0  0  0  0  0  0  0  0  0
   -7.2919    7.5260  -21.6145 C   0  0  0  0  0  0  0  0  0  0  0  0
   -6.0492    8.8755  -19.9400 C   0  0  0  0  0  0  0  0  0  0  0  0
   -8.6116    6.2528  -23.2728 C   0  0  0  0  0  0  0  0  0  0  0  0
   -2.6391   10.8553  -22.8042 C   0  0  0  0  0  0  0  0  0  0  0  0
   -5.1304    5.8153  -21.8158 C   0  0  0  0  0  0  0  0  0  0  0  0
   -7.3690    6.4397  -22.4874 C   0  0  0  0  0  0  0  0  0  0  0  0
   -6.1478    7.7266  -20.8726 C   0  0  0  0  0  0  0  0  0  0  0  0
   -3.9716    4.9045  -21.9240 C   0  0  0  0  0  0  0  0  0  0  0  0
   -2.7918    7.8981  -20.4987 C   0  0  0  0  0  0  0  0  0  0  0  0
   -3.8426    7.0781  -20.1860 C   0  0  0  0  0  0  0  0  0  0  0  0
   -2.5684    8.1627  -22.9376 C   0  0  0  0  0  0  0  0  0  0  0  0
   -2.5178   10.2634  -24.0105 N   0  0  0  0  0  0  0  0  0  0  0  0
   -8.2320    6.1192  -24.6887 N   0  0  0  0  0  4  0  0  0  0  0  0
   -3.5088    6.4937  -19.0135 N   0  0  0  0  0  0  0  0  0  0  0  0
  1  2  1  0
  3  1  1  6
 17  1  1  0
  2 22  2  0
  4  7  2  0
 17  4  1  0
  4 19  1  0
  5 13  1  0
  5 15  2  0
 18  5  1  0
 19  6  2  0
  6 20  1  0
  7 12  1  0
 13  8  2  0
  8 14  1  0
  9 14  2  0
 15  9  1  0
 10 15  1  6
 11 14  1  1
 21 11  1  6
 12 20  2  0
 16 13  1  6
 17 18  2  0
 18 22  1  0
M  CHG  1  21   1
M  END
$$$$
