
     RDKit          3D

 22 24  0  0  0  0  0  0  0  0999 V2000
   -3.2635   10.3072  -21.4934 N   0  0  0  0  0  0  0  0  0  0  0  0
   -4.3627   10.8894  -22.0344 C   0  0  0  0  0  0  0  0  0  0  0  0
   -2.0059   10.9631  -21.1956 C   0  0  0  0  0  0  0  0  0  0  0  0
   -2.6468    8.0228  -20.7176 C   0  0  0  0  0  0  0  0  0  0  0  0
   -5.4874    7.4560  -21.6041 C   0  0  0  0  0  0  0  0  0  0  0  0
   -0.7078    6.6392  -20.7903 C   0  0  0  0  0  0  0  0  0  0  0  0
   -2.8589    7.4540  -19.4606 C   0  0  0  0  0  0  0  0  0  0  0  0
   -6.0598    5.3295  -22.5574 C   0  0  0  0  0  0  0  0  0  0  0  0
   -6.8265    5.8294  -20.3931 C   0  0  0  0  0  0  0  0  0  0  0  0
   -6.2634    8.0198  -19.3535 C   0  0  0  0  0  0  0  0  0  0  0  0
   -7.4254    3.6027  -21.3903 C   0  0  0  0  0  0  0  0  0  0  0  0
   -2.0321    6.5239  -18.9013 C   0  0  0  0  0  0  0  0  0  0  0  0
   -5.4296    6.5596  -22.6496 C   0  0  0  0  0  0  0  0  0  0  0  0
   -6.7661    4.9356  -21.4419 C   0  0  0  0  0  0  0  0  0  0  0  0
   -6.2003    7.0550  -20.4813 C   0  0  0  0  0  0  0  0  0  0  0  0
   -4.6691    6.9584  -23.8607 C   0  0  0  0  0  0  0  0  0  0  0  0
   -3.5488    9.0115  -21.2819 C   0  0  0  0  0  0  0  0  0  0  0  0
   -4.8358    8.7541  -21.6868 C   0  0  0  0  0  0  0  0  0  0  0  0
   -1.5197    7.5774  -21.3824 C   0  0  0  0  0  0  0  0  0  0  0  0
   -0.9598    6.1211  -19.5701 N   0  0  0  0  0  0  0  0  0  0  0  0
   -7.3445    3.0989  -20.0258 N   0  0  0  0  0  4  0  0  0  0  0  0
   -5.3223    9.9232  -22.1479 N   0  0  0  0  0  0  0  0  0  0  0  0
  1  2  1  0
  1  3  1  0
 17  1  1  0
  2 22  2  0
  4  7  2  0
 17  4  1  0
  4 19  1  0
  5 13  1  0
  5 15  2  0
 18  5  1  0
 19  6  2  0
  6 20  1  0
  7 12  1  0
 13  8  2  0
  8 14  1  0
  9 14  2  0
 15  9  1  0
 15 10  1  0
 14 11  1  0
 11 21  1  0
 12 20  2  0
 13 16  1  0
 17 18  2  0
 18 22  1  0
M  CHG  1  21   1
M  END
$$$$
