
     RDKit          3D

 22 24  0  0  0  0  0  0  0  0999 V2000
   -2.7394    9.1445  -20.8801 N   0  0  0  0  0  0  0  0  0  0  0  0
   -2.1467    8.4359  -19.9008 C   0  0  0  0  0  0  0  0  0  0  0  0
   -2.3956   10.4772  -21.3739 C   0  0  0  0  0  0  0  0  0  0  0  0
   -4.6594    8.8081  -22.4459 C   0  0  0  0  0  0  0  0  0  0  0  0
   -4.7594    6.1337  -20.9057 C   0  0  0  0  0  0  0  0  0  0  0  0
   -4.9337    9.5758  -24.7328 C   0  0  0  0  0  0  0  0  0  0  0  0
   -6.0341    8.8278  -22.3145 C   0  0  0  0  0  0  0  0  0  0  0  0
   -5.3846    4.1775  -22.1068 C   0  0  0  0  0  0  0  0  0  0  0  0
   -6.7966    4.9448  -20.3743 C   0  0  0  0  0  0  0  0  0  0  0  0
   -6.1736    6.9837  -19.1000 C   0  0  0  0  0  0  0  0  0  0  0  0
   -7.5072    2.9084  -21.5829 C   0  0  0  0  0  0  0  0  0  0  0  0
   -6.8231    9.2197  -23.3924 C   0  0  0  0  0  0  0  0  0  0  0  0
   -4.5019    5.2120  -21.8917 C   0  0  0  0  0  0  0  0  0  0  0  0
   -6.5359    4.0081  -21.3757 C   0  0  0  0  0  0  0  0  0  0  0  0
   -5.9123    5.9800  -20.1600 C   0  0  0  0  0  0  0  0  0  0  0  0
   -3.2761    5.3596  -22.7039 C   0  0  0  0  0  0  0  0  0  0  0  0
   -3.7656    8.4034  -21.3752 C   0  0  0  0  0  0  0  0  0  0  0  0
   -3.8166    7.2151  -20.6971 C   0  0  0  0  0  0  0  0  0  0  0  0
   -4.1416    9.1916  -23.6786 C   0  0  0  0  0  0  0  0  0  0  0  0
   -6.2879    9.5859  -24.5756 N   0  0  0  0  0  0  0  0  0  0  0  0
   -7.2600    1.8903  -20.5489 N   0  0  0  0  0  4  0  0  0  0  0  0
   -2.8079    7.2680  -19.7986 N   0  0  0  0  0  0  0  0  0  0  0  0
  1  2  1  0
  3  1  1  6
 17  1  1  0
  2 22  2  0
  4  7  2  0
 17  4  1  0
  4 19  1  0
  5 13  1  0
  5 15  2  0
 18  5  1  0
 19  6  2  0
  6 20  1  0
  7 12  1  0
 13  8  2  0
  8 14  1  0
  9 14  2  0
 15  9  1  0
 10 15  1  6
 11 14  1  1
 21 11  1  6
 12 20  2  0
 16 13  1  6
 17 18  2  0
 18 22  1  0
M  CHG  1  21   1
M  END
$$$$
