
     RDKit          3D

 22 24  0  0  0  0  0  0  0  0999 V2000
   -2.2092    7.3300  -18.9234 N   0  0  0  0  0  0  0  0  0  0  0  0
   -2.7750    6.2253  -18.3761 C   0  0  0  0  0  0  0  0  0  0  0  0
   -1.0165    8.0046  -18.4512 C   0  0  0  0  0  0  0  0  0  0  0  0
   -2.7016    8.8230  -20.8545 C   0  0  0  0  0  0  0  0  0  0  0  0
   -5.0127    6.8898  -21.1670 C   0  0  0  0  0  0  0  0  0  0  0  0
   -3.3202   10.8838  -21.8790 C   0  0  0  0  0  0  0  0  0  0  0  0
   -1.5088    8.9656  -21.5654 C   0  0  0  0  0  0  0  0  0  0  0  0
   -5.7586    6.4456  -23.4042 C   0  0  0  0  0  0  0  0  0  0  0  0
   -7.2081    7.5826  -21.9454 C   0  0  0  0  0  0  0  0  0  0  0  0
   -6.4881    8.0705  -19.6132 C   0  0  0  0  0  0  0  0  0  0  0  0
   -7.9898    7.1173  -24.2871 C   0  0  0  0  0  0  0  0  0  0  0  0
   -1.2408   10.0182  -22.3910 C   0  0  0  0  0  0  0  0  0  0  0  0
   -4.7881    6.3599  -22.4195 C   0  0  0  0  0  0  0  0  0  0  0  0
   -6.9788    7.0511  -23.1974 C   0  0  0  0  0  0  0  0  0  0  0  0
   -6.2442    7.4992  -20.9626 C   0  0  0  0  0  0  0  0  0  0  0  0
   -3.4828    5.6966  -22.6653 C   0  0  0  0  0  0  0  0  0  0  0  0
   -2.9526    7.6880  -19.9836 C   0  0  0  0  0  0  0  0  0  0  0  0
   -4.0021    6.8131  -20.1233 C   0  0  0  0  0  0  0  0  0  0  0  0
   -3.6219    9.8375  -21.0399 C   0  0  0  0  0  0  0  0  0  0  0  0
   -2.1492   10.9727  -22.5434 N   0  0  0  0  0  0  0  0  0  0  0  0
   -8.5398    5.7837  -24.4898 N   0  0  0  0  0  4  0  0  0  0  0  0
   -3.8768    5.9180  -19.1237 N   0  0  0  0  0  0  0  0  0  0  0  0
  1  2  1  0
  1  3  1  0
 17  1  1  0
  2 22  2  0
  4  7  2  0
 17  4  1  0
  4 19  1  0
  5 13  1  0
  5 15  2  0
 18  5  1  0
 19  6  2  0
  6 20  1  0
  7 12  1  0
 13  8  2  0
  8 14  1  0
  9 14  2  0
 15  9  1  0
 15 10  1  0
 14 11  1  0
 11 21  1  0
 12 20  2  0
 13 16  1  0
 17 18  2  0
 18 22  1  0
M  CHG  1  21   1
M  END
$$$$
