
     RDKit          3D

 22 24  0  0  0  0  0  0  0  0999 V2000
   -2.6320    7.1904  -19.0152 N   0  0  0  0  0  0  0  0  0  0  0  0
   -1.9797    8.3612  -19.1422 C   0  0  0  0  0  0  0  0  0  0  0  0
   -2.4773    6.1713  -17.9783 C   0  0  0  0  0  0  0  0  0  0  0  0
   -4.4036    5.9621  -20.2815 C   0  0  0  0  0  0  0  0  0  0  0  0
   -4.1516    8.4870  -22.0410 C   0  0  0  0  0  0  0  0  0  0  0  0
   -6.4751    4.8224  -19.7298 C   0  0  0  0  0  0  0  0  0  0  0  0
   -4.1553    4.9772  -21.2173 C   0  0  0  0  0  0  0  0  0  0  0  0
   -6.1358    9.3180  -23.0573 C   0  0  0  0  0  0  0  0  0  0  0  0
   -4.3980    8.5210  -24.4461 C   0  0  0  0  0  0  0  0  0  0  0  0
   -2.3128    7.6469  -23.4179 C   0  0  0  0  0  0  0  0  0  0  0  0
   -6.4322    9.3679  -25.5673 C   0  0  0  0  0  0  0  0  0  0  0  0
   -5.0703    3.9417  -21.3863 C   0  0  0  0  0  0  0  0  0  0  0  0
   -5.4061    9.0355  -21.9245 C   0  0  0  0  0  0  0  0  0  0  0  0
   -5.6723    9.0781  -24.3286 C   0  0  0  0  0  0  0  0  0  0  0  0
   -3.6685    8.2385  -23.3113 C   0  0  0  0  0  0  0  0  0  0  0  0
   -5.9439    9.3060  -20.5748 C   0  0  0  0  0  0  0  0  0  0  0  0
   -3.5069    7.0806  -20.0496 C   0  0  0  0  0  0  0  0  0  0  0  0
   -3.4013    8.1971  -20.8349 C   0  0  0  0  0  0  0  0  0  0  0  0
   -5.5822    5.8505  -19.5512 C   0  0  0  0  0  0  0  0  0  0  0  0
   -6.2050    3.8635  -20.6606 N   0  0  0  0  0  0  0  0  0  0  0  0
   -6.8433    8.0816  -26.1532 N   0  0  0  0  0  4  0  0  0  0  0  0
   -2.4542    8.9632  -20.2487 N   0  0  0  0  0  0  0  0  0  0  0  0
  1  2  1  0
  3  1  1  6
 17  1  1  0
  2 22  2  0
  4  7  2  0
 17  4  1  0
  4 19  1  0
  5 13  1  0
  5 15  2  0
 18  5  1  0
 19  6  2  0
  6 20  1  0
  7 12  1  0
 13  8  2  0
  8 14  1  0
  9 14  2  0
 15  9  1  0
 10 15  1  6
 11 14  1  1
 21 11  1  6
 12 20  2  0
 16 13  1  6
 17 18  2  0
 18 22  1  0
M  CHG  1  21   1
M  END
$$$$
