
     RDKit          3D

 22 24  0  0  0  0  0  0  0  0999 V2000
   -2.1885    6.8665  -20.3358 N   0  0  0  0  0  0  0  0  0  0  0  0
   -2.0114    8.1997  -20.3958 C   0  0  0  0  0  0  0  0  0  0  0  0
   -1.3473    5.8661  -19.6805 C   0  0  0  0  0  0  0  0  0  0  0  0
   -3.8746    5.2274  -21.1851 C   0  0  0  0  0  0  0  0  0  0  0  0
   -5.0856    7.8471  -22.2828 C   0  0  0  0  0  0  0  0  0  0  0  0
   -3.7170    3.0480  -22.2433 C   0  0  0  0  0  0  0  0  0  0  0  0
   -5.0020    4.7822  -20.5231 C   0  0  0  0  0  0  0  0  0  0  0  0
   -7.4370    8.2025  -22.3513 C   0  0  0  0  0  0  0  0  0  0  0  0
   -6.2797    7.8736  -24.3851 C   0  0  0  0  0  0  0  0  0  0  0  0
   -3.8244    7.5003  -24.3498 C   0  0  0  0  0  0  0  0  0  0  0  0
   -8.7213    8.2348  -24.5285 C   0  0  0  0  0  0  0  0  0  0  0  0
   -5.4583    3.4845  -20.7365 C   0  0  0  0  0  0  0  0  0  0  0  0
   -6.2718    8.0777  -21.6288 C   0  0  0  0  0  0  0  0  0  0  0  0
   -7.4850    8.1078  -23.7216 C   0  0  0  0  0  0  0  0  0  0  0  0
   -5.1138    7.7488  -23.6607 C   0  0  0  0  0  0  0  0  0  0  0  0
   -6.2650    8.1826  -20.1546 C   0  0  0  0  0  0  0  0  0  0  0  0
   -3.3275    6.5614  -21.0119 C   0  0  0  0  0  0  0  0  0  0  0  0
   -3.8710    7.7185  -21.5019 C   0  0  0  0  0  0  0  0  0  0  0  0
   -3.2543    4.3256  -22.0435 C   0  0  0  0  0  0  0  0  0  0  0  0
   -4.8321    2.6346  -21.5768 N   0  0  0  0  0  0  0  0  0  0  0  0
   -8.3885    8.9970  -25.7429 N   0  0  0  0  0  4  0  0  0  0  0  0
   -3.0373    8.7060  -21.1051 N   0  0  0  0  0  0  0  0  0  0  0  0
  1  2  1  0
  3  1  1  6
 17  1  1  0
  2 22  2  0
  4  7  2  0
 17  4  1  0
  4 19  1  0
  5 13  1  0
  5 15  2  0
 18  5  1  0
 19  6  2  0
  6 20  1  0
  7 12  1  0
 13  8  2  0
  8 14  1  0
  9 14  2  0
 15  9  1  0
 10 15  1  6
 11 14  1  1
 21 11  1  6
 12 20  2  0
 16 13  1  6
 17 18  2  0
 18 22  1  0
M  CHG  1  21   1
M  END
$$$$
