
     RDKit          3D

 22 24  0  0  0  0  0  0  0  0999 V2000
   -3.1684    7.5860  -18.6626 N   0  0  0  0  0  0  0  0  0  0  0  0
   -4.1746    7.1625  -17.8748 C   0  0  0  0  0  0  0  0  0  0  0  0
   -1.8252    8.0116  -18.2719 C   0  0  0  0  0  0  0  0  0  0  0  0
   -2.8199    7.9465  -21.1120 C   0  0  0  0  0  0  0  0  0  0  0  0
   -5.7403    6.9439  -21.1362 C   0  0  0  0  0  0  0  0  0  0  0  0
   -1.0787    7.3894  -22.7096 C   0  0  0  0  0  0  0  0  0  0  0  0
   -2.9954    9.1435  -21.7782 C   0  0  0  0  0  0  0  0  0  0  0  0
   -7.2988    7.8628  -22.6811 C   0  0  0  0  0  0  0  0  0  0  0  0
   -6.6376    5.6092  -22.9416 C   0  0  0  0  0  0  0  0  0  0  0  0
   -5.0117    4.6184  -21.3466 C   0  0  0  0  0  0  0  0  0  0  0  0
   -8.2612    6.4994  -24.5798 C   0  0  0  0  0  0  0  0  0  0  0  0
   -2.2107    9.4336  -22.8908 C   0  0  0  0  0  0  0  0  0  0  0  0
   -6.4912    8.0075  -21.5756 C   0  0  0  0  0  0  0  0  0  0  0  0
   -7.4007    6.6890  -23.3885 C   0  0  0  0  0  0  0  0  0  0  0  0
   -5.8295    5.7552  -21.8346 C   0  0  0  0  0  0  0  0  0  0  0  0
   -6.4137    9.2875  -20.8409 C   0  0  0  0  0  0  0  0  0  0  0  0
   -3.6024    7.5625  -19.9504 C   0  0  0  0  0  0  0  0  0  0  0  0
   -4.8974    7.1186  -19.9697 C   0  0  0  0  0  0  0  0  0  0  0  0
   -1.8450    7.0885  -21.6103 C   0  0  0  0  0  0  0  0  0  0  0  0
   -1.2731    8.5781  -23.3483 N   0  0  0  0  0  0  0  0  0  0  0  0
   -9.0266    5.2568  -24.3878 N   0  0  0  0  0  4  0  0  0  0  0  0
   -5.2177    6.8818  -18.6779 N   0  0  0  0  0  0  0  0  0  0  0  0
  1  2  1  0
  3  1  1  6
 17  1  1  0
  2 22  2  0
  4  7  2  0
 17  4  1  0
  4 19  1  0
  5 13  1  0
  5 15  2  0
 18  5  1  0
 19  6  2  0
  6 20  1  0
  7 12  1  0
 13  8  2  0
  8 14  1  0
  9 14  2  0
 15  9  1  0
 10 15  1  6
 11 14  1  1
 21 11  1  6
 12 20  2  0
 16 13  1  6
 17 18  2  0
 18 22  1  0
M  CHG  1  21   1
M  END
$$$$
