
     RDKit          3D

 22 24  0  0  0  0  0  0  0  0999 V2000
   -0.9307    9.2377  -22.3183 N   0  0  0  0  0  0  0  0  0  0  0  0
   -1.1729   10.3845  -21.6356 C   0  0  0  0  0  0  0  0  0  0  0  0
    0.1539    9.0099  -23.2523 C   0  0  0  0  0  0  0  0  0  0  0  0
   -1.9923    6.9909  -22.4765 C   0  0  0  0  0  0  0  0  0  0  0  0
   -3.8787    8.2503  -20.4685 C   0  0  0  0  0  0  0  0  0  0  0  0
   -1.2830    4.7208  -22.6266 C   0  0  0  0  0  0  0  0  0  0  0  0
   -2.9998    6.6095  -23.3642 C   0  0  0  0  0  0  0  0  0  0  0  0
   -6.2242    7.7458  -20.4163 C   0  0  0  0  0  0  0  0  0  0  0  0
   -4.8407    6.8122  -18.7622 C   0  0  0  0  0  0  0  0  0  0  0  0
   -2.4000    7.3004  -18.7667 C   0  0  0  0  0  0  0  0  0  0  0  0
   -7.2960    6.2830  -18.7074 C   0  0  0  0  0  0  0  0  0  0  0  0
   -3.1369    5.3441  -23.8554 C   0  0  0  0  0  0  0  0  0  0  0  0
   -5.1434    8.3867  -20.9994 C   0  0  0  0  0  0  0  0  0  0  0  0
   -6.1045    6.9516  -19.2968 C   0  0  0  0  0  0  0  0  0  0  0  0
   -3.7624    7.4487  -19.3400 C   0  0  0  0  0  0  0  0  0  0  0  0
   -5.2973    9.2326  -22.2097 C   0  0  0  0  0  0  0  0  0  0  0  0
   -1.8770    8.3486  -21.9736 C   0  0  0  0  0  0  0  0  0  0  0  0
   -2.7338    8.9209  -21.0654 C   0  0  0  0  0  0  0  0  0  0  0  0
   -1.1165    5.9851  -22.1132 C   0  0  0  0  0  0  0  0  0  0  0  0
   -2.2767    4.4055  -23.4834 N   0  0  0  0  0  0  0  0  0  0  0  0
   -8.1818    7.3064  -18.1688 N   0  0  0  0  0  4  0  0  0  0  0  0
   -2.2846   10.1761  -20.8688 N   0  0  0  0  0  0  0  0  0  0  0  0
  1  2  1  0
  1  3  1  0
 17  1  1  0
  2 22  2  0
  4  7  2  0
 17  4  1  0
  4 19  1  0
  5 13  1  0
  5 15  2  0
 18  5  1  0
 19  6  2  0
  6 20  1  0
  7 12  1  0
 13  8  2  0
  8 14  1  0
  9 14  2  0
 15  9  1  0
 15 10  1  0
 14 11  1  0
 11 21  1  0
 12 20  2  0
 13 16  1  0
 17 18  2  0
 18 22  1  0
M  CHG  1  21   1
M  END
$$$$
