
     RDKit          3D

 22 24  0  0  0  0  0  0  0  0999 V2000
   -4.5611    8.9361  -24.7184 N   0  0  0  0  0  0  0  0  0  0  0  0
   -5.8352    9.3457  -24.5722 C   0  0  0  0  0  0  0  0  0  0  0  0
   -3.6511    9.1775  -25.8371 C   0  0  0  0  0  0  0  0  0  0  0  0
   -2.9265    7.6023  -23.3768 C   0  0  0  0  0  0  0  0  0  0  0  0
   -5.3574    7.5261  -21.4744 C   0  0  0  0  0  0  0  0  0  0  0  0
   -0.5685    7.8663  -22.8621 C   0  0  0  0  0  0  0  0  0  0  0  0
   -2.7300    6.2354  -23.3974 C   0  0  0  0  0  0  0  0  0  0  0  0
   -4.9558    7.5912  -19.1303 C   0  0  0  0  0  0  0  0  0  0  0  0
   -5.9102    5.6415  -20.0640 C   0  0  0  0  0  0  0  0  0  0  0  0
   -6.3432    5.5402  -22.5077 C   0  0  0  0  0  0  0  0  0  0  0  0
   -5.5175    5.6411  -17.6231 C   0  0  0  0  0  0  0  0  0  0  0  0
   -1.4612    5.7185  -23.1505 C   0  0  0  0  0  0  0  0  0  0  0  0
   -4.9028    8.1977  -20.3652 C   0  0  0  0  0  0  0  0  0  0  0  0
   -5.4486    6.3230  -18.9368 C   0  0  0  0  0  0  0  0  0  0  0  0
   -5.8566    6.2497  -21.2997 C   0  0  0  0  0  0  0  0  0  0  0  0
   -4.3613    9.5629  -20.5299 C   0  0  0  0  0  0  0  0  0  0  0  0
   -4.2183    8.2220  -23.6139 C   0  0  0  0  0  0  0  0  0  0  0  0
   -5.2915    8.1837  -22.7647 C   0  0  0  0  0  0  0  0  0  0  0  0
   -1.8143    8.3918  -23.1038 C   0  0  0  0  0  0  0  0  0  0  0  0
   -0.4029    6.5133  -22.8886 N   0  0  0  0  0  0  0  0  0  0  0  0
   -5.6915    6.6745  -16.5894 N   0  0  0  0  0  4  0  0  0  0  0  0
   -6.2680    8.8839  -23.3843 N   0  0  0  0  0  0  0  0  0  0  0  0
  1  2  1  0
  3  1  1  6
 17  1  1  0
  2 22  2  0
  4  7  2  0
 17  4  1  0
  4 19  1  0
  5 13  1  0
  5 15  2  0
 18  5  1  0
 19  6  2  0
  6 20  1  0
  7 12  1  0
 13  8  2  0
  8 14  1  0
  9 14  2  0
 15  9  1  0
 10 15  1  6
 11 14  1  1
 21 11  1  6
 12 20  2  0
 16 13  1  6
 17 18  2  0
 18 22  1  0
M  CHG  1  21   1
M  END
$$$$
