
     RDKit          3D

 22 24  0  0  0  0  0  0  0  0999 V2000
   -3.2302    7.1565  -19.6207 N   0  0  0  0  0  0  0  0  0  0  0  0
   -4.0407    8.0228  -18.9841 C   0  0  0  0  0  0  0  0  0  0  0  0
   -1.9696    6.5806  -19.1550 C   0  0  0  0  0  0  0  0  0  0  0  0
   -3.2174    5.9819  -21.8278 C   0  0  0  0  0  0  0  0  0  0  0  0
   -5.8541    7.5676  -22.0890 C   0  0  0  0  0  0  0  0  0  0  0  0
   -2.6348    3.7178  -22.4825 C   0  0  0  0  0  0  0  0  0  0  0  0
   -2.7409    6.4171  -23.0488 C   0  0  0  0  0  0  0  0  0  0  0  0
   -6.5702    8.5552  -24.1316 C   0  0  0  0  0  0  0  0  0  0  0  0
   -7.6974    6.6333  -23.3442 C   0  0  0  0  0  0  0  0  0  0  0  0
   -6.9752    5.5768  -21.2155 C   0  0  0  0  0  0  0  0  0  0  0  0
   -8.4943    7.6097  -25.4712 C   0  0  0  0  0  0  0  0  0  0  0  0
   -2.2243    5.4947  -23.9546 C   0  0  0  0  0  0  0  0  0  0  0  0
   -5.7225    8.5440  -23.0468 C   0  0  0  0  0  0  0  0  0  0  0  0
   -7.5645    7.6247  -24.3175 C   0  0  0  0  0  0  0  0  0  0  0  0
   -6.8482    6.6232  -22.2587 C   0  0  0  0  0  0  0  0  0  0  0  0
   -4.6680    9.5664  -22.8831 C   0  0  0  0  0  0  0  0  0  0  0  0
   -3.7806    6.8758  -20.8314 C   0  0  0  0  0  0  0  0  0  0  0  0
   -4.9510    7.5754  -20.9550 C   0  0  0  0  0  0  0  0  0  0  0  0
   -3.1474    4.6153  -21.5781 C   0  0  0  0  0  0  0  0  0  0  0  0
   -2.1712    4.1747  -23.6805 N   0  0  0  0  0  0  0  0  0  0  0  0
   -9.8673    7.5871  -24.9410 N   0  0  0  0  0  4  0  0  0  0  0  0
   -5.0806    8.2696  -19.8022 N   0  0  0  0  0  0  0  0  0  0  0  0
  1  2  1  0
  3  1  1  6
 17  1  1  0
  2 22  2  0
  4  7  2  0
 17  4  1  0
  4 19  1  0
  5 13  1  0
  5 15  2  0
 18  5  1  0
 19  6  2  0
  6 20  1  0
  7 12  1  0
 13  8  2  0
  8 14  1  0
  9 14  2  0
 15  9  1  0
 10 15  1  6
 11 14  1  1
 21 11  1  6
 12 20  2  0
 16 13  1  6
 17 18  2  0
 18 22  1  0
M  CHG  1  21   1
M  END
$$$$
