
     RDKit          3D

 22 24  0  0  0  0  0  0  0  0999 V2000
    2.1661    7.0599   -9.1751 N   0  0  0  0  0  0  0  0  0  0  0  0
    1.7786    7.3072   -7.9097 C   0  0  0  0  0  0  0  0  0  0  0  0
    1.5187    7.4690  -10.4206 C   0  0  0  0  0  0  0  0  0  0  0  0
    4.0564    5.8563  -10.2837 C   0  0  0  0  0  0  0  0  0  0  0  0
    4.7962    5.3875   -7.3228 C   0  0  0  0  0  0  0  0  0  0  0  0
    4.3326    4.1842  -12.0222 C   0  0  0  0  0  0  0  0  0  0  0  0
    5.1456    6.5251  -10.8068 C   0  0  0  0  0  0  0  0  0  0  0  0
    7.0714    5.3928   -6.6273 C   0  0  0  0  0  0  0  0  0  0  0  0
    5.8780    3.3536   -6.5883 C   0  0  0  0  0  0  0  0  0  0  0  0
    3.5009    3.3126   -7.3073 C   0  0  0  0  0  0  0  0  0  0  0  0
    8.2382    3.2874   -5.8553 C   0  0  0  0  0  0  0  0  0  0  0  0
    5.8000    6.0089  -11.9218 C   0  0  0  0  0  0  0  0  0  0  0  0
    5.9685    6.0685   -7.0989 C   0  0  0  0  0  0  0  0  0  0  0  0
    7.0691    4.0446   -6.3607 C   0  0  0  0  0  0  0  0  0  0  0  0
    4.7745    4.0311   -7.0605 C   0  0  0  0  0  0  0  0  0  0  0  0
    6.0148    7.5193   -7.3764 C   0  0  0  0  0  0  0  0  0  0  0  0
    3.3125    6.3311   -9.1304 C   0  0  0  0  0  0  0  0  0  0  0  0
    3.6476    6.1189   -7.8200 C   0  0  0  0  0  0  0  0  0  0  0  0
    3.6763    4.6806  -10.9226 C   0  0  0  0  0  0  0  0  0  0  0  0
    5.4048    4.8649  -12.5179 N   0  0  0  0  0  0  0  0  0  0  0  0
    9.0472    2.8827   -7.0165 N   0  0  0  0  0  4  0  0  0  0  0  0
    2.6841    6.7322   -7.0966 N   0  0  0  0  0  0  0  0  0  0  0  0
  1  2  1  0
  3  1  1  6
 17  1  1  0
  2 22  2  0
  4  7  2  0
 17  4  1  0
  4 19  1  0
  5 13  1  0
  5 15  2  0
 18  5  1  0
 19  6  2  0
  6 20  1  0
  7 12  1  0
 13  8  2  0
  8 14  1  0
  9 14  2  0
 15  9  1  0
 10 15  1  6
 11 14  1  1
 21 11  1  6
 12 20  2  0
 16 13  1  6
 17 18  2  0
 18 22  1  0
M  CHG  1  21   1
M  END
$$$$
