
     RDKit          3D

 22 24  0  0  0  0  0  0  0  0999 V2000
   -6.9864    6.4847  -21.9394 N   0  0  0  0  0  0  0  0  0  0  0  0
   -7.3402    7.2143  -23.0141 C   0  0  0  0  0  0  0  0  0  0  0  0
   -7.7429    5.4285  -21.2685 C   0  0  0  0  0  0  0  0  0  0  0  0
   -5.0110    6.3575  -20.4121 C   0  0  0  0  0  0  0  0  0  0  0  0
   -4.0704    8.6081  -22.3055 C   0  0  0  0  0  0  0  0  0  0  0  0
   -4.7599    6.1637  -18.0051 C   0  0  0  0  0  0  0  0  0  0  0  0
   -3.9019    5.5470  -20.5550 C   0  0  0  0  0  0  0  0  0  0  0  0
   -1.8392    8.8897  -23.0819 C   0  0  0  0  0  0  0  0  0  0  0  0
   -2.6439   10.3344  -21.3938 C   0  0  0  0  0  0  0  0  0  0  0  0
   -4.9686   10.0682  -20.5607 C   0  0  0  0  0  0  0  0  0  0  0  0
   -0.3164   10.6806  -22.1524 C   0  0  0  0  0  0  0  0  0  0  0  0
   -3.2506    5.0657  -19.4227 C   0  0  0  0  0  0  0  0  0  0  0  0
   -3.0426    8.2228  -23.1321 C   0  0  0  0  0  0  0  0  0  0  0  0
   -1.5994    9.9437  -22.2331 C   0  0  0  0  0  0  0  0  0  0  0  0
   -3.8481    9.6659  -21.4450 C   0  0  0  0  0  0  0  0  0  0  0  0
   -3.2577    7.0911  -24.0579 C   0  0  0  0  0  0  0  0  0  0  0  0
   -5.7531    6.8930  -21.5397 C   0  0  0  0  0  0  0  0  0  0  0  0
   -5.3287    7.8914  -22.3749 C   0  0  0  0  0  0  0  0  0  0  0  0
   -5.4134    6.6465  -19.1124 C   0  0  0  0  0  0  0  0  0  0  0  0
   -3.6677    5.3656  -18.1751 N   0  0  0  0  0  0  0  0  0  0  0  0
    0.7103    9.7431  -21.6690 N   0  0  0  0  0  4  0  0  0  0  0  0
   -6.3276    8.0637  -23.2693 N   0  0  0  0  0  0  0  0  0  0  0  0
  1  2  1  0
  3  1  1  6
 17  1  1  0
  2 22  2  0
  4  7  2  0
 17  4  1  0
  4 19  1  0
  5 13  1  0
  5 15  2  0
 18  5  1  0
 19  6  2  0
  6 20  1  0
  7 12  1  0
 13  8  2  0
  8 14  1  0
  9 14  2  0
 15  9  1  0
 10 15  1  6
 11 14  1  1
 21 11  1  6
 12 20  2  0
 16 13  1  6
 17 18  2  0
 18 22  1  0
M  CHG  1  21   1
M  END
$$$$
