
     RDKit          3D

 22 24  0  0  0  0  0  0  0  0999 V2000
   -5.0063    4.8706  -21.6225 N   0  0  0  0  0  0  0  0  0  0  0  0
   -4.8113    4.4621  -22.9011 C   0  0  0  0  0  0  0  0  0  0  0  0
   -5.4999    4.0570  -20.5293 C   0  0  0  0  0  0  0  0  0  0  0  0
   -4.7178    6.9971  -20.3594 C   0  0  0  0  0  0  0  0  0  0  0  0
   -3.7834    7.9477  -23.0796 C   0  0  0  0  0  0  0  0  0  0  0  0
   -5.8125    8.5268  -18.8963 C   0  0  0  0  0  0  0  0  0  0  0  0
   -3.6568    7.0780  -19.4559 C   0  0  0  0  0  0  0  0  0  0  0  0
   -2.0440    9.5958  -23.2099 C   0  0  0  0  0  0  0  0  0  0  0  0
   -4.2298   10.2253  -23.7997 C   0  0  0  0  0  0  0  0  0  0  0  0
   -6.0741    8.5578  -23.6842 C   0  0  0  0  0  0  0  0  0  0  0  0
   -2.4091   11.9509  -23.9370 C   0  0  0  0  0  0  0  0  0  0  0  0
   -3.6789    7.8474  -18.3294 C   0  0  0  0  0  0  0  0  0  0  0  0
   -2.4607    8.3049  -22.9288 C   0  0  0  0  0  0  0  0  0  0  0  0
   -2.9051   10.5784  -23.6472 C   0  0  0  0  0  0  0  0  0  0  0  0
   -4.6482    8.9412  -23.5208 C   0  0  0  0  0  0  0  0  0  0  0  0
   -1.5117    7.2618  -22.4646 C   0  0  0  0  0  0  0  0  0  0  0  0
   -4.6593    6.1665  -21.5494 C   0  0  0  0  0  0  0  0  0  0  0  0
   -4.2385    6.5980  -22.7836 C   0  0  0  0  0  0  0  0  0  0  0  0
   -5.8231    7.7627  -20.0390 C   0  0  0  0  0  0  0  0  0  0  0  0
   -4.7579    8.5685  -18.0555 N   0  0  0  0  0  0  0  0  0  0  0  0
   -2.4119   12.7155  -22.6970 N   0  0  0  0  0  4  0  0  0  0  0  0
   -4.3390    5.5341  -23.6047 N   0  0  0  0  0  0  0  0  0  0  0  0
  1  2  1  0
  1  3  1  0
 17  1  1  0
  2 22  2  0
  4  7  2  0
 17  4  1  0
  4 19  1  0
  5 13  1  0
  5 15  2  0
 18  5  1  0
 19  6  2  0
  6 20  1  0
  7 12  1  0
 13  8  2  0
  8 14  1  0
  9 14  2  0
 15  9  1  0
 15 10  1  0
 14 11  1  0
 11 21  1  0
 12 20  2  0
 13 16  1  0
 17 18  2  0
 18 22  1  0
M  CHG  1  21   1
M  END
$$$$
