
     RDKit          3D

 22 24  0  0  0  0  0  0  0  0999 V2000
   -3.1412   10.3858  -22.2692 N   0  0  0  0  0  0  0  0  0  0  0  0
   -4.2459   10.7782  -22.9517 C   0  0  0  0  0  0  0  0  0  0  0  0
   -1.9173   11.1459  -22.1114 C   0  0  0  0  0  0  0  0  0  0  0  0
   -2.4623    8.3749  -20.9671 C   0  0  0  0  0  0  0  0  0  0  0  0
   -5.2547    7.4966  -21.7466 C   0  0  0  0  0  0  0  0  0  0  0  0
   -1.2611    7.9056  -18.9631 C   0  0  0  0  0  0  0  0  0  0  0  0
   -1.8356    7.2328  -21.4683 C   0  0  0  0  0  0  0  0  0  0  0  0
   -6.4367    6.1144  -20.1812 C   0  0  0  0  0  0  0  0  0  0  0  0
   -5.8078    5.1834  -22.2451 C   0  0  0  0  0  0  0  0  0  0  0  0
   -4.5800    6.5700  -23.9080 C   0  0  0  0  0  0  0  0  0  0  0  0
   -7.0459    3.7360  -20.6069 C   0  0  0  0  0  0  0  0  0  0  0  0
   -0.9653    6.4686  -20.7472 C   0  0  0  0  0  0  0  0  0  0  0  0
   -5.8694    7.3307  -20.5242 C   0  0  0  0  0  0  0  0  0  0  0  0
   -6.4218    5.0219  -21.0205 C   0  0  0  0  0  0  0  0  0  0  0  0
   -5.2420    6.3928  -22.5900 C   0  0  0  0  0  0  0  0  0  0  0  0
   -5.9039    8.4954  -19.6042 C   0  0  0  0  0  0  0  0  0  0  0  0
   -3.3843    9.1649  -21.7643 C   0  0  0  0  0  0  0  0  0  0  0  0
   -4.6493    8.7656  -22.1204 C   0  0  0  0  0  0  0  0  0  0  0  0
   -2.1418    8.6970  -19.6616 C   0  0  0  0  0  0  0  0  0  0  0  0
   -0.6825    6.8097  -19.4969 N   0  0  0  0  0  0  0  0  0  0  0  0
   -6.3709    2.6489  -21.3031 N   0  0  0  0  0  4  0  0  0  0  0  0
   -5.1657    9.7725  -22.8522 N   0  0  0  0  0  0  0  0  0  0  0  0
  1  2  1  0
  1  3  1  0
 17  1  1  0
  2 22  2  0
  4  7  2  0
 17  4  1  0
  4 19  1  0
  5 13  1  0
  5 15  2  0
 18  5  1  0
 19  6  2  0
  6 20  1  0
  7 12  1  0
 13  8  2  0
  8 14  1  0
  9 14  2  0
 15  9  1  0
 15 10  1  0
 14 11  1  0
 11 21  1  0
 12 20  2  0
 13 16  1  0
 17 18  2  0
 18 22  1  0
M  CHG  1  21   1
M  END
$$$$
