
     RDKit          3D

 22 24  0  0  0  0  0  0  0  0999 V2000
   -2.4301    7.7019  -18.8943 N   0  0  0  0  0  0  0  0  0  0  0  0
   -3.3640    7.6182  -17.9283 C   0  0  0  0  0  0  0  0  0  0  0  0
   -0.9903    7.9124  -18.7512 C   0  0  0  0  0  0  0  0  0  0  0  0
   -2.3976    7.5848  -21.3916 C   0  0  0  0  0  0  0  0  0  0  0  0
   -5.4171    7.1864  -20.8836 C   0  0  0  0  0  0  0  0  0  0  0  0
   -1.1759    8.8504  -23.0649 C   0  0  0  0  0  0  0  0  0  0  0  0
   -2.3082    6.4806  -22.2163 C   0  0  0  0  0  0  0  0  0  0  0  0
   -6.8225    5.7054  -22.1051 C   0  0  0  0  0  0  0  0  0  0  0  0
   -6.9629    8.0231  -22.5440 C   0  0  0  0  0  0  0  0  0  0  0  0
   -5.5103    9.5972  -21.2865 C   0  0  0  0  0  0  0  0  0  0  0  0
   -8.4493    6.5410  -23.8503 C   0  0  0  0  0  0  0  0  0  0  0  0
   -1.6566    6.5877  -23.4418 C   0  0  0  0  0  0  0  0  0  0  0  0
   -5.8490    5.9101  -21.1534 C   0  0  0  0  0  0  0  0  0  0  0  0
   -7.4021    6.7271  -22.8186 C   0  0  0  0  0  0  0  0  0  0  0  0
   -5.9882    8.2267  -21.5910 C   0  0  0  0  0  0  0  0  0  0  0  0
   -5.2489    4.7820  -20.4108 C   0  0  0  0  0  0  0  0  0  0  0  0
   -3.0506    7.5559  -20.0948 C   0  0  0  0  0  0  0  0  0  0  0  0
   -4.3908    7.3785  -19.8780 C   0  0  0  0  0  0  0  0  0  0  0  0
   -1.8156    8.7609  -21.8529 C   0  0  0  0  0  0  0  0  0  0  0  0
   -1.1023    7.7447  -23.8592 N   0  0  0  0  0  0  0  0  0  0  0  0
   -7.8245    5.8870  -25.0115 N   0  0  0  0  0  4  0  0  0  0  0  0
   -4.5489    7.4220  -18.5361 N   0  0  0  0  0  0  0  0  0  0  0  0
  1  2  1  0
  3  1  1  6
 17  1  1  0
  2 22  2  0
  4  7  2  0
 17  4  1  0
  4 19  1  0
  5 13  1  0
  5 15  2  0
 18  5  1  0
 19  6  2  0
  6 20  1  0
  7 12  1  0
 13  8  2  0
  8 14  1  0
  9 14  2  0
 15  9  1  0
 10 15  1  6
 11 14  1  1
 21 11  1  6
 12 20  2  0
 16 13  1  6
 17 18  2  0
 18 22  1  0
M  CHG  1  21   1
M  END
$$$$
