
     RDKit          3D

 22 24  0  0  0  0  0  0  0  0999 V2000
   -6.7274    7.4332  -23.7952 N   0  0  0  0  0  0  0  0  0  0  0  0
   -6.8192    8.7686  -23.6511 C   0  0  0  0  0  0  0  0  0  0  0  0
   -7.4802    6.5622  -24.6967 C   0  0  0  0  0  0  0  0  0  0  0  0
   -5.3770    5.5938  -22.7736 C   0  0  0  0  0  0  0  0  0  0  0  0
   -4.2431    8.0080  -21.2177 C   0  0  0  0  0  0  0  0  0  0  0  0
   -5.3183    3.6018  -21.3869 C   0  0  0  0  0  0  0  0  0  0  0  0
   -4.7129    4.8842  -23.7549 C   0  0  0  0  0  0  0  0  0  0  0  0
   -1.9328    8.0400  -20.6505 C   0  0  0  0  0  0  0  0  0  0  0  0
   -3.5254    7.8741  -18.9127 C   0  0  0  0  0  0  0  0  0  0  0  0
   -5.9457    7.8384  -19.4697 C   0  0  0  0  0  0  0  0  0  0  0  0
   -1.1428    7.8997  -18.2533 C   0  0  0  0  0  0  0  0  0  0  0  0
   -4.3687    3.5543  -23.5291 C   0  0  0  0  0  0  0  0  0  0  0  0
   -2.9259    8.0742  -21.6034 C   0  0  0  0  0  0  0  0  0  0  0  0
   -2.1873    7.9413  -19.3035 C   0  0  0  0  0  0  0  0  0  0  0  0
   -4.5188    7.9083  -19.8675 C   0  0  0  0  0  0  0  0  0  0  0  0
   -2.6084    8.1774  -23.0430 C   0  0  0  0  0  0  0  0  0  0  0  0
   -5.7804    6.9798  -22.9321 C   0  0  0  0  0  0  0  0  0  0  0  0
   -5.2723    8.0450  -22.2380 C   0  0  0  0  0  0  0  0  0  0  0  0
   -5.6647    4.9145  -21.5944 C   0  0  0  0  0  0  0  0  0  0  0  0
   -4.6633    2.9249  -22.3726 N   0  0  0  0  0  0  0  0  0  0  0  0
    0.1099    8.3958  -18.8460 N   0  0  0  0  0  4  0  0  0  0  0  0
   -5.9325    9.1286  -22.7045 N   0  0  0  0  0  0  0  0  0  0  0  0
  1  2  1  0
  3  1  1  6
 17  1  1  0
  2 22  2  0
  4  7  2  0
 17  4  1  0
  4 19  1  0
  5 13  1  0
  5 15  2  0
 18  5  1  0
 19  6  2  0
  6 20  1  0
  7 12  1  0
 13  8  2  0
  8 14  1  0
  9 14  2  0
 15  9  1  0
 10 15  1  6
 11 14  1  1
 21 11  1  6
 12 20  2  0
 16 13  1  6
 17 18  2  0
 18 22  1  0
M  CHG  1  21   1
M  END
$$$$
