
     RDKit          3D

 22 24  0  0  0  0  0  0  0  0999 V2000
   -2.0138    8.8112  -23.0604 N   0  0  0  0  0  0  0  0  0  0  0  0
   -1.0175    8.7306  -22.1434 C   0  0  0  0  0  0  0  0  0  0  0  0
   -1.9444    9.4809  -24.3438 C   0  0  0  0  0  0  0  0  0  0  0  0
   -4.3634    8.0035  -23.2257 C   0  0  0  0  0  0  0  0  0  0  0  0
   -3.6837    6.8840  -20.4942 C   0  0  0  0  0  0  0  0  0  0  0  0
   -6.7236    8.3040  -23.3619 C   0  0  0  0  0  0  0  0  0  0  0  0
   -4.4954    7.3567  -24.4557 C   0  0  0  0  0  0  0  0  0  0  0  0
   -4.7865    4.8281  -19.9324 C   0  0  0  0  0  0  0  0  0  0  0  0
   -5.2444    6.7348  -18.6375 C   0  0  0  0  0  0  0  0  0  0  0  0
   -4.1295    8.8947  -19.1737 C   0  0  0  0  0  0  0  0  0  0  0  0
   -6.3987    4.5827  -18.0484 C   0  0  0  0  0  0  0  0  0  0  0  0
   -5.6859    7.1948  -25.1020 C   0  0  0  0  0  0  0  0  0  0  0  0
   -3.9105    5.5452  -20.7307 C   0  0  0  0  0  0  0  0  0  0  0  0
   -5.4685    5.3952  -18.8780 C   0  0  0  0  0  0  0  0  0  0  0  0
   -4.3730    7.4519  -19.4303 C   0  0  0  0  0  0  0  0  0  0  0  0
   -3.1826    4.9095  -21.8578 C   0  0  0  0  0  0  0  0  0  0  0  0
   -3.0787    8.1578  -22.5662 C   0  0  0  0  0  0  0  0  0  0  0  0
   -2.7711    7.6529  -21.3264 C   0  0  0  0  0  0  0  0  0  0  0  0
   -5.5410    8.4841  -22.6845 C   0  0  0  0  0  0  0  0  0  0  0  0
   -6.7949    7.6700  -24.5509 N   0  0  0  0  0  0  0  0  0  0  0  0
   -6.0889    4.8144  -16.6440 N   0  0  0  0  0  4  0  0  0  0  0  0
   -1.4965    8.0157  -21.0819 N   0  0  0  0  0  0  0  0  0  0  0  0
  1  2  1  0
  1  3  1  0
 17  1  1  0
  2 22  2  0
  4  7  2  0
 17  4  1  0
  4 19  1  0
  5 13  1  0
  5 15  2  0
 18  5  1  0
 19  6  2  0
  6 20  1  0
  7 12  1  0
 13  8  2  0
  8 14  1  0
  9 14  2  0
 15  9  1  0
 15 10  1  0
 14 11  1  0
 11 21  1  0
 12 20  2  0
 13 16  1  0
 17 18  2  0
 18 22  1  0
M  CHG  1  21   1
M  END
$$$$
