
     RDKit          3D

 22 24  0  0  0  0  0  0  0  0999 V2000
   -5.2435    1.5055  -22.8130 N   0  0  0  0  0  0  0  0  0  0  0  0
   -5.3098    0.1798  -22.5875 C   0  0  0  0  0  0  0  0  0  0  0  0
   -4.0903    2.3941  -22.6778 C   0  0  0  0  0  0  0  0  0  0  0  0
   -6.8275    3.2952  -23.5468 C   0  0  0  0  0  0  0  0  0  0  0  0
   -8.7260    0.8604  -23.5887 C   0  0  0  0  0  0  0  0  0  0  0  0
   -7.7687    4.8488  -25.1578 C   0  0  0  0  0  0  0  0  0  0  0  0
   -6.6295    4.3613  -22.6914 C   0  0  0  0  0  0  0  0  0  0  0  0
  -10.9979    1.1250  -22.9336 C   0  0  0  0  0  0  0  0  0  0  0  0
  -10.5191    0.6323  -25.1946 C   0  0  0  0  0  0  0  0  0  0  0  0
   -8.1581    0.3502  -25.9125 C   0  0  0  0  0  0  0  0  0  0  0  0
  -12.9002    0.8918  -24.5820 C   0  0  0  0  0  0  0  0  0  0  0  0
   -7.0048    5.6416  -23.0887 C   0  0  0  0  0  0  0  0  0  0  0  0
   -9.6591    1.1146  -22.6125 C   0  0  0  0  0  0  0  0  0  0  0  0
  -11.4675    0.8904  -24.2038 C   0  0  0  0  0  0  0  0  0  0  0  0
   -9.1792    0.6221  -24.8720 C   0  0  0  0  0  0  0  0  0  0  0  0
   -9.1965    1.3685  -21.2321 C   0  0  0  0  0  0  0  0  0  0  0  0
   -6.4738    1.9284  -23.2066 C   0  0  0  0  0  0  0  0  0  0  0  0
   -7.3219    0.8539  -23.2279 C   0  0  0  0  0  0  0  0  0  0  0  0
   -7.4037    3.5797  -24.7805 C   0  0  0  0  0  0  0  0  0  0  0  0
   -7.5618    5.8829  -24.2936 N   0  0  0  0  0  0  0  0  0  0  0  0
  -13.0386    1.6857  -25.8138 N   0  0  0  0  0  4  0  0  0  0  0  0
   -6.5745   -0.2044  -22.8422 N   0  0  0  0  0  0  0  0  0  0  0  0
  1  2  1  0
  3  1  1  6
 17  1  1  0
  2 22  2  0
  4  7  2  0
 17  4  1  0
  4 19  1  0
  5 13  1  0
  5 15  2  0
 18  5  1  0
 19  6  2  0
  6 20  1  0
  7 12  1  0
 13  8  2  0
  8 14  1  0
  9 14  2  0
 15  9  1  0
 10 15  1  6
 11 14  1  1
 21 11  1  6
 12 20  2  0
 16 13  1  6
 17 18  2  0
 18 22  1  0
M  CHG  1  21   1
M  END
$$$$
