
     RDKit          3D

 22 24  0  0  0  0  0  0  0  0999 V2000
   -8.7024   10.6860  -26.1997 N   0  0  0  0  0  0  0  0  0  0  0  0
   -7.4555   11.0839  -26.5150 C   0  0  0  0  0  0  0  0  0  0  0  0
   -9.1504    9.3679  -25.7528 C   0  0  0  0  0  0  0  0  0  0  0  0
  -10.9711   11.7345  -26.1321 C   0  0  0  0  0  0  0  0  0  0  0  0
   -9.3021   14.1489  -27.0912 C   0  0  0  0  0  0  0  0  0  0  0  0
  -13.1221   10.6755  -26.5144 C   0  0  0  0  0  0  0  0  0  0  0  0
  -11.6140   12.6693  -25.3445 C   0  0  0  0  0  0  0  0  0  0  0  0
  -10.3853   15.6257  -28.6097 C   0  0  0  0  0  0  0  0  0  0  0  0
   -9.6777   16.4676  -26.5182 C   0  0  0  0  0  0  0  0  0  0  0  0
   -8.5441   14.9529  -24.9090 C   0  0  0  0  0  0  0  0  0  0  0  0
  -10.7940   18.0564  -28.0486 C   0  0  0  0  0  0  0  0  0  0  0  0
  -12.9914   12.5847  -25.1613 C   0  0  0  0  0  0  0  0  0  0  0  0
   -9.9067   14.3713  -28.3049 C   0  0  0  0  0  0  0  0  0  0  0  0
  -10.2919   16.6945  -27.7508 C   0  0  0  0  0  0  0  0  0  0  0  0
   -9.1989   15.2115  -26.2142 C   0  0  0  0  0  0  0  0  0  0  0  0
  -10.0243   13.2494  -29.2596 C   0  0  0  0  0  0  0  0  0  0  0  0
   -9.5379   11.7451  -26.3663 C   0  0  0  0  0  0  0  0  0  0  0  0
   -8.8050   12.8204  -26.7916 C   0  0  0  0  0  0  0  0  0  0  0  0
  -11.7637   10.7453  -26.7048 C   0  0  0  0  0  0  0  0  0  0  0  0
  -13.7311   11.6112  -25.7319 N   0  0  0  0  0  0  0  0  0  0  0  0
   -9.6859   18.8242  -28.6397 N   0  0  0  0  0  4  0  0  0  0  0  0
   -7.5296   12.3795  -26.8723 N   0  0  0  0  0  0  0  0  0  0  0  0
  1  2  1  0
  3  1  1  6
 17  1  1  0
  2 22  2  0
  4  7  2  0
 17  4  1  0
  4 19  1  0
  5 13  1  0
  5 15  2  0
 18  5  1  0
 19  6  2  0
  6 20  1  0
  7 12  1  0
 13  8  2  0
  8 14  1  0
  9 14  2  0
 15  9  1  0
 10 15  1  6
 11 14  1  1
 21 11  1  6
 12 20  2  0
 16 13  1  6
 17 18  2  0
 18 22  1  0
M  CHG  1  21   1
M  END
$$$$
