
     RDKit          3D

 22 24  0  0  0  0  0  0  0  0999 V2000
  -13.3806   17.7887    1.0651 N   0  0  0  0  0  0  0  0  0  0  0  0
  -12.8592   17.7563    2.3170 C   0  0  0  0  0  0  0  0  0  0  0  0
  -13.2649   18.8790    0.1173 C   0  0  0  0  0  0  0  0  0  0  0  0
  -14.7295   16.2486   -0.3521 C   0  0  0  0  0  0  0  0  0  0  0  0
  -14.4930   14.5114    2.1183 C   0  0  0  0  0  0  0  0  0  0  0  0
  -16.5962   15.3344   -1.5180 C   0  0  0  0  0  0  0  0  0  0  0  0
  -14.1849   16.4454   -1.6222 C   0  0  0  0  0  0  0  0  0  0  0  0
  -16.2165   13.0391    2.9059 C   0  0  0  0  0  0  0  0  0  0  0  0
  -14.4051   12.1144    1.7289 C   0  0  0  0  0  0  0  0  0  0  0  0
  -12.5881   13.5933    0.8880 C   0  0  0  0  0  0  0  0  0  0  0  0
  -16.2095   10.5726    2.5525 C   0  0  0  0  0  0  0  0  0  0  0  0
  -14.8199   16.1015   -2.7798 C   0  0  0  0  0  0  0  0  0  0  0  0
  -15.6861   14.3125    2.7792 C   0  0  0  0  0  0  0  0  0  0  0  0
  -15.5992   11.9200    2.3913 C   0  0  0  0  0  0  0  0  0  0  0  0
  -13.8740   13.3806    1.6009 C   0  0  0  0  0  0  0  0  0  0  0  0
  -16.3739   15.5039    3.3375 C   0  0  0  0  0  0  0  0  0  0  0  0
  -14.0243   16.6276    0.8597 C   0  0  0  0  0  0  0  0  0  0  0  0
  -13.9194   15.8414    1.9811 C   0  0  0  0  0  0  0  0  0  0  0  0
  -15.9842   15.6689   -0.3333 C   0  0  0  0  0  0  0  0  0  0  0  0
  -16.0236   15.5472   -2.7212 N   0  0  0  0  0  0  0  0  0  0  0  0
  -17.6130   10.6515    2.1707 N   0  0  0  0  0  4  0  0  0  0  0  0
  -13.1980   16.5532    2.8692 N   0  0  0  0  0  0  0  0  0  0  0  0
  1  2  1  0
  1  3  1  0
 17  1  1  0
  2 22  2  0
  4  7  2  0
 17  4  1  0
  4 19  1  0
  5 13  1  0
  5 15  2  0
 18  5  1  0
 19  6  2  0
  6 20  1  0
  7 12  1  0
 13  8  2  0
  8 14  1  0
  9 14  2  0
 15  9  1  0
 15 10  1  0
 14 11  1  0
 11 21  1  0
 12 20  2  0
 13 16  1  0
 17 18  2  0
 18 22  1  0
M  CHG  1  21   1
M  END
$$$$
