
     RDKit          3D

 22 24  0  0  0  0  0  0  0  0999 V2000
   -2.5281    9.9879  -22.1886 N   0  0  0  0  0  0  0  0  0  0  0  0
   -3.5075   10.5281  -22.9561 C   0  0  0  0  0  0  0  0  0  0  0  0
   -1.2338   10.5781  -21.9114 C   0  0  0  0  0  0  0  0  0  0  0  0
   -2.2360    7.8951  -20.8714 C   0  0  0  0  0  0  0  0  0  0  0  0
   -5.0400    7.3999  -21.9053 C   0  0  0  0  0  0  0  0  0  0  0  0
   -1.2250    7.2877  -18.8006 C   0  0  0  0  0  0  0  0  0  0  0  0
   -1.7905    6.6494  -21.3169 C   0  0  0  0  0  0  0  0  0  0  0  0
   -6.4407    6.1280  -20.4293 C   0  0  0  0  0  0  0  0  0  0  0  0
   -5.9327    5.2309  -22.5409 C   0  0  0  0  0  0  0  0  0  0  0  0
   -4.4847    6.5056  -24.1138 C   0  0  0  0  0  0  0  0  0  0  0  0
   -7.3997    3.8992  -20.9963 C   0  0  0  0  0  0  0  0  0  0  0  0
   -1.0968    5.7704  -20.5375 C   0  0  0  0  0  0  0  0  0  0  0  0
   -5.6897    7.2606  -20.6978 C   0  0  0  0  0  0  0  0  0  0  0  0
   -6.5811    5.0958  -21.3310 C   0  0  0  0  0  0  0  0  0  0  0  0
   -5.1842    6.3570  -22.8117 C   0  0  0  0  0  0  0  0  0  0  0  0
   -5.5588    8.3625  -19.7115 C   0  0  0  0  0  0  0  0  0  0  0  0
   -2.9727    8.8060  -21.7298 C   0  0  0  0  0  0  0  0  0  0  0  0
   -4.2429    8.5804  -22.2012 C   0  0  0  0  0  0  0  0  0  0  0  0
   -1.9253    8.1959  -19.5585 C   0  0  0  0  0  0  0  0  0  0  0  0
   -0.8176    6.0947  -19.2820 N   0  0  0  0  0  0  0  0  0  0  0  0
   -8.2815    3.6127  -22.1200 N   0  0  0  0  0  4  0  0  0  0  0  0
   -4.5564    9.6523  -22.9554 N   0  0  0  0  0  0  0  0  0  0  0  0
  1  2  1  0
  1  3  1  0
 17  1  1  0
  2 22  2  0
  4  7  2  0
 17  4  1  0
  4 19  1  0
  5 13  1  0
  5 15  2  0
 18  5  1  0
 19  6  2  0
  6 20  1  0
  7 12  1  0
 13  8  2  0
  8 14  1  0
  9 14  2  0
 15  9  1  0
 15 10  1  0
 14 11  1  0
 11 21  1  0
 12 20  2  0
 13 16  1  0
 17 18  2  0
 18 22  1  0
M  CHG  1  21   1
M  END
$$$$
