
     RDKit          3D

 22 24  0  0  0  0  0  0  0  0999 V2000
   -3.6866    8.5485  -24.1102 N   0  0  0  0  0  0  0  0  0  0  0  0
   -4.0188    9.8158  -23.7587 C   0  0  0  0  0  0  0  0  0  0  0  0
   -3.2550    8.1090  -25.4221 C   0  0  0  0  0  0  0  0  0  0  0  0
   -3.5797    6.3422  -22.9609 C   0  0  0  0  0  0  0  0  0  0  0  0
   -4.5110    8.0323  -20.6258 C   0  0  0  0  0  0  0  0  0  0  0  0
   -4.2897    4.0750  -22.7741 C   0  0  0  0  0  0  0  0  0  0  0  0
   -2.2922    5.8077  -23.0324 C   0  0  0  0  0  0  0  0  0  0  0  0
   -3.7526    7.4020  -18.4381 C   0  0  0  0  0  0  0  0  0  0  0  0
   -6.0378    7.1798  -18.9384 C   0  0  0  0  0  0  0  0  0  0  0  0
   -6.8816    7.8183  -21.1914 C   0  0  0  0  0  0  0  0  0  0  0  0
   -5.2446    6.5204  -16.6477 C   0  0  0  0  0  0  0  0  0  0  0  0
   -2.0232    4.4712  -22.9770 C   0  0  0  0  0  0  0  0  0  0  0  0
   -3.4924    7.8896  -19.7083 C   0  0  0  0  0  0  0  0  0  0  0  0
   -5.0153    7.0385  -18.0235 C   0  0  0  0  0  0  0  0  0  0  0  0
   -5.7825    7.6649  -20.2038 C   0  0  0  0  0  0  0  0  0  0  0  0
   -2.1234    8.2805  -20.1292 C   0  0  0  0  0  0  0  0  0  0  0  0
   -3.8288    7.7717  -23.0234 C   0  0  0  0  0  0  0  0  0  0  0  0
   -4.2540    8.5378  -21.9656 C   0  0  0  0  0  0  0  0  0  0  0  0
   -4.5954    5.4143  -22.8267 C   0  0  0  0  0  0  0  0  0  0  0  0
   -3.0247    3.6112  -22.8480 N   0  0  0  0  0  0  0  0  0  0  0  0
   -5.8313    5.1906  -16.7457 N   0  0  0  0  0  4  0  0  0  0  0  0
   -4.3658    9.7952  -22.4372 N   0  0  0  0  0  0  0  0  0  0  0  0
  1  2  1  0
  1  3  1  0
 17  1  1  0
  2 22  2  0
  4  7  2  0
 17  4  1  0
  4 19  1  0
  5 13  1  0
  5 15  2  0
 18  5  1  0
 19  6  2  0
  6 20  1  0
  7 12  1  0
 13  8  2  0
  8 14  1  0
  9 14  2  0
 15  9  1  0
 15 10  1  0
 14 11  1  0
 11 21  1  0
 12 20  2  0
 13 16  1  0
 17 18  2  0
 18 22  1  0
M  CHG  1  21   1
M  END
$$$$
