
     RDKit          3D

 22 24  0  0  0  0  0  0  0  0999 V2000
   -8.5103   19.3734  -22.7728 N   0  0  0  0  0  0  0  0  0  0  0  0
   -9.8507   19.4270  -22.5719 C   0  0  0  0  0  0  0  0  0  0  0  0
   -7.6643   18.2094  -22.5993 C   0  0  0  0  0  0  0  0  0  0  0  0
   -6.7410   20.9765  -23.4798 C   0  0  0  0  0  0  0  0  0  0  0  0
   -9.1255   22.8409  -23.6005 C   0  0  0  0  0  0  0  0  0  0  0  0
   -4.7862   20.9138  -24.8414 C   0  0  0  0  0  0  0  0  0  0  0  0
   -6.0044   21.8435  -22.6710 C   0  0  0  0  0  0  0  0  0  0  0  0
   -9.0930   25.1739  -23.0397 C   0  0  0  0  0  0  0  0  0  0  0  0
   -8.9955   24.5657  -25.3074 C   0  0  0  0  0  0  0  0  0  0  0  0
   -9.0257   22.1607  -25.9484 C   0  0  0  0  0  0  0  0  0  0  0  0
   -8.9607   27.0082  -24.7210 C   0  0  0  0  0  0  0  0  0  0  0  0
   -4.7218   22.2234  -22.9398 C   0  0  0  0  0  0  0  0  0  0  0  0
   -9.1466   23.8441  -22.6555 C   0  0  0  0  0  0  0  0  0  0  0  0
   -9.0170   25.5663  -24.3583 C   0  0  0  0  0  0  0  0  0  0  0  0
   -9.0488   23.2407  -24.9286 C   0  0  0  0  0  0  0  0  0  0  0  0
   -9.2219   23.4466  -21.2271 C   0  0  0  0  0  0  0  0  0  0  0  0
   -8.1057   20.5937  -23.1625 C   0  0  0  0  0  0  0  0  0  0  0  0
   -9.1866   21.4396  -23.2142 C   0  0  0  0  0  0  0  0  0  0  0  0
   -6.0783   20.5113  -24.6001 C   0  0  0  0  0  0  0  0  0  0  0  0
   -4.1190   21.7559  -24.0249 N   0  0  0  0  0  0  0  0  0  0  0  0
  -10.2519   27.6119  -24.4203 N   0  0  0  0  0  4  0  0  0  0  0  0
  -10.2539   20.7034  -22.8469 N   0  0  0  0  0  0  0  0  0  0  0  0
  1  2  1  0
  1  3  1  0
 17  1  1  0
  2 22  2  0
  4  7  2  0
 17  4  1  0
  4 19  1  0
  5 13  1  0
  5 15  2  0
 18  5  1  0
 19  6  2  0
  6 20  1  0
  7 12  1  0
 13  8  2  0
  8 14  1  0
  9 14  2  0
 15  9  1  0
 15 10  1  0
 14 11  1  0
 11 21  1  0
 12 20  2  0
 13 16  1  0
 17 18  2  0
 18 22  1  0
M  CHG  1  21   1
M  END
$$$$
