
     RDKit          3D

 22 24  0  0  0  0  0  0  0  0999 V2000
   -2.1232    8.3280  -19.5015 N   0  0  0  0  0  0  0  0  0  0  0  0
   -2.8159    8.5054  -18.3488 C   0  0  0  0  0  0  0  0  0  0  0  0
   -0.6976    8.5165  -19.6815 C   0  0  0  0  0  0  0  0  0  0  0  0
   -2.6733    7.6517  -21.8340 C   0  0  0  0  0  0  0  0  0  0  0  0
   -5.4528    7.4890  -20.6406 C   0  0  0  0  0  0  0  0  0  0  0  0
   -1.9542    8.2754  -24.0188 C   0  0  0  0  0  0  0  0  0  0  0  0
   -2.7768    6.3652  -22.3655 C   0  0  0  0  0  0  0  0  0  0  0  0
   -7.0563    5.8398  -21.3241 C   0  0  0  0  0  0  0  0  0  0  0  0
   -7.3131    8.0418  -22.1031 C   0  0  0  0  0  0  0  0  0  0  0  0
   -5.6803    9.7946  -21.4267 C   0  0  0  0  0  0  0  0  0  0  0  0
   -8.9926    6.3159  -22.8185 C   0  0  0  0  0  0  0  0  0  0  0  0
   -2.4818    6.0553  -23.6610 C   0  0  0  0  0  0  0  0  0  0  0  0
   -5.9185    6.1920  -20.6169 C   0  0  0  0  0  0  0  0  0  0  0  0
   -7.7754    6.7426  -22.0766 C   0  0  0  0  0  0  0  0  0  0  0  0
   -6.1807    8.3961  -21.4003 C   0  0  0  0  0  0  0  0  0  0  0  0
   -5.1642    5.2015  -19.8080 C   0  0  0  0  0  0  0  0  0  0  0  0
   -2.9958    7.9452  -20.4486 C   0  0  0  0  0  0  0  0  0  0  0  0
   -4.2565    7.8744  -19.9079 C   0  0  0  0  0  0  0  0  0  0  0  0
   -2.2430    8.6215  -22.7200 C   0  0  0  0  0  0  0  0  0  0  0  0
   -2.0716    7.0133  -24.4816 N   0  0  0  0  0  0  0  0  0  0  0  0
   -8.6801    6.2839  -24.2410 N   0  0  0  0  0  4  0  0  0  0  0  0
   -4.1267    8.2231  -18.6127 N   0  0  0  0  0  0  0  0  0  0  0  0
  1  2  1  0
  1  3  1  0
 17  1  1  0
  2 22  2  0
  4  7  2  0
 17  4  1  0
  4 19  1  0
  5 13  1  0
  5 15  2  0
 18  5  1  0
 19  6  2  0
  6 20  1  0
  7 12  1  0
 13  8  2  0
  8 14  1  0
  9 14  2  0
 15  9  1  0
 15 10  1  0
 14 11  1  0
 11 21  1  0
 12 20  2  0
 13 16  1  0
 17 18  2  0
 18 22  1  0
M  CHG  1  21   1
M  END
$$$$
