
     RDKit          3D

 22 24  0  0  0  0  0  0  0  0999 V2000
   -1.9946    8.1033  -20.4521 N   0  0  0  0  0  0  0  0  0  0  0  0
   -1.5418    8.8481  -21.4914 C   0  0  0  0  0  0  0  0  0  0  0  0
   -1.2394    7.7304  -19.2727 C   0  0  0  0  0  0  0  0  0  0  0  0
   -4.1326    6.9740  -19.8572 C   0  0  0  0  0  0  0  0  0  0  0  0
   -4.9611    8.1523  -22.5221 C   0  0  0  0  0  0  0  0  0  0  0  0
   -6.0173    6.6853  -18.4275 C   0  0  0  0  0  0  0  0  0  0  0  0
   -3.8957    5.6190  -19.6196 C   0  0  0  0  0  0  0  0  0  0  0  0
   -6.5468    6.8984  -23.8151 C   0  0  0  0  0  0  0  0  0  0  0  0
   -7.1944    8.9958  -22.9765 C   0  0  0  0  0  0  0  0  0  0  0  0
   -5.5914   10.3409  -21.6285 C   0  0  0  0  0  0  0  0  0  0  0  0
   -8.8551    7.6833  -24.3295 C   0  0  0  0  0  0  0  0  0  0  0  0
   -4.6848    4.8407  -18.8239 C   0  0  0  0  0  0  0  0  0  0  0  0
   -5.2910    7.0257  -23.2444 C   0  0  0  0  0  0  0  0  0  0  0  0
   -7.5201    7.8667  -23.6987 C   0  0  0  0  0  0  0  0  0  0  0  0
   -5.9452    9.1261  -22.4070 C   0  0  0  0  0  0  0  0  0  0  0  0
   -4.2611    5.9650  -23.3791 C   0  0  0  0  0  0  0  0  0  0  0  0
   -3.2707    7.7724  -20.7111 C   0  0  0  0  0  0  0  0  0  0  0  0
   -3.6451    8.3043  -21.9208 C   0  0  0  0  0  0  0  0  0  0  0  0
   -5.2435    7.4972  -19.2224 C   0  0  0  0  0  0  0  0  0  0  0  0
   -5.7426    5.3788  -18.2316 N   0  0  0  0  0  0  0  0  0  0  0  0
   -9.6295    6.7581  -23.5132 N   0  0  0  0  0  4  0  0  0  0  0  0
   -2.5668    8.9641  -22.3876 N   0  0  0  0  0  0  0  0  0  0  0  0
  1  2  1  0
  1  3  1  0
 17  1  1  0
  2 22  2  0
  4  7  2  0
 17  4  1  0
  4 19  1  0
  5 13  1  0
  5 15  2  0
 18  5  1  0
 19  6  2  0
  6 20  1  0
  7 12  1  0
 13  8  2  0
  8 14  1  0
  9 14  2  0
 15  9  1  0
 15 10  1  0
 14 11  1  0
 11 21  1  0
 12 20  2  0
 13 16  1  0
 17 18  2  0
 18 22  1  0
M  CHG  1  21   1
M  END
$$$$
