
     RDKit          3D

 22 24  0  0  0  0  0  0  0  0999 V2000
    3.2846    6.0788  -11.6647 N   0  0  0  0  0  0  0  0  0  0  0  0
    2.4256    6.9591  -11.0929 C   0  0  0  0  0  0  0  0  0  0  0  0
    3.3437    5.7298  -13.0701 C   0  0  0  0  0  0  0  0  0  0  0  0
    5.1317    4.6089  -10.8721 C   0  0  0  0  0  0  0  0  0  0  0  0
    4.3663    5.8561   -8.2197 C   0  0  0  0  0  0  0  0  0  0  0  0
    5.9288    2.3872  -11.2008 C   0  0  0  0  0  0  0  0  0  0  0  0
    6.4807    4.9673  -10.8883 C   0  0  0  0  0  0  0  0  0  0  0  0
    4.4902    4.6207   -6.1661 C   0  0  0  0  0  0  0  0  0  0  0  0
    6.1151    6.2662   -6.5830 C   0  0  0  0  0  0  0  0  0  0  0  0
    6.0367    7.5788   -8.6965 C   0  0  0  0  0  0  0  0  0  0  0  0
    6.2458    4.9728   -4.4333 C   0  0  0  0  0  0  0  0  0  0  0  0
    7.4992    4.0747  -11.0533 C   0  0  0  0  0  0  0  0  0  0  0  0
    3.8698    4.8857   -7.3760 C   0  0  0  0  0  0  0  0  0  0  0  0
    5.6147    5.2944   -5.7418 C   0  0  0  0  0  0  0  0  0  0  0  0
    5.5001    6.5328   -7.7882 C   0  0  0  0  0  0  0  0  0  0  0  0
    2.6621    4.1414   -7.8137 C   0  0  0  0  0  0  0  0  0  0  0  0
    4.0730    5.5872  -10.6942 C   0  0  0  0  0  0  0  0  0  0  0  0
    3.7237    6.1506   -9.4913 C   0  0  0  0  0  0  0  0  0  0  0  0
    4.8793    3.2599  -11.0371 C   0  0  0  0  0  0  0  0  0  0  0  0
    7.2173    2.7879  -11.2088 N   0  0  0  0  0  0  0  0  0  0  0  0
    7.3810    4.0914   -4.6712 N   0  0  0  0  0  4  0  0  0  0  0  0
    2.7064    6.9938   -9.7560 N   0  0  0  0  0  0  0  0  0  0  0  0
  1  2  1  0
  1  3  1  0
 17  1  1  0
  2 22  2  0
  4  7  2  0
 17  4  1  0
  4 19  1  0
  5 13  1  0
  5 15  2  0
 18  5  1  0
 19  6  2  0
  6 20  1  0
  7 12  1  0
 13  8  2  0
  8 14  1  0
  9 14  2  0
 15  9  1  0
 15 10  1  0
 14 11  1  0
 11 21  1  0
 12 20  2  0
 13 16  1  0
 17 18  2  0
 18 22  1  0
M  CHG  1  21   1
M  END
$$$$
