
     RDKit          3D

 34 38  0  0  0  0  0  0  0  0999 V2000
   25.9927   -5.4975   11.2421 N   0  0  0  0  0  0  0  0  0  0  0  0
   26.4888   -4.2095   11.5726 C   0  0  0  0  0  0  0  0  0  0  0  0
   25.8666   -3.4923   12.3882 O   0  0  0  0  0  0  0  0  0  0  0  0
   27.7189   -3.7276   10.9625 C   0  0  0  0  0  0  0  0  0  0  0  0
   27.8864   -9.3776    7.1422 C   0  0  0  0  0  0  0  0  0  0  0  0
   26.8531  -10.2950    7.2347 C   0  0  0  0  0  0  0  0  0  0  0  0
   25.8081  -10.1062    8.1128 C   0  0  0  0  0  0  0  0  0  0  0  0
   24.7319  -11.0859    8.1903 C   0  0  0  0  0  0  0  0  0  0  0  0
   28.2398   -2.5053   11.3193 C   0  0  0  0  0  0  0  0  0  0  0  0
   29.4004   -2.0259   10.7582 C   0  0  0  0  0  0  0  0  0  0  0  0
   30.0491   -2.7887    9.8215 C   0  0  0  0  0  0  0  0  0  0  0  0
   29.5181   -4.0107    9.4723 C   0  0  0  0  0  0  0  0  0  0  0  0
   29.9826   -5.0395    8.5105 C   0  0  0  0  0  0  0  0  0  0  0  0
   29.0338   -6.1351    8.5429 C   0  0  0  0  0  0  0  0  0  0  0  0
   29.0241   -7.2599    7.8659 C   0  0  0  0  0  0  0  0  0  0  0  0
   27.9455   -8.2341    7.9050 C   0  0  0  0  0  0  0  0  0  0  0  0
   23.3999  -10.7876    8.5569 N   0  0  0  0  0  0  0  0  0  0  0  0
   31.0208   -4.9413    7.8130 O   0  0  0  0  0  0  0  0  0  0  0  0
   24.9758  -12.2902    7.9171 O   0  0  0  0  0  0  0  0  0  0  0  0
   22.3616  -11.7920    8.6412 C   0  0  0  0  0  0  0  0  0  0  0  0
   22.0709  -12.2480   10.0353 C   0  0  0  0  0  0  0  0  0  0  0  0
   22.9062  -13.3677   10.4955 C   0  0  0  0  0  0  0  0  0  0  0  0
   24.0336  -13.3427   11.2500 N   0  0  0  0  0  0  0  0  0  0  0  0
   24.4889  -14.6022   11.4441 C   0  0  0  0  0  0  0  0  0  0  0  0
   25.5551  -15.1577   12.1066 C   0  0  0  0  0  0  0  0  0  0  0  0
   25.7616  -16.5207   12.1253 C   0  0  0  0  0  0  0  0  0  0  0  0
   24.8860  -17.3649   11.4674 C   0  0  0  0  0  0  0  0  0  0  0  0
   23.8209  -16.7921   10.8071 C   0  0  0  0  0  0  0  0  0  0  0  0
   23.6171  -15.4254   10.7906 C   0  0  0  0  0  0  0  0  0  0  0  0
   22.6674  -14.6632   10.2233 N   0  0  0  0  0  0  0  0  0  0  0  0
   25.8551   -8.9651    8.8810 C   0  0  0  0  0  0  0  0  0  0  0  0
   26.8772   -8.0491    8.7962 C   0  0  0  0  0  0  0  0  0  0  0  0
   28.0691   -5.7526    9.4817 O   0  0  0  0  0  0  0  0  0  0  0  0
   28.3687   -4.5116   10.0121 C   0  0  0  0  0  0  0  0  0  0  0  0
  2  1  1  0
  2  3  2  0
  4  2  1  0
  4  9  2  0
 34  4  1  0
  5  6  2  0
 16  5  1  0
  6  7  1  0
  7  8  1  0
  7 31  2  0
  8 17  1  0
  8 19  2  0
 10  9  1  0
 11 10  2  0
 12 11  1  0
 13 12  1  0
 12 34  2  0
 14 13  1  0
 13 18  2  0
 15 14  2  3
 14 33  1  0
 15 16  1  0
 16 32  2  0
 17 20  1  0
 20 21  1  0
 21 22  1  0
 22 23  2  0
 22 30  1  0
 23 24  1  0
 24 25  2  0
 24 29  1  0
 25 26  1  0
 26 27  2  0
 27 28  1  0
 28 29  2  0
 29 30  1  0
 31 32  1  0
 33 34  1  0
M  END
$$$$
