
     RDKit          3D

 34 38  0  0  0  0  0  0  0  0999 V2000
   25.4285   -5.6449   10.9808 N   0  0  0  0  0  0  0  0  0  0  0  0
   26.0401   -4.4434   11.4076 C   0  0  0  0  0  0  0  0  0  0  0  0
   25.4674   -3.6124   12.1598 O   0  0  0  0  0  0  0  0  0  0  0  0
   27.4049   -4.1751   10.9389 C   0  0  0  0  0  0  0  0  0  0  0  0
   27.1399  -10.0716    7.5464 C   0  0  0  0  0  0  0  0  0  0  0  0
   26.0541  -10.9129    7.7348 C   0  0  0  0  0  0  0  0  0  0  0  0
   25.0172  -10.5371    8.5793 C   0  0  0  0  0  0  0  0  0  0  0  0
   23.9033  -11.4654    8.7383 C   0  0  0  0  0  0  0  0  0  0  0  0
   28.1086   -3.0648   11.3502 C   0  0  0  0  0  0  0  0  0  0  0  0
   29.3905   -2.7978   10.9200 C   0  0  0  0  0  0  0  0  0  0  0  0
   29.9735   -3.6878   10.0447 C   0  0  0  0  0  0  0  0  0  0  0  0
   29.2712   -4.8110    9.6242 C   0  0  0  0  0  0  0  0  0  0  0  0
   29.6227   -5.9194    8.7120 C   0  0  0  0  0  0  0  0  0  0  0  0
   28.4850   -6.8182    8.6506 C   0  0  0  0  0  0  0  0  0  0  0  0
   28.2998   -7.9500    7.9829 C   0  0  0  0  0  0  0  0  0  0  0  0
   27.1965   -8.8519    8.1992 C   0  0  0  0  0  0  0  0  0  0  0  0
   24.0875  -12.8423    8.6757 N   0  0  0  0  0  0  0  0  0  0  0  0
   30.7050   -6.0322    8.1176 O   0  0  0  0  0  0  0  0  0  0  0  0
   22.7429  -11.0046    8.9377 O   0  0  0  0  0  0  0  0  0  0  0  0
   23.4652  -13.8880    7.9821 C   0  0  0  0  0  0  0  0  0  0  0  0
   23.4955  -15.2882    8.3609 C   0  0  0  0  0  0  0  0  0  0  0  0
   23.4211  -15.6449    9.7795 C   0  0  0  0  0  0  0  0  0  0  0  0
   22.4704  -15.7232   10.6948 N   0  0  0  0  0  0  0  0  0  0  0  0
   22.9070  -16.1116   11.8951 C   0  0  0  0  0  0  0  0  0  0  0  0
   22.2955  -16.3314   13.1293 C   0  0  0  0  0  0  0  0  0  0  0  0
   23.0080  -16.7420   14.2332 C   0  0  0  0  0  0  0  0  0  0  0  0
   24.3624  -16.9265   14.0594 C   0  0  0  0  0  0  0  0  0  0  0  0
   24.9828  -16.7152   12.8525 C   0  0  0  0  0  0  0  0  0  0  0  0
   24.2524  -16.2987   11.7376 C   0  0  0  0  0  0  0  0  0  0  0  0
   24.5652  -16.0245   10.4880 N   0  0  0  0  0  0  0  0  0  0  0  0
   25.0674   -9.3475    9.2184 C   0  0  0  0  0  0  0  0  0  0  0  0
   26.1670   -8.4976    9.0256 C   0  0  0  0  0  0  0  0  0  0  0  0
   27.5160   -6.2380    9.5005 O   0  0  0  0  0  0  0  0  0  0  0  0
   28.0036   -5.0700   10.0530 C   0  0  0  0  0  0  0  0  0  0  0  0
  2  1  1  0
  2  3  2  0
  4  2  1  0
  4  9  2  0
 34  4  1  0
  5  6  2  0
 16  5  1  0
  6  7  1  0
  7  8  1  0
  7 31  2  0
  8 17  1  0
  8 19  2  0
 10  9  1  0
 11 10  2  0
 12 11  1  0
 13 12  1  0
 12 34  2  0
 14 13  1  0
 13 18  2  0
 15 14  2  3
 14 33  1  0
 15 16  1  0
 16 32  2  0
 20 17  1  1
 20 21  1  0
 21 22  1  6
 22 23  2  0
 22 30  1  0
 23 24  1  0
 24 25  2  0
 24 29  1  0
 25 26  1  0
 26 27  2  0
 27 28  1  0
 28 29  2  0
 29 30  1  0
 31 32  1  0
 33 34  1  0
M  END
$$$$
