
     RDKit          3D

 34 38  0  0  0  0  0  0  0  0999 V2000
   26.0991   -4.4301   12.6734 N   0  0  0  0  0  0  0  0  0  0  0  0
   26.7735   -3.3034   12.1349 C   0  0  0  0  0  0  0  0  0  0  0  0
   26.6538   -2.1845   12.6832 O   0  0  0  0  0  0  0  0  0  0  0  0
   27.6016   -3.4529   10.9477 C   0  0  0  0  0  0  0  0  0  0  0  0
   27.0319  -10.3692    8.5347 C   0  0  0  0  0  0  0  0  0  0  0  0
   27.0194  -11.1562    7.3953 C   0  0  0  0  0  0  0  0  0  0  0  0
   27.0743  -10.5933    6.1389 C   0  0  0  0  0  0  0  0  0  0  0  0
   27.0610  -11.4436    4.9553 C   0  0  0  0  0  0  0  0  0  0  0  0
   28.3041   -2.3798   10.4500 C   0  0  0  0  0  0  0  0  0  0  0  0
   29.0939   -2.4934    9.3298 C   0  0  0  0  0  0  0  0  0  0  0  0
   29.1792   -3.7075    8.6984 C   0  0  0  0  0  0  0  0  0  0  0  0
   28.4714   -4.7746    9.2059 C   0  0  0  0  0  0  0  0  0  0  0  0
   28.3661   -6.1825    8.7518 C   0  0  0  0  0  0  0  0  0  0  0  0
   27.4768   -6.8754    9.6631 C   0  0  0  0  0  0  0  0  0  0  0  0
   27.0810   -8.1272    9.6634 C   0  0  0  0  0  0  0  0  0  0  0  0
   27.0976   -8.9953    8.4973 C   0  0  0  0  0  0  0  0  0  0  0  0
   27.0911  -12.8564    4.9816 N   0  0  0  0  0  0  0  0  0  0  0  0
   28.9604   -6.6516    7.7513 O   0  0  0  0  0  0  0  0  0  0  0  0
   27.0197  -10.9106    3.8156 O   0  0  0  0  0  0  0  0  0  0  0  0
   26.8781  -13.6716    3.8051 C   0  0  0  0  0  0  0  0  0  0  0  0
   25.4375  -13.8642    3.4536 C   0  0  0  0  0  0  0  0  0  0  0  0
   24.6350  -14.5046    4.5066 C   0  0  0  0  0  0  0  0  0  0  0  0
   24.5276  -15.8198    4.8222 N   0  0  0  0  0  0  0  0  0  0  0  0
   23.6775  -15.9782    5.8633 C   0  0  0  0  0  0  0  0  0  0  0  0
   23.2077  -17.0518    6.5782 C   0  0  0  0  0  0  0  0  0  0  0  0
   22.3189  -16.8910    7.6199 C   0  0  0  0  0  0  0  0  0  0  0  0
   21.8783  -15.6274    7.9682 C   0  0  0  0  0  0  0  0  0  0  0  0
   22.3591  -14.5602    7.2412 C   0  0  0  0  0  0  0  0  0  0  0  0
   23.2499  -14.7252    6.1977 C   0  0  0  0  0  0  0  0  0  0  0  0
   23.8381  -13.8473    5.3682 N   0  0  0  0  0  0  0  0  0  0  0  0
   27.1414   -9.2195    6.0880 C   0  0  0  0  0  0  0  0  0  0  0  0
   27.1538   -8.4301    7.2139 C   0  0  0  0  0  0  0  0  0  0  0  0
   27.0903   -5.9090   10.5985 O   0  0  0  0  0  0  0  0  0  0  0  0
   27.6802   -4.6913   10.3150 C   0  0  0  0  0  0  0  0  0  0  0  0
  2  1  1  0
  2  3  2  0
  4  2  1  0
  4  9  2  0
 34  4  1  0
  5  6  2  0
 16  5  1  0
  6  7  1  0
  7  8  1  0
  7 31  2  0
  8 17  1  0
  8 19  2  0
 10  9  1  0
 11 10  2  0
 12 11  1  0
 13 12  1  0
 12 34  2  0
 14 13  1  0
 13 18  2  0
 15 14  2  3
 14 33  1  0
 15 16  1  0
 16 32  2  0
 17 20  1  0
 20 21  1  0
 21 22  1  0
 22 23  2  0
 22 30  1  0
 23 24  1  0
 24 25  2  0
 24 29  1  0
 25 26  1  0
 26 27  2  0
 27 28  1  0
 28 29  2  0
 29 30  1  0
 31 32  1  0
 33 34  1  0
M  END
$$$$
