
     RDKit          3D

 34 38  0  0  0  0  0  0  0  0999 V2000
   25.9921   -5.7961   11.2851 N   0  0  0  0  0  0  0  0  0  0  0  0
   26.4000   -4.4862   11.6487 C   0  0  0  0  0  0  0  0  0  0  0  0
   25.7167   -3.8239   12.4619 O   0  0  0  0  0  0  0  0  0  0  0  0
   27.6108   -3.9181   11.0753 C   0  0  0  0  0  0  0  0  0  0  0  0
   27.2635   -8.4676    8.8811 C   0  0  0  0  0  0  0  0  0  0  0  0
   26.4577   -9.5871    9.0052 C   0  0  0  0  0  0  0  0  0  0  0  0
   26.4587  -10.5765    8.0462 C   0  0  0  0  0  0  0  0  0  0  0  0
   25.6023  -11.7456    8.2007 C   0  0  0  0  0  0  0  0  0  0  0  0
   28.1110   -2.7265   11.5470 C   0  0  0  0  0  0  0  0  0  0  0  0
   29.2531   -2.1674   11.0230 C   0  0  0  0  0  0  0  0  0  0  0  0
   29.9043   -2.8178   10.0065 C   0  0  0  0  0  0  0  0  0  0  0  0
   29.3940   -4.0101    9.5426 C   0  0  0  0  0  0  0  0  0  0  0  0
   29.8662   -4.9266    8.4766 C   0  0  0  0  0  0  0  0  0  0  0  0
   28.9412   -6.0408    8.4100 C   0  0  0  0  0  0  0  0  0  0  0  0
   28.9454   -7.0920    7.6235 C   0  0  0  0  0  0  0  0  0  0  0  0
   28.1063   -8.2641    7.8127 C   0  0  0  0  0  0  0  0  0  0  0  0
   24.4440  -11.7908    9.0094 N   0  0  0  0  0  0  0  0  0  0  0  0
   30.8921   -4.7358    7.7800 O   0  0  0  0  0  0  0  0  0  0  0  0
   25.8891  -12.8040    7.5825 O   0  0  0  0  0  0  0  0  0  0  0  0
   23.1067  -11.8926    8.4662 C   0  0  0  0  0  0  0  0  0  0  0  0
   22.4824  -13.2401    8.6404 C   0  0  0  0  0  0  0  0  0  0  0  0
   22.8492  -13.9232    9.8902 C   0  0  0  0  0  0  0  0  0  0  0  0
   22.6158  -13.5476   11.1729 N   0  0  0  0  0  0  0  0  0  0  0  0
   23.1240  -14.4682   12.0247 C   0  0  0  0  0  0  0  0  0  0  0  0
   23.1784  -14.6020   13.3898 C   0  0  0  0  0  0  0  0  0  0  0  0
   23.7849  -15.6882   13.9842 C   0  0  0  0  0  0  0  0  0  0  0  0
   24.3576  -16.6765   13.2047 C   0  0  0  0  0  0  0  0  0  0  0  0
   24.2947  -16.5277   11.8364 C   0  0  0  0  0  0  0  0  0  0  0  0
   23.6859  -15.4376   11.2442 C   0  0  0  0  0  0  0  0  0  0  0  0
   23.5109  -15.0924    9.9577 N   0  0  0  0  0  0  0  0  0  0  0  0
   27.2987  -10.3851    6.9727 C   0  0  0  0  0  0  0  0  0  0  0  0
   28.1017   -9.2766    6.8410 C   0  0  0  0  0  0  0  0  0  0  0  0
   27.9822   -5.7760    9.3942 O   0  0  0  0  0  0  0  0  0  0  0  0
   28.2633   -4.5881   10.0431 C   0  0  0  0  0  0  0  0  0  0  0  0
  2  1  1  0
  2  3  2  0
  4  2  1  0
  4  9  2  0
 34  4  1  0
  5  6  2  0
 16  5  1  0
  6  7  1  0
  7  8  1  0
  7 31  2  0
  8 17  1  0
  8 19  2  0
 10  9  1  0
 11 10  2  0
 12 11  1  0
 13 12  1  0
 12 34  2  0
 14 13  1  0
 13 18  2  0
 15 14  2  3
 14 33  1  0
 15 16  1  0
 16 32  2  0
 17 20  1  0
 20 21  1  0
 21 22  1  0
 22 23  2  0
 22 30  1  0
 23 24  1  0
 24 25  2  0
 24 29  1  0
 25 26  1  0
 26 27  2  0
 27 28  1  0
 28 29  2  0
 29 30  1  0
 31 32  1  0
 33 34  1  0
M  END
$$$$
