
     RDKit          3D

 34 38  0  0  0  0  0  0  0  0999 V2000
   26.1002   -6.0518   11.6002 N   0  0  0  0  0  0  0  0  0  0  0  0
   26.4697   -4.7224   11.9326 C   0  0  0  0  0  0  0  0  0  0  0  0
   25.9561   -4.1631   12.9278 O   0  0  0  0  0  0  0  0  0  0  0  0
   27.4441   -4.0146   11.1159 C   0  0  0  0  0  0  0  0  0  0  0  0
   27.4181   -8.7194    8.9263 C   0  0  0  0  0  0  0  0  0  0  0  0
   26.7530   -9.9047    9.1917 C   0  0  0  0  0  0  0  0  0  0  0  0
   26.2263  -10.6703    8.1743 C   0  0  0  0  0  0  0  0  0  0  0  0
   25.5317  -11.9146    8.4797 C   0  0  0  0  0  0  0  0  0  0  0  0
   27.9114   -2.7802   11.5038 C   0  0  0  0  0  0  0  0  0  0  0  0
   28.8320   -2.0896   10.7507 C   0  0  0  0  0  0  0  0  0  0  0  0
   29.2912   -2.6499    9.5865 C   0  0  0  0  0  0  0  0  0  0  0  0
   28.8161   -3.8862    9.2083 C   0  0  0  0  0  0  0  0  0  0  0  0
   29.1192   -4.7304    8.0273 C   0  0  0  0  0  0  0  0  0  0  0  0
   28.3285   -5.9407    8.1347 C   0  0  0  0  0  0  0  0  0  0  0  0
   28.2595   -6.9749    7.3289 C   0  0  0  0  0  0  0  0  0  0  0  0
   27.5976   -8.2280    7.6538 C   0  0  0  0  0  0  0  0  0  0  0  0
   24.9680  -12.7774    7.5125 N   0  0  0  0  0  0  0  0  0  0  0  0
   29.9261   -4.4167    7.1193 O   0  0  0  0  0  0  0  0  0  0  0  0
   25.4099  -12.2722    9.6805 O   0  0  0  0  0  0  0  0  0  0  0  0
   24.2481  -13.9845    7.8568 C   0  0  0  0  0  0  0  0  0  0  0  0
   22.9061  -13.7367    8.4679 C   0  0  0  0  0  0  0  0  0  0  0  0
   22.1012  -12.7189    7.7754 C   0  0  0  0  0  0  0  0  0  0  0  0
   21.8068  -11.4514    8.1596 N   0  0  0  0  0  0  0  0  0  0  0  0
   21.0332  -10.8521    7.2248 C   0  0  0  0  0  0  0  0  0  0  0  0
   20.4558   -9.6139    7.0911 C   0  0  0  0  0  0  0  0  0  0  0  0
   19.6965   -9.2878    5.9875 C   0  0  0  0  0  0  0  0  0  0  0  0
   19.4999  -10.2155    4.9810 C   0  0  0  0  0  0  0  0  0  0  0  0
   20.0859  -11.4536    5.1300 C   0  0  0  0  0  0  0  0  0  0  0  0
   20.8464  -11.7769    6.2376 C   0  0  0  0  0  0  0  0  0  0  0  0
   21.4983  -12.8985    6.5864 N   0  0  0  0  0  0  0  0  0  0  0  0
   26.4002  -10.1899    6.8962 C   0  0  0  0  0  0  0  0  0  0  0  0
   27.0586   -9.0139    6.6235 C   0  0  0  0  0  0  0  0  0  0  0  0
   27.6053   -5.7978    9.3242 O   0  0  0  0  0  0  0  0  0  0  0  0
   27.9030   -4.5940    9.9353 C   0  0  0  0  0  0  0  0  0  0  0  0
  2  1  1  0
  2  3  2  0
  4  2  1  0
  4  9  2  0
 34  4  1  0
  5  6  2  0
 16  5  1  0
  6  7  1  0
  7  8  1  0
  7 31  2  0
  8 17  1  0
  8 19  2  0
 10  9  1  0
 11 10  2  0
 12 11  1  0
 13 12  1  0
 12 34  2  0
 14 13  1  0
 13 18  2  0
 15 14  2  3
 14 33  1  0
 15 16  1  0
 16 32  2  0
 17 20  1  0
 20 21  1  0
 21 22  1  0
 22 23  2  0
 22 30  1  0
 23 24  1  0
 24 25  2  0
 24 29  1  0
 25 26  1  0
 26 27  2  0
 27 28  1  0
 28 29  2  0
 29 30  1  0
 31 32  1  0
 33 34  1  0
M  END
$$$$
