
     RDKit          3D

 34 38  0  0  0  0  0  0  0  0999 V2000
   28.8371   -6.2514    8.0289 N   0  0  0  0  0  0  0  0  0  0  0  0
   29.4287   -4.9975    8.3323 C   0  0  0  0  0  0  0  0  0  0  0  0
   30.3903   -4.5802    7.6482 O   0  0  0  0  0  0  0  0  0  0  0  0
   28.9151   -4.2016    9.4370 C   0  0  0  0  0  0  0  0  0  0  0  0
   26.5023   -8.7454   10.0560 C   0  0  0  0  0  0  0  0  0  0  0  0
   26.4702   -9.9505    9.3745 C   0  0  0  0  0  0  0  0  0  0  0  0
   25.2977  -10.6609    9.2364 C   0  0  0  0  0  0  0  0  0  0  0  0
   25.2901  -11.9263    8.5134 C   0  0  0  0  0  0  0  0  0  0  0  0
   29.4504   -2.9642    9.7105 C   0  0  0  0  0  0  0  0  0  0  0  0
   28.9841   -2.1915   10.7484 C   0  0  0  0  0  0  0  0  0  0  0  0
   27.9613   -2.6713   11.5254 C   0  0  0  0  0  0  0  0  0  0  0  0
   27.4334   -3.9115   11.2420 C   0  0  0  0  0  0  0  0  0  0  0  0
   26.3442   -4.6816   11.8900 C   0  0  0  0  0  0  0  0  0  0  0  0
   26.2052   -5.9360   11.1769 C   0  0  0  0  0  0  0  0  0  0  0  0
   25.3802   -6.9357   11.3860 C   0  0  0  0  0  0  0  0  0  0  0  0
   25.3892   -8.1804   10.6346 C   0  0  0  0  0  0  0  0  0  0  0  0
   24.8526  -13.1568    9.0539 N   0  0  0  0  0  0  0  0  0  0  0  0
   25.6827   -4.2808   12.8779 O   0  0  0  0  0  0  0  0  0  0  0  0
   25.6956  -11.9564    7.3221 O   0  0  0  0  0  0  0  0  0  0  0  0
   23.5759  -13.7532    8.7245 C   0  0  0  0  0  0  0  0  0  0  0  0
   23.1140  -14.7795    9.7089 C   0  0  0  0  0  0  0  0  0  0  0  0
   23.8525  -16.0503    9.6541 C   0  0  0  0  0  0  0  0  0  0  0  0
   23.6610  -17.1187    8.8400 N   0  0  0  0  0  0  0  0  0  0  0  0
   24.5655  -18.0847    9.1232 C   0  0  0  0  0  0  0  0  0  0  0  0
   24.8320  -19.3388    8.6329 C   0  0  0  0  0  0  0  0  0  0  0  0
   25.8544  -20.1102    9.1434 C   0  0  0  0  0  0  0  0  0  0  0  0
   26.6409  -19.6276   10.1733 C   0  0  0  0  0  0  0  0  0  0  0  0
   26.3608  -18.3673   10.6544 C   0  0  0  0  0  0  0  0  0  0  0  0
   25.3352  -17.5969   10.1402 C   0  0  0  0  0  0  0  0  0  0  0  0
   24.8908  -16.3671   10.4484 N   0  0  0  0  0  0  0  0  0  0  0  0
   24.1765  -10.1055    9.8100 C   0  0  0  0  0  0  0  0  0  0  0  0
   24.1991   -8.9099   10.4889 C   0  0  0  0  0  0  0  0  0  0  0  0
   27.1702   -5.8874   10.1647 O   0  0  0  0  0  0  0  0  0  0  0  0
   27.8759   -4.6998   10.2192 C   0  0  0  0  0  0  0  0  0  0  0  0
  2  1  1  0
  2  3  2  0
  4  2  1  0
  4  9  2  0
 34  4  1  0
  5  6  2  0
 16  5  1  0
  6  7  1  0
  7  8  1  0
  7 31  2  0
  8 17  1  0
  8 19  2  0
 10  9  1  0
 11 10  2  0
 12 11  1  0
 13 12  1  0
 12 34  2  0
 14 13  1  0
 13 18  2  0
 15 14  2  3
 14 33  1  0
 15 16  1  0
 16 32  2  0
 17 20  1  0
 20 21  1  0
 21 22  1  0
 22 23  2  0
 22 30  1  0
 23 24  1  0
 24 25  2  0
 24 29  1  0
 25 26  1  0
 26 27  2  0
 27 28  1  0
 28 29  2  0
 29 30  1  0
 31 32  1  0
 33 34  1  0
M  END
$$$$
