
     RDKit          3D

 34 38  0  0  0  0  0  0  0  0999 V2000
   26.2477   -6.5706   11.3262 N   0  0  0  0  0  0  0  0  0  0  0  0
   26.4606   -5.2300   11.7228 C   0  0  0  0  0  0  0  0  0  0  0  0
   25.7933   -4.6697   12.6310 O   0  0  0  0  0  0  0  0  0  0  0  0
   27.5132   -4.4782   11.0291 C   0  0  0  0  0  0  0  0  0  0  0  0
   27.5350   -9.0512    8.9807 C   0  0  0  0  0  0  0  0  0  0  0  0
   27.1092  -10.2914    9.4309 C   0  0  0  0  0  0  0  0  0  0  0  0
   27.7872  -11.4430    9.0517 C   0  0  0  0  0  0  0  0  0  0  0  0
   27.2904  -12.7184    9.5561 C   0  0  0  0  0  0  0  0  0  0  0  0
   27.8316   -3.1844   11.3783 C   0  0  0  0  0  0  0  0  0  0  0  0
   28.8168   -2.4643   10.7376 C   0  0  0  0  0  0  0  0  0  0  0  0
   29.4982   -3.0798    9.7105 C   0  0  0  0  0  0  0  0  0  0  0  0
   29.1840   -4.3850    9.3510 C   0  0  0  0  0  0  0  0  0  0  0  0
   29.7268   -5.2891    8.3156 C   0  0  0  0  0  0  0  0  0  0  0  0
   29.0055   -6.5452    8.4043 C   0  0  0  0  0  0  0  0  0  0  0  0
   29.1164   -7.6684    7.7063 C   0  0  0  0  0  0  0  0  0  0  0  0
   28.6387   -8.9538    8.1505 C   0  0  0  0  0  0  0  0  0  0  0  0
   26.5130  -12.7940   10.7066 N   0  0  0  0  0  0  0  0  0  0  0  0
   30.6359   -4.9964    7.5248 O   0  0  0  0  0  0  0  0  0  0  0  0
   27.5748  -13.7796    8.9304 O   0  0  0  0  0  0  0  0  0  0  0  0
   25.8713  -13.8318   11.3943 C   0  0  0  0  0  0  0  0  0  0  0  0
   24.4418  -14.0790   11.4070 C   0  0  0  0  0  0  0  0  0  0  0  0
   23.5341  -13.0407   10.9138 C   0  0  0  0  0  0  0  0  0  0  0  0
   22.8388  -12.8273    9.8099 N   0  0  0  0  0  0  0  0  0  0  0  0
   22.1293  -11.6965    9.8285 C   0  0  0  0  0  0  0  0  0  0  0  0
   21.2720  -11.0701    8.9242 C   0  0  0  0  0  0  0  0  0  0  0  0
   20.6563   -9.8731    9.2124 C   0  0  0  0  0  0  0  0  0  0  0  0
   20.9294   -9.3202   10.4447 C   0  0  0  0  0  0  0  0  0  0  0  0
   21.7707   -9.9216   11.3485 C   0  0  0  0  0  0  0  0  0  0  0  0
   22.3911  -11.1359   11.0480 C   0  0  0  0  0  0  0  0  0  0  0  0
   23.2220  -11.9251   11.6970 N   0  0  0  0  0  0  0  0  0  0  0  0
   28.8654  -11.3532    8.2419 C   0  0  0  0  0  0  0  0  0  0  0  0
   29.2947  -10.0968    7.7882 C   0  0  0  0  0  0  0  0  0  0  0  0
   28.0802   -6.3605    9.4567 O   0  0  0  0  0  0  0  0  0  0  0  0
   28.2087   -5.0924    9.9883 C   0  0  0  0  0  0  0  0  0  0  0  0
  2  1  1  0
  2  3  2  0
  4  2  1  0
  4  9  2  0
 34  4  1  0
  5  6  2  0
 16  5  1  0
  6  7  1  0
  7  8  1  0
  7 31  2  0
  8 17  1  0
  8 19  2  0
 10  9  1  0
 11 10  2  0
 12 11  1  0
 13 12  1  0
 12 34  2  0
 14 13  1  0
 13 18  2  0
 15 14  2  3
 14 33  1  0
 15 16  1  0
 16 32  2  0
 20 17  1  1
 20 21  1  0
 21 22  1  6
 22 23  2  0
 22 30  1  0
 23 24  1  0
 24 25  2  0
 24 29  1  0
 25 26  1  0
 26 27  2  0
 27 28  1  0
 28 29  2  0
 29 30  1  0
 31 32  1  0
 33 34  1  0
M  END
$$$$
