
     RDKit          3D

 34 38  0  0  0  0  0  0  0  0999 V2000
   25.5661   -5.6915   11.1411 N   0  0  0  0  0  0  0  0  0  0  0  0
   26.0765   -4.4317   11.5495 C   0  0  0  0  0  0  0  0  0  0  0  0
   25.4409   -3.7402   12.3770 O   0  0  0  0  0  0  0  0  0  0  0  0
   27.3366   -3.9487   11.0052 C   0  0  0  0  0  0  0  0  0  0  0  0
   26.3640   -8.1980    8.3781 C   0  0  0  0  0  0  0  0  0  0  0  0
   25.4561   -9.2415    8.4461 C   0  0  0  0  0  0  0  0  0  0  0  0
   25.7142  -10.4521    7.8408 C   0  0  0  0  0  0  0  0  0  0  0  0
   24.7428  -11.5352    7.9281 C   0  0  0  0  0  0  0  0  0  0  0  0
   27.9055   -2.7929   11.4881 C   0  0  0  0  0  0  0  0  0  0  0  0
   29.0953   -2.3141   10.9915 C   0  0  0  0  0  0  0  0  0  0  0  0
   29.7248   -3.0096    9.9914 C   0  0  0  0  0  0  0  0  0  0  0  0
   29.1458   -4.1653    9.5159 C   0  0  0  0  0  0  0  0  0  0  0  0
   29.5799   -5.1143    8.4622 C   0  0  0  0  0  0  0  0  0  0  0  0
   28.5829   -6.1630    8.3739 C   0  0  0  0  0  0  0  0  0  0  0  0
   28.5344   -7.2137    7.5883 C   0  0  0  0  0  0  0  0  0  0  0  0
   27.5655   -8.2905    7.7139 C   0  0  0  0  0  0  0  0  0  0  0  0
   24.9949  -12.8721    7.5449 N   0  0  0  0  0  0  0  0  0  0  0  0
   30.6328   -4.9953    7.7904 O   0  0  0  0  0  0  0  0  0  0  0  0
   23.5901  -11.2932    8.3722 O   0  0  0  0  0  0  0  0  0  0  0  0
   23.9712  -13.7464    7.0142 C   0  0  0  0  0  0  0  0  0  0  0  0
   24.4558  -15.1251    6.6975 C   0  0  0  0  0  0  0  0  0  0  0  0
   24.6384  -15.9904    7.8729 C   0  0  0  0  0  0  0  0  0  0  0  0
   25.7854  -16.3545    8.4994 N   0  0  0  0  0  0  0  0  0  0  0  0
   25.5041  -17.1659    9.5454 C   0  0  0  0  0  0  0  0  0  0  0  0
   26.2491  -17.8136   10.4992 C   0  0  0  0  0  0  0  0  0  0  0  0
   25.6571  -18.5961   11.4678 C   0  0  0  0  0  0  0  0  0  0  0  0
   24.2825  -18.7448   11.4962 C   0  0  0  0  0  0  0  0  0  0  0  0
   23.5489  -18.0884   10.5321 C   0  0  0  0  0  0  0  0  0  0  0  0
   24.1458  -17.3049    9.5629 C   0  0  0  0  0  0  0  0  0  0  0  0
   23.6389  -16.5883    8.5458 N   0  0  0  0  0  0  0  0  0  0  0  0
   26.9136  -10.5576    7.1740 C   0  0  0  0  0  0  0  0  0  0  0  0
   27.8207   -9.5268    7.1007 C   0  0  0  0  0  0  0  0  0  0  0  0
   27.6208   -5.8313    9.3345 O   0  0  0  0  0  0  0  0  0  0  0  0
   27.9666   -4.6639    9.9894 C   0  0  0  0  0  0  0  0  0  0  0  0
  2  1  1  0
  2  3  2  0
  4  2  1  0
  4  9  2  0
 34  4  1  0
  5  6  2  0
 16  5  1  0
  6  7  1  0
  7  8  1  0
  7 31  2  0
  8 17  1  0
  8 19  2  0
 10  9  1  0
 11 10  2  0
 12 11  1  0
 13 12  1  0
 12 34  2  0
 14 13  1  0
 13 18  2  0
 15 14  2  3
 14 33  1  0
 15 16  1  0
 16 32  2  0
 17 20  1  0
 20 21  1  0
 21 22  1  0
 22 23  2  0
 22 30  1  0
 23 24  1  0
 24 25  2  0
 24 29  1  0
 25 26  1  0
 26 27  2  0
 27 28  1  0
 28 29  2  0
 29 30  1  0
 31 32  1  0
 33 34  1  0
M  END
$$$$
