
     RDKit          3D

 34 38  0  0  0  0  0  0  0  0999 V2000
   25.7589   -6.1342   11.0625 N   0  0  0  0  0  0  0  0  0  0  0  0
   26.1155   -4.9174   11.7000 C   0  0  0  0  0  0  0  0  0  0  0  0
   25.4803   -4.5321   12.7075 O   0  0  0  0  0  0  0  0  0  0  0  0
   27.2181   -4.1224   11.1806 C   0  0  0  0  0  0  0  0  0  0  0  0
   27.0174   -8.1739    8.0388 C   0  0  0  0  0  0  0  0  0  0  0  0
   26.4850   -9.4521    8.0591 C   0  0  0  0  0  0  0  0  0  0  0  0
   27.0020  -10.4529    7.2656 C   0  0  0  0  0  0  0  0  0  0  0  0
   26.4245  -11.7904    7.3063 C   0  0  0  0  0  0  0  0  0  0  0  0
   27.6188   -2.9791   11.8324 C   0  0  0  0  0  0  0  0  0  0  0  0
   28.6575   -2.2093   11.3631 C   0  0  0  0  0  0  0  0  0  0  0  0
   29.3052   -2.5957   10.2180 C   0  0  0  0  0  0  0  0  0  0  0  0
   28.8951   -3.7422    9.5741 C   0  0  0  0  0  0  0  0  0  0  0  0
   29.3903   -4.4014    8.3414 C   0  0  0  0  0  0  0  0  0  0  0  0
   28.5868   -5.5878    8.1214 C   0  0  0  0  0  0  0  0  0  0  0  0
   28.6507   -6.4811    7.1614 C   0  0  0  0  0  0  0  0  0  0  0  0
   28.0792   -7.8157    7.2404 C   0  0  0  0  0  0  0  0  0  0  0  0
   25.5323  -12.2495    8.3018 N   0  0  0  0  0  0  0  0  0  0  0  0
   30.3415   -3.9760    7.6425 O   0  0  0  0  0  0  0  0  0  0  0  0
   26.7226  -12.6167    6.4046 O   0  0  0  0  0  0  0  0  0  0  0  0
   24.1223  -11.9240    8.3076 C   0  0  0  0  0  0  0  0  0  0  0  0
   23.3599  -12.5510    9.4308 C   0  0  0  0  0  0  0  0  0  0  0  0
   23.6528  -13.9767    9.6432 C   0  0  0  0  0  0  0  0  0  0  0  0
   24.5769  -14.5504   10.4543 N   0  0  0  0  0  0  0  0  0  0  0  0
   24.5131  -15.8980   10.3482 C   0  0  0  0  0  0  0  0  0  0  0  0
   25.1878  -16.9495   10.9169 C   0  0  0  0  0  0  0  0  0  0  0  0
   24.8864  -18.2566   10.5980 C   0  0  0  0  0  0  0  0  0  0  0  0
   23.8848  -18.5359    9.6864 C   0  0  0  0  0  0  0  0  0  0  0  0
   23.2170  -17.4697    9.1244 C   0  0  0  0  0  0  0  0  0  0  0  0
   23.5219  -16.1609    9.4465 C   0  0  0  0  0  0  0  0  0  0  0  0
   23.0130  -14.9891    9.0309 N   0  0  0  0  0  0  0  0  0  0  0  0
   28.0655  -10.1074    6.4631 C   0  0  0  0  0  0  0  0  0  0  0  0
   28.6002   -8.8408    6.4359 C   0  0  0  0  0  0  0  0  0  0  0  0
   27.6727   -5.6090    9.1807 O   0  0  0  0  0  0  0  0  0  0  0  0
   27.8682   -4.5252   10.0164 C   0  0  0  0  0  0  0  0  0  0  0  0
  2  1  1  0
  2  3  2  0
  4  2  1  0
  4  9  2  0
 34  4  1  0
  5  6  2  0
 16  5  1  0
  6  7  1  0
  7  8  1  0
  7 31  2  0
  8 17  1  0
  8 19  2  0
 10  9  1  0
 11 10  2  0
 12 11  1  0
 13 12  1  0
 12 34  2  0
 14 13  1  0
 13 18  2  0
 15 14  2  3
 14 33  1  0
 15 16  1  0
 16 32  2  0
 17 20  1  0
 20 21  1  0
 21 22  1  0
 22 23  2  0
 22 30  1  0
 23 24  1  0
 24 25  2  0
 24 29  1  0
 25 26  1  0
 26 27  2  0
 27 28  1  0
 28 29  2  0
 29 30  1  0
 31 32  1  0
 33 34  1  0
M  END
$$$$
