
     RDKit          3D

 34 38  0  0  0  0  0  0  0  0999 V2000
   25.7299   -6.2610   11.3554 N   0  0  0  0  0  0  0  0  0  0  0  0
   25.9369   -4.9035   11.6933 C   0  0  0  0  0  0  0  0  0  0  0  0
   25.1370   -4.2455   12.4086 O   0  0  0  0  0  0  0  0  0  0  0  0
   27.1465   -4.2538   11.1746 C   0  0  0  0  0  0  0  0  0  0  0  0
   28.3181   -9.9072    7.6118 C   0  0  0  0  0  0  0  0  0  0  0  0
   27.4300  -10.9675    7.7079 C   0  0  0  0  0  0  0  0  0  0  0  0
   26.2155  -10.8047    8.3622 C   0  0  0  0  0  0  0  0  0  0  0  0
   25.3242  -11.9573    8.4322 C   0  0  0  0  0  0  0  0  0  0  0  0
   27.5352   -3.0013   11.5954 C   0  0  0  0  0  0  0  0  0  0  0  0
   28.6678   -2.3770   11.1187 C   0  0  0  0  0  0  0  0  0  0  0  0
   29.4273   -3.0479   10.1854 C   0  0  0  0  0  0  0  0  0  0  0  0
   29.0430   -4.3123    9.7547 C   0  0  0  0  0  0  0  0  0  0  0  0
   29.6392   -5.2565    8.7867 C   0  0  0  0  0  0  0  0  0  0  0  0
   28.7941   -6.4355    8.7425 C   0  0  0  0  0  0  0  0  0  0  0  0
   28.8951   -7.5579    8.0417 C   0  0  0  0  0  0  0  0  0  0  0  0
   27.9991   -8.6799    8.1677 C   0  0  0  0  0  0  0  0  0  0  0  0
   24.3295  -12.0517    9.3994 N   0  0  0  0  0  0  0  0  0  0  0  0
   30.6770   -5.0486    8.1408 O   0  0  0  0  0  0  0  0  0  0  0  0
   25.4613  -12.8921    7.5921 O   0  0  0  0  0  0  0  0  0  0  0  0
   22.9566  -12.3279    9.3755 C   0  0  0  0  0  0  0  0  0  0  0  0
   22.3618  -13.6346    9.1669 C   0  0  0  0  0  0  0  0  0  0  0  0
   23.2304  -14.8125    9.1087 C   0  0  0  0  0  0  0  0  0  0  0  0
   23.7230  -15.5883    8.1584 N   0  0  0  0  0  0  0  0  0  0  0  0
   24.4978  -16.5753    8.6145 C   0  0  0  0  0  0  0  0  0  0  0  0
   25.2137  -17.6091    8.0111 C   0  0  0  0  0  0  0  0  0  0  0  0
   25.9506  -18.5108    8.7450 C   0  0  0  0  0  0  0  0  0  0  0  0
   25.9470  -18.3421   10.1126 C   0  0  0  0  0  0  0  0  0  0  0  0
   25.2484  -17.3307   10.7253 C   0  0  0  0  0  0  0  0  0  0  0  0
   24.5034  -16.4202    9.9731 C   0  0  0  0  0  0  0  0  0  0  0  0
   23.7554  -15.3789   10.2743 N   0  0  0  0  0  0  0  0  0  0  0  0
   25.8993   -9.6086    8.9060 C   0  0  0  0  0  0  0  0  0  0  0  0
   26.7994   -8.5370    8.8069 C   0  0  0  0  0  0  0  0  0  0  0  0
   27.7490   -6.1691    9.6561 O   0  0  0  0  0  0  0  0  0  0  0  0
   27.9220   -4.9248   10.2297 C   0  0  0  0  0  0  0  0  0  0  0  0
  2  1  1  0
  2  3  2  0
  4  2  1  0
  4  9  2  0
 34  4  1  0
  5  6  2  0
 16  5  1  0
  6  7  1  0
  7  8  1  0
  7 31  2  0
  8 17  1  0
  8 19  2  0
 10  9  1  0
 11 10  2  0
 12 11  1  0
 13 12  1  0
 12 34  2  0
 14 13  1  0
 13 18  2  0
 15 14  2  3
 14 33  1  0
 15 16  1  0
 16 32  2  0
 20 17  1  1
 20 21  1  0
 21 22  1  6
 22 23  2  0
 22 30  1  0
 23 24  1  0
 24 25  2  0
 24 29  1  0
 25 26  1  0
 26 27  2  0
 27 28  1  0
 28 29  2  0
 29 30  1  0
 31 32  1  0
 33 34  1  0
M  END
$$$$
