
     RDKit          3D

 34 38  0  0  0  0  0  0  0  0999 V2000
   26.0386   -6.5892   12.1214 N   0  0  0  0  0  0  0  0  0  0  0  0
   26.3207   -5.2296   12.3895 C   0  0  0  0  0  0  0  0  0  0  0  0
   25.8088   -4.6003   13.3518 O   0  0  0  0  0  0  0  0  0  0  0  0
   27.2558   -4.5425   11.4907 C   0  0  0  0  0  0  0  0  0  0  0  0
   26.5506   -9.0168    9.5413 C   0  0  0  0  0  0  0  0  0  0  0  0
   25.8701  -10.1409    9.9832 C   0  0  0  0  0  0  0  0  0  0  0  0
   26.2444  -11.4033    9.5407 C   0  0  0  0  0  0  0  0  0  0  0  0
   25.4892  -12.5472   10.0396 C   0  0  0  0  0  0  0  0  0  0  0  0
   27.6202   -3.2291   11.6884 C   0  0  0  0  0  0  0  0  0  0  0  0
   28.4967   -2.5689   10.8543 C   0  0  0  0  0  0  0  0  0  0  0  0
   29.0177   -3.2669    9.7869 C   0  0  0  0  0  0  0  0  0  0  0  0
   28.6558   -4.5926    9.5793 C   0  0  0  0  0  0  0  0  0  0  0  0
   29.0391   -5.5776    8.5464 C   0  0  0  0  0  0  0  0  0  0  0  0
   28.3418   -6.8166    8.8378 C   0  0  0  0  0  0  0  0  0  0  0  0
   28.3492   -7.9905    8.2188 C   0  0  0  0  0  0  0  0  0  0  0  0
   27.6075   -9.1464    8.6563 C   0  0  0  0  0  0  0  0  0  0  0  0
   25.9412  -13.8508    9.8656 N   0  0  0  0  0  0  0  0  0  0  0  0
   29.8187   -5.3544    7.6084 O   0  0  0  0  0  0  0  0  0  0  0  0
   24.3974  -12.3463   10.6445 O   0  0  0  0  0  0  0  0  0  0  0  0
   25.3918  -15.1204   10.0845 C   0  0  0  0  0  0  0  0  0  0  0  0
   25.4738  -16.2448    9.1713 C   0  0  0  0  0  0  0  0  0  0  0  0
   24.9295  -16.1060    7.8186 C   0  0  0  0  0  0  0  0  0  0  0  0
   23.7531  -16.2807    7.2412 N   0  0  0  0  0  0  0  0  0  0  0  0
   23.7489  -16.0146    5.9330 C   0  0  0  0  0  0  0  0  0  0  0  0
   22.7753  -16.0525    4.9349 C   0  0  0  0  0  0  0  0  0  0  0  0
   23.0553  -15.7156    3.6299 C   0  0  0  0  0  0  0  0  0  0  0  0
   24.3514  -15.3368    3.3554 C   0  0  0  0  0  0  0  0  0  0  0  0
   25.3240  -15.2933    4.3241 C   0  0  0  0  0  0  0  0  0  0  0  0
   25.0312  -15.6367    5.6456 C   0  0  0  0  0  0  0  0  0  0  0  0
   25.7370  -15.6881    6.7563 N   0  0  0  0  0  0  0  0  0  0  0  0
   27.2756  -11.5352    8.6773 C   0  0  0  0  0  0  0  0  0  0  0  0
   27.9632  -10.3960    8.2321 C   0  0  0  0  0  0  0  0  0  0  0  0
   27.5844   -6.5439    9.9995 O   0  0  0  0  0  0  0  0  0  0  0  0
   27.7886   -5.2404   10.4075 C   0  0  0  0  0  0  0  0  0  0  0  0
  2  1  1  0
  2  3  2  0
  4  2  1  0
  4  9  2  0
 34  4  1  0
  5  6  2  0
 16  5  1  0
  6  7  1  0
  7  8  1  0
  7 31  2  0
  8 17  1  0
  8 19  2  0
 10  9  1  0
 11 10  2  0
 12 11  1  0
 13 12  1  0
 12 34  2  0
 14 13  1  0
 13 18  2  0
 15 14  2  3
 14 33  1  0
 15 16  1  0
 16 32  2  0
 20 17  1  1
 20 21  1  0
 21 22  1  6
 22 23  2  0
 22 30  1  0
 23 24  1  0
 24 25  2  0
 24 29  1  0
 25 26  1  0
 26 27  2  0
 27 28  1  0
 28 29  2  0
 29 30  1  0
 31 32  1  0
 33 34  1  0
M  END
$$$$
