
     RDKit          3D

 34 38  0  0  0  0  0  0  0  0999 V2000
   25.6862   -4.7594   12.2370 N   0  0  0  0  0  0  0  0  0  0  0  0
   26.2551   -3.4748   12.0755 C   0  0  0  0  0  0  0  0  0  0  0  0
   25.9857   -2.5058   12.8322 O   0  0  0  0  0  0  0  0  0  0  0  0
   27.1999   -3.2875   10.9679 C   0  0  0  0  0  0  0  0  0  0  0  0
   27.5152   -7.5523    6.4346 C   0  0  0  0  0  0  0  0  0  0  0  0
   27.3848   -8.1255    5.1789 C   0  0  0  0  0  0  0  0  0  0  0  0
   26.9562   -9.4407    5.0522 C   0  0  0  0  0  0  0  0  0  0  0  0
   26.8405   -9.9883    3.7052 C   0  0  0  0  0  0  0  0  0  0  0  0
   27.8125   -2.0764   10.7332 C   0  0  0  0  0  0  0  0  0  0  0  0
   28.7017   -1.8833    9.6980 C   0  0  0  0  0  0  0  0  0  0  0  0
   28.9755   -2.9553    8.8771 C   0  0  0  0  0  0  0  0  0  0  0  0
   28.3623   -4.1814    9.1062 C   0  0  0  0  0  0  0  0  0  0  0  0
   28.4535   -5.4834    8.4131 C   0  0  0  0  0  0  0  0  0  0  0  0
   27.5794   -6.4133    9.1040 C   0  0  0  0  0  0  0  0  0  0  0  0
   27.3119   -7.6935    8.8792 C   0  0  0  0  0  0  0  0  0  0  0  0
   27.2187   -8.2881    7.5694 C   0  0  0  0  0  0  0  0  0  0  0  0
   27.4102  -11.2101    3.3638 N   0  0  0  0  0  0  0  0  0  0  0  0
   29.1589   -5.7093    7.4187 O   0  0  0  0  0  0  0  0  0  0  0  0
   26.2065   -9.3345    2.8282 O   0  0  0  0  0  0  0  0  0  0  0  0
   27.2544  -12.1051    2.2978 C   0  0  0  0  0  0  0  0  0  0  0  0
   26.4478  -13.3109    2.3186 C   0  0  0  0  0  0  0  0  0  0  0  0
   25.4799  -13.5028    3.4010 C   0  0  0  0  0  0  0  0  0  0  0  0
   24.2319  -13.1384    3.6402 N   0  0  0  0  0  0  0  0  0  0  0  0
   23.7571  -13.5732    4.8098 C   0  0  0  0  0  0  0  0  0  0  0  0
   22.5368  -13.4458    5.4731 C   0  0  0  0  0  0  0  0  0  0  0  0
   22.3144  -14.0149    6.7066 C   0  0  0  0  0  0  0  0  0  0  0  0
   23.3617  -14.7207    7.2579 C   0  0  0  0  0  0  0  0  0  0  0  0
   24.5706  -14.8573    6.6206 C   0  0  0  0  0  0  0  0  0  0  0  0
   24.7876  -14.2767    5.3693 C   0  0  0  0  0  0  0  0  0  0  0  0
   25.8115  -14.2400    4.5419 N   0  0  0  0  0  0  0  0  0  0  0  0
   26.6650  -10.1629    6.1567 C   0  0  0  0  0  0  0  0  0  0  0  0
   26.7972   -9.5804    7.4263 C   0  0  0  0  0  0  0  0  0  0  0  0
   27.0079   -5.6627   10.1565 O   0  0  0  0  0  0  0  0  0  0  0  0
   27.4836   -4.3665   10.1316 C   0  0  0  0  0  0  0  0  0  0  0  0
  2  1  1  0
  2  3  2  0
  4  2  1  0
  4  9  2  0
 34  4  1  0
  5  6  2  0
 16  5  1  0
  6  7  1  0
  7  8  1  0
  7 31  2  0
  8 17  1  0
  8 19  2  0
 10  9  1  0
 11 10  2  0
 12 11  1  0
 13 12  1  0
 12 34  2  0
 14 13  1  0
 13 18  2  0
 15 14  2  3
 14 33  1  0
 15 16  1  0
 16 32  2  0
 20 17  1  1
 20 21  1  0
 21 22  1  6
 22 23  2  0
 22 30  1  0
 23 24  1  0
 24 25  2  0
 24 29  1  0
 25 26  1  0
 26 27  2  0
 27 28  1  0
 28 29  2  0
 29 30  1  0
 31 32  1  0
 33 34  1  0
M  END
$$$$
