
     RDKit          3D

 34 38  0  0  0  0  0  0  0  0999 V2000
   25.6698   -6.1938   11.2660 N   0  0  0  0  0  0  0  0  0  0  0  0
   25.9885   -4.9139   11.7900 C   0  0  0  0  0  0  0  0  0  0  0  0
   25.2123   -4.3619   12.6022 O   0  0  0  0  0  0  0  0  0  0  0  0
   27.2163   -4.2482   11.3814 C   0  0  0  0  0  0  0  0  0  0  0  0
   27.7074   -8.6610    6.2356 C   0  0  0  0  0  0  0  0  0  0  0  0
   26.7850   -9.6871    6.1167 C   0  0  0  0  0  0  0  0  0  0  0  0
   25.9097   -9.9815    7.1393 C   0  0  0  0  0  0  0  0  0  0  0  0
   24.9475  -11.0658    6.9890 C   0  0  0  0  0  0  0  0  0  0  0  0
   27.6685   -3.1427   12.0642 C   0  0  0  0  0  0  0  0  0  0  0  0
   28.8253   -2.4945   11.6992 C   0  0  0  0  0  0  0  0  0  0  0  0
   29.5406   -2.9659   10.6286 C   0  0  0  0  0  0  0  0  0  0  0  0
   29.0781   -4.0734    9.9528 C   0  0  0  0  0  0  0  0  0  0  0  0
   29.6224   -4.8014    8.7810 C   0  0  0  0  0  0  0  0  0  0  0  0
   28.7235   -5.9001    8.4869 C   0  0  0  0  0  0  0  0  0  0  0  0
   28.7887   -6.8110    7.5436 C   0  0  0  0  0  0  0  0  0  0  0  0
   27.8166   -7.8765    7.3606 C   0  0  0  0  0  0  0  0  0  0  0  0
   23.9176  -11.3586    7.9117 N   0  0  0  0  0  0  0  0  0  0  0  0
   30.6792   -4.4902    8.1806 O   0  0  0  0  0  0  0  0  0  0  0  0
   25.0133  -11.8104    5.9762 O   0  0  0  0  0  0  0  0  0  0  0  0
   22.9337  -12.3966    7.6918 C   0  0  0  0  0  0  0  0  0  0  0  0
   23.3988  -13.7644    8.0775 C   0  0  0  0  0  0  0  0  0  0  0  0
   23.6462  -13.9391    9.5168 C   0  0  0  0  0  0  0  0  0  0  0  0
   24.8257  -14.0708   10.1741 N   0  0  0  0  0  0  0  0  0  0  0  0
   24.6030  -14.2104   11.5017 C   0  0  0  0  0  0  0  0  0  0  0  0
   25.3993  -14.3747   12.6076 C   0  0  0  0  0  0  0  0  0  0  0  0
   24.8621  -14.4922   13.8719 C   0  0  0  0  0  0  0  0  0  0  0  0
   23.4917  -14.4462   14.0512 C   0  0  0  0  0  0  0  0  0  0  0  0
   22.7060  -14.2808   12.9314 C   0  0  0  0  0  0  0  0  0  0  0  0
   23.2481  -14.1633   11.6657 C   0  0  0  0  0  0  0  0  0  0  0  0
   22.6858  -13.9991   10.4567 N   0  0  0  0  0  0  0  0  0  0  0  0
   26.0082   -9.2029    8.2700 C   0  0  0  0  0  0  0  0  0  0  0  0
   26.9212   -8.1825    8.3970 C   0  0  0  0  0  0  0  0  0  0  0  0
   27.7099   -5.8073    9.4472 O   0  0  0  0  0  0  0  0  0  0  0  0
   27.9342   -4.7364   10.2922 C   0  0  0  0  0  0  0  0  0  0  0  0
  2  1  1  0
  2  3  2  0
  4  2  1  0
  4  9  2  0
 34  4  1  0
  5  6  2  0
 16  5  1  0
  6  7  1  0
  7  8  1  0
  7 31  2  0
  8 17  1  0
  8 19  2  0
 10  9  1  0
 11 10  2  0
 12 11  1  0
 13 12  1  0
 12 34  2  0
 14 13  1  0
 13 18  2  0
 15 14  2  3
 14 33  1  0
 15 16  1  0
 16 32  2  0
 17 20  1  0
 20 21  1  0
 21 22  1  0
 22 23  2  0
 22 30  1  0
 23 24  1  0
 24 25  2  0
 24 29  1  0
 25 26  1  0
 26 27  2  0
 27 28  1  0
 28 29  2  0
 29 30  1  0
 31 32  1  0
 33 34  1  0
M  END
$$$$
