
     RDKit          3D

 34 38  0  0  0  0  0  0  0  0999 V2000
   29.2003   -5.8795    8.0766 N   0  0  0  0  0  0  0  0  0  0  0  0
   29.2909   -4.4646    8.1403 C   0  0  0  0  0  0  0  0  0  0  0  0
   30.0270   -3.8503    7.3355 O   0  0  0  0  0  0  0  0  0  0  0  0
   28.5279   -3.7332    9.1405 C   0  0  0  0  0  0  0  0  0  0  0  0
   24.7495   -9.0882   11.3108 C   0  0  0  0  0  0  0  0  0  0  0  0
   24.2197  -10.0469   10.4634 C   0  0  0  0  0  0  0  0  0  0  0  0
   24.6864  -10.1971    9.1758 C   0  0  0  0  0  0  0  0  0  0  0  0
   24.1128  -11.2145    8.3039 C   0  0  0  0  0  0  0  0  0  0  0  0
   28.5559   -2.3581    9.1683 C   0  0  0  0  0  0  0  0  0  0  0  0
   27.8445   -1.6423   10.1028 C   0  0  0  0  0  0  0  0  0  0  0  0
   27.0915   -2.3209   11.0260 C   0  0  0  0  0  0  0  0  0  0  0  0
   27.0712   -3.6976   10.9884 C   0  0  0  0  0  0  0  0  0  0  0  0
   26.3655   -4.6884   11.8366 C   0  0  0  0  0  0  0  0  0  0  0  0
   26.7046   -6.0102   11.3474 C   0  0  0  0  0  0  0  0  0  0  0  0
   26.3247   -7.1903   11.7795 C   0  0  0  0  0  0  0  0  0  0  0  0
   25.7595   -8.2318   10.9370 C   0  0  0  0  0  0  0  0  0  0  0  0
   22.9501  -11.9620    8.5994 N   0  0  0  0  0  0  0  0  0  0  0  0
   25.6143   -4.3929   12.7971 O   0  0  0  0  0  0  0  0  0  0  0  0
   24.6700  -11.4669    7.2038 O   0  0  0  0  0  0  0  0  0  0  0  0
   22.8048  -13.3610    8.2594 C   0  0  0  0  0  0  0  0  0  0  0  0
   23.7985  -14.2545    8.9303 C   0  0  0  0  0  0  0  0  0  0  0  0
   23.3705  -14.7629   10.2424 C   0  0  0  0  0  0  0  0  0  0  0  0
   23.9550  -14.6022   11.4563 N   0  0  0  0  0  0  0  0  0  0  0  0
   23.2306  -15.2375   12.4067 C   0  0  0  0  0  0  0  0  0  0  0  0
   23.3453  -15.4053   13.7642 C   0  0  0  0  0  0  0  0  0  0  0  0
   22.4180  -16.1303   14.4820 C   0  0  0  0  0  0  0  0  0  0  0  0
   21.3401  -16.7099   13.8381 C   0  0  0  0  0  0  0  0  0  0  0  0
   21.2391  -16.5323   12.4755 C   0  0  0  0  0  0  0  0  0  0  0  0
   22.1706  -15.8049   11.7594 C   0  0  0  0  0  0  0  0  0  0  0  0
   22.2708  -15.5083   10.4529 N   0  0  0  0  0  0  0  0  0  0  0  0
   25.6977   -9.3469    8.7901 C   0  0  0  0  0  0  0  0  0  0  0  0
   26.2295   -8.3918    9.6244 C   0  0  0  0  0  0  0  0  0  0  0  0
   27.5651   -5.7878   10.2665 O   0  0  0  0  0  0  0  0  0  0  0  0
   27.7667   -4.4338   10.0732 C   0  0  0  0  0  0  0  0  0  0  0  0
  2  1  1  0
  2  3  2  0
  4  2  1  0
  4  9  2  0
 34  4  1  0
  5  6  2  0
 16  5  1  0
  6  7  1  0
  7  8  1  0
  7 31  2  0
  8 17  1  0
  8 19  2  0
 10  9  1  0
 11 10  2  0
 12 11  1  0
 13 12  1  0
 12 34  2  0
 14 13  1  0
 13 18  2  0
 15 14  2  3
 14 33  1  0
 15 16  1  0
 16 32  2  0
 17 20  1  0
 20 21  1  0
 21 22  1  0
 22 23  2  0
 22 30  1  0
 23 24  1  0
 24 25  2  0
 24 29  1  0
 25 26  1  0
 26 27  2  0
 27 28  1  0
 28 29  2  0
 29 30  1  0
 31 32  1  0
 33 34  1  0
M  END
$$$$
