
     RDKit          3D

 34 38  0  0  0  0  0  0  0  0999 V2000
   26.1304   -6.0786   11.7528 N   0  0  0  0  0  0  0  0  0  0  0  0
   26.4740   -4.7509   12.0978 C   0  0  0  0  0  0  0  0  0  0  0  0
   25.9155   -4.1192   13.0323 O   0  0  0  0  0  0  0  0  0  0  0  0
   27.5327   -4.1010   11.3161 C   0  0  0  0  0  0  0  0  0  0  0  0
   27.6914   -9.6773    7.4254 C   0  0  0  0  0  0  0  0  0  0  0  0
   26.7843  -10.6964    7.6724 C   0  0  0  0  0  0  0  0  0  0  0  0
   25.8327  -10.5571    8.6747 C   0  0  0  0  0  0  0  0  0  0  0  0
   24.9072  -11.6642    8.8881 C   0  0  0  0  0  0  0  0  0  0  0  0
   27.9959   -2.8417   11.6273 C   0  0  0  0  0  0  0  0  0  0  0  0
   28.9890   -2.2170   10.9040 C   0  0  0  0  0  0  0  0  0  0  0  0
   29.5267   -2.8947    9.8317 C   0  0  0  0  0  0  0  0  0  0  0  0
   29.0658   -4.1658    9.5101 C   0  0  0  0  0  0  0  0  0  0  0  0
   29.4386   -5.1180    8.4432 C   0  0  0  0  0  0  0  0  0  0  0  0
   28.6138   -6.3017    8.6001 C   0  0  0  0  0  0  0  0  0  0  0  0
   28.5647   -7.4315    7.9056 C   0  0  0  0  0  0  0  0  0  0  0  0
   27.6536   -8.5150    8.1768 C   0  0  0  0  0  0  0  0  0  0  0  0
   24.7760  -12.6933    7.9621 N   0  0  0  0  0  0  0  0  0  0  0  0
   30.3048   -4.9121    7.5802 O   0  0  0  0  0  0  0  0  0  0  0  0
   24.2082  -11.6866    9.9414 O   0  0  0  0  0  0  0  0  0  0  0  0
   24.1033  -13.9216    7.9446 C   0  0  0  0  0  0  0  0  0  0  0  0
   24.5410  -15.1335    8.6115 C   0  0  0  0  0  0  0  0  0  0  0  0
   24.1858  -15.3420   10.0170 C   0  0  0  0  0  0  0  0  0  0  0  0
   24.7944  -15.2146   11.1837 N   0  0  0  0  0  0  0  0  0  0  0  0
   24.0289  -15.5340   12.2298 C   0  0  0  0  0  0  0  0  0  0  0  0
   24.2265  -15.5556   13.6104 C   0  0  0  0  0  0  0  0  0  0  0  0
   23.2335  -15.9386   14.4833 C   0  0  0  0  0  0  0  0  0  0  0  0
   22.0276  -16.3020   13.9243 C   0  0  0  0  0  0  0  0  0  0  0  0
   21.8135  -16.2875   12.5678 C   0  0  0  0  0  0  0  0  0  0  0  0
   22.8265  -15.8975   11.6894 C   0  0  0  0  0  0  0  0  0  0  0  0
   22.9107  -15.7868   10.3797 N   0  0  0  0  0  0  0  0  0  0  0  0
   25.7913   -9.4244    9.4105 C   0  0  0  0  0  0  0  0  0  0  0  0
   26.7100   -8.3943    9.1582 C   0  0  0  0  0  0  0  0  0  0  0  0
   27.7964   -6.0303    9.7208 O   0  0  0  0  0  0  0  0  0  0  0  0
   28.0834   -4.7787   10.2290 C   0  0  0  0  0  0  0  0  0  0  0  0
  2  1  1  0
  2  3  2  0
  4  2  1  0
  4  9  2  0
 34  4  1  0
  5  6  2  0
 16  5  1  0
  6  7  1  0
  7  8  1  0
  7 31  2  0
  8 17  1  0
  8 19  2  0
 10  9  1  0
 11 10  2  0
 12 11  1  0
 13 12  1  0
 12 34  2  0
 14 13  1  0
 13 18  2  0
 15 14  2  3
 14 33  1  0
 15 16  1  0
 16 32  2  0
 20 17  1  1
 20 21  1  0
 21 22  1  6
 22 23  2  0
 22 30  1  0
 23 24  1  0
 24 25  2  0
 24 29  1  0
 25 26  1  0
 26 27  2  0
 27 28  1  0
 28 29  2  0
 29 30  1  0
 31 32  1  0
 33 34  1  0
M  END
$$$$
