
     RDKit          3D

 34 38  0  0  0  0  0  0  0  0999 V2000
   28.8000   -6.0613    7.6520 N   0  0  0  0  0  0  0  0  0  0  0  0
   29.3284   -4.7593    7.8123 C   0  0  0  0  0  0  0  0  0  0  0  0
   30.1037   -4.2266    6.9760 O   0  0  0  0  0  0  0  0  0  0  0  0
   28.9407   -4.0152    9.0165 C   0  0  0  0  0  0  0  0  0  0  0  0
   25.3022   -9.4565   10.8621 C   0  0  0  0  0  0  0  0  0  0  0  0
   25.2939  -10.5694   10.0354 C   0  0  0  0  0  0  0  0  0  0  0  0
   25.9804  -10.5482    8.8280 C   0  0  0  0  0  0  0  0  0  0  0  0
   25.9329  -11.7487    8.0008 C   0  0  0  0  0  0  0  0  0  0  0  0
   29.3903   -2.7354    9.2553 C   0  0  0  0  0  0  0  0  0  0  0  0
   29.0362   -2.0227   10.3806 C   0  0  0  0  0  0  0  0  0  0  0  0
   28.1993   -2.6312   11.2902 C   0  0  0  0  0  0  0  0  0  0  0  0
   27.7404   -3.9224   11.0579 C   0  0  0  0  0  0  0  0  0  0  0  0
   26.8539   -4.8166   11.8314 C   0  0  0  0  0  0  0  0  0  0  0  0
   26.7256   -6.0586   11.0918 C   0  0  0  0  0  0  0  0  0  0  0  0
   26.0451   -7.1670   11.3555 C   0  0  0  0  0  0  0  0  0  0  0  0
   25.9951   -8.3175   10.4886 C   0  0  0  0  0  0  0  0  0  0  0  0
   25.2630  -12.8942    8.4167 N   0  0  0  0  0  0  0  0  0  0  0  0
   26.3298   -4.5289   12.9177 O   0  0  0  0  0  0  0  0  0  0  0  0
   26.5157  -11.7455    6.8788 O   0  0  0  0  0  0  0  0  0  0  0  0
   24.4468  -13.8410    7.7849 C   0  0  0  0  0  0  0  0  0  0  0  0
   23.2299  -14.4080    8.3349 C   0  0  0  0  0  0  0  0  0  0  0  0
   23.0682  -14.4751    9.7891 C   0  0  0  0  0  0  0  0  0  0  0  0
   23.4043  -15.3206   10.7482 N   0  0  0  0  0  0  0  0  0  0  0  0
   23.0255  -14.9319   11.9680 C   0  0  0  0  0  0  0  0  0  0  0  0
   23.1526  -15.4753   13.2462 C   0  0  0  0  0  0  0  0  0  0  0  0
   22.6534  -14.8409   14.3612 C   0  0  0  0  0  0  0  0  0  0  0  0
   22.0182  -13.6360   14.1526 C   0  0  0  0  0  0  0  0  0  0  0  0
   21.8829  -13.0848   12.9019 C   0  0  0  0  0  0  0  0  0  0  0  0
   22.3924  -13.7351   11.7762 C   0  0  0  0  0  0  0  0  0  0  0  0
   22.4130  -13.4572   10.4890 N   0  0  0  0  0  0  0  0  0  0  0  0
   26.6587   -9.4391    8.4591 C   0  0  0  0  0  0  0  0  0  0  0  0
   26.6661   -8.3143    9.2978 C   0  0  0  0  0  0  0  0  0  0  0  0
   27.5159   -5.8767    9.9342 O   0  0  0  0  0  0  0  0  0  0  0  0
   28.0940   -4.6224    9.9431 C   0  0  0  0  0  0  0  0  0  0  0  0
  2  1  1  0
  2  3  2  0
  4  2  1  0
  4  9  2  0
 34  4  1  0
  5  6  2  0
 16  5  1  0
  6  7  1  0
  7  8  1  0
  7 31  2  0
  8 17  1  0
  8 19  2  0
 10  9  1  0
 11 10  2  0
 12 11  1  0
 13 12  1  0
 12 34  2  0
 14 13  1  0
 13 18  2  0
 15 14  2  3
 14 33  1  0
 15 16  1  0
 16 32  2  0
 20 17  1  1
 20 21  1  0
 21 22  1  6
 22 23  2  0
 22 30  1  0
 23 24  1  0
 24 25  2  0
 24 29  1  0
 25 26  1  0
 26 27  2  0
 27 28  1  0
 28 29  2  0
 29 30  1  0
 31 32  1  0
 33 34  1  0
M  END
$$$$
