
     RDKit          3D

 34 38  0  0  0  0  0  0  0  0999 V2000
   25.9384   -5.7372   11.4785 N   0  0  0  0  0  0  0  0  0  0  0  0
   26.4287   -4.4622   11.8638 C   0  0  0  0  0  0  0  0  0  0  0  0
   25.8576   -3.8249   12.7774 O   0  0  0  0  0  0  0  0  0  0  0  0
   27.5932   -3.9007   11.1959 C   0  0  0  0  0  0  0  0  0  0  0  0
   26.3390   -8.0398    8.1887 C   0  0  0  0  0  0  0  0  0  0  0  0
   25.5190   -9.1455    8.3392 C   0  0  0  0  0  0  0  0  0  0  0  0
   25.9714  -10.4140    8.0482 C   0  0  0  0  0  0  0  0  0  0  0  0
   25.0890  -11.5617    8.2162 C   0  0  0  0  0  0  0  0  0  0  0  0
   28.1625   -2.7348   11.6533 C   0  0  0  0  0  0  0  0  0  0  0  0
   29.2631   -2.1825   11.0407 C   0  0  0  0  0  0  0  0  0  0  0  0
   29.8012   -2.8134    9.9487 C   0  0  0  0  0  0  0  0  0  0  0  0
   29.2226   -3.9800    9.4999 C   0  0  0  0  0  0  0  0  0  0  0  0
   29.5719   -4.8718    8.3676 C   0  0  0  0  0  0  0  0  0  0  0  0
   28.6194   -5.9645    8.3557 C   0  0  0  0  0  0  0  0  0  0  0  0
   28.5260   -6.9903    7.5416 C   0  0  0  0  0  0  0  0  0  0  0  0
   27.6389   -8.1240    7.7456 C   0  0  0  0  0  0  0  0  0  0  0  0
   25.5216  -12.8641    8.5542 N   0  0  0  0  0  0  0  0  0  0  0  0
   30.5322   -4.6797    7.5834 O   0  0  0  0  0  0  0  0  0  0  0  0
   23.8494  -11.4131    8.0555 O   0  0  0  0  0  0  0  0  0  0  0  0
   24.8912  -14.0619    8.0426 C   0  0  0  0  0  0  0  0  0  0  0  0
   25.8518  -15.1593    7.7130 C   0  0  0  0  0  0  0  0  0  0  0  0
   25.2166  -16.4194    7.2982 C   0  0  0  0  0  0  0  0  0  0  0  0
   24.5372  -16.7023    6.1583 N   0  0  0  0  0  0  0  0  0  0  0  0
   24.1155  -17.9881    6.1777 C   0  0  0  0  0  0  0  0  0  0  0  0
   23.4057  -18.7899    5.3190 C   0  0  0  0  0  0  0  0  0  0  0  0
   23.1223  -20.1036    5.6272 C   0  0  0  0  0  0  0  0  0  0  0  0
   23.5543  -20.6448    6.8242 C   0  0  0  0  0  0  0  0  0  0  0  0
   24.2655  -19.8273    7.6753 C   0  0  0  0  0  0  0  0  0  0  0  0
   24.5476  -18.5110    7.3629 C   0  0  0  0  0  0  0  0  0  0  0  0
   25.2108  -17.5499    8.0271 N   0  0  0  0  0  0  0  0  0  0  0  0
   27.2709  -10.5118    7.6051 C   0  0  0  0  0  0  0  0  0  0  0  0
   28.0920   -9.4195    7.4521 C   0  0  0  0  0  0  0  0  0  0  0  0
   27.7630   -5.7118    9.4332 O   0  0  0  0  0  0  0  0  0  0  0  0
   28.1308   -4.5508   10.0875 C   0  0  0  0  0  0  0  0  0  0  0  0
  2  1  1  0
  2  3  2  0
  4  2  1  0
  4  9  2  0
 34  4  1  0
  5  6  2  0
 16  5  1  0
  6  7  1  0
  7  8  1  0
  7 31  2  0
  8 17  1  0
  8 19  2  0
 10  9  1  0
 11 10  2  0
 12 11  1  0
 13 12  1  0
 12 34  2  0
 14 13  1  0
 13 18  2  0
 15 14  2  3
 14 33  1  0
 15 16  1  0
 16 32  2  0
 17 20  1  0
 20 21  1  0
 21 22  1  0
 22 23  2  0
 22 30  1  0
 23 24  1  0
 24 25  2  0
 24 29  1  0
 25 26  1  0
 26 27  2  0
 27 28  1  0
 28 29  2  0
 29 30  1  0
 31 32  1  0
 33 34  1  0
M  END
$$$$
