
     RDKit          3D

 34 38  0  0  0  0  0  0  0  0999 V2000
   25.7552   -6.2013   11.0660 N   0  0  0  0  0  0  0  0  0  0  0  0
   26.1373   -4.9320   11.5732 C   0  0  0  0  0  0  0  0  0  0  0  0
   25.4377   -4.3743   12.4486 O   0  0  0  0  0  0  0  0  0  0  0  0
   27.3407   -4.2838   11.0740 C   0  0  0  0  0  0  0  0  0  0  0  0
   27.4926   -8.5569    6.0002 C   0  0  0  0  0  0  0  0  0  0  0  0
   26.4673   -9.4589    5.7700 C   0  0  0  0  0  0  0  0  0  0  0  0
   25.7592  -10.0152    6.8129 C   0  0  0  0  0  0  0  0  0  0  0  0
   24.6837  -10.9613    6.5441 C   0  0  0  0  0  0  0  0  0  0  0  0
   27.7637   -3.0915   11.6143 C   0  0  0  0  0  0  0  0  0  0  0  0
   28.8970   -2.4576   11.1613 C   0  0  0  0  0  0  0  0  0  0  0  0
   29.6183   -3.0325   10.1467 C   0  0  0  0  0  0  0  0  0  0  0  0
   29.1851   -4.2263    9.6137 C   0  0  0  0  0  0  0  0  0  0  0  0
   29.7426   -5.0732    8.5313 C   0  0  0  0  0  0  0  0  0  0  0  0
   28.8760   -6.2255    8.3811 C   0  0  0  0  0  0  0  0  0  0  0  0
   28.9621   -7.2406    7.5529 C   0  0  0  0  0  0  0  0  0  0  0  0
   27.8730   -8.1586    7.2610 C   0  0  0  0  0  0  0  0  0  0  0  0
   23.7654  -11.4286    7.5117 N   0  0  0  0  0  0  0  0  0  0  0  0
   30.7846   -4.8049    7.8861 O   0  0  0  0  0  0  0  0  0  0  0  0
   24.5374  -11.4111    5.3775 O   0  0  0  0  0  0  0  0  0  0  0  0
   22.7400  -12.4065    7.2179 C   0  0  0  0  0  0  0  0  0  0  0  0
   23.0278  -13.7691    7.7623 C   0  0  0  0  0  0  0  0  0  0  0  0
   23.5691  -13.7757    9.1299 C   0  0  0  0  0  0  0  0  0  0  0  0
   22.9453  -13.4887   10.3001 N   0  0  0  0  0  0  0  0  0  0  0  0
   23.8129  -13.6170   11.3308 C   0  0  0  0  0  0  0  0  0  0  0  0
   23.7338  -13.4567   12.6918 C   0  0  0  0  0  0  0  0  0  0  0  0
   24.8256  -13.6669   13.5072 C   0  0  0  0  0  0  0  0  0  0  0  0
   26.0373  -14.0484   12.9608 C   0  0  0  0  0  0  0  0  0  0  0  0
   26.1004  -14.2051   11.5933 C   0  0  0  0  0  0  0  0  0  0  0  0
   25.0040  -13.9935   10.7793 C   0  0  0  0  0  0  0  0  0  0  0  0
   24.8387  -14.0846    9.4491 N   0  0  0  0  0  0  0  0  0  0  0  0
   26.1295   -9.6238    8.0794 C   0  0  0  0  0  0  0  0  0  0  0  0
   27.1465   -8.7293    8.3174 C   0  0  0  0  0  0  0  0  0  0  0  0
   27.8674   -6.0484    9.3348 O   0  0  0  0  0  0  0  0  0  0  0  0
   28.0649   -4.8776   10.0429 C   0  0  0  0  0  0  0  0  0  0  0  0
  2  1  1  0
  2  3  2  0
  4  2  1  0
  4  9  2  0
 34  4  1  0
  5  6  2  0
 16  5  1  0
  6  7  1  0
  7  8  1  0
  7 31  2  0
  8 17  1  0
  8 19  2  0
 10  9  1  0
 11 10  2  0
 12 11  1  0
 13 12  1  0
 12 34  2  0
 14 13  1  0
 13 18  2  0
 15 14  2  3
 14 33  1  0
 15 16  1  0
 16 32  2  0
 17 20  1  0
 20 21  1  0
 21 22  1  0
 22 23  2  0
 22 30  1  0
 23 24  1  0
 24 25  2  0
 24 29  1  0
 25 26  1  0
 26 27  2  0
 27 28  1  0
 28 29  2  0
 29 30  1  0
 31 32  1  0
 33 34  1  0
M  END
$$$$
