
     RDKit          3D

 34 38  0  0  0  0  0  0  0  0999 V2000
   25.6155   -6.1586   11.2469 N   0  0  0  0  0  0  0  0  0  0  0  0
   25.9545   -4.8378   11.6218 C   0  0  0  0  0  0  0  0  0  0  0  0
   25.3729   -4.2182   12.5503 O   0  0  0  0  0  0  0  0  0  0  0  0
   27.0368   -4.1804   10.8797 C   0  0  0  0  0  0  0  0  0  0  0  0
   26.3547   -8.5422    8.7280 C   0  0  0  0  0  0  0  0  0  0  0  0
   25.6015   -9.6581    9.0591 C   0  0  0  0  0  0  0  0  0  0  0  0
   25.9098  -10.8969    8.5114 C   0  0  0  0  0  0  0  0  0  0  0  0
   25.0799  -12.0330    8.8966 C   0  0  0  0  0  0  0  0  0  0  0  0
   27.4752   -2.9155   11.2037 C   0  0  0  0  0  0  0  0  0  0  0  0
   28.4900   -2.2838   10.5175 C   0  0  0  0  0  0  0  0  0  0  0  0
   29.0760   -2.9600    9.4700 C   0  0  0  0  0  0  0  0  0  0  0  0
   28.6404   -4.2368    9.1356 C   0  0  0  0  0  0  0  0  0  0  0  0
   29.0641   -5.1892    8.0881 C   0  0  0  0  0  0  0  0  0  0  0  0
   28.2453   -6.3804    8.2172 C   0  0  0  0  0  0  0  0  0  0  0  0
   28.2344   -7.5131    7.5260 C   0  0  0  0  0  0  0  0  0  0  0  0
   27.4185   -8.6566    7.8492 C   0  0  0  0  0  0  0  0  0  0  0  0
   25.3736  -13.3256    8.4764 N   0  0  0  0  0  0  0  0  0  0  0  0
   29.9615   -4.9780    7.2590 O   0  0  0  0  0  0  0  0  0  0  0  0
   24.0695  -11.8352    9.6305 O   0  0  0  0  0  0  0  0  0  0  0  0
   26.0292  -14.4221    9.0505 C   0  0  0  0  0  0  0  0  0  0  0  0
   26.2046  -14.6513   10.4724 C   0  0  0  0  0  0  0  0  0  0  0  0
   25.0456  -15.0370   11.2807 C   0  0  0  0  0  0  0  0  0  0  0  0
   24.3179  -16.1283   11.4449 N   0  0  0  0  0  0  0  0  0  0  0  0
   23.3272  -15.9889   12.3289 C   0  0  0  0  0  0  0  0  0  0  0  0
   22.3316  -16.8350   12.8170 C   0  0  0  0  0  0  0  0  0  0  0  0
   21.4140  -16.4169   13.7540 C   0  0  0  0  0  0  0  0  0  0  0  0
   21.5270  -15.1144   14.1892 C   0  0  0  0  0  0  0  0  0  0  0  0
   22.5001  -14.2659   13.7207 C   0  0  0  0  0  0  0  0  0  0  0  0
   23.4270  -14.6984   12.7700 C   0  0  0  0  0  0  0  0  0  0  0  0
   24.4417  -14.1276   12.1545 N   0  0  0  0  0  0  0  0  0  0  0  0
   26.9474  -11.0139    7.6536 C   0  0  0  0  0  0  0  0  0  0  0  0
   27.7085   -9.8832    7.3205 C   0  0  0  0  0  0  0  0  0  0  0  0
   27.3818   -6.1129    9.3038 O   0  0  0  0  0  0  0  0  0  0  0  0
   27.6364   -4.8567    9.8179 C   0  0  0  0  0  0  0  0  0  0  0  0
  2  1  1  0
  2  3  2  0
  4  2  1  0
  4  9  2  0
 34  4  1  0
  5  6  2  0
 16  5  1  0
  6  7  1  0
  7  8  1  0
  7 31  2  0
  8 17  1  0
  8 19  2  0
 10  9  1  0
 11 10  2  0
 12 11  1  0
 13 12  1  0
 12 34  2  0
 14 13  1  0
 13 18  2  0
 15 14  2  3
 14 33  1  0
 15 16  1  0
 16 32  2  0
 20 17  1  1
 20 21  1  0
 21 22  1  6
 22 23  2  0
 22 30  1  0
 23 24  1  0
 24 25  2  0
 24 29  1  0
 25 26  1  0
 26 27  2  0
 27 28  1  0
 28 29  2  0
 29 30  1  0
 31 32  1  0
 33 34  1  0
M  END
$$$$
