
     RDKit          3D

 34 38  0  0  0  0  0  0  0  0999 V2000
   28.6061   -6.5754    7.8905 N   0  0  0  0  0  0  0  0  0  0  0  0
   29.3499   -5.3924    8.1073 C   0  0  0  0  0  0  0  0  0  0  0  0
   30.3029   -5.0365    7.3662 O   0  0  0  0  0  0  0  0  0  0  0  0
   28.9748   -4.5581    9.2552 C   0  0  0  0  0  0  0  0  0  0  0  0
   23.9140   -8.9360   10.3974 C   0  0  0  0  0  0  0  0  0  0  0  0
   23.8565  -10.1146    9.6695 C   0  0  0  0  0  0  0  0  0  0  0  0
   24.9188  -10.4852    8.8547 C   0  0  0  0  0  0  0  0  0  0  0  0
   24.7987  -11.7351    8.1123 C   0  0  0  0  0  0  0  0  0  0  0  0
   29.6689   -3.4131    9.5780 C   0  0  0  0  0  0  0  0  0  0  0  0
   29.3303   -2.6185   10.6521 C   0  0  0  0  0  0  0  0  0  0  0  0
   28.2528   -3.0010   11.4206 C   0  0  0  0  0  0  0  0  0  0  0  0
   27.5462   -4.1548   11.1025 C   0  0  0  0  0  0  0  0  0  0  0  0
   26.3744   -4.8062   11.7244 C   0  0  0  0  0  0  0  0  0  0  0  0
   26.0706   -5.9974   10.9531 C   0  0  0  0  0  0  0  0  0  0  0  0
   25.1214   -6.9135   11.0968 C   0  0  0  0  0  0  0  0  0  0  0  0
   25.0309   -8.1218   10.3160 C   0  0  0  0  0  0  0  0  0  0  0  0
   23.5585  -12.2643    7.7720 N   0  0  0  0  0  0  0  0  0  0  0  0
   25.7796   -4.3863   12.7280 O   0  0  0  0  0  0  0  0  0  0  0  0
   25.8490  -12.3506    7.7711 O   0  0  0  0  0  0  0  0  0  0  0  0
   23.1301  -13.4299    7.1242 C   0  0  0  0  0  0  0  0  0  0  0  0
   22.4202  -14.5304    7.7485 C   0  0  0  0  0  0  0  0  0  0  0  0
   23.0699  -15.2770    8.8283 C   0  0  0  0  0  0  0  0  0  0  0  0
   23.8289  -16.3555    8.9197 N   0  0  0  0  0  0  0  0  0  0  0  0
   24.1925  -16.6557   10.1688 C   0  0  0  0  0  0  0  0  0  0  0  0
   24.9648  -17.6659   10.7418 C   0  0  0  0  0  0  0  0  0  0  0  0
   25.1830  -17.7359   12.0991 C   0  0  0  0  0  0  0  0  0  0  0  0
   24.5984  -16.7541   12.8691 C   0  0  0  0  0  0  0  0  0  0  0  0
   23.8346  -15.7513   12.3237 C   0  0  0  0  0  0  0  0  0  0  0  0
   23.6183  -15.6879   10.9456 C   0  0  0  0  0  0  0  0  0  0  0  0
   22.9517  -14.8675   10.1600 N   0  0  0  0  0  0  0  0  0  0  0  0
   26.0114   -9.6942    8.7722 C   0  0  0  0  0  0  0  0  0  0  0  0
   26.0673   -8.5022    9.5103 C   0  0  0  0  0  0  0  0  0  0  0  0
   27.0406   -6.0233    9.9254 O   0  0  0  0  0  0  0  0  0  0  0  0
   27.8856   -4.9368   10.0391 C   0  0  0  0  0  0  0  0  0  0  0  0
  2  1  1  0
  2  3  2  0
  4  2  1  0
  4  9  2  0
 34  4  1  0
  5  6  2  0
 16  5  1  0
  6  7  1  0
  7  8  1  0
  7 31  2  0
  8 17  1  0
  8 19  2  0
 10  9  1  0
 11 10  2  0
 12 11  1  0
 13 12  1  0
 12 34  2  0
 14 13  1  0
 13 18  2  0
 15 14  2  3
 14 33  1  0
 15 16  1  0
 16 32  2  0
 20 17  1  1
 20 21  1  0
 21 22  1  6
 22 23  2  0
 22 30  1  0
 23 24  1  0
 24 25  2  0
 24 29  1  0
 25 26  1  0
 26 27  2  0
 27 28  1  0
 28 29  2  0
 29 30  1  0
 31 32  1  0
 33 34  1  0
M  END
$$$$
