
     RDKit          3D

 34 38  0  0  0  0  0  0  0  0999 V2000
   25.6437   -6.7836   11.0723 N   0  0  0  0  0  0  0  0  0  0  0  0
   25.8336   -5.6222   11.8565 C   0  0  0  0  0  0  0  0  0  0  0  0
   25.0575   -5.2914   12.7906 O   0  0  0  0  0  0  0  0  0  0  0  0
   26.9954   -4.7799   11.5480 C   0  0  0  0  0  0  0  0  0  0  0  0
   27.5248   -8.2134    5.7362 C   0  0  0  0  0  0  0  0  0  0  0  0
   26.7627   -9.3578    5.5580 C   0  0  0  0  0  0  0  0  0  0  0  0
   26.1335   -9.9544    6.6433 C   0  0  0  0  0  0  0  0  0  0  0  0
   25.3472  -11.1572    6.3929 C   0  0  0  0  0  0  0  0  0  0  0  0
   27.4317   -3.8001   12.4122 C   0  0  0  0  0  0  0  0  0  0  0  0
   28.5204   -3.0006   12.1381 C   0  0  0  0  0  0  0  0  0  0  0  0
   29.1849   -3.2047   10.9487 C   0  0  0  0  0  0  0  0  0  0  0  0
   28.7521   -4.1911   10.0704 C   0  0  0  0  0  0  0  0  0  0  0  0
   29.2485   -4.6349    8.7511 C   0  0  0  0  0  0  0  0  0  0  0  0
   28.3933   -5.7166    8.2988 C   0  0  0  0  0  0  0  0  0  0  0  0
   28.4198   -6.4477    7.1916 C   0  0  0  0  0  0  0  0  0  0  0  0
   27.6630   -7.6590    6.9973 C   0  0  0  0  0  0  0  0  0  0  0  0
   24.8216  -11.9142    7.4343 N   0  0  0  0  0  0  0  0  0  0  0  0
   30.2239   -4.1481    8.1602 O   0  0  0  0  0  0  0  0  0  0  0  0
   25.1398  -11.5185    5.1991 O   0  0  0  0  0  0  0  0  0  0  0  0
   24.6331  -13.2839    7.6576 C   0  0  0  0  0  0  0  0  0  0  0  0
   25.4035  -14.1040    8.5736 C   0  0  0  0  0  0  0  0  0  0  0  0
   25.5397  -13.6794    9.9687 C   0  0  0  0  0  0  0  0  0  0  0  0
   26.5079  -13.1972   10.7288 N   0  0  0  0  0  0  0  0  0  0  0  0
   26.1350  -12.9509   11.9868 C   0  0  0  0  0  0  0  0  0  0  0  0
   26.7862  -12.4541   13.1158 C   0  0  0  0  0  0  0  0  0  0  0  0
   26.1397  -12.2983   14.3210 C   0  0  0  0  0  0  0  0  0  0  0  0
   24.8103  -12.6590   14.3588 C   0  0  0  0  0  0  0  0  0  0  0  0
   24.1517  -13.1502   13.2582 C   0  0  0  0  0  0  0  0  0  0  0  0
   24.8153  -13.3050   12.0394 C   0  0  0  0  0  0  0  0  0  0  0  0
   24.4547  -13.7374   10.8488 N   0  0  0  0  0  0  0  0  0  0  0  0
   26.2649   -9.4168    7.8761 C   0  0  0  0  0  0  0  0  0  0  0  0
   27.0363   -8.2584    8.0538 C   0  0  0  0  0  0  0  0  0  0  0  0
   27.4393   -5.8817    9.3285 O   0  0  0  0  0  0  0  0  0  0  0  0
   27.6747   -4.9788   10.3467 C   0  0  0  0  0  0  0  0  0  0  0  0
  2  1  1  0
  2  3  2  0
  4  2  1  0
  4  9  2  0
 34  4  1  0
  5  6  2  0
 16  5  1  0
  6  7  1  0
  7  8  1  0
  7 31  2  0
  8 17  1  0
  8 19  2  0
 10  9  1  0
 11 10  2  0
 12 11  1  0
 13 12  1  0
 12 34  2  0
 14 13  1  0
 13 18  2  0
 15 14  2  3
 14 33  1  0
 15 16  1  0
 16 32  2  0
 20 17  1  1
 20 21  1  0
 21 22  1  6
 22 23  2  0
 22 30  1  0
 23 24  1  0
 24 25  2  0
 24 29  1  0
 25 26  1  0
 26 27  2  0
 27 28  1  0
 28 29  2  0
 29 30  1  0
 31 32  1  0
 33 34  1  0
M  END
$$$$
