
     RDKit          3D

 34 38  0  0  0  0  0  0  0  0999 V2000
   28.4092   -6.7852    8.5059 N   0  0  0  0  0  0  0  0  0  0  0  0
   29.1981   -5.6195    8.3699 C   0  0  0  0  0  0  0  0  0  0  0  0
   30.0566   -5.4751    7.4609 O   0  0  0  0  0  0  0  0  0  0  0  0
   28.9882   -4.5428    9.3451 C   0  0  0  0  0  0  0  0  0  0  0  0
   24.1572   -8.3436   12.0039 C   0  0  0  0  0  0  0  0  0  0  0  0
   23.9073   -9.6091   11.4959 C   0  0  0  0  0  0  0  0  0  0  0  0
   24.8990  -10.2926   10.8036 C   0  0  0  0  0  0  0  0  0  0  0  0
   24.5754  -11.6195   10.2915 C   0  0  0  0  0  0  0  0  0  0  0  0
   29.6589   -3.3429    9.2574 C   0  0  0  0  0  0  0  0  0  0  0  0
   29.4738   -2.3218   10.1644 C   0  0  0  0  0  0  0  0  0  0  0  0
   28.5791   -2.5283   11.1915 C   0  0  0  0  0  0  0  0  0  0  0  0
   27.8977   -3.7358   11.2882 C   0  0  0  0  0  0  0  0  0  0  0  0
   26.9002   -4.2396   12.2552 C   0  0  0  0  0  0  0  0  0  0  0  0
   26.5339   -5.5845   11.8511 C   0  0  0  0  0  0  0  0  0  0  0  0
   25.6839   -6.4555   12.3802 C   0  0  0  0  0  0  0  0  0  0  0  0
   25.3970   -7.7540   11.8240 C   0  0  0  0  0  0  0  0  0  0  0  0
   25.4796  -12.3445    9.5230 N   0  0  0  0  0  0  0  0  0  0  0  0
   26.4735   -3.6033   13.2301 O   0  0  0  0  0  0  0  0  0  0  0  0
   23.4447  -12.1208   10.5540 O   0  0  0  0  0  0  0  0  0  0  0  0
   26.4519  -13.3137    9.8005 C   0  0  0  0  0  0  0  0  0  0  0  0
   26.2355  -14.7483    9.8097 C   0  0  0  0  0  0  0  0  0  0  0  0
   24.9707  -15.2753   10.3272 C   0  0  0  0  0  0  0  0  0  0  0  0
   23.7334  -15.3978    9.8780 N   0  0  0  0  0  0  0  0  0  0  0  0
   22.8965  -15.9666   10.7489 C   0  0  0  0  0  0  0  0  0  0  0  0
   21.5411  -16.2947   10.7246 C   0  0  0  0  0  0  0  0  0  0  0  0
   20.9166  -16.8938   11.7951 C   0  0  0  0  0  0  0  0  0  0  0  0
   21.6995  -17.1553   12.8984 C   0  0  0  0  0  0  0  0  0  0  0  0
   23.0355  -16.8397   12.9416 C   0  0  0  0  0  0  0  0  0  0  0  0
   23.6610  -16.2320   11.8511 C   0  0  0  0  0  0  0  0  0  0  0  0
   24.8904  -15.8259   11.6100 N   0  0  0  0  0  0  0  0  0  0  0  0
   26.1108   -9.7216   10.6258 C   0  0  0  0  0  0  0  0  0  0  0  0
   26.3614   -8.4411   11.1415 C   0  0  0  0  0  0  0  0  0  0  0  0
   27.3005   -5.8379   10.6910 O   0  0  0  0  0  0  0  0  0  0  0  0
   28.0848   -4.7422   10.3883 C   0  0  0  0  0  0  0  0  0  0  0  0
  2  1  1  0
  2  3  2  0
  4  2  1  0
  4  9  2  0
 34  4  1  0
  5  6  2  0
 16  5  1  0
  6  7  1  0
  7  8  1  0
  7 31  2  0
  8 17  1  0
  8 19  2  0
 10  9  1  0
 11 10  2  0
 12 11  1  0
 13 12  1  0
 12 34  2  0
 14 13  1  0
 13 18  2  0
 15 14  2  3
 14 33  1  0
 15 16  1  0
 16 32  2  0
 20 17  1  1
 20 21  1  0
 21 22  1  6
 22 23  2  0
 22 30  1  0
 23 24  1  0
 24 25  2  0
 24 29  1  0
 25 26  1  0
 26 27  2  0
 27 28  1  0
 28 29  2  0
 29 30  1  0
 31 32  1  0
 33 34  1  0
M  END
$$$$
