
     RDKit          3D

 34 38  0  0  0  0  0  0  0  0999 V2000
   25.7423   -6.4162   10.8449 N   0  0  0  0  0  0  0  0  0  0  0  0
   26.0125   -5.1960   11.5068 C   0  0  0  0  0  0  0  0  0  0  0  0
   25.2779   -4.7334   12.4182 O   0  0  0  0  0  0  0  0  0  0  0  0
   27.2094   -4.4532   11.0946 C   0  0  0  0  0  0  0  0  0  0  0  0
   26.7244   -8.1306    7.9129 C   0  0  0  0  0  0  0  0  0  0  0  0
   25.8359   -9.1890    7.8000 C   0  0  0  0  0  0  0  0  0  0  0  0
   26.1028  -10.2351    6.9259 C   0  0  0  0  0  0  0  0  0  0  0  0
   25.1296  -11.3190    6.8500 C   0  0  0  0  0  0  0  0  0  0  0  0
   27.6200   -3.3151   11.7529 C   0  0  0  0  0  0  0  0  0  0  0  0
   28.7411   -2.6058   11.3791 C   0  0  0  0  0  0  0  0  0  0  0  0
   29.4659   -3.0689   10.3029 C   0  0  0  0  0  0  0  0  0  0  0  0
   29.0594   -4.2165    9.6325 C   0  0  0  0  0  0  0  0  0  0  0  0
   29.6179   -4.9398    8.4711 C   0  0  0  0  0  0  0  0  0  0  0  0
   28.7637   -6.0839    8.2112 C   0  0  0  0  0  0  0  0  0  0  0  0
   28.8345   -7.0367    7.2902 C   0  0  0  0  0  0  0  0  0  0  0  0
   27.8827   -8.1107    7.1548 C   0  0  0  0  0  0  0  0  0  0  0  0
   23.9122  -11.2535    7.5190 N   0  0  0  0  0  0  0  0  0  0  0  0
   30.6360   -4.6028    7.8487 O   0  0  0  0  0  0  0  0  0  0  0  0
   25.4015  -12.3419    6.1585 O   0  0  0  0  0  0  0  0  0  0  0  0
   23.0811  -12.1916    8.1443 C   0  0  0  0  0  0  0  0  0  0  0  0
   23.4975  -13.1502    9.1506 C   0  0  0  0  0  0  0  0  0  0  0  0
   24.5293  -12.7670   10.1169 C   0  0  0  0  0  0  0  0  0  0  0  0
   24.8740  -11.6625   10.7566 N   0  0  0  0  0  0  0  0  0  0  0  0
   25.9238  -11.8134   11.5674 C   0  0  0  0  0  0  0  0  0  0  0  0
   26.6265  -10.9613   12.4192 C   0  0  0  0  0  0  0  0  0  0  0  0
   27.7021  -11.3955   13.1603 C   0  0  0  0  0  0  0  0  0  0  0  0
   28.0534  -12.7205   13.0194 C   0  0  0  0  0  0  0  0  0  0  0  0
   27.3741  -13.5751   12.1860 C   0  0  0  0  0  0  0  0  0  0  0  0
   26.2840  -13.1261   11.4377 C   0  0  0  0  0  0  0  0  0  0  0  0
   25.4637  -13.6981   10.5807 N   0  0  0  0  0  0  0  0  0  0  0  0
   27.2323  -10.2206    6.1841 C   0  0  0  0  0  0  0  0  0  0  0  0
   28.1300   -9.1487    6.3007 C   0  0  0  0  0  0  0  0  0  0  0  0
   27.7500   -6.0124    9.1936 O   0  0  0  0  0  0  0  0  0  0  0  0
   27.9498   -4.9140   10.0066 C   0  0  0  0  0  0  0  0  0  0  0  0
  2  1  1  0
  2  3  2  0
  4  2  1  0
  4  9  2  0
 34  4  1  0
  5  6  2  0
 16  5  1  0
  6  7  1  0
  7  8  1  0
  7 31  2  0
  8 17  1  0
  8 19  2  0
 10  9  1  0
 11 10  2  0
 12 11  1  0
 13 12  1  0
 12 34  2  0
 14 13  1  0
 13 18  2  0
 15 14  2  3
 14 33  1  0
 15 16  1  0
 16 32  2  0
 20 17  1  1
 20 21  1  0
 21 22  1  6
 22 23  2  0
 22 30  1  0
 23 24  1  0
 24 25  2  0
 24 29  1  0
 25 26  1  0
 26 27  2  0
 27 28  1  0
 28 29  2  0
 29 30  1  0
 31 32  1  0
 33 34  1  0
M  END
$$$$
