
     RDKit          3D

 34 38  0  0  0  0  0  0  0  0999 V2000
   26.2321   -6.1693   12.0984 N   0  0  0  0  0  0  0  0  0  0  0  0
   26.6080   -4.8120   12.2743 C   0  0  0  0  0  0  0  0  0  0  0  0
   26.1477   -4.1575   13.2369 O   0  0  0  0  0  0  0  0  0  0  0  0
   27.5270   -4.1864   11.3354 C   0  0  0  0  0  0  0  0  0  0  0  0
   26.8575   -8.9908    9.4244 C   0  0  0  0  0  0  0  0  0  0  0  0
   26.4007  -10.2034    9.9131 C   0  0  0  0  0  0  0  0  0  0  0  0
   27.0128  -11.3882    9.5666 C   0  0  0  0  0  0  0  0  0  0  0  0
   26.5136  -12.6513   10.0954 C   0  0  0  0  0  0  0  0  0  0  0  0
   27.9344   -2.8858   11.5228 C   0  0  0  0  0  0  0  0  0  0  0  0
   28.8019   -2.2704   10.6508 C   0  0  0  0  0  0  0  0  0  0  0  0
   29.2684   -2.9750    9.5709 C   0  0  0  0  0  0  0  0  0  0  0  0
   28.8535   -4.2764    9.3938 C   0  0  0  0  0  0  0  0  0  0  0  0
   29.1791   -5.2718    8.3437 C   0  0  0  0  0  0  0  0  0  0  0  0
   28.4570   -6.4907    8.6512 C   0  0  0  0  0  0  0  0  0  0  0  0
   28.4285   -7.6361    8.0103 C   0  0  0  0  0  0  0  0  0  0  0  0
   27.9333   -8.8817    8.5736 C   0  0  0  0  0  0  0  0  0  0  0  0
   25.8952  -13.6579    9.3195 N   0  0  0  0  0  0  0  0  0  0  0  0
   29.9505   -5.0575    7.3777 O   0  0  0  0  0  0  0  0  0  0  0  0
   26.6274  -12.8907   11.3260 O   0  0  0  0  0  0  0  0  0  0  0  0
   25.4912  -14.9363    9.8638 C   0  0  0  0  0  0  0  0  0  0  0  0
   25.9472  -16.1100    9.0574 C   0  0  0  0  0  0  0  0  0  0  0  0
   25.4221  -16.1450    7.6839 C   0  0  0  0  0  0  0  0  0  0  0  0
   24.2870  -16.7212    7.2145 N   0  0  0  0  0  0  0  0  0  0  0  0
   24.1814  -16.5168    5.8808 C   0  0  0  0  0  0  0  0  0  0  0  0
   23.2692  -16.8625    4.9151 C   0  0  0  0  0  0  0  0  0  0  0  0
   23.4416  -16.4975    3.5968 C   0  0  0  0  0  0  0  0  0  0  0  0
   24.5525  -15.7660    3.2183 C   0  0  0  0  0  0  0  0  0  0  0  0
   25.4586  -15.4267    4.1992 C   0  0  0  0  0  0  0  0  0  0  0  0
   25.2825  -15.7944    5.5196 C   0  0  0  0  0  0  0  0  0  0  0  0
   26.0210  -15.5787    6.6209 N   0  0  0  0  0  0  0  0  0  0  0  0
   28.0912  -11.2923    8.7167 C   0  0  0  0  0  0  0  0  0  0  0  0
   28.5513  -10.0929    8.2262 C   0  0  0  0  0  0  0  0  0  0  0  0
   27.7500   -6.2077    9.8252 O   0  0  0  0  0  0  0  0  0  0  0  0
   27.9940   -4.9124   10.2422 C   0  0  0  0  0  0  0  0  0  0  0  0
  2  1  1  0
  2  3  2  0
  4  2  1  0
  4  9  2  0
 34  4  1  0
  5  6  2  0
 16  5  1  0
  6  7  1  0
  7  8  1  0
  7 31  2  0
  8 17  1  0
  8 19  2  0
 10  9  1  0
 11 10  2  0
 12 11  1  0
 13 12  1  0
 12 34  2  0
 14 13  1  0
 13 18  2  0
 15 14  2  3
 14 33  1  0
 15 16  1  0
 16 32  2  0
 17 20  1  0
 20 21  1  0
 21 22  1  0
 22 23  2  0
 22 30  1  0
 23 24  1  0
 24 25  2  0
 24 29  1  0
 25 26  1  0
 26 27  2  0
 27 28  1  0
 28 29  2  0
 29 30  1  0
 31 32  1  0
 33 34  1  0
M  END
$$$$
