
     RDKit          3D

 34 38  0  0  0  0  0  0  0  0999 V2000
   25.8141   -5.8300   10.8929 N   0  0  0  0  0  0  0  0  0  0  0  0
   26.2384   -4.6212   11.5038 C   0  0  0  0  0  0  0  0  0  0  0  0
   25.5521   -4.1102   12.4174 O   0  0  0  0  0  0  0  0  0  0  0  0
   27.4694   -3.9806   11.0660 C   0  0  0  0  0  0  0  0  0  0  0  0
   27.2824   -8.2614    8.0855 C   0  0  0  0  0  0  0  0  0  0  0  0
   26.3362   -9.2571    7.9095 C   0  0  0  0  0  0  0  0  0  0  0  0
   25.9622   -9.6710    6.6496 C   0  0  0  0  0  0  0  0  0  0  0  0
   24.9649  -10.7218    6.4910 C   0  0  0  0  0  0  0  0  0  0  0  0
   27.9647   -2.8900   11.7427 C   0  0  0  0  0  0  0  0  0  0  0  0
   29.1256   -2.2655   11.3503 C   0  0  0  0  0  0  0  0  0  0  0  0
   29.8009   -2.7459   10.2580 C   0  0  0  0  0  0  0  0  0  0  0  0
   29.2954   -3.8384    9.5885 C   0  0  0  0  0  0  0  0  0  0  0  0
   29.7914   -4.5709    8.3982 C   0  0  0  0  0  0  0  0  0  0  0  0
   28.8604   -5.6472    8.1221 C   0  0  0  0  0  0  0  0  0  0  0  0
   28.8795   -6.5532    7.1721 C   0  0  0  0  0  0  0  0  0  0  0  0
   27.9055   -7.6242    7.0372 C   0  0  0  0  0  0  0  0  0  0  0  0
   24.4577  -11.5130    7.5467 N   0  0  0  0  0  0  0  0  0  0  0  0
   30.8384   -4.2795    7.7712 O   0  0  0  0  0  0  0  0  0  0  0  0
   24.5041  -10.9645    5.3450 O   0  0  0  0  0  0  0  0  0  0  0  0
   23.0482  -11.5946    7.8640 C   0  0  0  0  0  0  0  0  0  0  0  0
   22.7039  -11.0919    9.2295 C   0  0  0  0  0  0  0  0  0  0  0  0
   23.2466  -11.9024   10.3304 C   0  0  0  0  0  0  0  0  0  0  0  0
   22.7431  -13.0287   10.8948 N   0  0  0  0  0  0  0  0  0  0  0  0
   23.5612  -13.4563   11.8844 C   0  0  0  0  0  0  0  0  0  0  0  0
   23.5508  -14.5087   12.7658 C   0  0  0  0  0  0  0  0  0  0  0  0
   24.5588  -14.6852   13.6898 C   0  0  0  0  0  0  0  0  0  0  0  0
   25.6134  -13.7926   13.7462 C   0  0  0  0  0  0  0  0  0  0  0  0
   25.6094  -12.7418   12.8550 C   0  0  0  0  0  0  0  0  0  0  0  0
   24.5973  -12.5680   11.9303 C   0  0  0  0  0  0  0  0  0  0  0  0
   24.3913  -11.6360   10.9849 N   0  0  0  0  0  0  0  0  0  0  0  0
   26.5793   -9.0419    5.5923 C   0  0  0  0  0  0  0  0  0  0  0  0
   27.5194   -8.0520    5.7576 C   0  0  0  0  0  0  0  0  0  0  0  0
   27.8754   -5.5379    9.1100 O   0  0  0  0  0  0  0  0  0  0  0  0
   28.1465   -4.4778    9.9549 C   0  0  0  0  0  0  0  0  0  0  0  0
  2  1  1  0
  2  3  2  0
  4  2  1  0
  4  9  2  0
 34  4  1  0
  5  6  2  0
 16  5  1  0
  6  7  1  0
  7  8  1  0
  7 31  2  0
  8 17  1  0
  8 19  2  0
 10  9  1  0
 11 10  2  0
 12 11  1  0
 13 12  1  0
 12 34  2  0
 14 13  1  0
 13 18  2  0
 15 14  2  3
 14 33  1  0
 15 16  1  0
 16 32  2  0
 17 20  1  0
 20 21  1  0
 21 22  1  0
 22 23  2  0
 22 30  1  0
 23 24  1  0
 24 25  2  0
 24 29  1  0
 25 26  1  0
 26 27  2  0
 27 28  1  0
 28 29  2  0
 29 30  1  0
 31 32  1  0
 33 34  1  0
M  END
$$$$
