
     RDKit          3D

 34 38  0  0  0  0  0  0  0  0999 V2000
   25.6507   -6.1189   10.4071 N   0  0  0  0  0  0  0  0  0  0  0  0
   25.8485   -4.9286   11.1447 C   0  0  0  0  0  0  0  0  0  0  0  0
   25.0639   -4.5457   12.0513 O   0  0  0  0  0  0  0  0  0  0  0  0
   27.0295   -4.1198   10.8201 C   0  0  0  0  0  0  0  0  0  0  0  0
   26.9462   -7.2883    6.6921 C   0  0  0  0  0  0  0  0  0  0  0  0
   25.9889   -8.2011    6.2765 C   0  0  0  0  0  0  0  0  0  0  0  0
   26.3331   -9.5316    6.0747 C   0  0  0  0  0  0  0  0  0  0  0  0
   25.2827  -10.4436    5.6357 C   0  0  0  0  0  0  0  0  0  0  0  0
   27.2832   -2.9206   11.4484 C   0  0  0  0  0  0  0  0  0  0  0  0
   28.3869   -2.1488   11.1557 C   0  0  0  0  0  0  0  0  0  0  0  0
   29.2585   -2.6116   10.1943 C   0  0  0  0  0  0  0  0  0  0  0  0
   29.0109   -3.8205    9.5549 C   0  0  0  0  0  0  0  0  0  0  0  0
   29.7454   -4.5595    8.5068 C   0  0  0  0  0  0  0  0  0  0  0  0
   29.0077   -5.7773    8.2262 C   0  0  0  0  0  0  0  0  0  0  0  0
   29.2478   -6.7692    7.3779 C   0  0  0  0  0  0  0  0  0  0  0  0
   28.2509   -7.6983    6.9082 C   0  0  0  0  0  0  0  0  0  0  0  0
   24.3883  -10.0948    4.6296 N   0  0  0  0  0  0  0  0  0  0  0  0
   30.8010   -4.1794    7.9789 O   0  0  0  0  0  0  0  0  0  0  0  0
   25.1849  -11.5783    6.1847 O   0  0  0  0  0  0  0  0  0  0  0  0
   23.5825  -10.8126    3.7368 C   0  0  0  0  0  0  0  0  0  0  0  0
   22.3083  -11.4281    4.0572 C   0  0  0  0  0  0  0  0  0  0  0  0
   21.4665  -10.8268    5.0941 C   0  0  0  0  0  0  0  0  0  0  0  0
   21.1070  -11.1351    6.3283 N   0  0  0  0  0  0  0  0  0  0  0  0
   20.2946  -10.2393    6.8938 C   0  0  0  0  0  0  0  0  0  0  0  0
   19.6743  -10.1368    8.1389 C   0  0  0  0  0  0  0  0  0  0  0  0
   18.8646   -9.0725    8.4648 C   0  0  0  0  0  0  0  0  0  0  0  0
   18.6951   -8.1073    7.4960 C   0  0  0  0  0  0  0  0  0  0  0  0
   19.2971   -8.1903    6.2644 C   0  0  0  0  0  0  0  0  0  0  0  0
   20.1171   -9.2736    5.9421 C   0  0  0  0  0  0  0  0  0  0  0  0
   20.8074   -9.6136    4.8733 N   0  0  0  0  0  0  0  0  0  0  0  0
   27.6050   -9.9369    6.2848 C   0  0  0  0  0  0  0  0  0  0  0  0
   28.5718   -9.0114    6.7059 C   0  0  0  0  0  0  0  0  0  0  0  0
   27.8876   -5.7314    9.0870 O   0  0  0  0  0  0  0  0  0  0  0  0
   27.9177   -4.5797    9.8485 C   0  0  0  0  0  0  0  0  0  0  0  0
  2  1  1  0
  2  3  2  0
  4  2  1  0
  4  9  2  0
 34  4  1  0
  5  6  2  0
 16  5  1  0
  6  7  1  0
  7  8  1  0
  7 31  2  0
  8 17  1  0
  8 19  2  0
 10  9  1  0
 11 10  2  0
 12 11  1  0
 13 12  1  0
 12 34  2  0
 14 13  1  0
 13 18  2  0
 15 14  2  3
 14 33  1  0
 15 16  1  0
 16 32  2  0
 20 17  1  1
 20 21  1  0
 21 22  1  6
 22 23  2  0
 22 30  1  0
 23 24  1  0
 24 25  2  0
 24 29  1  0
 25 26  1  0
 26 27  2  0
 27 28  1  0
 28 29  2  0
 29 30  1  0
 31 32  1  0
 33 34  1  0
M  END
$$$$
