
     RDKit          3D

 34 38  0  0  0  0  0  0  0  0999 V2000
   25.9545   -6.1153   11.2380 N   0  0  0  0  0  0  0  0  0  0  0  0
   26.3199   -4.8175   11.6815 C   0  0  0  0  0  0  0  0  0  0  0  0
   25.7011   -4.2861   12.6310 O   0  0  0  0  0  0  0  0  0  0  0  0
   27.4124   -4.1097   11.0312 C   0  0  0  0  0  0  0  0  0  0  0  0
   26.9988   -8.4111    8.4181 C   0  0  0  0  0  0  0  0  0  0  0  0
   26.2536   -9.5753    8.5031 C   0  0  0  0  0  0  0  0  0  0  0  0
   26.2577  -10.5009    7.4825 C   0  0  0  0  0  0  0  0  0  0  0  0
   25.4657  -11.7190    7.5968 C   0  0  0  0  0  0  0  0  0  0  0  0
   27.8793   -2.9240   11.5496 C   0  0  0  0  0  0  0  0  0  0  0  0
   28.9101   -2.2345   10.9550 C   0  0  0  0  0  0  0  0  0  0  0  0
   29.4821   -2.7461    9.8186 C   0  0  0  0  0  0  0  0  0  0  0  0
   29.0062   -3.9339    9.3088 C   0  0  0  0  0  0  0  0  0  0  0  0
   29.4139   -4.7202    8.1193 C   0  0  0  0  0  0  0  0  0  0  0  0
   28.5681   -5.8958    8.0557 C   0  0  0  0  0  0  0  0  0  0  0  0
   28.5543   -6.8760    7.1824 C   0  0  0  0  0  0  0  0  0  0  0  0
   27.7813   -8.0985    7.3303 C   0  0  0  0  0  0  0  0  0  0  0  0
   24.5427  -11.9819    8.6344 N   0  0  0  0  0  0  0  0  0  0  0  0
   30.3353   -4.3919    7.3336 O   0  0  0  0  0  0  0  0  0  0  0  0
   25.5909  -12.6181    6.7246 O   0  0  0  0  0  0  0  0  0  0  0  0
   23.8186  -13.2296    8.7481 C   0  0  0  0  0  0  0  0  0  0  0  0
   24.6102  -14.3357    9.3692 C   0  0  0  0  0  0  0  0  0  0  0  0
   24.1408  -14.7454   10.7016 C   0  0  0  0  0  0  0  0  0  0  0  0
   24.6873  -14.4941   11.9178 N   0  0  0  0  0  0  0  0  0  0  0  0
   23.9328  -15.0576   12.8897 C   0  0  0  0  0  0  0  0  0  0  0  0
   24.0049  -15.1237   14.2589 C   0  0  0  0  0  0  0  0  0  0  0  0
   23.0546  -15.7943   14.9994 C   0  0  0  0  0  0  0  0  0  0  0  0
   21.9968  -16.4214   14.3671 C   0  0  0  0  0  0  0  0  0  0  0  0
   21.9385  -16.3460   12.9926 C   0  0  0  0  0  0  0  0  0  0  0  0
   22.8928  -15.6729   12.2537 C   0  0  0  0  0  0  0  0  0  0  0  0
   23.0341  -15.4743   10.9325 N   0  0  0  0  0  0  0  0  0  0  0  0
   27.0377  -10.2002    6.3890 C   0  0  0  0  0  0  0  0  0  0  0  0
   27.7803   -9.0467    6.2957 C   0  0  0  0  0  0  0  0  0  0  0  0
   27.7145   -5.7894    9.1595 O   0  0  0  0  0  0  0  0  0  0  0  0
   27.9853   -4.6393    9.8773 C   0  0  0  0  0  0  0  0  0  0  0  0
  2  1  1  0
  2  3  2  0
  4  2  1  0
  4  9  2  0
 34  4  1  0
  5  6  2  0
 16  5  1  0
  6  7  1  0
  7  8  1  0
  7 31  2  0
  8 17  1  0
  8 19  2  0
 10  9  1  0
 11 10  2  0
 12 11  1  0
 13 12  1  0
 12 34  2  0
 14 13  1  0
 13 18  2  0
 15 14  2  3
 14 33  1  0
 15 16  1  0
 16 32  2  0
 17 20  1  0
 20 21  1  0
 21 22  1  0
 22 23  2  0
 22 30  1  0
 23 24  1  0
 24 25  2  0
 24 29  1  0
 25 26  1  0
 26 27  2  0
 27 28  1  0
 28 29  2  0
 29 30  1  0
 31 32  1  0
 33 34  1  0
M  END
$$$$
