
     RDKit          3D

 34 38  0  0  0  0  0  0  0  0999 V2000
   26.0279   -6.2077   11.5929 N   0  0  0  0  0  0  0  0  0  0  0  0
   26.3712   -4.8783   11.9527 C   0  0  0  0  0  0  0  0  0  0  0  0
   25.7011   -4.2747   12.8207 O   0  0  0  0  0  0  0  0  0  0  0  0
   27.5007   -4.2222   11.3115 C   0  0  0  0  0  0  0  0  0  0  0  0
   26.9251   -8.6525    8.5283 C   0  0  0  0  0  0  0  0  0  0  0  0
   26.2243   -9.8339    8.7037 C   0  0  0  0  0  0  0  0  0  0  0  0
   26.8318  -11.0573    8.5229 C   0  0  0  0  0  0  0  0  0  0  0  0
   26.0726  -12.2865    8.7148 C   0  0  0  0  0  0  0  0  0  0  0  0
   27.8983   -2.9688   11.7160 C   0  0  0  0  0  0  0  0  0  0  0  0
   28.9621   -2.3260   11.1271 C   0  0  0  0  0  0  0  0  0  0  0  0
   29.6385   -2.9543   10.1133 C   0  0  0  0  0  0  0  0  0  0  0  0
   29.2313   -4.2089    9.7169 C   0  0  0  0  0  0  0  0  0  0  0  0
   29.7540   -5.1213    8.6710 C   0  0  0  0  0  0  0  0  0  0  0  0
   28.9401   -6.3208    8.6841 C   0  0  0  0  0  0  0  0  0  0  0  0
   29.0199   -7.3998    7.9404 C   0  0  0  0  0  0  0  0  0  0  0  0
   28.2522   -8.6135    8.1670 C   0  0  0  0  0  0  0  0  0  0  0  0
   24.7508  -12.4929    8.2586 N   0  0  0  0  0  0  0  0  0  0  0  0
   30.7321   -4.8633    7.9289 O   0  0  0  0  0  0  0  0  0  0  0  0
   26.6054  -13.2493    9.3260 O   0  0  0  0  0  0  0  0  0  0  0  0
   24.4069  -12.5898    6.8564 C   0  0  0  0  0  0  0  0  0  0  0  0
   24.0497  -13.9727    6.4138 C   0  0  0  0  0  0  0  0  0  0  0  0
   24.1507  -14.9935    7.4678 C   0  0  0  0  0  0  0  0  0  0  0  0
   25.1027  -15.9421    7.6542 N   0  0  0  0  0  0  0  0  0  0  0  0
   24.8126  -16.6800    8.7509 C   0  0  0  0  0  0  0  0  0  0  0  0
   25.4049  -17.7390    9.3929 C   0  0  0  0  0  0  0  0  0  0  0  0
   24.8523  -18.2950   10.5271 C   0  0  0  0  0  0  0  0  0  0  0  0
   23.6747  -17.7887   11.0459 C   0  0  0  0  0  0  0  0  0  0  0  0
   23.0926  -16.7258   10.3902 C   0  0  0  0  0  0  0  0  0  0  0  0
   23.6494  -16.1711    9.2536 C   0  0  0  0  0  0  0  0  0  0  0  0
   23.2636  -15.1531    8.4663 N   0  0  0  0  0  0  0  0  0  0  0  0
   28.1599  -11.0318    8.1623 C   0  0  0  0  0  0  0  0  0  0  0  0
   28.8636   -9.8637    7.9855 C   0  0  0  0  0  0  0  0  0  0  0  0
   27.9939   -6.1069    9.6927 O   0  0  0  0  0  0  0  0  0  0  0  0
   28.1799   -4.8706   10.2827 C   0  0  0  0  0  0  0  0  0  0  0  0
  2  1  1  0
  2  3  2  0
  4  2  1  0
  4  9  2  0
 34  4  1  0
  5  6  2  0
 16  5  1  0
  6  7  1  0
  7  8  1  0
  7 31  2  0
  8 17  1  0
  8 19  2  0
 10  9  1  0
 11 10  2  0
 12 11  1  0
 13 12  1  0
 12 34  2  0
 14 13  1  0
 13 18  2  0
 15 14  2  3
 14 33  1  0
 15 16  1  0
 16 32  2  0
 17 20  1  0
 20 21  1  0
 21 22  1  0
 22 23  2  0
 22 30  1  0
 23 24  1  0
 24 25  2  0
 24 29  1  0
 25 26  1  0
 26 27  2  0
 27 28  1  0
 28 29  2  0
 29 30  1  0
 31 32  1  0
 33 34  1  0
M  END
$$$$
