
     RDKit          3D

 34 38  0  0  0  0  0  0  0  0999 V2000
   25.8375   -6.4784   10.7914 N   0  0  0  0  0  0  0  0  0  0  0  0
   26.1911   -5.3293   11.5456 C   0  0  0  0  0  0  0  0  0  0  0  0
   25.6298   -5.1063   12.6420 O   0  0  0  0  0  0  0  0  0  0  0  0
   27.2047   -4.4148   11.0419 C   0  0  0  0  0  0  0  0  0  0  0  0
   28.7115   -8.8210    6.2611 C   0  0  0  0  0  0  0  0  0  0  0  0
   28.1537  -10.0885    6.2801 C   0  0  0  0  0  0  0  0  0  0  0  0
   26.9111  -10.3127    6.8316 C   0  0  0  0  0  0  0  0  0  0  0  0
   26.3454  -11.6559    6.8381 C   0  0  0  0  0  0  0  0  0  0  0  0
   27.5437   -3.2897   11.7573 C   0  0  0  0  0  0  0  0  0  0  0  0
   28.4979   -2.4088   11.3043 C   0  0  0  0  0  0  0  0  0  0  0  0
   29.1227   -2.6635   10.1106 C   0  0  0  0  0  0  0  0  0  0  0  0
   28.7750   -3.7930    9.4032 C   0  0  0  0  0  0  0  0  0  0  0  0
   29.2653   -4.3253    8.1087 C   0  0  0  0  0  0  0  0  0  0  0  0
   28.5474   -5.5549    7.8362 C   0  0  0  0  0  0  0  0  0  0  0  0
   28.6383   -6.3731    6.8134 C   0  0  0  0  0  0  0  0  0  0  0  0
   28.0798   -7.7151    6.7817 C   0  0  0  0  0  0  0  0  0  0  0  0
   25.1101  -12.0037    7.4303 N   0  0  0  0  0  0  0  0  0  0  0  0
   30.1489   -3.7783    7.4057 O   0  0  0  0  0  0  0  0  0  0  0  0
   26.9788  -12.5926    6.2849 O   0  0  0  0  0  0  0  0  0  0  0  0
   24.5237  -13.3215    7.3147 C   0  0  0  0  0  0  0  0  0  0  0  0
   24.5873  -14.1260    8.5736 C   0  0  0  0  0  0  0  0  0  0  0  0
   24.3078  -13.3614    9.7986 C   0  0  0  0  0  0  0  0  0  0  0  0
   25.1558  -12.9934   10.7917 N   0  0  0  0  0  0  0  0  0  0  0  0
   24.4855  -12.2964   11.7384 C   0  0  0  0  0  0  0  0  0  0  0  0
   24.8252  -11.6986   12.9265 C   0  0  0  0  0  0  0  0  0  0  0  0
   23.8893  -11.0408   13.6962 C   0  0  0  0  0  0  0  0  0  0  0  0
   22.5727  -10.9704   13.2792 C   0  0  0  0  0  0  0  0  0  0  0  0
   22.2477  -11.5752   12.0847 C   0  0  0  0  0  0  0  0  0  0  0  0
   23.1885  -12.2337   11.3159 C   0  0  0  0  0  0  0  0  0  0  0  0
   23.0990  -12.8820   10.1426 N   0  0  0  0  0  0  0  0  0  0  0  0
   26.2682   -9.2139    7.3548 C   0  0  0  0  0  0  0  0  0  0  0  0
   26.8146   -7.9520    7.3408 C   0  0  0  0  0  0  0  0  0  0  0  0
   27.6851   -5.7212    8.9256 O   0  0  0  0  0  0  0  0  0  0  0  0
   27.8324   -4.6842    9.8279 C   0  0  0  0  0  0  0  0  0  0  0  0
  2  1  1  0
  2  3  2  0
  4  2  1  0
  4  9  2  0
 34  4  1  0
  5  6  2  0
 16  5  1  0
  6  7  1  0
  7  8  1  0
  7 31  2  0
  8 17  1  0
  8 19  2  0
 10  9  1  0
 11 10  2  0
 12 11  1  0
 13 12  1  0
 12 34  2  0
 14 13  1  0
 13 18  2  0
 15 14  2  3
 14 33  1  0
 15 16  1  0
 16 32  2  0
 17 20  1  0
 20 21  1  0
 21 22  1  0
 22 23  2  0
 22 30  1  0
 23 24  1  0
 24 25  2  0
 24 29  1  0
 25 26  1  0
 26 27  2  0
 27 28  1  0
 28 29  2  0
 29 30  1  0
 31 32  1  0
 33 34  1  0
M  END
$$$$
