
     RDKit          3D

 27 29  0  0  0  0  0  0  0  0999 V2000
  -14.8887   31.5379  -33.7249 C   0  0  0  0  0  0  0  0  0  0  0  0
  -13.8608   33.5569  -34.6076 C   0  0  0  0  0  0  0  0  0  0  0  0
  -12.5265   31.4655  -34.3204 C   0  0  1  0  0  0  0  0  0  0  0  0
  -11.3189   30.6847  -32.3193 C   0  0  0  0  0  0  0  0  0  0  0  0
  -12.6287   29.0437  -33.6126 C   0  0  0  0  0  0  0  0  0  0  0  0
  -13.0277   30.1002  -34.5834 C   0  0  0  0  0  0  0  0  0  0  0  0
   -9.1059   28.3715  -32.5450 C   0  0  0  0  0  0  0  0  0  0  0  0
   -8.1061   27.3866  -33.0111 C   0  0  0  0  0  0  0  0  0  0  0  0
   -7.9437   27.1642  -34.3629 C   0  0  0  0  0  0  0  0  0  0  0  0
   -6.2683   25.5730  -33.8836 C   0  0  0  0  0  0  0  0  0  0  0  0
   -5.3533   24.6673  -34.3737 C   0  0  0  0  0  0  0  0  0  0  0  0
   -4.5358   23.9218  -33.5056 C   0  0  0  0  0  0  0  0  0  0  0  0
   -2.9039   22.0820  -33.3070 C   0  0  1  0  0  0  0  0  0  0  0  0
   -4.7218   24.1663  -32.1678 C   0  0  0  0  0  0  0  0  0  0  0  0
   -5.6302   25.0668  -31.6533 C   0  0  0  0  0  0  0  0  0  0  0  0
   -6.4162   25.7813  -32.5346 C   0  0  0  0  0  0  0  0  0  0  0  0
   -7.3452   26.6977  -32.1031 C   0  0  0  0  0  0  0  0  0  0  0  0
  -13.6160   32.3624  -33.7120 C   0  0  2  0  0  0  0  0  0  0  0  0
  -13.3402   32.7145  -32.4170 O   0  0  0  0  0  0  0  0  0  0  0  0
  -11.2606   31.5490  -33.5219 C   0  0  0  0  0  0  0  0  0  0  0  0
  -11.4521   29.2552  -32.7979 C   0  0  1  0  0  0  0  0  0  0  0  0
  -10.1711   28.8560  -33.3021 N   0  0  0  0  0  0  0  0  0  0  0  0
   -8.9951   28.8105  -31.3802 O   0  0  0  0  0  0  0  0  0  0  0  0
   -7.0378   26.2718  -34.7618 N   0  0  0  0  0  0  0  0  0  0  0  0
   -3.6325   23.0259  -34.0225 O   0  0  0  0  0  0  0  0  0  0  0  0
   -3.7808   21.0793  -32.9172 F   0  0  0  0  0  0  0  0  0  0  0  0
   -1.9538   21.5606  -34.1992 F   0  0  0  0  0  0  0  0  0  0  0  0
 18  1  1  1
 18  2  1  0
  3  6  1  1
  3 18  1  0
 20  3  1  0
  4 20  1  0
 21  4  1  0
  5  6  1  0
 21  5  1  0
  7  8  1  0
 22  7  1  0
  7 23  2  0
  8  9  2  0
  8 17  1  0
  9 24  1  0
 10 11  1  0
 16 10  1  0
 24 10  2  0
 11 12  2  0
 14 12  1  0
 12 25  1  0
 25 13  1  0
 13 26  1  6
 13 27  1  0
 15 14  2  0
 16 15  1  0
 17 16  2  0
 18 19  1  0
 21 22  1  6
M  END
$$$$
