
     RDKit          3D

 27 29  0  0  0  0  0  0  0  0999 V2000
  -14.2048   32.7664  -34.6496 C   0  0  0  0  0  0  0  0  0  0  0  0
  -12.4271   34.3354  -34.1113 C   0  0  0  0  0  0  0  0  0  0  0  0
  -11.9375   31.9049  -34.4103 C   0  0  1  0  0  0  0  0  0  0  0  0
  -11.1615   30.7582  -32.3719 C   0  0  0  0  0  0  0  0  0  0  0  0
  -12.5458   29.4933  -33.9734 C   0  0  0  0  0  0  0  0  0  0  0  0
  -12.6242   30.6796  -34.8702 C   0  0  0  0  0  0  0  0  0  0  0  0
   -9.3406   28.1515  -32.5595 C   0  0  0  0  0  0  0  0  0  0  0  0
   -8.3552   27.1413  -33.0015 C   0  0  0  0  0  0  0  0  0  0  0  0
   -8.1772   26.9032  -34.3487 C   0  0  0  0  0  0  0  0  0  0  0  0
   -6.5438   25.2810  -33.8298 C   0  0  0  0  0  0  0  0  0  0  0  0
   -5.6413   24.3515  -34.2979 C   0  0  0  0  0  0  0  0  0  0  0  0
   -4.8532   23.5966  -33.4108 C   0  0  0  0  0  0  0  0  0  0  0  0
   -2.7877   22.2523  -33.2935 C   0  0  1  0  0  0  0  0  0  0  0  0
   -5.0541   23.8572  -32.0783 C   0  0  0  0  0  0  0  0  0  0  0  0
   -5.9506   24.7815  -31.5857 C   0  0  0  0  0  0  0  0  0  0  0  0
   -6.7076   25.5047  -32.4851 C   0  0  0  0  0  0  0  0  0  0  0  0
   -7.6232   26.4445  -32.0760 C   0  0  0  0  0  0  0  0  0  0  0  0
  -12.9298   32.9334  -33.8456 C   0  0  2  0  0  0  0  0  0  0  0  0
  -13.2175   32.7115  -32.5246 O   0  0  0  0  0  0  0  0  0  0  0  0
  -10.7952   31.6914  -33.4634 C   0  0  0  0  0  0  0  0  0  0  0  0
  -11.4710   29.4203  -33.0079 C   0  0  1  0  0  0  0  0  0  0  0  0
  -10.2209   28.8360  -33.3956 N   0  0  0  0  0  0  0  0  0  0  0  0
   -9.3959   28.4198  -31.3401 O   0  0  0  0  0  0  0  0  0  0  0  0
   -7.2848   25.9880  -34.7258 N   0  0  0  0  0  0  0  0  0  0  0  0
   -3.9616   22.6769  -33.9060 O   0  0  0  0  0  0  0  0  0  0  0  0
   -2.3526   21.1145  -33.9585 F   0  0  0  0  0  0  0  0  0  0  0  0
   -1.8568   23.2885  -33.4678 F   0  0  0  0  0  0  0  0  0  0  0  0
 18  1  1  6
 18  2  1  0
  3  6  1  1
  3 18  1  0
 20  3  1  0
  4 20  1  0
 21  4  1  0
  5  6  1  0
 21  5  1  0
  7  8  1  0
 22  7  1  0
  7 23  2  0
  8  9  2  0
  8 17  1  0
  9 24  1  0
 10 11  1  0
 16 10  1  0
 24 10  2  0
 11 12  2  0
 14 12  1  0
 12 25  1  0
 25 13  1  0
 13 26  1  6
 13 27  1  0
 15 14  2  0
 16 15  1  0
 17 16  2  0
 18 19  1  0
 21 22  1  6
M  END
$$$$
