
     RDKit          3D

 27 29  0  0  0  0  0  0  0  0999 V2000
  -14.4935   32.0680  -30.5106 C   0  0  0  0  0  0  0  0  0  0  0  0
  -15.5576   29.9916  -31.1945 C   0  0  0  0  0  0  0  0  0  0  0  0
  -13.0727   30.2323  -31.2532 C   0  0  1  0  0  0  0  0  0  0  0  0
  -12.6396   29.1238  -33.4110 C   0  0  0  0  0  0  0  0  0  0  0  0
  -11.1771   30.9920  -32.7386 C   0  0  0  0  0  0  0  0  0  0  0  0
  -11.9313   31.1473  -31.4639 C   0  0  0  0  0  0  0  0  0  0  0  0
   -8.9369   28.7764  -33.1800 C   0  0  0  0  0  0  0  0  0  0  0  0
   -7.9994   27.6572  -32.9449 C   0  0  0  0  0  0  0  0  0  0  0  0
   -7.7202   27.2585  -31.6540 C   0  0  0  0  0  0  0  0  0  0  0  0
   -6.2720   25.5971  -32.4974 C   0  0  0  0  0  0  0  0  0  0  0  0
   -5.4065   24.5620  -32.2199 C   0  0  0  0  0  0  0  0  0  0  0  0
   -4.7628   23.8591  -33.2540 C   0  0  0  0  0  0  0  0  0  0  0  0
   -2.7515   22.4839  -33.6422 C   0  0  1  0  0  0  0  0  0  0  0  0
   -5.0616   24.2799  -34.5258 C   0  0  0  0  0  0  0  0  0  0  0  0
   -5.9237   25.3123  -34.8287 C   0  0  0  0  0  0  0  0  0  0  0  0
   -6.5380   25.9802  -33.7887 C   0  0  0  0  0  0  0  0  0  0  0  0
   -7.4103   27.0200  -34.0055 C   0  0  0  0  0  0  0  0  0  0  0  0
  -14.4160   30.9321  -31.5123 C   0  0  2  0  0  0  0  0  0  0  0  0
  -14.4956   31.4600  -32.7740 O   0  0  0  0  0  0  0  0  0  0  0  0
  -13.0016   28.9273  -31.9873 C   0  0  0  0  0  0  0  0  0  0  0  0
  -11.2539   29.7311  -33.4437 C   0  0  1  0  0  0  0  0  0  0  0  0
  -10.3264   28.6886  -33.1158 N   0  0  0  0  0  0  0  0  0  0  0  0
   -8.4539   29.8947  -33.4594 O   0  0  0  0  0  0  0  0  0  0  0  0
   -6.8719   26.2483  -31.4640 N   0  0  0  0  0  0  0  0  0  0  0  0
   -3.9048   22.8315  -32.9476 O   0  0  0  0  0  0  0  0  0  0  0  0
   -2.0798   21.5279  -32.8930 F   0  0  0  0  0  0  0  0  0  0  0  0
   -3.1783   21.9216  -34.8556 F   0  0  0  0  0  0  0  0  0  0  0  0
 18  1  1  1
 18  2  1  0
  3  6  1  6
  3 18  1  0
 20  3  1  0
  4 20  1  0
 21  4  1  0
  5  6  1  0
 21  5  1  0
  7  8  1  0
 22  7  1  0
  7 23  2  0
  8  9  2  0
  8 17  1  0
  9 24  1  0
 10 11  1  0
 16 10  1  0
 24 10  2  0
 11 12  2  0
 14 12  1  0
 12 25  1  0
 25 13  1  0
 13 26  1  1
 13 27  1  0
 15 14  2  0
 16 15  1  0
 17 16  2  0
 18 19  1  0
 21 22  1  1
M  END
$$$$
