
     RDKit          3D

 27 29  0  0  0  0  0  0  0  0999 V2000
   14.4212   30.8607  -17.6120 C   0  0  0  0  0  0  0  0  0  0  0  0
   14.6383   29.1965  -15.8528 C   0  0  0  0  0  0  0  0  0  0  0  0
   12.5582   30.5613  -16.0694 C   0  0  1  0  0  0  0  0  0  0  0  0
   12.1077   28.3037  -15.1905 C   0  0  0  0  0  0  0  0  0  0  0  0
   11.6355   30.2417  -13.7406 C   0  0  0  0  0  0  0  0  0  0  0  0
   12.0809   31.1749  -14.8124 C   0  0  0  0  0  0  0  0  0  0  0  0
    8.7787   28.6410  -13.6121 C   0  0  0  0  0  0  0  0  0  0  0  0
    7.7659   27.5664  -13.5327 C   0  0  0  0  0  0  0  0  0  0  0  0
    7.4137   27.0480  -12.3038 C   0  0  0  0  0  0  0  0  0  0  0  0
    5.9021   25.5843  -13.3723 C   0  0  0  0  0  0  0  0  0  0  0  0
    4.9661   24.5825  -13.2394 C   0  0  0  0  0  0  0  0  0  0  0  0
    4.3218   24.0392  -14.3652 C   0  0  0  0  0  0  0  0  0  0  0  0
    3.2706   22.1980  -13.1033 C   0  0  1  0  0  0  0  0  0  0  0  0
    4.6942   24.5763  -15.5721 C   0  0  0  0  0  0  0  0  0  0  0  0
    5.6277   25.5784  -15.7308 C   0  0  0  0  0  0  0  0  0  0  0  0
    6.2403   26.0883  -14.6039 C   0  0  0  0  0  0  0  0  0  0  0  0
    7.1811   27.0877  -14.6758 C   0  0  0  0  0  0  0  0  0  0  0  0
   14.0922   30.5736  -16.1598 C   0  0  2  0  0  0  0  0  0  0  0  0
   14.6536   31.5545  -15.3855 O   0  0  0  0  0  0  0  0  0  0  0  0
   12.0179   29.1959  -16.3705 C   0  0  0  0  0  0  0  0  0  0  0  0
   11.2358   28.9005  -14.1071 C   0  0  1  0  0  0  0  0  0  0  0  0
    9.8729   28.6528  -14.4754 N   0  0  0  0  0  0  0  0  0  0  0  0
    8.6519   29.6214  -12.8476 O   0  0  0  0  0  0  0  0  0  0  0  0
    6.4996   26.0794  -12.2544 N   0  0  0  0  0  0  0  0  0  0  0  0
    3.3927   23.0410  -14.2024 O   0  0  0  0  0  0  0  0  0  0  0  0
    2.3069   21.2463  -13.4068 F   0  0  0  0  0  0  0  0  0  0  0  0
    4.5187   21.5753  -12.9455 F   0  0  0  0  0  0  0  0  0  0  0  0
 18  1  1  6
 18  2  1  0
  3  6  1  1
  3 18  1  0
 20  3  1  0
  4 20  1  0
 21  4  1  0
  5  6  1  0
 21  5  1  0
  7  8  1  0
 22  7  1  0
  7 23  2  0
  8  9  2  0
  8 17  1  0
  9 24  1  0
 10 11  1  0
 16 10  1  0
 24 10  2  0
 11 12  2  0
 14 12  1  0
 12 25  1  0
 25 13  1  0
 13 26  1  6
 13 27  1  0
 15 14  2  0
 16 15  1  0
 17 16  2  0
 18 19  1  0
 21 22  1  6
M  END
$$$$
