
     RDKit          3D

 27 29  0  0  0  0  0  0  0  0999 V2000
   -2.9048   23.1401  -34.2080 C   0  0  0  0  0  0  0  0  0  0  0  0
   -3.8520   21.2193  -33.0567 C   0  0  0  0  0  0  0  0  0  0  0  0
   -5.2001   23.2928  -33.4027 C   0  0  1  0  0  0  0  0  0  0  0  0
   -5.3211   25.2889  -31.9627 C   0  0  0  0  0  0  0  0  0  0  0  0
   -5.1916   25.6109  -34.4042 C   0  0  0  0  0  0  0  0  0  0  0  0
   -5.1655   24.1370  -34.6153 C   0  0  0  0  0  0  0  0  0  0  0  0
   -7.9637   26.8068  -34.0765 C   0  0  0  0  0  0  0  0  0  0  0  0
   -8.9385   27.9150  -33.9832 C   0  0  0  0  0  0  0  0  0  0  0  0
   -9.0505   28.8166  -35.0213 C   0  0  0  0  0  0  0  0  0  0  0  0
  -10.7296   29.9630  -33.8233 C   0  0  0  0  0  0  0  0  0  0  0  0
  -11.6193   31.0141  -33.7897 C   0  0  0  0  0  0  0  0  0  0  0  0
  -12.4616   31.2149  -32.6815 C   0  0  0  0  0  0  0  0  0  0  0  0
  -13.7263   33.0167  -31.5674 C   0  0  1  0  0  0  0  0  0  0  0  0
  -12.3257   30.3013  -31.6663 C   0  0  0  0  0  0  0  0  0  0  0  0
  -11.4434   29.2419  -31.6766 C   0  0  0  0  0  0  0  0  0  0  0  0
  -10.6318   29.0752  -32.7805 C   0  0  0  0  0  0  0  0  0  0  0  0
   -9.7260   28.0453  -32.8693 C   0  0  0  0  0  0  0  0  0  0  0  0
   -3.8105   22.7317  -33.0623 C   0  0  2  0  0  0  0  0  0  0  0  0
   -3.3052   23.2555  -31.9017 O   0  0  0  0  0  0  0  0  0  0  0  0
   -5.8325   23.9174  -32.1956 C   0  0  0  0  0  0  0  0  0  0  0  0
   -5.7175   26.1267  -33.1591 C   0  0  1  0  0  0  0  0  0  0  0  0
   -7.1227   26.3867  -33.0476 N   0  0  0  0  0  0  0  0  0  0  0  0
   -7.8799   26.1918  -35.1612 O   0  0  0  0  0  0  0  0  0  0  0  0
   -9.9345   29.8084  -34.9168 N   0  0  0  0  0  0  0  0  0  0  0  0
  -13.3388   32.2715  -32.6756 O   0  0  0  0  0  0  0  0  0  0  0  0
  -14.5335   34.0525  -32.0169 F   0  0  0  0  0  0  0  0  0  0  0  0
  -14.4747   32.1510  -30.7543 F   0  0  0  0  0  0  0  0  0  0  0  0
 18  1  1  6
 18  2  1  0
  3  6  1  6
  3 18  1  0
 20  3  1  0
  4 20  1  0
 21  4  1  0
  5  6  1  0
 21  5  1  0
  7  8  1  0
 22  7  1  0
  7 23  2  0
  8  9  2  0
  8 17  1  0
  9 24  1  0
 10 11  1  0
 16 10  1  0
 24 10  2  0
 11 12  2  0
 14 12  1  0
 12 25  1  0
 25 13  1  0
 13 26  1  6
 13 27  1  0
 15 14  2  0
 16 15  1  0
 17 16  2  0
 18 19  1  0
 21 22  1  6
M  END
$$$$
