
     RDKit          3D

 27 29  0  0  0  0  0  0  0  0999 V2000
   14.6586   32.4521  -12.2548 C   0  0  0  0  0  0  0  0  0  0  0  0
   12.3920   33.2027  -11.7956 C   0  0  0  0  0  0  0  0  0  0  0  0
   12.8165   30.9378  -12.7580 C   0  0  1  0  0  0  0  0  0  0  0  0
   10.4097   31.0727  -13.2695 C   0  0  0  0  0  0  0  0  0  0  0  0
   11.9100   30.0660  -14.9477 C   0  0  0  0  0  0  0  0  0  0  0  0
   13.0823   30.2802  -14.0546 C   0  0  0  0  0  0  0  0  0  0  0  0
    9.4914   27.7913  -14.6423 C   0  0  0  0  0  0  0  0  0  0  0  0
    8.4006   26.8950  -14.2023 C   0  0  0  0  0  0  0  0  0  0  0  0
    8.2115   26.6574  -12.8565 C   0  0  0  0  0  0  0  0  0  0  0  0
    6.3953   25.2437  -13.3777 C   0  0  0  0  0  0  0  0  0  0  0  0
    5.3964   24.4176  -12.9115 C   0  0  0  0  0  0  0  0  0  0  0  0
    4.5161   23.7734  -13.7991 C   0  0  0  0  0  0  0  0  0  0  0  0
    2.5166   22.3481  -14.0400 C   0  0  1  0  0  0  0  0  0  0  0  0
    4.7307   24.0304  -15.1302 C   0  0  0  0  0  0  0  0  0  0  0  0
    5.7227   24.8526  -15.6209 C   0  0  0  0  0  0  0  0  0  0  0  0
    6.5686   25.4686  -14.7210 C   0  0  0  0  0  0  0  0  0  0  0  0
    7.5823   26.3026  -15.1282 C   0  0  0  0  0  0  0  0  0  0  0  0
   13.2348   32.4163  -12.7755 C   0  0  2  0  0  0  0  0  0  0  0  0
   13.2209   32.9486  -14.0378 O   0  0  0  0  0  0  0  0  0  0  0  0
   11.4231   30.7847  -12.2270 C   0  0  0  0  0  0  0  0  0  0  0  0
   10.5859   30.0440  -14.3654 C   0  0  1  0  0  0  0  0  0  0  0  0
   10.0588   28.8054  -13.8728 N   0  0  0  0  0  0  0  0  0  0  0  0
    9.9475   27.6346  -15.7952 O   0  0  0  0  0  0  0  0  0  0  0  0
    7.2233   25.8457  -12.4812 N   0  0  0  0  0  0  0  0  0  0  0  0
    3.5295   22.9552  -13.3058 O   0  0  0  0  0  0  0  0  0  0  0  0
    2.1317   21.2013  -13.3594 F   0  0  0  0  0  0  0  0  0  0  0  0
    1.4514   23.2619  -14.0697 F   0  0  0  0  0  0  0  0  0  0  0  0
 18  1  1  1
 18  2  1  0
  3  6  1  6
  3 18  1  0
 20  3  1  0
  4 20  1  0
 21  4  1  0
  5  6  1  0
 21  5  1  0
  7  8  1  0
 22  7  1  0
  7 23  2  0
  8  9  2  0
  8 17  1  0
  9 24  1  0
 10 11  1  0
 16 10  1  0
 24 10  2  0
 11 12  2  0
 14 12  1  0
 12 25  1  0
 25 13  1  0
 13 26  1  1
 13 27  1  0
 15 14  2  0
 16 15  1  0
 17 16  2  0
 18 19  1  0
 21 22  1  1
M  END
$$$$
