
     RDKit          3D

 27 29  0  0  0  0  0  0  0  0999 V2000
   15.7015   29.8427  -17.2642 C   0  0  0  0  0  0  0  0  0  0  0  0
   15.2117   30.2721  -14.9216 C   0  0  0  0  0  0  0  0  0  0  0  0
   13.3992   29.5996  -16.5024 C   0  0  1  0  0  0  0  0  0  0  0  0
   12.7917   29.0789  -14.1717 C   0  0  0  0  0  0  0  0  0  0  0  0
   11.3220   30.5847  -15.4577 C   0  0  0  0  0  0  0  0  0  0  0  0
   12.1996   30.4497  -16.6532 C   0  0  0  0  0  0  0  0  0  0  0  0
    9.6445   27.9521  -13.5839 C   0  0  0  0  0  0  0  0  0  0  0  0
    8.5173   27.0305  -13.8429 C   0  0  0  0  0  0  0  0  0  0  0  0
    8.2977   26.5610  -15.1214 C   0  0  0  0  0  0  0  0  0  0  0  0
    6.4425   25.3330  -14.3346 C   0  0  0  0  0  0  0  0  0  0  0  0
    5.4079   24.4740  -14.6334 C   0  0  0  0  0  0  0  0  0  0  0  0
    4.5207   24.0338  -13.6349 C   0  0  0  0  0  0  0  0  0  0  0  0
    3.3349   21.8741  -13.5054 C   0  0  1  0  0  0  0  0  0  0  0  0
    4.7663   24.5187  -12.3746 C   0  0  0  0  0  0  0  0  0  0  0  0
    5.7942   25.3786  -12.0509 C   0  0  0  0  0  0  0  0  0  0  0  0
    6.6459   25.7902  -13.0560 C   0  0  0  0  0  0  0  0  0  0  0  0
    7.6945   26.6459  -12.8168 C   0  0  0  0  0  0  0  0  0  0  0  0
   14.6725   30.4415  -16.3250 C   0  0  2  0  0  0  0  0  0  0  0  0
   14.4832   31.7542  -16.6686 O   0  0  0  0  0  0  0  0  0  0  0  0
   13.3124   28.5366  -15.4490 C   0  0  0  0  0  0  0  0  0  0  0  0
   11.3830   29.5675  -14.4308 C   0  0  1  0  0  0  0  0  0  0  0  0
   10.5464   28.4091  -14.5431 N   0  0  0  0  0  0  0  0  0  0  0  0
    9.8096   28.3592  -12.4139 O   0  0  0  0  0  0  0  0  0  0  0  0
    7.2759   25.7321  -15.3336 N   0  0  0  0  0  0  0  0  0  0  0  0
    3.4982   23.1773  -13.9619 O   0  0  0  0  0  0  0  0  0  0  0  0
    4.5187   21.4912  -12.8901 F   0  0  0  0  0  0  0  0  0  0  0  0
    2.3002   21.9169  -12.5576 F   0  0  0  0  0  0  0  0  0  0  0  0
 18  1  1  6
 18  2  1  0
  3  6  1  1
  3 18  1  0
 20  3  1  0
  4 20  1  0
 21  4  1  0
  5  6  1  0
 21  5  1  0
  7  8  1  0
 22  7  1  0
  7 23  2  0
  8  9  2  0
  8 17  1  0
  9 24  1  0
 10 11  1  0
 16 10  1  0
 24 10  2  0
 11 12  2  0
 14 12  1  0
 12 25  1  0
 25 13  1  0
 13 26  1  1
 13 27  1  0
 15 14  2  0
 16 15  1  0
 17 16  2  0
 18 19  1  0
 21 22  1  6
M  END
$$$$
