
     RDKit          3D

 27 29  0  0  0  0  0  0  0  0999 V2000
  -14.6265   31.7083  -35.5485 C   0  0  0  0  0  0  0  0  0  0  0  0
  -12.6208   33.0651  -35.7678 C   0  0  0  0  0  0  0  0  0  0  0  0
  -12.4862   30.7115  -34.9440 C   0  0  1  0  0  0  0  0  0  0  0  0
  -10.6908   31.1531  -33.3149 C   0  0  0  0  0  0  0  0  0  0  0  0
  -12.3899   29.4558  -32.7553 C   0  0  0  0  0  0  0  0  0  0  0  0
  -13.0722   29.6827  -34.0594 C   0  0  0  0  0  0  0  0  0  0  0  0
   -9.3373   28.0250  -32.1168 C   0  0  0  0  0  0  0  0  0  0  0  0
   -8.1975   27.1556  -32.4804 C   0  0  0  0  0  0  0  0  0  0  0  0
   -7.9638   26.8529  -33.8059 C   0  0  0  0  0  0  0  0  0  0  0  0
   -6.1017   25.5532  -33.1642 C   0  0  0  0  0  0  0  0  0  0  0  0
   -5.0561   24.7483  -33.5599 C   0  0  0  0  0  0  0  0  0  0  0  0
   -4.1716   24.1943  -32.6174 C   0  0  0  0  0  0  0  0  0  0  0  0
   -3.2103   22.3911  -33.9999 C   0  0  1  0  0  0  0  0  0  0  0  0
   -4.4311   24.5145  -31.3082 C   0  0  0  0  0  0  0  0  0  0  0  0
   -5.4702   25.3171  -30.8876 C   0  0  0  0  0  0  0  0  0  0  0  0
   -6.3190   25.8439  -31.8401 C   0  0  0  0  0  0  0  0  0  0  0  0
   -7.3781   26.6527  -31.5039 C   0  0  0  0  0  0  0  0  0  0  0  0
  -13.2904   32.0203  -34.9025 C   0  0  2  0  0  0  0  0  0  0  0  0
  -13.5178   32.4537  -33.6229 O   0  0  0  0  0  0  0  0  0  0  0  0
  -11.0241   30.9783  -34.7485 C   0  0  0  0  0  0  0  0  0  0  0  0
  -11.0041   29.8473  -32.6172 C   0  0  1  0  0  0  0  0  0  0  0  0
   -9.9751   28.9167  -32.9774 N   0  0  0  0  0  0  0  0  0  0  0  0
   -9.7702   27.9622  -30.9462 O   0  0  0  0  0  0  0  0  0  0  0  0
   -6.9320   26.0670  -34.1121 N   0  0  0  0  0  0  0  0  0  0  0  0
   -3.1380   23.3954  -33.0409 O   0  0  0  0  0  0  0  0  0  0  0  0
   -1.9246   21.9099  -34.2044 F   0  0  0  0  0  0  0  0  0  0  0  0
   -4.0132   21.3796  -33.4495 F   0  0  0  0  0  0  0  0  0  0  0  0
 18  1  1  6
 18  2  1  0
  3  6  1  1
  3 18  1  0
 20  3  1  0
  4 20  1  0
 21  4  1  0
  5  6  1  0
 21  5  1  0
  7  8  1  0
 22  7  1  0
  7 23  2  0
  8  9  2  0
  8 17  1  0
  9 24  1  0
 10 11  1  0
 16 10  1  0
 24 10  2  0
 11 12  2  0
 14 12  1  0
 12 25  1  0
 25 13  1  0
 13 26  1  1
 13 27  1  0
 15 14  2  0
 16 15  1  0
 17 16  2  0
 18 19  1  0
 21 22  1  6
M  END
$$$$
