
     RDKit          3D

 27 29  0  0  0  0  0  0  0  0999 V2000
  -15.6518   29.0668  -28.0758 C   0  0  0  0  0  0  0  0  0  0  0  0
  -15.6444   30.3665  -30.1307 C   0  0  0  0  0  0  0  0  0  0  0  0
  -13.9740   28.5464  -29.7652 C   0  0  1  0  0  0  0  0  0  0  0  0
  -12.0049   29.6962  -30.6996 C   0  0  0  0  0  0  0  0  0  0  0  0
  -11.6690   28.1376  -28.8184 C   0  0  0  0  0  0  0  0  0  0  0  0
  -13.1264   27.8331  -28.7869 C   0  0  0  0  0  0  0  0  0  0  0  0
   -9.5068   27.9843  -31.8519 C   0  0  0  0  0  0  0  0  0  0  0  0
   -8.4264   26.9951  -32.0551 C   0  0  0  0  0  0  0  0  0  0  0  0
   -7.7126   26.5294  -30.9703 C   0  0  0  0  0  0  0  0  0  0  0  0
   -6.4315   25.1734  -32.4157 C   0  0  0  0  0  0  0  0  0  0  0  0
   -5.4148   24.2532  -32.5464 C   0  0  0  0  0  0  0  0  0  0  0  0
   -5.0573   23.7432  -33.8073 C   0  0  0  0  0  0  0  0  0  0  0  0
   -3.6000   21.9680  -32.9057 C   0  0  1  0  0  0  0  0  0  0  0  0
   -5.7861   24.2262  -34.8653 C   0  0  0  0  0  0  0  0  0  0  0  0
   -6.8072   25.1465  -34.7600 C   0  0  0  0  0  0  0  0  0  0  0  0
   -7.1314   25.6257  -33.5069 C   0  0  0  0  0  0  0  0  0  0  0  0
   -8.1358   26.5443  -33.3162 C   0  0  0  0  0  0  0  0  0  0  0  0
  -14.7447   29.7036  -29.1108 C   0  0  2  0  0  0  0  0  0  0  0  0
  -13.9159   30.5901  -28.4749 O   0  0  0  0  0  0  0  0  0  0  0  0
  -13.2792   29.0065  -31.0113 C   0  0  0  0  0  0  0  0  0  0  0  0
  -11.0985   28.6867  -30.0292 C   0  0  1  0  0  0  0  0  0  0  0  0
  -10.6300   27.7948  -31.0488 N   0  0  0  0  0  0  0  0  0  0  0  0
   -9.4141   29.0810  -32.4438 O   0  0  0  0  0  0  0  0  0  0  0  0
   -6.7424   25.6389  -31.1753 N   0  0  0  0  0  0  0  0  0  0  0  0
   -4.0394   22.8267  -33.9074 O   0  0  0  0  0  0  0  0  0  0  0  0
   -3.0168   20.8680  -33.5191 F   0  0  0  0  0  0  0  0  0  0  0  0
   -2.6294   22.6760  -32.1796 F   0  0  0  0  0  0  0  0  0  0  0  0
 18  1  1  1
 18  2  1  0
  3  6  1  1
  3 18  1  0
 20  3  1  0
  4 20  1  0
 21  4  1  0
  5  6  1  0
 21  5  1  0
  7  8  1  0
 22  7  1  0
  7 23  2  0
  8  9  2  0
  8 17  1  0
  9 24  1  0
 10 11  1  0
 16 10  1  0
 24 10  2  0
 11 12  2  0
 14 12  1  0
 12 25  1  0
 25 13  1  0
 13 26  1  6
 13 27  1  0
 15 14  2  0
 16 15  1  0
 17 16  2  0
 18 19  1  0
 21 22  1  6
M  END
$$$$
