
     RDKit          3D

 27 29  0  0  0  0  0  0  0  0999 V2000
   13.6870   30.7267  -16.5698 C   0  0  0  0  0  0  0  0  0  0  0  0
   14.1297   32.2522  -14.7289 C   0  0  0  0  0  0  0  0  0  0  0  0
   11.8149   31.4288  -15.1761 C   0  0  1  0  0  0  0  0  0  0  0  0
   12.1503   28.9890  -15.0913 C   0  0  0  0  0  0  0  0  0  0  0  0
   12.0826   30.2373  -12.9658 C   0  0  0  0  0  0  0  0  0  0  0  0
   11.8582   31.5127  -13.7011 C   0  0  0  0  0  0  0  0  0  0  0  0
   10.0253   27.4286  -12.6942 C   0  0  0  0  0  0  0  0  0  0  0  0
    8.7702   26.6609  -12.8436 C   0  0  0  0  0  0  0  0  0  0  0  0
    8.0293   26.3372  -11.7258 C   0  0  0  0  0  0  0  0  0  0  0  0
    6.4560   25.2450  -13.1045 C   0  0  0  0  0  0  0  0  0  0  0  0
    5.2805   24.5314  -13.1845 C   0  0  0  0  0  0  0  0  0  0  0  0
    4.7797   24.0973  -14.4249 C   0  0  0  0  0  0  0  0  0  0  0  0
    2.3701   23.7997  -13.9862 C   0  0  1  0  0  0  0  0  0  0  0  0
    5.5396   24.4353  -15.5167 C   0  0  0  0  0  0  0  0  0  0  0  0
    6.7185   25.1482  -15.4623 C   0  0  0  0  0  0  0  0  0  0  0  0
    7.1804   25.5583  -14.2280 C   0  0  0  0  0  0  0  0  0  0  0  0
    8.3462   26.2726  -14.0875 C   0  0  0  0  0  0  0  0  0  0  0  0
   13.1275   31.9144  -15.8107 C   0  0  2  0  0  0  0  0  0  0  0  0
   12.9315   32.9417  -16.6956 O   0  0  0  0  0  0  0  0  0  0  0  0
   11.4115   30.0990  -15.7383 C   0  0  0  0  0  0  0  0  0  0  0  0
   11.7707   28.9887  -13.6264 C   0  0  1  0  0  0  0  0  0  0  0  0
   10.4413   28.4609  -13.5331 N   0  0  0  0  0  0  0  0  0  0  0  0
   10.7801   27.1353  -11.7423 O   0  0  0  0  0  0  0  0  0  0  0  0
    6.9017   25.6441  -11.8822 N   0  0  0  0  0  0  0  0  0  0  0  0
    3.6052   23.3874  -14.4743 O   0  0  0  0  0  0  0  0  0  0  0  0
    1.4508   22.7978  -14.2645 F   0  0  0  0  0  0  0  0  0  0  0  0
    2.5213   23.9320  -12.5969 F   0  0  0  0  0  0  0  0  0  0  0  0
 18  1  1  6
 18  2  1  0
  3  6  1  1
  3 18  1  0
 20  3  1  0
  4 20  1  0
 21  4  1  0
  5  6  1  0
 21  5  1  0
  7  8  1  0
 22  7  1  0
  7 23  2  0
  8  9  2  0
  8 17  1  0
  9 24  1  0
 10 11  1  0
 16 10  1  0
 24 10  2  0
 11 12  2  0
 14 12  1  0
 12 25  1  0
 25 13  1  0
 13 26  1  1
 13 27  1  0
 15 14  2  0
 16 15  1  0
 17 16  2  0
 18 19  1  0
 21 22  1  6
M  END
$$$$
