
     RDKit          3D

 27 29  0  0  0  0  0  0  0  0999 V2000
  -15.2396   30.7386  -32.5661 C   0  0  0  0  0  0  0  0  0  0  0  0
  -15.1526   30.5501  -34.9887 C   0  0  0  0  0  0  0  0  0  0  0  0
  -13.4063   29.4781  -33.5612 C   0  0  1  0  0  0  0  0  0  0  0  0
  -11.1413   30.4364  -33.7156 C   0  0  0  0  0  0  0  0  0  0  0  0
  -11.8970   29.5593  -31.5383 C   0  0  0  0  0  0  0  0  0  0  0  0
  -13.2058   29.1666  -32.1304 C   0  0  0  0  0  0  0  0  0  0  0  0
   -9.0414   27.9906  -31.9012 C   0  0  0  0  0  0  0  0  0  0  0  0
   -7.9577   27.0809  -32.3314 C   0  0  0  0  0  0  0  0  0  0  0  0
   -7.8637   26.7077  -33.6562 C   0  0  0  0  0  0  0  0  0  0  0  0
   -5.9665   25.4036  -33.1375 C   0  0  0  0  0  0  0  0  0  0  0  0
   -4.9788   24.5587  -33.5935 C   0  0  0  0  0  0  0  0  0  0  0  0
   -4.0123   24.0344  -32.7167 C   0  0  0  0  0  0  0  0  0  0  0  0
   -3.2376   22.0762  -34.0022 C   0  0  1  0  0  0  0  0  0  0  0  0
   -4.1335   24.4247  -31.4065 C   0  0  0  0  0  0  0  0  0  0  0  0
   -5.1124   25.2685  -30.9262 C   0  0  0  0  0  0  0  0  0  0  0  0
   -6.0446   25.7644  -31.8150 C   0  0  0  0  0  0  0  0  0  0  0  0
   -7.0518   26.6107  -31.4170 C   0  0  0  0  0  0  0  0  0  0  0  0
  -14.2958   30.7164  -33.7529 C   0  0  2  0  0  0  0  0  0  0  0  0
  -13.5756   31.8819  -33.7564 O   0  0  0  0  0  0  0  0  0  0  0  0
  -12.1569   29.5875  -34.3822 C   0  0  0  0  0  0  0  0  0  0  0  0
  -10.7653   29.7542  -32.4181 C   0  0  1  0  0  0  0  0  0  0  0  0
   -9.9384   28.6324  -32.7533 N   0  0  0  0  0  0  0  0  0  0  0  0
   -9.1712   28.2074  -30.6773 O   0  0  0  0  0  0  0  0  0  0  0  0
   -6.8802   25.8864  -34.0229 N   0  0  0  0  0  0  0  0  0  0  0  0
   -3.0392   23.1942  -33.1995 O   0  0  0  0  0  0  0  0  0  0  0  0
   -4.0505   21.1944  -33.3037 F   0  0  0  0  0  0  0  0  0  0  0  0
   -3.9066   22.5303  -35.1497 F   0  0  0  0  0  0  0  0  0  0  0  0
 18  1  1  1
 18  2  1  0
  3  6  1  1
  3 18  1  0
 20  3  1  0
  4 20  1  0
 21  4  1  0
  5  6  1  0
 21  5  1  0
  7  8  1  0
 22  7  1  0
  7 23  2  0
  8  9  2  0
  8 17  1  0
  9 24  1  0
 10 11  1  0
 16 10  1  0
 24 10  2  0
 11 12  2  0
 14 12  1  0
 12 25  1  0
 25 13  1  0
 13 26  1  1
 13 27  1  0
 15 14  2  0
 16 15  1  0
 17 16  2  0
 18 19  1  0
 21 22  1  6
M  END
$$$$
