
     RDKit          3D

 27 29  0  0  0  0  0  0  0  0999 V2000
  -13.5473   32.2213  -34.3145 C   0  0  0  0  0  0  0  0  0  0  0  0
  -15.1403   31.4088  -32.6671 C   0  0  0  0  0  0  0  0  0  0  0  0
  -13.6949   29.8178  -33.9384 C   0  0  1  0  0  0  0  0  0  0  0  0
  -11.4210   30.6954  -33.5758 C   0  0  0  0  0  0  0  0  0  0  0  0
  -12.5067   29.4583  -31.7394 C   0  0  0  0  0  0  0  0  0  0  0  0
  -13.7161   29.2367  -32.5796 C   0  0  0  0  0  0  0  0  0  0  0  0
   -9.2187   28.2955  -32.1866 C   0  0  0  0  0  0  0  0  0  0  0  0
   -8.2845   27.2726  -32.7042 C   0  0  0  0  0  0  0  0  0  0  0  0
   -8.3551   26.8889  -34.0275 C   0  0  0  0  0  0  0  0  0  0  0  0
   -6.5702   25.3871  -33.6706 C   0  0  0  0  0  0  0  0  0  0  0  0
   -5.7264   24.4388  -34.2058 C   0  0  0  0  0  0  0  0  0  0  0  0
   -4.7449   23.8141  -33.4157 C   0  0  0  0  0  0  0  0  0  0  0  0
   -2.7242   22.3988  -33.4422 C   0  0  1  0  0  0  0  0  0  0  0  0
   -4.7007   24.2177  -32.1047 C   0  0  0  0  0  0  0  0  0  0  0  0
   -5.5336   25.1638  -31.5461 C   0  0  0  0  0  0  0  0  0  0  0  0
   -6.4854   25.7566  -32.3510 C   0  0  0  0  0  0  0  0  0  0  0  0
   -7.3537   26.7081  -31.8718 C   0  0  0  0  0  0  0  0  0  0  0  0
  -14.5302   31.1052  -34.0178 C   0  0  2  0  0  0  0  0  0  0  0  0
  -15.4581   31.0650  -35.0250 O   0  0  0  0  0  0  0  0  0  0  0  0
  -12.3349   30.0278  -34.5327 C   0  0  0  0  0  0  0  0  0  0  0  0
  -11.2531   29.7681  -32.3916 C   0  0  1  0  0  0  0  0  0  0  0  0
  -10.3989   28.6960  -32.8105 N   0  0  0  0  0  0  0  0  0  0  0  0
   -8.9356   28.8511  -31.1036 O   0  0  0  0  0  0  0  0  0  0  0  0
   -7.5046   25.9648  -34.4736 N   0  0  0  0  0  0  0  0  0  0  0  0
   -3.9176   22.8721  -33.9763 O   0  0  0  0  0  0  0  0  0  0  0  0
   -2.3279   21.3049  -34.1991 F   0  0  0  0  0  0  0  0  0  0  0  0
   -1.7907   23.4375  -33.5851 F   0  0  0  0  0  0  0  0  0  0  0  0
 18  1  1  6
 18  2  1  0
  3  6  1  1
  3 18  1  0
 20  3  1  0
  4 20  1  0
 21  4  1  0
  5  6  1  0
 21  5  1  0
  7  8  1  0
 22  7  1  0
  7 23  2  0
  8  9  2  0
  8 17  1  0
  9 24  1  0
 10 11  1  0
 16 10  1  0
 24 10  2  0
 11 12  2  0
 14 12  1  0
 12 25  1  0
 25 13  1  0
 13 26  1  6
 13 27  1  0
 15 14  2  0
 16 15  1  0
 17 16  2  0
 18 19  1  0
 21 22  1  6
M  END
$$$$
