
     RDKit          3D

 27 29  0  0  0  0  0  0  0  0999 V2000
   13.9373   32.2719  -11.7080 C   0  0  0  0  0  0  0  0  0  0  0  0
   12.2421   33.9570  -12.1534 C   0  0  0  0  0  0  0  0  0  0  0  0
   11.7012   31.5251  -12.3259 C   0  0  1  0  0  0  0  0  0  0  0  0
   10.8841   31.0102  -14.5930 C   0  0  0  0  0  0  0  0  0  0  0  0
   12.1744   29.2855  -13.3922 C   0  0  0  0  0  0  0  0  0  0  0  0
   12.3107   30.1835  -12.2120 C   0  0  0  0  0  0  0  0  0  0  0  0
    9.1372   28.1116  -14.9984 C   0  0  0  0  0  0  0  0  0  0  0  0
    8.0613   27.1690  -14.6230 C   0  0  0  0  0  0  0  0  0  0  0  0
    7.8267   26.8940  -13.2917 C   0  0  0  0  0  0  0  0  0  0  0  0
    6.0828   25.4324  -13.9174 C   0  0  0  0  0  0  0  0  0  0  0  0
    5.0952   24.5625  -13.5106 C   0  0  0  0  0  0  0  0  0  0  0  0
    4.2740   23.9099  -14.4473 C   0  0  0  0  0  0  0  0  0  0  0  0
    3.2608   22.3916  -12.7873 C   0  0  1  0  0  0  0  0  0  0  0  0
    4.5328   24.2048  -15.7626 C   0  0  0  0  0  0  0  0  0  0  0  0
    5.5146   25.0711  -16.1943 C   0  0  0  0  0  0  0  0  0  0  0  0
    6.3020   25.6942  -15.2472 C   0  0  0  0  0  0  0  0  0  0  0  0
    7.3017   26.5712  -15.5944 C   0  0  0  0  0  0  0  0  0  0  0  0
   12.7577   32.6067  -12.6003 C   0  0  2  0  0  0  0  0  0  0  0  0
   13.1837   32.6030  -13.9024 O   0  0  0  0  0  0  0  0  0  0  0  0
   10.5595   31.6389  -13.2907 C   0  0  0  0  0  0  0  0  0  0  0  0
   11.1084   29.5354  -14.3378 C   0  0  1  0  0  0  0  0  0  0  0  0
    9.8222   28.9435  -14.1145 N   0  0  0  0  0  0  0  0  0  0  0  0
    9.4655   28.1743  -16.2026 O   0  0  0  0  0  0  0  0  0  0  0  0
    6.8529   26.0410  -12.9748 N   0  0  0  0  0  0  0  0  0  0  0  0
    3.2974   23.0477  -14.0128 O   0  0  0  0  0  0  0  0  0  0  0  0
    4.4081   21.6166  -12.6895 F   0  0  0  0  0  0  0  0  0  0  0  0
    3.2804   23.3938  -11.8046 F   0  0  0  0  0  0  0  0  0  0  0  0
 18  1  1  1
 18  2  1  0
  3  6  1  6
  3 18  1  0
 20  3  1  0
  4 20  1  0
 21  4  1  0
  5  6  1  0
 21  5  1  0
  7  8  1  0
 22  7  1  0
  7 23  2  0
  8  9  2  0
  8 17  1  0
  9 24  1  0
 10 11  1  0
 16 10  1  0
 24 10  2  0
 11 12  2  0
 14 12  1  0
 12 25  1  0
 25 13  1  0
 13 26  1  1
 13 27  1  0
 15 14  2  0
 16 15  1  0
 17 16  2  0
 18 19  1  0
 21 22  1  1
M  END
$$$$
