
     RDKit          3D

 27 29  0  0  0  0  0  0  0  0999 V2000
  -14.4987   30.8246  -31.1062 C   0  0  0  0  0  0  0  0  0  0  0  0
  -13.4784   32.7044  -29.9497 C   0  0  0  0  0  0  0  0  0  0  0  0
  -12.0817   31.0993  -31.2572 C   0  0  1  0  0  0  0  0  0  0  0  0
  -11.5422   28.7045  -31.0421 C   0  0  0  0  0  0  0  0  0  0  0  0
  -12.4478   29.5139  -33.1883 C   0  0  0  0  0  0  0  0  0  0  0  0
  -12.5148   30.9033  -32.6566 C   0  0  0  0  0  0  0  0  0  0  0  0
   -9.7148   27.6692  -34.0102 C   0  0  0  0  0  0  0  0  0  0  0  0
   -8.4396   26.9210  -33.9775 C   0  0  0  0  0  0  0  0  0  0  0  0
   -7.4184   27.2723  -34.8359 C   0  0  0  0  0  0  0  0  0  0  0  0
   -6.0850   25.5494  -33.9291 C   0  0  0  0  0  0  0  0  0  0  0  0
   -4.8772   24.8871  -33.9427 C   0  0  0  0  0  0  0  0  0  0  0  0
   -4.6312   23.8113  -33.0710 C   0  0  0  0  0  0  0  0  0  0  0  0
   -2.1713   23.7680  -33.2565 C   0  0  1  0  0  0  0  0  0  0  0  0
   -5.6665   23.4870  -32.2303 C   0  0  0  0  0  0  0  0  0  0  0  0
   -6.8835   24.1341  -32.1979 C   0  0  0  0  0  0  0  0  0  0  0  0
   -7.0903   25.1858  -33.0675 C   0  0  0  0  0  0  0  0  0  0  0  0
   -8.2745   25.8827  -33.0985 C   0  0  0  0  0  0  0  0  0  0  0  0
  -13.2808   31.2478  -30.3077 C   0  0  2  0  0  0  0  0  0  0  0  0
  -13.1801   30.4373  -29.2077 O   0  0  0  0  0  0  0  0  0  0  0  0
  -11.1085   30.0874  -30.7319 C   0  0  0  0  0  0  0  0  0  0  0  0
  -11.5615   28.5658  -32.5490 C   0  0  1  0  0  0  0  0  0  0  0  0
  -10.1986   28.4790  -32.9842 N   0  0  0  0  0  0  0  0  0  0  0  0
  -10.4224   27.5738  -35.0358 O   0  0  0  0  0  0  0  0  0  0  0  0
   -6.2776   26.5847  -34.7909 N   0  0  0  0  0  0  0  0  0  0  0  0
   -3.4175   23.1696  -33.1069 O   0  0  0  0  0  0  0  0  0  0  0  0
   -1.2085   22.7785  -33.1141 F   0  0  0  0  0  0  0  0  0  0  0  0
   -2.1357   24.2796  -34.5632 F   0  0  0  0  0  0  0  0  0  0  0  0
 18  1  1  6
 18  2  1  0
  3  6  1  6
  3 18  1  0
 20  3  1  0
  4 20  1  0
 21  4  1  0
  5  6  1  0
 21  5  1  0
  7  8  1  0
 22  7  1  0
  7 23  2  0
  8  9  2  0
  8 17  1  0
  9 24  1  0
 10 11  1  0
 16 10  1  0
 24 10  2  0
 11 12  2  0
 14 12  1  0
 12 25  1  0
 25 13  1  0
 13 26  1  6
 13 27  1  0
 15 14  2  0
 16 15  1  0
 17 16  2  0
 18 19  1  0
 21 22  1  6
M  END
$$$$
