
     RDKit          3D

 14 13  0  0  0  0  0  0  0  0999 V2000
   21.5973   40.7644   34.5504 C   0  0  0  0  0  0  0  0  0  0  0  0
   20.3880   40.0905   33.8134 B   0  0  1  0  0  4  0  0  0  0  0  0
   30.2488   37.5463   35.4084 C   0  0  0  0  0  0  0  0  0  0  0  0
   29.5527   38.7277   34.7562 C   0  0  0  0  0  0  0  0  0  0  0  0
   28.1535   38.8992   35.2952 C   0  0  0  0  0  0  0  0  0  0  0  0
   26.3760   40.4189   35.7701 C   0  0  0  0  0  0  0  0  0  0  0  0
   25.2155   39.7978   35.0441 C   0  0  0  0  0  0  0  0  0  0  0  0
   24.0272   40.7304   34.9817 C   0  0  0  0  0  0  0  0  0  0  0  0
   22.8886   40.0894   34.2420 C   0  0  0  0  0  0  0  0  0  0  0  0
   31.4114   37.2154   34.6012 N   0  0  0  0  0  4  0  0  0  0  0  0
   27.6080   40.1964   35.0493 N   0  0  0  0  0  4  0  0  0  0  0  0
   20.4965   40.3916   32.3669 O   0  0  0  0  0  3  0  0  0  0  0  0
   20.3185   38.6337   33.9513 O   0  0  0  0  0  3  0  0  0  0  0  0
   19.1332   40.6555   34.3100 O   0  0  0  0  0  3  0  0  0  0  0  0
  1  2  1  0
  9  1  1  0
  2 12  1  6
  2 14  1  0
  4  3  1  0
  3 10  1  0
  5  4  1  0
 11  5  1  0
  7  6  1  0
  6 11  1  0
  8  7  1  0
  8  9  1  0
  2 13  1  0
M  CHG  6   2  -1  10   1  11   1  12   1  13   1  14   1
M  END
$$$$
