
     RDKit          3D

 14 13  0  0  0  0  0  0  0  0999 V2000
   21.4474   40.7814   34.5689 C   0  0  0  0  0  0  0  0  0  0  0  0
   20.2281   40.1407   33.8189 B   0  0  1  0  0  4  0  0  0  0  0  0
   30.2835   38.0272   36.7669 C   0  0  0  0  0  0  0  0  0  0  0  0
   29.4853   39.2473   36.3430 C   0  0  0  0  0  0  0  0  0  0  0  0
   28.1774   38.8463   35.7054 C   0  0  0  0  0  0  0  0  0  0  0  0
   26.1853   40.1451   35.9029 C   0  0  0  0  0  0  0  0  0  0  0  0
   25.0323   39.6196   35.0942 C   0  0  0  0  0  0  0  0  0  0  0  0
   23.7809   40.4430   35.2981 C   0  0  0  0  0  0  0  0  0  0  0  0
   22.7108   40.0299   34.3292 C   0  0  0  0  0  0  0  0  0  0  0  0
   31.4565   38.4929   37.4879 N   0  0  0  0  0  4  0  0  0  0  0  0
   27.4323   39.9549   35.1988 N   0  0  0  0  0  4  0  0  0  0  0  0
   20.0920   38.7347   34.2655 O   0  0  0  0  0  3  0  0  0  0  0  0
   18.9425   40.8008   34.0593 O   0  0  0  0  0  3  0  0  0  0  0  0
   20.4801   40.1452   32.3777 O   0  0  0  0  0  3  0  0  0  0  0  0
  1  2  1  0
  9  1  1  0
  2 12  1  1
  2 14  1  0
  4  3  1  0
  3 10  1  0
  5  4  1  0
 11  5  1  0
  7  6  1  0
  6 11  1  0
  8  7  1  0
  8  9  1  0
  2 13  1  0
M  CHG  6   2  -1  10   1  11   1  12   1  13   1  14   1
M  END
$$$$
