
     RDKit          3D

 14 13  0  0  0  0  0  0  0  0999 V2000
   21.9362   39.6315   33.5794 C   0  0  0  0  0  0  0  0  0  0  0  0
   20.4731   40.1426   33.8195 B   0  0  1  0  0  4  0  0  0  0  0  0
   31.1722   38.8362   36.2528 C   0  0  0  0  0  0  0  0  0  0  0  0
   29.9056   39.6676   36.3520 C   0  0  0  0  0  0  0  0  0  0  0  0
   28.6980   38.8716   35.9210 C   0  0  0  0  0  0  0  0  0  0  0  0
   26.3414   38.8392   35.5466 C   0  0  0  0  0  0  0  0  0  0  0  0
   25.0756   39.6418   35.6618 C   0  0  0  0  0  0  0  0  0  0  0  0
   24.2696   39.6071   34.3832 C   0  0  0  0  0  0  0  0  0  0  0  0
   22.8813   40.1290   34.6174 C   0  0  0  0  0  0  0  0  0  0  0  0
   31.9471   39.0622   37.4616 N   0  0  0  0  0  4  0  0  0  0  0  0
   27.4804   39.6168   35.9767 N   0  0  0  0  0  4  0  0  0  0  0  0
   19.9774   39.5597   35.0881 O   0  0  0  0  0  3  0  0  0  0  0  0
   20.3400   41.5976   33.9272 O   0  0  0  0  0  3  0  0  0  0  0  0
   19.6080   39.6853   32.7319 O   0  0  0  0  0  3  0  0  0  0  0  0
  1  2  1  0
  9  1  1  0
  2 12  1  1
  2 14  1  0
  4  3  1  0
  3 10  1  0
  5  4  1  0
 11  5  1  0
  7  6  1  0
  6 11  1  0
  8  7  1  0
  8  9  1  0
  2 13  1  0
M  CHG  6   2  -1  10   1  11   1  12   1  13   1  14   1
M  END
$$$$
