
     RDKit          3D

 14 13  0  0  0  0  0  0  0  0999 V2000
   21.6509   40.2232   34.9484 C   0  0  0  0  0  0  0  0  0  0  0  0
   20.7397   40.0441   33.6845 B   0  0  1  0  0  4  0  0  0  0  0  0
   30.6617   39.0884   35.1597 C   0  0  0  0  0  0  0  0  0  0  0  0
   29.3488   39.5366   35.7770 C   0  0  0  0  0  0  0  0  0  0  0  0
   28.2173   38.6249   35.3689 C   0  0  0  0  0  0  0  0  0  0  0  0
   25.9033   38.3185   35.8650 C   0  0  0  0  0  0  0  0  0  0  0  0
   25.2279   39.6603   35.8114 C   0  0  0  0  0  0  0  0  0  0  0  0
   23.7428   39.5530   36.0736 C   0  0  0  0  0  0  0  0  0  0  0  0
   22.9748   39.5612   34.7834 C   0  0  0  0  0  0  0  0  0  0  0  0
   31.6746   40.0704   35.5097 N   0  0  0  0  0  4  0  0  0  0  0  0
   27.2414   38.4407   36.3957 N   0  0  0  0  0  4  0  0  0  0  0  0
   19.4432   40.7120   33.9455 O   0  0  0  0  0  3  0  0  0  0  0  0
   21.2828   40.6143   32.4492 O   0  0  0  0  0  3  0  0  0  0  0  0
   20.4886   38.6208   33.4574 O   0  0  0  0  0  3  0  0  0  0  0  0
  1  2  1  0
  9  1  1  0
  2 12  1  1
  2 14  1  0
  4  3  1  0
  3 10  1  0
  5  4  1  0
 11  5  1  0
  7  6  1  0
  6 11  1  0
  8  7  1  0
  8  9  1  0
  2 13  1  0
M  CHG  6   2  -1  10   1  11   1  12   1  13   1  14   1
M  END
$$$$
