
     RDKit          3D

 14 13  0  0  0  0  0  0  0  0999 V2000
   21.6058   40.6161   34.4443 C   0  0  0  0  0  0  0  0  0  0  0  0
   20.3562   40.0793   33.6633 B   0  0  1  0  0  4  0  0  0  0  0  0
   30.6649   38.4049   37.4653 C   0  0  0  0  0  0  0  0  0  0  0  0
   29.6186   38.1370   36.3981 C   0  0  0  0  0  0  0  0  0  0  0  0
   28.4582   39.0940   36.5225 C   0  0  0  0  0  0  0  0  0  0  0  0
   26.3507   39.8187   35.6693 C   0  0  0  0  0  0  0  0  0  0  0  0
   25.1133   39.2610   35.0232 C   0  0  0  0  0  0  0  0  0  0  0  0
   23.9659   40.2445   35.0639 C   0  0  0  0  0  0  0  0  0  0  0  0
   22.7743   39.6995   34.3306 C   0  0  0  0  0  0  0  0  0  0  0  0
   30.6715   37.2710   38.3747 N   0  0  0  0  0  4  0  0  0  0  0  0
   27.4620   38.9084   35.5156 N   0  0  0  0  0  4  0  0  0  0  0  0
   19.9858   38.7597   34.2259 O   0  0  0  0  0  3  0  0  0  0  0  0
   19.1692   40.9345   33.7400 O   0  0  0  0  0  3  0  0  0  0  0  0
   20.6983   39.9003   32.2522 O   0  0  0  0  0  3  0  0  0  0  0  0
  1  2  1  0
  9  1  1  0
  2 12  1  1
  2 14  1  0
  4  3  1  0
  3 10  1  0
  5  4  1  0
 11  5  1  0
  7  6  1  0
  6 11  1  0
  8  7  1  0
  8  9  1  0
  2 13  1  0
M  CHG  6   2  -1  10   1  11   1  12   1  13   1  14   1
M  END
$$$$
