
     RDKit          3D

 14 13  0  0  0  0  0  0  0  0999 V2000
   21.9253   40.4871   33.7914 C   0  0  0  0  0  0  0  0  0  0  0  0
   20.4404   39.9877   33.7169 B   0  0  1  0  0  4  0  0  0  0  0  0
   30.6341   39.3920   37.5929 C   0  0  0  0  0  0  0  0  0  0  0  0
   29.2345   39.7933   37.1622 C   0  0  0  0  0  0  0  0  0  0  0  0
   28.6828   38.8289   36.1407 C   0  0  0  0  0  0  0  0  0  0  0  0
   26.5005   39.4899   35.4371 C   0  0  0  0  0  0  0  0  0  0  0  0
   25.0454   39.1147   35.4750 C   0  0  0  0  0  0  0  0  0  0  0  0
   24.2015   40.0506   34.6397 C   0  0  0  0  0  0  0  0  0  0  0  0
   22.8154   39.5007   34.4645 C   0  0  0  0  0  0  0  0  0  0  0  0
   30.5100   38.5268   38.7542 N   0  0  0  0  0  4  0  0  0  0  0  0
   27.2781   38.6061   36.2745 N   0  0  0  0  0  4  0  0  0  0  0  0
   19.6287   41.0347   33.0537 O   0  0  0  0  0  3  0  0  0  0  0  0
   20.2467   38.7449   32.9657 O   0  0  0  0  0  3  0  0  0  0  0  0
   19.9206   39.7880   35.0697 O   0  0  0  0  0  3  0  0  0  0  0  0
  1  2  1  0
  9  1  1  0
  2 12  1  6
  2 14  1  0
  4  3  1  0
  3 10  1  0
  5  4  1  0
 11  5  1  0
  7  6  1  0
  6 11  1  0
  8  7  1  0
  8  9  1  0
  2 13  1  0
M  CHG  6   2  -1  10   1  11   1  12   1  13   1  14   1
M  END
$$$$
