
     RDKit          3D

 14 13  0  0  0  0  0  0  0  0999 V2000
   21.8919   40.0930   33.5693 C   0  0  0  0  0  0  0  0  0  0  0  0
   20.3856   40.1288   34.0048 B   0  0  1  0  0  4  0  0  0  0  0  0
   31.1786   38.9932   36.3496 C   0  0  0  0  0  0  0  0  0  0  0  0
   29.7371   38.9319   36.8225 C   0  0  0  0  0  0  0  0  0  0  0  0
   28.7988   39.4874   35.7790 C   0  0  0  0  0  0  0  0  0  0  0  0
   26.5517   40.0220   35.1793 C   0  0  0  0  0  0  0  0  0  0  0  0
   25.1121   39.8726   35.5849 C   0  0  0  0  0  0  0  0  0  0  0  0
   24.1981   39.7661   34.3853 C   0  0  0  0  0  0  0  0  0  0  0  0
   22.8145   40.2369   34.7296 C   0  0  0  0  0  0  0  0  0  0  0  0
   32.0221   38.5209   37.4350 N   0  0  0  0  0  4  0  0  0  0  0  0
   27.4248   39.4289   36.1657 N   0  0  0  0  0  4  0  0  0  0  0  0
   20.1438   39.0063   34.9410 O   0  0  0  0  0  3  0  0  0  0  0  0
   19.9708   41.3592   34.6831 O   0  0  0  0  0  3  0  0  0  0  0  0
   19.5305   39.9446   32.8321 O   0  0  0  0  0  3  0  0  0  0  0  0
  1  2  1  0
  9  1  1  0
  2 12  1  1
  2 14  1  0
  4  3  1  0
  3 10  1  0
  5  4  1  0
 11  5  1  0
  7  6  1  0
  6 11  1  0
  8  7  1  0
  8  9  1  0
  2 13  1  0
M  CHG  6   2  -1  10   1  11   1  12   1  13   1  14   1
M  END
$$$$
