
     RDKit          3D

 14 13  0  0  0  0  0  0  0  0999 V2000
   22.0169   40.2744   33.4781 C   0  0  0  0  0  0  0  0  0  0  0  0
   20.4974   40.2314   33.8640 B   0  0  1  0  0  4  0  0  0  0  0  0
   30.9299   38.7173   36.9728 C   0  0  0  0  0  0  0  0  0  0  0  0
   29.5960   39.4390   36.8999 C   0  0  0  0  0  0  0  0  0  0  0  0
   28.5205   38.5381   36.3435 C   0  0  0  0  0  0  0  0  0  0  0  0
   26.4701   39.2411   35.3455 C   0  0  0  0  0  0  0  0  0  0  0  0
   25.0731   39.7169   35.6311 C   0  0  0  0  0  0  0  0  0  0  0  0
   24.3060   40.0037   34.3602 C   0  0  0  0  0  0  0  0  0  0  0  0
   22.8951   40.4112   34.6732 C   0  0  0  0  0  0  0  0  0  0  0  0
   31.1257   38.2846   38.3465 N   0  0  0  0  0  4  0  0  0  0  0  0
   27.1983   39.0269   36.5746 N   0  0  0  0  0  4  0  0  0  0  0  0
   19.6998   40.1971   32.6160 O   0  0  0  0  0  3  0  0  0  0  0  0
   20.0996   39.0728   34.6675 O   0  0  0  0  0  3  0  0  0  0  0  0
   20.1440   41.4425   34.6048 O   0  0  0  0  0  3  0  0  0  0  0  0
  1  2  1  0
  9  1  1  0
  2 12  1  6
  2 14  1  0
  4  3  1  0
  3 10  1  0
  5  4  1  0
 11  5  1  0
  7  6  1  0
  6 11  1  0
  8  7  1  0
  8  9  1  0
  2 13  1  0
M  CHG  6   2  -1  10   1  11   1  12   1  13   1  14   1
M  END
$$$$
