
     RDKit          3D

 14 13  0  0  0  0  0  0  0  0999 V2000
   22.0494   40.2625   33.7404 C   0  0  0  0  0  0  0  0  0  0  0  0
   20.5199   40.0339   34.0011 B   0  0  1  0  0  4  0  0  0  0  0  0
   31.1034   39.1548   36.0723 C   0  0  0  0  0  0  0  0  0  0  0  0
   29.8018   38.3825   35.9501 C   0  0  0  0  0  0  0  0  0  0  0  0
   28.6166   39.2619   36.2662 C   0  0  0  0  0  0  0  0  0  0  0  0
   26.5280   38.7808   35.2169 C   0  0  0  0  0  0  0  0  0  0  0  0
   25.1966   39.3205   35.6592 C   0  0  0  0  0  0  0  0  0  0  0  0
   24.3458   39.7494   34.4854 C   0  0  0  0  0  0  0  0  0  0  0  0
   22.8911   39.7510   34.8576 C   0  0  0  0  0  0  0  0  0  0  0  0
   31.2682   39.5285   37.4673 N   0  0  0  0  0  4  0  0  0  0  0  0
   27.3860   38.5418   36.3544 N   0  0  0  0  0  4  0  0  0  0  0  0
   19.7654   40.5520   32.8361 O   0  0  0  0  0  3  0  0  0  0  0  0
   20.1301   38.6338   34.1851 O   0  0  0  0  0  3  0  0  0  0  0  0
   20.1066   40.7817   35.1887 O   0  0  0  0  0  3  0  0  0  0  0  0
  1  2  1  0
  9  1  1  0
  2 12  1  6
  2 14  1  0
  4  3  1  0
  3 10  1  0
  5  4  1  0
 11  5  1  0
  7  6  1  0
  6 11  1  0
  8  7  1  0
  8  9  1  0
  2 13  1  0
M  CHG  6   2  -1  10   1  11   1  12   1  13   1  14   1
M  END
$$$$
