
     RDKit          3D

 14 13  0  0  0  0  0  0  0  0999 V2000
   21.7044   40.6764   34.3152 C   0  0  0  0  0  0  0  0  0  0  0  0
   20.3968   39.8821   33.9700 B   0  0  1  0  0  4  0  0  0  0  0  0
   29.2462   37.3600   37.9469 C   0  0  0  0  0  0  0  0  0  0  0  0
   29.1592   38.5276   36.9801 C   0  0  0  0  0  0  0  0  0  0  0  0
   27.7949   38.6013   36.3387 C   0  0  0  0  0  0  0  0  0  0  0  0
   26.4787   40.4344   35.5626 C   0  0  0  0  0  0  0  0  0  0  0  0
   25.2629   39.6487   35.1576 C   0  0  0  0  0  0  0  0  0  0  0  0
   24.0141   40.5006   35.1673 C   0  0  0  0  0  0  0  0  0  0  0  0
   22.8714   39.7737   34.5188 C   0  0  0  0  0  0  0  0  0  0  0  0
   30.6247   36.8993   37.9632 N   0  0  0  0  0  4  0  0  0  0  0  0
   27.6785   39.6513   35.3770 N   0  0  0  0  0  4  0  0  0  0  0  0
   20.1869   38.8525   35.0144 O   0  0  0  0  0  3  0  0  0  0  0  0
   19.1805   40.6965   33.9101 O   0  0  0  0  0  3  0  0  0  0  0  0
   20.5572   39.2074   32.6818 O   0  0  0  0  0  3  0  0  0  0  0  0
  1  2  1  0
  9  1  1  0
  2 12  1  1
  2 14  1  0
  4  3  1  0
  3 10  1  0
  5  4  1  0
 11  5  1  0
  7  6  1  0
  6 11  1  0
  8  7  1  0
  8  9  1  0
  2 13  1  0
M  CHG  6   2  -1  10   1  11   1  12   1  13   1  14   1
M  END
$$$$
