
     RDKit          3D

 14 13  0  0  0  0  0  0  0  0999 V2000
   21.8640   40.5160   34.5292 C   0  0  0  0  0  0  0  0  0  0  0  0
   20.5080   39.9072   34.0289 B   0  0  1  0  0  4  0  0  0  0  0  0
   29.8795   37.5395   37.8073 C   0  0  0  0  0  0  0  0  0  0  0  0
   29.4505   38.9588   37.4798 C   0  0  0  0  0  0  0  0  0  0  0  0
   28.6980   39.0110   36.1725 C   0  0  0  0  0  0  0  0  0  0  0  0
   26.6540   39.5517   35.0660 C   0  0  0  0  0  0  0  0  0  0  0  0
   25.1934   39.2070   35.1520 C   0  0  0  0  0  0  0  0  0  0  0  0
   24.3224   40.3044   34.5839 C   0  0  0  0  0  0  0  0  0  0  0  0
   23.0393   39.7384   34.0472 C   0  0  0  0  0  0  0  0  0  0  0  0
   29.7881   37.3697   39.2479 N   0  0  0  0  0  4  0  0  0  0  0  0
   27.3107   39.3130   36.3304 N   0  0  0  0  0  4  0  0  0  0  0  0
   20.4894   38.4657   34.3704 O   0  0  0  0  0  3  0  0  0  0  0  0
   19.3093   40.5099   34.6172 O   0  0  0  0  0  3  0  0  0  0  0  0
   20.4172   40.0387   32.5747 O   0  0  0  0  0  3  0  0  0  0  0  0
  1  2  1  0
  9  1  1  0
  2 12  1  6
  2 14  1  0
  4  3  1  0
  3 10  1  0
  5  4  1  0
 11  5  1  0
  7  6  1  0
  6 11  1  0
  8  7  1  0
  8  9  1  0
  2 13  1  0
M  CHG  6   2  -1  10   1  11   1  12   1  13   1  14   1
M  END
$$$$
