
     RDKit          3D

 14 13  0  0  0  0  0  0  0  0999 V2000
   21.6270   40.5011   34.5451 C   0  0  0  0  0  0  0  0  0  0  0  0
   20.3516   39.9440   33.8221 B   0  0  1  0  0  4  0  0  0  0  0  0
   30.7144   38.2809   37.1578 C   0  0  0  0  0  0  0  0  0  0  0  0
   29.5680   37.9385   36.2229 C   0  0  0  0  0  0  0  0  0  0  0  0
   28.5100   39.0146   36.2437 C   0  0  0  0  0  0  0  0  0  0  0  0
   26.4425   39.8174   35.3631 C   0  0  0  0  0  0  0  0  0  0  0  0
   25.0934   39.2768   34.9793 C   0  0  0  0  0  0  0  0  0  0  0  0
   24.0811   40.3817   34.7792 C   0  0  0  0  0  0  0  0  0  0  0  0
   22.8783   39.8710   34.0396 C   0  0  0  0  0  0  0  0  0  0  0  0
   30.4335   37.6703   38.4465 N   0  0  0  0  0  4  0  0  0  0  0  0
   27.4403   38.7734   35.3281 N   0  0  0  0  0  4  0  0  0  0  0  0
   19.1630   40.6345   34.3745 O   0  0  0  0  0  3  0  0  0  0  0  0
   20.3335   40.1390   32.3702 O   0  0  0  0  0  3  0  0  0  0  0  0
   20.2204   38.5119   34.0910 O   0  0  0  0  0  3  0  0  0  0  0  0
  1  2  1  0
  9  1  1  0
  2 12  1  1
  2 14  1  0
  4  3  1  0
  3 10  1  0
  5  4  1  0
 11  5  1  0
  7  6  1  0
  6 11  1  0
  8  7  1  0
  8  9  1  0
  2 13  1  0
M  CHG  6   2  -1  10   1  11   1  12   1  13   1  14   1
M  END
$$$$
