
     RDKit          3D

 14 13  0  0  0  0  0  0  0  0999 V2000
   21.6094   40.2062   34.9217 C   0  0  0  0  0  0  0  0  0  0  0  0
   20.3379   39.9718   34.0341 B   0  0  1  0  0  4  0  0  0  0  0  0
   30.5590   38.7322   37.4022 C   0  0  0  0  0  0  0  0  0  0  0  0
   29.2494   38.3111   36.7595 C   0  0  0  0  0  0  0  0  0  0  0  0
   28.4071   39.5124   36.4051 C   0  0  0  0  0  0  0  0  0  0  0  0
   26.4237   40.3404   35.3684 C   0  0  0  0  0  0  0  0  0  0  0  0
   25.1918   39.9489   34.6011 C   0  0  0  0  0  0  0  0  0  0  0  0
   24.0029   40.8065   34.9709 C   0  0  0  0  0  0  0  0  0  0  0  0
   22.8226   40.4794   34.1022 C   0  0  0  0  0  0  0  0  0  0  0  0
   31.1594   37.5514   38.0004 N   0  0  0  0  0  4  0  0  0  0  0  0
   27.2295   39.1795   35.6681 N   0  0  0  0  0  4  0  0  0  0  0  0
   20.5700   38.7743   33.1934 O   0  0  0  0  0  3  0  0  0  0  0  0
   19.0989   39.7456   34.7824 O   0  0  0  0  0  3  0  0  0  0  0  0
   20.1345   41.1222   33.1533 O   0  0  0  0  0  3  0  0  0  0  0  0
  1  2  1  0
  9  1  1  0
  2 12  1  6
  2 14  1  0
  4  3  1  0
  3 10  1  0
  5  4  1  0
 11  5  1  0
  7  6  1  0
  6 11  1  0
  8  7  1  0
  8  9  1  0
  2 13  1  0
M  CHG  6   2  -1  10   1  11   1  12   1  13   1  14   1
M  END
$$$$
