
     RDKit          3D

 14 13  0  0  0  0  0  0  0  0999 V2000
   16.4752   19.3866    2.3987 C   0  0  0  0  0  0  0  0  0  0  0  0
   17.9825   19.8173    2.4469 B   0  0  1  0  0  4  0  0  0  0  0  0
   10.0171   22.5316    5.4448 C   0  0  0  0  0  0  0  0  0  0  0  0
    9.4708   21.2728    4.7948 C   0  0  0  0  0  0  0  0  0  0  0  0
   10.1509   20.0407    5.3399 C   0  0  0  0  0  0  0  0  0  0  0  0
   12.5210   20.0889    5.0658 C   0  0  0  0  0  0  0  0  0  0  0  0
   13.3144   20.7702    3.9861 C   0  0  0  0  0  0  0  0  0  0  0  0
   14.1872   19.7950    3.2294 C   0  0  0  0  0  0  0  0  0  0  0  0
   15.6322   20.1918    3.3256 C   0  0  0  0  0  0  0  0  0  0  0  0
    9.3123   23.6674    4.8740 N   0  0  0  0  0  4  0  0  0  0  0  0
   11.2598   19.6103    4.5488 N   0  0  0  0  0  4  0  0  0  0  0  0
   18.7376   18.9813    1.4847 O   0  0  0  0  0  3  0  0  0  0  0  0
   18.2332   21.2179    2.0978 O   0  0  0  0  0  3  0  0  0  0  0  0
   18.5192   19.5787    3.7868 O   0  0  0  0  0  3  0  0  0  0  0  0
  1  2  1  0
  9  1  1  0
  2 12  1  6
  2 14  1  0
  4  3  1  0
  3 10  1  0
  5  4  1  0
 11  5  1  0
  7  6  1  0
  6 11  1  0
  8  7  1  0
  8  9  1  0
  2 13  1  0
M  CHG  6   2  -1  10   1  11   1  12   1  13   1  14   1
M  END
$$$$
