
     RDKit          3D

 11 11  0  0  0  0  0  0  0  0999 V2000
  -18.4224   -2.7458  -29.2345 C   0  0  0  0  0  0  0  0  0  0  0  0
  -16.9897   -3.1618  -29.2112 C   0  0  0  0  0  0  0  0  0  0  0  0
  -16.3906   -3.1973  -27.8277 C   0  0  1  0  0  0  0  0  0  0  0  0
  -17.2899   -2.3231  -26.9471 C   0  0  0  0  0  0  0  0  0  0  0  0
  -16.3792   -4.5361  -27.2313 C   0  0  0  0  0  0  0  0  0  0  0  0
  -15.2818   -5.3390  -27.4329 C   0  0  0  0  0  0  0  0  0  0  0  0
  -15.1663   -6.6160  -26.9176 C   0  0  0  0  0  0  0  0  0  0  0  0
  -16.2281   -7.0703  -26.1688 C   0  0  0  0  0  0  0  0  0  0  0  0
  -16.1120   -8.3637  -25.6466 O   0  0  0  0  0  0  0  0  0  0  0  0
  -17.3261   -6.2866  -25.9584 C   0  0  0  0  0  0  0  0  0  0  0  0
  -17.4202   -5.0225  -26.4788 C   0  0  0  0  0  0  0  0  0  0  0  0
  1  2  1  0
  2  3  1  0
  3  4  1  1
  3  5  1  0
  5  6  2  0
  5 11  1  0
  6  7  1  0
  7  8  2  0
  8  9  1  0
  8 10  1  0
 10 11  2  0
M  END
$$$$
