
     RDKit          3D

 11 11  0  0  0  0  0  0  0  0999 V2000
  -16.5449   -2.7401  -29.8331 C   0  0  0  0  0  0  0  0  0  0  0  0
  -17.3130   -3.0742  -28.5983 C   0  0  0  0  0  0  0  0  0  0  0  0
  -16.4626   -3.1427  -27.3548 C   0  0  1  0  0  0  0  0  0  0  0  0
  -17.2931   -2.5139  -26.2307 C   0  0  0  0  0  0  0  0  0  0  0  0
  -16.1470   -4.5121  -26.9386 C   0  0  0  0  0  0  0  0  0  0  0  0
  -17.0517   -5.1889  -26.1556 C   0  0  0  0  0  0  0  0  0  0  0  0
  -16.8555   -6.4814  -25.7075 C   0  0  0  0  0  0  0  0  0  0  0  0
  -15.6795   -7.0872  -26.0876 C   0  0  0  0  0  0  0  0  0  0  0  0
  -15.4800   -8.3962  -25.6342 O   0  0  0  0  0  0  0  0  0  0  0  0
  -14.7696   -6.4301  -26.8650 C   0  0  0  0  0  0  0  0  0  0  0  0
  -14.9840   -5.1480  -27.2987 C   0  0  0  0  0  0  0  0  0  0  0  0
  1  2  1  0
  2  3  1  0
  3  4  1  1
  3  5  1  0
  5  6  2  0
  5 11  1  0
  6  7  1  0
  7  8  2  0
  8  9  1  0
  8 10  1  0
 10 11  2  0
M  END
$$$$
