
     RDKit          3D

 11 11  0  0  0  0  0  0  0  0999 V2000
  -16.5860   -2.8917  -29.8573 C   0  0  0  0  0  0  0  0  0  0  0  0
  -17.4919   -3.0779  -28.6865 C   0  0  0  0  0  0  0  0  0  0  0  0
  -16.7660   -3.1878  -27.3692 C   0  0  1  0  0  0  0  0  0  0  0  0
  -17.6618   -2.5101  -26.3267 C   0  0  0  0  0  0  0  0  0  0  0  0
  -16.5659   -4.5708  -26.9271 C   0  0  0  0  0  0  0  0  0  0  0  0
  -15.4281   -5.2324  -27.3237 C   0  0  0  0  0  0  0  0  0  0  0  0
  -15.1397   -6.5355  -26.9655 C   0  0  0  0  0  0  0  0  0  0  0  0
  -16.0664   -7.1687  -26.1688 C   0  0  0  0  0  0  0  0  0  0  0  0
  -15.7751   -8.4886  -25.8054 O   0  0  0  0  0  0  0  0  0  0  0  0
  -17.2020   -6.5271  -25.7654 C   0  0  0  0  0  0  0  0  0  0  0  0
  -17.4687   -5.2340  -26.1323 C   0  0  0  0  0  0  0  0  0  0  0  0
  1  2  1  0
  2  3  1  0
  3  4  1  1
  3  5  1  0
  5  6  2  0
  5 11  1  0
  6  7  1  0
  7  8  2  0
  8  9  1  0
  8 10  1  0
 10 11  2  0
M  END
$$$$
