
     RDKit          3D

 11 11  0  0  0  0  0  0  0  0999 V2000
  -17.2605   -2.4877  -29.6976 C   0  0  0  0  0  0  0  0  0  0  0  0
  -17.6876   -3.3195  -28.5349 C   0  0  0  0  0  0  0  0  0  0  0  0
  -16.6534   -3.4099  -27.4411 C   0  0  1  0  0  0  0  0  0  0  0  0
  -17.1350   -2.4871  -26.3164 C   0  0  0  0  0  0  0  0  0  0  0  0
  -16.5267   -4.7528  -26.8678 C   0  0  0  0  0  0  0  0  0  0  0  0
  -15.4054   -5.4922  -27.1605 C   0  0  0  0  0  0  0  0  0  0  0  0
  -15.1843   -6.7668  -26.6746 C   0  0  0  0  0  0  0  0  0  0  0  0
  -16.1627   -7.2870  -25.8581 C   0  0  0  0  0  0  0  0  0  0  0  0
  -15.9396   -8.5779  -25.3656 O   0  0  0  0  0  0  0  0  0  0  0  0
  -17.2828   -6.5668  -25.5568 C   0  0  0  0  0  0  0  0  0  0  0  0
  -17.4824   -5.3038  -26.0495 C   0  0  0  0  0  0  0  0  0  0  0  0
  1  2  1  0
  2  3  1  0
  3  4  1  1
  3  5  1  0
  5  6  2  0
  5 11  1  0
  6  7  1  0
  7  8  2  0
  8  9  1  0
  8 10  1  0
 10 11  2  0
M  END
$$$$
