
     RDKit          3D

 11 11  0  0  0  0  0  0  0  0999 V2000
  -16.8230   -3.3940  -29.7472 C   0  0  0  0  0  0  0  0  0  0  0  0
  -17.3948   -2.8943  -28.4628 C   0  0  0  0  0  0  0  0  0  0  0  0
  -16.4602   -3.0340  -27.2876 C   0  0  1  0  0  0  0  0  0  0  0  0
  -17.0574   -2.1851  -26.1600 C   0  0  0  0  0  0  0  0  0  0  0  0
  -16.3592   -4.4061  -26.7825 C   0  0  0  0  0  0  0  0  0  0  0  0
  -15.2819   -5.1712  -27.1614 C   0  0  0  0  0  0  0  0  0  0  0  0
  -15.0880   -6.4745  -26.7450 C   0  0  0  0  0  0  0  0  0  0  0  0
  -16.0474   -6.9966  -25.9074 C   0  0  0  0  0  0  0  0  0  0  0  0
  -15.8519   -8.3167  -25.4852 O   0  0  0  0  0  0  0  0  0  0  0  0
  -17.1240   -6.2513  -25.5209 C   0  0  0  0  0  0  0  0  0  0  0  0
  -17.2970   -4.9600  -25.9456 C   0  0  0  0  0  0  0  0  0  0  0  0
  1  2  1  0
  2  3  1  0
  3  4  1  1
  3  5  1  0
  5  6  2  0
  5 11  1  0
  6  7  1  0
  7  8  2  0
  8  9  1  0
  8 10  1  0
 10 11  2  0
M  END
$$$$
