
     RDKit          3D

 11 11  0  0  0  0  0  0  0  0999 V2000
  -16.3032   -1.5941  -26.0673 C   0  0  0  0  0  0  0  0  0  0  0  0
  -16.3531   -2.1043  -27.4685 C   0  0  0  0  0  0  0  0  0  0  0  0
  -17.3257   -3.2396  -27.6666 C   0  0  1  0  0  0  0  0  0  0  0  0
  -17.5493   -3.3556  -29.1782 C   0  0  0  0  0  0  0  0  0  0  0  0
  -16.8121   -4.5340  -27.2096 C   0  0  0  0  0  0  0  0  0  0  0  0
  -17.5699   -5.2719  -26.3316 C   0  0  0  0  0  0  0  0  0  0  0  0
  -17.1822   -6.5030  -25.8378 C   0  0  0  0  0  0  0  0  0  0  0  0
  -15.9665   -6.9797  -26.2729 C   0  0  0  0  0  0  0  0  0  0  0  0
  -15.5730   -8.2265  -25.7732 O   0  0  0  0  0  0  0  0  0  0  0  0
  -15.2007   -6.2604  -27.1447 C   0  0  0  0  0  0  0  0  0  0  0  0
  -15.6042   -5.0410  -27.6224 C   0  0  0  0  0  0  0  0  0  0  0  0
  1  2  1  0
  2  3  1  0
  3  4  1  6
  3  5  1  0
  5  6  2  0
  5 11  1  0
  6  7  1  0
  7  8  2  0
  8  9  1  0
  8 10  1  0
 10 11  2  0
M  END
$$$$
