
     RDKit          3D

 11 11  0  0  0  0  0  0  0  0999 V2000
  -15.6254   -2.2785  -26.4156 C   0  0  0  0  0  0  0  0  0  0  0  0
  -16.9851   -2.2640  -27.0300 C   0  0  0  0  0  0  0  0  0  0  0  0
  -17.3084   -3.5088  -27.8173 C   0  0  1  0  0  0  0  0  0  0  0  0
  -16.5278   -3.4014  -29.1317 C   0  0  0  0  0  0  0  0  0  0  0  0
  -16.8720   -4.7442  -27.1604 C   0  0  0  0  0  0  0  0  0  0  0  0
  -15.6593   -5.2865  -27.5136 C   0  0  0  0  0  0  0  0  0  0  0  0
  -15.1518   -6.4459  -26.9586 C   0  0  0  0  0  0  0  0  0  0  0  0
  -15.9330   -7.0591  -26.0056 C   0  0  0  0  0  0  0  0  0  0  0  0
  -15.4198   -8.2334  -25.4430 O   0  0  0  0  0  0  0  0  0  0  0  0
  -17.1401   -6.5346  -25.6425 C   0  0  0  0  0  0  0  0  0  0  0  0
  -17.6249   -5.3833  -26.2057 C   0  0  0  0  0  0  0  0  0  0  0  0
  1  2  1  0
  2  3  1  0
  3  4  1  6
  3  5  1  0
  5  6  2  0
  5 11  1  0
  6  7  1  0
  7  8  2  0
  8  9  1  0
  8 10  1  0
 10 11  2  0
M  END
$$$$
