
     RDKit          3D

 11 11  0  0  0  0  0  0  0  0999 V2000
  -16.8541   -2.5314  -29.8801 C   0  0  0  0  0  0  0  0  0  0  0  0
  -17.4196   -3.1346  -28.6381 C   0  0  0  0  0  0  0  0  0  0  0  0
  -16.4275   -3.2358  -27.5068 C   0  0  1  0  0  0  0  0  0  0  0  0
  -17.0660   -2.5231  -26.3098 C   0  0  0  0  0  0  0  0  0  0  0  0
  -16.1576   -4.6146  -27.0895 C   0  0  0  0  0  0  0  0  0  0  0  0
  -17.0773   -5.2554  -26.2939 C   0  0  0  0  0  0  0  0  0  0  0  0
  -16.9236   -6.5527  -25.8435 C   0  0  0  0  0  0  0  0  0  0  0  0
  -15.7750   -7.2025  -26.2348 C   0  0  0  0  0  0  0  0  0  0  0  0
  -15.6184   -8.5166  -25.7790 O   0  0  0  0  0  0  0  0  0  0  0  0
  -14.8506   -6.5816  -27.0248 C   0  0  0  0  0  0  0  0  0  0  0  0
  -15.0228   -5.2939  -27.4605 C   0  0  0  0  0  0  0  0  0  0  0  0
  1  2  1  0
  2  3  1  0
  3  4  1  1
  3  5  1  0
  5  6  2  0
  5 11  1  0
  6  7  1  0
  7  8  2  0
  8  9  1  0
  8 10  1  0
 10 11  2  0
M  END
$$$$
