
     RDKit          3D

 11 11  0  0  0  0  0  0  0  0999 V2000
  -17.1705   -1.8166  -25.5296 C   0  0  0  0  0  0  0  0  0  0  0  0
  -16.7113   -2.1240  -26.9156 C   0  0  0  0  0  0  0  0  0  0  0  0
  -17.4257   -3.2928  -27.5463 C   0  0  1  0  0  0  0  0  0  0  0  0
  -17.1179   -3.2265  -29.0461 C   0  0  0  0  0  0  0  0  0  0  0  0
  -16.9492   -4.5941  -27.0689 C   0  0  0  0  0  0  0  0  0  0  0  0
  -17.7386   -5.3070  -26.1982 C   0  0  0  0  0  0  0  0  0  0  0  0
  -17.3873   -6.5418  -25.6869 C   0  0  0  0  0  0  0  0  0  0  0  0
  -16.1750   -7.0492  -26.0960 C   0  0  0  0  0  0  0  0  0  0  0  0
  -15.8182   -8.2998  -25.5785 O   0  0  0  0  0  0  0  0  0  0  0  0
  -15.3780   -6.3550  -26.9602 C   0  0  0  0  0  0  0  0  0  0  0  0
  -15.7457   -5.1314  -27.4557 C   0  0  0  0  0  0  0  0  0  0  0  0
  1  2  1  0
  2  3  1  0
  3  4  1  6
  3  5  1  0
  5  6  2  0
  5 11  1  0
  6  7  1  0
  7  8  2  0
  8  9  1  0
  8 10  1  0
 10 11  2  0
M  END
$$$$
