
     RDKit          3D

 11 11  0  0  0  0  0  0  0  0999 V2000
  -16.1654   -0.9914  -27.3886 C   0  0  0  0  0  0  0  0  0  0  0  0
  -15.7412   -2.4141  -27.5377 C   0  0  0  0  0  0  0  0  0  0  0  0
  -16.8906   -3.3898  -27.5697 C   0  0  1  0  0  0  0  0  0  0  0  0
  -17.2727   -3.5560  -29.0444 C   0  0  0  0  0  0  0  0  0  0  0  0
  -16.5400   -4.7208  -27.0660 C   0  0  0  0  0  0  0  0  0  0  0  0
  -15.3552   -5.2885  -27.4706 C   0  0  0  0  0  0  0  0  0  0  0  0
  -14.9273   -6.5360  -27.0579 C   0  0  0  0  0  0  0  0  0  0  0  0
  -15.7607   -7.2129  -26.1966 C   0  0  0  0  0  0  0  0  0  0  0  0
  -15.3281   -8.4766  -25.7782 O   0  0  0  0  0  0  0  0  0  0  0  0
  -16.9411   -6.6645  -25.7844 C   0  0  0  0  0  0  0  0  0  0  0  0
  -17.3466   -5.4253  -26.2060 C   0  0  0  0  0  0  0  0  0  0  0  0
  1  2  1  0
  2  3  1  0
  3  4  1  6
  3  5  1  0
  5  6  2  0
  5 11  1  0
  6  7  1  0
  7  8  2  0
  8  9  1  0
  8 10  1  0
 10 11  2  0
M  END
$$$$
