
     RDKit          3D

 11 11  0  0  0  0  0  0  0  0999 V2000
  -15.3123   -1.6862  -27.1087 C   0  0  0  0  0  0  0  0  0  0  0  0
  -16.1068   -2.3661  -28.1731 C   0  0  0  0  0  0  0  0  0  0  0  0
  -17.2336   -3.2150  -27.6403 C   0  0  1  0  0  0  0  0  0  0  0  0
  -18.1753   -3.4707  -28.8220 C   0  0  0  0  0  0  0  0  0  0  0  0
  -16.7957   -4.5254  -27.1511 C   0  0  0  0  0  0  0  0  0  0  0  0
  -17.5958   -5.1975  -26.2580 C   0  0  0  0  0  0  0  0  0  0  0  0
  -17.2801   -6.4365  -25.7338 C   0  0  0  0  0  0  0  0  0  0  0  0
  -16.0929   -6.9923  -26.1538 C   0  0  0  0  0  0  0  0  0  0  0  0
  -15.7722   -8.2472  -25.6234 O   0  0  0  0  0  0  0  0  0  0  0  0
  -15.2858   -6.3390  -27.0402 C   0  0  0  0  0  0  0  0  0  0  0  0
  -15.6180   -5.1104  -27.5480 C   0  0  0  0  0  0  0  0  0  0  0  0
  1  2  1  0
  2  3  1  0
  3  4  1  6
  3  5  1  0
  5  6  2  0
  5 11  1  0
  6  7  1  0
  7  8  2  0
  8  9  1  0
  8 10  1  0
 10 11  2  0
M  END
$$$$
