
     RDKit          3D

 11 11  0  0  0  0  0  0  0  0999 V2000
  -16.9358   -1.3161  -25.7856 C   0  0  0  0  0  0  0  0  0  0  0  0
  -16.2985   -2.0686  -26.9054 C   0  0  0  0  0  0  0  0  0  0  0  0
  -17.1284   -3.2219  -27.4110 C   0  0  1  0  0  0  0  0  0  0  0  0
  -16.9133   -3.2741  -28.9275 C   0  0  0  0  0  0  0  0  0  0  0  0
  -16.7105   -4.5203  -26.8748 C   0  0  0  0  0  0  0  0  0  0  0  0
  -15.4580   -4.9918  -27.1886 C   0  0  0  0  0  0  0  0  0  0  0  0
  -14.9634   -6.2009  -26.7381 C   0  0  0  0  0  0  0  0  0  0  0  0
  -15.8007   -6.9417  -25.9352 C   0  0  0  0  0  0  0  0  0  0  0  0
  -15.3005   -8.1665  -25.4784 O   0  0  0  0  0  0  0  0  0  0  0  0
  -17.0479   -6.4891  -25.6133 C   0  0  0  0  0  0  0  0  0  0  0  0
  -17.5190   -5.2865  -26.0710 C   0  0  0  0  0  0  0  0  0  0  0  0
  1  2  1  0
  2  3  1  0
  3  4  1  6
  3  5  1  0
  5  6  2  0
  5 11  1  0
  6  7  1  0
  7  8  2  0
  8  9  1  0
  8 10  1  0
 10 11  2  0
M  END
$$$$
