
     RDKit          3D

 11 11  0  0  0  0  0  0  0  0999 V2000
  -16.9171   -1.5838  -25.8537 C   0  0  0  0  0  0  0  0  0  0  0  0
  -16.5799   -2.0350  -27.2354 C   0  0  0  0  0  0  0  0  0  0  0  0
  -17.3493   -3.2533  -27.6805 C   0  0  1  0  0  0  0  0  0  0  0  0
  -17.2367   -3.2987  -29.2082 C   0  0  0  0  0  0  0  0  0  0  0  0
  -16.7940   -4.5113  -27.1731 C   0  0  0  0  0  0  0  0  0  0  0  0
  -17.5593   -5.2760  -26.3252 C   0  0  0  0  0  0  0  0  0  0  0  0
  -17.1350   -6.4769  -25.7891 C   0  0  0  0  0  0  0  0  0  0  0  0
  -15.8733   -6.8936  -26.1482 C   0  0  0  0  0  0  0  0  0  0  0  0
  -15.4427   -8.1099  -25.6057 O   0  0  0  0  0  0  0  0  0  0  0  0
  -15.0993   -6.1469  -26.9892 C   0  0  0  0  0  0  0  0  0  0  0  0
  -15.5397   -4.9583  -27.5099 C   0  0  0  0  0  0  0  0  0  0  0  0
  1  2  1  0
  2  3  1  0
  3  4  1  6
  3  5  1  0
  5  6  2  0
  5 11  1  0
  6  7  1  0
  7  8  2  0
  8  9  1  0
  8 10  1  0
 10 11  2  0
M  END
$$$$
