
     RDKit          3D

 11 11  0  0  0  0  0  0  0  0999 V2000
  -18.0537   -3.3556  -29.8281 C   0  0  0  0  0  0  0  0  0  0  0  0
  -17.8719   -2.8797  -28.4257 C   0  0  0  0  0  0  0  0  0  0  0  0
  -16.4828   -3.1051  -27.8838 C   0  0  1  0  0  0  0  0  0  0  0  0
  -16.2943   -2.0926  -26.7490 C   0  0  0  0  0  0  0  0  0  0  0  0
  -16.2919   -4.4376  -27.3042 C   0  0  0  0  0  0  0  0  0  0  0  0
  -17.2654   -4.9424  -26.4754 C   0  0  0  0  0  0  0  0  0  0  0  0
  -17.1876   -6.1853  -25.8763 C   0  0  0  0  0  0  0  0  0  0  0  0
  -16.0596   -6.9251  -26.1499 C   0  0  0  0  0  0  0  0  0  0  0  0
  -15.9800   -8.1841  -25.5436 O   0  0  0  0  0  0  0  0  0  0  0  0
  -15.0827   -6.4396  -26.9707 C   0  0  0  0  0  0  0  0  0  0  0  0
  -15.1798   -5.2038  -27.5548 C   0  0  0  0  0  0  0  0  0  0  0  0
  1  2  1  0
  2  3  1  0
  3  4  1  1
  3  5  1  0
  5  6  2  0
  5 11  1  0
  6  7  1  0
  7  8  2  0
  8  9  1  0
  8 10  1  0
 10 11  2  0
M  END
$$$$
