
     RDKit          3D

 11 11  0  0  0  0  0  0  0  0999 V2000
  -16.3480   -2.2935  -25.4824 C   0  0  0  0  0  0  0  0  0  0  0  0
  -16.7190   -2.1083  -26.9157 C   0  0  0  0  0  0  0  0  0  0  0  0
  -17.1133   -3.3873  -27.6105 C   0  0  1  0  0  0  0  0  0  0  0  0
  -16.4199   -3.3659  -28.9770 C   0  0  0  0  0  0  0  0  0  0  0  0
  -16.6538   -4.5937  -26.9165 C   0  0  0  0  0  0  0  0  0  0  0  0
  -15.4091   -5.0940  -27.2167 C   0  0  0  0  0  0  0  0  0  0  0  0
  -14.8779   -6.2233  -26.6234 C   0  0  0  0  0  0  0  0  0  0  0  0
  -15.6688   -6.8507  -25.6879 C   0  0  0  0  0  0  0  0  0  0  0  0
  -15.1315   -7.9946  -25.0864 O   0  0  0  0  0  0  0  0  0  0  0  0
  -16.9075   -6.3678  -25.3772 C   0  0  0  0  0  0  0  0  0  0  0  0
  -17.4155   -5.2457  -25.9778 C   0  0  0  0  0  0  0  0  0  0  0  0
  1  2  1  0
  2  3  1  0
  3  4  1  6
  3  5  1  0
  5  6  2  0
  5 11  1  0
  6  7  1  0
  7  8  2  0
  8  9  1  0
  8 10  1  0
 10 11  2  0
M  END
$$$$
