
     RDKit          3D

 11 11  0  0  0  0  0  0  0  0999 V2000
  -16.4814   -1.0502  -26.9310 C   0  0  0  0  0  0  0  0  0  0  0  0
  -16.0417   -2.3572  -27.5007 C   0  0  0  0  0  0  0  0  0  0  0  0
  -17.1479   -3.3770  -27.6038 C   0  0  1  0  0  0  0  0  0  0  0  0
  -17.4548   -3.5291  -29.0976 C   0  0  0  0  0  0  0  0  0  0  0  0
  -16.7670   -4.7027  -27.1083 C   0  0  0  0  0  0  0  0  0  0  0  0
  -15.6066   -5.2732  -27.5746 C   0  0  0  0  0  0  0  0  0  0  0  0
  -15.1539   -6.5163  -27.1751 C   0  0  0  0  0  0  0  0  0  0  0  0
  -15.9355   -7.1855  -26.2609 C   0  0  0  0  0  0  0  0  0  0  0  0
  -15.4778   -8.4446  -25.8557 O   0  0  0  0  0  0  0  0  0  0  0  0
  -17.0911   -6.6342  -25.7870 C   0  0  0  0  0  0  0  0  0  0  0  0
  -17.5220   -5.3995  -26.1966 C   0  0  0  0  0  0  0  0  0  0  0  0
  1  2  1  0
  2  3  1  0
  3  4  1  6
  3  5  1  0
  5  6  2  0
  5 11  1  0
  6  7  1  0
  7  8  2  0
  8  9  1  0
  8 10  1  0
 10 11  2  0
M  END
$$$$
