
     RDKit          3D

 11 11  0  0  0  0  0  0  0  0999 V2000
  -16.9461   -3.3586  -30.1351 C   0  0  0  0  0  0  0  0  0  0  0  0
  -17.4091   -2.9503  -28.7767 C   0  0  0  0  0  0  0  0  0  0  0  0
  -16.3520   -3.0847  -27.7096 C   0  0  1  0  0  0  0  0  0  0  0  0
  -16.8245   -2.2329  -26.5266 C   0  0  0  0  0  0  0  0  0  0  0  0
  -16.1944   -4.4550  -27.2141 C   0  0  0  0  0  0  0  0  0  0  0  0
  -15.0510   -5.1462  -27.5373 C   0  0  0  0  0  0  0  0  0  0  0  0
  -14.8001   -6.4408  -27.1241 C   0  0  0  0  0  0  0  0  0  0  0  0
  -15.7715   -7.0334  -26.3497 C   0  0  0  0  0  0  0  0  0  0  0  0
  -15.5182   -8.3446  -25.9308 O   0  0  0  0  0  0  0  0  0  0  0  0
  -16.9133   -6.3619  -26.0190 C   0  0  0  0  0  0  0  0  0  0  0  0
  -17.1423   -5.0779  -26.4395 C   0  0  0  0  0  0  0  0  0  0  0  0
  1  2  1  0
  2  3  1  0
  3  4  1  1
  3  5  1  0
  5  6  2  0
  5 11  1  0
  6  7  1  0
  7  8  2  0
  8  9  1  0
  8 10  1  0
 10 11  2  0
M  END
$$$$
