
     RDKit          3D

 27 29  0  0  0  0  0  0  0  0999 V2000
   98.2327   43.4977  105.8643 P   0  0  1  0  0  5  0  0  0  0  0  0
   97.2862   43.8038  104.7235 O   0  0  0  0  0  0  0  0  0  0  0  0
   98.3414   44.8431  106.8837 O   0  0  0  0  0  0  0  0  0  0  0  0
   97.6341   42.2064  106.7699 O   0  0  0  0  0  0  0  0  0  0  0  0
  100.0062   41.5112  105.2067 P   0  0  2  0  0  5  0  0  0  0  0  0
  100.0935   41.0482  106.6303 O   0  0  0  0  0  0  0  0  0  0  0  0
  101.4306   41.1176  104.3975 O   0  0  0  0  0  0  0  0  0  0  0  0
   99.7507   43.1973  105.2294 O   0  0  0  0  0  0  0  0  0  0  0  0
   98.6996   40.8290  104.3906 O   0  0  0  0  0  0  0  0  0  0  0  0
   98.8885   39.4879  104.1241 C   0  0  0  0  0  0  0  0  0  0  0  0
   97.5960   38.8539  103.7393 C   0  0  1  0  0  0  0  0  0  0  0  0
   96.5442   39.1911  104.5925 O   0  0  0  0  0  0  0  0  0  0  0  0
   97.0510   39.3676  102.4213 C   0  0  1  0  0  0  0  0  0  0  0  0
   97.8029   38.9549  101.3417 O   0  0  0  0  0  0  0  0  0  0  0  0
   95.6990   38.6434  102.4862 C   0  0  1  0  0  0  0  0  0  0  0  0
   95.9801   37.3008  102.2294 O   0  0  0  0  0  0  0  0  0  0  0  0
   95.3839   38.8341  103.9536 C   0  0  2  0  0  0  0  0  0  0  0  0
   94.3589   39.8705  104.0434 N   0  0  0  0  0  0  0  0  0  0  0  0
   94.3036   40.9540  104.8175 C   0  0  0  0  0  0  0  0  0  0  0  0
   93.1515   41.6289  104.5515 N   0  0  0  0  0  0  0  0  0  0  0  0
   92.4770   40.9766  103.6116 C   0  0  0  0  0  0  0  0  0  0  0  0
   91.2810   41.1799  102.9632 C   0  0  0  0  0  0  0  0  0  0  0  0
   90.5011   42.3235  103.2972 N   0  0  0  0  0  0  0  0  0  0  0  0
   90.8777   40.2996  102.0342 N   0  0  0  0  0  0  0  0  0  0  0  0
   91.6245   39.2226  101.7278 C   0  0  0  0  0  0  0  0  0  0  0  0
   92.7812   39.0346  102.3615 N   0  0  0  0  0  0  0  0  0  0  0  0
   93.2445   39.8630  103.2917 C   0  0  0  0  0  0  0  0  0  0  0  0
  1  2  2  0
  1  3  1  1
  1  4  1  0
  8  1  1  0
  5  6  2  0
  5  7  1  6
  5  8  1  0
  5  9  1  0
  9 10  1  0
 11 10  1  1
 11 12  1  0
 11 13  1  0
 12 17  1  0
 13 14  1  6
 13 15  1  0
 15 16  1  1
 15 17  1  0
 17 18  1  6
 18 19  1  0
 18 27  1  0
 19 20  2  0
 20 21  1  0
 21 22  1  0
 21 27  2  0
 22 23  1  0
 22 24  2  0
 24 25  1  0
 25 26  2  0
 26 27  1  0
M  END
$$$$
