
     RDKit          3D

 27 29  0  0  0  0  0  0  0  0999 V2000
   94.5744   36.6029   98.7983 P   0  0  1  0  0  5  0  0  0  0  0  0
   93.9128   35.4082   98.1455 O   0  0  0  0  0  0  0  0  0  0  0  0
   95.2667   37.5849   97.6078 O   0  0  0  0  0  0  0  0  0  0  0  0
   93.4175   37.5170   99.6180 O   0  0  0  0  0  0  0  0  0  0  0  0
   97.1424   37.0863   99.6325 P   0  0  2  0  0  5  0  0  0  0  0  0
   97.1347   37.6153   98.2294 O   0  0  0  0  0  0  0  0  0  0  0  0
   98.5854   36.2648   99.9174 O   0  0  0  0  0  0  0  0  0  0  0  0
   95.7961   36.0527   99.7994 O   0  0  0  0  0  0  0  0  0  0  0  0
   96.9660   38.3087  100.7785 O   0  0  0  0  0  0  0  0  0  0  0  0
   97.3050   37.8904  102.0495 C   0  0  0  0  0  0  0  0  0  0  0  0
   97.1064   38.9992  103.0250 C   0  0  1  0  0  0  0  0  0  0  0  0
   95.9628   39.7570  102.7687 O   0  0  0  0  0  0  0  0  0  0  0  0
   96.7988   38.5101  104.4264 C   0  0  1  0  0  0  0  0  0  0  0  0
   97.8852   37.9102  105.0272 O   0  0  0  0  0  0  0  0  0  0  0  0
   96.4940   39.8845  105.0386 C   0  0  1  0  0  0  0  0  0  0  0  0
   97.7302   40.5183  105.1712 O   0  0  0  0  0  0  0  0  0  0  0  0
   95.7174   40.5002  103.8953 C   0  0  2  0  0  0  0  0  0  0  0  0
   94.3072   40.4850  104.2745 N   0  0  0  0  0  0  0  0  0  0  0  0
   93.7333   40.1153  105.4191 C   0  0  0  0  0  0  0  0  0  0  0  0
   92.3855   40.2742  105.3092 N   0  0  0  0  0  0  0  0  0  0  0  0
   92.1040   40.7432  104.0990 C   0  0  0  0  0  0  0  0  0  0  0  0
   90.9459   41.0866  103.4409 C   0  0  0  0  0  0  0  0  0  0  0  0
   89.7009   40.9476  104.1179 N   0  0  0  0  0  0  0  0  0  0  0  0
   91.0152   41.5430  102.1810 N   0  0  0  0  0  0  0  0  0  0  0  0
   92.1986   41.6697  101.5525 C   0  0  0  0  0  0  0  0  0  0  0  0
   93.3145   41.3344  102.1986 N   0  0  0  0  0  0  0  0  0  0  0  0
   93.3235   40.8757  103.4459 C   0  0  0  0  0  0  0  0  0  0  0  0
  1  2  2  0
  1  3  1  6
  1  4  1  0
  8  1  1  0
  5  6  2  0
  5  7  1  1
  5  8  1  0
  5  9  1  0
  9 10  1  0
 11 10  1  6
 11 12  1  0
 11 13  1  0
 12 17  1  0
 13 14  1  1
 13 15  1  0
 15 16  1  6
 15 17  1  0
 17 18  1  1
 18 19  1  0
 18 27  1  0
 19 20  2  0
 20 21  1  0
 21 22  1  0
 21 27  2  0
 22 23  1  0
 22 24  2  0
 24 25  1  0
 25 26  2  0
 26 27  1  0
M  END
$$$$
