
     RDKit          3D

 27 29  0  0  0  0  0  0  0  0999 V2000
   91.1124   41.5294  103.8869 P   0  0  1  0  0  5  0  0  0  0  0  0
   91.3562   40.2154  104.6154 O   0  0  0  0  0  0  0  0  0  0  0  0
   89.9441   42.4478  104.6938 O   0  0  0  0  0  0  0  0  0  0  0  0
   92.5457   42.4433  103.8585 O   0  0  0  0  0  0  0  0  0  0  0  0
   91.2808   39.7596  101.7804 P   0  0  2  0  0  5  0  0  0  0  0  0
   90.7360   39.4418  100.4274 O   0  0  0  0  0  0  0  0  0  0  0  0
   91.0765   38.4969  102.8862 O   0  0  0  0  0  0  0  0  0  0  0  0
   90.5632   41.1899  102.3257 O   0  0  0  0  0  0  0  0  0  0  0  0
   92.9437   40.0453  101.6120 O   0  0  0  0  0  0  0  0  0  0  0  0
   93.5966   38.8257  101.7821 C   0  0  0  0  0  0  0  0  0  0  0  0
   95.0466   39.0499  101.3718 C   0  0  1  0  0  0  0  0  0  0  0  0
   95.6032   40.0128  102.1601 O   0  0  0  0  0  0  0  0  0  0  0  0
   95.8297   37.7944  101.4872 C   0  0  1  0  0  0  0  0  0  0  0  0
   96.1764   37.2694  100.2550 O   0  0  0  0  0  0  0  0  0  0  0  0
   96.9912   38.1530  102.3497 C   0  0  1  0  0  0  0  0  0  0  0  0
   98.2140   37.8743  101.7043 O   0  0  0  0  0  0  0  0  0  0  0  0
   96.8841   39.6305  102.5006 C   0  0  2  0  0  0  0  0  0  0  0  0
   97.2029   39.9619  103.8860 N   0  0  0  0  0  0  0  0  0  0  0  0
   96.3805   39.8305  104.9461 C   0  0  0  0  0  0  0  0  0  0  0  0
   97.0455   40.2432  106.0515 N   0  0  0  0  0  0  0  0  0  0  0  0
   98.2741   40.6357  105.7239 C   0  0  0  0  0  0  0  0  0  0  0  0
   99.3746   41.1414  106.4171 C   0  0  0  0  0  0  0  0  0  0  0  0
   99.2261   41.3065  107.8181 N   0  0  0  0  0  0  0  0  0  0  0  0
  100.5009   41.4455  105.7596 N   0  0  0  0  0  0  0  0  0  0  0  0
  100.5854   41.2690  104.4341 C   0  0  0  0  0  0  0  0  0  0  0  0
   99.5261   40.7808  103.7576 N   0  0  0  0  0  0  0  0  0  0  0  0
   98.3670   40.4536  104.3428 C   0  0  0  0  0  0  0  0  0  0  0  0
  1  2  2  0
  1  3  1  1
  1  4  1  0
  8  1  1  0
  5  6  2  0
  5  7  1  1
  5  8  1  0
  5  9  1  0
 10  9  1  1
 10 11  1  0
 11 12  1  1
 11 13  1  0
 12 17  1  0
 13 14  1  6
 13 15  1  0
 15 16  1  6
 15 17  1  0
 17 18  1  1
 18 19  1  0
 18 27  1  0
 19 20  2  0
 20 21  1  0
 21 22  1  0
 21 27  2  0
 22 23  1  0
 22 24  2  0
 24 25  1  0
 25 26  2  0
 26 27  1  0
M  END
$$$$
