
     RDKit          3D

 27 29  0  0  0  0  0  0  0  0999 V2000
  100.0552   39.2714   98.5076 P   0  0  1  0  0  5  0  0  0  0  0  0
  100.2687   37.9952   97.7058 O   0  0  0  0  0  0  0  0  0  0  0  0
   99.9171   38.9208  100.1560 O   0  0  0  0  0  0  0  0  0  0  0  0
  101.3967   40.2984   98.3177 O   0  0  0  0  0  0  0  0  0  0  0  0
   97.3034   39.1135   98.5227 P   0  0  2  0  0  5  0  0  0  0  0  0
   97.4298   37.7195   98.0037 O   0  0  0  0  0  0  0  0  0  0  0  0
   95.8392   39.8446   98.0974 O   0  0  0  0  0  0  0  0  0  0  0  0
   98.6301   40.0103   97.9811 O   0  0  0  0  0  0  0  0  0  0  0  0
   97.3818   39.0422  100.2150 O   0  0  0  0  0  0  0  0  0  0  0  0
   96.7021   37.8937  100.6169 C   0  0  0  0  0  0  0  0  0  0  0  0
   96.4957   38.0168  102.1213 C   0  0  1  0  0  0  0  0  0  0  0  0
   95.9402   39.2275  102.4111 O   0  0  0  0  0  0  0  0  0  0  0  0
   95.6194   36.9305  102.6261 C   0  0  1  0  0  0  0  0  0  0  0  0
   96.3078   36.0035  103.3883 O   0  0  0  0  0  0  0  0  0  0  0  0
   94.5281   37.6358  103.3564 C   0  0  1  0  0  0  0  0  0  0  0  0
   94.4379   37.1948  104.6932 O   0  0  0  0  0  0  0  0  0  0  0  0
   94.9698   39.0577  103.3766 C   0  0  2  0  0  0  0  0  0  0  0  0
   93.7987   39.8924  103.1265 N   0  0  0  0  0  0  0  0  0  0  0  0
   93.2194   40.1144  101.9295 C   0  0  0  0  0  0  0  0  0  0  0  0
   92.1630   40.9408  102.1172 N   0  0  0  0  0  0  0  0  0  0  0  0
   92.0523   41.2531  103.4060 C   0  0  0  0  0  0  0  0  0  0  0  0
   91.1866   42.0385  104.1683 C   0  0  0  0  0  0  0  0  0  0  0  0
   90.1423   42.6985  103.4713 N   0  0  0  0  0  0  0  0  0  0  0  0
   91.3627   42.1416  105.4918 N   0  0  0  0  0  0  0  0  0  0  0  0
   92.3675   41.4952  106.0984 C   0  0  0  0  0  0  0  0  0  0  0  0
   93.2079   40.7345  105.3683 N   0  0  0  0  0  0  0  0  0  0  0  0
   93.0977   40.5815  104.0426 C   0  0  0  0  0  0  0  0  0  0  0  0
  1  2  2  0
  1  3  1  1
  1  4  1  0
  8  1  1  0
  5  6  2  0
  5  7  1  1
  5  8  1  0
  5  9  1  0
 10  9  1  1
 10 11  1  0
 11 12  1  6
 11 13  1  0
 12 17  1  0
 13 14  1  1
 13 15  1  0
 15 16  1  1
 15 17  1  0
 17 18  1  6
 18 19  1  0
 18 27  1  0
 19 20  2  0
 20 21  1  0
 21 22  1  0
 21 27  2  0
 22 23  1  0
 22 24  2  0
 24 25  1  0
 25 26  2  0
 26 27  1  0
M  END
$$$$
