
     RDKit          3D

 27 29  0  0  0  0  0  0  0  0999 V2000
  102.7663   41.3233  103.8770 P   0  0  1  0  0  5  0  0  0  0  0  0
  104.1077   40.6064  103.9382 O   0  0  0  0  0  0  0  0  0  0  0  0
  102.8106   42.7447  104.7918 O   0  0  0  0  0  0  0  0  0  0  0  0
  102.4249   41.7639  102.2709 O   0  0  0  0  0  0  0  0  0  0  0  0
  100.1116   41.1406  104.5961 P   0  0  2  0  0  5  0  0  0  0  0  0
  100.0522   42.1144  103.4663 O   0  0  0  0  0  0  0  0  0  0  0  0
   99.9023   41.8707  106.1068 O   0  0  0  0  0  0  0  0  0  0  0  0
  101.5765   40.3017  104.5053 O   0  0  0  0  0  0  0  0  0  0  0  0
   98.8580   40.0201  104.3769 O   0  0  0  0  0  0  0  0  0  0  0  0
   98.6141   39.9284  103.0077 C   0  0  0  0  0  0  0  0  0  0  0  0
   97.5529   38.8501  102.8282 C   0  0  1  0  0  0  0  0  0  0  0  0
   96.5665   39.0180  103.7540 O   0  0  0  0  0  0  0  0  0  0  0  0
   96.9721   38.9009  101.4633 C   0  0  1  0  0  0  0  0  0  0  0  0
   97.3572   37.8262  100.6817 O   0  0  0  0  0  0  0  0  0  0  0  0
   95.5015   39.0033  101.6835 C   0  0  1  0  0  0  0  0  0  0  0  0
   94.8123   37.9577  101.0345 O   0  0  0  0  0  0  0  0  0  0  0  0
   95.3435   38.8085  103.1513 C   0  0  2  0  0  0  0  0  0  0  0  0
   94.3344   39.7530  103.6208 N   0  0  0  0  0  0  0  0  0  0  0  0
   94.3930   40.4850  104.7514 C   0  0  0  0  0  0  0  0  0  0  0  0
   93.2679   41.2350  104.8289 N   0  0  0  0  0  0  0  0  0  0  0  0
   92.4906   41.0005  103.7746 C   0  0  0  0  0  0  0  0  0  0  0  0
   91.2525   41.4650  103.3287 C   0  0  0  0  0  0  0  0  0  0  0  0
   90.5990   42.4241  104.1441 N   0  0  0  0  0  0  0  0  0  0  0  0
   90.7361   41.0057  102.1817 N   0  0  0  0  0  0  0  0  0  0  0  0
   91.3982   40.0987  101.4508 C   0  0  0  0  0  0  0  0  0  0  0  0
   92.5949   39.6452  101.8753 N   0  0  0  0  0  0  0  0  0  0  0  0
   93.1766   40.0554  103.0095 C   0  0  0  0  0  0  0  0  0  0  0  0
  1  2  2  0
  1  3  1  1
  1  4  1  0
  8  1  1  0
  5  6  2  0
  5  7  1  1
  5  8  1  0
  5  9  1  0
 10  9  1  1
 10 11  1  0
 11 12  1  1
 11 13  1  0
 12 17  1  0
 13 14  1  6
 13 15  1  0
 15 16  1  6
 15 17  1  0
 17 18  1  1
 18 19  1  0
 18 27  1  0
 19 20  2  0
 20 21  1  0
 21 22  1  0
 21 27  2  0
 22 23  1  0
 22 24  2  0
 24 25  1  0
 25 26  2  0
 26 27  1  0
M  END
$$$$
