
     RDKit          3D

 27 29  0  0  0  0  0  0  0  0999 V2000
  101.4940   41.0355  104.2880 P   0  0  1  0  0  5  0  0  0  0  0  0
  101.6684   40.9421  105.7887 O   0  0  0  0  0  0  0  0  0  0  0  0
  102.9068   41.6536  103.5932 O   0  0  0  0  0  0  0  0  0  0  0  0
  101.2305   39.4968  103.6486 O   0  0  0  0  0  0  0  0  0  0  0  0
   98.9652   41.7786  105.0478 P   0  0  2  0  0  5  0  0  0  0  0  0
   97.8079   42.6447  104.6491 O   0  0  0  0  0  0  0  0  0  0  0  0
   99.4081   42.1253  106.6359 O   0  0  0  0  0  0  0  0  0  0  0  0
  100.2427   42.0968  103.9635 O   0  0  0  0  0  0  0  0  0  0  0  0
   98.6106   40.1366  104.9181 O   0  0  0  0  0  0  0  0  0  0  0  0
   98.6717   39.6871  103.6144 C   0  0  0  0  0  0  0  0  0  0  0  0
   97.3775   39.0580  103.2272 C   0  0  1  0  0  0  0  0  0  0  0  0
   96.3978   39.1656  104.2154 O   0  0  0  0  0  0  0  0  0  0  0  0
   96.6876   39.7736  102.0827 C   0  0  1  0  0  0  0  0  0  0  0  0
   97.3508   39.6158  100.8842 O   0  0  0  0  0  0  0  0  0  0  0  0
   95.3810   38.9689  102.1230 C   0  0  1  0  0  0  0  0  0  0  0  0
   95.6951   37.7172  101.5918 O   0  0  0  0  0  0  0  0  0  0  0  0
   95.1988   38.8635  103.6213 C   0  0  2  0  0  0  0  0  0  0  0  0
   94.1425   39.8006  103.9941 N   0  0  0  0  0  0  0  0  0  0  0  0
   94.0787   40.6556  105.0144 C   0  0  0  0  0  0  0  0  0  0  0  0
   92.8946   41.3252  104.9564 N   0  0  0  0  0  0  0  0  0  0  0  0
   92.2084   40.8970  103.9030 C   0  0  0  0  0  0  0  0  0  0  0  0
   90.9826   41.2027  103.3589 C   0  0  0  0  0  0  0  0  0  0  0  0
   90.1765   42.1936  103.9881 N   0  0  0  0  0  0  0  0  0  0  0  0
   90.5756   40.5628  102.2519 N   0  0  0  0  0  0  0  0  0  0  0  0
   91.3473   39.6280  101.6669 C   0  0  0  0  0  0  0  0  0  0  0  0
   92.5329   39.3392  102.2017 N   0  0  0  0  0  0  0  0  0  0  0  0
   93.0016   39.9311  103.2954 C   0  0  0  0  0  0  0  0  0  0  0  0
  1  2  2  0
  1  3  1  6
  1  4  1  0
  8  1  1  0
  5  6  2  0
  5  7  1  1
  5  8  1  0
  5  9  1  0
  9 10  1  0
 11 10  1  1
 11 12  1  0
 11 13  1  0
 12 17  1  0
 13 14  1  6
 13 15  1  0
 15 16  1  1
 15 17  1  0
 17 18  1  1
 18 19  1  0
 18 27  1  0
 19 20  2  0
 20 21  1  0
 21 22  1  0
 21 27  2  0
 22 23  1  0
 22 24  2  0
 24 25  1  0
 25 26  2  0
 26 27  1  0
M  END
$$$$
