
     RDKit          3D

 27 29  0  0  0  0  0  0  0  0999 V2000
  100.9401   42.1595  103.2602 P   0  0  1  0  0  5  0  0  0  0  0  0
  102.2762   42.8150  102.9841 O   0  0  0  0  0  0  0  0  0  0  0  0
   99.6959   43.2632  102.9522 O   0  0  0  0  0  0  0  0  0  0  0  0
  100.7302   40.8392  102.2313 O   0  0  0  0  0  0  0  0  0  0  0  0
   99.3061   41.1841  105.2357 P   0  0  2  0  0  5  0  0  0  0  0  0
   98.4877   42.3746  105.6376 O   0  0  0  0  0  0  0  0  0  0  0  0
   99.3228   40.0614  106.4918 O   0  0  0  0  0  0  0  0  0  0  0  0
  100.8787   41.7387  104.8778 O   0  0  0  0  0  0  0  0  0  0  0  0
   98.7184   40.4447  103.8405 O   0  0  0  0  0  0  0  0  0  0  0  0
   98.6675   39.0702  103.9557 C   0  0  0  0  0  0  0  0  0  0  0  0
   97.3311   38.5683  103.5279 C   0  0  1  0  0  0  0  0  0  0  0  0
   96.3210   38.8424  104.4512 O   0  0  0  0  0  0  0  0  0  0  0  0
   96.7876   39.2886  102.3099 C   0  0  1  0  0  0  0  0  0  0  0  0
   97.4888   38.9879  101.1614 O   0  0  0  0  0  0  0  0  0  0  0  0
   95.3968   38.6389  102.3169 C   0  0  1  0  0  0  0  0  0  0  0  0
   95.5918   37.3310  101.8706 O   0  0  0  0  0  0  0  0  0  0  0  0
   95.1272   38.6422  103.8057 C   0  0  2  0  0  0  0  0  0  0  0  0
   94.1679   39.7117  104.0677 N   0  0  0  0  0  0  0  0  0  0  0  0
   94.1292   40.6020  105.0586 C   0  0  0  0  0  0  0  0  0  0  0  0
   93.0446   41.4070  104.8873 N   0  0  0  0  0  0  0  0  0  0  0  0
   92.3964   41.0295  103.7914 C   0  0  0  0  0  0  0  0  0  0  0  0
   91.2642   41.4622  103.1409 C   0  0  0  0  0  0  0  0  0  0  0  0
   90.5388   42.5636  103.6777 N   0  0  0  0  0  0  0  0  0  0  0  0
   90.8704   40.8391  102.0196 N   0  0  0  0  0  0  0  0  0  0  0  0
   91.5652   39.7990  101.5227 C   0  0  0  0  0  0  0  0  0  0  0  0
   92.6604   39.3876  102.1601 N   0  0  0  0  0  0  0  0  0  0  0  0
   93.1104   39.9552  103.2744 C   0  0  0  0  0  0  0  0  0  0  0  0
  1  2  2  0
  1  3  1  1
  1  4  1  0
  8  1  1  0
  5  6  2  0
  5  7  1  1
  5  8  1  0
  5  9  1  0
  9 10  1  0
 11 10  1  1
 11 12  1  0
 11 13  1  0
 12 17  1  0
 13 14  1  6
 13 15  1  0
 15 16  1  1
 15 17  1  0
 17 18  1  6
 18 19  1  0
 18 27  1  0
 19 20  2  0
 20 21  1  0
 21 22  1  0
 21 27  2  0
 22 23  1  0
 22 24  2  0
 24 25  1  0
 25 26  2  0
 26 27  1  0
M  END
$$$$
