
     RDKit          3D

 27 29  0  0  0  0  0  0  0  0999 V2000
  101.6388   41.6343  104.8588 P   0  0  1  0  0  5  0  0  0  0  0  0
  102.5044   40.3859  104.9549 O   0  0  0  0  0  0  0  0  0  0  0  0
  101.2973   42.2401  106.4001 O   0  0  0  0  0  0  0  0  0  0  0  0
  102.4750   42.8474  104.0105 O   0  0  0  0  0  0  0  0  0  0  0  0
   98.8929   41.8301  104.9985 P   0  0  2  0  0  5  0  0  0  0  0  0
   98.1743   42.8508  104.1799 O   0  0  0  0  0  0  0  0  0  0  0  0
   99.4011   42.4262  106.4970 O   0  0  0  0  0  0  0  0  0  0  0  0
  100.1882   41.2305  104.0927 O   0  0  0  0  0  0  0  0  0  0  0  0
   97.8200   40.5478  105.2807 O   0  0  0  0  0  0  0  0  0  0  0  0
   98.4891   39.3662  104.9668 C   0  0  0  0  0  0  0  0  0  0  0  0
   97.4921   38.4893  104.2197 C   0  0  1  0  0  0  0  0  0  0  0  0
   96.2388   38.6944  104.7152 O   0  0  0  0  0  0  0  0  0  0  0  0
   97.5103   38.7875  102.7659 C   0  0  1  0  0  0  0  0  0  0  0  0
   98.0731   37.7664  102.0211 O   0  0  0  0  0  0  0  0  0  0  0  0
   96.0900   39.0844  102.4246 C   0  0  1  0  0  0  0  0  0  0  0  0
   95.6224   38.2386  101.3972 O   0  0  0  0  0  0  0  0  0  0  0  0
   95.3433   38.7444  103.6672 C   0  0  2  0  0  0  0  0  0  0  0  0
   94.3231   39.7688  103.8692 N   0  0  0  0  0  0  0  0  0  0  0  0
   94.3049   40.6925  104.8510 C   0  0  0  0  0  0  0  0  0  0  0  0
   93.1973   41.4560  104.6935 N   0  0  0  0  0  0  0  0  0  0  0  0
   92.5061   41.0427  103.6341 C   0  0  0  0  0  0  0  0  0  0  0  0
   91.3228   41.4318  103.0051 C   0  0  0  0  0  0  0  0  0  0  0  0
   90.6279   42.5294  103.5746 N   0  0  0  0  0  0  0  0  0  0  0  0
   90.8934   40.7780  101.9180 N   0  0  0  0  0  0  0  0  0  0  0  0
   91.5910   39.7469  101.4227 C   0  0  0  0  0  0  0  0  0  0  0  0
   92.7353   39.3652  102.0252 N   0  0  0  0  0  0  0  0  0  0  0  0
   93.2295   39.9677  103.1142 C   0  0  0  0  0  0  0  0  0  0  0  0
  1  2  2  0
  1  3  1  1
  1  4  1  0
  8  1  1  0
  5  6  2  0
  5  7  1  1
  5  8  1  0
  5  9  1  0
 10  9  1  1
 10 11  1  0
 11 12  1  1
 11 13  1  0
 12 17  1  0
 13 14  1  6
 13 15  1  0
 15 16  1  6
 15 17  1  0
 17 18  1  1
 18 19  1  0
 18 27  1  0
 19 20  2  0
 20 21  1  0
 21 22  1  0
 21 27  2  0
 22 23  1  0
 22 24  2  0
 24 25  1  0
 25 26  2  0
 26 27  1  0
M  END
$$$$
