
     RDKit          3D

 27 29  0  0  0  0  0  0  0  0999 V2000
  101.0142   41.7558  103.5926 P   0  0  1  0  0  5  0  0  0  0  0  0
  102.0508   42.8701  103.5610 O   0  0  0  0  0  0  0  0  0  0  0  0
  100.6074   41.2788  102.0222 O   0  0  0  0  0  0  0  0  0  0  0  0
  101.6583   40.3965  104.3851 O   0  0  0  0  0  0  0  0  0  0  0  0
   99.2865   41.3397  105.6996 P   0  0  2  0  0  5  0  0  0  0  0  0
   98.1514   41.9425  106.4589 O   0  0  0  0  0  0  0  0  0  0  0  0
  100.6570   41.0839  106.6563 O   0  0  0  0  0  0  0  0  0  0  0  0
   99.6277   42.3272  104.3706 O   0  0  0  0  0  0  0  0  0  0  0  0
   98.7708   39.8361  105.1095 O   0  0  0  0  0  0  0  0  0  0  0  0
   98.4032   40.0138  103.7769 C   0  0  0  0  0  0  0  0  0  0  0  0
   97.4074   38.9077  103.4512 C   0  0  1  0  0  0  0  0  0  0  0  0
   96.2941   39.0496  104.2250 O   0  0  0  0  0  0  0  0  0  0  0  0
   97.0276   38.9428  102.0168 C   0  0  1  0  0  0  0  0  0  0  0  0
   97.5491   37.8785  101.3030 O   0  0  0  0  0  0  0  0  0  0  0  0
   95.5385   39.0062  102.0230 C   0  0  1  0  0  0  0  0  0  0  0  0
   94.9773   37.9424  101.2861 O   0  0  0  0  0  0  0  0  0  0  0  0
   95.1763   38.8076  103.4537 C   0  0  2  0  0  0  0  0  0  0  0  0
   94.0858   39.7252  103.7695 N   0  0  0  0  0  0  0  0  0  0  0  0
   94.0288   40.5616  104.8253 C   0  0  0  0  0  0  0  0  0  0  0  0
   92.8593   41.2420  104.7638 N   0  0  0  0  0  0  0  0  0  0  0  0
   92.1665   40.8607  103.6935 C   0  0  0  0  0  0  0  0  0  0  0  0
   90.9346   41.2013  103.1330 C   0  0  0  0  0  0  0  0  0  0  0  0
   90.1752   42.1884  103.8119 N   0  0  0  0  0  0  0  0  0  0  0  0
   90.5207   40.6049  102.0077 N   0  0  0  0  0  0  0  0  0  0  0  0
   91.2801   39.6780  101.4082 C   0  0  0  0  0  0  0  0  0  0  0  0
   92.4715   39.3438  101.9440 N   0  0  0  0  0  0  0  0  0  0  0  0
   92.9541   39.8943  103.0651 C   0  0  0  0  0  0  0  0  0  0  0  0
  1  2  2  0
  1  3  1  6
  1  4  1  0
  8  1  1  0
  5  6  2  0
  5  7  1  1
  5  8  1  0
  5  9  1  0
 10  9  1  1
 10 11  1  0
 11 12  1  1
 11 13  1  0
 12 17  1  0
 13 14  1  6
 13 15  1  0
 15 16  1  6
 15 17  1  0
 17 18  1  1
 18 19  1  0
 18 27  1  0
 19 20  2  0
 20 21  1  0
 21 22  1  0
 21 27  2  0
 22 23  1  0
 22 24  2  0
 24 25  1  0
 25 26  2  0
 26 27  1  0
M  END
$$$$
