
     RDKit          3D

 27 29  0  0  0  0  0  0  0  0999 V2000
  101.2595   41.8633  103.5702 P   0  0  1  0  0  5  0  0  0  0  0  0
  100.1148   42.6777  102.9841 O   0  0  0  0  0  0  0  0  0  0  0  0
  101.4075   40.3831  102.7661 O   0  0  0  0  0  0  0  0  0  0  0  0
  102.7239   42.7019  103.3633 O   0  0  0  0  0  0  0  0  0  0  0  0
   99.2733   41.3662  105.4156 P   0  0  2  0  0  5  0  0  0  0  0  0
   98.5589   42.3333  104.5308 O   0  0  0  0  0  0  0  0  0  0  0  0
   98.8286   41.5077  107.0408 O   0  0  0  0  0  0  0  0  0  0  0  0
  100.9376   41.5725  105.2030 O   0  0  0  0  0  0  0  0  0  0  0  0
   98.8743   39.8020  104.8969 O   0  0  0  0  0  0  0  0  0  0  0  0
   98.5816   39.8747  103.5362 C   0  0  0  0  0  0  0  0  0  0  0  0
   97.5491   38.7898  103.2568 C   0  0  1  0  0  0  0  0  0  0  0  0
   96.4836   38.9436  104.0929 O   0  0  0  0  0  0  0  0  0  0  0  0
   97.0906   38.8459  101.8463 C   0  0  1  0  0  0  0  0  0  0  0  0
   97.5518   37.7798  101.0949 O   0  0  0  0  0  0  0  0  0  0  0  0
   95.6055   38.9357  101.9365 C   0  0  1  0  0  0  0  0  0  0  0  0
   94.9847   37.8895  101.2225 O   0  0  0  0  0  0  0  0  0  0  0  0
   95.3202   38.7292  103.3834 C   0  0  2  0  0  0  0  0  0  0  0  0
   94.2660   39.6628  103.7680 N   0  0  0  0  0  0  0  0  0  0  0  0
   94.2340   40.4104  104.8893 C   0  0  0  0  0  0  0  0  0  0  0  0
   93.0945   41.1424  104.8778 N   0  0  0  0  0  0  0  0  0  0  0  0
   92.3964   40.8809  103.7754 C   0  0  0  0  0  0  0  0  0  0  0  0
   91.1852   41.3186  103.2380 C   0  0  0  0  0  0  0  0  0  0  0  0
   90.4613   42.2773  103.9922 N   0  0  0  0  0  0  0  0  0  0  0  0
   90.7573   40.8356  102.0646 N   0  0  0  0  0  0  0  0  0  0  0  0
   91.4830   39.9302  101.3945 C   0  0  0  0  0  0  0  0  0  0  0  0
   92.6543   39.5027  101.9076 N   0  0  0  0  0  0  0  0  0  0  0  0
   93.1490   39.9375  103.0735 C   0  0  0  0  0  0  0  0  0  0  0  0
  1  2  2  0
  1  3  1  6
  1  4  1  0
  8  1  1  0
  5  6  2  0
  5  7  1  1
  5  8  1  0
  5  9  1  0
 10  9  1  1
 10 11  1  0
 11 12  1  1
 11 13  1  0
 12 17  1  0
 13 14  1  6
 13 15  1  0
 15 16  1  6
 15 17  1  0
 17 18  1  1
 18 19  1  0
 18 27  1  0
 19 20  2  0
 20 21  1  0
 21 22  1  0
 21 27  2  0
 22 23  1  0
 22 24  2  0
 24 25  1  0
 25 26  2  0
 26 27  1  0
M  END
$$$$
