
     RDKit          3D

 27 29  0  0  0  0  0  0  0  0999 V2000
  101.5207   41.5439  103.5013 P   0  0  1  0  0  5  0  0  0  0  0  0
  102.8038   40.8346  103.0918 O   0  0  0  0  0  0  0  0  0  0  0  0
  101.7875   43.2056  103.6656 O   0  0  0  0  0  0  0  0  0  0  0  0
  100.3411   41.3360  102.2948 O   0  0  0  0  0  0  0  0  0  0  0  0
   99.5068   41.5921  105.3828 P   0  0  2  0  0  5  0  0  0  0  0  0
   99.3954   42.9267  104.7235 O   0  0  0  0  0  0  0  0  0  0  0  0
   99.2785   41.6630  107.0566 O   0  0  0  0  0  0  0  0  0  0  0  0
  101.0061   40.9202  104.9847 O   0  0  0  0  0  0  0  0  0  0  0  0
   98.3016   40.5933  104.7309 O   0  0  0  0  0  0  0  0  0  0  0  0
   98.6602   39.2740  105.0020 C   0  0  0  0  0  0  0  0  0  0  0  0
   97.6625   38.3931  104.2607 C   0  0  1  0  0  0  0  0  0  0  0  0
   96.4140   38.5800  104.7751 O   0  0  0  0  0  0  0  0  0  0  0  0
   97.6575   38.7043  102.8095 C   0  0  1  0  0  0  0  0  0  0  0  0
   98.2210   37.6961  102.0479 O   0  0  0  0  0  0  0  0  0  0  0  0
   96.2296   38.9887  102.4903 C   0  0  1  0  0  0  0  0  0  0  0  0
   95.7570   38.1471  101.4619 O   0  0  0  0  0  0  0  0  0  0  0  0
   95.5037   38.6297  103.7399 C   0  0  2  0  0  0  0  0  0  0  0  0
   94.4754   39.6410  103.9650 N   0  0  0  0  0  0  0  0  0  0  0  0
   94.4175   40.5015  105.0012 C   0  0  0  0  0  0  0  0  0  0  0  0
   93.3164   41.2751  104.8481 N   0  0  0  0  0  0  0  0  0  0  0  0
   92.6681   40.9301  103.7383 C   0  0  0  0  0  0  0  0  0  0  0  0
   91.5103   41.3597  103.0885 C   0  0  0  0  0  0  0  0  0  0  0  0
   90.7924   42.4206  103.6977 N   0  0  0  0  0  0  0  0  0  0  0  0
   91.1249   40.7759  101.9466 N   0  0  0  0  0  0  0  0  0  0  0  0
   91.8425   39.7767  101.4157 C   0  0  0  0  0  0  0  0  0  0  0  0
   92.9623   39.3562  102.0379 N   0  0  0  0  0  0  0  0  0  0  0  0
   93.4124   39.8885  103.1812 C   0  0  0  0  0  0  0  0  0  0  0  0
  1  2  2  0
  1  3  1  1
  1  4  1  0
  8  1  1  0
  5  6  2  0
  5  7  1  1
  5  8  1  0
  5  9  1  0
 10  9  1  1
 10 11  1  0
 11 12  1  1
 11 13  1  0
 12 17  1  0
 13 14  1  6
 13 15  1  0
 15 16  1  6
 15 17  1  0
 17 18  1  1
 18 19  1  0
 18 27  1  0
 19 20  2  0
 20 21  1  0
 21 22  1  0
 21 27  2  0
 22 23  1  0
 22 24  2  0
 24 25  1  0
 25 26  2  0
 26 27  1  0
M  END
$$$$
