
     RDKit          3D

 27 29  0  0  0  0  0  0  0  0999 V2000
  101.4105   41.7466  103.3369 P   0  0  1  0  0  5  0  0  0  0  0  0
  102.7660   41.5218  102.6817 O   0  0  0  0  0  0  0  0  0  0  0  0
  101.2483   43.3564  103.8282 O   0  0  0  0  0  0  0  0  0  0  0  0
  100.1726   41.4310  102.2151 O   0  0  0  0  0  0  0  0  0  0  0  0
   99.9329   41.1878  105.5957 P   0  0  2  0  0  5  0  0  0  0  0  0
   99.4809   42.5360  105.1412 O   0  0  0  0  0  0  0  0  0  0  0  0
  100.2405   41.1216  107.2571 O   0  0  0  0  0  0  0  0  0  0  0  0
  101.2899   40.7434  104.6909 O   0  0  0  0  0  0  0  0  0  0  0  0
   98.6934   40.0844  105.2475 O   0  0  0  0  0  0  0  0  0  0  0  0
   98.4510   40.1473  103.8764 C   0  0  0  0  0  0  0  0  0  0  0  0
   97.4967   39.0046  103.5526 C   0  0  1  0  0  0  0  0  0  0  0  0
   96.3724   39.1151  104.3154 O   0  0  0  0  0  0  0  0  0  0  0  0
   97.1288   39.0134  102.1147 C   0  0  1  0  0  0  0  0  0  0  0  0
   97.6928   37.9612  101.4156 O   0  0  0  0  0  0  0  0  0  0  0  0
   95.6383   39.0255  102.1075 C   0  0  1  0  0  0  0  0  0  0  0  0
   95.1207   37.9364  101.3759 O   0  0  0  0  0  0  0  0  0  0  0  0
   95.2705   38.8277  103.5369 C   0  0  2  0  0  0  0  0  0  0  0  0
   94.1463   39.7100  103.8346 N   0  0  0  0  0  0  0  0  0  0  0  0
   94.0225   40.5056  104.9159 C   0  0  0  0  0  0  0  0  0  0  0  0
   92.8420   41.1631  104.8248 N   0  0  0  0  0  0  0  0  0  0  0  0
   92.2072   40.8072  103.7106 C   0  0  0  0  0  0  0  0  0  0  0  0
   90.9948   41.1423  103.1064 C   0  0  0  0  0  0  0  0  0  0  0  0
   90.1832   42.0877  103.7844 N   0  0  0  0  0  0  0  0  0  0  0  0
   90.6460   40.5793  101.9425 N   0  0  0  0  0  0  0  0  0  0  0  0
   91.4526   39.6911  101.3460 C   0  0  0  0  0  0  0  0  0  0  0  0
   92.6256   39.3624  101.9239 N   0  0  0  0  0  0  0  0  0  0  0  0
   93.0443   39.8813  103.0852 C   0  0  0  0  0  0  0  0  0  0  0  0
  1  2  2  0
  1  3  1  1
  1  4  1  0
  8  1  1  0
  5  6  2  0
  5  7  1  1
  5  8  1  0
  5  9  1  0
 10  9  1  1
 10 11  1  0
 11 12  1  1
 11 13  1  0
 12 17  1  0
 13 14  1  6
 13 15  1  0
 15 16  1  6
 15 17  1  0
 17 18  1  1
 18 19  1  0
 18 27  1  0
 19 20  2  0
 20 21  1  0
 21 22  1  0
 21 27  2  0
 22 23  1  0
 22 24  2  0
 24 25  1  0
 25 26  2  0
 26 27  1  0
M  END
$$$$
