
     RDKit          3D

 27 29  0  0  0  0  0  0  0  0999 V2000
  100.6568   43.3182  102.9253 P   0  0  1  0  0  5  0  0  0  0  0  0
  101.1843   44.6971  103.2590 O   0  0  0  0  0  0  0  0  0  0  0  0
   98.9657   43.3478  102.9173 O   0  0  0  0  0  0  0  0  0  0  0  0
  101.1760   42.8674  101.3848 O   0  0  0  0  0  0  0  0  0  0  0  0
  100.7477   40.6706  103.6367 P   0  0  2  0  0  5  0  0  0  0  0  0
  101.6202   39.7259  104.4079 O   0  0  0  0  0  0  0  0  0  0  0  0
  100.9953   40.4462  101.9854 O   0  0  0  0  0  0  0  0  0  0  0  0
  101.1567   42.2554  104.1161 O   0  0  0  0  0  0  0  0  0  0  0  0
   99.1126   40.4606  103.9846 O   0  0  0  0  0  0  0  0  0  0  0  0
   98.8422   40.5825  105.3327 C   0  0  0  0  0  0  0  0  0  0  0  0
   97.4442   40.1519  105.6169 C   0  0  1  0  0  0  0  0  0  0  0  0
   96.4863   40.9491  104.9886 O   0  0  0  0  0  0  0  0  0  0  0  0
   97.1055   38.8002  105.0202 C   0  0  1  0  0  0  0  0  0  0  0  0
   97.7633   37.7648  105.6498 O   0  0  0  0  0  0  0  0  0  0  0  0
   95.6089   38.8178  105.3615 C   0  0  1  0  0  0  0  0  0  0  0  0
   95.5358   38.6016  106.7383 O   0  0  0  0  0  0  0  0  0  0  0  0
   95.2986   40.2652  105.0484 C   0  0  2  0  0  0  0  0  0  0  0  0
   94.5805   40.2868  103.7769 N   0  0  0  0  0  0  0  0  0  0  0  0
   94.9606   39.8608  102.5727 C   0  0  0  0  0  0  0  0  0  0  0  0
   93.9537   40.0888  101.6851 N   0  0  0  0  0  0  0  0  0  0  0  0
   92.9373   40.6578  102.3231 C   0  0  0  0  0  0  0  0  0  0  0  0
   91.6893   41.1013  101.9514 C   0  0  0  0  0  0  0  0  0  0  0  0
   91.2877   40.9701  100.5915 N   0  0  0  0  0  0  0  0  0  0  0  0
   90.8819   41.6453  102.8747 N   0  0  0  0  0  0  0  0  0  0  0  0
   91.2738   41.7634  104.1568 C   0  0  0  0  0  0  0  0  0  0  0  0
   92.4843   41.3308  104.5068 N   0  0  0  0  0  0  0  0  0  0  0  0
   93.3374   40.7819  103.6482 C   0  0  0  0  0  0  0  0  0  0  0  0
  1  2  2  0
  1  3  1  6
  1  4  1  0
  8  1  1  0
  5  6  2  0
  5  7  1  6
  5  8  1  0
  5  9  1  0
  9 10  1  0
 11 10  1  6
 11 12  1  0
 11 13  1  0
 12 17  1  0
 13 14  1  1
 13 15  1  0
 15 16  1  1
 15 17  1  0
 17 18  1  6
 18 19  1  0
 18 27  1  0
 19 20  2  0
 20 21  1  0
 21 22  1  0
 21 27  2  0
 22 23  1  0
 22 24  2  0
 24 25  1  0
 25 26  2  0
 26 27  1  0
M  END
$$$$
