
     RDKit          3D

 27 29  0  0  0  0  0  0  0  0999 V2000
   98.6950   42.7212  106.0227 P   0  0  1  0  0  5  0  0  0  0  0  0
   98.9979   44.0604  106.6598 O   0  0  0  0  0  0  0  0  0  0  0  0
   99.7836   42.4383  104.7594 O   0  0  0  0  0  0  0  0  0  0  0  0
   98.8896   41.4919  107.1615 O   0  0  0  0  0  0  0  0  0  0  0  0
   96.0445   43.0419  106.6519 P   0  0  2  0  0  5  0  0  0  0  0  0
   94.7880   43.5939  106.0477 O   0  0  0  0  0  0  0  0  0  0  0  0
   96.6562   44.1352  107.7783 O   0  0  0  0  0  0  0  0  0  0  0  0
   97.1510   42.7746  105.3819 O   0  0  0  0  0  0  0  0  0  0  0  0
   95.7938   41.5550  107.4036 O   0  0  0  0  0  0  0  0  0  0  0  0
   94.4639   41.3332  107.6993 C   0  0  0  0  0  0  0  0  0  0  0  0
   93.9648   40.1413  106.9570 C   0  0  1  0  0  0  0  0  0  0  0  0
   93.2781   40.4713  105.7875 O   0  0  0  0  0  0  0  0  0  0  0  0
   95.0792   39.2876  106.3850 C   0  0  1  0  0  0  0  0  0  0  0  0
   95.7937   38.6273  107.3621 O   0  0  0  0  0  0  0  0  0  0  0  0
   94.1855   38.3297  105.5849 C   0  0  1  0  0  0  0  0  0  0  0  0
   93.5832   37.5000  106.5317 O   0  0  0  0  0  0  0  0  0  0  0  0
   93.1754   39.3202  105.0484 C   0  0  2  0  0  0  0  0  0  0  0  0
   93.4896   39.5355  103.6386 N   0  0  0  0  0  0  0  0  0  0  0  0
   94.6648   39.5095  103.0105 C   0  0  0  0  0  0  0  0  0  0  0  0
   94.4655   39.7695  101.6890 N   0  0  0  0  0  0  0  0  0  0  0  0
   93.1682   39.9600  101.4781 C   0  0  0  0  0  0  0  0  0  0  0  0
   92.4007   40.2481  100.3734 C   0  0  0  0  0  0  0  0  0  0  0  0
   93.0399   40.3989   99.1099 N   0  0  0  0  0  0  0  0  0  0  0  0
   91.0725   40.3799  100.5106 N   0  0  0  0  0  0  0  0  0  0  0  0
   90.4807   40.2349  101.7107 C   0  0  0  0  0  0  0  0  0  0  0  0
   91.2328   39.9559  102.7745 N   0  0  0  0  0  0  0  0  0  0  0  0
   92.5525   39.8111  102.7150 C   0  0  0  0  0  0  0  0  0  0  0  0
  1  2  2  0
  1  3  1  6
  1  4  1  0
  8  1  1  0
  5  6  2  0
  5  7  1  1
  5  8  1  0
  5  9  1  0
  9 10  1  0
 11 10  1  6
 11 12  1  0
 11 13  1  0
 12 17  1  0
 13 14  1  1
 13 15  1  0
 15 16  1  1
 15 17  1  0
 17 18  1  6
 18 19  1  0
 18 27  1  0
 19 20  2  0
 20 21  1  0
 21 22  1  0
 21 27  2  0
 22 23  1  0
 22 24  2  0
 24 25  1  0
 25 26  2  0
 26 27  1  0
M  END
$$$$
