
     RDKit          3D

 27 29  0  0  0  0  0  0  0  0999 V2000
  101.1168   41.7531  102.9673 P   0  0  1  0  0  5  0  0  0  0  0  0
  100.2934   41.6762  101.6893 O   0  0  0  0  0  0  0  0  0  0  0  0
  101.4482   40.2023  103.5542 O   0  0  0  0  0  0  0  0  0  0  0  0
  102.6081   42.5027  102.6437 O   0  0  0  0  0  0  0  0  0  0  0  0
  100.0236   41.6294  105.4946 P   0  0  2  0  0  5  0  0  0  0  0  0
   99.1453   42.3516  106.4617 O   0  0  0  0  0  0  0  0  0  0  0  0
  101.5042   41.1670  106.1677 O   0  0  0  0  0  0  0  0  0  0  0  0
  100.2350   42.6045  104.1299 O   0  0  0  0  0  0  0  0  0  0  0  0
   99.2077   40.2252  105.0072 O   0  0  0  0  0  0  0  0  0  0  0  0
   97.9235   40.2797  105.5460 C   0  0  0  0  0  0  0  0  0  0  0  0
   97.1312   39.1551  104.8913 C   0  0  1  0  0  0  0  0  0  0  0  0
   95.8463   39.1733  105.3463 O   0  0  0  0  0  0  0  0  0  0  0  0
   97.1406   39.2916  103.4134 C   0  0  1  0  0  0  0  0  0  0  0  0
   97.9070   38.3199  102.7949 O   0  0  0  0  0  0  0  0  0  0  0  0
   95.7017   39.2772  103.0248 C   0  0  1  0  0  0  0  0  0  0  0  0
   95.4326   38.2521  102.0941 O   0  0  0  0  0  0  0  0  0  0  0  0
   94.9913   38.9399  104.2893 C   0  0  2  0  0  0  0  0  0  0  0  0
   93.7927   39.7699  104.3629 N   0  0  0  0  0  0  0  0  0  0  0  0
   93.4946   40.6544  105.3356 C   0  0  0  0  0  0  0  0  0  0  0  0
   92.2999   41.2205  105.0414 N   0  0  0  0  0  0  0  0  0  0  0  0
   91.8263   40.7192  103.9033 C   0  0  0  0  0  0  0  0  0  0  0  0
   90.6803   40.9144  103.1313 C   0  0  0  0  0  0  0  0  0  0  0  0
   89.7416   41.8638  103.6104 N   0  0  0  0  0  0  0  0  0  0  0  0
   90.5075   40.2216  101.9984 N   0  0  0  0  0  0  0  0  0  0  0  0
   91.4282   39.3365  101.5932 C   0  0  0  0  0  0  0  0  0  0  0  0
   92.5380   39.1426  102.3340 N   0  0  0  0  0  0  0  0  0  0  0  0
   92.7827   39.7958  103.4770 C   0  0  0  0  0  0  0  0  0  0  0  0
  1  2  2  0
  1  3  1  1
  1  4  1  0
  8  1  1  0
  5  6  2  0
  5  7  1  1
  5  8  1  0
  5  9  1  0
 10  9  1  1
 10 11  1  0
 11 12  1  1
 11 13  1  0
 12 17  1  0
 13 14  1  6
 13 15  1  0
 15 16  1  6
 15 17  1  0
 17 18  1  1
 18 19  1  0
 18 27  1  0
 19 20  2  0
 20 21  1  0
 21 22  1  0
 21 27  2  0
 22 23  1  0
 22 24  2  0
 24 25  1  0
 25 26  2  0
 26 27  1  0
M  END
$$$$
