
     RDKit          3D

 27 29  0  0  0  0  0  0  0  0999 V2000
  102.7705   40.4484  103.7036 P   0  0  1  0  0  5  0  0  0  0  0  0
  104.0480   39.6333  103.5593 O   0  0  0  0  0  0  0  0  0  0  0  0
  101.6399   39.6179  104.6476 O   0  0  0  0  0  0  0  0  0  0  0  0
  103.1125   41.9144  104.4937 O   0  0  0  0  0  0  0  0  0  0  0  0
  100.5019   41.1816  102.3203 P   0  0  2  0  0  5  0  0  0  0  0  0
   99.8685   41.1481  100.9689 O   0  0  0  0  0  0  0  0  0  0  0  0
  100.3589   42.6866  103.0778 O   0  0  0  0  0  0  0  0  0  0  0  0
  102.1182   40.7102  102.1673 O   0  0  0  0  0  0  0  0  0  0  0  0
   99.7156   40.0313  103.2865 O   0  0  0  0  0  0  0  0  0  0  0  0
   98.4130   40.4813  103.4954 C   0  0  0  0  0  0  0  0  0  0  0  0
   97.4965   39.2946  103.2253 C   0  0  1  0  0  0  0  0  0  0  0  0
   96.4298   39.3360  104.0731 O   0  0  0  0  0  0  0  0  0  0  0  0
   97.0194   39.3033  101.8200 C   0  0  1  0  0  0  0  0  0  0  0  0
   97.5812   38.2915  101.0619 O   0  0  0  0  0  0  0  0  0  0  0  0
   95.5341   39.2374  101.9262 C   0  0  1  0  0  0  0  0  0  0  0  0
   95.0182   38.1326  101.2172 O   0  0  0  0  0  0  0  0  0  0  0  0
   95.2876   39.0016  103.3757 C   0  0  2  0  0  0  0  0  0  0  0  0
   94.1459   39.8198  103.7731 N   0  0  0  0  0  0  0  0  0  0  0  0
   94.0315   40.5268  104.9153 C   0  0  0  0  0  0  0  0  0  0  0  0
   92.8282   41.1485  104.9097 N   0  0  0  0  0  0  0  0  0  0  0  0
   92.1698   40.8560  103.7909 C   0  0  0  0  0  0  0  0  0  0  0  0
   90.9284   41.1940  103.2502 C   0  0  0  0  0  0  0  0  0  0  0  0
   90.1092   42.0571  104.0222 N   0  0  0  0  0  0  0  0  0  0  0  0
   90.5607   40.7087  102.0574 N   0  0  0  0  0  0  0  0  0  0  0  0
   91.3757   39.8964  101.3711 C   0  0  0  0  0  0  0  0  0  0  0  0
   92.5766   39.5655  101.8872 N   0  0  0  0  0  0  0  0  0  0  0  0
   93.0155   40.0093  103.0719 C   0  0  0  0  0  0  0  0  0  0  0  0
  1  2  2  0
  1  3  1  1
  1  4  1  0
  8  1  1  0
  5  6  2  0
  5  7  1  1
  5  8  1  0
  5  9  1  0
 10  9  1  1
 10 11  1  0
 11 12  1  1
 11 13  1  0
 12 17  1  0
 13 14  1  6
 13 15  1  0
 15 16  1  6
 15 17  1  0
 17 18  1  1
 18 19  1  0
 18 27  1  0
 19 20  2  0
 20 21  1  0
 21 22  1  0
 21 27  2  0
 22 23  1  0
 22 24  2  0
 24 25  1  0
 25 26  2  0
 26 27  1  0
M  END
$$$$
