
     RDKit          3D

 27 29  0  0  0  0  0  0  0  0999 V2000
  102.7878   40.5462  103.7584 P   0  0  1  0  0  5  0  0  0  0  0  0
  102.2057   39.5924  102.7247 O   0  0  0  0  0  0  0  0  0  0  0  0
  103.3379   39.6925  105.1104 O   0  0  0  0  0  0  0  0  0  0  0  0
  104.1236   41.3630  103.0959 O   0  0  0  0  0  0  0  0  0  0  0  0
  100.4488   41.7900  102.9972 P   0  0  2  0  0  5  0  0  0  0  0  0
  101.1780   42.1001  101.7321 O   0  0  0  0  0  0  0  0  0  0  0  0
   99.2676   42.9394  103.3754 O   0  0  0  0  0  0  0  0  0  0  0  0
  101.5803   41.6241  104.2422 O   0  0  0  0  0  0  0  0  0  0  0  0
   99.6781   40.2934  102.7941 O   0  0  0  0  0  0  0  0  0  0  0  0
   98.7885   40.1340  103.8551 C   0  0  0  0  0  0  0  0  0  0  0  0
   97.8395   39.0098  103.4592 C   0  0  1  0  0  0  0  0  0  0  0  0
   96.7453   39.0250  104.2720 O   0  0  0  0  0  0  0  0  0  0  0  0
   97.4137   39.1501  102.0443 C   0  0  1  0  0  0  0  0  0  0  0  0
   97.9650   38.1811  101.2250 O   0  0  0  0  0  0  0  0  0  0  0  0
   95.9241   39.1345  102.0960 C   0  0  1  0  0  0  0  0  0  0  0  0
   95.3940   38.1113  101.2827 O   0  0  0  0  0  0  0  0  0  0  0  0
   95.6174   38.7930  103.5126 C   0  0  2  0  0  0  0  0  0  0  0  0
   94.4928   39.6209  103.9378 N   0  0  0  0  0  0  0  0  0  0  0  0
   94.4383   40.3800  105.0505 C   0  0  0  0  0  0  0  0  0  0  0  0
   93.2307   40.9923  105.0866 N   0  0  0  0  0  0  0  0  0  0  0  0
   92.5111   40.6430  104.0231 C   0  0  0  0  0  0  0  0  0  0  0  0
   91.2372   40.9465  103.5410 C   0  0  0  0  0  0  0  0  0  0  0  0
   90.4559   41.8392  104.3187 N   0  0  0  0  0  0  0  0  0  0  0  0
   90.8053   40.4031  102.3957 N   0  0  0  0  0  0  0  0  0  0  0  0
   91.5868   39.5651  101.7013 C   0  0  0  0  0  0  0  0  0  0  0  0
   92.8189   39.2672  102.1610 N   0  0  0  0  0  0  0  0  0  0  0  0
   93.3217   39.7693  103.2960 C   0  0  0  0  0  0  0  0  0  0  0  0
  1  2  2  0
  1  3  1  1
  1  4  1  0
  8  1  1  0
  5  6  2  0
  5  7  1  1
  5  8  1  0
  5  9  1  0
 10  9  1  1
 10 11  1  0
 11 12  1  1
 11 13  1  0
 12 17  1  0
 13 14  1  6
 13 15  1  0
 15 16  1  6
 15 17  1  0
 17 18  1  1
 18 19  1  0
 18 27  1  0
 19 20  2  0
 20 21  1  0
 21 22  1  0
 21 27  2  0
 22 23  1  0
 22 24  2  0
 24 25  1  0
 25 26  2  0
 26 27  1  0
M  END
$$$$
