
     RDKit          3D

 27 29  0  0  0  0  0  0  0  0999 V2000
  100.4861   42.5493  103.8262 P   0  0  1  0  0  5  0  0  0  0  0  0
  100.9885   41.1948  103.3466 O   0  0  0  0  0  0  0  0  0  0  0  0
  101.4362   43.1161  105.1049 O   0  0  0  0  0  0  0  0  0  0  0  0
  100.6037   43.6832  102.5649 O   0  0  0  0  0  0  0  0  0  0  0  0
   98.8824   41.5590  105.8375 P   0  0  2  0  0  5  0  0  0  0  0  0
   97.9097   42.2335  106.7471 O   0  0  0  0  0  0  0  0  0  0  0  0
  100.4343   41.4462  106.4995 O   0  0  0  0  0  0  0  0  0  0  0  0
   98.8920   42.3785  104.3589 O   0  0  0  0  0  0  0  0  0  0  0  0
   98.3173   39.9855  105.5546 O   0  0  0  0  0  0  0  0  0  0  0  0
   98.5246   39.7033  104.2055 C   0  0  0  0  0  0  0  0  0  0  0  0
   97.4273   38.7300  103.7933 C   0  0  1  0  0  0  0  0  0  0  0  0
   96.2296   39.1513  104.2895 O   0  0  0  0  0  0  0  0  0  0  0  0
   97.3457   38.6193  102.3155 C   0  0  1  0  0  0  0  0  0  0  0  0
   97.7941   37.3965  101.8488 O   0  0  0  0  0  0  0  0  0  0  0  0
   95.9201   38.9130  101.9941 C   0  0  1  0  0  0  0  0  0  0  0  0
   95.3294   37.8553  101.2717 O   0  0  0  0  0  0  0  0  0  0  0  0
   95.2576   38.9783  103.3261 C   0  0  2  0  0  0  0  0  0  0  0  0
   94.3111   40.0893  103.2997 N   0  0  0  0  0  0  0  0  0  0  0  0
   94.5858   41.3771  103.5888 C   0  0  0  0  0  0  0  0  0  0  0  0
   93.4459   42.0950  103.4487 N   0  0  0  0  0  0  0  0  0  0  0  0
   92.4480   41.2970  103.0766 C   0  0  0  0  0  0  0  0  0  0  0  0
   91.0927   41.4666  102.7905 C   0  0  0  0  0  0  0  0  0  0  0  0
   90.5768   42.7833  102.9004 N   0  0  0  0  0  0  0  0  0  0  0  0
   90.3450   40.4149  102.4324 N   0  0  0  0  0  0  0  0  0  0  0  0
   90.8858   39.1921  102.3447 C   0  0  0  0  0  0  0  0  0  0  0  0
   92.1945   39.0206  102.6197 N   0  0  0  0  0  0  0  0  0  0  0  0
   93.0068   40.0210  102.9838 C   0  0  0  0  0  0  0  0  0  0  0  0
  1  2  2  0
  1  3  1  1
  1  4  1  0
  8  1  1  0
  5  6  2  0
  5  7  1  1
  5  8  1  0
  5  9  1  0
 10  9  1  1
 10 11  1  0
 11 12  1  6
 11 13  1  0
 12 17  1  0
 13 14  1  1
 13 15  1  0
 15 16  1  6
 15 17  1  0
 17 18  1  6
 18 19  1  0
 18 27  1  0
 19 20  2  0
 20 21  1  0
 21 22  1  0
 21 27  2  0
 22 23  1  0
 22 24  2  0
 24 25  1  0
 25 26  2  0
 26 27  1  0
M  END
$$$$
