
     RDKit          3D

 27 29  0  0  0  0  0  0  0  0999 V2000
  100.4140   41.0083  106.3601 P   0  0  1  0  0  5  0  0  0  0  0  0
   99.8535   39.7487  105.7352 O   0  0  0  0  0  0  0  0  0  0  0  0
   99.6057   41.3258  107.8116 O   0  0  0  0  0  0  0  0  0  0  0  0
  102.0492   40.7899  106.7128 O   0  0  0  0  0  0  0  0  0  0  0  0
   98.9104   41.8403  104.2221 P   0  0  2  0  0  5  0  0  0  0  0  0
   99.2252   42.4813  102.9036 O   0  0  0  0  0  0  0  0  0  0  0  0
   97.3979   42.3580  104.7539 O   0  0  0  0  0  0  0  0  0  0  0  0
  100.1396   42.2866  105.3170 O   0  0  0  0  0  0  0  0  0  0  0  0
   98.9201   40.1578  104.1346 O   0  0  0  0  0  0  0  0  0  0  0  0
   98.8621   39.6988  102.8341 C   0  0  0  0  0  0  0  0  0  0  0  0
   97.5612   39.0148  102.5886 C   0  0  1  0  0  0  0  0  0  0  0  0
   96.6752   39.1194  103.6619 O   0  0  0  0  0  0  0  0  0  0  0  0
   96.7413   39.6713  101.4956 C   0  0  1  0  0  0  0  0  0  0  0  0
   97.2946   39.4993  100.2443 O   0  0  0  0  0  0  0  0  0  0  0  0
   95.4745   38.8244  101.6815 C   0  0  1  0  0  0  0  0  0  0  0  0
   95.7830   37.5684  101.1572 O   0  0  0  0  0  0  0  0  0  0  0  0
   95.4377   38.7589  103.1926 C   0  0  2  0  0  0  0  0  0  0  0  0
   94.3874   39.6707  103.6381 N   0  0  0  0  0  0  0  0  0  0  0  0
   94.3665   40.5113  104.6721 C   0  0  0  0  0  0  0  0  0  0  0  0
   93.1690   41.1587  104.6912 N   0  0  0  0  0  0  0  0  0  0  0  0
   92.4314   40.7310  103.6729 C   0  0  0  0  0  0  0  0  0  0  0  0
   91.1710   41.0201  103.2040 C   0  0  0  0  0  0  0  0  0  0  0  0
   90.3842   41.9872  103.8919 N   0  0  0  0  0  0  0  0  0  0  0  0
   90.7130   40.3867  102.1133 N   0  0  0  0  0  0  0  0  0  0  0  0
   91.4669   39.4745  101.4723 C   0  0  0  0  0  0  0  0  0  0  0  0
   92.6863   39.2016  101.9344 N   0  0  0  0  0  0  0  0  0  0  0  0
   93.2061   39.7883  103.0076 C   0  0  0  0  0  0  0  0  0  0  0  0
  1  2  2  0
  1  3  1  1
  1  4  1  0
  8  1  1  0
  5  6  2  0
  5  7  1  1
  5  8  1  0
  5  9  1  0
  9 10  1  0
 11 10  1  1
 11 12  1  0
 11 13  1  0
 12 17  1  0
 13 14  1  6
 13 15  1  0
 15 16  1  6
 15 17  1  0
 17 18  1  1
 18 19  1  0
 18 27  1  0
 19 20  2  0
 20 21  1  0
 21 22  1  0
 21 27  2  0
 22 23  1  0
 22 24  2  0
 24 25  1  0
 25 26  2  0
 26 27  1  0
M  END
$$$$
