
     RDKit          3D

 27 29  0  0  0  0  0  0  0  0999 V2000
  102.6118   38.1434  101.8213 P   0  0  1  0  0  5  0  0  0  0  0  0
  101.3929   37.3154  101.4749 O   0  0  0  0  0  0  0  0  0  0  0  0
  103.8127   37.1392  102.4616 O   0  0  0  0  0  0  0  0  0  0  0  0
  103.2264   38.8636  100.4250 O   0  0  0  0  0  0  0  0  0  0  0  0
  101.3068   40.5184  102.2468 P   0  0  2  0  0  5  0  0  0  0  0  0
  102.1126   40.9975  101.0765 O   0  0  0  0  0  0  0  0  0  0  0  0
  101.0453   41.7967  103.3126 O   0  0  0  0  0  0  0  0  0  0  0  0
  102.1819   39.2581  102.9918 O   0  0  0  0  0  0  0  0  0  0  0  0
   99.8216   39.8739  101.7806 O   0  0  0  0  0  0  0  0  0  0  0  0
   98.7594   40.4957  102.4055 C   0  0  0  0  0  0  0  0  0  0  0  0
   97.5266   39.6703  102.2655 C   0  0  1  0  0  0  0  0  0  0  0  0
   96.7698   39.6117  103.4367 O   0  0  0  0  0  0  0  0  0  0  0  0
   96.5109   40.2752  101.3167 C   0  0  1  0  0  0  0  0  0  0  0  0
   96.9261   40.2352  100.0024 O   0  0  0  0  0  0  0  0  0  0  0  0
   95.3824   39.2710  101.5901 C   0  0  1  0  0  0  0  0  0  0  0  0
   95.7693   38.0901  100.9550 O   0  0  0  0  0  0  0  0  0  0  0  0
   95.5351   39.1260  103.0884 C   0  0  2  0  0  0  0  0  0  0  0  0
   94.4473   39.8786  103.7074 N   0  0  0  0  0  0  0  0  0  0  0  0
   94.4338   40.5937  104.8320 C   0  0  0  0  0  0  0  0  0  0  0  0
   93.1895   41.1179  105.0074 N   0  0  0  0  0  0  0  0  0  0  0  0
   92.4151   40.7372  103.9978 C   0  0  0  0  0  0  0  0  0  0  0  0
   91.1017   40.9550  103.6518 C   0  0  0  0  0  0  0  0  0  0  0  0
   90.2896   41.7606  104.4998 N   0  0  0  0  0  0  0  0  0  0  0  0
   90.6172   40.4055  102.5276 N   0  0  0  0  0  0  0  0  0  0  0  0
   91.3955   39.6459  101.7347 C   0  0  0  0  0  0  0  0  0  0  0  0
   92.6663   39.4410  102.0786 N   0  0  0  0  0  0  0  0  0  0  0  0
   93.2148   39.9522  103.1759 C   0  0  0  0  0  0  0  0  0  0  0  0
  1  2  2  0
  1  3  1  1
  1  4  1  0
  8  1  1  0
  5  6  2  0
  5  7  1  1
  5  8  1  0
  5  9  1  0
  9 10  1  0
 11 10  1  1
 11 12  1  0
 11 13  1  0
 12 17  1  0
 13 14  1  6
 13 15  1  0
 15 16  1  6
 15 17  1  0
 17 18  1  1
 18 19  1  0
 18 27  1  0
 19 20  2  0
 20 21  1  0
 21 22  1  0
 21 27  2  0
 22 23  1  0
 22 24  2  0
 24 25  1  0
 25 26  2  0
 26 27  1  0
M  END
$$$$
