
     RDKit          3D

 27 29  0  0  0  0  0  0  0  0999 V2000
  100.5305   43.0162  103.7927 P   0  0  1  0  0  5  0  0  0  0  0  0
  100.8422   44.1449  104.7653 O   0  0  0  0  0  0  0  0  0  0  0  0
   98.9952   43.2233  103.1152 O   0  0  0  0  0  0  0  0  0  0  0  0
  101.6545   43.0324  102.5173 O   0  0  0  0  0  0  0  0  0  0  0  0
   99.2983   41.5145  105.7483 P   0  0  2  0  0  5  0  0  0  0  0  0
   98.8973   42.9191  106.0560 O   0  0  0  0  0  0  0  0  0  0  0  0
   99.7051   40.6279  107.1294 O   0  0  0  0  0  0  0  0  0  0  0  0
  100.5680   41.5509  104.6328 O   0  0  0  0  0  0  0  0  0  0  0  0
   97.9778   40.7526  105.0061 O   0  0  0  0  0  0  0  0  0  0  0  0
   98.4747   39.9876  103.9524 C   0  0  0  0  0  0  0  0  0  0  0  0
   97.4973   38.8357  103.7550 C   0  0  1  0  0  0  0  0  0  0  0  0
   96.3957   39.0296  104.5342 O   0  0  0  0  0  0  0  0  0  0  0  0
   97.0903   38.7247  102.3319 C   0  0  1  0  0  0  0  0  0  0  0  0
   97.6213   37.6071  101.7131 O   0  0  0  0  0  0  0  0  0  0  0  0
   95.6005   38.7590  102.3626 C   0  0  1  0  0  0  0  0  0  0  0  0
   95.0490   37.6183  101.7429 O   0  0  0  0  0  0  0  0  0  0  0  0
   95.2693   38.6923  103.8129 C   0  0  2  0  0  0  0  0  0  0  0  0
   94.1653   39.6143  104.0614 N   0  0  0  0  0  0  0  0  0  0  0  0
   94.0248   40.4183  105.1344 C   0  0  0  0  0  0  0  0  0  0  0  0
   92.8726   41.1160  104.9927 N   0  0  0  0  0  0  0  0  0  0  0  0
   92.2723   40.7776  103.8543 C   0  0  0  0  0  0  0  0  0  0  0  0
   91.0982   41.1520  103.1995 C   0  0  0  0  0  0  0  0  0  0  0  0
   90.2928   42.1278  103.8407 N   0  0  0  0  0  0  0  0  0  0  0  0
   90.7783   40.5965  102.0238 N   0  0  0  0  0  0  0  0  0  0  0  0
   91.5774   39.6784  101.4636 C   0  0  0  0  0  0  0  0  0  0  0  0
   92.7134   39.3116  102.0904 N   0  0  0  0  0  0  0  0  0  0  0  0
   93.1017   39.8205  103.2666 C   0  0  0  0  0  0  0  0  0  0  0  0
  1  2  2  0
  1  3  1  6
  1  4  1  0
  8  1  1  0
  5  6  2  0
  5  7  1  1
  5  8  1  0
  5  9  1  0
 10  9  1  1
 10 11  1  0
 11 12  1  1
 11 13  1  0
 12 17  1  0
 13 14  1  1
 13 15  1  0
 15 16  1  6
 15 17  1  0
 17 18  1  6
 18 19  1  0
 18 27  1  0
 19 20  2  0
 20 21  1  0
 21 22  1  0
 21 27  2  0
 22 23  1  0
 22 24  2  0
 24 25  1  0
 25 26  2  0
 26 27  1  0
M  END
$$$$
