
     RDKit          3D

 27 29  0  0  0  0  0  0  0  0999 V2000
   99.6662   42.9158  104.0584 P   0  0  1  0  0  5  0  0  0  0  0  0
   99.3838   41.8291  103.0306 O   0  0  0  0  0  0  0  0  0  0  0  0
  101.3180   43.2744  104.1048 O   0  0  0  0  0  0  0  0  0  0  0  0
   98.8492   44.3419  103.6234 O   0  0  0  0  0  0  0  0  0  0  0  0
   99.8538   40.8381  105.8600 P   0  0  2  0  0  5  0  0  0  0  0  0
   99.5403   40.4323  107.2620 O   0  0  0  0  0  0  0  0  0  0  0  0
  101.5104   40.8146  105.5221 O   0  0  0  0  0  0  0  0  0  0  0  0
   99.1804   42.3630  105.5792 O   0  0  0  0  0  0  0  0  0  0  0  0
   99.0911   39.7354  104.8219 O   0  0  0  0  0  0  0  0  0  0  0  0
   98.0420   39.1518  105.5299 C   0  0  0  0  0  0  0  0  0  0  0  0
   97.1953   38.4018  104.5092 C   0  0  1  0  0  0  0  0  0  0  0  0
   95.8744   38.5456  104.8139 O   0  0  0  0  0  0  0  0  0  0  0  0
   97.4501   38.9063  103.1368 C   0  0  1  0  0  0  0  0  0  0  0  0
   98.1432   37.9978  102.3569 O   0  0  0  0  0  0  0  0  0  0  0  0
   96.1020   39.2633  102.6106 C   0  0  1  0  0  0  0  0  0  0  0  0
   95.8234   38.5792  101.4090 O   0  0  0  0  0  0  0  0  0  0  0  0
   95.1644   38.7551  103.6499 C   0  0  2  0  0  0  0  0  0  0  0  0
   94.1103   39.7497  103.8247 N   0  0  0  0  0  0  0  0  0  0  0  0
   94.1268   40.7848  104.6883 C   0  0  0  0  0  0  0  0  0  0  0  0
   92.9688   41.4728  104.5468 N   0  0  0  0  0  0  0  0  0  0  0  0
   92.2116   40.9025  103.6128 C   0  0  0  0  0  0  0  0  0  0  0  0
   90.9577   41.1584  103.0562 C   0  0  0  0  0  0  0  0  0  0  0  0
   90.2553   42.2851  103.5553 N   0  0  0  0  0  0  0  0  0  0  0  0
   90.4719   40.3581  102.0987 N   0  0  0  0  0  0  0  0  0  0  0  0
   91.1798   39.3064  101.6649 C   0  0  0  0  0  0  0  0  0  0  0  0
   92.3920   39.0530  102.1980 N   0  0  0  0  0  0  0  0  0  0  0  0
   92.9453   39.8056  103.1575 C   0  0  0  0  0  0  0  0  0  0  0  0
  1  2  2  0
  1  3  1  1
  1  4  1  0
  8  1  1  0
  5  6  2  0
  5  7  1  1
  5  8  1  0
  5  9  1  0
 10  9  1  1
 10 11  1  0
 11 12  1  1
 11 13  1  0
 12 17  1  0
 13 14  1  6
 13 15  1  0
 15 16  1  6
 15 17  1  0
 17 18  1  1
 18 19  1  0
 18 27  1  0
 19 20  2  0
 20 21  1  0
 21 22  1  0
 21 27  2  0
 22 23  1  0
 22 24  2  0
 24 25  1  0
 25 26  2  0
 26 27  1  0
M  END
$$$$
