
     RDKit          3D

 27 29  0  0  0  0  0  0  0  0999 V2000
   99.2971   42.7180  103.7244 P   0  0  1  0  0  5  0  0  0  0  0  0
   97.8481   42.3514  103.4855 O   0  0  0  0  0  0  0  0  0  0  0  0
   99.9762   43.2993  102.2886 O   0  0  0  0  0  0  0  0  0  0  0  0
   99.3910   43.9453  104.8780 O   0  0  0  0  0  0  0  0  0  0  0  0
   99.6009   40.8704  105.7290 P   0  0  2  0  0  5  0  0  0  0  0  0
   98.9706   42.0694  106.3722 O   0  0  0  0  0  0  0  0  0  0  0  0
  100.8864   40.3330  106.6760 O   0  0  0  0  0  0  0  0  0  0  0  0
  100.1271   41.3377  104.1754 O   0  0  0  0  0  0  0  0  0  0  0  0
   98.5053   39.6083  105.5156 O   0  0  0  0  0  0  0  0  0  0  0  0
   98.6363   39.0014  104.2828 C   0  0  0  0  0  0  0  0  0  0  0  0
   97.3247   38.4498  103.8401 C   0  0  1  0  0  0  0  0  0  0  0  0
   96.2855   38.7244  104.7304 O   0  0  0  0  0  0  0  0  0  0  0  0
   96.7917   39.1166  102.5875 C   0  0  1  0  0  0  0  0  0  0  0  0
   97.5283   38.7998  101.4658 O   0  0  0  0  0  0  0  0  0  0  0  0
   95.4191   38.4292  102.5826 C   0  0  1  0  0  0  0  0  0  0  0  0
   95.6599   37.1140  102.1827 O   0  0  0  0  0  0  0  0  0  0  0  0
   95.1135   38.4714  104.0638 C   0  0  2  0  0  0  0  0  0  0  0  0
   94.1198   39.5216  104.2693 N   0  0  0  0  0  0  0  0  0  0  0  0
   94.0495   40.4597  105.2133 C   0  0  0  0  0  0  0  0  0  0  0  0
   92.9404   41.2198  104.9993 N   0  0  0  0  0  0  0  0  0  0  0  0
   92.3081   40.7662  103.9231 C   0  0  0  0  0  0  0  0  0  0  0  0
   91.1647   41.1287  103.2495 C   0  0  0  0  0  0  0  0  0  0  0  0
   90.4028   42.2323  103.7282 N   0  0  0  0  0  0  0  0  0  0  0  0
   90.7946   40.4369  102.1609 N   0  0  0  0  0  0  0  0  0  0  0  0
   91.5239   39.3956  101.7189 C   0  0  0  0  0  0  0  0  0  0  0  0
   92.6295   39.0525  102.3783 N   0  0  0  0  0  0  0  0  0  0  0  0
   93.0576   39.6903  103.4628 C   0  0  0  0  0  0  0  0  0  0  0  0
  1  2  2  0
  1  3  1  6
  1  4  1  0
  8  1  1  0
  5  6  2  0
  5  7  1  1
  5  8  1  0
  5  9  1  0
  9 10  1  0
 11 10  1  1
 11 12  1  0
 11 13  1  0
 12 17  1  0
 13 14  1  6
 13 15  1  0
 15 16  1  1
 15 17  1  0
 17 18  1  6
 18 19  1  0
 18 27  1  0
 19 20  2  0
 20 21  1  0
 21 22  1  0
 21 27  2  0
 22 23  1  0
 22 24  2  0
 24 25  1  0
 25 26  2  0
 26 27  1  0
M  END
$$$$
