
     RDKit          3D

 27 29  0  0  0  0  0  0  0  0999 V2000
  101.4405   41.5435  103.9074 P   0  0  1  0  0  5  0  0  0  0  0  0
  102.8087   42.1910  103.9076 O   0  0  0  0  0  0  0  0  0  0  0  0
  100.4914   42.2305  102.6875 O   0  0  0  0  0  0  0  0  0  0  0  0
  101.5909   39.8949  103.5827 O   0  0  0  0  0  0  0  0  0  0  0  0
   99.0252   41.6236  105.2052 P   0  0  2  0  0  5  0  0  0  0  0  0
   98.6238   42.2083  103.8840 O   0  0  0  0  0  0  0  0  0  0  0  0
   98.1723   42.3862  106.4419 O   0  0  0  0  0  0  0  0  0  0  0  0
  100.7066   41.8515  105.3784 O   0  0  0  0  0  0  0  0  0  0  0  0
   98.7458   39.9639  105.2821 O   0  0  0  0  0  0  0  0  0  0  0  0
   98.8815   39.3505  104.0530 C   0  0  0  0  0  0  0  0  0  0  0  0
   97.6054   38.6843  103.6679 C   0  0  1  0  0  0  0  0  0  0  0  0
   96.5839   38.8756  104.5995 O   0  0  0  0  0  0  0  0  0  0  0  0
   96.9656   39.2925  102.4356 C   0  0  1  0  0  0  0  0  0  0  0  0
   97.6801   39.0312  101.2856 O   0  0  0  0  0  0  0  0  0  0  0  0
   95.6586   38.4894  102.4910 C   0  0  1  0  0  0  0  0  0  0  0  0
   95.9955   37.1966  102.0875 O   0  0  0  0  0  0  0  0  0  0  0  0
   95.4117   38.5171  103.9835 C   0  0  2  0  0  0  0  0  0  0  0  0
   94.3402   39.4795  104.2254 N   0  0  0  0  0  0  0  0  0  0  0  0
   94.1807   40.3491  105.2226 C   0  0  0  0  0  0  0  0  0  0  0  0
   93.0247   41.0408  105.0252 N   0  0  0  0  0  0  0  0  0  0  0  0
   92.4517   40.6122  103.9064 C   0  0  0  0  0  0  0  0  0  0  0  0
   91.3009   40.9345  103.2252 C   0  0  0  0  0  0  0  0  0  0  0  0
   90.4505   41.9492  103.7493 N   0  0  0  0  0  0  0  0  0  0  0  0
   91.0068   40.2880  102.0867 N   0  0  0  0  0  0  0  0  0  0  0  0
   91.8193   39.3307  101.6021 C   0  0  0  0  0  0  0  0  0  0  0  0
   92.9315   39.0259  102.2693 N   0  0  0  0  0  0  0  0  0  0  0  0
   93.2874   39.6230  103.4020 C   0  0  0  0  0  0  0  0  0  0  0  0
  1  2  2  0
  1  3  1  6
  1  4  1  0
  8  1  1  0
  5  6  2  0
  5  7  1  1
  5  8  1  0
  5  9  1  0
  9 10  1  0
 11 10  1  1
 11 12  1  0
 11 13  1  0
 12 17  1  0
 13 14  1  6
 13 15  1  0
 15 16  1  1
 15 17  1  0
 17 18  1  6
 18 19  1  0
 18 27  1  0
 19 20  2  0
 20 21  1  0
 21 22  1  0
 21 27  2  0
 22 23  1  0
 22 24  2  0
 24 25  1  0
 25 26  2  0
 26 27  1  0
M  END
$$$$
