
     RDKit          3D

 27 29  0  0  0  0  0  0  0  0999 V2000
   99.9616   41.2272  106.1339 P   0  0  1  0  0  5  0  0  0  0  0  0
   98.9824   40.1340  106.5377 O   0  0  0  0  0  0  0  0  0  0  0  0
   99.1789   42.7237  106.0495 O   0  0  0  0  0  0  0  0  0  0  0  0
  101.1864   41.3604  107.3055 O   0  0  0  0  0  0  0  0  0  0  0  0
   99.5054   41.3382  103.4178 P   0  0  2  0  0  5  0  0  0  0  0  0
  100.1367   41.1190  102.0830 O   0  0  0  0  0  0  0  0  0  0  0  0
   98.9929   42.9327  103.6503 O   0  0  0  0  0  0  0  0  0  0  0  0
  100.5965   40.8520  104.6140 O   0  0  0  0  0  0  0  0  0  0  0  0
   98.1452   40.3306  103.5162 O   0  0  0  0  0  0  0  0  0  0  0  0
   98.5975   39.0128  103.4749 C   0  0  0  0  0  0  0  0  0  0  0  0
   97.4607   38.1831  102.8915 C   0  0  1  0  0  0  0  0  0  0  0  0
   96.3386   38.3450  103.6483 O   0  0  0  0  0  0  0  0  0  0  0  0
   97.1803   38.5811  101.4894 C   0  0  1  0  0  0  0  0  0  0  0  0
   97.5691   37.6177  100.5757 O   0  0  0  0  0  0  0  0  0  0  0  0
   95.7225   38.8913  101.4705 C   0  0  1  0  0  0  0  0  0  0  0  0
   95.0461   38.1154  100.5061 O   0  0  0  0  0  0  0  0  0  0  0  0
   95.2462   38.4613  102.8142 C   0  0  2  0  0  0  0  0  0  0  0  0
   94.2977   39.4624  103.2929 N   0  0  0  0  0  0  0  0  0  0  0  0
   94.4364   40.2297  104.3927 C   0  0  0  0  0  0  0  0  0  0  0  0
   93.3468   41.0280  104.4921 N   0  0  0  0  0  0  0  0  0  0  0  0
   92.5140   40.7898  103.4819 C   0  0  0  0  0  0  0  0  0  0  0  0
   91.2766   41.2897  103.0740 C   0  0  0  0  0  0  0  0  0  0  0  0
   90.6992   42.3025  103.8820 N   0  0  0  0  0  0  0  0  0  0  0  0
   90.6910   40.8131  101.9680 N   0  0  0  0  0  0  0  0  0  0  0  0
   91.2828   39.8548  101.2421 C   0  0  0  0  0  0  0  0  0  0  0  0
   92.4784   39.3670  101.6300 N   0  0  0  0  0  0  0  0  0  0  0  0
   93.1265   39.7914  102.7222 C   0  0  0  0  0  0  0  0  0  0  0  0
  1  2  2  0
  1  3  1  6
  1  4  1  0
  8  1  1  0
  5  6  2  0
  5  7  1  1
  5  8  1  0
  5  9  1  0
 10  9  1  1
 10 11  1  0
 11 12  1  1
 11 13  1  0
 12 17  1  0
 13 14  1  6
 13 15  1  0
 15 16  1  6
 15 17  1  0
 17 18  1  1
 18 19  1  0
 18 27  1  0
 19 20  2  0
 20 21  1  0
 21 22  1  0
 21 27  2  0
 22 23  1  0
 22 24  2  0
 24 25  1  0
 25 26  2  0
 26 27  1  0
M  END
$$$$
