
     RDKit          3D

 27 29  0  0  0  0  0  0  0  0999 V2000
  101.3491   41.6371  103.1683 P   0  0  1  0  0  5  0  0  0  0  0  0
  102.3014   40.5504  103.6195 O   0  0  0  0  0  0  0  0  0  0  0  0
  102.2086   42.8275  102.3287 O   0  0  0  0  0  0  0  0  0  0  0  0
  100.2001   40.9872  102.1179 O   0  0  0  0  0  0  0  0  0  0  0  0
   99.5402   41.2497  105.1937 P   0  0  2  0  0  5  0  0  0  0  0  0
   98.8145   41.9673  106.2923 O   0  0  0  0  0  0  0  0  0  0  0  0
  100.3063   39.8865  105.8206 O   0  0  0  0  0  0  0  0  0  0  0  0
  100.6661   42.3412  104.5230 O   0  0  0  0  0  0  0  0  0  0  0  0
   98.5101   40.7807  103.9456 O   0  0  0  0  0  0  0  0  0  0  0  0
   98.7129   39.4707  103.5609 C   0  0  0  0  0  0  0  0  0  0  0  0
   97.4140   38.7417  103.5161 C   0  0  1  0  0  0  0  0  0  0  0  0
   96.5403   39.1144  104.5388 O   0  0  0  0  0  0  0  0  0  0  0  0
   96.5764   39.0935  102.3027 C   0  0  1  0  0  0  0  0  0  0  0  0
   97.1157   38.6091  101.1298 O   0  0  0  0  0  0  0  0  0  0  0  0
   95.3179   38.3178  102.7161 C   0  0  1  0  0  0  0  0  0  0  0  0
   95.6289   36.9705  102.5267 O   0  0  0  0  0  0  0  0  0  0  0  0
   95.2997   38.6411  104.1941 C   0  0  2  0  0  0  0  0  0  0  0  0
   94.2485   39.6326  104.4055 N   0  0  0  0  0  0  0  0  0  0  0  0
   94.0945   40.5194  105.3884 C   0  0  0  0  0  0  0  0  0  0  0  0
   92.9593   41.2365  105.1628 N   0  0  0  0  0  0  0  0  0  0  0  0
   92.3940   40.8068  104.0405 C   0  0  0  0  0  0  0  0  0  0  0  0
   91.2627   41.1479  103.3361 C   0  0  0  0  0  0  0  0  0  0  0  0
   90.4293   42.1902  103.8327 N   0  0  0  0  0  0  0  0  0  0  0  0
   90.9712   40.4934  102.2016 N   0  0  0  0  0  0  0  0  0  0  0  0
   91.7676   39.5100  101.7431 C   0  0  0  0  0  0  0  0  0  0  0  0
   92.8609   39.1872  102.4326 N   0  0  0  0  0  0  0  0  0  0  0  0
   93.2131   39.7907  103.5630 C   0  0  0  0  0  0  0  0  0  0  0  0
  1  2  2  0
  1  3  1  6
  1  4  1  0
  8  1  1  0
  5  6  2  0
  5  7  1  1
  5  8  1  0
  5  9  1  0
  9 10  1  0
 11 10  1  6
 11 12  1  0
 11 13  1  0
 12 17  1  0
 13 14  1  6
 13 15  1  0
 15 16  1  1
 15 17  1  0
 17 18  1  6
 18 19  1  0
 18 27  1  0
 19 20  2  0
 20 21  1  0
 21 22  1  0
 21 27  2  0
 22 23  1  0
 22 24  2  0
 24 25  1  0
 25 26  2  0
 26 27  1  0
M  END
$$$$
