
     RDKit          3D

 27 29  0  0  0  0  0  0  0  0999 V2000
  100.4644   41.6570  106.4492 P   0  0  1  0  0  5  0  0  0  0  0  0
  101.8558   42.2355  106.2339 O   0  0  0  0  0  0  0  0  0  0  0  0
  100.4483   40.6348  107.7961 O   0  0  0  0  0  0  0  0  0  0  0  0
   99.3618   42.9148  106.7534 O   0  0  0  0  0  0  0  0  0  0  0  0
   98.5741   41.3713  104.4634 P   0  0  2  0  0  5  0  0  0  0  0  0
   98.6020   41.2475  102.9761 O   0  0  0  0  0  0  0  0  0  0  0  0
   98.2802   42.9518  104.9876 O   0  0  0  0  0  0  0  0  0  0  0  0
  100.0286   40.7691  105.0796 O   0  0  0  0  0  0  0  0  0  0  0  0
   97.3198   40.3861  105.0389 O   0  0  0  0  0  0  0  0  0  0  0  0
   97.0091   40.8154  106.3281 C   0  0  0  0  0  0  0  0  0  0  0  0
   95.4934   40.9591  106.3830 C   0  0  1  0  0  0  0  0  0  0  0  0
   95.0092   41.1987  105.1315 O   0  0  0  0  0  0  0  0  0  0  0  0
   94.8652   39.7336  106.9364 C   0  0  1  0  0  0  0  0  0  0  0  0
   94.3422   39.9298  108.2021 O   0  0  0  0  0  0  0  0  0  0  0  0
   93.8592   39.3310  105.9128 C   0  0  1  0  0  0  0  0  0  0  0  0
   92.5676   39.2397  106.4721 O   0  0  0  0  0  0  0  0  0  0  0  0
   93.8562   40.4643  104.9469 C   0  0  2  0  0  0  0  0  0  0  0  0
   93.7754   39.9037  103.6015 N   0  0  0  0  0  0  0  0  0  0  0  0
   94.8058   39.4306  102.8722 C   0  0  0  0  0  0  0  0  0  0  0  0
   94.3206   39.0004  101.6831 N   0  0  0  0  0  0  0  0  0  0  0  0
   93.0039   39.1869  101.6341 C   0  0  0  0  0  0  0  0  0  0  0  0
   91.9995   38.9454  100.6960 C   0  0  0  0  0  0  0  0  0  0  0  0
   92.4001   38.3591   99.4681 N   0  0  0  0  0  0  0  0  0  0  0  0
   90.7291   39.2644  100.9748 N   0  0  0  0  0  0  0  0  0  0  0  0
   90.4075   39.8168  102.1524 C   0  0  0  0  0  0  0  0  0  0  0  0
   91.3727   40.0531  103.0637 N   0  0  0  0  0  0  0  0  0  0  0  0
   92.6639   39.7627  102.8597 C   0  0  0  0  0  0  0  0  0  0  0  0
  1  2  2  0
  1  3  1  1
  1  4  1  0
  8  1  1  0
  5  6  2  0
  5  7  1  6
  5  8  1  0
  5  9  1  0
 10  9  1  1
 10 11  1  0
 11 12  1  6
 11 13  1  0
 12 17  1  0
 13 14  1  1
 13 15  1  0
 15 16  1  1
 15 17  1  0
 17 18  1  6
 18 19  1  0
 18 27  1  0
 19 20  2  0
 20 21  1  0
 21 22  1  0
 21 27  2  0
 22 23  1  0
 22 24  2  0
 24 25  1  0
 25 26  2  0
 26 27  1  0
M  END
$$$$
