
     RDKit          3D

 23 26  0  0  0  0  0  0  0  0999 V2000
   26.6073   19.3386   48.7440 C   0  0  0  0  0  0  0  0  0  0  0  0
   31.1372   15.4427   53.9072 C   0  0  0  0  0  0  0  0  0  0  0  0
   32.9743   16.8448   53.2227 C   0  0  0  0  0  0  0  0  0  0  0  0
   32.0769   17.4730   52.1933 C   0  0  0  0  0  0  0  0  0  0  0  0
   33.3862   14.3675   53.4846 C   0  0  0  0  0  0  0  0  0  0  0  0
   34.6267   14.4518   52.8982 C   0  0  0  0  0  0  0  0  0  0  0  0
   35.4454   13.3157   52.8420 C   0  0  0  0  0  0  0  0  0  0  0  0
   35.0194   12.1140   53.3693 C   0  0  0  0  0  0  0  0  0  0  0  0
   33.7770   12.0167   53.9604 C   0  0  0  0  0  0  0  0  0  0  0  0
   32.9893   13.1574   54.0009 C   0  0  0  0  0  0  0  0  0  0  0  0
   26.7440   20.7000   48.7090 C   0  0  0  0  0  0  0  0  0  0  0  0
   27.5718   18.5675   49.3683 C   0  0  0  0  0  0  0  0  0  0  0  0
   28.6572   19.1977   49.9450 C   0  0  0  0  0  0  0  0  0  0  0  0
   28.7408   20.5652   49.8786 C   0  0  0  0  0  0  0  0  0  0  0  0
   30.4870   19.9125   50.9460 C   0  0  0  0  0  0  0  0  0  0  0  0
   29.7760   18.7854   50.6284 C   0  0  0  0  0  0  0  0  0  0  0  0
   30.1213   17.3869   50.9473 C   0  0  0  0  0  0  0  0  0  0  0  0
   30.2370   16.0261   52.8548 C   0  0  0  0  0  0  0  0  0  0  0  0
   27.7853   21.3066   49.2621 N   0  0  0  0  0  0  0  0  0  0  0  0
   29.8568   20.9976   50.4895 N   0  0  0  0  0  0  0  0  0  0  0  0
   30.6970   17.2379   52.2754 N   0  0  1  0  0  4  0  0  0  0  0  0
   32.5340   15.4918   53.5432 N   0  0  0  0  0  0  0  0  0  0  0  0
   36.0191   10.6815   53.3142 Cl  0  0  0  0  0  0  0  0  0  0  0  0
  1 11  2  0
 12  1  1  0
 18  2  1  1
  2 22  1  6
  4  3  1  1
  3 22  1  6
 21  4  1  0
  5  6  2  0
  5 10  1  0
 22  5  1  0
  6  7  1  0
  7  8  2  0
  9  8  1  0
  8 23  1  0
 10  9  2  0
 19 11  1  0
 13 12  2  0
 13 14  1  0
 16 13  1  0
 14 19  2  0
 20 14  1  0
 16 15  2  0
 15 20  1  0
 17 16  1  1
 21 17  1  6
 18 21  1  0
M  CHG  1  21   1
M  END
$$$$
