
     RDKit          3D

 23 26  0  0  0  0  0  0  0  0999 V2000
   14.2748   18.1316   22.6329 C   0  0  0  0  0  0  0  0  0  0  0  0
   21.1615   13.7292   23.4045 C   0  0  0  0  0  0  0  0  0  0  0  0
   21.4708   14.7340   21.2356 C   0  0  0  0  0  0  0  0  0  0  0  0
   20.1905   15.4961   21.4353 C   0  0  0  0  0  0  0  0  0  0  0  0
   21.7291   12.2313   21.4483 C   0  0  0  0  0  0  0  0  0  0  0  0
   21.7908   11.1072   22.2371 C   0  0  0  0  0  0  0  0  0  0  0  0
   22.0636    9.8636   21.6514 C   0  0  0  0  0  0  0  0  0  0  0  0
   22.2706    9.7558   20.2916 C   0  0  0  0  0  0  0  0  0  0  0  0
   22.2112   10.8763   19.4895 C   0  0  0  0  0  0  0  0  0  0  0  0
   21.9396   12.0929   20.0974 C   0  0  0  0  0  0  0  0  0  0  0  0
   14.4874   19.4371   22.2812 C   0  0  0  0  0  0  0  0  0  0  0  0
   15.3406   17.2503   22.6781 C   0  0  0  0  0  0  0  0  0  0  0  0
   16.6027   17.7156   22.3643 C   0  0  0  0  0  0  0  0  0  0  0  0
   16.7551   19.0343   22.0190 C   0  0  0  0  0  0  0  0  0  0  0  0
   18.7156   18.1619   21.9197 C   0  0  0  0  0  0  0  0  0  0  0  0
   17.8591   17.1623   22.2992 C   0  0  0  0  0  0  0  0  0  0  0  0
   18.1943   15.7552   22.5895 C   0  0  0  0  0  0  0  0  0  0  0  0
   19.8567   14.4473   23.6044 C   0  0  0  0  0  0  0  0  0  0  0  0
   15.6983   19.8854   21.9797 N   0  0  0  0  0  0  0  0  0  0  0  0
   18.0436   19.3030   21.7487 N   0  0  0  0  0  0  0  0  0  0  0  0
   19.6266   15.5327   22.7185 N   0  0  1  0  0  4  0  0  0  0  0  0
   21.4700   13.4996   22.0124 N   0  0  0  0  0  0  0  0  0  0  0  0
   22.6118    8.2184   19.5339 Cl  0  0  0  0  0  0  0  0  0  0  0  0
  1 11  2  0
 12  1  1  0
 18  2  1  1
  2 22  1  6
  4  3  1  1
  3 22  1  6
 21  4  1  0
  5  6  2  0
  5 10  1  0
 22  5  1  0
  6  7  1  0
  7  8  2  0
  9  8  1  0
  8 23  1  0
 10  9  2  0
 19 11  1  0
 13 12  2  0
 13 14  1  0
 16 13  1  0
 14 19  2  0
 20 14  1  0
 16 15  2  0
 15 20  1  0
 17 16  1  1
 21 17  1  6
 18 21  1  0
M  CHG  1  21   1
M  END
$$$$
