
     RDKit          3D

 23 26  0  0  0  0  0  0  0  0999 V2000
   29.2973   18.0434   47.6530 C   0  0  0  0  0  0  0  0  0  0  0  0
   32.4507   16.2948   51.0201 C   0  0  0  0  0  0  0  0  0  0  0  0
   32.9231   16.7665   53.3741 C   0  0  0  0  0  0  0  0  0  0  0  0
   32.4069   18.1051   52.9443 C   0  0  0  0  0  0  0  0  0  0  0  0
   33.4514   14.5067   52.5038 C   0  0  0  0  0  0  0  0  0  0  0  0
   34.0601   14.1700   53.7005 C   0  0  0  0  0  0  0  0  0  0  0  0
   34.5417   12.8938   53.9529 C   0  0  0  0  0  0  0  0  0  0  0  0
   34.3974   11.9485   52.9633 C   0  0  0  0  0  0  0  0  0  0  0  0
   33.7873   12.2605   51.7468 C   0  0  0  0  0  0  0  0  0  0  0  0
   33.3266   13.5397   51.5450 C   0  0  0  0  0  0  0  0  0  0  0  0
   27.9895   18.4531   47.5132 C   0  0  0  0  0  0  0  0  0  0  0  0
   29.9258   18.4073   48.8317 C   0  0  0  0  0  0  0  0  0  0  0  0
   29.2766   19.1440   49.8202 C   0  0  0  0  0  0  0  0  0  0  0  0
   27.9618   19.5266   49.6200 C   0  0  0  0  0  0  0  0  0  0  0  0
   28.6028   20.2995   51.5975 C   0  0  0  0  0  0  0  0  0  0  0  0
   29.6690   19.6288   51.0532 C   0  0  0  0  0  0  0  0  0  0  0  0
   31.0241   19.3963   51.5970 C   0  0  0  0  0  0  0  0  0  0  0  0
   31.1368   17.0261   51.1934 C   0  0  0  0  0  0  0  0  0  0  0  0
   27.3646   19.1672   48.4726 N   0  0  0  0  0  0  0  0  0  0  0  0
   27.5816   20.2222   50.7102 N   0  0  0  0  0  0  0  0  0  0  0  0
   31.2081   18.0754   52.1547 N   0  0  1  0  0  4  0  0  0  0  0  0
   32.9498   15.8064   52.2601 N   0  0  0  0  0  0  0  0  0  0  0  0
   35.0093   10.3427   53.3032 Cl  0  0  0  0  0  0  0  0  0  0  0  0
  1 11  2  0
 12  1  1  0
  2 18  1  0
 22  2  1  0
  4  3  1  0
  3 22  1  0
 21  4  1  0
  5  6  2  0
  5 10  1  0
 22  5  1  0
  6  7  1  0
  7  8  2  0
  9  8  1  0
  8 23  1  0
 10  9  2  0
 19 11  1  0
 13 12  2  0
 13 14  1  0
 16 13  1  0
 14 19  2  0
 20 14  1  0
 16 15  2  0
 15 20  1  0
 17 16  1  0
 21 17  1  6
 18 21  1  0
M  CHG  1  21   1
M  END
$$$$
