
     RDKit          3D

 23 26  0  0  0  0  0  0  0  0999 V2000
   27.3745   18.4613   47.9367 C   0  0  0  0  0  0  0  0  0  0  0  0
   31.4552   15.2043   53.8598 C   0  0  0  0  0  0  0  0  0  0  0  0
   33.3810   16.5307   53.2753 C   0  0  0  0  0  0  0  0  0  0  0  0
   32.5612   17.2037   52.2100 C   0  0  0  0  0  0  0  0  0  0  0  0
   33.6740   14.0363   53.5349 C   0  0  0  0  0  0  0  0  0  0  0  0
   33.2546   12.8710   54.1315 C   0  0  0  0  0  0  0  0  0  0  0  0
   34.0814   11.7398   54.1002 C   0  0  0  0  0  0  0  0  0  0  0  0
   35.3113   11.7835   53.4767 C   0  0  0  0  0  0  0  0  0  0  0  0
   35.7432   12.9467   52.8744 C   0  0  0  0  0  0  0  0  0  0  0  0
   34.9038   14.0495   52.9217 C   0  0  0  0  0  0  0  0  0  0  0  0
   26.9103   19.7163   48.2244 C   0  0  0  0  0  0  0  0  0  0  0  0
   28.3748   17.9044   48.7137 C   0  0  0  0  0  0  0  0  0  0  0  0
   28.8833   18.6364   49.7691 C   0  0  0  0  0  0  0  0  0  0  0  0
   28.3789   19.8891   50.0095 C   0  0  0  0  0  0  0  0  0  0  0  0
   29.8837   19.5552   51.5057 C   0  0  0  0  0  0  0  0  0  0  0  0
   29.8450   18.4277   50.7284 C   0  0  0  0  0  0  0  0  0  0  0  0
   30.6654   17.2100   50.8721 C   0  0  0  0  0  0  0  0  0  0  0  0
   30.6318   15.8328   52.7711 C   0  0  0  0  0  0  0  0  0  0  0  0
   27.3973   20.4203   49.2370 N   0  0  0  0  0  0  0  0  0  0  0  0
   28.9906   20.4462   51.0683 N   0  0  0  0  0  0  0  0  0  0  0  0
   31.1702   17.0275   52.2247 N   0  0  1  0  0  4  0  0  0  0  0  0
   32.8686   15.1958   53.5627 N   0  0  0  0  0  0  0  0  0  0  0  0
   36.3626   10.3885   53.4214 Cl  0  0  0  0  0  0  0  0  0  0  0  0
  1 11  2  0
 12  1  1  0
 18  2  1  1
  2 22  1  6
  4  3  1  1
  3 22  1  6
 21  4  1  0
  5  6  2  0
  5 10  1  0
 22  5  1  0
  6  7  1  0
  7  8  2  0
  9  8  1  0
  8 23  1  0
 10  9  2  0
 19 11  1  0
 13 12  2  0
 13 14  1  0
 16 13  1  0
 14 19  2  0
 20 14  1  0
 16 15  2  0
 15 20  1  0
 17 16  1  1
 21 17  1  6
 18 21  1  0
M  CHG  1  21   1
M  END
$$$$
