
     RDKit          3D

 23 26  0  0  0  0  0  0  0  0999 V2000
   28.1041   21.4225   49.8487 C   0  0  0  0  0  0  0  0  0  0  0  0
   32.6640   15.6022   51.3782 C   0  0  0  0  0  0  0  0  0  0  0  0
   32.5916   15.8563   53.8108 C   0  0  0  0  0  0  0  0  0  0  0  0
   31.7807   17.0485   53.4055 C   0  0  0  0  0  0  0  0  0  0  0  0
   33.8939   13.9695   52.8688 C   0  0  0  0  0  0  0  0  0  0  0  0
   34.5184   13.7462   54.0837 C   0  0  0  0  0  0  0  0  0  0  0  0
   35.3082   12.6296   54.3161 C   0  0  0  0  0  0  0  0  0  0  0  0
   35.4603   11.7285   53.2871 C   0  0  0  0  0  0  0  0  0  0  0  0
   34.8417   11.9287   52.0514 C   0  0  0  0  0  0  0  0  0  0  0  0
   34.0692   13.0512   51.8708 C   0  0  0  0  0  0  0  0  0  0  0  0
   27.1604   20.9282   48.9752 C   0  0  0  0  0  0  0  0  0  0  0  0
   28.8424   20.4799   50.5438 C   0  0  0  0  0  0  0  0  0  0  0  0
   28.6452   19.1113   50.3720 C   0  0  0  0  0  0  0  0  0  0  0  0
   27.6807   18.6772   49.4795 C   0  0  0  0  0  0  0  0  0  0  0  0
   28.6252   16.8871   50.3863 C   0  0  0  0  0  0  0  0  0  0  0  0
   29.2289   17.9914   50.9328 C   0  0  0  0  0  0  0  0  0  0  0  0
   30.3150   18.0848   51.9317 C   0  0  0  0  0  0  0  0  0  0  0  0
   31.1832   15.9149   51.3559 C   0  0  0  0  0  0  0  0  0  0  0  0
   26.9721   19.6019   48.8123 N   0  0  0  0  0  0  0  0  0  0  0  0
   27.6921   17.3296   49.5090 N   0  0  0  0  0  0  0  0  0  0  0  0
   30.7871   16.8010   52.3991 N   0  0  1  0  0  4  0  0  0  0  0  0
   33.0784   15.1031   52.6448 N   0  0  0  0  0  0  0  0  0  0  0  0
   36.4587   10.3240   53.6020 Cl  0  0  0  0  0  0  0  0  0  0  0  0
  1 11  2  0
 12  1  1  0
  2 18  1  0
 22  2  1  0
  4  3  1  0
  3 22  1  0
 21  4  1  0
  5  6  2  0
  5 10  1  0
 22  5  1  0
  6  7  1  0
  7  8  2  0
  9  8  1  0
  8 23  1  0
 10  9  2  0
 19 11  1  0
 13 12  2  0
 13 14  1  0
 16 13  1  0
 14 19  2  0
 20 14  1  0
 16 15  2  0
 15 20  1  0
 17 16  1  0
 21 17  1  6
 18 21  1  0
M  CHG  1  21   1
M  END
$$$$
