
     RDKit          3D

 23 26  0  0  0  0  0  0  0  0999 V2000
   20.3074   20.2657   20.2872 C   0  0  0  0  0  0  0  0  0  0  0  0
   19.2408   13.5898   20.9551 C   0  0  0  0  0  0  0  0  0  0  0  0
   20.4942   12.7827   22.8953 C   0  0  0  0  0  0  0  0  0  0  0  0
   20.7656   14.2511   23.0091 C   0  0  0  0  0  0  0  0  0  0  0  0
   19.3551   11.1135   21.4601 C   0  0  0  0  0  0  0  0  0  0  0  0
   18.1649   10.7369   20.8622 C   0  0  0  0  0  0  0  0  0  0  0  0
   17.8609    9.4114   20.5882 C   0  0  0  0  0  0  0  0  0  0  0  0
   18.7910    8.4575   20.9329 C   0  0  0  0  0  0  0  0  0  0  0  0
   19.9997    8.8091   21.5370 C   0  0  0  0  0  0  0  0  0  0  0  0
   20.2540   10.1365   21.7879 C   0  0  0  0  0  0  0  0  0  0  0  0
   19.0921   20.9144   20.2739 C   0  0  0  0  0  0  0  0  0  0  0  0
   20.3565   19.0809   21.0016 C   0  0  0  0  0  0  0  0  0  0  0  0
   19.2441   18.5716   21.6684 C   0  0  0  0  0  0  0  0  0  0  0  0
   18.0508   19.2708   21.6178 C   0  0  0  0  0  0  0  0  0  0  0  0
   17.7255   17.4558   22.8502 C   0  0  0  0  0  0  0  0  0  0  0  0
   19.0340   17.4430   22.4375 C   0  0  0  0  0  0  0  0  0  0  0  0
   20.1032   16.4552   22.6966 C   0  0  0  0  0  0  0  0  0  0  0  0
   18.7020   14.6991   21.8328 C   0  0  0  0  0  0  0  0  0  0  0  0
   18.0173   20.4182   20.9217 N   0  0  0  0  0  0  0  0  0  0  0  0
   17.1520   18.5724   22.3398 N   0  0  0  0  0  0  0  0  0  0  0  0
   19.6200   15.1010   22.8457 N   0  0  1  0  0  4  0  0  0  0  0  0
   19.6637   12.4685   21.7225 N   0  0  0  0  0  0  0  0  0  0  0  0
   18.3891    6.7903   20.5757 Cl  0  0  0  0  0  0  0  0  0  0  0  0
  1 11  2  0
 12  1  1  0
  2 18  1  0
 22  2  1  0
  4  3  1  0
  3 22  1  0
 21  4  1  0
  5  6  2  0
  5 10  1  0
 22  5  1  0
  6  7  1  0
  7  8  2  0
  9  8  1  0
  8 23  1  0
 10  9  2  0
 19 11  1  0
 13 12  2  0
 13 14  1  0
 16 13  1  0
 14 19  2  0
 20 14  1  0
 16 15  2  0
 15 20  1  0
 17 16  1  0
 21 17  1  6
 18 21  1  0
M  CHG  1  21   1
M  END
$$$$
