
     RDKit          3D

 23 26  0  0  0  0  0  0  0  0999 V2000
   27.7385   20.9072   49.8794 C   0  0  0  0  0  0  0  0  0  0  0  0
   31.1193   14.1255   52.2510 C   0  0  0  0  0  0  0  0  0  0  0  0
   31.9295   15.5728   53.9998 C   0  0  0  0  0  0  0  0  0  0  0  0
   31.4131   16.7535   53.2257 C   0  0  0  0  0  0  0  0  0  0  0  0
   33.4802   13.7978   53.0943 C   0  0  0  0  0  0  0  0  0  0  0  0
   33.7130   12.7476   52.2384 C   0  0  0  0  0  0  0  0  0  0  0  0
   34.9573   12.1030   52.2546 C   0  0  0  0  0  0  0  0  0  0  0  0
   35.9508   12.5116   53.1203 C   0  0  0  0  0  0  0  0  0  0  0  0
   35.7296   13.5640   53.9838 C   0  0  0  0  0  0  0  0  0  0  0  0
   34.4887   14.1821   53.9450 C   0  0  0  0  0  0  0  0  0  0  0  0
   26.8760   20.4388   48.9255 C   0  0  0  0  0  0  0  0  0  0  0  0
   28.6978   20.0637   50.4115 C   0  0  0  0  0  0  0  0  0  0  0  0
   28.7603   18.7592   49.9617 C   0  0  0  0  0  0  0  0  0  0  0  0
   27.8696   18.3459   49.0039 C   0  0  0  0  0  0  0  0  0  0  0  0
   29.1012   16.6426   49.4470 C   0  0  0  0  0  0  0  0  0  0  0  0
   29.5454   17.6665   50.2415 C   0  0  0  0  0  0  0  0  0  0  0  0
   30.6517   17.6305   51.2169 C   0  0  0  0  0  0  0  0  0  0  0  0
   30.6361   15.2952   51.4407 C   0  0  0  0  0  0  0  0  0  0  0  0
   26.9346   19.1869   48.4927 N   0  0  0  0  0  0  0  0  0  0  0  0
   28.0800   17.0558   48.6925 N   0  0  0  0  0  0  0  0  0  0  0  0
   30.5423   16.5206   52.1516 N   0  0  1  0  0  4  0  0  0  0  0  0
   32.2317   14.4573   53.1103 N   0  0  0  0  0  0  0  0  0  0  0  0
   37.5119   11.7270   53.1619 Cl  0  0  0  0  0  0  0  0  0  0  0  0
  1 11  2  0
 12  1  1  0
 18  2  1  1
  2 22  1  6
  4  3  1  1
  3 22  1  6
 21  4  1  0
  5  6  2  0
  5 10  1  0
 22  5  1  0
  6  7  1  0
  7  8  2  0
  9  8  1  0
  8 23  1  0
 10  9  2  0
 19 11  1  0
 13 12  2  0
 13 14  1  0
 16 13  1  0
 14 19  2  0
 20 14  1  0
 16 15  2  0
 15 20  1  0
 17 16  1  1
 21 17  1  6
 18 21  1  0
M  CHG  1  21   1
M  END
$$$$
