
     RDKit          3D

 23 26  0  0  0  0  0  0  0  0999 V2000
   27.9454   19.7285   48.6848 C   0  0  0  0  0  0  0  0  0  0  0  0
   32.2401   14.5719   52.8781 C   0  0  0  0  0  0  0  0  0  0  0  0
   32.5188   14.2211   50.4726 C   0  0  0  0  0  0  0  0  0  0  0  0
   31.2998   15.0911   50.4640 C   0  0  0  0  0  0  0  0  0  0  0  0
   34.1064   13.1003   52.0110 C   0  0  0  0  0  0  0  0  0  0  0  0
   34.5844   12.3020   50.9863 C   0  0  0  0  0  0  0  0  0  0  0  0
   35.6934   11.4832   51.1413 C   0  0  0  0  0  0  0  0  0  0  0  0
   36.3217   11.4825   52.3656 C   0  0  0  0  0  0  0  0  0  0  0  0
   35.8612   12.2780   53.4167 C   0  0  0  0  0  0  0  0  0  0  0  0
   34.7579   13.0721   53.2130 C   0  0  0  0  0  0  0  0  0  0  0  0
   28.1450   21.0258   49.1034 C   0  0  0  0  0  0  0  0  0  0  0  0
   28.5440   18.7432   49.4514 C   0  0  0  0  0  0  0  0  0  0  0  0
   29.3038   19.0428   50.5804 C   0  0  0  0  0  0  0  0  0  0  0  0
   29.4679   20.3665   50.9492 C   0  0  0  0  0  0  0  0  0  0  0  0
   30.5733   19.1112   52.4055 C   0  0  0  0  0  0  0  0  0  0  0  0
   29.9948   18.2671   51.4914 C   0  0  0  0  0  0  0  0  0  0  0  0
   30.0282   16.7914   51.4056 C   0  0  0  0  0  0  0  0  0  0  0  0
   31.9878   16.0344   52.5806 C   0  0  0  0  0  0  0  0  0  0  0  0
   28.8821   21.3116   50.1969 N   0  0  0  0  0  0  0  0  0  0  0  0
   30.2384   20.3765   52.0552 N   0  0  0  0  0  0  0  0  0  0  0  0
   31.3633   16.2442   51.3172 N   0  0  1  0  0  4  0  0  0  0  0  0
   32.9838   13.9434   51.8402 N   0  0  0  0  0  0  0  0  0  0  0  0
   37.7219   10.4443   52.5396 Cl  0  0  0  0  0  0  0  0  0  0  0  0
  1 11  2  0
 12  1  1  0
  2 18  1  0
 22  2  1  0
  4  3  1  0
  3 22  1  0
 21  4  1  0
  5  6  2  0
  5 10  1  0
 22  5  1  0
  6  7  1  0
  7  8  2  0
  9  8  1  0
  8 23  1  0
 10  9  2  0
 19 11  1  0
 13 12  2  0
 13 14  1  0
 16 13  1  0
 14 19  2  0
 20 14  1  0
 16 15  2  0
 15 20  1  0
 17 16  1  0
 21 17  1  1
 18 21  1  0
M  CHG  1  21   1
M  END
$$$$
