
     RDKit          3D

 23 26  0  0  0  0  0  0  0  0999 V2000
   27.9766   17.8507   47.8333 C   0  0  0  0  0  0  0  0  0  0  0  0
   30.7239   15.5556   52.8048 C   0  0  0  0  0  0  0  0  0  0  0  0
   32.4624   16.8461   53.8638 C   0  0  0  0  0  0  0  0  0  0  0  0
   32.0353   18.0378   53.0530 C   0  0  0  0  0  0  0  0  0  0  0  0
   33.0521   14.5771   52.9262 C   0  0  0  0  0  0  0  0  0  0  0  0
   34.3468   14.6723   53.3783 C   0  0  0  0  0  0  0  0  0  0  0  0
   35.2576   13.6459   53.0936 C   0  0  0  0  0  0  0  0  0  0  0  0
   34.8682   12.5410   52.3648 C   0  0  0  0  0  0  0  0  0  0  0  0
   33.5720   12.4338   51.9058 C   0  0  0  0  0  0  0  0  0  0  0  0
   32.6936   13.4651   52.2029 C   0  0  0  0  0  0  0  0  0  0  0  0
   26.8438   18.6162   47.8989 C   0  0  0  0  0  0  0  0  0  0  0  0
   28.9731   18.0166   48.7789 C   0  0  0  0  0  0  0  0  0  0  0  0
   28.7968   18.9590   49.7733 C   0  0  0  0  0  0  0  0  0  0  0  0
   27.6406   19.6970   49.7884 C   0  0  0  0  0  0  0  0  0  0  0  0
   28.8008   20.3725   51.4654 C   0  0  0  0  0  0  0  0  0  0  0  0
   29.5350   19.3948   50.8475 C   0  0  0  0  0  0  0  0  0  0  0  0
   30.8639   18.8876   51.2392 C   0  0  0  0  0  0  0  0  0  0  0  0
   30.3106   16.7222   51.9525 C   0  0  0  0  0  0  0  0  0  0  0  0
   26.6730   19.5212   48.8527 N   0  0  0  0  0  0  0  0  0  0  0  0
   27.6462   20.5572   50.8206 N   0  0  0  0  0  0  0  0  0  0  0  0
   30.8080   17.9823   52.3772 N   0  0  1  0  0  4  0  0  0  0  0  0
   32.1163   15.6022   53.1857 N   0  0  0  0  0  0  0  0  0  0  0  0
   35.9819   11.2458   51.9954 Cl  0  0  0  0  0  0  0  0  0  0  0  0
  1 11  2  0
 12  1  1  0
 18  2  1  1
  2 22  1  6
  4  3  1  1
  3 22  1  6
 21  4  1  0
  5  6  2  0
  5 10  1  0
 22  5  1  0
  6  7  1  0
  7  8  2  0
  9  8  1  0
  8 23  1  0
 10  9  2  0
 19 11  1  0
 13 12  2  0
 13 14  1  0
 16 13  1  0
 14 19  2  0
 20 14  1  0
 16 15  2  0
 15 20  1  0
 17 16  1  1
 21 17  1  6
 18 21  1  0
M  CHG  1  21   1
M  END
$$$$
