
     RDKit          3D

 23 26  0  0  0  0  0  0  0  0999 V2000
   15.4718   20.1917   22.2997 C   0  0  0  0  0  0  0  0  0  0  0  0
   21.4592   15.0967   22.3979 C   0  0  0  0  0  0  0  0  0  0  0  0
   19.8817   13.4895   21.4410 C   0  0  0  0  0  0  0  0  0  0  0  0
   18.9263   14.5597   21.8708 C   0  0  0  0  0  0  0  0  0  0  0  0
   22.2873   12.8929   21.4717 C   0  0  0  0  0  0  0  0  0  0  0  0
   23.6295   13.1906   21.6315 C   0  0  0  0  0  0  0  0  0  0  0  0
   24.6306   12.2742   21.3441 C   0  0  0  0  0  0  0  0  0  0  0  0
   24.2497   11.0339   20.8856 C   0  0  0  0  0  0  0  0  0  0  0  0
   22.9031   10.7066   20.7152 C   0  0  0  0  0  0  0  0  0  0  0  0
   21.9487   11.6496   21.0138 C   0  0  0  0  0  0  0  0  0  0  0  0
   14.2717   19.8106   21.7407 C   0  0  0  0  0  0  0  0  0  0  0  0
   16.4595   19.2223   22.3389 C   0  0  0  0  0  0  0  0  0  0  0  0
   16.2551   17.9364   21.8427 C   0  0  0  0  0  0  0  0  0  0  0  0
   15.0263   17.6146   21.2935 C   0  0  0  0  0  0  0  0  0  0  0  0
   16.3164   15.8142   21.1793 C   0  0  0  0  0  0  0  0  0  0  0  0
   17.0530   16.8108   21.7684 C   0  0  0  0  0  0  0  0  0  0  0  0
   18.4474   16.7988   22.2600 C   0  0  0  0  0  0  0  0  0  0  0  0
   20.7011   16.1890   21.6746 C   0  0  0  0  0  0  0  0  0  0  0  0
   14.0776   18.5640   21.2620 N   0  0  0  0  0  0  0  0  0  0  0  0
   15.0934   16.3268   20.9009 N   0  0  0  0  0  0  0  0  0  0  0  0
   19.3133   15.8999   21.5308 N   0  0  1  0  0  4  0  0  0  0  0  0
   21.2723   13.8279   21.7810 N   0  0  0  0  0  0  0  0  0  0  0  0
   25.5287    9.8905   20.5316 Cl  0  0  0  0  0  0  0  0  0  0  0  0
  1 11  2  0
 12  1  1  0
  2 18  1  0
 22  2  1  0
  4  3  1  0
  3 22  1  0
 21  4  1  0
  5  6  2  0
  5 10  1  0
 22  5  1  0
  6  7  1  0
  7  8  2  0
  9  8  1  0
  8 23  1  0
 10  9  2  0
 19 11  1  0
 13 12  2  0
 13 14  1  0
 16 13  1  0
 14 19  2  0
 20 14  1  0
 16 15  2  0
 15 20  1  0
 17 16  1  0
 21 17  1  1
 18 21  1  0
M  CHG  1  21   1
M  END
$$$$
