
     RDKit          3D

 23 26  0  0  0  0  0  0  0  0999 V2000
   14.5851   17.1030   21.2642 C   0  0  0  0  0  0  0  0  0  0  0  0
   21.4250   13.2172   22.7469 C   0  0  0  0  0  0  0  0  0  0  0  0
   21.1475   14.4633   20.7026 C   0  0  0  0  0  0  0  0  0  0  0  0
   20.0054   15.2042   21.3401 C   0  0  0  0  0  0  0  0  0  0  0  0
   21.3604   11.9514   20.5591 C   0  0  0  0  0  0  0  0  0  0  0  0
   21.4269   10.7290   21.1844 C   0  0  0  0  0  0  0  0  0  0  0  0
   21.4809    9.5589   20.4148 C   0  0  0  0  0  0  0  0  0  0  0  0
   21.4677    9.6213   19.0366 C   0  0  0  0  0  0  0  0  0  0  0  0
   21.4011   10.8417   18.3976 C   0  0  0  0  0  0  0  0  0  0  0  0
   21.3490   11.9819   19.1853 C   0  0  0  0  0  0  0  0  0  0  0  0
   14.6760   18.4638   21.1497 C   0  0  0  0  0  0  0  0  0  0  0  0
   15.6492   16.3847   21.7803 C   0  0  0  0  0  0  0  0  0  0  0  0
   16.7857   17.0663   22.1699 C   0  0  0  0  0  0  0  0  0  0  0  0
   16.8195   18.4305   22.0316 C   0  0  0  0  0  0  0  0  0  0  0  0
   18.7157   17.8694   22.8706 C   0  0  0  0  0  0  0  0  0  0  0  0
   18.0004   16.7126   22.7067 C   0  0  0  0  0  0  0  0  0  0  0  0
   18.4273   15.3392   23.0358 C   0  0  0  0  0  0  0  0  0  0  0  0
   20.2577   13.9144   23.3869 C   0  0  0  0  0  0  0  0  0  0  0  0
   15.7663   19.1196   21.5232 N   0  0  0  0  0  0  0  0  0  0  0  0
   17.9968   18.9168   22.4594 N   0  0  0  0  0  0  0  0  0  0  0  0
   19.8283   15.0958   22.7268 N   0  0  1  0  0  4  0  0  0  0  0  0
   21.3192   13.1477   21.3082 N   0  0  0  0  0  0  0  0  0  0  0  0
   21.5332    8.1790   18.0518 Cl  0  0  0  0  0  0  0  0  0  0  0  0
  1 11  2  0
 12  1  1  0
 18  2  1  1
  2 22  1  6
  4  3  1  1
  3 22  1  6
 21  4  1  0
  5  6  2  0
  5 10  1  0
 22  5  1  0
  6  7  1  0
  7  8  2  0
  9  8  1  0
  8 23  1  0
 10  9  2  0
 19 11  1  0
 13 12  2  0
 13 14  1  0
 16 13  1  0
 14 19  2  0
 20 14  1  0
 16 15  2  0
 15 20  1  0
 17 16  1  1
 21 17  1  6
 18 21  1  0
M  CHG  1  21   1
M  END
$$$$
