
     RDKit          3D

 23 26  0  0  0  0  0  0  0  0999 V2000
   27.7026   20.8240   50.1186 C   0  0  0  0  0  0  0  0  0  0  0  0
   33.1314   16.5923   52.6097 C   0  0  0  0  0  0  0  0  0  0  0  0
   32.6998   15.3838   50.5694 C   0  0  0  0  0  0  0  0  0  0  0  0
   31.3009   15.9342   50.5704 C   0  0  0  0  0  0  0  0  0  0  0  0
   33.7865   14.1533   52.4878 C   0  0  0  0  0  0  0  0  0  0  0  0
   34.1311   14.1043   53.8177 C   0  0  0  0  0  0  0  0  0  0  0  0
   34.6857   12.9313   54.3472 C   0  0  0  0  0  0  0  0  0  0  0  0
   34.8891   11.8253   53.5479 C   0  0  0  0  0  0  0  0  0  0  0  0
   34.5475   11.8619   52.2121 C   0  0  0  0  0  0  0  0  0  0  0  0
   34.0010   13.0363   51.7166 C   0  0  0  0  0  0  0  0  0  0  0  0
   27.0070   20.5890   48.9636 C   0  0  0  0  0  0  0  0  0  0  0  0
   28.3417   19.7779   50.7603 C   0  0  0  0  0  0  0  0  0  0  0  0
   28.2600   18.5121   50.2132 C   0  0  0  0  0  0  0  0  0  0  0  0
   27.5486   18.3369   49.0537 C   0  0  0  0  0  0  0  0  0  0  0  0
   28.3079   16.3991   49.5857 C   0  0  0  0  0  0  0  0  0  0  0  0
   28.7434   17.2702   50.5492 C   0  0  0  0  0  0  0  0  0  0  0  0
   29.5731   16.9616   51.7293 C   0  0  0  0  0  0  0  0  0  0  0  0
   31.7240   17.1170   52.6532 C   0  0  0  0  0  0  0  0  0  0  0  0
   26.9276   19.3746   48.4371 N   0  0  0  0  0  0  0  0  0  0  0  0
   27.5797   17.0483   48.6740 N   0  0  0  0  0  0  0  0  0  0  0  0
   30.9987   16.9925   51.4390 N   0  0  1  0  0  4  0  0  0  0  0  0
   33.2389   15.3260   51.9233 N   0  0  0  0  0  0  0  0  0  0  0  0
   35.5781   10.3492   54.1811 Cl  0  0  0  0  0  0  0  0  0  0  0  0
  1 11  2  0
 12  1  1  0
 18  2  1  1
  2 22  1  6
  4  3  1  1
  3 22  1  6
 21  4  1  0
  5  6  2  0
  5 10  1  0
 22  5  1  0
  6  7  1  0
  7  8  2  0
  9  8  1  0
  8 23  1  0
 10  9  2  0
 19 11  1  0
 13 12  2  0
 13 14  1  0
 16 13  1  0
 14 19  2  0
 20 14  1  0
 16 15  2  0
 15 20  1  0
 17 16  1  1
 21 17  1  1
 18 21  1  0
M  CHG  1  21   1
M  END
$$$$
