
     RDKit          3D

 23 26  0  0  0  0  0  0  0  0999 V2000
   28.2033   18.6375   48.0398 C   0  0  0  0  0  0  0  0  0  0  0  0
   31.9393   15.3043   54.2443 C   0  0  0  0  0  0  0  0  0  0  0  0
   33.4274   14.8371   52.3590 C   0  0  0  0  0  0  0  0  0  0  0  0
   32.2197   15.3209   51.6170 C   0  0  0  0  0  0  0  0  0  0  0  0
   34.2487   14.3531   54.6469 C   0  0  0  0  0  0  0  0  0  0  0  0
   35.3310   13.6540   54.1413 C   0  0  0  0  0  0  0  0  0  0  0  0
   36.3631   13.2010   54.9500 C   0  0  0  0  0  0  0  0  0  0  0  0
   36.2842   13.4685   56.2976 C   0  0  0  0  0  0  0  0  0  0  0  0
   35.2041   14.1717   56.8346 C   0  0  0  0  0  0  0  0  0  0  0  0
   34.2062   14.5992   55.9914 C   0  0  0  0  0  0  0  0  0  0  0  0
   27.9610   19.9693   48.2958 C   0  0  0  0  0  0  0  0  0  0  0  0
   28.8547   17.9348   49.0392 C   0  0  0  0  0  0  0  0  0  0  0  0
   29.2432   18.5361   50.2346 C   0  0  0  0  0  0  0  0  0  0  0  0
   28.9715   19.8787   50.4318 C   0  0  0  0  0  0  0  0  0  0  0  0
   30.0184   19.1231   52.2351 C   0  0  0  0  0  0  0  0  0  0  0  0
   29.8951   18.0725   51.3612 C   0  0  0  0  0  0  0  0  0  0  0  0
   30.3300   16.6659   51.4978 C   0  0  0  0  0  0  0  0  0  0  0  0
   31.5693   16.6029   53.5603 C   0  0  0  0  0  0  0  0  0  0  0  0
   28.3396   20.5480   49.4546 N   0  0  0  0  0  0  0  0  0  0  0  0
   29.4506   20.2048   51.6489 N   0  0  0  0  0  0  0  0  0  0  0  0
   31.6167   16.5148   52.1389 N   0  0  1  0  0  4  0  0  0  0  0  0
   33.2077   14.8243   53.8134 N   0  0  0  0  0  0  0  0  0  0  0  0
   37.5990   12.8907   57.3006 Cl  0  0  0  0  0  0  0  0  0  0  0  0
  1 11  2  0
 12  1  1  0
  2 18  1  0
 22  2  1  0
  4  3  1  0
  3 22  1  0
 21  4  1  0
  5  6  2  0
  5 10  1  0
 22  5  1  0
  6  7  1  0
  7  8  2  0
  9  8  1  0
  8 23  1  0
 10  9  2  0
 19 11  1  0
 13 12  2  0
 13 14  1  0
 16 13  1  0
 14 19  2  0
 20 14  1  0
 16 15  2  0
 15 20  1  0
 17 16  1  0
 21 17  1  6
 18 21  1  0
M  CHG  1  21   1
M  END
$$$$
