
     RDKit          3D

 23 26  0  0  0  0  0  0  0  0999 V2000
   15.5778   20.0128   21.2803 C   0  0  0  0  0  0  0  0  0  0  0  0
   19.9026   13.5453   23.1964 C   0  0  0  0  0  0  0  0  0  0  0  0
   21.8100   15.0160   23.1042 C   0  0  0  0  0  0  0  0  0  0  0  0
   20.8891   16.1438   22.7300 C   0  0  0  0  0  0  0  0  0  0  0  0
   21.9503   12.7906   21.9196 C   0  0  0  0  0  0  0  0  0  0  0  0
   23.2981   12.9303   21.6879 C   0  0  0  0  0  0  0  0  0  0  0  0
   23.9655   11.9901   20.8912 C   0  0  0  0  0  0  0  0  0  0  0  0
   23.2839   10.9260   20.3374 C   0  0  0  0  0  0  0  0  0  0  0  0
   21.9316   10.7749   20.5626 C   0  0  0  0  0  0  0  0  0  0  0  0
   21.2985   11.7209   21.3547 C   0  0  0  0  0  0  0  0  0  0  0  0
   14.3438   19.5393   21.6356 C   0  0  0  0  0  0  0  0  0  0  0  0
   16.6893   19.1992   21.4114 C   0  0  0  0  0  0  0  0  0  0  0  0
   16.5227   17.9187   21.9020 C   0  0  0  0  0  0  0  0  0  0  0  0
   15.2619   17.4989   22.2418 C   0  0  0  0  0  0  0  0  0  0  0  0
   16.5707   15.8451   22.6496 C   0  0  0  0  0  0  0  0  0  0  0  0
   17.3558   16.8577   22.1646 C   0  0  0  0  0  0  0  0  0  0  0  0
   18.8158   16.8389   21.9539 C   0  0  0  0  0  0  0  0  0  0  0  0
   18.9713   14.6484   22.7795 C   0  0  0  0  0  0  0  0  0  0  0  0
   14.1821   18.3105   22.1067 N   0  0  0  0  0  0  0  0  0  0  0  0
   15.2945   16.2351   22.6969 N   0  0  0  0  0  0  0  0  0  0  0  0
   19.5077   15.9589   22.8836 N   0  0  1  0  0  4  0  0  0  0  0  0
   21.2487   13.7300   22.7066 N   0  0  0  0  0  0  0  0  0  0  0  0
   24.0902    9.7382   19.3407 Cl  0  0  0  0  0  0  0  0  0  0  0  0
  1 11  2  0
 12  1  1  0
 18  2  1  1
  2 22  1  6
  4  3  1  1
  3 22  1  6
 21  4  1  0
  5  6  2  0
  5 10  1  0
 22  5  1  0
  6  7  1  0
  7  8  2  0
  9  8  1  0
  8 23  1  0
 10  9  2  0
 19 11  1  0
 13 12  2  0
 13 14  1  0
 16 13  1  0
 14 19  2  0
 20 14  1  0
 16 15  2  0
 15 20  1  0
 17 16  1  1
 21 17  1  6
 18 21  1  0
M  CHG  1  21   1
M  END
$$$$
