
     RDKit          3D

 23 26  0  0  0  0  0  0  0  0999 V2000
   15.2803   19.8578   22.0271 C   0  0  0  0  0  0  0  0  0  0  0  0
   22.2259   16.3440   23.0902 C   0  0  0  0  0  0  0  0  0  0  0  0
   20.9586   14.2525   23.0095 C   0  0  0  0  0  0  0  0  0  0  0  0
   19.8311   15.2365   22.9496 C   0  0  0  0  0  0  0  0  0  0  0  0
   23.4249   14.1199   23.2173 C   0  0  0  0  0  0  0  0  0  0  0  0
   24.6923   14.6370   23.0117 C   0  0  0  0  0  0  0  0  0  0  0  0
   25.8363   13.8608   23.1268 C   0  0  0  0  0  0  0  0  0  0  0  0
   25.6785   12.5343   23.4574 C   0  0  0  0  0  0  0  0  0  0  0  0
   24.4120   11.9865   23.6705 C   0  0  0  0  0  0  0  0  0  0  0  0
   23.3092   12.7972   23.5441 C   0  0  0  0  0  0  0  0  0  0  0  0
   14.2344   19.1574   21.4672 C   0  0  0  0  0  0  0  0  0  0  0  0
   16.4718   19.1662   22.1631 C   0  0  0  0  0  0  0  0  0  0  0  0
   16.6086   17.8400   21.7580 C   0  0  0  0  0  0  0  0  0  0  0  0
   15.5201   17.1904   21.2027 C   0  0  0  0  0  0  0  0  0  0  0  0
   17.2138   15.7596   21.2549 C   0  0  0  0  0  0  0  0  0  0  0  0
   17.6592   16.9431   21.7875 C   0  0  0  0  0  0  0  0  0  0  0  0
   18.9920   17.3069   22.3143 C   0  0  0  0  0  0  0  0  0  0  0  0
   21.3345   16.8636   21.9827 C   0  0  0  0  0  0  0  0  0  0  0  0
   14.3709   17.8728   21.0769 N   0  0  0  0  0  0  0  0  0  0  0  0
   15.9159   15.9360   20.9081 N   0  0  0  0  0  0  0  0  0  0  0  0
   20.0159   16.3260   22.0331 N   0  0  1  0  0  4  0  0  0  0  0  0
   22.2645   14.9216   23.1123 N   0  0  0  0  0  0  0  0  0  0  0  0
   27.1355   11.5725   23.6009 Cl  0  0  0  0  0  0  0  0  0  0  0  0
  1 11  2  0
 12  1  1  0
  2 18  1  0
 22  2  1  0
  4  3  1  0
  3 22  1  0
 21  4  1  0
  5  6  2  0
  5 10  1  0
 22  5  1  0
  6  7  1  0
  7  8  2  0
  9  8  1  0
  8 23  1  0
 10  9  2  0
 19 11  1  0
 13 12  2  0
 13 14  1  0
 16 13  1  0
 14 19  2  0
 20 14  1  0
 16 15  2  0
 15 20  1  0
 17 16  1  0
 21 17  1  1
 18 21  1  0
M  CHG  1  21   1
M  END
$$$$
