
     RDKit          3D

 23 26  0  0  0  0  0  0  0  0999 V2000
   21.4957   10.9003   19.1374 C   0  0  0  0  0  0  0  0  0  0  0  0
   20.0657   17.8739   22.5876 C   0  0  0  0  0  0  0  0  0  0  0  0
   18.9152   15.8231   23.1165 C   0  0  0  0  0  0  0  0  0  0  0  0
   20.0263   15.0592   22.4518 C   0  0  0  0  0  0  0  0  0  0  0  0
   17.5988   17.7014   22.0608 C   0  0  0  0  0  0  0  0  0  0  0  0
   16.4144   17.0166   22.1947 C   0  0  0  0  0  0  0  0  0  0  0  0
   15.2350   17.5628   21.6707 C   0  0  0  0  0  0  0  0  0  0  0  0
   15.2502   18.7806   21.0223 C   0  0  0  0  0  0  0  0  0  0  0  0
   16.4322   19.4773   20.8816 C   0  0  0  0  0  0  0  0  0  0  0  0
   17.5829   18.9116   21.4101 C   0  0  0  0  0  0  0  0  0  0  0  0
   22.1724    9.9642   19.8715 C   0  0  0  0  0  0  0  0  0  0  0  0
   21.4873   12.2213   19.5492 C   0  0  0  0  0  0  0  0  0  0  0  0
   22.1686   12.5636   20.7010 C   0  0  0  0  0  0  0  0  0  0  0  0
   22.8291   11.5826   21.3958 C   0  0  0  0  0  0  0  0  0  0  0  0
   23.1564   13.4061   22.4830 C   0  0  0  0  0  0  0  0  0  0  0  0
   22.3810   13.7275   21.4003 C   0  0  0  0  0  0  0  0  0  0  0  0
   21.8615   15.0583   21.0319 C   0  0  0  0  0  0  0  0  0  0  0  0
   21.1637   17.1317   21.8793 C   0  0  0  0  0  0  0  0  0  0  0  0
   22.8268   10.2912   20.9774 N   0  0  0  0  0  0  0  0  0  0  0  0
   23.4299   12.0991   22.4810 N   0  0  0  0  0  0  0  0  0  0  0  0
   21.2141   15.7377   22.1441 N   0  0  1  0  0  4  0  0  0  0  0  0
   18.8052   17.1692   22.5662 N   0  0  0  0  0  0  0  0  0  0  0  0
   13.7951   19.4861   20.3598 Cl  0  0  0  0  0  0  0  0  0  0  0  0
  1 11  2  0
 12  1  1  0
 18  2  1  1
  2 22  1  6
  4  3  1  1
  3 22  1  6
 21  4  1  0
  5  6  2  0
  5 10  1  0
 22  5  1  0
  6  7  1  0
  7  8  2  0
  9  8  1  0
  8 23  1  0
 10  9  2  0
 19 11  1  0
 13 12  2  0
 13 14  1  0
 16 13  1  0
 14 19  2  0
 20 14  1  0
 16 15  2  0
 15 20  1  0
 17 16  1  1
 21 17  1  6
 18 21  1  0
M  CHG  1  21   1
M  END
$$$$
