
     RDKit          3D

 23 26  0  0  0  0  0  0  0  0999 V2000
   27.5936   21.0962   50.7762 C   0  0  0  0  0  0  0  0  0  0  0  0
   33.0071   15.4102   51.3211 C   0  0  0  0  0  0  0  0  0  0  0  0
   32.8527   15.7859   53.7340 C   0  0  0  0  0  0  0  0  0  0  0  0
   32.1614   17.0189   53.2391 C   0  0  0  0  0  0  0  0  0  0  0  0
   34.0329   13.7569   52.9380 C   0  0  0  0  0  0  0  0  0  0  0  0
   34.3569   12.8220   51.9701 C   0  0  0  0  0  0  0  0  0  0  0  0
   35.0640   11.6655   52.2649 C   0  0  0  0  0  0  0  0  0  0  0  0
   35.4445   11.4642   53.5721 C   0  0  0  0  0  0  0  0  0  0  0  0
   35.1312   12.3907   54.5686 C   0  0  0  0  0  0  0  0  0  0  0  0
   34.4285   13.5212   54.2257 C   0  0  0  0  0  0  0  0  0  0  0  0
   26.8138   20.6906   49.7154 C   0  0  0  0  0  0  0  0  0  0  0  0
   28.6265   20.2457   51.1318 C   0  0  0  0  0  0  0  0  0  0  0  0
   28.8661   19.0497   50.4582 C   0  0  0  0  0  0  0  0  0  0  0  0
   28.0466   18.6975   49.4002 C   0  0  0  0  0  0  0  0  0  0  0  0
   29.5546   17.0918   49.6581 C   0  0  0  0  0  0  0  0  0  0  0  0
   29.8024   18.0454   50.6131 C   0  0  0  0  0  0  0  0  0  0  0  0
   30.8507   18.0983   51.6544 C   0  0  0  0  0  0  0  0  0  0  0  0
   31.5596   15.8402   51.2164 C   0  0  0  0  0  0  0  0  0  0  0  0
   27.0488   19.5312   49.0662 N   0  0  0  0  0  0  0  0  0  0  0  0
   28.4870   17.5109   48.9365 N   0  0  0  0  0  0  0  0  0  0  0  0
   31.1944   16.8044   52.1998 N   0  0  1  0  0  4  0  0  0  0  0  0
   33.3245   14.9406   52.6265 N   0  0  0  0  0  0  0  0  0  0  0  0
   36.3391    9.9995   53.9226 Cl  0  0  0  0  0  0  0  0  0  0  0  0
  1 11  2  0
 12  1  1  0
  2 18  1  0
 22  2  1  0
  4  3  1  0
  3 22  1  0
 21  4  1  0
  5  6  2  0
  5 10  1  0
 22  5  1  0
  6  7  1  0
  7  8  2  0
  9  8  1  0
  8 23  1  0
 10  9  2  0
 19 11  1  0
 13 12  2  0
 13 14  1  0
 16 13  1  0
 14 19  2  0
 20 14  1  0
 16 15  2  0
 15 20  1  0
 17 16  1  0
 21 17  1  6
 18 21  1  0
M  CHG  1  21   1
M  END
$$$$
