
     RDKit          3D

 23 26  0  0  0  0  0  0  0  0999 V2000
   27.5285   18.1026   48.3620 C   0  0  0  0  0  0  0  0  0  0  0  0
   32.8992   16.1215   53.9185 C   0  0  0  0  0  0  0  0  0  0  0  0
   33.4332   16.5835   51.6140 C   0  0  0  0  0  0  0  0  0  0  0  0
   32.0613   17.1735   51.4418 C   0  0  0  0  0  0  0  0  0  0  0  0
   33.9292   14.2811   52.5241 C   0  0  0  0  0  0  0  0  0  0  0  0
   34.0979   13.7427   51.2705 C   0  0  0  0  0  0  0  0  0  0  0  0
   34.5655   12.4283   51.1379 C   0  0  0  0  0  0  0  0  0  0  0  0
   34.8585   11.6693   52.2522 C   0  0  0  0  0  0  0  0  0  0  0  0
   34.6936   12.1981   53.5152 C   0  0  0  0  0  0  0  0  0  0  0  0
   34.2292   13.5011   53.6150 C   0  0  0  0  0  0  0  0  0  0  0  0
   27.3818   19.4391   48.1060 C   0  0  0  0  0  0  0  0  0  0  0  0
   28.2164   17.6909   49.4897 C   0  0  0  0  0  0  0  0  0  0  0  0
   28.7419   18.6484   50.3353 C   0  0  0  0  0  0  0  0  0  0  0  0
   28.5634   19.9731   50.0275 C   0  0  0  0  0  0  0  0  0  0  0  0
   29.6857   19.9328   51.8588 C   0  0  0  0  0  0  0  0  0  0  0  0
   29.4600   18.6281   51.5070 C   0  0  0  0  0  0  0  0  0  0  0  0
   29.8921   17.4163   52.2290 C   0  0  0  0  0  0  0  0  0  0  0  0
   31.5080   16.6658   53.7554 C   0  0  0  0  0  0  0  0  0  0  0  0
   27.8856   20.3595   48.9167 N   0  0  0  0  0  0  0  0  0  0  0  0
   29.1396   20.7530   50.9577 N   0  0  0  0  0  0  0  0  0  0  0  0
   31.3020   17.4475   52.5882 N   0  0  1  0  0  4  0  0  0  0  0  0
   33.4463   15.5977   52.6888 N   0  0  0  0  0  0  0  0  0  0  0  0
   35.4438   10.0281   52.1170 Cl  0  0  0  0  0  0  0  0  0  0  0  0
  1 11  2  0
 12  1  1  0
 18  2  1  1
  2 22  1  6
  4  3  1  1
  3 22  1  6
 21  4  1  0
  5  6  2  0
  5 10  1  0
 22  5  1  0
  6  7  1  0
  7  8  2  0
  9  8  1  0
  8 23  1  0
 10  9  2  0
 19 11  1  0
 13 12  2  0
 13 14  1  0
 16 13  1  0
 14 19  2  0
 20 14  1  0
 16 15  2  0
 15 20  1  0
 17 16  1  1
 21 17  1  6
 18 21  1  0
M  CHG  1  21   1
M  END
$$$$
