
     RDKit          3D

 23 26  0  0  0  0  0  0  0  0999 V2000
   16.4671   20.0275   21.6393 C   0  0  0  0  0  0  0  0  0  0  0  0
   19.7018   13.7398   22.9066 C   0  0  0  0  0  0  0  0  0  0  0  0
   17.8602   14.2828   21.3898 C   0  0  0  0  0  0  0  0  0  0  0  0
   18.2419   15.6619   21.8316 C   0  0  0  0  0  0  0  0  0  0  0  0
   18.4168   11.8942   21.7479 C   0  0  0  0  0  0  0  0  0  0  0  0
   19.3387   10.8944   22.0057 C   0  0  0  0  0  0  0  0  0  0  0  0
   19.0765    9.5586   21.7384 C   0  0  0  0  0  0  0  0  0  0  0  0
   17.8507    9.2431   21.1983 C   0  0  0  0  0  0  0  0  0  0  0  0
   16.9020   10.2313   20.9283 C   0  0  0  0  0  0  0  0  0  0  0  0
   17.2098   11.5408   21.2109 C   0  0  0  0  0  0  0  0  0  0  0  0
   16.8711   21.0274   20.7820 C   0  0  0  0  0  0  0  0  0  0  0  0
   17.4309   19.0950   21.9831 C   0  0  0  0  0  0  0  0  0  0  0  0
   18.7335   19.1613   21.4930 C   0  0  0  0  0  0  0  0  0  0  0  0
   19.0778   20.1904   20.6342 C   0  0  0  0  0  0  0  0  0  0  0  0
   20.8713   18.9194   20.9282 C   0  0  0  0  0  0  0  0  0  0  0  0
   19.8549   18.3740   21.6713 C   0  0  0  0  0  0  0  0  0  0  0  0
   19.8495   17.1798   22.5431 C   0  0  0  0  0  0  0  0  0  0  0  0
   20.4829   14.8730   22.2766 C   0  0  0  0  0  0  0  0  0  0  0  0
   18.1334   21.0876   20.3091 N   0  0  0  0  0  0  0  0  0  0  0  0
   20.3749   20.0186   20.3105 N   0  0  0  0  0  0  0  0  0  0  0  0
   19.6506   15.9391   21.8284 N   0  0  1  0  0  4  0  0  0  0  0  0
   18.6863   13.2521   22.0370 N   0  0  0  0  0  0  0  0  0  0  0  0
   17.5385    7.5507   20.8713 Cl  0  0  0  0  0  0  0  0  0  0  0  0
  1 11  2  0
 12  1  1  0
  2 18  1  0
 22  2  1  0
  4  3  1  0
  3 22  1  0
 21  4  1  0
  5  6  2  0
  5 10  1  0
 22  5  1  0
  6  7  1  0
  7  8  2  0
  9  8  1  0
  8 23  1  0
 10  9  2  0
 19 11  1  0
 13 12  2  0
 13 14  1  0
 16 13  1  0
 14 19  2  0
 20 14  1  0
 16 15  2  0
 15 20  1  0
 17 16  1  0
 21 17  1  1
 18 21  1  0
M  CHG  1  21   1
M  END
$$$$
