
     RDKit          3D

 23 26  0  0  0  0  0  0  0  0999 V2000
   15.5745   20.1331   21.5027 C   0  0  0  0  0  0  0  0  0  0  0  0
   21.9838   15.6238   22.5319 C   0  0  0  0  0  0  0  0  0  0  0  0
   20.4175   13.9232   21.7310 C   0  0  0  0  0  0  0  0  0  0  0  0
   19.4498   14.9968   22.1231 C   0  0  0  0  0  0  0  0  0  0  0  0
   22.8368   13.3845   21.7205 C   0  0  0  0  0  0  0  0  0  0  0  0
   22.5612   12.0929   21.3062 C   0  0  0  0  0  0  0  0  0  0  0  0
   23.5634   11.1796   21.0132 C   0  0  0  0  0  0  0  0  0  0  0  0
   24.8679   11.5966   21.1475 C   0  0  0  0  0  0  0  0  0  0  0  0
   25.1747   12.8937   21.5634 C   0  0  0  0  0  0  0  0  0  0  0  0
   24.1457   13.7614   21.8420 C   0  0  0  0  0  0  0  0  0  0  0  0
   14.3661   19.4796   21.3997 C   0  0  0  0  0  0  0  0  0  0  0  0
   16.6748   19.3378   21.7737 C   0  0  0  0  0  0  0  0  0  0  0  0
   16.5696   17.9575   21.9329 C   0  0  0  0  0  0  0  0  0  0  0  0
   15.3268   17.3597   21.8181 C   0  0  0  0  0  0  0  0  0  0  0  0
   16.8095   15.7702   22.2584 C   0  0  0  0  0  0  0  0  0  0  0  0
   17.4877   16.9620   22.2072 C   0  0  0  0  0  0  0  0  0  0  0  0
   18.9280   17.2448   22.3852 C   0  0  0  0  0  0  0  0  0  0  0  0
   21.1767   16.6500   21.7661 C   0  0  0  0  0  0  0  0  0  0  0  0
   14.2684   18.1428   21.5553 N   0  0  0  0  0  0  0  0  0  0  0  0
   15.5030   16.0385   22.0188 N   0  0  0  0  0  0  0  0  0  0  0  0
   19.7927   16.3209   21.6864 N   0  0  1  0  0  4  0  0  0  0  0  0
   21.8092   14.3142   22.0031 N   0  0  0  0  0  0  0  0  0  0  0  0
   26.1181   10.4292   20.7696 Cl  0  0  0  0  0  0  0  0  0  0  0  0
  1 11  2  0
 12  1  1  0
  2 18  1  0
 22  2  1  0
  4  3  1  0
  3 22  1  0
 21  4  1  0
  5  6  2  0
  5 10  1  0
 22  5  1  0
  6  7  1  0
  7  8  2  0
  9  8  1  0
  8 23  1  0
 10  9  2  0
 19 11  1  0
 13 12  2  0
 13 14  1  0
 16 13  1  0
 14 19  2  0
 20 14  1  0
 16 15  2  0
 15 20  1  0
 17 16  1  0
 21 17  1  1
 18 21  1  0
M  CHG  1  21   1
M  END
$$$$
