
     RDKit          3D

 23 26  0  0  0  0  0  0  0  0999 V2000
   14.5445   17.3760   20.6927 C   0  0  0  0  0  0  0  0  0  0  0  0
   21.4396   13.5236   22.9093 C   0  0  0  0  0  0  0  0  0  0  0  0
   21.4988   14.5769   20.7422 C   0  0  0  0  0  0  0  0  0  0  0  0
   20.2044   15.2669   21.0713 C   0  0  0  0  0  0  0  0  0  0  0  0
   21.9037   12.0885   20.8801 C   0  0  0  0  0  0  0  0  0  0  0  0
   21.7119   10.9104   21.5621 C   0  0  0  0  0  0  0  0  0  0  0  0
   22.0035    9.6913   20.9353 C   0  0  0  0  0  0  0  0  0  0  0  0
   22.4806    9.6613   19.6411 C   0  0  0  0  0  0  0  0  0  0  0  0
   22.6772   10.8364   18.9464 C   0  0  0  0  0  0  0  0  0  0  0  0
   22.3801   12.0270   19.5926 C   0  0  0  0  0  0  0  0  0  0  0  0
   14.6190   18.7395   20.7847 C   0  0  0  0  0  0  0  0  0  0  0  0
   15.5899   16.5982   21.1582 C   0  0  0  0  0  0  0  0  0  0  0  0
   16.6913   17.2241   21.7088 C   0  0  0  0  0  0  0  0  0  0  0  0
   16.7101   18.5941   21.7745 C   0  0  0  0  0  0  0  0  0  0  0  0
   18.5654   17.9310   22.6303 C   0  0  0  0  0  0  0  0  0  0  0  0
   17.8798   16.8051   22.2572 C   0  0  0  0  0  0  0  0  0  0  0  0
   18.3105   15.4018   22.4050 C   0  0  0  0  0  0  0  0  0  0  0  0
   20.1231   14.1683   23.2400 C   0  0  0  0  0  0  0  0  0  0  0  0
   15.6755   19.3419   21.3129 N   0  0  0  0  0  0  0  0  0  0  0  0
   17.8532   19.0216   22.3365 N   0  0  0  0  0  0  0  0  0  0  0  0
   19.7581   15.2536   22.4004 N   0  0  1  0  0  4  0  0  0  0  0  0
   21.6319   13.3323   21.4907 N   0  0  0  0  0  0  0  0  0  0  0  0
   22.8519    8.1561   18.8343 Cl  0  0  0  0  0  0  0  0  0  0  0  0
  1 11  2  0
 12  1  1  0
 18  2  1  1
  2 22  1  6
  4  3  1  1
  3 22  1  6
 21  4  1  0
  5  6  2  0
  5 10  1  0
 22  5  1  0
  6  7  1  0
  7  8  2  0
  9  8  1  0
  8 23  1  0
 10  9  2  0
 19 11  1  0
 13 12  2  0
 13 14  1  0
 16 13  1  0
 14 19  2  0
 20 14  1  0
 16 15  2  0
 15 20  1  0
 17 16  1  1
 21 17  1  6
 18 21  1  0
M  CHG  1  21   1
M  END
$$$$
