
     RDKit          3D

 23 26  0  0  0  0  0  0  0  0999 V2000
   15.5568   18.4906   20.2663 C   0  0  0  0  0  0  0  0  0  0  0  0
   20.1526   13.1698   22.8160 C   0  0  0  0  0  0  0  0  0  0  0  0
   22.1841   14.2914   22.1645 C   0  0  0  0  0  0  0  0  0  0  0  0
   21.4225   15.5866   22.1165 C   0  0  0  0  0  0  0  0  0  0  0  0
   21.5396   12.1723   20.9522 C   0  0  0  0  0  0  0  0  0  0  0  0
   20.8403   10.9888   20.9503 C   0  0  0  0  0  0  0  0  0  0  0  0
   21.1116   10.0250   19.9697 C   0  0  0  0  0  0  0  0  0  0  0  0
   22.0729   10.2518   19.0063 C   0  0  0  0  0  0  0  0  0  0  0  0
   22.7811   11.4352   18.9976 C   0  0  0  0  0  0  0  0  0  0  0  0
   22.4909   12.3697   19.9803 C   0  0  0  0  0  0  0  0  0  0  0  0
   14.4869   18.2844   21.0946 C   0  0  0  0  0  0  0  0  0  0  0  0
   16.8061   18.0181   20.6276 C   0  0  0  0  0  0  0  0  0  0  0  0
   16.9419   17.3444   21.8259 C   0  0  0  0  0  0  0  0  0  0  0  0
   15.8340   17.1676   22.6151 C   0  0  0  0  0  0  0  0  0  0  0  0
   17.4655   16.2421   23.6621 C   0  0  0  0  0  0  0  0  0  0  0  0
   17.9822   16.7509   22.4998 C   0  0  0  0  0  0  0  0  0  0  0  0
   19.3813   16.6869   22.0360 C   0  0  0  0  0  0  0  0  0  0  0  0
   19.3637   14.4460   22.7302 C   0  0  0  0  0  0  0  0  0  0  0  0
   14.6156   17.6379   22.2452 N   0  0  0  0  0  0  0  0  0  0  0  0
   16.1564   16.4957   23.7331 N   0  0  0  0  0  0  0  0  0  0  0  0
   20.1429   15.6321   22.6878 N   0  0  1  0  0  4  0  0  0  0  0  0
   21.2977   13.1559   21.9360 N   0  0  0  0  0  0  0  0  0  0  0  0
   22.4317    9.0686   17.7712 Cl  0  0  0  0  0  0  0  0  0  0  0  0
  1 11  2  0
 12  1  1  0
 18  2  1  1
  2 22  1  6
  4  3  1  1
  3 22  1  6
 21  4  1  0
  5  6  2  0
  5 10  1  0
 22  5  1  0
  6  7  1  0
  7  8  2  0
  9  8  1  0
  8 23  1  0
 10  9  2  0
 19 11  1  0
 13 12  2  0
 13 14  1  0
 16 13  1  0
 14 19  2  0
 20 14  1  0
 16 15  2  0
 15 20  1  0
 17 16  1  1
 21 17  1  6
 18 21  1  0
M  CHG  1  21   1
M  END
$$$$
