
     RDKit          3D

 23 26  0  0  0  0  0  0  0  0999 V2000
   15.5543   19.5714   21.3200 C   0  0  0  0  0  0  0  0  0  0  0  0
   22.1334   16.5222   21.7809 C   0  0  0  0  0  0  0  0  0  0  0  0
   20.9966   14.4304   21.4052 C   0  0  0  0  0  0  0  0  0  0  0  0
   19.7328   15.0532   21.9295 C   0  0  0  0  0  0  0  0  0  0  0  0
   23.2152   14.3927   22.6100 C   0  0  0  0  0  0  0  0  0  0  0  0
   24.2325   15.0701   23.2392 C   0  0  0  0  0  0  0  0  0  0  0  0
   25.2614   14.3517   23.8634 C   0  0  0  0  0  0  0  0  0  0  0  0
   25.2635   12.9720   23.8532 C   0  0  0  0  0  0  0  0  0  0  0  0
   24.2483   12.2810   23.2253 C   0  0  0  0  0  0  0  0  0  0  0  0
   23.2444   13.0188   22.6163 C   0  0  0  0  0  0  0  0  0  0  0  0
   14.3924   18.8990   21.0534 C   0  0  0  0  0  0  0  0  0  0  0  0
   16.6297   18.8939   21.8668 C   0  0  0  0  0  0  0  0  0  0  0  0
   16.5012   17.5443   22.1316 C   0  0  0  0  0  0  0  0  0  0  0  0
   15.3125   16.9235   21.8434 C   0  0  0  0  0  0  0  0  0  0  0  0
   16.5950   15.4057   22.6596 C   0  0  0  0  0  0  0  0  0  0  0  0
   17.3177   16.5696   22.6532 C   0  0  0  0  0  0  0  0  0  0  0  0
   18.7063   16.7662   23.1109 C   0  0  0  0  0  0  0  0  0  0  0  0
   20.8922   17.1497   22.3500 C   0  0  0  0  0  0  0  0  0  0  0  0
   14.2673   17.6036   21.3070 N   0  0  0  0  0  0  0  0  0  0  0  0
   15.3729   15.6206   22.1662 N   0  0  0  0  0  0  0  0  0  0  0  0
   19.6878   16.4459   22.0854 N   0  0  1  0  0  4  0  0  0  0  0  0
   22.1729   15.0897   21.9607 N   0  0  0  0  0  0  0  0  0  0  0  0
   26.5327   12.0503   24.6238 Cl  0  0  0  0  0  0  0  0  0  0  0  0
  1 11  2  0
 12  1  1  0
 18  2  1  1
  2 22  1  6
  4  3  1  1
  3 22  1  6
 21  4  1  0
  5  6  2  0
  5 10  1  0
 22  5  1  0
  6  7  1  0
  7  8  2  0
  9  8  1  0
  8 23  1  0
 10  9  2  0
 19 11  1  0
 13 12  2  0
 13 14  1  0
 16 13  1  0
 14 19  2  0
 20 14  1  0
 16 15  2  0
 15 20  1  0
 17 16  1  1
 21 17  1  1
 18 21  1  0
M  CHG  1  21   1
M  END
$$$$
