
     RDKit          3D

 23 26  0  0  0  0  0  0  0  0999 V2000
   27.4510   21.0347   50.4014 C   0  0  0  0  0  0  0  0  0  0  0  0
   33.0136   16.5319   53.6288 C   0  0  0  0  0  0  0  0  0  0  0  0
   32.0051   14.7379   52.3053 C   0  0  0  0  0  0  0  0  0  0  0  0
   31.0683   15.8580   51.9725 C   0  0  0  0  0  0  0  0  0  0  0  0
   33.9901   14.1989   53.6884 C   0  0  0  0  0  0  0  0  0  0  0  0
   33.9374   12.8807   53.2693 C   0  0  0  0  0  0  0  0  0  0  0  0
   34.8628   11.9343   53.6844 C   0  0  0  0  0  0  0  0  0  0  0  0
   35.8571   12.3453   54.5424 C   0  0  0  0  0  0  0  0  0  0  0  0
   35.9342   13.6687   54.9809 C   0  0  0  0  0  0  0  0  0  0  0  0
   34.9931   14.5688   54.5411 C   0  0  0  0  0  0  0  0  0  0  0  0
   26.8859   20.6736   49.1980 C   0  0  0  0  0  0  0  0  0  0  0  0
   28.4526   20.2051   50.8761 C   0  0  0  0  0  0  0  0  0  0  0  0
   28.8673   19.0716   50.1799 C   0  0  0  0  0  0  0  0  0  0  0  0
   28.2597   18.7617   48.9758 C   0  0  0  0  0  0  0  0  0  0  0  0
   29.7860   17.2067   49.3890 C   0  0  0  0  0  0  0  0  0  0  0  0
   29.8162   18.0991   50.4308 C   0  0  0  0  0  0  0  0  0  0  0  0
   30.6678   18.1214   51.6393 C   0  0  0  0  0  0  0  0  0  0  0  0
   32.8364   17.4410   52.4316 C   0  0  0  0  0  0  0  0  0  0  0  0
   27.2898   19.5745   48.5273 N   0  0  0  0  0  0  0  0  0  0  0  0
   28.8357   17.6310   48.5213 N   0  0  0  0  0  0  0  0  0  0  0  0
   31.6970   17.1064   51.6442 N   0  0  1  0  0  4  0  0  0  0  0  0
   33.0513   15.1610   53.2489 N   0  0  0  0  0  0  0  0  0  0  0  0
   37.0172   11.1357   55.0519 Cl  0  0  0  0  0  0  0  0  0  0  0  0
  1 11  2  0
 12  1  1  0
  2 18  1  0
 22  2  1  0
  4  3  1  0
  3 22  1  0
 21  4  1  0
  5  6  2  0
  5 10  1  0
 22  5  1  0
  6  7  1  0
  7  8  2  0
  9  8  1  0
  8 23  1  0
 10  9  2  0
 19 11  1  0
 13 12  2  0
 13 14  1  0
 16 13  1  0
 14 19  2  0
 20 14  1  0
 16 15  2  0
 15 20  1  0
 17 16  1  0
 21 17  1  1
 18 21  1  0
M  CHG  1  21   1
M  END
$$$$
