
     RDKit          3D

 23 26  0  0  0  0  0  0  0  0999 V2000
   15.8074   20.2407   22.7212 C   0  0  0  0  0  0  0  0  0  0  0  0
   21.3604   14.7973   21.7202 C   0  0  0  0  0  0  0  0  0  0  0  0
   19.4707   13.2433   21.6835 C   0  0  0  0  0  0  0  0  0  0  0  0
   18.7397   14.5283   21.9231 C   0  0  0  0  0  0  0  0  0  0  0  0
   21.7542   12.3164   21.4196 C   0  0  0  0  0  0  0  0  0  0  0  0
   21.2690   11.0259   21.5418 C   0  0  0  0  0  0  0  0  0  0  0  0
   22.0720    9.9114   21.3480 C   0  0  0  0  0  0  0  0  0  0  0  0
   23.3926   10.1232   21.0243 C   0  0  0  0  0  0  0  0  0  0  0  0
   23.9087   11.4141   20.8944 C   0  0  0  0  0  0  0  0  0  0  0  0
   23.0722   12.4859   21.0968 C   0  0  0  0  0  0  0  0  0  0  0  0
   14.5858   20.1143   22.0970 C   0  0  0  0  0  0  0  0  0  0  0  0
   16.7300   19.2421   22.4598 C   0  0  0  0  0  0  0  0  0  0  0  0
   16.4432   18.1714   21.6155 C   0  0  0  0  0  0  0  0  0  0  0  0
   15.1967   18.1006   21.0183 C   0  0  0  0  0  0  0  0  0  0  0  0
   16.3674   16.3343   20.3638 C   0  0  0  0  0  0  0  0  0  0  0  0
   17.1664   17.0685   21.2036 C   0  0  0  0  0  0  0  0  0  0  0  0
   18.5565   16.8270   21.6458 C   0  0  0  0  0  0  0  0  0  0  0  0
   20.5431   15.7265   20.8485 C   0  0  0  0  0  0  0  0  0  0  0  0
   14.3117   19.0754   21.2806 N   0  0  0  0  0  0  0  0  0  0  0  0
   15.1805   16.9811   20.2678 N   0  0  0  0  0  0  0  0  0  0  0  0
   19.1427   15.6274   21.0918 N   0  0  1  0  0  4  0  0  0  0  0  0
   20.9253   13.4473   21.6045 N   0  0  0  0  0  0  0  0  0  0  0  0
   24.3886    8.7029   20.7806 Cl  0  0  0  0  0  0  0  0  0  0  0  0
  1 11  2  0
 12  1  1  0
  2 18  1  0
 22  2  1  0
  4  3  1  0
  3 22  1  0
 21  4  1  0
  5  6  2  0
  5 10  1  0
 22  5  1  0
  6  7  1  0
  7  8  2  0
  9  8  1  0
  8 23  1  0
 10  9  2  0
 19 11  1  0
 13 12  2  0
 13 14  1  0
 16 13  1  0
 14 19  2  0
 20 14  1  0
 16 15  2  0
 15 20  1  0
 17 16  1  0
 21 17  1  1
 18 21  1  0
M  CHG  1  21   1
M  END
$$$$
