
     RDKit          3D

 23 26  0  0  0  0  0  0  0  0999 V2000
   27.5072   20.9709   50.3748 C   0  0  0  0  0  0  0  0  0  0  0  0
   32.6202   14.9523   51.1757 C   0  0  0  0  0  0  0  0  0  0  0  0
   32.7606   16.2410   53.2510 C   0  0  0  0  0  0  0  0  0  0  0  0
   32.0817   17.2458   52.3721 C   0  0  0  0  0  0  0  0  0  0  0  0
   33.7372   13.9631   53.2188 C   0  0  0  0  0  0  0  0  0  0  0  0
   33.9186   12.7082   52.6636 C   0  0  0  0  0  0  0  0  0  0  0  0
   34.5947   11.6953   53.3280 C   0  0  0  0  0  0  0  0  0  0  0  0
   35.0920   11.9731   54.5807 C   0  0  0  0  0  0  0  0  0  0  0  0
   34.9237   13.2302   55.1646 C   0  0  0  0  0  0  0  0  0  0  0  0
   34.2460   14.2005   54.4657 C   0  0  0  0  0  0  0  0  0  0  0  0
   26.3353   20.4870   49.8358 C   0  0  0  0  0  0  0  0  0  0  0  0
   28.5437   20.0606   50.4929 C   0  0  0  0  0  0  0  0  0  0  0  0
   28.4126   18.7330   50.0909 C   0  0  0  0  0  0  0  0  0  0  0  0
   27.2088   18.3073   49.5571 C   0  0  0  0  0  0  0  0  0  0  0  0
   28.5925   16.5742   49.5858 C   0  0  0  0  0  0  0  0  0  0  0  0
   29.2690   17.6488   50.1059 C   0  0  0  0  0  0  0  0  0  0  0  0
   30.6562   17.7466   50.6081 C   0  0  0  0  0  0  0  0  0  0  0  0
   31.1941   15.4393   51.0335 C   0  0  0  0  0  0  0  0  0  0  0  0
   26.2123   19.2002   49.4484 N   0  0  0  0  0  0  0  0  0  0  0  0
   27.3477   16.9997   49.2607 N   0  0  0  0  0  0  0  0  0  0  0  0
   30.9930   16.7371   51.5864 N   0  0  1  0  0  4  0  0  0  0  0  0
   33.0595   14.9949   52.5286 N   0  0  0  0  0  0  0  0  0  0  0  0
   35.9451   10.6817   55.4011 Cl  0  0  0  0  0  0  0  0  0  0  0  0
  1 11  2  0
 12  1  1  0
  2 18  1  0
 22  2  1  0
  4  3  1  0
  3 22  1  0
 21  4  1  0
  5  6  2  0
  5 10  1  0
 22  5  1  0
  6  7  1  0
  7  8  2  0
  9  8  1  0
  8 23  1  0
 10  9  2  0
 19 11  1  0
 13 12  2  0
 13 14  1  0
 16 13  1  0
 14 19  2  0
 20 14  1  0
 16 15  2  0
 15 20  1  0
 17 16  1  0
 21 17  1  6
 18 21  1  0
M  CHG  1  21   1
M  END
$$$$
