
     RDKit          3D

 23 26  0  0  0  0  0  0  0  0999 V2000
   14.9857   17.4754   22.0699 C   0  0  0  0  0  0  0  0  0  0  0  0
   21.1792   13.4485   22.6178 C   0  0  0  0  0  0  0  0  0  0  0  0
   19.8198   13.5275   20.5849 C   0  0  0  0  0  0  0  0  0  0  0  0
   19.1504   14.6048   21.3814 C   0  0  0  0  0  0  0  0  0  0  0  0
   21.6278   11.8374   20.7196 C   0  0  0  0  0  0  0  0  0  0  0  0
   21.1647   11.2156   19.5730 C   0  0  0  0  0  0  0  0  0  0  0  0
   21.8568   10.1808   18.9608 C   0  0  0  0  0  0  0  0  0  0  0  0
   23.0414    9.7772   19.5331 C   0  0  0  0  0  0  0  0  0  0  0  0
   23.5321   10.3869   20.6894 C   0  0  0  0  0  0  0  0  0  0  0  0
   22.8090   11.4080   21.2584 C   0  0  0  0  0  0  0  0  0  0  0  0
   14.9140   18.7542   21.5625 C   0  0  0  0  0  0  0  0  0  0  0  0
   16.2539   17.0138   22.3785 C   0  0  0  0  0  0  0  0  0  0  0  0
   17.3925   17.7941   22.1887 C   0  0  0  0  0  0  0  0  0  0  0  0
   17.2547   19.0715   21.6745 C   0  0  0  0  0  0  0  0  0  0  0  0
   19.4141   18.7074   22.0253 C   0  0  0  0  0  0  0  0  0  0  0  0
   18.7394   17.5743   22.4045 C   0  0  0  0  0  0  0  0  0  0  0  0
   19.2518   16.3041   22.9615 C   0  0  0  0  0  0  0  0  0  0  0  0
   21.2144   14.9614   22.5881 C   0  0  0  0  0  0  0  0  0  0  0  0
   16.0193   19.5064   21.3795 N   0  0  0  0  0  0  0  0  0  0  0  0
   18.4922   19.5988   21.5878 N   0  0  0  0  0  0  0  0  0  0  0  0
   20.0372   15.5331   22.0243 N   0  0  1  0  0  4  0  0  0  0  0  0
   20.9234   12.9016   21.3292 N   0  0  0  0  0  0  0  0  0  0  0  0
   23.9013    8.4715   18.7429 Cl  0  0  0  0  0  0  0  0  0  0  0  0
  1 11  2  0
 12  1  1  0
  2 18  1  0
 22  2  1  0
  4  3  1  0
  3 22  1  0
 21  4  1  0
  5  6  2  0
  5 10  1  0
 22  5  1  0
  6  7  1  0
  7  8  2  0
  9  8  1  0
  8 23  1  0
 10  9  2  0
 19 11  1  0
 13 12  2  0
 13 14  1  0
 16 13  1  0
 14 19  2  0
 20 14  1  0
 16 15  2  0
 15 20  1  0
 17 16  1  0
 21 17  1  1
 18 21  1  0
M  CHG  1  21   1
M  END
$$$$
