
     RDKit          3D

 23 26  0  0  0  0  0  0  0  0999 V2000
   28.9436   19.6544   47.7729 C   0  0  0  0  0  0  0  0  0  0  0  0
   31.8593   14.8036   53.7236 C   0  0  0  0  0  0  0  0  0  0  0  0
   33.4546   16.2563   52.6495 C   0  0  0  0  0  0  0  0  0  0  0  0
   32.3230   16.8997   51.8977 C   0  0  0  0  0  0  0  0  0  0  0  0
   33.9410   13.7796   52.7182 C   0  0  0  0  0  0  0  0  0  0  0  0
   33.5803   12.5080   53.0957 C   0  0  0  0  0  0  0  0  0  0  0  0
   34.4215   11.4295   52.7903 C   0  0  0  0  0  0  0  0  0  0  0  0
   35.6074   11.6307   52.1146 C   0  0  0  0  0  0  0  0  0  0  0  0
   35.9803   12.9018   51.7305 C   0  0  0  0  0  0  0  0  0  0  0  0
   35.1279   13.9490   52.0467 C   0  0  0  0  0  0  0  0  0  0  0  0
   28.3890   20.8060   48.2621 C   0  0  0  0  0  0  0  0  0  0  0  0
   29.3647   18.6692   48.6485 C   0  0  0  0  0  0  0  0  0  0  0  0
   29.2129   18.8759   50.0059 C   0  0  0  0  0  0  0  0  0  0  0  0
   28.6502   20.0499   50.4378 C   0  0  0  0  0  0  0  0  0  0  0  0
   29.1024   18.9193   52.2074 C   0  0  0  0  0  0  0  0  0  0  0  0
   29.5002   18.1566   51.1412 C   0  0  0  0  0  0  0  0  0  0  0  0
   30.1190   16.8178   51.1765 C   0  0  0  0  0  0  0  0  0  0  0  0
   30.7196   15.4028   52.9489 C   0  0  0  0  0  0  0  0  0  0  0  0
   28.2425   21.0060   49.5647 N   0  0  0  0  0  0  0  0  0  0  0  0
   28.5843   20.0732   51.7797 N   0  0  0  0  0  0  0  0  0  0  0  0
   31.0095   16.6390   52.3135 N   0  0  1  0  0  4  0  0  0  0  0  0
   33.1204   14.8872   53.0246 N   0  0  0  0  0  0  0  0  0  0  0  0
   36.6755   10.3050   51.7198 Cl  0  0  0  0  0  0  0  0  0  0  0  0
  1 11  2  0
 12  1  1  0
 18  2  1  1
  2 22  1  6
  4  3  1  1
  3 22  1  6
 21  4  1  0
  5  6  2  0
  5 10  1  0
 22  5  1  0
  6  7  1  0
  7  8  2  0
  9  8  1  0
  8 23  1  0
 10  9  2  0
 19 11  1  0
 13 12  2  0
 13 14  1  0
 16 13  1  0
 14 19  2  0
 20 14  1  0
 16 15  2  0
 15 20  1  0
 17 16  1  1
 21 17  1  6
 18 21  1  0
M  CHG  1  21   1
M  END
$$$$
