
     RDKit          3D

 23 26  0  0  0  0  0  0  0  0999 V2000
   27.6934   19.5342   48.7528 C   0  0  0  0  0  0  0  0  0  0  0  0
   31.9691   14.4403   53.0294 C   0  0  0  0  0  0  0  0  0  0  0  0
   32.3431   14.2230   50.6211 C   0  0  0  0  0  0  0  0  0  0  0  0
   31.1349   15.1080   50.6128 C   0  0  0  0  0  0  0  0  0  0  0  0
   33.8536   12.9960   52.1561 C   0  0  0  0  0  0  0  0  0  0  0  0
   34.2982   12.1715   51.1370 C   0  0  0  0  0  0  0  0  0  0  0  0
   35.3904   11.3298   51.2887 C   0  0  0  0  0  0  0  0  0  0  0  0
   36.0364   11.3331   52.5038 C   0  0  0  0  0  0  0  0  0  0  0  0
   35.6095   12.1546   53.5490 C   0  0  0  0  0  0  0  0  0  0  0  0
   34.5217   12.9708   53.3489 C   0  0  0  0  0  0  0  0  0  0  0  0
   27.9096   20.8547   49.0802 C   0  0  0  0  0  0  0  0  0  0  0  0
   28.3105   18.5975   49.5643 C   0  0  0  0  0  0  0  0  0  0  0  0
   29.1037   18.9656   50.6491 C   0  0  0  0  0  0  0  0  0  0  0  0
   29.2831   20.3095   50.9262 C   0  0  0  0  0  0  0  0  0  0  0  0
   30.4259   19.1454   52.4288 C   0  0  0  0  0  0  0  0  0  0  0  0
   29.8182   18.2469   51.5884 C   0  0  0  0  0  0  0  0  0  0  0  0
   29.8439   16.7686   51.5978 C   0  0  0  0  0  0  0  0  0  0  0  0
   31.7450   15.9205   52.8061 C   0  0  0  0  0  0  0  0  0  0  0  0
   28.6791   21.2070   50.1312 N   0  0  0  0  0  0  0  0  0  0  0  0
   30.0854   20.3872   52.0066 N   0  0  0  0  0  0  0  0  0  0  0  0
   31.1755   16.2098   51.5325 N   0  0  1  0  0  4  0  0  0  0  0  0
   32.7482   13.8620   51.9883 N   0  0  0  0  0  0  0  0  0  0  0  0
   37.4148   10.2656   52.6737 Cl  0  0  0  0  0  0  0  0  0  0  0  0
  1 11  2  0
 12  1  1  0
  2 18  1  0
 22  2  1  0
  4  3  1  0
  3 22  1  0
 21  4  1  0
  5  6  2  0
  5 10  1  0
 22  5  1  0
  6  7  1  0
  7  8  2  0
  9  8  1  0
  8 23  1  0
 10  9  2  0
 19 11  1  0
 13 12  2  0
 13 14  1  0
 16 13  1  0
 14 19  2  0
 20 14  1  0
 16 15  2  0
 15 20  1  0
 17 16  1  0
 21 17  1  1
 18 21  1  0
M  CHG  1  21   1
M  END
$$$$
