
     RDKit          3D

 23 26  0  0  0  0  0  0  0  0999 V2000
   27.3254   17.8182   48.6217 C   0  0  0  0  0  0  0  0  0  0  0  0
   32.0405   15.6430   53.5007 C   0  0  0  0  0  0  0  0  0  0  0  0
   31.2445   14.7970   51.3471 C   0  0  0  0  0  0  0  0  0  0  0  0
   30.2229   15.8636   51.5956 C   0  0  0  0  0  0  0  0  0  0  0  0
   33.2203   13.7089   52.3747 C   0  0  0  0  0  0  0  0  0  0  0  0
   33.2825   12.8069   51.3267 C   0  0  0  0  0  0  0  0  0  0  0  0
   34.2739   11.8405   51.2394 C   0  0  0  0  0  0  0  0  0  0  0  0
   35.2156   11.7980   52.2420 C   0  0  0  0  0  0  0  0  0  0  0  0
   35.1770   12.6957   53.3107 C   0  0  0  0  0  0  0  0  0  0  0  0
   34.1741   13.6348   53.3518 C   0  0  0  0  0  0  0  0  0  0  0  0
   27.2069   19.0781   48.0774 C   0  0  0  0  0  0  0  0  0  0  0  0
   28.0190   17.7349   49.8170 C   0  0  0  0  0  0  0  0  0  0  0  0
   28.5656   18.8573   50.4357 C   0  0  0  0  0  0  0  0  0  0  0  0
   28.4129   20.0963   49.8383 C   0  0  0  0  0  0  0  0  0  0  0  0
   29.5740   20.3790   51.7066 C   0  0  0  0  0  0  0  0  0  0  0  0
   29.2895   19.0411   51.5982 C   0  0  0  0  0  0  0  0  0  0  0  0
   29.6323   17.9200   52.4992 C   0  0  0  0  0  0  0  0  0  0  0  0
   31.8243   17.0436   52.9690 C   0  0  0  0  0  0  0  0  0  0  0  0
   27.7384   20.1626   48.6795 N   0  0  0  0  0  0  0  0  0  0  0  0
   29.0316   20.9958   50.6289 N   0  0  0  0  0  0  0  0  0  0  0  0
   30.7478   17.1242   52.0389 N   0  0  1  0  0  4  0  0  0  0  0  0
   32.2147   14.7007   52.4486 N   0  0  0  0  0  0  0  0  0  0  0  0
   36.4605   10.5726   52.1113 Cl  0  0  0  0  0  0  0  0  0  0  0  0
  1 11  2  0
 12  1  1  0
  2 18  1  0
 22  2  1  0
  4  3  1  0
  3 22  1  0
 21  4  1  0
  5  6  2  0
  5 10  1  0
 22  5  1  0
  6  7  1  0
  7  8  2  0
  9  8  1  0
  8 23  1  0
 10  9  2  0
 19 11  1  0
 13 12  2  0
 13 14  1  0
 16 13  1  0
 14 19  2  0
 20 14  1  0
 16 15  2  0
 15 20  1  0
 17 16  1  0
 21 17  1  1
 18 21  1  0
M  CHG  1  21   1
M  END
$$$$
