
     RDKit          3D

 23 26  0  0  0  0  0  0  0  0999 V2000
   28.1082   19.0351   48.1210 C   0  0  0  0  0  0  0  0  0  0  0  0
   31.3839   14.1747   51.2498 C   0  0  0  0  0  0  0  0  0  0  0  0
   32.2559   15.0876   53.3029 C   0  0  0  0  0  0  0  0  0  0  0  0
   31.9696   16.4677   52.7801 C   0  0  0  0  0  0  0  0  0  0  0  0
   33.6058   13.3224   52.1040 C   0  0  0  0  0  0  0  0  0  0  0  0
   33.9445   12.7330   50.9092 C   0  0  0  0  0  0  0  0  0  0  0  0
   35.0751   11.9078   50.8394 C   0  0  0  0  0  0  0  0  0  0  0  0
   35.8515   11.6811   51.9571 C   0  0  0  0  0  0  0  0  0  0  0  0
   35.5221   12.2668   53.1616 C   0  0  0  0  0  0  0  0  0  0  0  0
   34.3980   13.0780   53.1999 C   0  0  0  0  0  0  0  0  0  0  0  0
   27.3412   20.0344   48.6561 C   0  0  0  0  0  0  0  0  0  0  0  0
   29.1840   18.5379   48.8351 C   0  0  0  0  0  0  0  0  0  0  0  0
   29.4581   19.0681   50.0809 C   0  0  0  0  0  0  0  0  0  0  0  0
   28.6546   20.0683   50.5659 C   0  0  0  0  0  0  0  0  0  0  0  0
   30.1376   19.7092   52.0780 C   0  0  0  0  0  0  0  0  0  0  0  0
   30.4047   18.8422   51.0514 C   0  0  0  0  0  0  0  0  0  0  0  0
   31.4913   17.8472   50.9767 C   0  0  0  0  0  0  0  0  0  0  0  0
   31.1317   15.5465   50.6906 C   0  0  0  0  0  0  0  0  0  0  0  0
   27.6030   20.5444   49.8517 N   0  0  0  0  0  0  0  0  0  0  0  0
   29.0712   20.4567   51.7829 N   0  0  0  0  0  0  0  0  0  0  0  0
   31.1577   16.5980   51.6444 N   0  0  1  0  0  4  0  0  0  0  0  0
   32.4644   14.1473   52.2077 N   0  0  0  0  0  0  0  0  0  0  0  0
   37.2669   10.6575   51.8994 Cl  0  0  0  0  0  0  0  0  0  0  0  0
  1 11  2  0
 12  1  1  0
 18  2  1  1
  2 22  1  6
  4  3  1  1
  3 22  1  6
 21  4  1  0
  5  6  2  0
  5 10  1  0
 22  5  1  0
  6  7  1  0
  7  8  2  0
  9  8  1  0
  8 23  1  0
 10  9  2  0
 19 11  1  0
 13 12  2  0
 13 14  1  0
 16 13  1  0
 14 19  2  0
 20 14  1  0
 16 15  2  0
 15 20  1  0
 17 16  1  1
 21 17  1  6
 18 21  1  0
M  CHG  1  21   1
M  END
$$$$
