
     RDKit          3D

 23 26  0  0  0  0  0  0  0  0999 V2000
   28.8055   20.7301   51.7689 C   0  0  0  0  0  0  0  0  0  0  0  0
   32.8676   14.5174   49.8809 C   0  0  0  0  0  0  0  0  0  0  0  0
   33.6509   15.4958   51.9824 C   0  0  0  0  0  0  0  0  0  0  0  0
   33.1171   16.7243   51.3123 C   0  0  0  0  0  0  0  0  0  0  0  0
   34.0063   13.0704   51.6158 C   0  0  0  0  0  0  0  0  0  0  0  0
   33.8289   11.8872   50.9198 C   0  0  0  0  0  0  0  0  0  0  0  0
   34.3250   10.6761   51.3797 C   0  0  0  0  0  0  0  0  0  0  0  0
   35.0130   10.6780   52.5715 C   0  0  0  0  0  0  0  0  0  0  0  0
   35.2069   11.8568   53.2943 C   0  0  0  0  0  0  0  0  0  0  0  0
   34.6954   13.0315   52.7963 C   0  0  0  0  0  0  0  0  0  0  0  0
   27.5502   20.6669   51.2050 C   0  0  0  0  0  0  0  0  0  0  0  0
   29.7461   19.8513   51.2592 C   0  0  0  0  0  0  0  0  0  0  0  0
   29.4441   18.9550   50.2361 C   0  0  0  0  0  0  0  0  0  0  0  0
   28.1637   18.9395   49.7111 C   0  0  0  0  0  0  0  0  0  0  0  0
   29.3545   17.3995   48.6486 C   0  0  0  0  0  0  0  0  0  0  0  0
   30.1797   17.9935   49.5699 C   0  0  0  0  0  0  0  0  0  0  0  0
   31.6049   17.7411   49.8723 C   0  0  0  0  0  0  0  0  0  0  0  0
   31.6056   15.3394   50.0315 C   0  0  0  0  0  0  0  0  0  0  0  0
   27.2616   19.7968   50.2147 N   0  0  0  0  0  0  0  0  0  0  0  0
   28.1398   17.9908   48.7540 N   0  0  0  0  0  0  0  0  0  0  0  0
   31.8262   16.5777   50.7011 N   0  0  1  0  0  4  0  0  0  0  0  0
   33.5100   14.3035   51.1326 N   0  0  0  0  0  0  0  0  0  0  0  0
   35.6338    9.1392   53.1329 Cl  0  0  0  0  0  0  0  0  0  0  0  0
  1 11  2  0
 12  1  1  0
  2 18  1  0
 22  2  1  0
  4  3  1  0
  3 22  1  0
 21  4  1  0
  5  6  2  0
  5 10  1  0
 22  5  1  0
  6  7  1  0
  7  8  2  0
  9  8  1  0
  8 23  1  0
 10  9  2  0
 19 11  1  0
 13 12  2  0
 13 14  1  0
 16 13  1  0
 14 19  2  0
 20 14  1  0
 16 15  2  0
 15 20  1  0
 17 16  1  0
 21 17  1  6
 18 21  1  0
M  CHG  1  21   1
M  END
$$$$
