
     RDKit          3D

 23 26  0  0  0  0  0  0  0  0999 V2000
   15.8521   15.0998   20.7206 C   0  0  0  0  0  0  0  0  0  0  0  0
   21.2692   14.9660   23.6246 C   0  0  0  0  0  0  0  0  0  0  0  0
   22.8241   16.7747   23.2780 C   0  0  0  0  0  0  0  0  0  0  0  0
   21.7751   17.4867   22.4702 C   0  0  0  0  0  0  0  0  0  0  0  0
   23.6208   14.4122   22.8791 C   0  0  0  0  0  0  0  0  0  0  0  0
   23.4002   13.0574   22.9522 C   0  0  0  0  0  0  0  0  0  0  0  0
   24.4219   12.1683   22.5919 C   0  0  0  0  0  0  0  0  0  0  0  0
   25.6465   12.6388   22.1644 C   0  0  0  0  0  0  0  0  0  0  0  0
   25.8800   13.9959   22.0866 C   0  0  0  0  0  0  0  0  0  0  0  0
   24.8504   14.8509   22.4499 C   0  0  0  0  0  0  0  0  0  0  0  0
   14.7754   15.8698   21.0683 C   0  0  0  0  0  0  0  0  0  0  0  0
   17.1303   15.6194   20.8251 C   0  0  0  0  0  0  0  0  0  0  0  0
   17.2873   16.9136   21.2819 C   0  0  0  0  0  0  0  0  0  0  0  0
   16.1712   17.6377   21.6157 C   0  0  0  0  0  0  0  0  0  0  0  0
   17.8492   18.9305   21.9729 C   0  0  0  0  0  0  0  0  0  0  0  0
   18.3574   17.7446   21.5121 C   0  0  0  0  0  0  0  0  0  0  0  0
   19.7754   17.3994   21.2964 C   0  0  0  0  0  0  0  0  0  0  0  0
   20.2227   15.6405   22.7832 C   0  0  0  0  0  0  0  0  0  0  0  0
   14.9243   17.1122   21.5069 N   0  0  0  0  0  0  0  0  0  0  0  0
   16.5170   18.8661   22.0363 N   0  0  0  0  0  0  0  0  0  0  0  0
   20.4551   17.0172   22.5251 N   0  0  1  0  0  4  0  0  0  0  0  0
   22.6150   15.3316   23.2490 N   0  0  0  0  0  0  0  0  0  0  0  0
   26.9383   11.5538   21.7081 Cl  0  0  0  0  0  0  0  0  0  0  0  0
  1 11  2  0
 12  1  1  0
 18  2  1  1
  2 22  1  6
  4  3  1  1
  3 22  1  6
 21  4  1  0
  5  6  2  0
  5 10  1  0
 22  5  1  0
  6  7  1  0
  7  8  2  0
  9  8  1  0
  8 23  1  0
 10  9  2  0
 19 11  1  0
 13 12  2  0
 13 14  1  0
 16 13  1  0
 14 19  2  0
 20 14  1  0
 16 15  2  0
 15 20  1  0
 17 16  1  1
 21 17  1  6
 18 21  1  0
M  CHG  1  21   1
M  END
$$$$
