
     RDKit          3D

 23 26  0  0  0  0  0  0  0  0999 V2000
   28.2579   18.9359   47.8518 C   0  0  0  0  0  0  0  0  0  0  0  0
   32.8545   15.3408   51.7636 C   0  0  0  0  0  0  0  0  0  0  0  0
   33.1970   16.6510   53.8015 C   0  0  0  0  0  0  0  0  0  0  0  0
   32.6643   17.7198   52.8976 C   0  0  0  0  0  0  0  0  0  0  0  0
   33.8319   14.2553   53.8292 C   0  0  0  0  0  0  0  0  0  0  0  0
   33.9706   13.0052   53.2512 C   0  0  0  0  0  0  0  0  0  0  0  0
   34.4989   11.9245   53.9422 C   0  0  0  0  0  0  0  0  0  0  0  0
   34.8906   12.1284   55.2455 C   0  0  0  0  0  0  0  0  0  0  0  0
   34.7623   13.3788   55.8535 C   0  0  0  0  0  0  0  0  0  0  0  0
   34.2325   14.4182   55.1265 C   0  0  0  0  0  0  0  0  0  0  0  0
   27.1433   19.5988   48.3166 C   0  0  0  0  0  0  0  0  0  0  0  0
   29.2620   18.7109   48.7781 C   0  0  0  0  0  0  0  0  0  0  0  0
   29.1543   19.1287   50.1030 C   0  0  0  0  0  0  0  0  0  0  0  0
   28.0088   19.7907   50.5088 C   0  0  0  0  0  0  0  0  0  0  0  0
   29.3627   19.6361   52.2586 C   0  0  0  0  0  0  0  0  0  0  0  0
   29.9927   19.0363   51.1974 C   0  0  0  0  0  0  0  0  0  0  0  0
   31.3130   18.3746   51.1257 C   0  0  0  0  0  0  0  0  0  0  0  0
   31.5132   16.0261   51.6134 C   0  0  0  0  0  0  0  0  0  0  0  0
   27.0433   20.0023   49.6004 N   0  0  0  0  0  0  0  0  0  0  0  0
   28.1631   20.0840   51.8154 N   0  0  0  0  0  0  0  0  0  0  0  0
   31.5072   17.3537   52.1306 N   0  0  1  0  0  4  0  0  0  0  0  0
   33.3059   15.3557   53.1131 N   0  0  0  0  0  0  0  0  0  0  0  0
   35.5580   10.7520   56.0991 Cl  0  0  0  0  0  0  0  0  0  0  0  0
  1 11  2  0
 12  1  1  0
  2 18  1  0
 22  2  1  0
  4  3  1  0
  3 22  1  0
 21  4  1  0
  5  6  2  0
  5 10  1  0
 22  5  1  0
  6  7  1  0
  7  8  2  0
  9  8  1  0
  8 23  1  0
 10  9  2  0
 19 11  1  0
 13 12  2  0
 13 14  1  0
 16 13  1  0
 14 19  2  0
 20 14  1  0
 16 15  2  0
 15 20  1  0
 17 16  1  0
 21 17  1  6
 18 21  1  0
M  CHG  1  21   1
M  END
$$$$
