
     RDKit          3D

 23 26  0  0  0  0  0  0  0  0999 V2000
   27.1942   18.3434   48.0117 C   0  0  0  0  0  0  0  0  0  0  0  0
   31.9679   16.0922   54.2851 C   0  0  0  0  0  0  0  0  0  0  0  0
   33.6249   16.8925   52.7284 C   0  0  0  0  0  0  0  0  0  0  0  0
   32.5155   17.3315   51.8139 C   0  0  0  0  0  0  0  0  0  0  0  0
   33.8969   14.5717   53.6851 C   0  0  0  0  0  0  0  0  0  0  0  0
   33.6482   13.6985   54.7173 C   0  0  0  0  0  0  0  0  0  0  0  0
   34.3723   12.5016   54.8022 C   0  0  0  0  0  0  0  0  0  0  0  0
   35.3316   12.1906   53.8607 C   0  0  0  0  0  0  0  0  0  0  0  0
   35.5902   13.0584   52.8203 C   0  0  0  0  0  0  0  0  0  0  0  0
   34.8581   14.2348   52.7627 C   0  0  0  0  0  0  0  0  0  0  0  0
   26.9991   19.6975   47.9723 C   0  0  0  0  0  0  0  0  0  0  0  0
   28.0923   17.8051   48.9162 C   0  0  0  0  0  0  0  0  0  0  0  0
   28.7746   18.6563   49.7635 C   0  0  0  0  0  0  0  0  0  0  0  0
   28.5380   20.0047   49.6785 C   0  0  0  0  0  0  0  0  0  0  0  0
   30.0011   19.7531   51.2311 C   0  0  0  0  0  0  0  0  0  0  0  0
   29.7107   18.5008   50.7577 C   0  0  0  0  0  0  0  0  0  0  0  0
   30.2780   17.2164   51.2104 C   0  0  0  0  0  0  0  0  0  0  0  0
   30.8455   16.4828   53.3654 C   0  0  0  0  0  0  0  0  0  0  0  0
   27.6532   20.5160   48.7849 N   0  0  0  0  0  0  0  0  0  0  0  0
   29.2868   20.6702   50.5740 N   0  0  0  0  0  0  0  0  0  0  0  0
   31.2081   17.3711   52.3189 N   0  0  1  0  0  4  0  0  0  0  0  0
   33.1930   15.7914   53.5817 N   0  0  0  0  0  0  0  0  0  0  0  0
   36.2491   10.7053   53.9409 Cl  0  0  0  0  0  0  0  0  0  0  0  0
  1 11  2  0
 12  1  1  0
 18  2  1  1
  2 22  1  6
  4  3  1  1
  3 22  1  6
 21  4  1  0
  5  6  2  0
  5 10  1  0
 22  5  1  0
  6  7  1  0
  7  8  2  0
  9  8  1  0
  8 23  1  0
 10  9  2  0
 19 11  1  0
 13 12  2  0
 13 14  1  0
 16 13  1  0
 14 19  2  0
 20 14  1  0
 16 15  2  0
 15 20  1  0
 17 16  1  1
 21 17  1  6
 18 21  1  0
M  CHG  1  21   1
M  END
$$$$
