
     RDKit          3D

 23 26  0  0  0  0  0  0  0  0999 V2000
   14.3616   16.8737   21.6223 C   0  0  0  0  0  0  0  0  0  0  0  0
   21.7566   14.1749   22.6205 C   0  0  0  0  0  0  0  0  0  0  0  0
   20.8632   14.8914   20.4997 C   0  0  0  0  0  0  0  0  0  0  0  0
   19.7627   15.6050   21.2342 C   0  0  0  0  0  0  0  0  0  0  0  0
   21.4718   12.4578   20.7866 C   0  0  0  0  0  0  0  0  0  0  0  0
   21.2086   12.1825   19.4658 C   0  0  0  0  0  0  0  0  0  0  0  0
   21.2970   10.8630   19.0018 C   0  0  0  0  0  0  0  0  0  0  0  0
   21.6457    9.8378   19.8568 C   0  0  0  0  0  0  0  0  0  0  0  0
   21.9122   10.1013   21.1841 C   0  0  0  0  0  0  0  0  0  0  0  0
   21.8165   11.4163   21.6141 C   0  0  0  0  0  0  0  0  0  0  0  0
   14.2143   18.2167   21.4031 C   0  0  0  0  0  0  0  0  0  0  0  0
   15.5644   16.3837   22.0993 C   0  0  0  0  0  0  0  0  0  0  0  0
   16.5944   17.2710   22.3441 C   0  0  0  0  0  0  0  0  0  0  0  0
   16.3887   18.6060   22.1057 C   0  0  0  0  0  0  0  0  0  0  0  0
   18.4058   18.4327   22.8241 C   0  0  0  0  0  0  0  0  0  0  0  0
   17.8855   17.1656   22.8032 C   0  0  0  0  0  0  0  0  0  0  0  0
   18.5589   15.9124   23.1939 C   0  0  0  0  0  0  0  0  0  0  0  0
   20.6398   14.8436   23.3714 C   0  0  0  0  0  0  0  0  0  0  0  0
   15.2020   19.0697   21.6375 N   0  0  0  0  0  0  0  0  0  0  0  0
   17.4943   19.3111   22.3992 N   0  0  0  0  0  0  0  0  0  0  0  0
   19.8896   15.7853   22.6189 N   0  0  1  0  0  4  0  0  0  0  0  0
   21.3770   13.7754   21.2855 N   0  0  0  0  0  0  0  0  0  0  0  0
   21.7644    8.1835   19.3061 Cl  0  0  0  0  0  0  0  0  0  0  0  0
  1 11  2  0
 12  1  1  0
 18  2  1  1
  2 22  1  6
  4  3  1  1
  3 22  1  6
 21  4  1  0
  5  6  2  0
  5 10  1  0
 22  5  1  0
  6  7  1  0
  7  8  2  0
  9  8  1  0
  8 23  1  0
 10  9  2  0
 19 11  1  0
 13 12  2  0
 13 14  1  0
 16 13  1  0
 14 19  2  0
 20 14  1  0
 16 15  2  0
 15 20  1  0
 17 16  1  1
 21 17  1  1
 18 21  1  0
M  CHG  1  21   1
M  END
$$$$
