
     RDKit          3D

 23 26  0  0  0  0  0  0  0  0999 V2000
   16.2946   20.2185   22.1264 C   0  0  0  0  0  0  0  0  0  0  0  0
   21.3063   14.9870   21.4090 C   0  0  0  0  0  0  0  0  0  0  0  0
   20.3108   13.1051   22.6150 C   0  0  0  0  0  0  0  0  0  0  0  0
   19.4057   14.2078   23.0708 C   0  0  0  0  0  0  0  0  0  0  0  0
   22.3214   12.6767   21.2303 C   0  0  0  0  0  0  0  0  0  0  0  0
   22.4780   11.4216   21.7926 C   0  0  0  0  0  0  0  0  0  0  0  0
   23.4049   10.5066   21.3151 C   0  0  0  0  0  0  0  0  0  0  0  0
   24.1835   10.8843   20.2451 C   0  0  0  0  0  0  0  0  0  0  0  0
   24.0467   12.1439   19.6583 C   0  0  0  0  0  0  0  0  0  0  0  0
   23.1137   13.0150   20.1683 C   0  0  0  0  0  0  0  0  0  0  0  0
   15.0014   20.0604   21.6785 C   0  0  0  0  0  0  0  0  0  0  0  0
   17.0141   19.0535   22.3306 C   0  0  0  0  0  0  0  0  0  0  0  0
   16.4658   17.7940   22.0974 C   0  0  0  0  0  0  0  0  0  0  0  0
   15.1601   17.7012   21.6481 C   0  0  0  0  0  0  0  0  0  0  0  0
   15.9571   15.6421   21.8562 C   0  0  0  0  0  0  0  0  0  0  0  0
   16.9555   16.5082   22.2248 C   0  0  0  0  0  0  0  0  0  0  0  0
   18.3352   16.2313   22.6784 C   0  0  0  0  0  0  0  0  0  0  0  0
   19.9041   15.4231   21.0417 C   0  0  0  0  0  0  0  0  0  0  0  0
   14.4739   18.8387   21.4545 N   0  0  0  0  0  0  0  0  0  0  0  0
   14.8810   16.3897   21.5109 N   0  0  0  0  0  0  0  0  0  0  0  0
   18.9400   15.0866   22.0353 N   0  0  1  0  0  4  0  0  0  0  0  0
   21.3637   13.5982   21.7138 N   0  0  0  0  0  0  0  0  0  0  0  0
   25.3454    9.7134   19.6555 Cl  0  0  0  0  0  0  0  0  0  0  0  0
  1 11  2  0
 12  1  1  0
  2 18  1  0
 22  2  1  0
  4  3  1  0
  3 22  1  0
 21  4  1  0
  5  6  2  0
  5 10  1  0
 22  5  1  0
  6  7  1  0
  7  8  2  0
  9  8  1  0
  8 23  1  0
 10  9  2  0
 19 11  1  0
 13 12  2  0
 13 14  1  0
 16 13  1  0
 14 19  2  0
 20 14  1  0
 16 15  2  0
 15 20  1  0
 17 16  1  0
 21 17  1  1
 18 21  1  0
M  CHG  1  21   1
M  END
$$$$
