
     RDKit          3D

 25 28  0  0  0  0  0  0  0  0999 V2000
  -23.8969   19.4324  -12.2471 C   0  0  0  0  0  0  0  0  0  0  0  0
  -24.7232   21.8642   -9.7832 C   0  0  0  0  0  0  0  0  0  0  0  0
  -22.5184   22.3300   -8.6783 C   0  0  0  0  0  0  0  0  0  0  0  0
  -22.9621   24.3427  -10.0252 C   0  0  0  0  0  0  0  0  0  0  0  0
  -20.3358   25.2577   -9.3863 C   0  0  0  0  0  0  0  0  0  0  0  0
  -21.5178   24.9692   -7.3524 C   0  0  0  0  0  0  0  0  0  0  0  0
  -20.7552   16.4559  -12.9596 C   0  0  0  0  0  0  0  0  0  0  0  0
  -17.6537   16.2438  -13.0178 N   0  0  0  0  0  0  0  0  0  0  0  0
  -18.4590   17.3429  -12.5480 C   0  0  0  0  0  0  0  0  0  0  0  0
  -18.0088   18.4966  -12.0188 N   0  0  0  0  0  0  0  0  0  0  0  0
  -19.0118   19.2677  -11.7078 N   0  0  0  0  0  0  0  0  0  0  0  0
  -20.1892   18.7076  -11.9967 C   0  0  0  0  0  0  0  0  0  0  0  0
  -21.5265   19.2490  -11.7786 C   0  0  0  0  0  0  0  0  0  0  0  0
  -21.6935   20.2372  -10.7543 C   0  0  0  0  0  0  0  0  0  0  0  0
  -22.9576   20.7517  -10.5480 C   0  0  0  0  0  0  0  0  0  0  0  0
  -24.0539   20.3740  -11.2646 C   0  0  0  0  0  0  0  0  0  0  0  0
  -22.6147   18.8962  -12.4679 C   0  0  0  0  0  0  0  0  0  0  0  0
  -25.1460   21.0721  -10.7840 C   0  0  0  0  0  0  0  0  0  0  0  0
  -23.4031   21.6995   -9.6115 N   0  0  0  0  0  0  0  0  0  0  0  0
  -21.9141   23.5603   -9.3078 C   0  0  1  0  0  0  0  0  0  0  0  0
  -22.7210   25.8296  -10.0090 C   0  0  0  0  0  0  0  0  0  0  0  0
  -21.2635   26.1028  -10.1929 C   0  0  0  0  0  0  0  0  0  0  0  0
  -21.0305   24.3099   -8.4975 N   0  0  1  0  0  4  0  0  0  0  0  0
  -19.8404   17.4565  -12.5414 C   0  0  0  0  0  0  0  0  0  0  0  0
  -21.5066   15.6143  -13.2909 N   0  0  0  0  0  0  0  0  0  0  0  0
 16  1  2  0
  1 17  1  0
  2 18  2  0
 19  2  1  0
  3 19  1  0
 20  3  1  1
 20  4  1  0
  4 21  1  0
  5 22  1  0
 23  5  1  0
 23  6  1  1
 24  7  1  0
  7 25  3  0
  9  8  1  0
  9 10  1  0
 24  9  2  0
 11 10  1  0
 12 11  2  0
 13 12  1  0
 12 24  1  0
 14 13  1  0
 13 17  2  0
 15 14  2  0
 15 16  1  0
 19 15  1  0
 16 18  1  0
 20 23  1  0
 21 22  1  0
M  CHG  1  23   1
M  END
$$$$
