
     RDKit          3D

 25 28  0  0  0  0  0  0  0  0999 V2000
  -13.3984   10.3007  -27.8742 C   0  0  0  0  0  0  0  0  0  0  0  0
  -12.0122    7.9414  -30.1500 C   0  0  0  0  0  0  0  0  0  0  0  0
  -10.8604    6.3002  -28.6404 C   0  0  0  0  0  0  0  0  0  0  0  0
  -12.6601    5.0141  -29.7215 C   0  0  0  0  0  0  0  0  0  0  0  0
  -12.2698    2.9700  -27.7692 C   0  0  0  0  0  0  0  0  0  0  0  0
  -10.2255    3.2611  -28.9325 C   0  0  0  0  0  0  0  0  0  0  0  0
  -14.2107   10.9064  -23.6543 C   0  0  0  0  0  0  0  0  0  0  0  0
  -13.1622   10.0806  -20.8460 N   0  0  0  0  0  0  0  0  0  0  0  0
  -12.7139    9.6124  -22.1332 C   0  0  0  0  0  0  0  0  0  0  0  0
  -11.7250    8.7274  -22.3635 N   0  0  0  0  0  0  0  0  0  0  0  0
  -11.5912    8.5291  -23.6442 N   0  0  0  0  0  0  0  0  0  0  0  0
  -12.4594    9.2475  -24.3607 C   0  0  0  0  0  0  0  0  0  0  0  0
  -12.6035    9.3080  -25.8115 C   0  0  0  0  0  0  0  0  0  0  0  0
  -11.9976    8.2700  -26.5917 C   0  0  0  0  0  0  0  0  0  0  0  0
  -12.1346    8.3248  -27.9641 C   0  0  0  0  0  0  0  0  0  0  0  0
  -12.8148    9.3090  -28.6174 C   0  0  0  0  0  0  0  0  0  0  0  0
  -13.2654   10.2604  -26.4738 C   0  0  0  0  0  0  0  0  0  0  0  0
  -12.7354    9.0614  -29.9751 C   0  0  0  0  0  0  0  0  0  0  0  0
  -11.6320    7.4650  -28.9551 N   0  0  0  0  0  0  0  0  0  0  0  0
  -11.7740    5.1056  -28.5251 C   0  0  1  0  0  0  0  0  0  0  0  0
  -13.0103    3.6001  -30.1055 C   0  0  0  0  0  0  0  0  0  0  0  0
  -13.2579    2.7930  -28.8726 C   0  0  0  0  0  0  0  0  0  0  0  0
  -11.1742    3.8953  -28.1071 N   0  0  1  0  0  4  0  0  0  0  0  0
  -13.1918    9.9555  -23.3882 C   0  0  0  0  0  0  0  0  0  0  0  0
  -15.0444   11.7010  -23.8912 N   0  0  0  0  0  0  0  0  0  0  0  0
 16  1  2  0
  1 17  1  0
  2 18  2  0
 19  2  1  0
  3 19  1  0
 20  3  1  6
 20  4  1  0
  4 21  1  0
  5 22  1  0
 23  5  1  0
 23  6  1  6
 24  7  1  0
  7 25  3  0
  9  8  1  0
  9 10  1  0
 24  9  2  0
 11 10  1  0
 12 11  2  0
 13 12  1  0
 12 24  1  0
 14 13  1  0
 13 17  2  0
 15 14  2  0
 15 16  1  0
 19 15  1  0
 16 18  1  0
 20 23  1  0
 21 22  1  0
M  CHG  1  23   1
M  END
$$$$
