
     RDKit          3D

 25 28  0  0  0  0  0  0  0  0999 V2000
  -23.7121   18.8011  -12.9989 C   0  0  0  0  0  0  0  0  0  0  0  0
  -24.6199   20.7797  -10.1832 C   0  0  0  0  0  0  0  0  0  0  0  0
  -22.4438   21.0771   -8.9685 C   0  0  0  0  0  0  0  0  0  0  0  0
  -24.0360   22.6765   -7.9845 C   0  0  0  0  0  0  0  0  0  0  0  0
  -22.0656   24.7164   -8.2988 C   0  0  0  0  0  0  0  0  0  0  0  0
  -21.1471   23.0289   -6.9110 C   0  0  0  0  0  0  0  0  0  0  0  0
  -19.8245   16.2236  -11.1093 C   0  0  0  0  0  0  0  0  0  0  0  0
  -17.0101   15.9727  -12.4070 N   0  0  0  0  0  0  0  0  0  0  0  0
  -18.0526   16.9156  -12.7250 C   0  0  0  0  0  0  0  0  0  0  0  0
  -17.9926   17.8946  -13.6480 N   0  0  0  0  0  0  0  0  0  0  0  0
  -19.1159   18.5542  -13.6743 N   0  0  0  0  0  0  0  0  0  0  0  0
  -20.0005   18.0823  -12.7923 C   0  0  0  0  0  0  0  0  0  0  0  0
  -21.3491   18.5662  -12.5162 C   0  0  0  0  0  0  0  0  0  0  0  0
  -21.5497   19.3680  -11.3455 C   0  0  0  0  0  0  0  0  0  0  0  0
  -22.8245   19.8281  -11.0840 C   0  0  0  0  0  0  0  0  0  0  0  0
  -23.9012   19.5641  -11.8771 C   0  0  0  0  0  0  0  0  0  0  0  0
  -22.4186   18.3223  -13.2780 C   0  0  0  0  0  0  0  0  0  0  0  0
  -25.0120   20.1613  -11.3109 C   0  0  0  0  0  0  0  0  0  0  0  0
  -23.3013   20.6020  -10.0127 N   0  0  0  0  0  0  0  0  0  0  0  0
  -22.7349   22.5324   -8.6994 C   0  0  1  0  0  0  0  0  0  0  0  0
  -24.0743   23.8427   -7.0316 C   0  0  0  0  0  0  0  0  0  0  0  0
  -23.3722   25.0118   -7.6424 C   0  0  0  0  0  0  0  0  0  0  0  0
  -21.6632   23.3030   -8.1923 N   0  0  1  0  0  4  0  0  0  0  0  0
  -19.3184   17.0189  -12.1698 C   0  0  0  0  0  0  0  0  0  0  0  0
  -20.2545   15.5533  -10.2443 N   0  0  0  0  0  0  0  0  0  0  0  0
 16  1  2  0
  1 17  1  0
  2 18  2  0
 19  2  1  0
  3 19  1  0
 20  3  1  1
 20  4  1  0
  4 21  1  0
  5 22  1  0
 23  5  1  0
 23  6  1  1
 24  7  1  0
  7 25  3  0
  9  8  1  0
  9 10  1  0
 24  9  2  0
 11 10  1  0
 12 11  2  0
 13 12  1  0
 12 24  1  0
 14 13  1  0
 13 17  2  0
 15 14  2  0
 15 16  1  0
 19 15  1  0
 16 18  1  0
 20 23  1  0
 21 22  1  0
M  CHG  1  23   1
M  END
$$$$
