
     RDKit          3D

 25 28  0  0  0  0  0  0  0  0999 V2000
  -14.4710    8.4884  -27.5499 C   0  0  0  0  0  0  0  0  0  0  0  0
  -12.3857    8.4834  -30.4341 C   0  0  0  0  0  0  0  0  0  0  0  0
  -10.2668    9.5458  -29.6090 C   0  0  0  0  0  0  0  0  0  0  0  0
   -9.1400   11.7299  -29.7569 C   0  0  0  0  0  0  0  0  0  0  0  0
  -10.7789   12.3384  -32.0122 C   0  0  0  0  0  0  0  0  0  0  0  0
   -9.5391   10.3841  -32.5231 C   0  0  0  0  0  0  0  0  0  0  0  0
  -13.7491    8.4905  -23.1795 C   0  0  0  0  0  0  0  0  0  0  0  0
  -12.4273   10.3126  -21.0346 N   0  0  0  0  0  0  0  0  0  0  0  0
  -12.3411   10.4247  -22.4689 C   0  0  0  0  0  0  0  0  0  0  0  0
  -11.6748   11.3697  -23.1597 N   0  0  0  0  0  0  0  0  0  0  0  0
  -11.8054   11.1639  -24.4396 N   0  0  0  0  0  0  0  0  0  0  0  0
  -12.5518   10.0890  -24.7056 C   0  0  0  0  0  0  0  0  0  0  0  0
  -12.9350    9.5534  -26.0077 C   0  0  0  0  0  0  0  0  0  0  0  0
  -11.9734    9.6114  -27.0685 C   0  0  0  0  0  0  0  0  0  0  0  0
  -12.3337    9.1034  -28.3003 C   0  0  0  0  0  0  0  0  0  0  0  0
  -13.5509    8.5488  -28.5629 C   0  0  0  0  0  0  0  0  0  0  0  0
  -14.1197    9.0046  -26.2887 C   0  0  0  0  0  0  0  0  0  0  0  0
  -13.5733    8.1644  -29.8905 C   0  0  0  0  0  0  0  0  0  0  0  0
  -11.6071    9.0526  -29.5018 N   0  0  0  0  0  0  0  0  0  0  0  0
  -10.2807   10.9084  -30.2557 C   0  0  1  0  0  0  0  0  0  0  0  0
   -8.5961   12.6912  -30.7813 C   0  0  0  0  0  0  0  0  0  0  0  0
   -9.7252   13.2904  -31.5551 C   0  0  0  0  0  0  0  0  0  0  0  0
  -10.4980   10.9374  -31.6526 N   0  0  1  0  0  4  0  0  0  0  0  0
  -12.9057    9.6032  -23.4319 C   0  0  0  0  0  0  0  0  0  0  0  0
  -14.4358    7.5566  -22.9821 N   0  0  0  0  0  0  0  0  0  0  0  0
 16  1  2  0
  1 17  1  0
  2 18  2  0
 19  2  1  0
  3 19  1  0
 20  3  1  6
 20  4  1  0
  4 21  1  0
  5 22  1  0
 23  5  1  0
 23  6  1  6
 24  7  1  0
  7 25  3  0
  9  8  1  0
  9 10  1  0
 24  9  2  0
 11 10  1  0
 12 11  2  0
 13 12  1  0
 12 24  1  0
 14 13  1  0
 13 17  2  0
 15 14  2  0
 15 16  1  0
 19 15  1  0
 16 18  1  0
 20 23  1  0
 21 22  1  0
M  CHG  1  23   1
M  END
$$$$
