
     RDKit          3D

 25 28  0  0  0  0  0  0  0  0999 V2000
  -24.2264   18.9227  -11.9299 C   0  0  0  0  0  0  0  0  0  0  0  0
  -25.1089   22.0559  -10.4906 C   0  0  0  0  0  0  0  0  0  0  0  0
  -22.9161   23.2719  -10.3808 C   0  0  0  0  0  0  0  0  0  0  0  0
  -22.5375   22.4748   -8.0824 C   0  0  0  0  0  0  0  0  0  0  0  0
  -23.0210   25.1320   -7.1613 C   0  0  0  0  0  0  0  0  0  0  0  0
  -21.1823   25.2058   -8.6550 C   0  0  0  0  0  0  0  0  0  0  0  0
  -20.6831   16.4125  -12.4509 C   0  0  0  0  0  0  0  0  0  0  0  0
  -17.7031   16.6381  -13.3093 N   0  0  0  0  0  0  0  0  0  0  0  0
  -18.6353   17.7066  -13.0513 C   0  0  0  0  0  0  0  0  0  0  0  0
  -18.3779   19.0270  -13.1165 N   0  0  0  0  0  0  0  0  0  0  0  0
  -19.4510   19.7070  -12.8275 N   0  0  0  0  0  0  0  0  0  0  0  0
  -20.4916   18.9167  -12.5518 C   0  0  0  0  0  0  0  0  0  0  0  0
  -21.8454   19.3041  -12.1691 C   0  0  0  0  0  0  0  0  0  0  0  0
  -22.0399   20.6113  -11.6153 C   0  0  0  0  0  0  0  0  0  0  0  0
  -23.3203   20.9799  -11.2545 C   0  0  0  0  0  0  0  0  0  0  0  0
  -24.4085   20.1715  -11.3973 C   0  0  0  0  0  0  0  0  0  0  0  0
  -22.9265   18.5310  -12.3003 C   0  0  0  0  0  0  0  0  0  0  0  0
  -25.5157   20.8492  -10.9222 C   0  0  0  0  0  0  0  0  0  0  0  0
  -23.7857   22.1731  -10.6769 N   0  0  0  0  0  0  0  0  0  0  0  0
  -23.0175   23.6151   -8.9155 C   0  0  1  0  0  0  0  0  0  0  0  0
  -21.8802   22.9028   -6.7962 C   0  0  0  0  0  0  0  0  0  0  0  0
  -22.6317   24.0526   -6.2080 C   0  0  0  0  0  0  0  0  0  0  0  0
  -22.5509   24.8953   -8.5375 N   0  0  1  0  0  4  0  0  0  0  0  0
  -19.9711   17.6157  -12.6929 C   0  0  0  0  0  0  0  0  0  0  0  0
  -21.2574   15.4087  -12.2386 N   0  0  0  0  0  0  0  0  0  0  0  0
 16  1  2  0
  1 17  1  0
  2 18  2  0
 19  2  1  0
  3 19  1  0
 20  3  1  6
 20  4  1  0
  4 21  1  0
  5 22  1  0
 23  5  1  0
 23  6  1  1
 24  7  1  0
  7 25  3  0
  9  8  1  0
  9 10  1  0
 24  9  2  0
 11 10  1  0
 12 11  2  0
 13 12  1  0
 12 24  1  0
 14 13  1  0
 13 17  2  0
 15 14  2  0
 15 16  1  0
 19 15  1  0
 16 18  1  0
 20 23  1  0
 21 22  1  0
M  CHG  1  23   1
M  END
$$$$
