
     RDKit          3D

 25 28  0  0  0  0  0  0  0  0999 V2000
  -23.5328   18.3890  -12.8958 C   0  0  0  0  0  0  0  0  0  0  0  0
  -24.6667   20.7729  -10.5086 C   0  0  0  0  0  0  0  0  0  0  0  0
  -22.6375   21.1649   -9.0846 C   0  0  0  0  0  0  0  0  0  0  0  0
  -23.9608   23.2258   -9.3367 C   0  0  0  0  0  0  0  0  0  0  0  0
  -21.5543   24.7225   -9.0029 C   0  0  0  0  0  0  0  0  0  0  0  0
  -21.8643   23.4049   -7.0574 C   0  0  0  0  0  0  0  0  0  0  0  0
  -19.3096   17.9939  -14.5392 C   0  0  0  0  0  0  0  0  0  0  0  0
  -16.6840   16.6123  -13.6091 N   0  0  0  0  0  0  0  0  0  0  0  0
  -17.8647   16.8892  -12.8303 C   0  0  0  0  0  0  0  0  0  0  0  0
  -18.0608   16.5771  -11.5349 N   0  0  0  0  0  0  0  0  0  0  0  0
  -19.2387   16.9804  -11.1509 N   0  0  0  0  0  0  0  0  0  0  0  0
  -19.9127   17.5823  -12.1341 C   0  0  0  0  0  0  0  0  0  0  0  0
  -21.2584   18.1452  -12.0958 C   0  0  0  0  0  0  0  0  0  0  0  0
  -21.5555   19.1098  -11.0786 C   0  0  0  0  0  0  0  0  0  0  0  0
  -22.8275   19.6445  -11.0422 C   0  0  0  0  0  0  0  0  0  0  0  0
  -23.8147   19.3080  -11.9199 C   0  0  0  0  0  0  0  0  0  0  0  0
  -22.2411   17.8326  -12.9445 C   0  0  0  0  0  0  0  0  0  0  0  0
  -24.9532   20.0156  -11.5821 C   0  0  0  0  0  0  0  0  0  0  0  0
  -23.3882   20.5769  -10.1531 N   0  0  0  0  0  0  0  0  0  0  0  0
  -22.5819   22.6608   -9.2704 C   0  0  1  0  0  0  0  0  0  0  0  0
  -24.0712   24.6146   -8.7637 C   0  0  0  0  0  0  0  0  0  0  0  0
  -22.8686   25.4129   -9.1497 C   0  0  0  0  0  0  0  0  0  0  0  0
  -21.6666   23.3610   -8.4511 N   0  0  1  0  0  4  0  0  0  0  0  0
  -19.0291   17.5264  -13.2293 C   0  0  0  0  0  0  0  0  0  0  0  0
  -19.5611   18.3866  -15.6186 N   0  0  0  0  0  0  0  0  0  0  0  0
 16  1  2  0
  1 17  1  0
  2 18  2  0
 19  2  1  0
  3 19  1  0
 20  3  1  1
 20  4  1  0
  4 21  1  0
  5 22  1  0
 23  5  1  0
 23  6  1  1
 24  7  1  0
  7 25  3  0
  9  8  1  0
  9 10  1  0
 24  9  2  0
 11 10  1  0
 12 11  2  0
 13 12  1  0
 12 24  1  0
 14 13  1  0
 13 17  2  0
 15 14  2  0
 15 16  1  0
 19 15  1  0
 16 18  1  0
 20 23  1  0
 21 22  1  0
M  CHG  1  23   1
M  END
$$$$
