
     RDKit          3D

 25 28  0  0  0  0  0  0  0  0999 V2000
  -12.8094   11.9571  -27.0869 C   0  0  0  0  0  0  0  0  0  0  0  0
  -12.5265    9.2223  -29.3470 C   0  0  0  0  0  0  0  0  0  0  0  0
  -12.1991    7.2543  -27.8243 C   0  0  0  0  0  0  0  0  0  0  0  0
  -12.1597    6.5767  -30.1909 C   0  0  0  0  0  0  0  0  0  0  0  0
  -14.0074    4.4991  -29.5491 C   0  0  0  0  0  0  0  0  0  0  0  0
  -12.0597    4.1669  -28.2402 C   0  0  0  0  0  0  0  0  0  0  0  0
  -13.9291    8.6279  -23.1620 C   0  0  0  0  0  0  0  0  0  0  0  0
  -13.1243    9.2353  -20.2207 N   0  0  0  0  0  0  0  0  0  0  0  0
  -12.7320    9.9447  -21.4123 C   0  0  0  0  0  0  0  0  0  0  0  0
  -11.9442   11.0355  -21.4720 N   0  0  0  0  0  0  0  0  0  0  0  0
  -11.7928   11.4109  -22.7104 N   0  0  0  0  0  0  0  0  0  0  0  0
  -12.4507   10.6208  -23.5625 C   0  0  0  0  0  0  0  0  0  0  0  0
  -12.5371   10.7303  -25.0151 C   0  0  0  0  0  0  0  0  0  0  0  0
  -12.4190    9.5296  -25.7884 C   0  0  0  0  0  0  0  0  0  0  0  0
  -12.5024    9.6313  -27.1624 C   0  0  0  0  0  0  0  0  0  0  0  0
  -12.6923   10.8081  -27.8235 C   0  0  0  0  0  0  0  0  0  0  0  0
  -12.7239   11.8705  -25.6849 C   0  0  0  0  0  0  0  0  0  0  0  0
  -12.7083   10.5441  -29.1803 C   0  0  0  0  0  0  0  0  0  0  0  0
  -12.3995    8.6350  -28.1478 N   0  0  0  0  0  0  0  0  0  0  0  0
  -12.8441    6.3901  -28.8789 C   0  0  1  0  0  0  0  0  0  0  0  0
  -12.1465    5.3363  -31.0457 C   0  0  0  0  0  0  0  0  0  0  0  0
  -13.4605    4.6345  -30.9304 C   0  0  0  0  0  0  0  0  0  0  0  0
  -13.1202    5.0529  -28.5113 N   0  0  1  0  0  4  0  0  0  0  0  0
  -13.0651    9.6666  -22.7287 C   0  0  0  0  0  0  0  0  0  0  0  0
  -14.6445    7.7590  -23.5021 N   0  0  0  0  0  0  0  0  0  0  0  0
 16  1  2  0
  1 17  1  0
  2 18  2  0
 19  2  1  0
  3 19  1  0
 20  3  1  1
 20  4  1  0
  4 21  1  0
  5 22  1  0
 23  5  1  0
 23  6  1  6
 24  7  1  0
  7 25  3  0
  9  8  1  0
  9 10  1  0
 24  9  2  0
 11 10  1  0
 12 11  2  0
 13 12  1  0
 12 24  1  0
 14 13  1  0
 13 17  2  0
 15 14  2  0
 15 16  1  0
 19 15  1  0
 16 18  1  0
 20 23  1  0
 21 22  1  0
M  CHG  1  23   1
M  END
$$$$
