
     RDKit          3D

 25 28  0  0  0  0  0  0  0  0999 V2000
  -22.8032   19.5700  -13.8065 C   0  0  0  0  0  0  0  0  0  0  0  0
  -24.6126   21.2027  -11.2128 C   0  0  0  0  0  0  0  0  0  0  0  0
  -23.3175   20.6034   -9.1482 C   0  0  0  0  0  0  0  0  0  0  0  0
  -23.4504   23.0608   -9.2197 C   0  0  0  0  0  0  0  0  0  0  0  0
  -21.2373   23.1580   -7.4211 C   0  0  0  0  0  0  0  0  0  0  0  0
  -22.9825   21.9568   -6.3588 C   0  0  0  0  0  0  0  0  0  0  0  0
  -18.3259   18.7738  -13.9052 C   0  0  0  0  0  0  0  0  0  0  0  0
  -16.4328   16.5851  -12.7678 N   0  0  0  0  0  0  0  0  0  0  0  0
  -17.8013   16.8516  -12.4024 C   0  0  0  0  0  0  0  0  0  0  0  0
  -18.5343   16.1761  -11.4966 N   0  0  0  0  0  0  0  0  0  0  0  0
  -19.7285   16.6904  -11.4142 N   0  0  0  0  0  0  0  0  0  0  0  0
  -19.8901   17.7287  -12.2383 C   0  0  0  0  0  0  0  0  0  0  0  0
  -21.0827   18.5444  -12.4427 C   0  0  0  0  0  0  0  0  0  0  0  0
  -21.6888   19.1498  -11.2940 C   0  0  0  0  0  0  0  0  0  0  0  0
  -22.8158   19.9232  -11.4860 C   0  0  0  0  0  0  0  0  0  0  0  0
  -23.3824   20.1442  -12.7060 C   0  0  0  0  0  0  0  0  0  0  0  0
  -21.6549   18.7764  -13.6269 C   0  0  0  0  0  0  0  0  0  0  0  0
  -24.4969   20.9422  -12.5268 C   0  0  0  0  0  0  0  0  0  0  0  0
  -23.6118   20.6042  -10.5498 N   0  0  0  0  0  0  0  0  0  0  0  0
  -22.6332   21.8949   -8.7754 C   0  0  1  0  0  0  0  0  0  0  0  0
  -23.3335   24.2589   -8.3139 C   0  0  0  0  0  0  0  0  0  0  0  0
  -21.9169   24.4101   -7.8635 C   0  0  0  0  0  0  0  0  0  0  0  0
  -22.1099   21.9715   -7.4640 N   0  0  1  0  0  4  0  0  0  0  0  0
  -18.6443   17.8401  -12.8855 C   0  0  0  0  0  0  0  0  0  0  0  0
  -18.0814   19.5461  -14.7575 N   0  0  0  0  0  0  0  0  0  0  0  0
 16  1  2  0
  1 17  1  0
  2 18  2  0
 19  2  1  0
  3 19  1  0
 20  3  1  1
 20  4  1  0
  4 21  1  0
  5 22  1  0
 23  5  1  0
 23  6  1  1
 24  7  1  0
  7 25  3  0
  9  8  1  0
  9 10  1  0
 24  9  2  0
 11 10  1  0
 12 11  2  0
 13 12  1  0
 12 24  1  0
 14 13  1  0
 13 17  2  0
 15 14  2  0
 15 16  1  0
 19 15  1  0
 16 18  1  0
 20 23  1  0
 21 22  1  0
M  CHG  1  23   1
M  END
$$$$
