
     RDKit          3D

 25 28  0  0  0  0  0  0  0  0999 V2000
  -15.1212   10.9188  -25.7395 C   0  0  0  0  0  0  0  0  0  0  0  0
  -13.9625    9.8064  -28.9155 C   0  0  0  0  0  0  0  0  0  0  0  0
  -11.7621    8.7269  -28.3748 C   0  0  0  0  0  0  0  0  0  0  0  0
  -12.3506    7.7412  -30.5528 C   0  0  0  0  0  0  0  0  0  0  0  0
  -11.8588    5.1626  -29.4342 C   0  0  0  0  0  0  0  0  0  0  0  0
   -9.8583    6.4216  -29.2609 C   0  0  0  0  0  0  0  0  0  0  0  0
  -14.2668    8.8256  -21.7608 C   0  0  0  0  0  0  0  0  0  0  0  0
  -11.9835    8.9585  -19.6545 N   0  0  0  0  0  0  0  0  0  0  0  0
  -11.9731    9.4573  -21.0066 C   0  0  0  0  0  0  0  0  0  0  0  0
  -10.9594   10.1034  -21.6140 N   0  0  0  0  0  0  0  0  0  0  0  0
  -11.2905   10.4056  -22.8373 N   0  0  0  0  0  0  0  0  0  0  0  0
  -12.5242    9.9960  -23.1434 C   0  0  0  0  0  0  0  0  0  0  0  0
  -13.2484   10.1657  -24.3987 C   0  0  0  0  0  0  0  0  0  0  0  0
  -12.6533    9.6462  -25.5943 C   0  0  0  0  0  0  0  0  0  0  0  0
  -13.3380    9.8042  -26.7823 C   0  0  0  0  0  0  0  0  0  0  0  0
  -14.5478   10.4244  -26.8811 C   0  0  0  0  0  0  0  0  0  0  0  0
  -14.4343   10.7679  -24.5205 C   0  0  0  0  0  0  0  0  0  0  0  0
  -14.9292   10.4191  -28.2098 C   0  0  0  0  0  0  0  0  0  0  0  0
  -12.9826    9.4182  -28.0857 N   0  0  0  0  0  0  0  0  0  0  0  0
  -12.0689    7.4503  -29.1173 C   0  0  1  0  0  0  0  0  0  0  0  0
  -11.9179    6.6413  -31.4869 C   0  0  0  0  0  0  0  0  0  0  0  0
  -12.2231    5.3137  -30.8729 C   0  0  0  0  0  0  0  0  0  0  0  0
  -11.2086    6.3566  -28.8663 N   0  0  1  0  0  4  0  0  0  0  0  0
  -12.9762    9.3804  -21.9601 C   0  0  0  0  0  0  0  0  0  0  0  0
  -15.3420    8.3730  -21.6143 N   0  0  0  0  0  0  0  0  0  0  0  0
 16  1  2  0
  1 17  1  0
  2 18  2  0
 19  2  1  0
  3 19  1  0
 20  3  1  6
 20  4  1  0
  4 21  1  0
  5 22  1  0
 23  5  1  0
 23  6  1  6
 24  7  1  0
  7 25  3  0
  9  8  1  0
  9 10  1  0
 24  9  2  0
 11 10  1  0
 12 11  2  0
 13 12  1  0
 12 24  1  0
 14 13  1  0
 13 17  2  0
 15 14  2  0
 15 16  1  0
 19 15  1  0
 16 18  1  0
 20 23  1  0
 21 22  1  0
M  CHG  1  23   1
M  END
$$$$
