
     RDKit          3D

 25 28  0  0  0  0  0  0  0  0999 V2000
  -13.5750    9.7444  -28.1697 C   0  0  0  0  0  0  0  0  0  0  0  0
  -12.6996    6.9829  -30.2374 C   0  0  0  0  0  0  0  0  0  0  0  0
  -12.0765    5.2036  -28.5805 C   0  0  0  0  0  0  0  0  0  0  0  0
   -9.8118    5.8162  -27.8339 C   0  0  0  0  0  0  0  0  0  0  0  0
   -8.7690    3.8909  -29.6637 C   0  0  0  0  0  0  0  0  0  0  0  0
  -10.1951    2.7542  -28.1500 C   0  0  0  0  0  0  0  0  0  0  0  0
  -12.5997   11.1248  -24.1024 C   0  0  0  0  0  0  0  0  0  0  0  0
  -12.7172   10.0934  -21.1715 N   0  0  0  0  0  0  0  0  0  0  0  0
  -12.9049    9.3395  -22.3853 C   0  0  0  0  0  0  0  0  0  0  0  0
  -13.1516    8.0186  -22.4776 N   0  0  0  0  0  0  0  0  0  0  0  0
  -13.2717    7.6721  -23.7277 N   0  0  0  0  0  0  0  0  0  0  0  0
  -13.1195    8.7079  -24.5567 C   0  0  0  0  0  0  0  0  0  0  0  0
  -13.1653    8.7138  -26.0152 C   0  0  0  0  0  0  0  0  0  0  0  0
  -12.7960    7.5132  -26.7047 C   0  0  0  0  0  0  0  0  0  0  0  0
  -12.8406    7.5166  -28.0843 C   0  0  0  0  0  0  0  0  0  0  0  0
  -13.2176    8.5963  -28.8260 C   0  0  0  0  0  0  0  0  0  0  0  0
  -13.5322    9.7577  -26.7631 C   0  0  0  0  0  0  0  0  0  0  0  0
  -13.1292    8.2548  -30.1626 C   0  0  0  0  0  0  0  0  0  0  0  0
  -12.5153    6.5011  -28.9991 N   0  0  0  0  0  0  0  0  0  0  0  0
  -10.5994    5.0593  -28.8495 C   0  0  1  0  0  0  0  0  0  0  0  0
   -8.4839    5.1841  -27.5073 C   0  0  0  0  0  0  0  0  0  0  0  0
   -7.8614    4.6524  -28.7572 C   0  0  0  0  0  0  0  0  0  0  0  0
  -10.1395    3.7541  -29.1401 N   0  0  1  0  0  4  0  0  0  0  0  0
  -12.8793    9.7950  -23.6941 C   0  0  0  0  0  0  0  0  0  0  0  0
  -12.3564   12.2294  -24.4237 N   0  0  0  0  0  0  0  0  0  0  0  0
 16  1  2  0
  1 17  1  0
  2 18  2  0
 19  2  1  0
  3 19  1  0
 20  3  1  1
 20  4  1  0
  4 21  1  0
  5 22  1  0
 23  5  1  0
 23  6  1  1
 24  7  1  0
  7 25  3  0
  9  8  1  0
  9 10  1  0
 24  9  2  0
 11 10  1  0
 12 11  2  0
 13 12  1  0
 12 24  1  0
 14 13  1  0
 13 17  2  0
 15 14  2  0
 15 16  1  0
 19 15  1  0
 16 18  1  0
 20 23  1  0
 21 22  1  0
M  CHG  1  23   1
M  END
$$$$
