
     RDKit          3D

 25 28  0  0  0  0  0  0  0  0999 V2000
  -23.9440   17.8693  -11.9496 C   0  0  0  0  0  0  0  0  0  0  0  0
  -24.5651   21.0795  -10.5439 C   0  0  0  0  0  0  0  0  0  0  0  0
  -22.2584   21.9846  -10.1453 C   0  0  0  0  0  0  0  0  0  0  0  0
  -22.2305   21.1135   -7.8427 C   0  0  0  0  0  0  0  0  0  0  0  0
  -22.5017   23.7948   -6.9049 C   0  0  0  0  0  0  0  0  0  0  0  0
  -20.5134   23.6735   -8.1891 C   0  0  0  0  0  0  0  0  0  0  0  0
  -19.4098   18.7962  -14.0348 C   0  0  0  0  0  0  0  0  0  0  0  0
  -16.9043   16.9810  -13.7270 N   0  0  0  0  0  0  0  0  0  0  0  0
  -18.1277   16.9406  -12.9664 C   0  0  0  0  0  0  0  0  0  0  0  0
  -18.4261   16.0795  -11.9747 N   0  0  0  0  0  0  0  0  0  0  0  0
  -19.6144   16.3328  -11.5044 N   0  0  0  0  0  0  0  0  0  0  0  0
  -20.1963   17.3608  -12.1273 C   0  0  0  0  0  0  0  0  0  0  0  0
  -21.5220   17.9252  -11.8968 C   0  0  0  0  0  0  0  0  0  0  0  0
  -21.6048   19.2414  -11.3362 C   0  0  0  0  0  0  0  0  0  0  0  0
  -22.8581   19.7774  -11.1194 C   0  0  0  0  0  0  0  0  0  0  0  0
  -24.0197   19.1261  -11.4101 C   0  0  0  0  0  0  0  0  0  0  0  0
  -22.6733   17.3078  -12.1743 C   0  0  0  0  0  0  0  0  0  0  0  0
  -25.0752   19.9436  -11.0513 C   0  0  0  0  0  0  0  0  0  0  0  0
  -23.2254   21.0173  -10.5699 N   0  0  0  0  0  0  0  0  0  0  0  0
  -22.4803   22.3150   -8.6904 C   0  0  1  0  0  0  0  0  0  0  0  0
  -21.6740   21.4412   -6.4816 C   0  0  0  0  0  0  0  0  0  0  0  0
  -22.3476   22.6626   -5.9459 C   0  0  0  0  0  0  0  0  0  0  0  0
  -21.9133   23.5252   -8.2285 N   0  0  1  0  0  4  0  0  0  0  0  0
  -19.2391   17.7612  -13.0795 C   0  0  0  0  0  0  0  0  0  0  0  0
  -19.5652   19.6422  -14.8365 N   0  0  0  0  0  0  0  0  0  0  0  0
 16  1  2  0
  1 17  1  0
  2 18  2  0
 19  2  1  0
  3 19  1  0
 20  3  1  6
 20  4  1  0
  4 21  1  0
  5 22  1  0
 23  5  1  0
 23  6  1  1
 24  7  1  0
  7 25  3  0
  9  8  1  0
  9 10  1  0
 24  9  2  0
 11 10  1  0
 12 11  2  0
 13 12  1  0
 12 24  1  0
 14 13  1  0
 13 17  2  0
 15 14  2  0
 15 16  1  0
 19 15  1  0
 16 18  1  0
 20 23  1  0
 21 22  1  0
M  CHG  1  23   1
M  END
$$$$
