
     RDKit          3D

 25 28  0  0  0  0  0  0  0  0999 V2000
  -21.7202   21.1275  -12.3448 C   0  0  0  0  0  0  0  0  0  0  0  0
  -25.1088   21.1342  -11.2565 C   0  0  0  0  0  0  0  0  0  0  0  0
  -25.5668   18.7093  -10.7992 C   0  0  0  0  0  0  0  0  0  0  0  0
  -26.4738   20.0922   -8.9753 C   0  0  0  0  0  0  0  0  0  0  0  0
  -26.3279   17.8078   -7.2716 C   0  0  0  0  0  0  0  0  0  0  0  0
  -27.7413   17.2635   -9.0946 C   0  0  0  0  0  0  0  0  0  0  0  0
  -18.2196   18.5951  -12.6739 C   0  0  0  0  0  0  0  0  0  0  0  0
  -17.3962   15.5998  -12.8073 N   0  0  0  0  0  0  0  0  0  0  0  0
  -18.7141   16.1496  -12.6126 C   0  0  0  0  0  0  0  0  0  0  0  0
  -19.8587   15.4543  -12.4689 N   0  0  0  0  0  0  0  0  0  0  0  0
  -20.8608   16.2709  -12.3063 N   0  0  0  0  0  0  0  0  0  0  0  0
  -20.4792   17.5504  -12.3266 C   0  0  0  0  0  0  0  0  0  0  0  0
  -21.3087   18.7440  -12.1976 C   0  0  0  0  0  0  0  0  0  0  0  0
  -22.6532   18.5815  -11.7292 C   0  0  0  0  0  0  0  0  0  0  0  0
  -23.4384   19.7099  -11.6048 C   0  0  0  0  0  0  0  0  0  0  0  0
  -23.0061   20.9684  -11.9005 C   0  0  0  0  0  0  0  0  0  0  0  0
  -20.9077   19.9863  -12.4795 C   0  0  0  0  0  0  0  0  0  0  0  0
  -24.0500   21.8472  -11.6789 C   0  0  0  0  0  0  0  0  0  0  0  0
  -24.7771   19.8359  -11.1971 N   0  0  0  0  0  0  0  0  0  0  0  0
  -25.8434   18.7847   -9.3184 C   0  0  1  0  0  0  0  0  0  0  0  0
  -27.4436   20.0106   -7.8254 C   0  0  0  0  0  0  0  0  0  0  0  0
  -26.9024   19.0929   -6.7778 C   0  0  0  0  0  0  0  0  0  0  0  0
  -26.4342   17.6417   -8.7318 N   0  0  1  0  0  4  0  0  0  0  0  0
  -19.0869   17.4818  -12.5266 C   0  0  0  0  0  0  0  0  0  0  0  0
  -17.5048   19.5177  -12.8162 N   0  0  0  0  0  0  0  0  0  0  0  0
 16  1  2  0
  1 17  1  0
  2 18  2  0
 19  2  1  0
  3 19  1  0
 20  3  1  6
 20  4  1  0
  4 21  1  0
  5 22  1  0
 23  5  1  0
 23  6  1  1
 24  7  1  0
  7 25  3  0
  9  8  1  0
  9 10  1  0
 24  9  2  0
 11 10  1  0
 12 11  2  0
 13 12  1  0
 12 24  1  0
 14 13  1  0
 13 17  2  0
 15 14  2  0
 15 16  1  0
 19 15  1  0
 16 18  1  0
 20 23  1  0
 21 22  1  0
M  CHG  1  23   1
M  END
$$$$
