
     RDKit          3D

 25 28  0  0  0  0  0  0  0  0999 V2000
  -12.7015    9.6717  -28.1472 C   0  0  0  0  0  0  0  0  0  0  0  0
  -12.3548    6.4635  -29.6487 C   0  0  0  0  0  0  0  0  0  0  0  0
  -12.5753    4.8948  -27.7020 C   0  0  0  0  0  0  0  0  0  0  0  0
  -10.3083    4.2487  -28.4126 C   0  0  0  0  0  0  0  0  0  0  0  0
  -11.3891    1.7837  -29.3603 C   0  0  0  0  0  0  0  0  0  0  0  0
  -11.8524    1.9343  -27.0408 C   0  0  0  0  0  0  0  0  0  0  0  0
  -12.3982   11.5677  -24.2289 C   0  0  0  0  0  0  0  0  0  0  0  0
  -13.1600   11.0634  -21.2569 N   0  0  0  0  0  0  0  0  0  0  0  0
  -13.2496   10.1447  -22.3638 C   0  0  0  0  0  0  0  0  0  0  0  0
  -13.6698    8.8662  -22.3113 N   0  0  0  0  0  0  0  0  0  0  0  0
  -13.6270    8.3320  -23.4988 N   0  0  0  0  0  0  0  0  0  0  0  0
  -13.1856    9.1886  -24.4233 C   0  0  0  0  0  0  0  0  0  0  0  0
  -12.9831    8.9556  -25.8494 C   0  0  0  0  0  0  0  0  0  0  0  0
  -12.8779    7.5998  -26.3013 C   0  0  0  0  0  0  0  0  0  0  0  0
  -12.6883    7.3777  -27.6504 C   0  0  0  0  0  0  0  0  0  0  0  0
  -12.5975    8.3747  -28.5755 C   0  0  0  0  0  0  0  0  0  0  0  0
  -12.8924    9.9148  -26.7743 C   0  0  0  0  0  0  0  0  0  0  0  0
  -12.3926    7.7972  -29.8146 C   0  0  0  0  0  0  0  0  0  0  0  0
  -12.5318    6.1704  -28.3518 N   0  0  0  0  0  0  0  0  0  0  0  0
  -11.7567    3.9004  -28.4869 C   0  0  1  0  0  0  0  0  0  0  0  0
   -9.3975    3.0493  -28.4463 C   0  0  0  0  0  0  0  0  0  0  0  0
   -9.9225    2.0489  -29.4242 C   0  0  0  0  0  0  0  0  0  0  0  0
  -12.0743    2.5360  -28.2946 N   0  0  1  0  0  4  0  0  0  0  0  0
  -12.9363   10.3682  -23.6953 C   0  0  0  0  0  0  0  0  0  0  0  0
  -11.9335   12.5529  -24.6716 N   0  0  0  0  0  0  0  0  0  0  0  0
 16  1  2  0
  1 17  1  0
  2 18  2  0
 19  2  1  0
  3 19  1  0
 20  3  1  1
 20  4  1  0
  4 21  1  0
  5 22  1  0
 23  5  1  0
 23  6  1  1
 24  7  1  0
  7 25  3  0
  9  8  1  0
  9 10  1  0
 24  9  2  0
 11 10  1  0
 12 11  2  0
 13 12  1  0
 12 24  1  0
 14 13  1  0
 13 17  2  0
 15 14  2  0
 15 16  1  0
 19 15  1  0
 16 18  1  0
 20 23  1  0
 21 22  1  0
M  CHG  1  23   1
M  END
$$$$
