
     RDKit          3D

 25 28  0  0  0  0  0  0  0  0999 V2000
  -12.5139   10.4146  -28.2035 C   0  0  0  0  0  0  0  0  0  0  0  0
  -12.6730    7.6760  -30.4711 C   0  0  0  0  0  0  0  0  0  0  0  0
  -13.1586    5.7215  -28.9733 C   0  0  0  0  0  0  0  0  0  0  0  0
  -12.1993    4.0333  -27.4596 C   0  0  0  0  0  0  0  0  0  0  0  0
   -9.6918    4.3882  -28.7743 C   0  0  0  0  0  0  0  0  0  0  0  0
  -11.2699    3.6907  -30.3991 C   0  0  0  0  0  0  0  0  0  0  0  0
  -12.5495   11.4387  -24.0019 C   0  0  0  0  0  0  0  0  0  0  0  0
  -13.1519   10.2220  -21.2047 N   0  0  0  0  0  0  0  0  0  0  0  0
  -13.1877    9.5621  -22.4855 C   0  0  0  0  0  0  0  0  0  0  0  0
  -13.4755    8.2657  -22.7106 N   0  0  0  0  0  0  0  0  0  0  0  0
  -13.4211    8.0104  -23.9871 N   0  0  0  0  0  0  0  0  0  0  0  0
  -13.1006    9.0894  -24.7056 C   0  0  0  0  0  0  0  0  0  0  0  0
  -12.9261    9.1951  -26.1504 C   0  0  0  0  0  0  0  0  0  0  0  0
  -13.0356    7.9982  -26.9307 C   0  0  0  0  0  0  0  0  0  0  0  0
  -12.8726    8.0968  -28.2978 C   0  0  0  0  0  0  0  0  0  0  0  0
  -12.6155    9.2680  -28.9461 C   0  0  0  0  0  0  0  0  0  0  0  0
  -12.6750   10.3301  -26.8080 C   0  0  0  0  0  0  0  0  0  0  0  0
  -12.4952    8.9973  -30.2964 C   0  0  0  0  0  0  0  0  0  0  0  0
  -12.9057    7.0966  -29.2839 N   0  0  0  0  0  0  0  0  0  0  0  0
  -11.8882    5.0731  -28.4827 C   0  0  1  0  0  0  0  0  0  0  0  0
  -11.2417    2.8705  -27.4713 C   0  0  0  0  0  0  0  0  0  0  0  0
   -9.8513    3.3688  -27.6969 C   0  0  0  0  0  0  0  0  0  0  0  0
  -10.9499    4.7028  -29.4737 N   0  0  1  0  0  4  0  0  0  0  0  0
  -12.9454   10.1018  -23.7389 C   0  0  0  0  0  0  0  0  0  0  0  0
  -12.2412   12.5519  -24.2215 N   0  0  0  0  0  0  0  0  0  0  0  0
 16  1  2  0
  1 17  1  0
  2 18  2  0
 19  2  1  0
  3 19  1  0
 20  3  1  6
 20  4  1  0
  4 21  1  0
  5 22  1  0
 23  5  1  0
 23  6  1  1
 24  7  1  0
  7 25  3  0
  9  8  1  0
  9 10  1  0
 24  9  2  0
 11 10  1  0
 12 11  2  0
 13 12  1  0
 12 24  1  0
 14 13  1  0
 13 17  2  0
 15 14  2  0
 15 16  1  0
 19 15  1  0
 16 18  1  0
 20 23  1  0
 21 22  1  0
M  CHG  1  23   1
M  END
$$$$
