
     RDKit          3D

 25 28  0  0  0  0  0  0  0  0999 V2000
  -22.7613   22.5273  -11.5927 C   0  0  0  0  0  0  0  0  0  0  0  0
  -22.7162   25.5733   -9.7523 C   0  0  0  0  0  0  0  0  0  0  0  0
  -21.8683   24.8664   -7.4984 C   0  0  0  0  0  0  0  0  0  0  0  0
  -20.8166   27.0079   -8.1064 C   0  0  0  0  0  0  0  0  0  0  0  0
  -18.5822   26.2849   -6.4856 C   0  0  0  0  0  0  0  0  0  0  0  0
  -20.5037   26.3168   -5.0986 C   0  0  0  0  0  0  0  0  0  0  0  0
  -22.2839   18.2446  -11.1952 C   0  0  0  0  0  0  0  0  0  0  0  0
  -21.1565   16.0933   -9.2538 N   0  0  0  0  0  0  0  0  0  0  0  0
  -21.2280   17.5187   -9.0535 C   0  0  0  0  0  0  0  0  0  0  0  0
  -20.8297   18.1945   -7.9586 N   0  0  0  0  0  0  0  0  0  0  0  0
  -21.0351   19.4707   -8.1211 N   0  0  0  0  0  0  0  0  0  0  0  0
  -21.5748   19.7489   -9.3105 C   0  0  0  0  0  0  0  0  0  0  0  0
  -21.9634   21.0495   -9.8458 C   0  0  0  0  0  0  0  0  0  0  0  0
  -21.8738   22.1876   -8.9796 C   0  0  0  0  0  0  0  0  0  0  0  0
  -22.2393   23.4189   -9.4851 C   0  0  0  0  0  0  0  0  0  0  0  0
  -22.6782   23.6125  -10.7610 C   0  0  0  0  0  0  0  0  0  0  0  0
  -22.3948   21.2644  -11.0914 C   0  0  0  0  0  0  0  0  0  0  0  0
  -22.9700   24.9545  -10.9188 C   0  0  0  0  0  0  0  0  0  0  0  0
  -22.2703   24.6767   -8.8598 N   0  0  0  0  0  0  0  0  0  0  0  0
  -20.6010   25.6833   -7.4555 C   0  0  1  0  0  0  0  0  0  0  0  0
  -20.0030   28.1191   -7.4958 C   0  0  0  0  0  0  0  0  0  0  0  0
  -18.6373   27.6141   -7.1606 C   0  0  0  0  0  0  0  0  0  0  0  0
  -19.9114   25.7068   -6.2213 N   0  0  1  0  0  4  0  0  0  0  0  0
  -21.7053   18.4872   -9.9226 C   0  0  0  0  0  0  0  0  0  0  0  0
  -22.7722   18.0263  -12.2423 N   0  0  0  0  0  0  0  0  0  0  0  0
 16  1  2  0
  1 17  1  0
  2 18  2  0
 19  2  1  0
  3 19  1  0
 20  3  1  1
 20  4  1  0
  4 21  1  0
  5 22  1  0
 23  5  1  0
 23  6  1  1
 24  7  1  0
  7 25  3  0
  9  8  1  0
  9 10  1  0
 24  9  2  0
 11 10  1  0
 12 11  2  0
 13 12  1  0
 12 24  1  0
 14 13  1  0
 13 17  2  0
 15 14  2  0
 15 16  1  0
 19 15  1  0
 16 18  1  0
 20 23  1  0
 21 22  1  0
M  CHG  1  23   1
M  END
$$$$
