
     RDKit          3D

 25 28  0  0  0  0  0  0  0  0999 V2000
  -23.8406   18.6505  -12.2714 C   0  0  0  0  0  0  0  0  0  0  0  0
  -24.7561   21.1459   -9.9045 C   0  0  0  0  0  0  0  0  0  0  0  0
  -22.5446   21.9141   -9.0000 C   0  0  0  0  0  0  0  0  0  0  0  0
  -23.7506   23.9027   -9.8079 C   0  0  0  0  0  0  0  0  0  0  0  0
  -21.2592   25.2921   -9.8791 C   0  0  0  0  0  0  0  0  0  0  0  0
  -21.6234   24.5705   -7.6511 C   0  0  0  0  0  0  0  0  0  0  0  0
  -20.3830   15.8593  -12.5501 C   0  0  0  0  0  0  0  0  0  0  0  0
  -17.3159   16.0191  -13.0350 N   0  0  0  0  0  0  0  0  0  0  0  0
  -18.2223   17.0960  -12.7255 C   0  0  0  0  0  0  0  0  0  0  0  0
  -17.8993   18.3939  -12.5667 N   0  0  0  0  0  0  0  0  0  0  0  0
  -18.9669   19.0912  -12.2995 N   0  0  0  0  0  0  0  0  0  0  0  0
  -20.0675   18.3359  -12.2588 C   0  0  0  0  0  0  0  0  0  0  0  0
  -21.4377   18.7483  -11.9734 C   0  0  0  0  0  0  0  0  0  0  0  0
  -21.6408   19.7815  -11.0014 C   0  0  0  0  0  0  0  0  0  0  0  0
  -22.9363   20.1740  -10.7317 C   0  0  0  0  0  0  0  0  0  0  0  0
  -24.0315   19.6357  -11.3390 C   0  0  0  0  0  0  0  0  0  0  0  0
  -22.5257   18.2374  -12.5557 C   0  0  0  0  0  0  0  0  0  0  0  0
  -25.1576   20.2472  -10.8205 C   0  0  0  0  0  0  0  0  0  0  0  0
  -23.4172   21.1321   -9.8236 N   0  0  0  0  0  0  0  0  0  0  0  0
  -22.4057   23.2980   -9.5837 C   0  0  1  0  0  0  0  0  0  0  0  0
  -23.7755   25.3988   -9.6330 C   0  0  0  0  0  0  0  0  0  0  0  0
  -22.5333   25.9919  -10.2143 C   0  0  0  0  0  0  0  0  0  0  0  0
  -21.4432   24.1397   -8.9798 N   0  0  1  0  0  4  0  0  0  0  0  0
  -19.5937   17.0382  -12.5327 C   0  0  0  0  0  0  0  0  0  0  0  0
  -21.0218   14.8722  -12.5551 N   0  0  0  0  0  0  0  0  0  0  0  0
 16  1  2  0
  1 17  1  0
  2 18  2  0
 19  2  1  0
  3 19  1  0
 20  3  1  1
 20  4  1  0
  4 21  1  0
  5 22  1  0
 23  5  1  0
 23  6  1  1
 24  7  1  0
  7 25  3  0
  9  8  1  0
  9 10  1  0
 24  9  2  0
 11 10  1  0
 12 11  2  0
 13 12  1  0
 12 24  1  0
 14 13  1  0
 13 17  2  0
 15 14  2  0
 15 16  1  0
 19 15  1  0
 16 18  1  0
 20 23  1  0
 21 22  1  0
M  CHG  1  23   1
M  END
$$$$
