
     RDKit          3D

 25 28  0  0  0  0  0  0  0  0999 V2000
  -23.0454   17.8136  -13.1406 C   0  0  0  0  0  0  0  0  0  0  0  0
  -24.5795   20.6849  -11.7019 C   0  0  0  0  0  0  0  0  0  0  0  0
  -22.6236   22.0283  -10.8842 C   0  0  0  0  0  0  0  0  0  0  0  0
  -23.5478   21.2921   -8.7243 C   0  0  0  0  0  0  0  0  0  0  0  0
  -24.0967   24.0248   -8.1129 C   0  0  0  0  0  0  0  0  0  0  0  0
  -21.7643   23.8183   -8.4797 C   0  0  0  0  0  0  0  0  0  0  0  0
  -19.2362   15.6752  -12.2351 C   0  0  0  0  0  0  0  0  0  0  0  0
  -16.1826   16.1911  -12.5128 N   0  0  0  0  0  0  0  0  0  0  0  0
  -17.2575   17.1440  -12.6302 C   0  0  0  0  0  0  0  0  0  0  0  0
  -17.1350   18.4641  -12.8674 N   0  0  0  0  0  0  0  0  0  0  0  0
  -18.3118   19.0210  -12.9166 N   0  0  0  0  0  0  0  0  0  0  0  0
  -19.2967   18.1405  -12.7215 C   0  0  0  0  0  0  0  0  0  0  0  0
  -20.7348   18.3849  -12.6859 C   0  0  0  0  0  0  0  0  0  0  0  0
  -21.1960   19.6004  -12.0832 C   0  0  0  0  0  0  0  0  0  0  0  0
  -22.5560   19.8339  -12.0504 C   0  0  0  0  0  0  0  0  0  0  0  0
  -23.4832   18.9747  -12.5604 C   0  0  0  0  0  0  0  0  0  0  0  0
  -21.6618   17.5598  -13.1795 C   0  0  0  0  0  0  0  0  0  0  0  0
  -24.7377   19.5127  -12.3414 C   0  0  0  0  0  0  0  0  0  0  0  0
  -23.2721   20.9149  -11.5094 N   0  0  0  0  0  0  0  0  0  0  0  0
  -23.4019   22.4438   -9.6608 C   0  0  1  0  0  0  0  0  0  0  0  0
  -23.5758   21.6952   -7.2730 C   0  0  0  0  0  0  0  0  0  0  0  0
  -24.3730   22.9493   -7.1167 C   0  0  0  0  0  0  0  0  0  0  0  0
  -23.0340   23.6756   -9.0719 N   0  0  1  0  0  4  0  0  0  0  0  0
  -18.6217   16.9189  -12.5330 C   0  0  0  0  0  0  0  0  0  0  0  0
  -19.7624   14.6507  -11.9983 N   0  0  0  0  0  0  0  0  0  0  0  0
 16  1  2  0
  1 17  1  0
  2 18  2  0
 19  2  1  0
  3 19  1  0
 20  3  1  6
 20  4  1  0
  4 21  1  0
  5 22  1  0
 23  5  1  0
 23  6  1  1
 24  7  1  0
  7 25  3  0
  9  8  1  0
  9 10  1  0
 24  9  2  0
 11 10  1  0
 12 11  2  0
 13 12  1  0
 12 24  1  0
 14 13  1  0
 13 17  2  0
 15 14  2  0
 15 16  1  0
 19 15  1  0
 16 18  1  0
 20 23  1  0
 21 22  1  0
M  CHG  1  23   1
M  END
$$$$
