
     RDKit          3D

 19 21  0  0  0  0  0  0  0  0999 V2000
    6.7242    5.4988   -5.4368 N   0  0  0  0  0  0  0  0  0  0  0  0
    7.3015    4.9929   -6.5343 C   0  0  0  0  0  0  0  0  0  0  0  0
    6.9844    5.4911   -7.7829 C   0  0  0  0  0  0  0  0  0  0  0  0
    6.0779    6.5109   -7.9505 C   0  0  0  0  0  0  0  0  0  0  0  0
    5.7334    7.0453   -9.2763 C   0  0  0  0  0  0  0  0  0  0  0  0
    4.6932    6.6129  -10.0747 C   0  0  0  0  0  0  0  0  0  0  0  0
    5.7377    8.2395  -11.1088 C   0  0  0  0  0  0  0  0  0  0  0  0
    3.7481    5.5504   -9.7911 C   0  0  0  0  0  0  0  0  0  0  0  0
    2.4491    5.6920   -9.3478 C   0  0  0  0  0  0  0  0  0  0  0  0
    5.5008    7.0111   -6.8059 C   0  0  0  0  0  0  0  0  0  0  0  0
    5.8347    6.4935   -5.5487 C   0  0  0  0  0  0  0  0  0  0  0  0
    4.7252    7.3684  -11.1923 N   0  0  0  0  0  0  0  0  0  0  0  0
    6.3468    8.0371   -9.9401 N   0  0  0  0  0  0  0  0  0  0  0  0
    7.5080    8.7433   -9.3895 C   0  0  0  0  0  0  0  0  0  0  0  0
    4.0261    4.2102   -9.9375 C   0  0  0  0  0  0  0  0  0  0  0  0
    2.9093    3.5849   -9.5864 O   0  0  0  0  0  0  0  0  0  0  0  0
    1.9927    4.4230   -9.2446 N   0  0  0  0  0  0  0  0  0  0  0  0
    5.2571    3.5065  -10.3793 C   0  0  0  0  0  0  0  0  0  0  0  0
    1.6970    6.9340   -9.0398 C   0  0  0  0  0  0  0  0  0  0  0  0
  1  2  2  0
  1 11  1  0
  2  3  1  0
  3  4  2  0
  4  5  1  0
  4 10  1  0
  5  6  2  0
  5 13  1  0
  6  8  1  0
  6 12  1  0
 12  7  2  0
  7 13  1  0
  8  9  1  0
  8 15  2  0
  9 17  2  0
 19  9  1  6
 10 11  2  0
 14 13  1  6
 15 16  1  0
 18 15  1  6
 16 17  1  0
M  END
$$$$
