
     RDKit          3D

 19 21  0  0  0  0  0  0  0  0999 V2000
   -3.5016    7.0442  -17.5463 N   0  0  0  0  0  0  0  0  0  0  0  0
   -2.7356    6.7648  -18.6088 C   0  0  0  0  0  0  0  0  0  0  0  0
   -3.2663    6.8096  -19.8833 C   0  0  0  0  0  0  0  0  0  0  0  0
   -4.5814    7.1376  -20.1125 C   0  0  0  0  0  0  0  0  0  0  0  0
   -5.1544    7.1854  -21.4659 C   0  0  0  0  0  0  0  0  0  0  0  0
   -4.7838    8.0599  -22.4681 C   0  0  0  0  0  0  0  0  0  0  0  0
   -6.3610    6.7451  -23.2363 C   0  0  0  0  0  0  0  0  0  0  0  0
   -3.7837    9.1073  -22.3977 C   0  0  0  0  0  0  0  0  0  0  0  0
   -2.5436    9.1124  -23.0029 C   0  0  0  0  0  0  0  0  0  0  0  0
   -5.3444    7.4197  -19.0028 C   0  0  0  0  0  0  0  0  0  0  0  0
   -4.7892    7.3693  -17.7185 C   0  0  0  0  0  0  0  0  0  0  0  0
   -5.5450    7.7610  -23.5415 N   0  0  0  0  0  0  0  0  0  0  0  0
   -6.1177    6.4000  -21.9716 N   0  0  0  0  0  0  0  0  0  0  0  0
   -6.7553    5.3409  -21.1829 C   0  0  0  0  0  0  0  0  0  0  0  0
   -3.9441   10.2826  -21.6992 C   0  0  0  0  0  0  0  0  0  0  0  0
   -2.8186   10.9580  -21.8953 O   0  0  0  0  0  0  0  0  0  0  0  0
   -2.0028   10.2987  -22.6430 N   0  0  0  0  0  0  0  0  0  0  0  0
   -5.0733   10.7890  -20.8779 C   0  0  0  0  0  0  0  0  0  0  0  0
   -1.9147    8.0713  -23.8535 C   0  0  0  0  0  0  0  0  0  0  0  0
  1  2  2  0
  1 11  1  0
  2  3  1  0
  3  4  2  0
  4  5  1  0
  4 10  1  0
  5  6  2  0
  5 13  1  0
  6  8  1  0
  6 12  1  0
 12  7  2  0
  7 13  1  0
  8  9  1  0
  8 15  2  0
  9 17  2  0
 19  9  1  6
 10 11  2  0
 14 13  1  6
 15 16  1  0
 18 15  1  6
 16 17  1  0
M  END
$$$$
