
     RDKit          3D

 19 21  0  0  0  0  0  0  0  0999 V2000
   -6.1221   10.5609  -21.6190 N   0  0  0  0  0  0  0  0  0  0  0  0
   -6.2648    9.8194  -20.5129 C   0  0  0  0  0  0  0  0  0  0  0  0
   -5.7937    8.5214  -20.4768 C   0  0  0  0  0  0  0  0  0  0  0  0
   -5.1682    7.9444  -21.5563 C   0  0  0  0  0  0  0  0  0  0  0  0
   -4.6659    6.5627  -21.5266 C   0  0  0  0  0  0  0  0  0  0  0  0
   -3.6405    6.0944  -20.7292 C   0  0  0  0  0  0  0  0  0  0  0  0
   -4.4037    4.4299  -21.9347 C   0  0  0  0  0  0  0  0  0  0  0  0
   -2.8447    6.8516  -19.7828 C   0  0  0  0  0  0  0  0  0  0  0  0
   -1.8735    7.7867  -20.0765 C   0  0  0  0  0  0  0  0  0  0  0  0
   -5.0355    8.7293  -22.6786 C   0  0  0  0  0  0  0  0  0  0  0  0
   -5.5193   10.0430  -22.6967 C   0  0  0  0  0  0  0  0  0  0  0  0
   -3.5066    4.7804  -21.0056 N   0  0  0  0  0  0  0  0  0  0  0  0
   -5.1057    5.5196  -22.2470 N   0  0  0  0  0  0  0  0  0  0  0  0
   -6.2025    5.6448  -23.2123 C   0  0  0  0  0  0  0  0  0  0  0  0
   -2.9593    6.7416  -18.4154 C   0  0  0  0  0  0  0  0  0  0  0  0
   -2.0716    7.5972  -17.9240 O   0  0  0  0  0  0  0  0  0  0  0  0
   -1.4390    8.2062  -18.8664 N   0  0  0  0  0  0  0  0  0  0  0  0
   -3.8386    5.8943  -17.5699 C   0  0  0  0  0  0  0  0  0  0  0  0
   -1.3888    8.2456  -21.4022 C   0  0  0  0  0  0  0  0  0  0  0  0
  1  2  2  0
  1 11  1  0
  2  3  1  0
  3  4  2  0
  4  5  1  0
  4 10  1  0
  5  6  2  0
  5 13  1  0
  6  8  1  0
  6 12  1  0
 12  7  2  0
  7 13  1  0
  8  9  1  0
  8 15  2  0
  9 17  2  0
 19  9  1  6
 10 11  2  0
 14 13  1  6
 15 16  1  0
 18 15  1  6
 16 17  1  0
M  END
$$$$
