
     RDKit          3D

 19 21  0  0  0  0  0  0  0  0999 V2000
   -2.0700    6.8067  -17.2595 N   0  0  0  0  0  0  0  0  0  0  0  0
   -1.5146    7.7349  -18.0492 C   0  0  0  0  0  0  0  0  0  0  0  0
   -1.8292    7.7873  -19.3932 C   0  0  0  0  0  0  0  0  0  0  0  0
   -2.7113    6.9041  -19.9687 C   0  0  0  0  0  0  0  0  0  0  0  0
   -3.0499    6.9519  -21.3989 C   0  0  0  0  0  0  0  0  0  0  0  0
   -3.9509    7.8179  -21.9858 C   0  0  0  0  0  0  0  0  0  0  0  0
   -3.0988    6.5341  -23.5453 C   0  0  0  0  0  0  0  0  0  0  0  0
   -4.7523    8.8328  -21.3299 C   0  0  0  0  0  0  0  0  0  0  0  0
   -5.7660    8.6273  -20.4166 C   0  0  0  0  0  0  0  0  0  0  0  0
   -3.2665    5.9617  -19.1338 C   0  0  0  0  0  0  0  0  0  0  0  0
   -2.9357    5.9239  -17.7739 C   0  0  0  0  0  0  0  0  0  0  0  0
   -3.9557    7.5335  -23.3049 N   0  0  0  0  0  0  0  0  0  0  0  0
   -2.5512    6.1852  -22.3807 N   0  0  0  0  0  0  0  0  0  0  0  0
   -1.5534    5.1414  -22.1255 C   0  0  0  0  0  0  0  0  0  0  0  0
   -4.6003   10.1861  -21.5309 C   0  0  0  0  0  0  0  0  0  0  0  0
   -5.5083   10.7561  -20.7487 O   0  0  0  0  0  0  0  0  0  0  0  0
   -6.1870    9.8734  -20.1011 N   0  0  0  0  0  0  0  0  0  0  0  0
   -3.6683   10.9499  -22.3992 C   0  0  0  0  0  0  0  0  0  0  0  0
   -6.3005    7.3485  -19.8857 C   0  0  0  0  0  0  0  0  0  0  0  0
  1  2  2  0
  1 11  1  0
  2  3  1  0
  3  4  2  0
  4  5  1  0
  4 10  1  0
  5  6  2  0
  5 13  1  0
  6  8  1  0
  6 12  1  0
 12  7  2  0
  7 13  1  0
  8  9  1  0
  8 15  2  0
  9 17  2  0
 19  9  1  6
 10 11  2  0
 14 13  1  6
 15 16  1  0
 18 15  1  6
 16 17  1  0
M  END
$$$$
