
     RDKit          3D

 19 21  0  0  0  0  0  0  0  0999 V2000
   -3.6645    2.9572  -21.7101 N   0  0  0  0  0  0  0  0  0  0  0  0
   -4.8731    3.4857  -21.4413 C   0  0  0  0  0  0  0  0  0  0  0  0
   -5.1920    4.7877  -21.7712 C   0  0  0  0  0  0  0  0  0  0  0  0
   -4.2055    5.5310  -22.3957 C   0  0  0  0  0  0  0  0  0  0  0  0
   -4.4823    6.8963  -22.7645 C   0  0  0  0  0  0  0  0  0  0  0  0
   -4.3559    8.0044  -21.9520 C   0  0  0  0  0  0  0  0  0  0  0  0
   -5.0414    8.7374  -23.8544 C   0  0  0  0  0  0  0  0  0  0  0  0
   -3.9288    8.0899  -20.5576 C   0  0  0  0  0  0  0  0  0  0  0  0
   -4.7842    8.0229  -19.4666 C   0  0  0  0  0  0  0  0  0  0  0  0
   -2.9600    4.9898  -22.6739 C   0  0  0  0  0  0  0  0  0  0  0  0
   -2.6921    3.6827  -22.3232 C   0  0  0  0  0  0  0  0  0  0  0  0
   -4.7003    9.1090  -22.6343 N   0  0  0  0  0  0  0  0  0  0  0  0
   -4.9096    7.4037  -23.9314 N   0  0  0  0  0  0  0  0  0  0  0  0
   -5.2026    6.6468  -25.1347 C   0  0  0  0  0  0  0  0  0  0  0  0
   -2.6604    8.2428  -20.0734 C   0  0  0  0  0  0  0  0  0  0  0  0
   -2.7678    8.2643  -18.7641 O   0  0  0  0  0  0  0  0  0  0  0  0
   -4.0015    8.1368  -18.3906 N   0  0  0  0  0  0  0  0  0  0  0  0
   -1.3866    8.3639  -20.8607 C   0  0  0  0  0  0  0  0  0  0  0  0
   -6.2615    7.8570  -19.5538 C   0  0  0  0  0  0  0  0  0  0  0  0
  1  2  2  0
  1 11  1  0
  2  3  1  0
  3  4  2  0
  4  5  1  0
  4 10  1  0
  5  6  2  0
  5 13  1  0
  6  8  1  0
  6 12  1  0
 12  7  2  0
  7 13  1  0
  8  9  1  0
  8 15  2  0
  9 17  2  0
  9 19  1  0
 10 11  2  0
 13 14  1  0
 15 16  1  0
 15 18  1  0
 16 17  1  0
M  END
$$$$
