
     RDKit          3D

 19 21  0  0  0  0  0  0  0  0999 V2000
   -8.3889    5.5658  -22.5879 N   0  0  0  0  0  0  0  0  0  0  0  0
   -7.5858    5.5207  -23.6588 C   0  0  0  0  0  0  0  0  0  0  0  0
   -6.2169    5.6297  -23.5100 C   0  0  0  0  0  0  0  0  0  0  0  0
   -5.6294    5.7861  -22.2772 C   0  0  0  0  0  0  0  0  0  0  0  0
   -4.1732    5.9049  -22.1106 C   0  0  0  0  0  0  0  0  0  0  0  0
   -3.5109    6.9770  -21.5464 C   0  0  0  0  0  0  0  0  0  0  0  0
   -2.0289    5.4748  -22.1407 C   0  0  0  0  0  0  0  0  0  0  0  0
   -4.0948    8.1971  -21.0239 C   0  0  0  0  0  0  0  0  0  0  0  0
   -4.1872    8.5713  -19.6990 C   0  0  0  0  0  0  0  0  0  0  0  0
   -6.4785    5.8289  -21.1953 C   0  0  0  0  0  0  0  0  0  0  0  0
   -7.8636    5.7168  -21.3654 C   0  0  0  0  0  0  0  0  0  0  0  0
   -2.1952    6.6789  -21.5809 N   0  0  0  0  0  0  0  0  0  0  0  0
   -3.2369    5.0097  -22.4605 N   0  0  0  0  0  0  0  0  0  0  0  0
   -3.5770    3.7321  -23.0947 C   0  0  0  0  0  0  0  0  0  0  0  0
   -4.6489    9.1848  -21.8063 C   0  0  0  0  0  0  0  0  0  0  0  0
   -5.0551   10.1157  -20.9520 O   0  0  0  0  0  0  0  0  0  0  0  0
   -4.7969    9.7781  -19.7361 N   0  0  0  0  0  0  0  0  0  0  0  0
   -4.8114    9.2941  -23.2786 C   0  0  0  0  0  0  0  0  0  0  0  0
   -3.7375    7.8405  -18.4879 C   0  0  0  0  0  0  0  0  0  0  0  0
  1  2  2  0
  1 11  1  0
  2  3  1  0
  3  4  2  0
  4  5  1  0
  4 10  1  0
  5  6  2  0
  5 13  1  0
  6  8  1  0
  6 12  1  0
 12  7  2  0
  7 13  1  0
  8  9  1  0
  8 15  2  0
  9 17  2  0
 19  9  1  6
 10 11  2  0
 14 13  1  6
 15 16  1  0
 18 15  1  6
 16 17  1  0
M  END
$$$$
