
     RDKit          3D

 19 21  0  0  0  0  0  0  0  0999 V2000
   -4.4622    4.3373  -18.3210 N   0  0  0  0  0  0  0  0  0  0  0  0
   -3.3071    4.9890  -18.5520 C   0  0  0  0  0  0  0  0  0  0  0  0
   -3.0207    5.5586  -19.7765 C   0  0  0  0  0  0  0  0  0  0  0  0
   -3.9822    5.4285  -20.7635 C   0  0  0  0  0  0  0  0  0  0  0  0
   -3.7383    6.0043  -22.0618 C   0  0  0  0  0  0  0  0  0  0  0  0
   -4.2418    7.1991  -22.5340 C   0  0  0  0  0  0  0  0  0  0  0  0
   -3.0351    6.3938  -24.1219 C   0  0  0  0  0  0  0  0  0  0  0  0
   -5.1225    8.1609  -21.8755 C   0  0  0  0  0  0  0  0  0  0  0  0
   -4.7255    9.0322  -20.8706 C   0  0  0  0  0  0  0  0  0  0  0  0
   -5.1726    4.7580  -20.5289 C   0  0  0  0  0  0  0  0  0  0  0  0
   -5.4098    4.2065  -19.2867 C   0  0  0  0  0  0  0  0  0  0  0  0
   -3.8020    7.4143  -23.7848 N   0  0  0  0  0  0  0  0  0  0  0  0
   -2.9978    5.5449  -23.0827 N   0  0  0  0  0  0  0  0  0  0  0  0
   -2.2460    4.3033  -23.1005 C   0  0  0  0  0  0  0  0  0  0  0  0
   -6.4497    8.3851  -22.1099 C   0  0  0  0  0  0  0  0  0  0  0  0
   -6.8118    9.3401  -21.2834 O   0  0  0  0  0  0  0  0  0  0  0  0
   -5.8176    9.7312  -20.5510 N   0  0  0  0  0  0  0  0  0  0  0  0
   -7.3349    7.6917  -23.1062 C   0  0  0  0  0  0  0  0  0  0  0  0
   -3.3474    9.1149  -20.3126 C   0  0  0  0  0  0  0  0  0  0  0  0
  1  2  2  0
  1 11  1  0
  2  3  1  0
  3  4  2  0
  4  5  1  0
  4 10  1  0
  5  6  2  0
  5 13  1  0
  6  8  1  0
  6 12  1  0
 12  7  2  0
  7 13  1  0
  8  9  1  0
  8 15  2  0
  9 17  2  0
  9 19  1  0
 10 11  2  0
 13 14  1  0
 15 16  1  0
 15 18  1  0
 16 17  1  0
M  END
$$$$
