
     RDKit          3D

 19 21  0  0  0  0  0  0  0  0999 V2000
   -0.9607    7.5519  -17.5487 N   0  0  0  0  0  0  0  0  0  0  0  0
   -0.4569    8.1347  -18.6527 C   0  0  0  0  0  0  0  0  0  0  0  0
   -1.0623    8.0096  -19.8870 C   0  0  0  0  0  0  0  0  0  0  0  0
   -2.2196    7.2523  -19.9387 C   0  0  0  0  0  0  0  0  0  0  0  0
   -2.8957    7.0879  -21.2007 C   0  0  0  0  0  0  0  0  0  0  0  0
   -4.1559    7.5508  -21.5195 C   0  0  0  0  0  0  0  0  0  0  0  0
   -3.4280    6.5496  -23.2785 C   0  0  0  0  0  0  0  0  0  0  0  0
   -5.1061    8.2978  -20.6990 C   0  0  0  0  0  0  0  0  0  0  0  0
   -6.2061    7.7394  -20.0627 C   0  0  0  0  0  0  0  0  0  0  0  0
   -2.7409    6.6508  -18.8038 C   0  0  0  0  0  0  0  0  0  0  0  0
   -2.0969    6.8070  -17.5938 C   0  0  0  0  0  0  0  0  0  0  0  0
   -4.4571    7.2127  -22.7841 N   0  0  0  0  0  0  0  0  0  0  0  0
   -2.4879    6.4751  -22.3231 N   0  0  0  0  0  0  0  0  0  0  0  0
   -1.2127    5.8093  -22.5166 C   0  0  0  0  0  0  0  0  0  0  0  0
   -5.0989    9.6324  -20.4065 C   0  0  0  0  0  0  0  0  0  0  0  0
   -6.1426    9.8449  -19.6372 O   0  0  0  0  0  0  0  0  0  0  0  0
   -6.8019    8.7503  -19.4250 N   0  0  0  0  0  0  0  0  0  0  0  0
   -4.1077   10.6656  -20.8617 C   0  0  0  0  0  0  0  0  0  0  0  0
   -6.5829    6.3001  -20.1230 C   0  0  0  0  0  0  0  0  0  0  0  0
  1  2  2  0
  1 11  1  0
  2  3  1  0
  3  4  2  0
  4  5  1  0
  4 10  1  0
  5  6  2  0
  5 13  1  0
  6  8  1  0
  6 12  1  0
 12  7  2  0
  7 13  1  0
  8  9  1  0
  8 15  2  0
  9 17  2  0
  9 19  1  0
 10 11  2  0
 13 14  1  0
 15 16  1  0
 15 18  1  0
 16 17  1  0
M  END
$$$$
