
     RDKit          3D

 19 21  0  0  0  0  0  0  0  0999 V2000
   -2.4484    2.5880  -24.4802 N   0  0  0  0  0  0  0  0  0  0  0  0
   -2.7545    3.5574  -25.3521 C   0  0  0  0  0  0  0  0  0  0  0  0
   -3.0982    4.8176  -24.9028 C   0  0  0  0  0  0  0  0  0  0  0  0
   -3.1400    5.1262  -23.5640 C   0  0  0  0  0  0  0  0  0  0  0  0
   -3.5069    6.4645  -23.0776 C   0  0  0  0  0  0  0  0  0  0  0  0
   -4.7408    6.8305  -22.5775 C   0  0  0  0  0  0  0  0  0  0  0  0
   -3.4153    8.5755  -22.5128 C   0  0  0  0  0  0  0  0  0  0  0  0
   -5.9193    5.9966  -22.4433 C   0  0  0  0  0  0  0  0  0  0  0  0
   -6.4218    5.4515  -21.2796 C   0  0  0  0  0  0  0  0  0  0  0  0
   -2.8208    4.1111  -22.6915 C   0  0  0  0  0  0  0  0  0  0  0  0
   -2.4747    2.8400  -23.1654 C   0  0  0  0  0  0  0  0  0  0  0  0
   -4.6488    8.1338  -22.2400 N   0  0  0  0  0  0  0  0  0  0  0  0
   -2.7260    7.5542  -23.0222 N   0  0  0  0  0  0  0  0  0  0  0  0
   -1.3310    7.5385  -23.4740 C   0  0  0  0  0  0  0  0  0  0  0  0
   -6.7289    5.6288  -23.4942 C   0  0  0  0  0  0  0  0  0  0  0  0
   -7.6840    4.8845  -22.9510 O   0  0  0  0  0  0  0  0  0  0  0  0
   -7.5218    4.7729  -21.6781 N   0  0  0  0  0  0  0  0  0  0  0  0
   -6.6511    5.9343  -24.9456 C   0  0  0  0  0  0  0  0  0  0  0  0
   -5.8983    5.5597  -19.8949 C   0  0  0  0  0  0  0  0  0  0  0  0
  1  2  2  0
  1 11  1  0
  2  3  1  0
  3  4  2  0
  4  5  1  0
  4 10  1  0
  5  6  2  0
  5 13  1  0
  6  8  1  0
  6 12  1  0
 12  7  2  0
  7 13  1  0
  8  9  1  0
  8 15  2  0
  9 17  2  0
 19  9  1  6
 10 11  2  0
 14 13  1  6
 15 16  1  0
 18 15  1  6
 16 17  1  0
M  END
$$$$
