
     RDKit          3D

 19 21  0  0  0  0  0  0  0  0999 V2000
   -5.0828    3.1765  -21.9938 N   0  0  0  0  0  0  0  0  0  0  0  0
   -5.0896    3.9623  -23.0869 C   0  0  0  0  0  0  0  0  0  0  0  0
   -4.3586    5.1316  -23.1519 C   0  0  0  0  0  0  0  0  0  0  0  0
   -3.6124    5.4620  -22.0340 C   0  0  0  0  0  0  0  0  0  0  0  0
   -2.8283    6.6710  -22.0452 C   0  0  0  0  0  0  0  0  0  0  0  0
   -3.1012    7.8290  -21.3464 C   0  0  0  0  0  0  0  0  0  0  0  0
   -1.2860    8.2067  -22.4366 C   0  0  0  0  0  0  0  0  0  0  0  0
   -4.2121    8.1313  -20.4471 C   0  0  0  0  0  0  0  0  0  0  0  0
   -5.4606    8.5760  -20.8599 C   0  0  0  0  0  0  0  0  0  0  0  0
   -3.6032    4.6551  -20.9069 C   0  0  0  0  0  0  0  0  0  0  0  0
   -4.3518    3.4963  -20.8932 C   0  0  0  0  0  0  0  0  0  0  0  0
   -2.1527    8.7459  -21.5992 N   0  0  0  0  0  0  0  0  0  0  0  0
   -1.6945    6.9564  -22.7046 N   0  0  0  0  0  0  0  0  0  0  0  0
   -0.9783    6.0630  -23.5966 C   0  0  0  0  0  0  0  0  0  0  0  0
   -4.2419    8.0377  -19.0844 C   0  0  0  0  0  0  0  0  0  0  0  0
   -5.4476    8.4089  -18.7175 O   0  0  0  0  0  0  0  0  0  0  0  0
   -6.1744    8.7271  -19.7414 N   0  0  0  0  0  0  0  0  0  0  0  0
   -3.1321    7.6008  -18.1708 C   0  0  0  0  0  0  0  0  0  0  0  0
   -5.8526    8.8135  -22.2767 C   0  0  0  0  0  0  0  0  0  0  0  0
  1  2  2  0
  1 11  1  0
  2  3  1  0
  3  4  2  0
  4  5  1  0
  4 10  1  0
  5  6  2  0
  5 13  1  0
  6  8  1  0
  6 12  1  0
 12  7  2  0
  7 13  1  0
  8  9  1  0
  8 15  2  0
  9 17  2  0
  9 19  1  0
 10 11  2  0
 13 14  1  0
 15 16  1  0
 15 18  1  0
 16 17  1  0
M  END
$$$$
