
     RDKit          3D

 19 21  0  0  0  0  0  0  0  0999 V2000
   -2.6450    6.7970  -17.2886 N   0  0  0  0  0  0  0  0  0  0  0  0
   -2.0177    6.0841  -18.2332 C   0  0  0  0  0  0  0  0  0  0  0  0
   -2.1016    6.4573  -19.5605 C   0  0  0  0  0  0  0  0  0  0  0  0
   -2.8201    7.5580  -19.9627 C   0  0  0  0  0  0  0  0  0  0  0  0
   -2.9159    7.9605  -21.3737 C   0  0  0  0  0  0  0  0  0  0  0  0
   -4.0001    7.7466  -22.2014 C   0  0  0  0  0  0  0  0  0  0  0  0
   -2.4497    8.7992  -23.3392 C   0  0  0  0  0  0  0  0  0  0  0  0
   -5.2435    7.0785  -21.8694 C   0  0  0  0  0  0  0  0  0  0  0  0
   -5.5495    5.7480  -22.0696 C   0  0  0  0  0  0  0  0  0  0  0  0
   -3.4538    8.2712  -18.9712 C   0  0  0  0  0  0  0  0  0  0  0  0
   -3.3574    7.8779  -17.6309 C   0  0  0  0  0  0  0  0  0  0  0  0
   -3.6794    8.2748  -23.4011 N   0  0  0  0  0  0  0  0  0  0  0  0
   -1.9913    8.6042  -22.1025 N   0  0  0  0  0  0  0  0  0  0  0  0
   -0.6945    9.0004  -21.5442 C   0  0  0  0  0  0  0  0  0  0  0  0
   -6.3218    7.7010  -21.2824 C   0  0  0  0  0  0  0  0  0  0  0  0
   -7.2370    6.7499  -21.1437 O   0  0  0  0  0  0  0  0  0  0  0  0
   -6.8083    5.6208  -21.5916 N   0  0  0  0  0  0  0  0  0  0  0  0
   -6.5293    9.1087  -20.8566 C   0  0  0  0  0  0  0  0  0  0  0  0
   -4.7161    4.6780  -22.6726 C   0  0  0  0  0  0  0  0  0  0  0  0
  1  2  2  0
  1 11  1  0
  2  3  1  0
  3  4  2  0
  4  5  1  0
  4 10  1  0
  5  6  2  0
  5 13  1  0
  6  8  1  0
  6 12  1  0
 12  7  2  0
  7 13  1  0
  8  9  1  0
  8 15  2  0
  9 17  2  0
 19  9  1  6
 10 11  2  0
 14 13  1  6
 15 16  1  0
 18 15  1  6
 16 17  1  0
M  END
$$$$
