
     RDKit          3D

 19 21  0  0  0  0  0  0  0  0999 V2000
   -2.9205    7.1793  -17.2015 N   0  0  0  0  0  0  0  0  0  0  0  0
   -2.3800    6.3654  -18.1176 C   0  0  0  0  0  0  0  0  0  0  0  0
   -2.9268    6.2778  -19.3831 C   0  0  0  0  0  0  0  0  0  0  0  0
   -4.0305    7.0100  -19.7509 C   0  0  0  0  0  0  0  0  0  0  0  0
   -4.6197    6.9208  -21.0952 C   0  0  0  0  0  0  0  0  0  0  0  0
   -4.4766    7.8547  -22.1020 C   0  0  0  0  0  0  0  0  0  0  0  0
   -5.7188    6.2092  -22.8472 C   0  0  0  0  0  0  0  0  0  0  0  0
   -3.7447    9.1052  -22.0458 C   0  0  0  0  0  0  0  0  0  0  0  0
   -2.3752    9.2676  -22.0910 C   0  0  0  0  0  0  0  0  0  0  0  0
   -4.5644    7.8374  -18.7898 C   0  0  0  0  0  0  0  0  0  0  0  0
   -3.9966    7.9132  -17.5123 C   0  0  0  0  0  0  0  0  0  0  0  0
   -5.1644    7.3854  -23.1638 N   0  0  0  0  0  0  0  0  0  0  0  0
   -5.3830    5.9328  -21.5868 N   0  0  0  0  0  0  0  0  0  0  0  0
   -5.7464    4.7569  -20.7896 C   0  0  0  0  0  0  0  0  0  0  0  0
   -4.3378   10.3432  -21.9435 C   0  0  0  0  0  0  0  0  0  0  0  0
   -3.3317   11.2087  -21.9300 O   0  0  0  0  0  0  0  0  0  0  0  0
   -2.1964   10.6061  -22.0142 N   0  0  0  0  0  0  0  0  0  0  0  0
   -5.7659   10.7426  -21.8597 C   0  0  0  0  0  0  0  0  0  0  0  0
   -1.3146    8.2344  -22.1940 C   0  0  0  0  0  0  0  0  0  0  0  0
  1  2  2  0
  1 11  1  0
  2  3  1  0
  3  4  2  0
  4  5  1  0
  4 10  1  0
  5  6  2  0
  5 13  1  0
  6  8  1  0
  6 12  1  0
 12  7  2  0
  7 13  1  0
  8  9  1  0
  8 15  2  0
  9 17  2  0
 19  9  1  6
 10 11  2  0
 14 13  1  6
 15 16  1  0
 18 15  1  6
 16 17  1  0
M  END
$$$$
