
     RDKit          3D

 19 21  0  0  0  0  0  0  0  0999 V2000
   -3.6755   11.1077  -22.8523 N   0  0  0  0  0  0  0  0  0  0  0  0
   -3.3808   10.1167  -23.7038 C   0  0  0  0  0  0  0  0  0  0  0  0
   -3.8325    8.8334  -23.4648 C   0  0  0  0  0  0  0  0  0  0  0  0
   -4.5913    8.5230  -22.3615 C   0  0  0  0  0  0  0  0  0  0  0  0
   -5.0741    7.1591  -22.0989 C   0  0  0  0  0  0  0  0  0  0  0  0
   -4.7101    6.3669  -21.0282 C   0  0  0  0  0  0  0  0  0  0  0  0
   -6.1392    5.2560  -22.2649 C   0  0  0  0  0  0  0  0  0  0  0  0
   -3.7806    6.6959  -19.9651 C   0  0  0  0  0  0  0  0  0  0  0  0
   -4.0758    6.8646  -18.6278 C   0  0  0  0  0  0  0  0  0  0  0  0
   -4.8786    9.5604  -21.5044 C   0  0  0  0  0  0  0  0  0  0  0  0
   -4.4122   10.8549  -21.7630 C   0  0  0  0  0  0  0  0  0  0  0  0
   -5.3834    5.2051  -21.1617 N   0  0  0  0  0  0  0  0  0  0  0  0
   -5.9460    6.4480  -22.8301 N   0  0  0  0  0  0  0  0  0  0  0  0
   -6.5519    6.9783  -24.0557 C   0  0  0  0  0  0  0  0  0  0  0  0
   -2.4297    6.8841  -20.1510 C   0  0  0  0  0  0  0  0  0  0  0  0
   -1.9491    7.1564  -18.9443 O   0  0  0  0  0  0  0  0  0  0  0  0
   -2.8830    7.1490  -18.0572 N   0  0  0  0  0  0  0  0  0  0  0  0
   -1.5903    6.8223  -21.3747 C   0  0  0  0  0  0  0  0  0  0  0  0
   -5.3883    6.7692  -17.9413 C   0  0  0  0  0  0  0  0  0  0  0  0
  1  2  2  0
  1 11  1  0
  2  3  1  0
  3  4  2  0
  4  5  1  0
  4 10  1  0
  5  6  2  0
  5 13  1  0
  6  8  1  0
  6 12  1  0
 12  7  2  0
  7 13  1  0
  8  9  1  0
  8 15  2  0
  9 17  2  0
 19  9  1  6
 10 11  2  0
 14 13  1  6
 15 16  1  0
 18 15  1  6
 16 17  1  0
M  END
$$$$
