
     RDKit          3D

 19 21  0  0  0  0  0  0  0  0999 V2000
   -5.0083    3.2538  -21.9255 N   0  0  0  0  0  0  0  0  0  0  0  0
   -3.7700    3.4646  -21.4412 C   0  0  0  0  0  0  0  0  0  0  0  0
   -3.1315    4.6817  -21.5701 C   0  0  0  0  0  0  0  0  0  0  0  0
   -3.8272    5.6832  -22.2247 C   0  0  0  0  0  0  0  0  0  0  0  0
   -3.2107    6.9756  -22.3877 C   0  0  0  0  0  0  0  0  0  0  0  0
   -3.3174    8.0471  -21.5249 C   0  0  0  0  0  0  0  0  0  0  0  0
   -2.0553    8.7057  -23.1372 C   0  0  0  0  0  0  0  0  0  0  0  0
   -4.0543    8.1581  -20.2684 C   0  0  0  0  0  0  0  0  0  0  0  0
   -3.5202    7.8887  -19.0159 C   0  0  0  0  0  0  0  0  0  0  0  0
   -5.1024    5.4694  -22.7245 C   0  0  0  0  0  0  0  0  0  0  0  0
   -5.6960    4.2338  -22.5692 C   0  0  0  0  0  0  0  0  0  0  0  0
   -2.6086    9.0845  -21.9999 N   0  0  0  0  0  0  0  0  0  0  0  0
   -2.4191    7.4347  -23.3697 N   0  0  0  0  0  0  0  0  0  0  0  0
   -1.9935    6.6904  -24.5409 C   0  0  0  0  0  0  0  0  0  0  0  0
   -5.3548    8.5346  -20.0854 C   0  0  0  0  0  0  0  0  0  0  0  0
   -5.5714    8.4881  -18.7904 O   0  0  0  0  0  0  0  0  0  0  0  0
   -4.5106    8.1128  -18.1487 N   0  0  0  0  0  0  0  0  0  0  0  0
   -6.3528    8.9267  -21.1379 C   0  0  0  0  0  0  0  0  0  0  0  0
   -2.1209    7.4448  -18.7662 C   0  0  0  0  0  0  0  0  0  0  0  0
  1  2  2  0
  1 11  1  0
  2  3  1  0
  3  4  2  0
  4  5  1  0
  4 10  1  0
  5  6  2  0
  5 13  1  0
  6  8  1  0
  6 12  1  0
 12  7  2  0
  7 13  1  0
  8  9  1  0
  8 15  2  0
  9 17  2  0
  9 19  1  0
 10 11  2  0
 13 14  1  0
 15 16  1  0
 15 18  1  0
 16 17  1  0
M  END
$$$$
