
     RDKit          3D

 19 21  0  0  0  0  0  0  0  0999 V2000
   -2.4366    6.2632  -17.2206 N   0  0  0  0  0  0  0  0  0  0  0  0
   -1.5519    6.7280  -18.1123 C   0  0  0  0  0  0  0  0  0  0  0  0
   -1.8698    6.7674  -19.4559 C   0  0  0  0  0  0  0  0  0  0  0  0
   -3.0875    6.3387  -19.9282 C   0  0  0  0  0  0  0  0  0  0  0  0
   -3.4327    6.3754  -21.3571 C   0  0  0  0  0  0  0  0  0  0  0  0
   -3.9341    7.4670  -22.0378 C   0  0  0  0  0  0  0  0  0  0  0  0
   -3.7260    5.8004  -23.4469 C   0  0  0  0  0  0  0  0  0  0  0  0
   -4.2374    8.7782  -21.4982 C   0  0  0  0  0  0  0  0  0  0  0  0
   -3.4203    9.8900  -21.5112 C   0  0  0  0  0  0  0  0  0  0  0  0
   -3.9763    5.8666  -18.9899 C   0  0  0  0  0  0  0  0  0  0  0  0
   -3.6366    5.8343  -17.6321 C   0  0  0  0  0  0  0  0  0  0  0  0
   -4.1022    7.0784  -23.3191 N   0  0  0  0  0  0  0  0  0  0  0  0
   -3.3198    5.3792  -22.2489 N   0  0  0  0  0  0  0  0  0  0  0  0
   -2.8134    4.0538  -21.8785 C   0  0  0  0  0  0  0  0  0  0  0  0
   -5.4257    9.1049  -20.8848 C   0  0  0  0  0  0  0  0  0  0  0  0
   -5.3014   10.3827  -20.5483 O   0  0  0  0  0  0  0  0  0  0  0  0
   -4.1539   10.8490  -20.9016 N   0  0  0  0  0  0  0  0  0  0  0  0
   -6.6403    8.2966  -20.6065 C   0  0  0  0  0  0  0  0  0  0  0  0
   -2.0466   10.0338  -22.0547 C   0  0  0  0  0  0  0  0  0  0  0  0
  1  2  2  0
  1 11  1  0
  2  3  1  0
  3  4  2  0
  4  5  1  0
  4 10  1  0
  5  6  2  0
  5 13  1  0
  6  8  1  0
  6 12  1  0
 12  7  2  0
  7 13  1  0
  8  9  1  0
  8 15  2  0
  9 17  2  0
 19  9  1  6
 10 11  2  0
 14 13  1  6
 15 16  1  0
 18 15  1  6
 16 17  1  0
M  END
$$$$
