
     RDKit          3D

 19 21  0  0  0  0  0  0  0  0999 V2000
   -2.8679    7.9008  -17.1869 N   0  0  0  0  0  0  0  0  0  0  0  0
   -3.1960    6.7445  -17.7778 C   0  0  0  0  0  0  0  0  0  0  0  0
   -3.2705    6.6604  -19.1545 C   0  0  0  0  0  0  0  0  0  0  0  0
   -3.0153    7.7415  -19.9642 C   0  0  0  0  0  0  0  0  0  0  0  0
   -3.0946    7.6607  -21.4303 C   0  0  0  0  0  0  0  0  0  0  0  0
   -4.2414    7.4328  -22.1645 C   0  0  0  0  0  0  0  0  0  0  0  0
   -2.5596    7.6675  -23.5510 C   0  0  0  0  0  0  0  0  0  0  0  0
   -5.5821    7.2120  -21.6581 C   0  0  0  0  0  0  0  0  0  0  0  0
   -6.3960    8.1355  -21.0347 C   0  0  0  0  0  0  0  0  0  0  0  0
   -2.6808    8.9159  -19.3300 C   0  0  0  0  0  0  0  0  0  0  0  0
   -2.6101    8.9823  -17.9333 C   0  0  0  0  0  0  0  0  0  0  0  0
   -3.8761    7.4438  -23.4635 N   0  0  0  0  0  0  0  0  0  0  0  0
   -2.0906    7.7986  -22.3098 N   0  0  0  0  0  0  0  0  0  0  0  0
   -0.7108    8.0556  -21.8852 C   0  0  0  0  0  0  0  0  0  0  0  0
   -6.2505    6.0114  -21.7400 C   0  0  0  0  0  0  0  0  0  0  0  0
   -7.4308    6.2334  -21.1752 O   0  0  0  0  0  0  0  0  0  0  0  0
   -7.5303    7.4501  -20.7644 N   0  0  0  0  0  0  0  0  0  0  0  0
   -5.8453    4.7001  -22.3078 C   0  0  0  0  0  0  0  0  0  0  0  0
   -6.1202    9.5581  -20.7137 C   0  0  0  0  0  0  0  0  0  0  0  0
  1  2  2  0
  1 11  1  0
  2  3  1  0
  3  4  2  0
  4  5  1  0
  4 10  1  0
  5  6  2  0
  5 13  1  0
  6  8  1  0
  6 12  1  0
 12  7  2  0
  7 13  1  0
  8  9  1  0
  8 15  2  0
  9 17  2  0
 19  9  1  6
 10 11  2  0
 14 13  1  6
 15 16  1  0
 18 15  1  6
 16 17  1  0
M  END
$$$$
