
     RDKit          3D

 19 21  0  0  0  0  0  0  0  0999 V2000
   -9.0528    1.4916  -19.7407 N   0  0  0  0  0  0  0  0  0  0  0  0
   -8.9775    2.8035  -20.0334 C   0  0  0  0  0  0  0  0  0  0  0  0
   -8.7291    3.2541  -21.3145 C   0  0  0  0  0  0  0  0  0  0  0  0
   -8.5596    2.2889  -22.2918 C   0  0  0  0  0  0  0  0  0  0  0  0
   -8.2989    2.7008  -23.6480 C   0  0  0  0  0  0  0  0  0  0  0  0
   -9.2358    3.1233  -24.5686 C   0  0  0  0  0  0  0  0  0  0  0  0
   -7.3353    3.2101  -25.5721 C   0  0  0  0  0  0  0  0  0  0  0  0
  -10.6833    3.2590  -24.4254 C   0  0  0  0  0  0  0  0  0  0  0  0
  -11.3561    4.4702  -24.3423 C   0  0  0  0  0  0  0  0  0  0  0  0
   -8.6365    0.9373  -21.9937 C   0  0  0  0  0  0  0  0  0  0  0  0
   -8.8871    0.5395  -20.6967 C   0  0  0  0  0  0  0  0  0  0  0  0
   -8.6284    3.4267  -25.7277 N   0  0  0  0  0  0  0  0  0  0  0  0
   -7.1382    2.7726  -24.3184 N   0  0  0  0  0  0  0  0  0  0  0  0
   -5.8281    2.4307  -23.7954 C   0  0  0  0  0  0  0  0  0  0  0  0
  -11.6189    2.2661  -24.3513 C   0  0  0  0  0  0  0  0  0  0  0  0
  -12.7815    2.8660  -24.2308 O   0  0  0  0  0  0  0  0  0  0  0  0
  -12.6482    4.1544  -24.2239 N   0  0  0  0  0  0  0  0  0  0  0  0
  -11.3870    0.7824  -24.3965 C   0  0  0  0  0  0  0  0  0  0  0  0
  -10.7050    5.8088  -24.3838 C   0  0  0  0  0  0  0  0  0  0  0  0
  1  2  2  0
  1 11  1  0
  2  3  1  0
  3  4  2  0
  4  5  1  0
  4 10  1  0
  5  6  2  0
  5 13  1  0
  6  8  1  0
  6 12  1  0
 12  7  2  0
  7 13  1  0
  8  9  1  0
  8 15  2  0
  9 17  2  0
  9 19  1  0
 10 11  2  0
 13 14  1  0
 15 16  1  0
 15 18  1  0
 16 17  1  0
M  END
$$$$
