
     RDKit          3D

 19 21  0  0  0  0  0  0  0  0999 V2000
   -0.1213    8.6676  -19.9679 N   0  0  0  0  0  0  0  0  0  0  0  0
   -0.8260    7.8194  -19.1956 C   0  0  0  0  0  0  0  0  0  0  0  0
   -1.9196    7.1283  -19.6773 C   0  0  0  0  0  0  0  0  0  0  0  0
   -2.2615    7.3483  -21.0003 C   0  0  0  0  0  0  0  0  0  0  0  0
   -3.3939    6.6530  -21.5581 C   0  0  0  0  0  0  0  0  0  0  0  0
   -4.7200    7.0093  -21.4224 C   0  0  0  0  0  0  0  0  0  0  0  0
   -4.7038    5.2257  -22.6244 C   0  0  0  0  0  0  0  0  0  0  0  0
   -5.3102    8.1371  -20.7055 C   0  0  0  0  0  0  0  0  0  0  0  0
   -5.8382    8.0659  -19.4238 C   0  0  0  0  0  0  0  0  0  0  0  0
   -1.5381    8.2210  -21.7981 C   0  0  0  0  0  0  0  0  0  0  0  0
   -0.4528    8.8875  -21.2677 C   0  0  0  0  0  0  0  0  0  0  0  0
   -5.4956    6.1295  -22.0773 N   0  0  0  0  0  0  0  0  0  0  0  0
   -3.4376    5.5423  -22.3106 N   0  0  0  0  0  0  0  0  0  0  0  0
   -2.2944    4.7605  -22.7450 C   0  0  0  0  0  0  0  0  0  0  0  0
   -5.4502    9.4269  -21.1339 C   0  0  0  0  0  0  0  0  0  0  0  0
   -6.0312   10.0784  -20.1521 O   0  0  0  0  0  0  0  0  0  0  0  0
   -6.2656    9.2997  -19.1439 N   0  0  0  0  0  0  0  0  0  0  0  0
   -5.0314   10.0046  -22.4561 C   0  0  0  0  0  0  0  0  0  0  0  0
   -5.8847    6.8324  -18.5910 C   0  0  0  0  0  0  0  0  0  0  0  0
  1  2  2  0
  1 11  1  0
  2  3  1  0
  3  4  2  0
  4  5  1  0
  4 10  1  0
  5  6  2  0
  5 13  1  0
  6  8  1  0
  6 12  1  0
 12  7  2  0
  7 13  1  0
  8  9  1  0
  8 15  2  0
  9 17  2  0
  9 19  1  0
 10 11  2  0
 13 14  1  0
 15 16  1  0
 15 18  1  0
 16 17  1  0
M  END
$$$$
