
     RDKit          3D

 19 21  0  0  0  0  0  0  0  0999 V2000
    3.5861    6.7319  -13.7067 N   0  0  0  0  0  0  0  0  0  0  0  0
    2.6330    6.9590  -12.7935 C   0  0  0  0  0  0  0  0  0  0  0  0
    2.9652    7.1179  -11.4622 C   0  0  0  0  0  0  0  0  0  0  0  0
    4.2665    7.0513  -11.0243 C   0  0  0  0  0  0  0  0  0  0  0  0
    4.6282    7.2172   -9.6087 C   0  0  0  0  0  0  0  0  0  0  0  0
    5.1120    6.2259   -8.7783 C   0  0  0  0  0  0  0  0  0  0  0  0
    4.9856    8.0931   -7.6366 C   0  0  0  0  0  0  0  0  0  0  0  0
    5.3462    4.8343   -9.1118 C   0  0  0  0  0  0  0  0  0  0  0  0
    4.3973    3.8407   -9.2396 C   0  0  0  0  0  0  0  0  0  0  0  0
    5.2243    6.8171  -11.9841 C   0  0  0  0  0  0  0  0  0  0  0  0
    4.8687    6.6586  -13.3289 C   0  0  0  0  0  0  0  0  0  0  0  0
    5.3210    6.7990   -7.5747 N   0  0  0  0  0  0  0  0  0  0  0  0
    4.5649    8.3405   -8.8774 N   0  0  0  0  0  0  0  0  0  0  0  0
    4.0926    9.6108   -9.4373 C   0  0  0  0  0  0  0  0  0  0  0  0
    6.5895    4.2988   -9.3619 C   0  0  0  0  0  0  0  0  0  0  0  0
    6.3669    3.0182   -9.6304 O   0  0  0  0  0  0  0  0  0  0  0  0
    5.1112    2.7388   -9.5643 N   0  0  0  0  0  0  0  0  0  0  0  0
    7.9409    4.9148   -9.3608 C   0  0  0  0  0  0  0  0  0  0  0  0
    2.9260    3.9255   -9.0629 C   0  0  0  0  0  0  0  0  0  0  0  0
  1  2  2  0
  1 11  1  0
  2  3  1  0
  3  4  2  0
  4  5  1  0
  4 10  1  0
  5  6  2  0
  5 13  1  0
  6  8  1  0
  6 12  1  0
 12  7  2  0
  7 13  1  0
  8  9  1  0
  8 15  2  0
  9 17  2  0
 19  9  1  6
 10 11  2  0
 14 13  1  6
 15 16  1  0
 18 15  1  6
 16 17  1  0
M  END
$$$$
