
     RDKit          3D

 19 21  0  0  0  0  0  0  0  0999 V2000
   -2.0460    6.8647  -17.1186 N   0  0  0  0  0  0  0  0  0  0  0  0
   -3.1033    7.6665  -17.3461 C   0  0  0  0  0  0  0  0  0  0  0  0
   -3.4362    8.0958  -18.6152 C   0  0  0  0  0  0  0  0  0  0  0  0
   -2.6278    7.6614  -19.6511 C   0  0  0  0  0  0  0  0  0  0  0  0
   -2.9280    8.0770  -20.9980 C   0  0  0  0  0  0  0  0  0  0  0  0
   -4.1348    7.9273  -21.6500 C   0  0  0  0  0  0  0  0  0  0  0  0
   -2.8201    8.8975  -23.0486 C   0  0  0  0  0  0  0  0  0  0  0  0
   -5.3803    7.3306  -21.1736 C   0  0  0  0  0  0  0  0  0  0  0  0
   -5.6189    5.9656  -21.0930 C   0  0  0  0  0  0  0  0  0  0  0  0
   -1.5384    6.8359  -19.4203 C   0  0  0  0  0  0  0  0  0  0  0  0
   -1.2488    6.4352  -18.1324 C   0  0  0  0  0  0  0  0  0  0  0  0
   -4.0456    8.4321  -22.8916 N   0  0  0  0  0  0  0  0  0  0  0  0
   -2.1477    8.6827  -21.9068 N   0  0  0  0  0  0  0  0  0  0  0  0
   -0.7607    9.0674  -21.7197 C   0  0  0  0  0  0  0  0  0  0  0  0
   -6.5042    7.9686  -20.7304 C   0  0  0  0  0  0  0  0  0  0  0  0
   -7.3583    7.0243  -20.4065 O   0  0  0  0  0  0  0  0  0  0  0  0
   -6.8588    5.8469  -20.6113 N   0  0  0  0  0  0  0  0  0  0  0  0
   -6.7374    9.4491  -20.6261 C   0  0  0  0  0  0  0  0  0  0  0  0
   -4.6452    4.9081  -21.4817 C   0  0  0  0  0  0  0  0  0  0  0  0
  1  2  2  0
  1 11  1  0
  2  3  1  0
  3  4  2  0
  4  5  1  0
  4 10  1  0
  5  6  2  0
  5 13  1  0
  6  8  1  0
  6 12  1  0
 12  7  2  0
  7 13  1  0
  8  9  1  0
  8 15  2  0
  9 17  2  0
  9 19  1  0
 10 11  2  0
 13 14  1  0
 15 16  1  0
 15 18  1  0
 16 17  1  0
M  END
$$$$
