
     RDKit          3D

 19 21  0  0  0  0  0  0  0  0999 V2000
   -3.1722    3.3146  -21.2398 N   0  0  0  0  0  0  0  0  0  0  0  0
   -4.2114    3.6107  -22.0310 C   0  0  0  0  0  0  0  0  0  0  0  0
   -4.3298    4.8700  -22.5861 C   0  0  0  0  0  0  0  0  0  0  0  0
   -3.4017    5.8572  -22.3546 C   0  0  0  0  0  0  0  0  0  0  0  0
   -3.5217    7.2008  -22.9400 C   0  0  0  0  0  0  0  0  0  0  0  0
   -4.1635    8.2779  -22.3619 C   0  0  0  0  0  0  0  0  0  0  0  0
   -3.3412    8.9094  -24.2935 C   0  0  0  0  0  0  0  0  0  0  0  0
   -4.8568    8.3105  -21.0888 C   0  0  0  0  0  0  0  0  0  0  0  0
   -6.2166    8.2010  -20.8816 C   0  0  0  0  0  0  0  0  0  0  0  0
   -2.3450    5.5248  -21.5383 C   0  0  0  0  0  0  0  0  0  0  0  0
   -2.2416    4.2431  -20.9846 C   0  0  0  0  0  0  0  0  0  0  0  0
   -4.0328    9.3108  -23.2204 N   0  0  0  0  0  0  0  0  0  0  0  0
   -3.0335    7.6243  -24.1159 N   0  0  0  0  0  0  0  0  0  0  0  0
   -2.2822    6.7404  -25.0129 C   0  0  0  0  0  0  0  0  0  0  0  0
   -4.2299    8.4528  -19.8715 C   0  0  0  0  0  0  0  0  0  0  0  0
   -5.2072    8.4260  -18.9740 O   0  0  0  0  0  0  0  0  0  0  0  0
   -6.3559    8.2817  -19.5387 N   0  0  0  0  0  0  0  0  0  0  0  0
   -2.7955    8.6089  -19.5194 C   0  0  0  0  0  0  0  0  0  0  0  0
   -7.3036    8.0376  -21.8789 C   0  0  0  0  0  0  0  0  0  0  0  0
  1  2  2  0
  1 11  1  0
  2  3  1  0
  3  4  2  0
  4  5  1  0
  4 10  1  0
  5  6  2  0
  5 13  1  0
  6  8  1  0
  6 12  1  0
 12  7  2  0
  7 13  1  0
  8  9  1  0
  8 15  2  0
  9 17  2  0
 19  9  1  6
 10 11  2  0
 14 13  1  6
 15 16  1  0
 18 15  1  6
 16 17  1  0
M  END
$$$$
