
     RDKit          3D

 19 21  0  0  0  0  0  0  0  0999 V2000
   -5.6140    3.3059  -21.9608 N   0  0  0  0  0  0  0  0  0  0  0  0
   -4.3043    3.5282  -22.1311 C   0  0  0  0  0  0  0  0  0  0  0  0
   -3.8458    4.7927  -22.4456 C   0  0  0  0  0  0  0  0  0  0  0  0
   -4.6995    5.8598  -22.5947 C   0  0  0  0  0  0  0  0  0  0  0  0
   -4.2195    7.2083  -22.9315 C   0  0  0  0  0  0  0  0  0  0  0  0
   -3.9214    8.2075  -22.0265 C   0  0  0  0  0  0  0  0  0  0  0  0
   -3.5468    8.9634  -24.0501 C   0  0  0  0  0  0  0  0  0  0  0  0
   -4.0313    8.1490  -20.5819 C   0  0  0  0  0  0  0  0  0  0  0  0
   -5.1232    8.5064  -19.8178 C   0  0  0  0  0  0  0  0  0  0  0  0
   -6.0390    5.6021  -22.4139 C   0  0  0  0  0  0  0  0  0  0  0  0
   -6.4853    4.3139  -22.0953 C   0  0  0  0  0  0  0  0  0  0  0  0
   -3.5110    9.2714  -22.7482 N   0  0  0  0  0  0  0  0  0  0  0  0
   -3.9790    7.7063  -24.1541 N   0  0  0  0  0  0  0  0  0  0  0  0
   -4.1853    6.9172  -25.3727 C   0  0  0  0  0  0  0  0  0  0  0  0
   -3.0289    7.7067  -19.7485 C   0  0  0  0  0  0  0  0  0  0  0  0
   -3.5293    7.8049  -18.5232 O   0  0  0  0  0  0  0  0  0  0  0  0
   -4.7330    8.2631  -18.5459 N   0  0  0  0  0  0  0  0  0  0  0  0
   -1.6598    7.2096  -20.0391 C   0  0  0  0  0  0  0  0  0  0  0  0
   -6.4357    9.0427  -20.2568 C   0  0  0  0  0  0  0  0  0  0  0  0
  1  2  2  0
  1 11  1  0
  2  3  1  0
  3  4  2  0
  4  5  1  0
  4 10  1  0
  5  6  2  0
  5 13  1  0
  6  8  1  0
  6 12  1  0
 12  7  2  0
  7 13  1  0
  8  9  1  0
  8 15  2  0
  9 17  2  0
 19  9  1  6
 10 11  2  0
 14 13  1  6
 15 16  1  0
 18 15  1  6
 16 17  1  0
M  END
$$$$
