
     RDKit          3D

 19 21  0  0  0  0  0  0  0  0999 V2000
   -2.4958    9.2589  -24.4819 N   0  0  0  0  0  0  0  0  0  0  0  0
   -3.2598    9.9092  -23.5946 C   0  0  0  0  0  0  0  0  0  0  0  0
   -3.4152    9.4166  -22.3135 C   0  0  0  0  0  0  0  0  0  0  0  0
   -2.8026    8.2574  -21.9006 C   0  0  0  0  0  0  0  0  0  0  0  0
   -2.9647    7.7254  -20.5393 C   0  0  0  0  0  0  0  0  0  0  0  0
   -4.0843    7.0793  -20.0540 C   0  0  0  0  0  0  0  0  0  0  0  0
   -2.5827    7.1678  -18.4592 C   0  0  0  0  0  0  0  0  0  0  0  0
   -5.3203    6.8075  -20.7616 C   0  0  0  0  0  0  0  0  0  0  0  0
   -5.6244    5.6806  -21.4977 C   0  0  0  0  0  0  0  0  0  0  0  0
   -2.0242    7.6107  -22.8328 C   0  0  0  0  0  0  0  0  0  0  0  0
   -1.8782    8.1250  -24.1268 C   0  0  0  0  0  0  0  0  0  0  0  0
   -3.8148    6.7503  -18.7733 N   0  0  0  0  0  0  0  0  0  0  0  0
   -2.0714    7.7602  -19.5387 N   0  0  0  0  0  0  0  0  0  0  0  0
   -0.7498    8.3765  -19.6934 C   0  0  0  0  0  0  0  0  0  0  0  0
   -6.3982    7.6633  -20.7900 C   0  0  0  0  0  0  0  0  0  0  0  0
   -7.3114    7.0450  -21.5283 O   0  0  0  0  0  0  0  0  0  0  0  0
   -6.8819    5.9036  -21.9429 N   0  0  0  0  0  0  0  0  0  0  0  0
   -6.6067    8.9985  -20.1739 C   0  0  0  0  0  0  0  0  0  0  0  0
   -4.7867    4.4848  -21.7647 C   0  0  0  0  0  0  0  0  0  0  0  0
  1  2  2  0
  1 11  1  0
  2  3  1  0
  3  4  2  0
  4  5  1  0
  4 10  1  0
  5  6  2  0
  5 13  1  0
  6  8  1  0
  6 12  1  0
 12  7  2  0
  7 13  1  0
  8  9  1  0
  8 15  2  0
  9 17  2  0
 19  9  1  6
 10 11  2  0
 14 13  1  6
 15 16  1  0
 18 15  1  6
 16 17  1  0
M  END
$$$$
