
     RDKit          3D

 19 21  0  0  0  0  0  0  0  0999 V2000
   -2.4813    6.7971  -17.2878 N   0  0  0  0  0  0  0  0  0  0  0  0
   -2.7802    5.8062  -18.1379 C   0  0  0  0  0  0  0  0  0  0  0  0
   -2.8882    6.0567  -19.4920 C   0  0  0  0  0  0  0  0  0  0  0  0
   -2.6965    7.3126  -20.0170 C   0  0  0  0  0  0  0  0  0  0  0  0
   -2.8118    7.5879  -21.4568 C   0  0  0  0  0  0  0  0  0  0  0  0
   -3.9633    7.9716  -22.1149 C   0  0  0  0  0  0  0  0  0  0  0  0
   -2.3313    7.8541  -23.5740 C   0  0  0  0  0  0  0  0  0  0  0  0
   -5.2817    8.1648  -21.5430 C   0  0  0  0  0  0  0  0  0  0  0  0
   -6.2153    7.1885  -21.2620 C   0  0  0  0  0  0  0  0  0  0  0  0
   -2.3907    8.3108  -19.1206 C   0  0  0  0  0  0  0  0  0  0  0  0
   -2.2853    8.0380  -17.7514 C   0  0  0  0  0  0  0  0  0  0  0  0
   -3.6317    8.1266  -23.4137 N   0  0  0  0  0  0  0  0  0  0  0  0
   -1.8388    7.5270  -22.3789 N   0  0  0  0  0  0  0  0  0  0  0  0
   -0.4634    7.1495  -22.0384 C   0  0  0  0  0  0  0  0  0  0  0  0
   -5.7956    9.3903  -21.1838 C   0  0  0  0  0  0  0  0  0  0  0  0
   -7.0049    9.1307  -20.7027 O   0  0  0  0  0  0  0  0  0  0  0  0
   -7.2615    7.8690  -20.7406 N   0  0  0  0  0  0  0  0  0  0  0  0
   -5.2215   10.7575  -21.2684 C   0  0  0  0  0  0  0  0  0  0  0  0
   -6.1272    5.7222  -21.4752 C   0  0  0  0  0  0  0  0  0  0  0  0
  1  2  2  0
  1 11  1  0
  2  3  1  0
  3  4  2  0
  4  5  1  0
  4 10  1  0
  5  6  2  0
  5 13  1  0
  6  8  1  0
  6 12  1  0
 12  7  2  0
  7 13  1  0
  8  9  1  0
  8 15  2  0
  9 17  2  0
 19  9  1  6
 10 11  2  0
 14 13  1  6
 15 16  1  0
 18 15  1  6
 16 17  1  0
M  END
$$$$
