
     RDKit          3D

 19 21  0  0  0  0  0  0  0  0999 V2000
   -4.1848    8.2344  -18.2726 N   0  0  0  0  0  0  0  0  0  0  0  0
   -5.3039    8.1802  -19.0064 C   0  0  0  0  0  0  0  0  0  0  0  0
   -5.3028    7.5508  -20.2360 C   0  0  0  0  0  0  0  0  0  0  0  0
   -4.1722    6.9625  -20.7510 C   0  0  0  0  0  0  0  0  0  0  0  0
   -4.1624    6.2925  -22.0599 C   0  0  0  0  0  0  0  0  0  0  0  0
   -4.3371    6.9091  -23.2828 C   0  0  0  0  0  0  0  0  0  0  0  0
   -4.0290    4.7648  -23.6195 C   0  0  0  0  0  0  0  0  0  0  0  0
   -4.5797    8.3166  -23.5328 C   0  0  0  0  0  0  0  0  0  0  0  0
   -5.7258    8.8811  -24.0541 C   0  0  0  0  0  0  0  0  0  0  0  0
   -3.0377    7.0335  -19.9757 C   0  0  0  0  0  0  0  0  0  0  0  0
   -3.0578    7.6756  -18.7317 C   0  0  0  0  0  0  0  0  0  0  0  0
   -4.2489    5.9411  -24.2188 N   0  0  0  0  0  0  0  0  0  0  0  0
   -3.9774    4.9864  -22.3057 N   0  0  0  0  0  0  0  0  0  0  0  0
   -3.7562    4.0136  -21.2311 C   0  0  0  0  0  0  0  0  0  0  0  0
   -3.6706    9.3159  -23.2681 C   0  0  0  0  0  0  0  0  0  0  0  0
   -4.2774   10.4399  -23.6283 O   0  0  0  0  0  0  0  0  0  0  0  0
   -5.4601   10.2070  -24.0824 N   0  0  0  0  0  0  0  0  0  0  0  0
   -2.2958    9.2678  -22.7081 C   0  0  0  0  0  0  0  0  0  0  0  0
   -6.9767    8.2164  -24.4973 C   0  0  0  0  0  0  0  0  0  0  0  0
  1  2  2  0
  1 11  1  0
  2  3  1  0
  3  4  2  0
  4  5  1  0
  4 10  1  0
  5  6  2  0
  5 13  1  0
  6  8  1  0
  6 12  1  0
 12  7  2  0
  7 13  1  0
  8  9  1  0
  8 15  2  0
  9 17  2  0
 19  9  1  6
 10 11  2  0
 14 13  1  6
 15 16  1  0
 18 15  1  6
 16 17  1  0
M  END
$$$$
