
     RDKit          3D

 19 21  0  0  0  0  0  0  0  0999 V2000
   -0.7309    7.0683  -18.4574 N   0  0  0  0  0  0  0  0  0  0  0  0
   -1.7438    6.2256  -18.2172 C   0  0  0  0  0  0  0  0  0  0  0  0
   -2.6624    5.9377  -19.2079 C   0  0  0  0  0  0  0  0  0  0  0  0
   -2.5780    6.4940  -20.4620 C   0  0  0  0  0  0  0  0  0  0  0  0
   -3.5529    6.1943  -21.5213 C   0  0  0  0  0  0  0  0  0  0  0  0
   -4.6471    6.9684  -21.8527 C   0  0  0  0  0  0  0  0  0  0  0  0
   -4.5984    5.2236  -23.1791 C   0  0  0  0  0  0  0  0  0  0  0  0
   -5.0705    8.2075  -21.2299 C   0  0  0  0  0  0  0  0  0  0  0  0
   -5.6931    8.3508  -20.0069 C   0  0  0  0  0  0  0  0  0  0  0  0
   -1.5276    7.3557  -20.6802 C   0  0  0  0  0  0  0  0  0  0  0  0
   -0.6061    7.6355  -19.6640 C   0  0  0  0  0  0  0  0  0  0  0  0
   -5.2666    6.3426  -22.8752 N   0  0  0  0  0  0  0  0  0  0  0  0
   -3.5567    5.1399  -22.3512 N   0  0  0  0  0  0  0  0  0  0  0  0
   -2.5291    4.0955  -22.2908 C   0  0  0  0  0  0  0  0  0  0  0  0
   -4.8962    9.4526  -21.7905 C   0  0  0  0  0  0  0  0  0  0  0  0
   -5.4075   10.3033  -20.9095 O   0  0  0  0  0  0  0  0  0  0  0  0
   -5.8699    9.6855  -19.8781 N   0  0  0  0  0  0  0  0  0  0  0  0
   -4.2889    9.8714  -23.0796 C   0  0  0  0  0  0  0  0  0  0  0  0
   -6.0957    7.3038  -19.0349 C   0  0  0  0  0  0  0  0  0  0  0  0
  1  2  2  0
  1 11  1  0
  2  3  1  0
  3  4  2  0
  4  5  1  0
  4 10  1  0
  5  6  2  0
  5 13  1  0
  6  8  1  0
  6 12  1  0
 12  7  2  0
  7 13  1  0
  8  9  1  0
  8 15  2  0
  9 17  2  0
 19  9  1  6
 10 11  2  0
 14 13  1  6
 15 16  1  0
 18 15  1  6
 16 17  1  0
M  END
$$$$
