
     RDKit          3D

 19 21  0  0  0  0  0  0  0  0999 V2000
   -2.5839    3.6438  -22.8925 N   0  0  0  0  0  0  0  0  0  0  0  0
   -1.8382    4.5896  -22.3066 C   0  0  0  0  0  0  0  0  0  0  0  0
   -2.2822    5.8966  -22.2554 C   0  0  0  0  0  0  0  0  0  0  0  0
   -3.4884    6.2767  -22.7942 C   0  0  0  0  0  0  0  0  0  0  0  0
   -3.9671    7.6662  -22.7457 C   0  0  0  0  0  0  0  0  0  0  0  0
   -4.6114    8.2604  -21.6788 C   0  0  0  0  0  0  0  0  0  0  0  0
   -4.4094    9.7394  -23.2844 C   0  0  0  0  0  0  0  0  0  0  0  0
   -4.9620    7.6504  -20.4110 C   0  0  0  0  0  0  0  0  0  0  0  0
   -4.2496    7.7207  -19.2313 C   0  0  0  0  0  0  0  0  0  0  0  0
   -4.2330    5.2844  -23.3894 C   0  0  0  0  0  0  0  0  0  0  0  0
   -3.7667    3.9650  -23.4317 C   0  0  0  0  0  0  0  0  0  0  0  0
   -4.8682    9.5338  -22.0442 N   0  0  0  0  0  0  0  0  0  0  0  0
   -3.8623    8.5986  -23.7050 N   0  0  0  0  0  0  0  0  0  0  0  0
   -3.2243    8.3218  -24.9960 C   0  0  0  0  0  0  0  0  0  0  0  0
   -6.0961    6.8983  -20.2033 C   0  0  0  0  0  0  0  0  0  0  0  0
   -6.0438    6.5389  -18.9268 O   0  0  0  0  0  0  0  0  0  0  0  0
   -4.9880    7.0039  -18.3537 N   0  0  0  0  0  0  0  0  0  0  0  0
   -7.1975    6.5107  -21.1212 C   0  0  0  0  0  0  0  0  0  0  0  0
   -2.9643    8.4097  -18.9556 C   0  0  0  0  0  0  0  0  0  0  0  0
  1  2  2  0
  1 11  1  0
  2  3  1  0
  3  4  2  0
  4  5  1  0
  4 10  1  0
  5  6  2  0
  5 13  1  0
  6  8  1  0
  6 12  1  0
 12  7  2  0
  7 13  1  0
  8  9  1  0
  8 15  2  0
  9 17  2  0
 19  9  1  6
 10 11  2  0
 14 13  1  6
 15 16  1  0
 18 15  1  6
 16 17  1  0
M  END
$$$$
