
     RDKit          3D

 19 21  0  0  0  0  0  0  0  0999 V2000
   -5.1428   10.8193  -21.8456 N   0  0  0  0  0  0  0  0  0  0  0  0
   -3.8818   10.3834  -21.9630 C   0  0  0  0  0  0  0  0  0  0  0  0
   -3.6071    9.0297  -21.9522 C   0  0  0  0  0  0  0  0  0  0  0  0
   -4.5993    8.0872  -21.8229 C   0  0  0  0  0  0  0  0  0  0  0  0
   -4.3150    6.6445  -21.8084 C   0  0  0  0  0  0  0  0  0  0  0  0
   -4.0803    5.8802  -20.6828 C   0  0  0  0  0  0  0  0  0  0  0  0
   -3.9713    4.5804  -22.4449 C   0  0  0  0  0  0  0  0  0  0  0  0
   -4.0475    6.3291  -19.3044 C   0  0  0  0  0  0  0  0  0  0  0  0
   -2.9589    6.8306  -18.6209 C   0  0  0  0  0  0  0  0  0  0  0  0
   -5.8847    8.5637  -21.7042 C   0  0  0  0  0  0  0  0  0  0  0  0
   -6.1440    9.9394  -21.7173 C   0  0  0  0  0  0  0  0  0  0  0  0
   -3.8733    4.6172  -21.1107 N   0  0  0  0  0  0  0  0  0  0  0  0
   -4.2403    5.8177  -22.8626 N   0  0  0  0  0  0  0  0  0  0  0  0
   -4.4396    6.2863  -24.2377 C   0  0  0  0  0  0  0  0  0  0  0  0
   -5.1377    6.3222  -18.4639 C   0  0  0  0  0  0  0  0  0  0  0  0
   -4.6908    6.8111  -17.3139 O   0  0  0  0  0  0  0  0  0  0  0  0
   -3.4397    7.1084  -17.3877 N   0  0  0  0  0  0  0  0  0  0  0  0
   -6.5418    5.8901  -18.6825 C   0  0  0  0  0  0  0  0  0  0  0  0
   -1.5667    7.0276  -19.0964 C   0  0  0  0  0  0  0  0  0  0  0  0
  1  2  2  0
  1 11  1  0
  2  3  1  0
  3  4  2  0
  4  5  1  0
  4 10  1  0
  5  6  2  0
  5 13  1  0
  6  8  1  0
  6 12  1  0
 12  7  2  0
  7 13  1  0
  8  9  1  0
  8 15  2  0
  9 17  2  0
 19  9  1  6
 10 11  2  0
 14 13  1  6
 15 16  1  0
 18 15  1  6
 16 17  1  0
M  END
$$$$
