
     RDKit          3D

 19 21  0  0  0  0  0  0  0  0999 V2000
   -4.4009    8.6555  -18.4156 N   0  0  0  0  0  0  0  0  0  0  0  0
   -5.2680    7.6667  -18.6690 C   0  0  0  0  0  0  0  0  0  0  0  0
   -5.1151    6.8739  -19.7897 C   0  0  0  0  0  0  0  0  0  0  0  0
   -4.0835    7.0621  -20.6786 C   0  0  0  0  0  0  0  0  0  0  0  0
   -3.9149    6.2240  -21.8750 C   0  0  0  0  0  0  0  0  0  0  0  0
   -4.7477    6.2137  -22.9762 C   0  0  0  0  0  0  0  0  0  0  0  0
   -3.1238    4.7805  -23.3152 C   0  0  0  0  0  0  0  0  0  0  0  0
   -5.9507    6.9976  -23.1780 C   0  0  0  0  0  0  0  0  0  0  0  0
   -6.0258    8.3525  -23.4280 C   0  0  0  0  0  0  0  0  0  0  0  0
   -3.2082    8.0848  -20.3931 C   0  0  0  0  0  0  0  0  0  0  0  0
   -3.3791    8.8780  -19.2521 C   0  0  0  0  0  0  0  0  0  0  0  0
   -4.2317    5.3159  -23.8414 N   0  0  0  0  0  0  0  0  0  0  0  0
   -2.9372    5.3379  -22.1184 N   0  0  0  0  0  0  0  0  0  0  0  0
   -1.8593    5.0814  -21.1578 C   0  0  0  0  0  0  0  0  0  0  0  0
   -7.2248    6.4769  -23.1539 C   0  0  0  0  0  0  0  0  0  0  0  0
   -8.0251    7.5100  -23.3860 O   0  0  0  0  0  0  0  0  0  0  0  0
   -7.3510    8.5959  -23.5459 N   0  0  0  0  0  0  0  0  0  0  0  0
   -7.7146    5.0929  -22.9292 C   0  0  0  0  0  0  0  0  0  0  0  0
   -4.9272    9.3440  -23.5418 C   0  0  0  0  0  0  0  0  0  0  0  0
  1  2  2  0
  1 11  1  0
  2  3  1  0
  3  4  2  0
  4  5  1  0
  4 10  1  0
  5  6  2  0
  5 13  1  0
  6  8  1  0
  6 12  1  0
 12  7  2  0
  7 13  1  0
  8  9  1  0
  8 15  2  0
  9 17  2  0
 19  9  1  6
 10 11  2  0
 14 13  1  6
 15 16  1  0
 18 15  1  6
 16 17  1  0
M  END
$$$$
