
     RDKit          3D

 19 21  0  0  0  0  0  0  0  0999 V2000
   -0.4504    6.8404  -18.9789 N   0  0  0  0  0  0  0  0  0  0  0  0
   -0.3417    6.2520  -20.1848 C   0  0  0  0  0  0  0  0  0  0  0  0
   -1.1619    6.5926  -21.2417 C   0  0  0  0  0  0  0  0  0  0  0  0
   -2.1084    7.5740  -21.0037 C   0  0  0  0  0  0  0  0  0  0  0  0
   -2.9918    7.9713  -22.0707 C   0  0  0  0  0  0  0  0  0  0  0  0
   -4.3654    8.0794  -21.9975 C   0  0  0  0  0  0  0  0  0  0  0  0
   -3.8330    8.6222  -24.0095 C   0  0  0  0  0  0  0  0  0  0  0  0
   -5.2580    7.8286  -20.8685 C   0  0  0  0  0  0  0  0  0  0  0  0
   -5.9587    8.8127  -20.1851 C   0  0  0  0  0  0  0  0  0  0  0  0
   -2.2230    8.1818  -19.7631 C   0  0  0  0  0  0  0  0  0  0  0  0
   -1.3781    7.8047  -18.7397 C   0  0  0  0  0  0  0  0  0  0  0  0
   -4.8534    8.4755  -23.1846 N   0  0  0  0  0  0  0  0  0  0  0  0
   -2.7118    8.3179  -23.3369 N   0  0  0  0  0  0  0  0  0  0  0  0
   -1.3906    8.3674  -23.9358 C   0  0  0  0  0  0  0  0  0  0  0  0
   -5.5680    6.6302  -20.2902 C   0  0  0  0  0  0  0  0  0  0  0  0
   -6.4083    6.8992  -19.3167 O   0  0  0  0  0  0  0  0  0  0  0  0
   -6.6489    8.1696  -19.2399 N   0  0  0  0  0  0  0  0  0  0  0  0
   -5.0619    5.2686  -20.6739 C   0  0  0  0  0  0  0  0  0  0  0  0
   -5.9037   10.2676  -20.4975 C   0  0  0  0  0  0  0  0  0  0  0  0
  1  2  2  0
  1 11  1  0
  2  3  1  0
  3  4  2  0
  4  5  1  0
  4 10  1  0
  5  6  2  0
  5 13  1  0
  6  8  1  0
  6 12  1  0
 12  7  2  0
  7 13  1  0
  8  9  1  0
  8 15  2  0
  9 17  2  0
  9 19  1  0
 10 11  2  0
 13 14  1  0
 15 16  1  0
 15 18  1  0
 16 17  1  0
M  END
$$$$
