
     RDKit          3D

 19 21  0  0  0  0  0  0  0  0999 V2000
   -0.5592    7.1997  -18.8386 N   0  0  0  0  0  0  0  0  0  0  0  0
   -0.3100    7.8719  -19.9781 C   0  0  0  0  0  0  0  0  0  0  0  0
   -1.2147    7.9059  -21.0203 C   0  0  0  0  0  0  0  0  0  0  0  0
   -2.3987    7.2124  -20.8394 C   0  0  0  0  0  0  0  0  0  0  0  0
   -3.3814    7.2135  -21.8934 C   0  0  0  0  0  0  0  0  0  0  0  0
   -4.5980    7.8642  -21.8763 C   0  0  0  0  0  0  0  0  0  0  0  0
   -4.4827    6.8697  -23.7799 C   0  0  0  0  0  0  0  0  0  0  0  0
   -5.1950    8.6900  -20.8295 C   0  0  0  0  0  0  0  0  0  0  0  0
   -6.0109    8.2076  -19.8155 C   0  0  0  0  0  0  0  0  0  0  0  0
   -2.6584    6.5192  -19.6673 C   0  0  0  0  0  0  0  0  0  0  0  0
   -1.7203    6.5170  -18.6557 C   0  0  0  0  0  0  0  0  0  0  0  0
   -5.2481    7.6415  -23.0304 N   0  0  0  0  0  0  0  0  0  0  0  0
   -3.3582    6.6125  -23.0935 N   0  0  0  0  0  0  0  0  0  0  0  0
   -2.2835    5.7873  -23.6138 C   0  0  0  0  0  0  0  0  0  0  0  0
   -5.0718   10.0385  -20.6479 C   0  0  0  0  0  0  0  0  0  0  0  0
   -5.7801   10.3312  -19.5808 O   0  0  0  0  0  0  0  0  0  0  0  0
   -6.3364    9.2739  -19.0802 N   0  0  0  0  0  0  0  0  0  0  0  0
   -4.2896   11.0091  -21.4866 C   0  0  0  0  0  0  0  0  0  0  0  0
   -6.4010    6.7807  -19.6448 C   0  0  0  0  0  0  0  0  0  0  0  0
  1  2  2  0
  1 11  1  0
  2  3  1  0
  3  4  2  0
  4  5  1  0
  4 10  1  0
  5  6  2  0
  5 13  1  0
  6  8  1  0
  6 12  1  0
 12  7  2  0
  7 13  1  0
  8  9  1  0
  8 15  2  0
  9 17  2  0
  9 19  1  0
 10 11  2  0
 13 14  1  0
 15 16  1  0
 15 18  1  0
 16 17  1  0
M  END
$$$$
