
     RDKit          3D

 19 21  0  0  0  0  0  0  0  0999 V2000
   -2.8932    5.3958  -18.2563 N   0  0  0  0  0  0  0  0  0  0  0  0
   -2.9461    4.8726  -19.4956 C   0  0  0  0  0  0  0  0  0  0  0  0
   -2.9582    5.6666  -20.6249 C   0  0  0  0  0  0  0  0  0  0  0  0
   -2.9129    7.0352  -20.4240 C   0  0  0  0  0  0  0  0  0  0  0  0
   -2.9216    7.9135  -21.5665 C   0  0  0  0  0  0  0  0  0  0  0  0
   -4.0377    8.4290  -22.1929 C   0  0  0  0  0  0  0  0  0  0  0  0
   -2.3426    9.2036  -23.2666 C   0  0  0  0  0  0  0  0  0  0  0  0
   -5.4515    8.2307  -21.8831 C   0  0  0  0  0  0  0  0  0  0  0  0
   -6.1755    8.9995  -20.9823 C   0  0  0  0  0  0  0  0  0  0  0  0
   -2.8584    7.5770  -19.1493 C   0  0  0  0  0  0  0  0  0  0  0  0
   -2.8487    6.7391  -18.0533 C   0  0  0  0  0  0  0  0  0  0  0  0
   -3.6621    9.2082  -23.2206 N   0  0  0  0  0  0  0  0  0  0  0  0
   -1.8978    8.4229  -22.2694 N   0  0  0  0  0  0  0  0  0  0  0  0
   -0.4882    8.1844  -22.0184 C   0  0  0  0  0  0  0  0  0  0  0  0
   -6.3030    7.2941  -22.3974 C   0  0  0  0  0  0  0  0  0  0  0  0
   -7.4674    7.5040  -21.8262 O   0  0  0  0  0  0  0  0  0  0  0  0
   -7.4126    8.4968  -20.9961 N   0  0  0  0  0  0  0  0  0  0  0  0
   -5.9916    6.2304  -23.4117 C   0  0  0  0  0  0  0  0  0  0  0  0
   -5.6205   10.1364  -20.1969 C   0  0  0  0  0  0  0  0  0  0  0  0
  1  2  2  0
  1 11  1  0
  2  3  1  0
  3  4  2  0
  4  5  1  0
  4 10  1  0
  5  6  2  0
  5 13  1  0
  6  8  1  0
  6 12  1  0
 12  7  2  0
  7 13  1  0
  8  9  1  0
  8 15  2  0
  9 17  2  0
  9 19  1  0
 10 11  2  0
 13 14  1  0
 15 16  1  0
 15 18  1  0
 16 17  1  0
M  END
$$$$
