
     RDKit          3D

 19 21  0  0  0  0  0  0  0  0999 V2000
   -5.0636    4.0651  -23.8641 N   0  0  0  0  0  0  0  0  0  0  0  0
   -4.4493    5.0671  -24.5062 C   0  0  0  0  0  0  0  0  0  0  0  0
   -3.6917    5.9851  -23.8052 C   0  0  0  0  0  0  0  0  0  0  0  0
   -3.5378    5.9110  -22.4412 C   0  0  0  0  0  0  0  0  0  0  0  0
   -2.7349    6.8854  -21.6874 C   0  0  0  0  0  0  0  0  0  0  0  0
   -3.2308    7.8515  -20.8348 C   0  0  0  0  0  0  0  0  0  0  0  0
   -1.0441    8.0043  -20.8669 C   0  0  0  0  0  0  0  0  0  0  0  0
   -4.6207    8.1183  -20.5194 C   0  0  0  0  0  0  0  0  0  0  0  0
   -5.2416    7.9495  -19.2987 C   0  0  0  0  0  0  0  0  0  0  0  0
   -4.1799    4.8716  -21.8082 C   0  0  0  0  0  0  0  0  0  0  0  0
   -4.9435    3.9506  -22.5354 C   0  0  0  0  0  0  0  0  0  0  0  0
   -2.1646    8.5203  -20.3481 N   0  0  0  0  0  0  0  0  0  0  0  0
   -1.3988    7.0097  -21.6810 N   0  0  0  0  0  0  0  0  0  0  0  0
   -0.5301    6.1387  -22.4790 C   0  0  0  0  0  0  0  0  0  0  0  0
   -5.5394    8.5997  -21.4245 C   0  0  0  0  0  0  0  0  0  0  0  0
   -6.6725    8.7090  -20.7424 O   0  0  0  0  0  0  0  0  0  0  0  0
   -6.5181    8.3390  -19.5183 N   0  0  0  0  0  0  0  0  0  0  0  0
   -5.4083    8.9527  -22.8612 C   0  0  0  0  0  0  0  0  0  0  0  0
   -4.6721    7.4521  -18.0215 C   0  0  0  0  0  0  0  0  0  0  0  0
  1  2  2  0
  1 11  1  0
  2  3  1  0
  3  4  2  0
  4  5  1  0
  4 10  1  0
  5  6  2  0
  5 13  1  0
  6  8  1  0
  6 12  1  0
 12  7  2  0
  7 13  1  0
  8  9  1  0
  8 15  2  0
  9 17  2  0
 19  9  1  6
 10 11  2  0
 14 13  1  6
 15 16  1  0
 18 15  1  6
 16 17  1  0
M  END
$$$$
