
     RDKit          3D

 19 21  0  0  0  0  0  0  0  0999 V2000
   -4.2080    7.1003  -17.3844 N   0  0  0  0  0  0  0  0  0  0  0  0
   -5.3846    7.1743  -18.0199 C   0  0  0  0  0  0  0  0  0  0  0  0
   -5.4625    6.9249  -19.3763 C   0  0  0  0  0  0  0  0  0  0  0  0
   -4.3545    6.5953  -20.1201 C   0  0  0  0  0  0  0  0  0  0  0  0
   -4.4287    6.3305  -21.5646 C   0  0  0  0  0  0  0  0  0  0  0  0
   -3.8918    7.1242  -22.5586 C   0  0  0  0  0  0  0  0  0  0  0  0
   -4.8626    5.3952  -23.4936 C   0  0  0  0  0  0  0  0  0  0  0  0
   -3.1698    8.3712  -22.3963 C   0  0  0  0  0  0  0  0  0  0  0  0
   -1.8037    8.5536  -22.4629 C   0  0  0  0  0  0  0  0  0  0  0  0
   -3.1597    6.5266  -19.4412 C   0  0  0  0  0  0  0  0  0  0  0  0
   -3.1000    6.7826  -18.0660 C   0  0  0  0  0  0  0  0  0  0  0  0
   -4.1767    6.5196  -23.7308 N   0  0  0  0  0  0  0  0  0  0  0  0
   -5.0122    5.2865  -22.1731 N   0  0  0  0  0  0  0  0  0  0  0  0
   -5.6913    4.2255  -21.4226 C   0  0  0  0  0  0  0  0  0  0  0  0
   -3.7708    9.5854  -22.1523 C   0  0  0  0  0  0  0  0  0  0  0  0
   -2.7726   10.4569  -22.0792 O   0  0  0  0  0  0  0  0  0  0  0  0
   -1.6348    9.8794  -22.2557 N   0  0  0  0  0  0  0  0  0  0  0  0
   -5.1994    9.9572  -21.9887 C   0  0  0  0  0  0  0  0  0  0  0  0
   -0.7372    7.5488  -22.6996 C   0  0  0  0  0  0  0  0  0  0  0  0
  1  2  2  0
  1 11  1  0
  2  3  1  0
  3  4  2  0
  4  5  1  0
  4 10  1  0
  5  6  2  0
  5 13  1  0
  6  8  1  0
  6 12  1  0
 12  7  2  0
  7 13  1  0
  8  9  1  0
  8 15  2  0
  9 17  2  0
 19  9  1  6
 10 11  2  0
 14 13  1  6
 15 16  1  0
 18 15  1  6
 16 17  1  0
M  END
$$$$
