
     RDKit          3D

 19 21  0  0  0  0  0  0  0  0999 V2000
   -5.2499    3.0481  -21.2416 N   0  0  0  0  0  0  0  0  0  0  0  0
   -6.2469    3.9089  -20.9990 C   0  0  0  0  0  0  0  0  0  0  0  0
   -6.1698    5.2120  -21.4507 C   0  0  0  0  0  0  0  0  0  0  0  0
   -5.0849    5.6739  -22.1572 C   0  0  0  0  0  0  0  0  0  0  0  0
   -4.9942    7.0600  -22.6396 C   0  0  0  0  0  0  0  0  0  0  0  0
   -4.4287    8.1170  -21.9546 C   0  0  0  0  0  0  0  0  0  0  0  0
   -5.1575    8.8481  -23.8886 C   0  0  0  0  0  0  0  0  0  0  0  0
   -3.8309    8.0916  -20.6338 C   0  0  0  0  0  0  0  0  0  0  0  0
   -4.4934    8.0759  -19.4235 C   0  0  0  0  0  0  0  0  0  0  0  0
   -4.0761    4.7680  -22.3917 C   0  0  0  0  0  0  0  0  0  0  0  0
   -4.1718    3.4511  -21.9261 C   0  0  0  0  0  0  0  0  0  0  0  0
   -4.5461    9.1998  -22.7513 N   0  0  0  0  0  0  0  0  0  0  0  0
   -5.4273    7.5445  -23.8136 N   0  0  0  0  0  0  0  0  0  0  0  0
   -6.0879    6.6973  -24.8117 C   0  0  0  0  0  0  0  0  0  0  0  0
   -2.4745    8.0716  -20.4003 C   0  0  0  0  0  0  0  0  0  0  0  0
   -2.3512    8.0444  -19.0792 O   0  0  0  0  0  0  0  0  0  0  0  0
   -3.5032    8.0464  -18.5027 N   0  0  0  0  0  0  0  0  0  0  0  0
   -1.3186    8.0769  -21.3330 C   0  0  0  0  0  0  0  0  0  0  0  0
   -5.9535    8.0929  -19.1571 C   0  0  0  0  0  0  0  0  0  0  0  0
  1  2  2  0
  1 11  1  0
  2  3  1  0
  3  4  2  0
  4  5  1  0
  4 10  1  0
  5  6  2  0
  5 13  1  0
  6  8  1  0
  6 12  1  0
 12  7  2  0
  7 13  1  0
  8  9  1  0
  8 15  2  0
  9 17  2  0
 19  9  1  6
 10 11  2  0
 14 13  1  6
 15 16  1  0
 18 15  1  6
 16 17  1  0
M  END
$$$$
