
     RDKit          3D

 19 21  0  0  0  0  0  0  0  0999 V2000
   -1.3852    6.8132  -17.4325 N   0  0  0  0  0  0  0  0  0  0  0  0
   -0.7870    7.6839  -18.2670 C   0  0  0  0  0  0  0  0  0  0  0  0
   -1.1776    7.8212  -19.5840 C   0  0  0  0  0  0  0  0  0  0  0  0
   -2.2202    7.0173  -20.0109 C   0  0  0  0  0  0  0  0  0  0  0  0
   -2.6716    7.1183  -21.3758 C   0  0  0  0  0  0  0  0  0  0  0  0
   -3.9661    7.3494  -21.7938 C   0  0  0  0  0  0  0  0  0  0  0  0
   -2.7856    7.1761  -23.5834 C   0  0  0  0  0  0  0  0  0  0  0  0
   -5.1777    7.5429  -21.0009 C   0  0  0  0  0  0  0  0  0  0  0  0
   -5.5525    8.7448  -20.4164 C   0  0  0  0  0  0  0  0  0  0  0  0
   -2.8383    6.1197  -19.1542 C   0  0  0  0  0  0  0  0  0  0  0  0
   -2.4095    6.0213  -17.8466 C   0  0  0  0  0  0  0  0  0  0  0  0
   -4.0109    7.3803  -23.1360 N   0  0  0  0  0  0  0  0  0  0  0  0
   -1.9797    7.0182  -22.5216 N   0  0  0  0  0  0  0  0  0  0  0  0
   -0.5541    6.7715  -22.6387 C   0  0  0  0  0  0  0  0  0  0  0  0
   -6.1394    6.6222  -20.6941 C   0  0  0  0  0  0  0  0  0  0  0  0
   -7.0327    7.2534  -19.9664 O   0  0  0  0  0  0  0  0  0  0  0  0
   -6.7070    8.4952  -19.7935 N   0  0  0  0  0  0  0  0  0  0  0  0
   -6.1857    5.1756  -21.0971 C   0  0  0  0  0  0  0  0  0  0  0  0
   -4.7766   10.0126  -20.5074 C   0  0  0  0  0  0  0  0  0  0  0  0
  1  2  2  0
  1 11  1  0
  2  3  1  0
  3  4  2  0
  4  5  1  0
  4 10  1  0
  5  6  2  0
  5 13  1  0
  6  8  1  0
  6 12  1  0
 12  7  2  0
  7 13  1  0
  8  9  1  0
  8 15  2  0
  9 17  2  0
  9 19  1  0
 10 11  2  0
 13 14  1  0
 15 16  1  0
 15 18  1  0
 16 17  1  0
M  END
$$$$
