
     RDKit          3D

111117  0  0  0  0  0  0  0  0999 V2000
   -6.0619   22.9390   28.6328 N   0  0  0  0  0  0  0  0  0  0  0  0
   -5.5354   21.7481   28.0509 C   0  0  2  0  0  0  0  0  0  0  0  0
   -5.2726   20.6323   28.9934 C   0  0  0  0  0  0  0  0  0  0  0  0
   -4.5300   20.9570   30.0074 O   0  0  0  0  0  0  0  0  0  0  0  0
   -5.7407   19.3097   28.8914 N   0  0  0  0  0  0  0  0  0  0  0  0
   -5.3937   18.2640   27.9500 C   0  0  2  0  0  0  0  0  0  0  0  0
   -4.3240   17.4009   28.5972 C   0  0  0  0  0  0  0  0  0  0  0  0
   -3.1673   17.4805   28.0767 O   0  0  0  0  0  0  0  0  0  0  0  0
   -4.9621   18.7391   26.6091 C   0  0  0  0  0  0  0  0  0  0  0  0
   -3.4703   18.7646   26.4637 C   0  0  0  0  0  0  0  0  0  0  0  0
   -2.7742   18.6445   27.8108 C   0  0  0  0  0  0  0  0  0  0  0  0
   -1.3541   18.8531   27.7220 N   0  0  0  0  0  0  0  0  0  0  0  0
   -0.6973   19.9420   28.3456 C   0  0  0  0  0  0  0  0  0  0  0  0
   -0.2997   21.0728   27.5711 N   0  0  0  0  0  0  0  0  0  0  0  0
   -0.4669   19.8952   29.5944 N   0  0  0  0  0  0  0  0  0  0  0  0
   -4.5105   16.5572   29.6873 N   0  0  0  0  0  0  0  0  0  0  0  0
   -5.4861   15.5498   29.9641 C   0  0  2  0  0  0  0  0  0  0  0  0
   -6.3656   15.1638   28.8551 C   0  0  0  0  0  0  0  0  0  0  0  0
   -7.5948   15.5467   28.9926 O   0  0  0  0  0  0  0  0  0  0  0  0
   -6.2370   15.8230   31.2550 C   0  0  0  0  0  0  0  0  0  0  0  0
   -7.7356   16.7605   31.0766 S   0  0  0  0  0  0  0  0  0  0  0  0
   -6.0176   14.4432   27.6966 N   0  0  0  0  0  0  0  0  0  0  0  0
   -5.4472   13.1403   27.5910 C   0  0  2  0  0  0  0  0  0  0  0  0
   -4.0668   12.9992   28.0659 C   0  0  0  0  0  0  0  0  0  0  0  0
   -3.2812   14.0129   28.0757 O   0  0  0  0  0  0  0  0  0  0  0  0
   -5.4241   12.7291   26.1209 C   0  0  2  0  0  0  0  0  0  0  0  0
   -4.5583   11.6291   25.9535 O   0  0  0  0  0  0  0  0  0  0  0  0
   -4.7532   13.8672   25.3605 C   0  0  0  0  0  0  0  0  0  0  0  0
   -3.5326   11.7835   28.5239 N   0  0  0  0  0  0  0  0  0  0  0  0
   -4.0514   10.9091   29.5451 C   0  0  2  0  0  0  0  0  0  0  0  0
   -3.0602   10.6814   30.6228 C   0  0  0  0  0  0  0  0  0  0  0  0
   -2.7277   11.7860   31.2047 O   0  0  0  0  0  0  0  0  0  0  0  0
   -4.5996    9.6524   28.9393 C   0  0  0  0  0  0  0  0  0  0  0  0
   -3.9330    9.3345   27.6173 C   0  0  0  0  0  0  0  0  0  0  0  0
   -2.6543    8.5942   27.9373 C   0  0  0  0  0  0  0  0  0  0  0  0
   -2.8847    7.1945   28.4452 C   0  0  0  0  0  0  0  0  0  0  0  0
   -1.7809    6.3432   27.9830 N   0  0  0  0  0  4  0  0  0  0  0  0
   -2.4705    9.5142   31.0683 N   0  0  0  0  0  0  0  0  0  0  0  0
   -3.0422    8.3204   31.6260 C   0  0  2  0  0  0  0  0  0  0  0  0
   -4.0754    8.5290   32.6594 C   0  0  0  0  0  0  0  0  0  0  0  0
   -5.2211    7.9776   32.4726 O   0  0  0  0  0  0  0  0  0  0  0  0
   -1.9446    7.3631   32.0927 C   0  0  0  0  0  0  0  0  0  0  0  0
   -1.2836    7.8768   33.1708 O   0  0  0  0  0  0  0  0  0  0  0  0
   -3.9544    9.2748   33.8454 N   0  0  0  0  0  0  0  0  0  0  0  0
   -2.9566    9.0389   34.9061 C   0  0  2  0  0  0  0  0  0  0  0  0
   -3.6782    8.4517   36.0631 C   0  0  0  0  0  0  0  0  0  0  0  0
   -3.6831    7.1537   36.0805 O   0  0  0  0  0  0  0  0  0  0  0  0
   -2.1969   10.2722   35.2565 C   0  0  0  0  0  0  0  0  0  0  0  0
   -1.4556   10.7976   34.0793 C   0  0  0  0  0  0  0  0  0  0  0  0
   -0.0837   11.3607   34.4751 C   0  0  0  0  0  0  0  0  0  0  0  0
    0.8942   10.3018   34.5911 N   0  0  0  0  0  0  0  0  0  0  0  0
    2.1262   10.5506   35.2348 C   0  0  0  0  0  0  0  0  0  0  0  0
    2.8097   11.7763   35.0121 N   0  0  0  0  0  0  0  0  0  0  0  0
    2.6577    9.6769   36.0338 N   0  0  0  0  0  0  0  0  0  0  0  0
   -4.3300    9.1353   37.1019 N   0  0  0  0  0  0  0  0  0  0  0  0
   -4.9122   10.4454   37.1080 C   0  0  2  0  0  0  0  0  0  0  0  0
   -4.2735   11.3987   38.0378 C   0  0  0  0  0  0  0  0  0  0  0  0
   -3.1635   11.1241   38.6270 O   0  0  0  0  0  0  0  0  0  0  0  0
   -6.3104   10.0839   37.6806 C   0  0  0  0  0  0  0  0  0  0  0  0
   -6.0592    8.9108   38.5912 C   0  0  0  0  0  0  0  0  0  0  0  0
   -4.5969    8.6266   38.4614 C   0  0  0  0  0  0  0  0  0  0  0  0
   -4.8773   12.6642   38.3112 N   0  0  0  0  0  0  0  0  0  0  0  0
   -5.3897   13.5613   37.2924 C   0  0  2  0  0  0  0  0  0  0  0  0
   -4.3450   14.4983   36.8207 C   0  0  0  0  0  0  0  0  0  0  0  0
   -3.1526   14.1071   37.2328 O   0  0  0  0  0  0  0  0  0  0  0  0
   -6.6024   14.1288   37.8950 C   0  0  0  0  0  0  0  0  0  0  0  0
   -6.5411   13.8540   39.3497 C   0  0  0  0  0  0  0  0  0  0  0  0
   -5.1126   13.3490   39.5764 C   0  0  0  0  0  0  0  0  0  0  0  0
   -4.3255   15.6350   36.0731 N   0  0  0  0  0  0  0  0  0  0  0  0
   -4.5353   17.0530   36.2210 C   0  0  2  0  0  0  0  0  0  0  0  0
   -3.8979   17.8358   35.1147 C   0  0  0  0  0  0  0  0  0  0  0  0
   -2.6794   18.1579   35.3499 O   0  0  0  0  0  0  0  0  0  0  0  0
   -4.0784   17.6860   37.4838 C   0  0  2  0  0  0  0  0  0  0  0  0
   -4.4282   17.0102   38.7652 C   0  0  0  0  0  0  0  0  0  0  0  0
   -4.4613   19.1432   37.6350 C   0  0  0  0  0  0  0  0  0  0  0  0
   -5.9276   16.7815   38.8903 C   0  0  0  0  0  0  0  0  0  0  0  0
   -4.4481   18.2409   33.9038 N   0  0  0  0  0  0  0  0  0  0  0  0
   -5.6841   19.0199   33.6989 C   0  0  2  0  0  0  0  0  0  0  0  0
   -5.6309   20.3431   34.3364 C   0  0  0  0  0  0  0  0  0  0  0  0
   -4.4516   20.8949   34.1477 O   0  0  0  0  0  0  0  0  0  0  0  0
   -6.8915   18.1870   33.9128 C   0  0  0  0  0  0  0  0  0  0  0  0
   -8.0601   18.2591   32.4985 S   0  0  0  0  0  0  0  0  0  0  0  0
   -6.5362   21.0867   35.0630 N   0  0  0  0  0  0  0  0  0  0  0  0
   -7.8835   21.5254   34.7358 C   0  0  2  0  0  0  0  0  0  0  0  0
   -7.8014   23.0146   34.7966 C   0  0  0  0  0  0  0  0  0  0  0  0
   -8.2954   23.5706   35.8255 O   0  0  0  0  0  0  0  0  0  0  0  0
   -8.8963   20.9815   35.6668 C   0  0  0  0  0  0  0  0  0  0  0  0
   -9.3455   19.6097   35.4594 C   0  0  0  0  0  0  0  0  0  0  0  0
  -10.0971   19.2039   34.3834 C   0  0  0  0  0  0  0  0  0  0  0  0
   -9.0477   18.6596   36.4362 C   0  0  0  0  0  0  0  0  0  0  0  0
  -10.5402   17.9212   34.2617 C   0  0  0  0  0  0  0  0  0  0  0  0
   -9.5029   17.3762   36.2923 C   0  0  0  0  0  0  0  0  0  0  0  0
  -10.2607   16.9467   35.2129 C   0  0  0  0  0  0  0  0  0  0  0  0
   -7.2323   23.8698   33.8420 N   0  0  0  0  0  0  0  0  0  0  0  0
   -7.5369   23.9747   32.4218 C   0  0  2  0  0  0  0  0  0  0  0  0
   -8.6565   23.1680   32.0044 C   0  0  0  0  0  0  0  0  0  0  0  0
   -9.6500   23.2208   32.8439 O   0  0  0  0  0  0  0  0  0  0  0  0
   -6.2176   23.8197   31.7885 C   0  0  0  0  0  0  0  0  0  0  0  0
   -5.2443   24.3568   32.8619 C   0  0  0  0  0  0  0  0  0  0  0  0
   -6.1806   24.9149   33.9390 C   0  0  0  0  0  0  0  0  0  0  0  0
   -8.9075   22.3511   30.9038 N   0  0  0  0  0  0  0  0  0  0  0  0
   -8.0147   21.9299   29.8445 C   0  0  2  0  0  0  0  0  0  0  0  0
   -7.4164   23.0216   29.0652 C   0  0  0  0  0  0  0  0  0  0  0  0
   -8.1364   24.0416   28.7890 O   0  0  0  0  0  0  0  0  0  0  0  0
   -8.7264   20.9986   28.8660 C   0  0  0  0  0  0  0  0  0  0  0  0
   -9.6940   21.7075   27.9942 C   0  0  0  0  0  0  0  0  0  0  0  0
   -9.3813   22.9735   27.4649 O   0  0  0  0  0  0  0  0  0  0  0  0
  -10.7852   21.1886   27.7289 O   0  0  0  0  0  0  0  0  0  0  0  0
   -4.7802   22.8600   28.2233 O   0  0  0  0  0  0  0  0  0  0  0  0
    0.3968   19.4764   29.9737 H   0  0  0  0  0  0  0  0  0  0  0  0
    3.6873    9.6143   36.1412 H   0  0  0  0  0  0  0  0  0  0  0  0
  1  2  1  0
  1103  1  0
  1109  1  0
  2  3  1  0
  2109  1  1
  3  4  2  0
  3  5  1  0
  5  6  1  0
  6  7  1  0
  6  9  1  6
  7  8  2  0
  7 16  1  0
  9 10  1  0
 10 11  1  0
 11 12  1  0
 12 13  1  0
 13 14  1  0
 13 15  2  0
 17 16  1  6
 17 18  1  0
 17 20  1  0
 18 19  2  0
 18 22  1  0
 20 21  1  0
 21 82  1  0
 23 22  1  6
 23 24  1  0
 23 26  1  0
 24 25  2  0
 24 29  1  0
 26 27  1  0
 26 28  1  6
 29 30  1  0
 30 31  1  0
 30 33  1  6
 31 32  2  0
 31 38  1  0
 33 34  1  0
 34 35  1  0
 35 36  1  0
 36 37  1  0
 38 39  1  0
 39 40  1  0
 39 42  1  1
 40 41  2  0
 40 44  1  0
 42 43  1  0
 44 45  1  0
 45 46  1  0
 45 48  1  1
 46 47  2  0
 46 55  1  0
 48 49  1  0
 49 50  1  0
 50 51  1  0
 51 52  1  0
 52 53  1  0
 52 54  2  0
 55 56  1  0
 55 61  1  0
 56 57  1  0
 56 59  1  1
 57 58  2  0
 57 62  1  0
 59 60  1  0
 60 61  1  0
 62 63  1  0
 62 68  1  0
 63 64  1  0
 63 66  1  1
 64 65  2  0
 64 69  1  0
 66 67  1  0
 67 68  1  0
 70 69  1  1
 70 71  1  0
 70 73  1  0
 71 72  2  0
 71 77  1  0
 73 74  1  0
 73 75  1  1
 74 76  1  0
 78 77  1  1
 78 79  1  0
 78 81  1  0
 79 80  2  0
 79 83  1  0
 81 82  1  0
 83 84  1  0
 84 85  1  0
 84 87  1  1
 85 86  2  0
 85 94  1  0
 87 88  1  0
 88 89  2  0
 88 90  1  0
 89 91  1  0
 90 92  2  0
 91 93  2  0
 92 93  1  0
 94 95  1  0
 94100  1  0
 95 96  1  0
 95 98  1  6
 96 97  2  0
 96101  1  0
 98 99  1  0
 99100  1  0
101102  1  0
102103  1  0
102105  1  6
103104  2  0
105106  1  0
106107  1  0
106108  2  0
 15110  1  0
 54111  1  0
M  CHG  1  37   1
M  END
$$$$
