
     RDKit          3D

111117  0  0  0  0  0  0  0  0999 V2000
   -2.9020   21.6376   28.5703 N   0  0  0  0  0  0  0  0  0  0  0  0
   -2.4165   20.3210   28.3158 C   0  0  2  0  0  0  0  0  0  0  0  0
   -2.8142   19.2858   29.3019 C   0  0  0  0  0  0  0  0  0  0  0  0
   -2.5422   19.5929   30.5336 O   0  0  0  0  0  0  0  0  0  0  0  0
   -3.4374   18.0540   29.0319 N   0  0  0  0  0  0  0  0  0  0  0  0
   -2.9242   16.8701   28.3722 C   0  0  2  0  0  0  0  0  0  0  0  0
   -2.4352   15.9195   29.4515 C   0  0  0  0  0  0  0  0  0  0  0  0
   -1.1763   15.7527   29.5049 O   0  0  0  0  0  0  0  0  0  0  0  0
   -1.8668   17.1207   27.3576 C   0  0  0  0  0  0  0  0  0  0  0  0
   -0.5113   16.6818   27.8233 C   0  0  0  0  0  0  0  0  0  0  0  0
   -0.5291   15.2459   28.3249 C   0  0  0  0  0  0  0  0  0  0  0  0
   -0.3655   14.2864   27.2664 N   0  0  0  0  0  0  0  0  0  0  0  0
    0.4648   13.1452   27.3857 C   0  0  0  0  0  0  0  0  0  0  0  0
    0.9332   12.4788   26.2139 N   0  0  0  0  0  0  0  0  0  0  0  0
    0.7808   12.7258   28.5429 N   0  0  0  0  0  0  0  0  0  0  0  0
   -3.2391   15.2403   30.3611 N   0  0  0  0  0  0  0  0  0  0  0  0
   -4.4125   14.4413   30.1936 C   0  0  2  0  0  0  0  0  0  0  0  0
   -4.7752   14.0860   28.8171 C   0  0  0  0  0  0  0  0  0  0  0  0
   -5.8405   14.6767   28.3781 O   0  0  0  0  0  0  0  0  0  0  0  0
   -5.5831   14.9711   31.0021 C   0  0  0  0  0  0  0  0  0  0  0  0
   -6.6393   16.1154   30.1467 S   0  0  0  0  0  0  0  0  0  0  0  0
   -4.1030   13.1974   27.9562 N   0  0  0  0  0  0  0  0  0  0  0  0
   -3.8088   11.8152   28.1494 C   0  0  2  0  0  0  0  0  0  0  0  0
   -2.8315   11.5034   29.1974 C   0  0  0  0  0  0  0  0  0  0  0  0
   -1.9491   12.3705   29.5353 O   0  0  0  0  0  0  0  0  0  0  0  0
   -3.2259   11.2492   26.8568 C   0  0  2  0  0  0  0  0  0  0  0  0
   -2.4388   10.1174   27.1517 O   0  0  0  0  0  0  0  0  0  0  0  0
   -2.2344   12.2835   26.3363 C   0  0  0  0  0  0  0  0  0  0  0  0
   -2.7985   10.2736   29.8755 N   0  0  0  0  0  0  0  0  0  0  0  0
   -3.8701    9.6111   30.5748 C   0  0  2  0  0  0  0  0  0  0  0  0
   -3.5149    9.3428   31.9881 C   0  0  0  0  0  0  0  0  0  0  0  0
   -3.2628   10.4348   32.6310 O   0  0  0  0  0  0  0  0  0  0  0  0
   -4.3308    8.4024   29.8173 C   0  0  0  0  0  0  0  0  0  0  0  0
   -3.2136    7.3952   29.6428 C   0  0  0  0  0  0  0  0  0  0  0  0
   -1.9567    8.0352   30.1873 C   0  0  0  0  0  0  0  0  0  0  0  0
   -0.7646    7.1139   30.1786 C   0  0  0  0  0  0  0  0  0  0  0  0
    0.3598    7.8002   30.8279 N   0  0  0  0  0  4  0  0  0  0  0  0
   -3.4182    8.1503   32.6789 N   0  0  0  0  0  0  0  0  0  0  0  0
   -4.3958    7.1330   32.9481 C   0  0  2  0  0  0  0  0  0  0  0  0
   -5.7144    7.6176   33.4013 C   0  0  0  0  0  0  0  0  0  0  0  0
   -6.7460    7.2434   32.7325 O   0  0  0  0  0  0  0  0  0  0  0  0
   -3.8217    6.0658   33.8811 C   0  0  0  0  0  0  0  0  0  0  0  0
   -3.5827    6.5868   35.1199 O   0  0  0  0  0  0  0  0  0  0  0  0
   -5.9817    8.4576   34.4970 N   0  0  0  0  0  0  0  0  0  0  0  0
   -5.6148    8.1784   35.8984 C   0  0  2  0  0  0  0  0  0  0  0  0
   -6.8682    7.8452   36.6210 C   0  0  0  0  0  0  0  0  0  0  0  0
   -7.1320    6.5750   36.6652 O   0  0  0  0  0  0  0  0  0  0  0  0
   -4.8614    9.3020   36.5235 C   0  0  0  0  0  0  0  0  0  0  0  0
   -4.0854    8.8360   37.7034 C   0  0  0  0  0  0  0  0  0  0  0  0
   -3.2928    7.5582   37.3953 C   0  0  0  0  0  0  0  0  0  0  0  0
   -4.1674    6.4075   37.3497 N   0  0  0  0  0  0  0  0  0  0  0  0
   -3.6596    5.1263   37.6570 C   0  0  0  0  0  0  0  0  0  0  0  0
   -3.8903    4.5590   38.9392 N   0  0  0  0  0  0  0  0  0  0  0  0
   -2.9777    4.4453   36.7878 N   0  0  0  0  0  0  0  0  0  0  0  0
   -7.7620    8.7342   37.2392 N   0  0  0  0  0  0  0  0  0  0  0  0
   -8.0216   10.1145   36.9517 C   0  0  2  0  0  0  0  0  0  0  0  0
   -7.6820   11.0459   38.0464 C   0  0  0  0  0  0  0  0  0  0  0  0
   -7.0180   10.6594   39.0782 O   0  0  0  0  0  0  0  0  0  0  0  0
   -9.5700   10.0497   36.8430 C   0  0  0  0  0  0  0  0  0  0  0  0
   -9.9751    8.9568   37.7969 C   0  0  0  0  0  0  0  0  0  0  0  0
   -8.6893    8.4259   38.3452 C   0  0  0  0  0  0  0  0  0  0  0  0
   -8.0861   12.4149   37.9891 N   0  0  0  0  0  0  0  0  0  0  0  0
   -7.9167   13.2680   36.8276 C   0  0  2  0  0  0  0  0  0  0  0  0
   -6.6112   13.9657   36.8539 C   0  0  0  0  0  0  0  0  0  0  0  0
   -5.8200   13.4323   37.7673 O   0  0  0  0  0  0  0  0  0  0  0  0
   -9.1350   14.0873   36.8070 C   0  0  0  0  0  0  0  0  0  0  0  0
   -9.7703   13.9652   38.1400 C   0  0  0  0  0  0  0  0  0  0  0  0
   -8.7128   13.2617   38.9967 C   0  0  0  0  0  0  0  0  0  0  0  0
   -6.0467   14.9964   36.1681 N   0  0  0  0  0  0  0  0  0  0  0  0
   -6.0203   16.4372   36.1722 C   0  0  2  0  0  0  0  0  0  0  0  0
   -4.8251   16.9814   35.4523 C   0  0  0  0  0  0  0  0  0  0  0  0
   -3.7952   17.1242   36.2025 O   0  0  0  0  0  0  0  0  0  0  0  0
   -6.0481   17.1202   37.4901 C   0  0  2  0  0  0  0  0  0  0  0  0
   -6.8843   18.3471   37.6185 C   0  0  0  0  0  0  0  0  0  0  0  0
   -4.6847   17.4544   38.0578 C   0  0  0  0  0  0  0  0  0  0  0  0
   -7.4856   18.7612   36.2832 C   0  0  0  0  0  0  0  0  0  0  0  0
   -4.7004   17.3373   34.1140 N   0  0  0  0  0  0  0  0  0  0  0  0
   -5.5451   18.2805   33.3568 C   0  0  2  0  0  0  0  0  0  0  0  0
   -5.5202   19.6385   33.9185 C   0  0  0  0  0  0  0  0  0  0  0  0
   -4.2949   19.9670   34.2672 O   0  0  0  0  0  0  0  0  0  0  0  0
   -6.8606   17.6836   33.0248 C   0  0  0  0  0  0  0  0  0  0  0  0
   -7.2549   17.7917   31.2348 S   0  0  0  0  0  0  0  0  0  0  0  0
   -6.4885   20.5938   34.1426 N   0  0  0  0  0  0  0  0  0  0  0  0
   -7.4436   21.2082   33.2342 C   0  0  2  0  0  0  0  0  0  0  0  0
   -7.1090   22.6618   33.2901 C   0  0  0  0  0  0  0  0  0  0  0  0
   -7.8846   23.3989   33.9734 O   0  0  0  0  0  0  0  0  0  0  0  0
   -8.8456   20.9405   33.6231 C   0  0  0  0  0  0  0  0  0  0  0  0
   -9.4730   21.8472   34.5774 C   0  0  0  0  0  0  0  0  0  0  0  0
  -10.0690   23.0347   34.2281 C   0  0  0  0  0  0  0  0  0  0  0  0
   -9.4178   21.5249   35.9333 C   0  0  0  0  0  0  0  0  0  0  0  0
  -10.5935   23.8756   35.1631 C   0  0  0  0  0  0  0  0  0  0  0  0
   -9.9523   22.3849   36.8551 C   0  0  0  0  0  0  0  0  0  0  0  0
  -10.5598   23.5866   36.5225 C   0  0  0  0  0  0  0  0  0  0  0  0
   -6.0259   23.3046   32.6732 N   0  0  0  0  0  0  0  0  0  0  0  0
   -5.6523   23.3034   31.2657 C   0  0  2  0  0  0  0  0  0  0  0  0
   -6.6098   22.6496   30.4088 C   0  0  0  0  0  0  0  0  0  0  0  0
   -7.8390   22.9541   30.7104 O   0  0  0  0  0  0  0  0  0  0  0  0
   -4.2471   22.8680   31.2971 C   0  0  0  0  0  0  0  0  0  0  0  0
   -3.7572   23.3522   32.6804 C   0  0  0  0  0  0  0  0  0  0  0  0
   -4.9418   24.1686   33.2079 C   0  0  0  0  0  0  0  0  0  0  0  0
   -6.5078   21.7703   29.3326 N   0  0  0  0  0  0  0  0  0  0  0  0
   -5.3425   21.0972   28.7982 C   0  0  2  0  0  0  0  0  0  0  0  0
   -4.2646   21.9860   28.3454 C   0  0  0  0  0  0  0  0  0  0  0  0
   -4.5782   23.0738   27.7508 O   0  0  0  0  0  0  0  0  0  0  0  0
   -5.7207   20.1940   27.6266 C   0  0  0  0  0  0  0  0  0  0  0  0
   -4.7233   20.2235   26.5297 C   0  0  0  0  0  0  0  0  0  0  0  0
   -3.3680   20.4834   26.8058 O   0  0  0  0  0  0  0  0  0  0  0  0
   -5.0795   20.0210   25.3623 O   0  0  0  0  0  0  0  0  0  0  0  0
   -1.6127   21.3070   28.7828 O   0  0  0  0  0  0  0  0  0  0  0  0
    1.5134   12.0124   28.6826 H   0  0  0  0  0  0  0  0  0  0  0  0
   -2.5763    3.5216   37.0352 H   0  0  0  0  0  0  0  0  0  0  0  0
  1  2  1  0
  1103  1  0
  1109  1  0
  2  3  1  0
  2109  1  1
  3  4  2  0
  3  5  1  0
  5  6  1  0
  6  7  1  0
  6  9  1  6
  7  8  2  0
  7 16  1  0
  9 10  1  0
 10 11  1  0
 11 12  1  0
 12 13  1  0
 13 14  1  0
 13 15  2  0
 17 16  1  6
 17 18  1  0
 17 20  1  0
 18 19  2  0
 18 22  1  0
 20 21  1  0
 21 82  1  0
 23 22  1  6
 23 24  1  0
 23 26  1  0
 24 25  2  0
 24 29  1  0
 26 27  1  0
 26 28  1  1
 29 30  1  0
 30 31  1  0
 30 33  1  6
 31 32  2  0
 31 38  1  0
 33 34  1  0
 34 35  1  0
 35 36  1  0
 36 37  1  0
 38 39  1  0
 39 40  1  0
 39 42  1  1
 40 41  2  0
 40 44  1  0
 42 43  1  0
 44 45  1  0
 45 46  1  0
 45 48  1  1
 46 47  2  0
 46 55  1  0
 48 49  1  0
 49 50  1  0
 50 51  1  0
 51 52  1  0
 52 53  1  0
 52 54  2  0
 55 56  1  0
 55 61  1  0
 56 57  1  0
 56 59  1  1
 57 58  2  0
 57 62  1  0
 59 60  1  0
 60 61  1  0
 62 63  1  0
 62 68  1  0
 63 64  1  0
 63 66  1  1
 64 65  2  0
 64 69  1  0
 66 67  1  0
 67 68  1  0
 70 69  1  1
 70 71  1  0
 70 73  1  0
 71 72  2  0
 71 77  1  0
 73 74  1  0
 73 75  1  6
 74 76  1  0
 78 77  1  1
 78 79  1  0
 78 81  1  0
 79 80  2  0
 79 83  1  0
 81 82  1  0
 83 84  1  0
 84 85  1  0
 84 87  1  1
 85 86  2  0
 85 94  1  0
 87 88  1  0
 88 89  2  0
 88 90  1  0
 89 91  1  0
 90 92  2  0
 91 93  2  0
 92 93  1  0
 94 95  1  0
 94100  1  0
 95 96  1  0
 95 98  1  1
 96 97  2  0
 96101  1  0
 98 99  1  0
 99100  1  0
101102  1  0
102103  1  0
102105  1  6
103104  2  0
105106  1  0
106107  1  0
106108  2  0
 15110  1  0
 54111  1  0
M  CHG  1  37   1
M  END
$$$$
