
     RDKit          3D

111117  0  0  0  0  0  0  0  0999 V2000
   -6.3109   23.1415   28.4966 N   0  0  0  0  0  0  0  0  0  0  0  0
   -5.7473   21.9874   27.8766 C   0  0  2  0  0  0  0  0  0  0  0  0
   -5.3884   20.8752   28.7912 C   0  0  0  0  0  0  0  0  0  0  0  0
   -4.6229   21.2258   29.7793 O   0  0  0  0  0  0  0  0  0  0  0  0
   -5.7907   19.5312   28.6888 N   0  0  0  0  0  0  0  0  0  0  0  0
   -5.4285   18.5171   27.7190 C   0  0  2  0  0  0  0  0  0  0  0  0
   -4.2898   17.7035   28.3099 C   0  0  0  0  0  0  0  0  0  0  0  0
   -3.1610   17.8504   27.7445 O   0  0  0  0  0  0  0  0  0  0  0  0
   -5.0774   19.0311   26.3688 C   0  0  0  0  0  0  0  0  0  0  0  0
   -3.7871   19.7940   26.3646 C   0  0  0  0  0  0  0  0  0  0  0  0
   -2.6927   19.0480   27.1124 C   0  0  0  0  0  0  0  0  0  0  0  0
   -1.3724   19.4253   26.6854 N   0  0  0  0  0  0  0  0  0  0  0  0
   -0.2883   18.5148   26.6461 C   0  0  0  0  0  0  0  0  0  0  0  0
   -0.4749   17.2072   26.1059 N   0  0  0  0  0  0  0  0  0  0  0  0
    0.8427   18.8766   27.0985 N   0  0  0  0  0  0  0  0  0  0  0  0
   -4.3873   16.8375   29.3941 N   0  0  0  0  0  0  0  0  0  0  0  0
   -5.2970   15.7767   29.6950 C   0  0  2  0  0  0  0  0  0  0  0  0
   -6.1998   15.3589   28.6167 C   0  0  0  0  0  0  0  0  0  0  0  0
   -7.4406   15.6749   28.8091 O   0  0  0  0  0  0  0  0  0  0  0  0
   -6.0077   15.9938   31.0189 C   0  0  0  0  0  0  0  0  0  0  0  0
   -7.5591   16.8533   30.9147 S   0  0  0  0  0  0  0  0  0  0  0  0
   -5.8624   14.6723   27.4347 N   0  0  0  0  0  0  0  0  0  0  0  0
   -5.2297   13.4026   27.2871 C   0  0  2  0  0  0  0  0  0  0  0  0
   -3.8256   13.3285   27.7040 C   0  0  0  0  0  0  0  0  0  0  0  0
   -3.0941   14.3819   27.6971 O   0  0  0  0  0  0  0  0  0  0  0  0
   -5.2454   13.0117   25.8114 C   0  0  2  0  0  0  0  0  0  0  0  0
   -6.3112   12.1204   25.5720 O   0  0  0  0  0  0  0  0  0  0  0  0
   -3.9886   12.1846   25.5662 C   0  0  0  0  0  0  0  0  0  0  0  0
   -3.2105   12.1369   28.1223 N   0  0  0  0  0  0  0  0  0  0  0  0
   -3.6408   11.2236   29.1506 C   0  0  2  0  0  0  0  0  0  0  0  0
   -2.5959   11.0348   30.1841 C   0  0  0  0  0  0  0  0  0  0  0  0
   -2.2979   12.1480   30.7683 O   0  0  0  0  0  0  0  0  0  0  0  0
   -4.1471    9.9475   28.5489 C   0  0  0  0  0  0  0  0  0  0  0  0
   -3.0128    9.0836   28.0390 C   0  0  0  0  0  0  0  0  0  0  0  0
   -2.1713    8.7112   29.2386 C   0  0  0  0  0  0  0  0  0  0  0  0
   -0.8020    8.1998   28.8729 C   0  0  0  0  0  0  0  0  0  0  0  0
   -0.4482    7.1137   29.7959 N   0  0  0  0  0  4  0  0  0  0  0  0
   -1.9284    9.8949   30.5884 N   0  0  0  0  0  0  0  0  0  0  0  0
   -2.4140    8.6657   31.1510 C   0  0  2  0  0  0  0  0  0  0  0  0
   -3.4135    8.8066   32.2280 C   0  0  0  0  0  0  0  0  0  0  0  0
   -4.5356    8.1981   32.0793 O   0  0  0  0  0  0  0  0  0  0  0  0
   -1.2498    7.7617   31.5591 C   0  0  0  0  0  0  0  0  0  0  0  0
   -0.7318    7.1220   30.4702 O   0  0  0  0  0  0  0  0  0  0  0  0
   -3.2831    9.5428   33.4190 N   0  0  0  0  0  0  0  0  0  0  0  0
   -2.2318    9.3464   34.4352 C   0  0  2  0  0  0  0  0  0  0  0  0
   -2.8739    8.7076   35.6115 C   0  0  0  0  0  0  0  0  0  0  0  0
   -2.8105    7.4110   35.6100 O   0  0  0  0  0  0  0  0  0  0  0  0
   -1.5237   10.6135   34.7729 C   0  0  0  0  0  0  0  0  0  0  0  0
   -0.9845   11.2680   33.5513 C   0  0  0  0  0  0  0  0  0  0  0  0
   -1.4306   10.5444   32.2734 C   0  0  0  0  0  0  0  0  0  0  0  0
   -1.1959    9.1213   32.3780 N   0  0  0  0  0  0  0  0  0  0  0  0
   -1.6560    8.2566   31.3610 C   0  0  0  0  0  0  0  0  0  0  0  0
   -0.7972    7.9042   30.2853 N   0  0  0  0  0  0  0  0  0  0  0  0
   -2.8590    7.7701   31.3831 N   0  0  0  0  0  0  0  0  0  0  0  0
   -3.5174    9.3428   36.6856 N   0  0  0  0  0  0  0  0  0  0  0  0
   -4.1663   10.6202   36.7343 C   0  0  2  0  0  0  0  0  0  0  0  0
   -3.5407   11.5941   37.6516 C   0  0  0  0  0  0  0  0  0  0  0  0
   -2.3946   11.3709   38.1917 O   0  0  0  0  0  0  0  0  0  0  0  0
   -5.5191   10.1785   37.3572 C   0  0  0  0  0  0  0  0  0  0  0  0
   -5.1702    9.0089   38.2397 C   0  0  0  0  0  0  0  0  0  0  0  0
   -3.7016    8.8038   38.0471 C   0  0  0  0  0  0  0  0  0  0  0  0
   -4.1978   12.8225   37.9676 N   0  0  0  0  0  0  0  0  0  0  0  0
   -4.7975   13.7041   36.9835 C   0  0  2  0  0  0  0  0  0  0  0  0
   -3.8232   14.7007   36.4841 C   0  0  0  0  0  0  0  0  0  0  0  0
   -2.5962   14.3676   36.8421 O   0  0  0  0  0  0  0  0  0  0  0  0
   -6.0124   14.1994   37.6426 C   0  0  0  0  0  0  0  0  0  0  0  0
   -5.8775   13.9099   39.0895 C   0  0  0  0  0  0  0  0  0  0  0  0
   -4.4166   13.4780   39.2511 C   0  0  0  0  0  0  0  0  0  0  0  0
   -3.8936   15.8462   35.7530 N   0  0  0  0  0  0  0  0  0  0  0  0
   -4.1706   17.2492   35.9301 C   0  0  2  0  0  0  0  0  0  0  0  0
   -3.6207   18.0783   34.8107 C   0  0  0  0  0  0  0  0  0  0  0  0
   -2.4120   18.4611   35.0014 O   0  0  0  0  0  0  0  0  0  0  0  0
   -3.6961   17.8895   37.1826 C   0  0  2  0  0  0  0  0  0  0  0  0
   -2.2958   17.6172   37.6139 C   0  0  0  0  0  0  0  0  0  0  0  0
   -4.5822   17.6544   38.3878 C   0  0  0  0  0  0  0  0  0  0  0  0
   -1.6574   16.5096   36.7883 C   0  0  0  0  0  0  0  0  0  0  0  0
   -4.2403   18.4690   33.6289 N   0  0  0  0  0  0  0  0  0  0  0  0
   -5.5225   19.1844   33.4853 C   0  0  2  0  0  0  0  0  0  0  0  0
   -5.5123   20.5004   34.1395 C   0  0  0  0  0  0  0  0  0  0  0  0
   -4.3721   21.1159   33.9117 O   0  0  0  0  0  0  0  0  0  0  0  0
   -6.6751   18.2865   33.7353 C   0  0  0  0  0  0  0  0  0  0  0  0
   -7.9028   18.3147   32.3703 S   0  0  0  0  0  0  0  0  0  0  0  0
   -6.4246   21.1862   34.9127 N   0  0  0  0  0  0  0  0  0  0  0  0
   -7.8052   21.5574   34.6464 C   0  0  2  0  0  0  0  0  0  0  0  0
   -7.7984   23.0480   34.7257 C   0  0  0  0  0  0  0  0  0  0  0  0
   -8.2782   23.5643   35.7818 O   0  0  0  0  0  0  0  0  0  0  0  0
   -8.7494   20.9493   35.6093 C   0  0  0  0  0  0  0  0  0  0  0  0
   -9.7847   20.0670   35.0837 C   0  0  0  0  0  0  0  0  0  0  0  0
   -9.6768   18.6981   35.0429 C   0  0  0  0  0  0  0  0  0  0  0  0
  -10.9306   20.6426   34.5351 C   0  0  0  0  0  0  0  0  0  0  0  0
  -10.6485   17.9187   34.4910 C   0  0  0  0  0  0  0  0  0  0  0  0
  -11.8946   19.8394   33.9865 C   0  0  0  0  0  0  0  0  0  0  0  0
  -11.8051   18.4562   33.9378 C   0  0  0  0  0  0  0  0  0  0  0  0
   -7.3141   23.9440   33.7617 N   0  0  0  0  0  0  0  0  0  0  0  0
   -7.6816   24.0505   32.3566 C   0  0  2  0  0  0  0  0  0  0  0  0
   -8.7738   23.1912   31.9728 C   0  0  0  0  0  0  0  0  0  0  0  0
   -9.7335   23.1812   32.8522 O   0  0  0  0  0  0  0  0  0  0  0  0
   -6.3831   23.9731   31.6686 C   0  0  0  0  0  0  0  0  0  0  0  0
   -5.3960   24.5472   32.7098 C   0  0  0  0  0  0  0  0  0  0  0  0
   -6.3152   25.0416   33.8317 C   0  0  0  0  0  0  0  0  0  0  0  0
   -9.0267   22.3761   30.8712 N   0  0  0  0  0  0  0  0  0  0  0  0
   -8.1573   22.0159   29.7708 C   0  0  2  0  0  0  0  0  0  0  0  0
   -7.6490   23.1472   28.9842 C   0  0  0  0  0  0  0  0  0  0  0  0
   -8.4318   24.1313   28.7522 O   0  0  0  0  0  0  0  0  0  0  0  0
   -8.8589   21.0608   28.8082 C   0  0  0  0  0  0  0  0  0  0  0  0
   -8.4170   21.2298   27.4028 C   0  0  0  0  0  0  0  0  0  0  0  0
   -7.7825   20.1731   26.7235 O   0  0  0  0  0  0  0  0  0  0  0  0
   -8.6029   22.3049   26.8195 O   0  0  0  0  0  0  0  0  0  0  0  0
   -5.0445   23.1353   28.0348 O   0  0  0  0  0  0  0  0  0  0  0  0
    1.7236   18.6418   26.6146 H   0  0  0  0  0  0  0  0  0  0  0  0
   -3.6726    8.3778   31.5937 H   0  0  0  0  0  0  0  0  0  0  0  0
  1  2  1  0
  1103  1  0
  1109  1  0
  2  3  1  0
  2109  1  1
  3  4  2  0
  3  5  1  0
  5  6  1  0
  6  7  1  0
  6  9  1  6
  7  8  2  0
  7 16  1  0
  9 10  1  0
 10 11  1  0
 11 12  1  0
 12 13  1  0
 13 14  1  0
 13 15  2  0
 17 16  1  6
 17 18  1  0
 17 20  1  0
 18 19  2  0
 18 22  1  0
 20 21  1  0
 21 82  1  0
 23 22  1  6
 23 24  1  0
 23 26  1  0
 24 25  2  0
 24 29  1  0
 26 27  1  0
 26 28  1  1
 29 30  1  0
 30 31  1  0
 30 33  1  6
 31 32  2  0
 31 38  1  0
 33 34  1  0
 34 35  1  0
 35 36  1  0
 36 37  1  0
 38 39  1  0
 39 40  1  0
 39 42  1  1
 40 41  2  0
 40 44  1  0
 42 43  1  0
 44 45  1  0
 45 46  1  0
 45 48  1  1
 46 47  2  0
 46 55  1  0
 48 49  1  0
 49 50  1  0
 50 51  1  0
 51 52  1  0
 52 53  1  0
 52 54  2  0
 55 56  1  0
 55 61  1  0
 56 57  1  0
 56 59  1  1
 57 58  2  0
 57 62  1  0
 59 60  1  0
 60 61  1  0
 62 63  1  0
 62 68  1  0
 63 64  1  0
 63 66  1  1
 64 65  2  0
 64 69  1  0
 66 67  1  0
 67 68  1  0
 70 69  1  6
 70 71  1  0
 70 73  1  0
 71 72  2  0
 71 77  1  0
 73 74  1  0
 73 75  1  1
 74 76  1  0
 78 77  1  1
 78 79  1  0
 78 81  1  0
 79 80  2  0
 79 83  1  0
 81 82  1  0
 83 84  1  0
 84 85  1  0
 84 87  1  1
 85 86  2  0
 85 94  1  0
 87 88  1  0
 88 89  2  0
 88 90  1  0
 89 91  1  0
 90 92  2  0
 91 93  2  0
 92 93  1  0
 94 95  1  0
 94100  1  0
 95 96  1  0
 95 98  1  6
 96 97  2  0
 96101  1  0
 98 99  1  0
 99100  1  0
101102  1  0
102103  1  0
102105  1  6
103104  2  0
105106  1  0
106107  1  0
106108  2  0
 15110  1  0
 54111  1  0
M  CHG  1  37   1
M  END
$$$$
