
     RDKit          3D

111117  0  0  0  0  0  0  0  0999 V2000
   -4.5480   14.1753   42.1568 N   0  0  0  0  0  0  0  0  0  0  0  0
   -3.5985   13.5140   41.3231 C   0  0  2  0  0  0  0  0  0  0  0  0
   -3.9626   13.4107   39.8882 C   0  0  0  0  0  0  0  0  0  0  0  0
   -5.1317   12.8890   39.6729 O   0  0  0  0  0  0  0  0  0  0  0  0
   -3.1870   13.8146   38.7865 N   0  0  0  0  0  0  0  0  0  0  0  0
   -1.9565   13.2631   38.2555 C   0  0  2  0  0  0  0  0  0  0  0  0
   -2.3278   12.3177   37.1258 C   0  0  0  0  0  0  0  0  0  0  0  0
   -2.1249   11.0841   37.3550 O   0  0  0  0  0  0  0  0  0  0  0  0
   -1.0833   12.5909   39.2534 C   0  0  0  0  0  0  0  0  0  0  0  0
   -0.7562   11.1794   38.8691 C   0  0  0  0  0  0  0  0  0  0  0  0
   -1.9576   10.2612   39.0338 C   0  0  0  0  0  0  0  0  0  0  0  0
   -1.8122    9.0231   38.3169 N   0  0  0  0  0  0  0  0  0  0  0  0
   -2.3464    7.7976   38.7844 C   0  0  0  0  0  0  0  0  0  0  0  0
   -3.5691    7.7875   39.5204 N   0  0  0  0  0  0  0  0  0  0  0  0
   -1.7235    6.7166   38.5429 N   0  0  0  0  0  0  0  0  0  0  0  0
   -2.8607   12.6908   35.8962 N   0  0  0  0  0  0  0  0  0  0  0  0
   -2.4638   13.6746   34.9381 C   0  0  2  0  0  0  0  0  0  0  0  0
   -1.1587   14.3104   35.1504 C   0  0  0  0  0  0  0  0  0  0  0  0
   -1.2240   15.5525   35.5101 O   0  0  0  0  0  0  0  0  0  0  0  0
   -3.5735   14.6699   34.6501 C   0  0  0  0  0  0  0  0  0  0  0  0
   -3.5650   16.1292   35.6635 S   0  0  0  0  0  0  0  0  0  0  0  0
    0.1133   13.7240   35.0066 N   0  0  0  0  0  0  0  0  0  0  0  0
    0.6904   13.1096   33.8561 C   0  0  2  0  0  0  0  0  0  0  0  0
    0.0841   11.8452   33.4267 C   0  0  0  0  0  0  0  0  0  0  0  0
   -0.5301   11.1038   34.2739 O   0  0  0  0  0  0  0  0  0  0  0  0
    2.1541   12.7894   34.1493 C   0  0  2  0  0  0  0  0  0  0  0  0
    2.7215   12.1262   33.0421 O   0  0  0  0  0  0  0  0  0  0  0  0
    2.1579   11.7503   35.2647 C   0  0  0  0  0  0  0  0  0  0  0  0
    0.1371   11.3786   32.1029 N   0  0  0  0  0  0  0  0  0  0  0  0
   -0.2601   12.0632   30.8987 C   0  0  2  0  0  0  0  0  0  0  0  0
   -1.2802   11.2957   30.1464 C   0  0  0  0  0  0  0  0  0  0  0  0
   -2.3502   11.1125   30.8471 O   0  0  0  0  0  0  0  0  0  0  0  0
    0.9398   12.4492   30.0874 C   0  0  0  0  0  0  0  0  0  0  0  0
    1.3162   13.8997   30.3051 C   0  0  0  0  0  0  0  0  0  0  0  0
    0.8264   14.2780   31.6845 C   0  0  0  0  0  0  0  0  0  0  0  0
    1.1375   13.2428   32.7342 C   0  0  0  0  0  0  0  0  0  0  0  0
    0.1614   13.3754   33.8234 N   0  0  0  0  0  4  0  0  0  0  0  0
   -1.2487   10.7735   28.8678 N   0  0  0  0  0  0  0  0  0  0  0  0
   -1.0871   11.4112   27.5910 C   0  0  2  0  0  0  0  0  0  0  0  0
   -1.8906   12.6313   27.3797 C   0  0  0  0  0  0  0  0  0  0  0  0
   -1.2649   13.7035   27.0475 O   0  0  0  0  0  0  0  0  0  0  0  0
   -1.2635   10.4007   26.4566 C   0  0  0  0  0  0  0  0  0  0  0  0
   -0.5159   10.7585   25.3720 O   0  0  0  0  0  0  0  0  0  0  0  0
   -3.2852   12.7638   27.5029 N   0  0  0  0  0  0  0  0  0  0  0  0
   -4.2881   11.9861   26.7506 C   0  0  2  0  0  0  0  0  0  0  0  0
   -4.8962   12.9038   25.7545 C   0  0  0  0  0  0  0  0  0  0  0  0
   -4.3217   12.8776   24.5907 O   0  0  0  0  0  0  0  0  0  0  0  0
   -5.2940   11.3424   27.6420 C   0  0  0  0  0  0  0  0  0  0  0  0
   -4.7437   10.1120   28.2703 C   0  0  0  0  0  0  0  0  0  0  0  0
   -3.4602    9.6414   27.5725 C   0  0  0  0  0  0  0  0  0  0  0  0
   -2.6955   10.7679   27.0853 N   0  0  0  0  0  0  0  0  0  0  0  0
   -1.6302   10.5564   26.1829 C   0  0  0  0  0  0  0  0  0  0  0  0
   -1.0705   11.6536   25.4744 N   0  0  0  0  0  0  0  0  0  0  0  0
   -1.1437    9.3705   25.9804 N   0  0  0  0  0  0  0  0  0  0  0  0
   -5.9907   13.7636   25.9390 N   0  0  0  0  0  0  0  0  0  0  0  0
   -6.4821   14.3703   27.1414 C   0  0  2  0  0  0  0  0  0  0  0  0
   -7.8436   13.9508   27.5308 C   0  0  0  0  0  0  0  0  0  0  0  0
   -8.4388   12.9701   26.9486 O   0  0  0  0  0  0  0  0  0  0  0  0
   -6.5576   15.8432   26.6533 C   0  0  0  0  0  0  0  0  0  0  0  0
   -6.8659   15.7435   25.1824 C   0  0  0  0  0  0  0  0  0  0  0  0
   -6.8954   14.2770   24.8921 C   0  0  0  0  0  0  0  0  0  0  0  0
   -8.5438   14.6296   28.5746 N   0  0  0  0  0  0  0  0  0  0  0  0
   -7.9675   14.9570   29.8654 C   0  0  2  0  0  0  0  0  0  0  0  0
   -8.1754   13.8656   30.8439 C   0  0  0  0  0  0  0  0  0  0  0  0
   -8.5785   12.7665   30.2322 O   0  0  0  0  0  0  0  0  0  0  0  0
   -8.5250   16.2785   30.1793 C   0  0  0  0  0  0  0  0  0  0  0  0
   -9.6797   16.4950   29.2764 C   0  0  0  0  0  0  0  0  0  0  0  0
   -9.9135   15.1253   28.6312 C   0  0  0  0  0  0  0  0  0  0  0  0
   -8.0429   13.7308   32.1914 N   0  0  0  0  0  0  0  0  0  0  0  0
   -8.7761   14.0028   33.4017 C   0  0  2  0  0  0  0  0  0  0  0  0
   -8.2852   13.1829   34.5548 C   0  0  0  0  0  0  0  0  0  0  0  0
   -8.8625   12.0426   34.6564 O   0  0  0  0  0  0  0  0  0  0  0  0
  -10.2487   13.8180   33.3680 C   0  0  2  0  0  0  0  0  0  0  0  0
  -11.0097   14.5037   32.2855 C   0  0  0  0  0  0  0  0  0  0  0  0
  -10.9552   14.1315   34.6702 C   0  0  0  0  0  0  0  0  0  0  0  0
  -10.3936   15.8489   31.9291 C   0  0  0  0  0  0  0  0  0  0  0  0
   -7.3112   13.4968   35.4961 N   0  0  0  0  0  0  0  0  0  0  0  0
   -7.2564   14.6893   36.3630 C   0  0  2  0  0  0  0  0  0  0  0  0
   -8.4222   14.7965   37.2517 C   0  0  0  0  0  0  0  0  0  0  0  0
   -8.7270   13.6182   37.7509 O   0  0  0  0  0  0  0  0  0  0  0  0
   -6.8409   15.8927   35.6038 C   0  0  0  0  0  0  0  0  0  0  0  0
   -5.4238   16.7645   36.3804 S   0  0  0  0  0  0  0  0  0  0  0  0
   -9.2247   15.8456   37.6466 N   0  0  0  0  0  0  0  0  0  0  0  0
   -8.8883   17.1143   38.2726 C   0  0  2  0  0  0  0  0  0  0  0  0
   -9.6320   17.0852   39.5665 C   0  0  0  0  0  0  0  0  0  0  0  0
  -10.6894   17.7850   39.6315 O   0  0  0  0  0  0  0  0  0  0  0  0
   -9.2650   18.2746   37.4357 C   0  0  0  0  0  0  0  0  0  0  0  0
   -8.2556   19.2999   37.1983 C   0  0  0  0  0  0  0  0  0  0  0  0
   -7.9326   19.7836   35.9537 C   0  0  0  0  0  0  0  0  0  0  0  0
   -7.5303   19.7811   38.2881 C   0  0  0  0  0  0  0  0  0  0  0  0
   -6.9425   20.7027   35.7768 C   0  0  0  0  0  0  0  0  0  0  0  0
   -6.5401   20.7053   38.0864 C   0  0  0  0  0  0  0  0  0  0  0  0
   -6.2007   21.2073   36.8388 C   0  0  0  0  0  0  0  0  0  0  0  0
   -9.2935   16.3637   40.7204 N   0  0  0  0  0  0  0  0  0  0  0  0
   -8.0466   16.3880   41.4723 C   0  0  2  0  0  0  0  0  0  0  0  0
   -7.1090   17.3829   41.0145 C   0  0  0  0  0  0  0  0  0  0  0  0
   -7.6802   18.5221   40.7491 O   0  0  0  0  0  0  0  0  0  0  0  0
   -7.6693   14.9669   41.5327 C   0  0  0  0  0  0  0  0  0  0  0  0
   -9.0293   14.2363   41.4648 C   0  0  0  0  0  0  0  0  0  0  0  0
  -10.0474   15.3792   41.5389 C   0  0  0  0  0  0  0  0  0  0  0  0
   -5.7325   17.3926   40.7980 N   0  0  0  0  0  0  0  0  0  0  0  0
   -4.7839   16.2995   40.8407 C   0  0  2  0  0  0  0  0  0  0  0  0
   -4.7109   15.5898   42.1245 C   0  0  0  0  0  0  0  0  0  0  0  0
   -4.7991   16.2689   43.2044 O   0  0  0  0  0  0  0  0  0  0  0  0
   -3.3764   16.7817   40.4976 C   0  0  0  0  0  0  0  0  0  0  0  0
   -2.3193   16.0493   41.2358 C   0  0  0  0  0  0  0  0  0  0  0  0
   -2.6606   15.0303   42.1446 O   0  0  0  0  0  0  0  0  0  0  0  0
   -1.1284   16.3328   41.0571 O   0  0  0  0  0  0  0  0  0  0  0  0
   -4.3933   12.8366   42.1868 O   0  0  0  0  0  0  0  0  0  0  0  0
   -1.1568    6.5935   37.6892 H   0  0  0  0  0  0  0  0  0  0  0  0
   -0.4425    8.9674   26.6297 H   0  0  0  0  0  0  0  0  0  0  0  0
  1  2  1  0
  1103  1  0
  1109  1  0
  2  3  1  0
  2109  1  1
  3  4  2  0
  3  5  1  0
  5  6  1  0
  6  7  1  0
  6  9  1  1
  7  8  2  0
  7 16  1  0
  9 10  1  0
 10 11  1  0
 11 12  1  0
 12 13  1  0
 13 14  1  0
 13 15  2  0
 17 16  1  1
 17 18  1  0
 17 20  1  0
 18 19  2  0
 18 22  1  0
 20 21  1  0
 21 82  1  0
 23 22  1  1
 23 24  1  0
 23 26  1  0
 24 25  2  0
 24 29  1  0
 26 27  1  0
 26 28  1  1
 29 30  1  0
 30 31  1  0
 30 33  1  6
 31 32  2  0
 31 38  1  0
 33 34  1  0
 34 35  1  0
 35 36  1  0
 36 37  1  0
 38 39  1  0
 39 40  1  0
 39 42  1  6
 40 41  2  0
 40 44  1  0
 42 43  1  0
 44 45  1  0
 45 46  1  0
 45 48  1  1
 46 47  2  0
 46 55  1  0
 48 49  1  0
 49 50  1  0
 50 51  1  0
 51 52  1  0
 52 53  1  0
 52 54  2  0
 55 56  1  0
 55 61  1  0
 56 57  1  0
 56 59  1  6
 57 58  2  0
 57 62  1  0
 59 60  1  0
 60 61  1  0
 62 63  1  0
 62 68  1  0
 63 64  1  0
 63 66  1  1
 64 65  2  0
 64 69  1  0
 66 67  1  0
 67 68  1  0
 70 69  1  6
 70 71  1  0
 70 73  1  0
 71 72  2  0
 71 77  1  0
 73 74  1  0
 73 75  1  1
 74 76  1  0
 78 77  1  6
 78 79  1  0
 78 81  1  0
 79 80  2  0
 79 83  1  0
 81 82  1  0
 83 84  1  0
 84 85  1  0
 84 87  1  6
 85 86  2  0
 85 94  1  0
 87 88  1  0
 88 89  2  0
 88 90  1  0
 89 91  1  0
 90 92  2  0
 91 93  2  0
 92 93  1  0
 94 95  1  0
 94100  1  0
 95 96  1  0
 95 98  1  6
 96 97  2  0
 96101  1  0
 98 99  1  0
 99100  1  0
101102  1  0
102103  1  0
102105  1  1
103104  2  0
105106  1  0
106107  1  0
106108  2  0
 15110  1  0
 54111  1  0
M  CHG  1  37   1
M  END
$$$$
