
     RDKit          3D

111117  0  0  0  0  0  0  0  0999 V2000
   -5.7501    7.2424   40.9390 N   0  0  0  0  0  0  0  0  0  0  0  0
   -4.9018    7.0149   39.8154 C   0  0  2  0  0  0  0  0  0  0  0  0
   -5.1531    7.8764   38.6334 C   0  0  0  0  0  0  0  0  0  0  0  0
   -6.3854    7.8720   38.2252 O   0  0  0  0  0  0  0  0  0  0  0  0
   -4.2142    8.6675   37.9471 N   0  0  0  0  0  0  0  0  0  0  0  0
   -3.0951    8.2791   37.1122 C   0  0  2  0  0  0  0  0  0  0  0  0
   -3.5666    8.3128   35.6685 C   0  0  0  0  0  0  0  0  0  0  0  0
   -3.6631    7.1814   35.0974 O   0  0  0  0  0  0  0  0  0  0  0  0
   -2.4831    6.9662   37.4469 C   0  0  0  0  0  0  0  0  0  0  0  0
   -1.0432    7.0907   37.8450 C   0  0  0  0  0  0  0  0  0  0  0  0
   -0.8943    7.7407   39.2121 C   0  0  0  0  0  0  0  0  0  0  0  0
   -1.2939    9.1221   39.2163 N   0  0  0  0  0  0  0  0  0  0  0  0
   -0.9271   10.0247   40.2442 C   0  0  0  0  0  0  0  0  0  0  0  0
   -1.9007   10.4582   41.1932 N   0  0  0  0  0  0  0  0  0  0  0  0
    0.2719   10.4413   40.3057 N   0  0  0  0  0  0  0  0  0  0  0  0
   -3.8942    9.4563   34.9473 N   0  0  0  0  0  0  0  0  0  0  0  0
   -3.2071   10.6939   34.7484 C   0  0  2  0  0  0  0  0  0  0  0  0
   -1.8172   10.7566   35.2138 C   0  0  0  0  0  0  0  0  0  0  0  0
   -1.6366   11.5110   36.2505 O   0  0  0  0  0  0  0  0  0  0  0  0
   -4.0390   11.8849   35.1889 C   0  0  0  0  0  0  0  0  0  0  0  0
   -3.7957   12.3987   36.8721 S   0  0  0  0  0  0  0  0  0  0  0  0
   -0.6992   10.1005   34.6640 N   0  0  0  0  0  0  0  0  0  0  0  0
   -0.1745   10.1838   33.3404 C   0  0  2  0  0  0  0  0  0  0  0  0
   -1.0062    9.6077   32.2787 C   0  0  0  0  0  0  0  0  0  0  0  0
   -1.8410    8.6723   32.5490 O   0  0  0  0  0  0  0  0  0  0  0  0
    1.1504    9.4272   33.2860 C   0  0  2  0  0  0  0  0  0  0  0  0
    1.6168    9.3899   31.9561 O   0  0  0  0  0  0  0  0  0  0  0  0
    0.8371    7.9745   33.6256 C   0  0  0  0  0  0  0  0  0  0  0  0
   -0.9427   10.0280   30.9399 N   0  0  0  0  0  0  0  0  0  0  0  0
   -1.0715   11.3647   30.4171 C   0  0  2  0  0  0  0  0  0  0  0  0
   -2.1668   11.4581   29.4235 C   0  0  0  0  0  0  0  0  0  0  0  0
   -3.3077   11.1437   29.9419 O   0  0  0  0  0  0  0  0  0  0  0  0
    0.2501   11.8712   29.9237 C   0  0  0  0  0  0  0  0  0  0  0  0
    1.2983   11.8492   31.0164 C   0  0  0  0  0  0  0  0  0  0  0  0
    1.2999   13.2216   31.6506 C   0  0  0  0  0  0  0  0  0  0  0  0
    0.2841   14.1588   31.0506 C   0  0  0  0  0  0  0  0  0  0  0  0
    0.6004   15.5268   31.4811 N   0  0  0  0  0  4  0  0  0  0  0  0
   -2.1404   11.8136   28.0888 N   0  0  0  0  0  0  0  0  0  0  0  0
   -1.7307   13.0296   27.4434 C   0  0  2  0  0  0  0  0  0  0  0  0
   -2.2221   14.2775   28.0600 C   0  0  0  0  0  0  0  0  0  0  0  0
   -1.3478   15.1566   28.3979 O   0  0  0  0  0  0  0  0  0  0  0  0
   -2.0270   12.9715   25.9440 C   0  0  0  0  0  0  0  0  0  0  0  0
   -3.0006   12.0517   25.6806 O   0  0  0  0  0  0  0  0  0  0  0  0
   -3.5579   14.6251   28.3290 N   0  0  0  0  0  0  0  0  0  0  0  0
   -4.6387   14.7069   27.3281 C   0  0  2  0  0  0  0  0  0  0  0  0
   -4.9390   16.1465   27.1248 C   0  0  0  0  0  0  0  0  0  0  0  0
   -4.2853   16.6902   26.1439 O   0  0  0  0  0  0  0  0  0  0  0  0
   -5.8361   13.9100   27.7179 C   0  0  0  0  0  0  0  0  0  0  0  0
   -5.5308   12.4546   27.7294 C   0  0  0  0  0  0  0  0  0  0  0  0
   -4.0352   12.1882   27.9487 C   0  0  0  0  0  0  0  0  0  0  0  0
   -3.3296   12.1410   26.6874 N   0  0  0  0  0  0  0  0  0  0  0  0
   -1.9307   11.9489   26.6715 C   0  0  0  0  0  0  0  0  0  0  0  0
   -1.1186   12.5561   27.6669 N   0  0  0  0  0  0  0  0  0  0  0  0
   -1.3603   11.2237   25.7589 N   0  0  0  0  0  0  0  0  0  0  0  0
   -5.8275   16.9477   27.8597 N   0  0  0  0  0  0  0  0  0  0  0  0
   -6.2751   16.8080   29.2144 C   0  0  2  0  0  0  0  0  0  0  0  0
   -7.7244   16.5648   29.3621 C   0  0  0  0  0  0  0  0  0  0  0  0
   -8.4690   16.2954   28.3482 O   0  0  0  0  0  0  0  0  0  0  0  0
   -5.9793   18.2487   29.7146 C   0  0  0  0  0  0  0  0  0  0  0  0
   -6.1725   19.1217   28.5025 C   0  0  0  0  0  0  0  0  0  0  0  0
   -6.5010   18.1750   27.3926 C   0  0  0  0  0  0  0  0  0  0  0  0
   -8.3450   16.6230   30.6473 N   0  0  0  0  0  0  0  0  0  0  0  0
   -7.8254   15.9713   31.8350 C   0  0  2  0  0  0  0  0  0  0  0  0
   -8.3546   14.5955   31.9733 C   0  0  0  0  0  0  0  0  0  0  0  0
   -8.9364   14.2089   30.8523 O   0  0  0  0  0  0  0  0  0  0  0  0
   -8.1012   16.9269   32.9151 C   0  0  0  0  0  0  0  0  0  0  0  0
   -9.0960   17.8973   32.4009 C   0  0  0  0  0  0  0  0  0  0  0  0
   -9.5704   17.2838   31.0796 C   0  0  0  0  0  0  0  0  0  0  0  0
   -8.3734   13.6564   32.9578 N   0  0  0  0  0  0  0  0  0  0  0  0
   -9.1308   13.3101   34.1338 C   0  0  2  0  0  0  0  0  0  0  0  0
   -8.9364   11.8786   34.5284 C   0  0  0  0  0  0  0  0  0  0  0  0
   -9.7587   11.0740   33.9626 O   0  0  0  0  0  0  0  0  0  0  0  0
  -10.5991   13.5256   34.0923 C   0  0  2  0  0  0  0  0  0  0  0  0
  -11.3760   12.8108   33.0404 C   0  0  0  0  0  0  0  0  0  0  0  0
  -11.0237   14.9783   34.0434 C   0  0  0  0  0  0  0  0  0  0  0  0
  -10.5075   11.8276   32.2690 C   0  0  0  0  0  0  0  0  0  0  0  0
   -8.0030   11.3342   35.4035 N   0  0  0  0  0  0  0  0  0  0  0  0
   -7.7611   11.7199   36.8068 C   0  0  2  0  0  0  0  0  0  0  0  0
   -8.9470   11.5384   37.6557 C   0  0  0  0  0  0  0  0  0  0  0  0
   -9.5478   10.4044   37.3662 O   0  0  0  0  0  0  0  0  0  0  0  0
   -7.0245   13.0031   36.8969 C   0  0  0  0  0  0  0  0  0  0  0  0
   -5.5228   12.8843   37.9466 S   0  0  0  0  0  0  0  0  0  0  0  0
   -9.5283   12.2923   38.6528 N   0  0  0  0  0  0  0  0  0  0  0  0
   -8.9750   12.8161   39.8914 C   0  0  2  0  0  0  0  0  0  0  0  0
   -9.8167   12.1908   40.9539 C   0  0  0  0  0  0  0  0  0  0  0  0
  -10.6941   12.9320   41.4950 O   0  0  0  0  0  0  0  0  0  0  0  0
   -9.0107   14.2940   39.9455 C   0  0  0  0  0  0  0  0  0  0  0  0
   -8.0363   15.0287   39.1473 C   0  0  0  0  0  0  0  0  0  0  0  0
   -6.6819   15.0018   39.3758 C   0  0  0  0  0  0  0  0  0  0  0  0
   -8.5040   15.8556   38.1261 C   0  0  0  0  0  0  0  0  0  0  0  0
   -5.8153   15.7497   38.6368 C   0  0  0  0  0  0  0  0  0  0  0  0
   -7.6145   16.5976   37.3958 C   0  0  0  0  0  0  0  0  0  0  0  0
   -6.2442   16.5824   37.6096 C   0  0  0  0  0  0  0  0  0  0  0  0
   -9.7486   10.8694   41.4183 N   0  0  0  0  0  0  0  0  0  0  0  0
   -8.5978   10.1531   41.9506 C   0  0  2  0  0  0  0  0  0  0  0  0
   -7.4266   10.9764   42.1217 C   0  0  0  0  0  0  0  0  0  0  0  0
   -7.7057   12.1412   42.6315 O   0  0  0  0  0  0  0  0  0  0  0  0
   -8.5516    8.9387   41.1210 C   0  0  0  0  0  0  0  0  0  0  0  0
  -10.0285    8.7293   40.7173 C   0  0  0  0  0  0  0  0  0  0  0  0
  -10.7704    9.7964   41.5290 C   0  0  0  0  0  0  0  0  0  0  0  0
   -6.0687   10.7979   41.8650 N   0  0  0  0  0  0  0  0  0  0  0  0
   -5.3935    9.7151   41.1807 C   0  0  2  0  0  0  0  0  0  0  0  0
   -5.5919    8.3859   41.7731 C   0  0  0  0  0  0  0  0  0  0  0  0
   -5.6213    8.2826   43.0473 O   0  0  0  0  0  0  0  0  0  0  0  0
   -3.8897    9.9683   41.1046 C   0  0  0  0  0  0  0  0  0  0  0  0
   -3.3385   10.5504   42.3521 C   0  0  0  0  0  0  0  0  0  0  0  0
   -4.0680   10.4811   43.5536 O   0  0  0  0  0  0  0  0  0  0  0  0
   -2.2318   11.1032   42.3420 O   0  0  0  0  0  0  0  0  0  0  0  0
   -5.8992    6.1604   40.1491 O   0  0  0  0  0  0  0  0  0  0  0  0
    0.6296   10.9525   41.1278 H   0  0  0  0  0  0  0  0  0  0  0  0
   -1.0473   10.2574   25.9687 H   0  0  0  0  0  0  0  0  0  0  0  0
  1  2  1  0
  1103  1  0
  1109  1  0
  2  3  1  0
  2109  1  6
  3  4  2  0
  3  5  1  0
  5  6  1  0
  6  7  1  0
  6  9  1  1
  7  8  2  0
  7 16  1  0
  9 10  1  0
 10 11  1  0
 11 12  1  0
 12 13  1  0
 13 14  1  0
 13 15  2  0
 17 16  1  1
 17 18  1  0
 17 20  1  0
 18 19  2  0
 18 22  1  0
 20 21  1  0
 21 82  1  0
 23 22  1  1
 23 24  1  0
 23 26  1  0
 24 25  2  0
 24 29  1  0
 26 27  1  0
 26 28  1  6
 29 30  1  0
 30 31  1  0
 30 33  1  6
 31 32  2  0
 31 38  1  0
 33 34  1  0
 34 35  1  0
 35 36  1  0
 36 37  1  0
 38 39  1  0
 39 40  1  0
 39 42  1  6
 40 41  2  0
 40 44  1  0
 42 43  1  0
 44 45  1  0
 45 46  1  0
 45 48  1  1
 46 47  2  0
 46 55  1  0
 48 49  1  0
 49 50  1  0
 50 51  1  0
 51 52  1  0
 52 53  1  0
 52 54  2  0
 55 56  1  0
 55 61  1  0
 56 57  1  0
 56 59  1  1
 57 58  2  0
 57 62  1  0
 59 60  1  0
 60 61  1  0
 62 63  1  0
 62 68  1  0
 63 64  1  0
 63 66  1  1
 64 65  2  0
 64 69  1  0
 66 67  1  0
 67 68  1  0
 70 69  1  6
 70 71  1  0
 70 73  1  0
 71 72  2  0
 71 77  1  0
 73 74  1  0
 73 75  1  6
 74 76  1  0
 78 77  1  6
 78 79  1  0
 78 81  1  0
 79 80  2  0
 79 83  1  0
 81 82  1  0
 83 84  1  0
 84 85  1  0
 84 87  1  6
 85 86  2  0
 85 94  1  0
 87 88  1  0
 88 89  2  0
 88 90  1  0
 89 91  1  0
 90 92  2  0
 91 93  2  0
 92 93  1  0
 94 95  1  0
 94100  1  0
 95 96  1  0
 95 98  1  6
 96 97  2  0
 96101  1  0
 98 99  1  0
 99100  1  0
101102  1  0
102103  1  0
102105  1  1
103104  2  0
105106  1  0
106107  1  0
106108  2  0
 15110  1  0
 54111  1  0
M  CHG  1  37   1
M  END
$$$$
