
     RDKit          3D

111117  0  0  0  0  0  0  0  0999 V2000
    0.4201   21.7199   31.4806 N   0  0  0  0  0  0  0  0  0  0  0  0
    0.6613   20.3735   31.0769 C   0  0  2  0  0  0  0  0  0  0  0  0
   -0.3404   19.3761   31.5287 C   0  0  0  0  0  0  0  0  0  0  0  0
   -0.5624   19.3879   32.8077 O   0  0  0  0  0  0  0  0  0  0  0  0
   -1.0443   18.4598   30.7266 N   0  0  0  0  0  0  0  0  0  0  0  0
   -0.5755   17.2917   30.0083 C   0  0  2  0  0  0  0  0  0  0  0  0
   -0.8221   16.0806   30.8917 C   0  0  0  0  0  0  0  0  0  0  0  0
    0.2199   15.5209   31.3568 O   0  0  0  0  0  0  0  0  0  0  0  0
    0.8412   17.3513   29.5616 C   0  0  0  0  0  0  0  0  0  0  0  0
    1.8025   17.3924   30.7111 C   0  0  0  0  0  0  0  0  0  0  0  0
    2.0172   16.0114   31.3114 C   0  0  0  0  0  0  0  0  0  0  0  0
    2.2273   14.9987   30.3124 N   0  0  0  0  0  0  0  0  0  0  0  0
    2.5232   13.6516   30.6345 C   0  0  0  0  0  0  0  0  0  0  0  0
    3.3361   13.3519   31.7685 N   0  0  0  0  0  0  0  0  0  0  0  0
    2.0599   12.7222   29.9022 N   0  0  0  0  0  0  0  0  0  0  0  0
   -2.0673   15.5562   31.2223 N   0  0  0  0  0  0  0  0  0  0  0  0
   -3.2005   15.2020   30.4261 C   0  0  2  0  0  0  0  0  0  0  0  0
   -3.0064   15.1960   28.9719 C   0  0  0  0  0  0  0  0  0  0  0  0
   -3.6192   16.1518   28.3493 O   0  0  0  0  0  0  0  0  0  0  0  0
   -4.4542   15.9408   30.8586 C   0  0  0  0  0  0  0  0  0  0  0  0
   -4.7571   17.4766   30.0184 S   0  0  0  0  0  0  0  0  0  0  0  0
   -2.2464   14.2858   28.2127 N   0  0  0  0  0  0  0  0  0  0  0  0
   -2.3794   12.8688   28.1193 C   0  0  2  0  0  0  0  0  0  0  0  0
   -2.0429   12.1077   29.3269 C   0  0  0  0  0  0  0  0  0  0  0  0
   -1.2223   12.5906   30.1861 O   0  0  0  0  0  0  0  0  0  0  0  0
   -1.4405   12.3555   27.0304 C   0  0  2  0  0  0  0  0  0  0  0  0
   -1.7148   10.9965   26.7747 O   0  0  0  0  0  0  0  0  0  0  0  0
   -0.0376   12.3602   27.6267 C   0  0  0  0  0  0  0  0  0  0  0  0
   -2.5786   10.8404   29.6103 N   0  0  0  0  0  0  0  0  0  0  0  0
   -3.9643   10.4481   29.6598 C   0  0  2  0  0  0  0  0  0  0  0  0
   -4.3195    9.8666   30.9756 C   0  0  0  0  0  0  0  0  0  0  0  0
   -4.1315   10.7109   31.9354 O   0  0  0  0  0  0  0  0  0  0  0  0
   -4.3116    9.5777   28.4899 C   0  0  0  0  0  0  0  0  0  0  0  0
   -5.0096   10.3629   27.3993 C   0  0  0  0  0  0  0  0  0  0  0  0
   -5.5446   11.6234   28.0399 C   0  0  0  0  0  0  0  0  0  0  0  0
   -6.3731   12.4646   27.1038 C   0  0  0  0  0  0  0  0  0  0  0  0
   -6.2799   13.8667   27.5310 N   0  0  0  0  0  4  0  0  0  0  0  0
   -4.7966    8.6123   31.3037 N   0  0  0  0  0  0  0  0  0  0  0  0
   -5.9944    7.9247   30.9092 C   0  0  2  0  0  0  0  0  0  0  0  0
   -7.2353    8.7225   30.9589 C   0  0  0  0  0  0  0  0  0  0  0  0
   -7.9347    8.7993   29.8835 O   0  0  0  0  0  0  0  0  0  0  0  0
   -6.1296    6.6003   31.6622 C   0  0  0  0  0  0  0  0  0  0  0  0
   -7.0598    6.7038   32.6558 O   0  0  0  0  0  0  0  0  0  0  0  0
   -7.7525    9.4238   32.0627 N   0  0  0  0  0  0  0  0  0  0  0  0
   -8.0946    8.8303   33.3693 C   0  0  2  0  0  0  0  0  0  0  0  0
   -9.5761    8.7999   33.4617 C   0  0  0  0  0  0  0  0  0  0  0  0
  -10.1088    7.6860   33.0609 O   0  0  0  0  0  0  0  0  0  0  0  0
   -7.4532    9.5495   34.5060 C   0  0  0  0  0  0  0  0  0  0  0  0
   -7.0342    8.6012   35.5721 C   0  0  0  0  0  0  0  0  0  0  0  0
   -7.1717    7.1405   35.1213 C   0  0  0  0  0  0  0  0  0  0  0  0
   -7.0583    7.0318   33.6838 N   0  0  0  0  0  0  0  0  0  0  0  0
   -6.0995    6.1631   33.1183 C   0  0  0  0  0  0  0  0  0  0  0  0
   -5.0126    5.6953   33.9050 N   0  0  0  0  0  0  0  0  0  0  0  0
   -6.1858    5.7768   31.8823 N   0  0  0  0  0  0  0  0  0  0  0  0
  -10.4260    9.8176   33.9236 N   0  0  0  0  0  0  0  0  0  0  0  0
  -10.2227   11.2366   33.9452 C   0  0  2  0  0  0  0  0  0  0  0  0
  -10.1878   11.8331   35.2958 C   0  0  0  0  0  0  0  0  0  0  0  0
  -10.1352   11.1030   36.3537 O   0  0  0  0  0  0  0  0  0  0  0  0
  -11.5459   11.6789   33.2619 C   0  0  0  0  0  0  0  0  0  0  0  0
  -12.5531   10.6348   33.6667 C   0  0  0  0  0  0  0  0  0  0  0  0
  -11.7809    9.6489   34.4838 C   0  0  0  0  0  0  0  0  0  0  0  0
  -10.2122   13.2512   35.4661 N   0  0  0  0  0  0  0  0  0  0  0  0
   -9.3757   14.1769   34.7252 C   0  0  2  0  0  0  0  0  0  0  0  0
   -8.0888   14.4165   35.4169 C   0  0  0  0  0  0  0  0  0  0  0  0
   -7.9068   13.5271   36.3763 O   0  0  0  0  0  0  0  0  0  0  0  0
  -10.2510   15.3300   34.4805 C   0  0  0  0  0  0  0  0  0  0  0  0
  -11.4063   15.2089   35.4003 C   0  0  0  0  0  0  0  0  0  0  0  0
  -11.0047   14.0853   36.3612 C   0  0  0  0  0  0  0  0  0  0  0  0
   -7.0710   15.3108   35.2924 N   0  0  0  0  0  0  0  0  0  0  0  0
   -6.7289   16.6515   35.6950 C   0  0  2  0  0  0  0  0  0  0  0  0
   -5.2526   16.8974   35.6406 C   0  0  0  0  0  0  0  0  0  0  0  0
   -4.6411   16.5917   36.7252 O   0  0  0  0  0  0  0  0  0  0  0  0
   -7.1667   17.0961   37.0421 C   0  0  2  0  0  0  0  0  0  0  0  0
   -8.5510   16.7492   37.4717 C   0  0  0  0  0  0  0  0  0  0  0  0
   -6.9787   18.5742   37.3121 C   0  0  0  0  0  0  0  0  0  0  0  0
   -9.3911   16.2416   36.3086 C   0  0  0  0  0  0  0  0  0  0  0  0
   -4.4900   17.3987   34.5916 N   0  0  0  0  0  0  0  0  0  0  0  0
   -4.6947   18.6646   33.8622 C   0  0  2  0  0  0  0  0  0  0  0  0
   -4.6116   19.8419   34.7380 C   0  0  0  0  0  0  0  0  0  0  0  0
   -3.6155   19.7110   35.5873 O   0  0  0  0  0  0  0  0  0  0  0  0
   -5.8368   18.5698   32.9220 C   0  0  0  0  0  0  0  0  0  0  0  0
   -5.3898   19.0719   31.2133 S   0  0  0  0  0  0  0  0  0  0  0  0
   -5.3428   21.0062   34.8397 N   0  0  0  0  0  0  0  0  0  0  0  0
   -5.6524   22.0221   33.8463 C   0  0  2  0  0  0  0  0  0  0  0  0
   -5.0599   23.2701   34.4116 C   0  0  0  0  0  0  0  0  0  0  0  0
   -5.8681   24.0984   34.9339 O   0  0  0  0  0  0  0  0  0  0  0  0
   -7.1062   22.1514   33.6048 C   0  0  0  0  0  0  0  0  0  0  0  0
   -7.9125   20.9366   33.6343 C   0  0  0  0  0  0  0  0  0  0  0  0
   -9.2589   20.9038   33.3632 C   0  0  0  0  0  0  0  0  0  0  0  0
   -7.2997   19.7432   34.0158 C   0  0  0  0  0  0  0  0  0  0  0  0
   -9.9810   19.7523   33.4577 C   0  0  0  0  0  0  0  0  0  0  0  0
   -8.0453   18.5979   34.1033 C   0  0  0  0  0  0  0  0  0  0  0  0
   -9.4044   18.5439   33.8317 C   0  0  0  0  0  0  0  0  0  0  0  0
   -3.7041   23.6276   34.4344 N   0  0  0  0  0  0  0  0  0  0  0  0
   -2.7734   23.7269   33.3187 C   0  0  2  0  0  0  0  0  0  0  0  0
   -3.3895   23.5476   32.0276 C   0  0  0  0  0  0  0  0  0  0  0  0
   -4.5272   24.1722   31.9266 O   0  0  0  0  0  0  0  0  0  0  0  0
   -1.6536   22.8730   33.7455 C   0  0  0  0  0  0  0  0  0  0  0  0
   -1.7104   22.9587   35.2873 C   0  0  0  0  0  0  0  0  0  0  0  0
   -2.7921   24.0138   35.5419 C   0  0  0  0  0  0  0  0  0  0  0  0
   -3.0341   22.8584   30.8699 N   0  0  0  0  0  0  0  0  0  0  0  0
   -1.9345   21.9447   30.6406 C   0  0  2  0  0  0  0  0  0  0  0  0
   -0.5987   22.5089   30.8740 C   0  0  0  0  0  0  0  0  0  0  0  0
   -0.3760   23.7183   30.5235 O   0  0  0  0  0  0  0  0  0  0  0  0
   -1.9639   21.3987   29.2151 C   0  0  0  0  0  0  0  0  0  0  0  0
   -0.8374   20.4787   28.9260 C   0  0  0  0  0  0  0  0  0  0  0  0
   -0.6236   19.3408   29.7260 O   0  0  0  0  0  0  0  0  0  0  0  0
   -0.0764   20.7091   27.9781 O   0  0  0  0  0  0  0  0  0  0  0  0
    1.3840   20.9725   32.0543 O   0  0  0  0  0  0  0  0  0  0  0  0
    2.2355   11.7265   30.1094 H   0  0  0  0  0  0  0  0  0  0  0  0
   -5.7759    4.8735   31.5795 H   0  0  0  0  0  0  0  0  0  0  0  0
  1  2  1  0
  1103  1  0
  1109  1  0
  2  3  1  0
  2109  1  1
  3  4  2  0
  3  5  1  0
  5  6  1  0
  6  7  1  0
  6  9  1  1
  7  8  2  0
  7 16  1  0
  9 10  1  0
 10 11  1  0
 11 12  1  0
 12 13  1  0
 13 14  1  0
 13 15  2  0
 17 16  1  1
 17 18  1  0
 17 20  1  0
 18 19  2  0
 18 22  1  0
 20 21  1  0
 21 82  1  0
 23 22  1  1
 23 24  1  0
 23 26  1  0
 24 25  2  0
 24 29  1  0
 26 27  1  0
 26 28  1  1
 29 30  1  0
 30 31  1  0
 30 33  1  6
 31 32  2  0
 31 38  1  0
 33 34  1  0
 34 35  1  0
 35 36  1  0
 36 37  1  0
 38 39  1  0
 39 40  1  0
 39 42  1  1
 40 41  2  0
 40 44  1  0
 42 43  1  0
 44 45  1  0
 45 46  1  0
 45 48  1  1
 46 47  2  0
 46 55  1  0
 48 49  1  0
 49 50  1  0
 50 51  1  0
 51 52  1  0
 52 53  1  0
 52 54  2  0
 55 56  1  0
 55 61  1  0
 56 57  1  0
 56 59  1  6
 57 58  2  0
 57 62  1  0
 59 60  1  0
 60 61  1  0
 62 63  1  0
 62 68  1  0
 63 64  1  0
 63 66  1  1
 64 65  2  0
 64 69  1  0
 66 67  1  0
 67 68  1  0
 70 69  1  1
 70 71  1  0
 70 73  1  0
 71 72  2  0
 71 77  1  0
 73 74  1  0
 73 75  1  6
 74 76  1  0
 78 77  1  1
 78 79  1  0
 78 81  1  0
 79 80  2  0
 79 83  1  0
 81 82  1  0
 83 84  1  0
 84 85  1  0
 84 87  1  1
 85 86  2  0
 85 94  1  0
 87 88  1  0
 88 89  2  0
 88 90  1  0
 89 91  1  0
 90 92  2  0
 91 93  2  0
 92 93  1  0
 94 95  1  0
 94100  1  0
 95 96  1  0
 95 98  1  1
 96 97  2  0
 96101  1  0
 98 99  1  0
 99100  1  0
101102  1  0
102103  1  0
102105  1  6
103104  2  0
105106  1  0
106107  1  0
106108  2  0
 15110  1  0
 54111  1  0
M  CHG  1  37   1
M  END
$$$$
