
     RDKit          3D

111117  0  0  0  0  0  0  0  0999 V2000
   -2.6309    7.2919   37.8223 N   0  0  0  0  0  0  0  0  0  0  0  0
   -2.4656    7.5704   36.4334 C   0  0  2  0  0  0  0  0  0  0  0  0
   -3.1608    8.7819   35.9321 C   0  0  0  0  0  0  0  0  0  0  0  0
   -4.4281    8.8209   36.2108 O   0  0  0  0  0  0  0  0  0  0  0  0
   -2.5911    9.8493   35.2147 N   0  0  0  0  0  0  0  0  0  0  0  0
   -2.0688    9.8960   33.8637 C   0  0  2  0  0  0  0  0  0  0  0  0
   -3.1744   10.4191   32.9626 C   0  0  0  0  0  0  0  0  0  0  0  0
   -3.6615    9.5748   32.1470 O   0  0  0  0  0  0  0  0  0  0  0  0
   -1.5223    8.6112   33.3530 C   0  0  0  0  0  0  0  0  0  0  0  0
   -1.7443    8.4398   31.8804 C   0  0  0  0  0  0  0  0  0  0  0  0
   -0.4443    8.5607   31.1002 C   0  0  0  0  0  0  0  0  0  0  0  0
    0.0204    7.2963   30.5969 N   0  0  0  0  0  0  0  0  0  0  0  0
    0.3746    7.0926   29.2408 C   0  0  0  0  0  0  0  0  0  0  0  0
    1.5859    7.6473   28.7294 N   0  0  0  0  0  0  0  0  0  0  0  0
   -0.3983    6.4164   28.4923 N   0  0  0  0  0  0  0  0  0  0  0  0
   -3.6807   11.7147   32.9662 N   0  0  0  0  0  0  0  0  0  0  0  0
   -3.0431   12.9933   32.9205 C   0  0  2  0  0  0  0  0  0  0  0  0
   -1.6049   13.0009   32.6310 C   0  0  0  0  0  0  0  0  0  0  0  0
   -0.8611   13.3320   33.6379 O   0  0  0  0  0  0  0  0  0  0  0  0
   -3.4180   13.8599   34.1094 C   0  0  0  0  0  0  0  0  0  0  0  0
   -2.3329   13.7350   35.5107 S   0  0  0  0  0  0  0  0  0  0  0  0
   -0.9752   12.6947   31.4095 N   0  0  0  0  0  0  0  0  0  0  0  0
   -1.1530   13.3062   30.1333 C   0  0  2  0  0  0  0  0  0  0  0  0
   -2.4537   13.0925   29.4904 C   0  0  0  0  0  0  0  0  0  0  0  0
   -3.1510   12.0544   29.7746 O   0  0  0  0  0  0  0  0  0  0  0  0
   -0.1147   12.7421   29.1665 C   0  0  2  0  0  0  0  0  0  0  0  0
   -0.1893   13.4333   27.9400 O   0  0  0  0  0  0  0  0  0  0  0  0
   -0.5545   11.3206   28.8355 C   0  0  0  0  0  0  0  0  0  0  0  0
   -3.0011   13.9813   28.5505 N   0  0  0  0  0  0  0  0  0  0  0  0
   -3.2173   15.3998   28.6839 C   0  0  2  0  0  0  0  0  0  0  0  0
   -4.6388   15.7574   28.4669 C   0  0  0  0  0  0  0  0  0  0  0  0
   -5.4119   15.1754   29.3231 O   0  0  0  0  0  0  0  0  0  0  0  0
   -2.2538   16.1662   27.8288 C   0  0  0  0  0  0  0  0  0  0  0  0
   -2.8621   16.5259   26.4895 C   0  0  0  0  0  0  0  0  0  0  0  0
   -1.8582   16.1295   25.4309 C   0  0  0  0  0  0  0  0  0  0  0  0
   -0.5516   15.6396   25.9994 C   0  0  0  0  0  0  0  0  0  0  0  0
    0.3651   15.3596   24.8868 N   0  0  0  0  0  4  0  0  0  0  0  0
   -5.2237   16.5814   27.5250 N   0  0  0  0  0  0  0  0  0  0  0  0
   -5.0457   17.9806   27.2535 C   0  0  2  0  0  0  0  0  0  0  0  0
   -5.0334   18.8645   28.4357 C   0  0  0  0  0  0  0  0  0  0  0  0
   -4.0130   19.6295   28.5939 O   0  0  0  0  0  0  0  0  0  0  0  0
   -6.0365   18.4545   26.1892 C   0  0  0  0  0  0  0  0  0  0  0  0
   -7.2683   18.6664   26.7379 O   0  0  0  0  0  0  0  0  0  0  0  0
   -6.0226   18.9701   29.4296 N   0  0  0  0  0  0  0  0  0  0  0  0
   -7.4364   19.3208   29.1955 C   0  0  2  0  0  0  0  0  0  0  0  0
   -7.6347   20.7016   29.7036 C   0  0  0  0  0  0  0  0  0  0  0  0
   -7.4829   21.6240   28.8029 O   0  0  0  0  0  0  0  0  0  0  0  0
   -8.3747   18.3349   29.8024 C   0  0  0  0  0  0  0  0  0  0  0  0
   -9.7878   18.7666   29.6347 C   0  0  0  0  0  0  0  0  0  0  0  0
  -10.3261   18.4244   28.2387 C   0  0  0  0  0  0  0  0  0  0  0  0
   -9.2672   17.9366   27.3832 N   0  0  0  0  0  0  0  0  0  0  0  0
   -9.3516   16.6401   26.8302 C   0  0  0  0  0  0  0  0  0  0  0  0
   -8.2105   15.7934   26.8262 N   0  0  0  0  0  0  0  0  0  0  0  0
  -10.4584   16.1966   26.3178 N   0  0  0  0  0  0  0  0  0  0  0  0
   -7.9593   21.0939   31.0121 N   0  0  0  0  0  0  0  0  0  0  0  0
   -7.7059   20.4253   32.2546 C   0  0  2  0  0  0  0  0  0  0  0  0
   -8.9184   20.0190   32.9937 C   0  0  0  0  0  0  0  0  0  0  0  0
  -10.0861   20.0791   32.4573 O   0  0  0  0  0  0  0  0  0  0  0  0
   -7.0459   21.5994   33.0286 C   0  0  0  0  0  0  0  0  0  0  0  0
   -7.7040   22.8377   32.4791 C   0  0  0  0  0  0  0  0  0  0  0  0
   -8.6329   22.3430   31.4170 C   0  0  0  0  0  0  0  0  0  0  0  0
   -8.8266   19.5441   34.3378 N   0  0  0  0  0  0  0  0  0  0  0  0
   -7.8725   18.5480   34.7882 C   0  0  2  0  0  0  0  0  0  0  0  0
   -8.4181   17.1778   34.6583 C   0  0  0  0  0  0  0  0  0  0  0  0
   -9.5097   17.1832   33.9146 O   0  0  0  0  0  0  0  0  0  0  0  0
   -7.4812   19.0093   36.1261 C   0  0  0  0  0  0  0  0  0  0  0  0
   -8.4849   20.0100   36.5579 C   0  0  0  0  0  0  0  0  0  0  0  0
   -9.6059   19.8888   35.5206 C   0  0  0  0  0  0  0  0  0  0  0  0
   -8.0617   15.9438   35.1073 N   0  0  0  0  0  0  0  0  0  0  0  0
   -8.1867   15.1230   36.2851 C   0  0  2  0  0  0  0  0  0  0  0  0
   -7.9865   13.6698   35.9836 C   0  0  0  0  0  0  0  0  0  0  0  0
   -9.0640   13.0624   35.6463 O   0  0  0  0  0  0  0  0  0  0  0  0
   -9.4562   15.2094   37.0499 C   0  0  2  0  0  0  0  0  0  0  0  0
  -10.7329   15.1780   36.2817 C   0  0  0  0  0  0  0  0  0  0  0  0
   -9.5426   16.3845   38.0009 C   0  0  0  0  0  0  0  0  0  0  0  0
  -10.5081   15.4644   34.8040 C   0  0  0  0  0  0  0  0  0  0  0  0
   -6.8133   12.9246   36.0223 N   0  0  0  0  0  0  0  0  0  0  0  0
   -5.8796   12.7845   37.1560 C   0  0  2  0  0  0  0  0  0  0  0  0
   -6.5166   12.1994   38.3443 C   0  0  0  0  0  0  0  0  0  0  0  0
   -7.3047   11.2046   37.9980 O   0  0  0  0  0  0  0  0  0  0  0  0
   -5.0538   14.0028   37.3318 C   0  0  0  0  0  0  0  0  0  0  0  0
   -3.2554   13.6366   37.3848 S   0  0  0  0  0  0  0  0  0  0  0  0
   -6.4529   12.4780   39.6929 N   0  0  0  0  0  0  0  0  0  0  0  0
   -5.3136   12.5536   40.5936 C   0  0  2  0  0  0  0  0  0  0  0  0
   -5.5980   11.5093   41.6215 C   0  0  0  0  0  0  0  0  0  0  0  0
   -6.0137   11.9185   42.7492 O   0  0  0  0  0  0  0  0  0  0  0  0
   -5.1533   13.8980   41.1899 C   0  0  0  0  0  0  0  0  0  0  0  0
   -3.8020   14.3471   41.5044 C   0  0  0  0  0  0  0  0  0  0  0  0
   -3.5088   15.5773   42.0409 C   0  0  0  0  0  0  0  0  0  0  0  0
   -2.7341   13.5064   41.1910 C   0  0  0  0  0  0  0  0  0  0  0  0
   -2.2248   15.9734   42.2660 C   0  0  0  0  0  0  0  0  0  0  0  0
   -1.4519   13.9254   41.4268 C   0  0  0  0  0  0  0  0  0  0  0  0
   -1.1356   15.1619   41.9695 C   0  0  0  0  0  0  0  0  0  0  0  0
   -5.4612   10.1211   41.4770 N   0  0  0  0  0  0  0  0  0  0  0  0
   -4.2848    9.3625   41.0753 C   0  0  2  0  0  0  0  0  0  0  0  0
   -3.0942   10.1634   40.9355 C   0  0  0  0  0  0  0  0  0  0  0  0
   -2.9589   11.0285   41.8987 O   0  0  0  0  0  0  0  0  0  0  0  0
   -4.7829    8.5492   39.9546 C   0  0  0  0  0  0  0  0  0  0  0  0
   -6.2830    8.3755   40.2824 C   0  0  0  0  0  0  0  0  0  0  0  0
   -6.4135    8.9982   41.6765 C   0  0  0  0  0  0  0  0  0  0  0  0
   -2.0609   10.2117   40.0017 N   0  0  0  0  0  0  0  0  0  0  0  0
   -1.9282    9.5216   38.7358 C   0  0  2  0  0  0  0  0  0  0  0  0
   -1.9613    8.0557   38.8206 C   0  0  0  0  0  0  0  0  0  0  0  0
   -1.3802    7.4871   39.8076 O   0  0  0  0  0  0  0  0  0  0  0  0
   -0.6326    9.9153   38.0303 C   0  0  0  0  0  0  0  0  0  0  0  0
   -0.4231    9.1840   36.7575 C   0  0  0  0  0  0  0  0  0  0  0  0
    0.6393    9.5319   35.9025 O   0  0  0  0  0  0  0  0  0  0  0  0
   -1.1850    8.2628   36.4392 O   0  0  0  0  0  0  0  0  0  0  0  0
   -3.2642    6.5694   36.8769 O   0  0  0  0  0  0  0  0  0  0  0  0
   -1.4086    6.3330   28.6859 H   0  0  0  0  0  0  0  0  0  0  0  0
  -10.5023   15.2551   25.8852 H   0  0  0  0  0  0  0  0  0  0  0  0
  1  2  1  0
  1103  1  0
  1109  1  0
  2  3  1  0
  2109  1  6
  3  4  2  0
  3  5  1  0
  5  6  1  0
  6  7  1  0
  6  9  1  6
  7  8  2  0
  7 16  1  0
  9 10  1  0
 10 11  1  0
 11 12  1  0
 12 13  1  0
 13 14  1  0
 13 15  2  0
 17 16  1  1
 17 18  1  0
 17 20  1  0
 18 19  2  0
 18 22  1  0
 20 21  1  0
 21 82  1  0
 23 22  1  1
 23 24  1  0
 23 26  1  0
 24 25  2  0
 24 29  1  0
 26 27  1  0
 26 28  1  6
 29 30  1  0
 30 31  1  0
 30 33  1  6
 31 32  2  0
 31 38  1  0
 33 34  1  0
 34 35  1  0
 35 36  1  0
 36 37  1  0
 38 39  1  0
 39 40  1  0
 39 42  1  6
 40 41  2  0
 40 44  1  0
 42 43  1  0
 44 45  1  0
 45 46  1  0
 45 48  1  1
 46 47  2  0
 46 55  1  0
 48 49  1  0
 49 50  1  0
 50 51  1  0
 51 52  1  0
 52 53  1  0
 52 54  2  0
 55 56  1  0
 55 61  1  0
 56 57  1  0
 56 59  1  1
 57 58  2  0
 57 62  1  0
 59 60  1  0
 60 61  1  0
 62 63  1  0
 62 68  1  0
 63 64  1  0
 63 66  1  1
 64 65  2  0
 64 69  1  0
 66 67  1  0
 67 68  1  0
 70 69  1  6
 70 71  1  0
 70 73  1  0
 71 72  2  0
 71 77  1  0
 73 74  1  0
 73 75  1  6
 74 76  1  0
 78 77  1  6
 78 79  1  0
 78 81  1  0
 79 80  2  0
 79 83  1  0
 81 82  1  0
 83 84  1  0
 84 85  1  0
 84 87  1  1
 85 86  2  0
 85 94  1  0
 87 88  1  0
 88 89  2  0
 88 90  1  0
 89 91  1  0
 90 92  2  0
 91 93  2  0
 92 93  1  0
 94 95  1  0
 94100  1  0
 95 96  1  0
 95 98  1  6
 96 97  2  0
 96101  1  0
 98 99  1  0
 99100  1  0
101102  1  0
102103  1  0
102105  1  1
103104  2  0
105106  1  0
106107  1  0
106108  2  0
 15110  1  0
 54111  1  0
M  CHG  1  37   1
M  END
$$$$
