
     RDKit          3D

111117  0  0  0  0  0  0  0  0999 V2000
   -6.2809   24.2488   31.1352 N   0  0  0  0  0  0  0  0  0  0  0  0
   -5.4168   23.3679   30.4201 C   0  0  2  0  0  0  0  0  0  0  0  0
   -5.3212   21.9862   30.9528 C   0  0  0  0  0  0  0  0  0  0  0  0
   -5.0201   21.9226   32.2140 O   0  0  0  0  0  0  0  0  0  0  0  0
   -5.5233   20.7889   30.2426 N   0  0  0  0  0  0  0  0  0  0  0  0
   -4.7272   20.1735   29.1997 C   0  0  2  0  0  0  0  0  0  0  0  0
   -3.8201   19.1489   29.8595 C   0  0  0  0  0  0  0  0  0  0  0  0
   -2.5817   19.4346   29.8613 O   0  0  0  0  0  0  0  0  0  0  0  0
   -3.9469   21.1197   28.3593 C   0  0  0  0  0  0  0  0  0  0  0  0
   -3.7627   20.6219   26.9574 C   0  0  0  0  0  0  0  0  0  0  0  0
   -4.6831   21.3401   25.9825 C   0  0  0  0  0  0  0  0  0  0  0  0
   -4.8182   22.7413   26.2766 N   0  0  0  0  0  0  0  0  0  0  0  0
   -4.0375   23.7381   25.6419 C   0  0  0  0  0  0  0  0  0  0  0  0
   -3.2672   24.6475   26.4269 N   0  0  0  0  0  0  0  0  0  0  0  0
   -4.0364   23.8112   24.3732 N   0  0  0  0  0  0  0  0  0  0  0  0
   -4.2327   17.9577   30.4475 N   0  0  0  0  0  0  0  0  0  0  0  0
   -5.0813   16.9042   29.9857 C   0  0  2  0  0  0  0  0  0  0  0  0
   -5.4686   16.9439   28.5712 C   0  0  0  0  0  0  0  0  0  0  0  0
   -6.7153   17.2287   28.3685 O   0  0  0  0  0  0  0  0  0  0  0  0
   -6.2541   16.6661   30.9198 C   0  0  0  0  0  0  0  0  0  0  0  0
   -7.7287   17.5788   30.5334 S   0  0  0  0  0  0  0  0  0  0  0  0
   -4.6475   16.7111   27.4513 N   0  0  0  0  0  0  0  0  0  0  0  0
   -3.8857   15.5499   27.1264 C   0  0  2  0  0  0  0  0  0  0  0  0
   -2.7405   15.2645   27.9969 C   0  0  0  0  0  0  0  0  0  0  0  0
   -2.1658   16.2143   28.6390 O   0  0  0  0  0  0  0  0  0  0  0  0
   -3.3087   15.7148   25.7225 C   0  0  2  0  0  0  0  0  0  0  0  0
   -2.3698   14.6924   25.4766 O   0  0  0  0  0  0  0  0  0  0  0  0
   -2.4863   16.9982   25.7374 C   0  0  0  0  0  0  0  0  0  0  0  0
   -2.2147   13.9744   28.1762 N   0  0  0  0  0  0  0  0  0  0  0  0
   -2.9086   12.7750   28.5719 C   0  0  2  0  0  0  0  0  0  0  0  0
   -2.3147   12.1789   29.7916 C   0  0  0  0  0  0  0  0  0  0  0  0
   -2.3671   12.9933   30.7932 O   0  0  0  0  0  0  0  0  0  0  0  0
   -3.0259   11.8247   27.4185 C   0  0  0  0  0  0  0  0  0  0  0  0
   -2.0053   12.1274   26.3415 C   0  0  0  0  0  0  0  0  0  0  0  0
   -2.7784   12.4833   25.0920 C   0  0  0  0  0  0  0  0  0  0  0  0
   -1.9276   13.1188   24.0231 C   0  0  0  0  0  0  0  0  0  0  0  0
   -2.7221   13.2168   22.7918 N   0  0  0  0  0  4  0  0  0  0  0  0
   -1.7404   10.9393   29.9970 N   0  0  0  0  0  0  0  0  0  0  0  0
   -2.2798    9.6148   29.8634 C   0  0  2  0  0  0  0  0  0  0  0  0
   -3.6189    9.4079   30.4489 C   0  0  0  0  0  0  0  0  0  0  0  0
   -4.5386    8.9473   29.6785 O   0  0  0  0  0  0  0  0  0  0  0  0
   -1.2719    8.5702   30.3452 C   0  0  0  0  0  0  0  0  0  0  0  0
   -1.2298    8.5345   31.7091 O   0  0  0  0  0  0  0  0  0  0  0  0
   -4.0169    9.6615   31.7736 N   0  0  0  0  0  0  0  0  0  0  0  0
   -3.4098    9.0643   32.9783 C   0  0  2  0  0  0  0  0  0  0  0  0
   -4.3810    8.0778   33.5147 C   0  0  0  0  0  0  0  0  0  0  0  0
   -4.1962    6.8664   33.0864 O   0  0  0  0  0  0  0  0  0  0  0  0
   -3.0066   10.0910   33.9804 C   0  0  0  0  0  0  0  0  0  0  0  0
   -1.5264   10.2062   34.0637 C   0  0  0  0  0  0  0  0  0  0  0  0
   -0.8252    8.9740   33.4757 C   0  0  0  0  0  0  0  0  0  0  0  0
   -0.5856    9.1439   32.0597 N   0  0  0  0  0  0  0  0  0  0  0  0
    0.0136    8.1021   31.3185 C   0  0  0  0  0  0  0  0  0  0  0  0
   -0.1608    6.7510   31.7225 N   0  0  0  0  0  0  0  0  0  0  0  0
    0.7298    8.3500   30.2650 N   0  0  0  0  0  0  0  0  0  0  0  0
   -5.4389    8.3159   34.4067 N   0  0  0  0  0  0  0  0  0  0  0  0
   -6.1792    9.5205   34.6435 C   0  0  2  0  0  0  0  0  0  0  0  0
   -6.0410   10.0702   36.0074 C   0  0  0  0  0  0  0  0  0  0  0  0
   -5.1654    9.6139   36.8321 O   0  0  0  0  0  0  0  0  0  0  0  0
   -7.6172    8.9499   34.5021 C   0  0  0  0  0  0  0  0  0  0  0  0
   -7.5131    7.5266   34.9836 C   0  0  0  0  0  0  0  0  0  0  0  0
   -6.0671    7.3344   35.3122 C   0  0  0  0  0  0  0  0  0  0  0  0
   -6.8845   11.1336   36.4525 N   0  0  0  0  0  0  0  0  0  0  0  0
   -7.1538   12.3368   35.6875 C   0  0  2  0  0  0  0  0  0  0  0  0
   -6.1649   13.3985   35.9821 C   0  0  0  0  0  0  0  0  0  0  0  0
   -5.1357   12.9012   36.6440 O   0  0  0  0  0  0  0  0  0  0  0  0
   -8.5691   12.6203   35.9563 C   0  0  0  0  0  0  0  0  0  0  0  0
   -8.9594   11.8257   37.1444 C   0  0  0  0  0  0  0  0  0  0  0  0
   -7.6313   11.2954   37.6940 C   0  0  0  0  0  0  0  0  0  0  0  0
   -6.0667   14.7318   35.7288 N   0  0  0  0  0  0  0  0  0  0  0  0
   -6.5246   15.9897   36.2621 C   0  0  2  0  0  0  0  0  0  0  0  0
   -5.6781   17.1376   35.8052 C   0  0  0  0  0  0  0  0  0  0  0  0
   -4.6726   17.3686   36.5662 O   0  0  0  0  0  0  0  0  0  0  0  0
   -6.6191   16.1154   37.7383 C   0  0  2  0  0  0  0  0  0  0  0  0
   -5.4545   16.7006   38.4611 C   0  0  0  0  0  0  0  0  0  0  0  0
   -6.9879   14.8359   38.4594 C   0  0  0  0  0  0  0  0  0  0  0  0
   -4.7684   17.7831   37.6404 C   0  0  0  0  0  0  0  0  0  0  0  0
   -5.8440   17.9548   34.6926 N   0  0  0  0  0  0  0  0  0  0  0  0
   -7.0416   18.7344   34.3258 C   0  0  2  0  0  0  0  0  0  0  0  0
   -7.4052   19.7266   35.3472 C   0  0  0  0  0  0  0  0  0  0  0  0
   -6.3283   20.3277   35.8051 O   0  0  0  0  0  0  0  0  0  0  0  0
   -8.1108   17.8625   33.7838 C   0  0  0  0  0  0  0  0  0  0  0  0
   -8.7333   18.4364   32.1545 S   0  0  0  0  0  0  0  0  0  0  0  0
   -8.6029   20.1325   35.8962 N   0  0  0  0  0  0  0  0  0  0  0  0
   -9.8117   20.6399   35.2670 C   0  0  2  0  0  0  0  0  0  0  0  0
   -9.9798   22.0009   35.8563 C   0  0  0  0  0  0  0  0  0  0  0  0
  -10.8684   22.1269   36.7544 O   0  0  0  0  0  0  0  0  0  0  0  0
  -10.9844   19.7728   35.5154 C   0  0  0  0  0  0  0  0  0  0  0  0
  -11.7645   19.3354   34.3637 C   0  0  0  0  0  0  0  0  0  0  0  0
  -12.8197   18.4590   34.4410 C   0  0  0  0  0  0  0  0  0  0  0  0
  -11.3867   19.7835   33.0980 C   0  0  0  0  0  0  0  0  0  0  0  0
  -13.4835   18.0366   33.3287 C   0  0  0  0  0  0  0  0  0  0  0  0
  -12.0690   19.3461   31.9942 C   0  0  0  0  0  0  0  0  0  0  0  0
  -13.1376   18.4638   32.0518 C   0  0  0  0  0  0  0  0  0  0  0  0
   -9.2587   23.1586   35.5303 N   0  0  0  0  0  0  0  0  0  0  0  0
   -9.0806   23.7788   34.2247 C   0  0  2  0  0  0  0  0  0  0  0  0
   -9.8602   23.1672   33.1775 C   0  0  0  0  0  0  0  0  0  0  0  0
  -11.0739   22.8885   33.5568 O   0  0  0  0  0  0  0  0  0  0  0  0
   -7.6180   23.8913   34.1089 C   0  0  0  0  0  0  0  0  0  0  0  0
   -7.1543   24.0065   35.5785 C   0  0  0  0  0  0  0  0  0  0  0  0
   -8.4705   24.1094   36.3563 C   0  0  0  0  0  0  0  0  0  0  0  0
   -9.6011   22.8139   31.8546 N   0  0  0  0  0  0  0  0  0  0  0  0
   -8.3519   22.8307   31.1228 C   0  0  2  0  0  0  0  0  0  0  0  0
   -7.6980   24.1432   31.0396 C   0  0  0  0  0  0  0  0  0  0  0  0
   -8.4281   25.1812   30.8828 O   0  0  0  0  0  0  0  0  0  0  0  0
   -8.5449   22.3185   29.6974 C   0  0  0  0  0  0  0  0  0  0  0  0
   -7.2634   22.0360   29.0070 C   0  0  0  0  0  0  0  0  0  0  0  0
   -6.0479   22.5005   29.5431 O   0  0  0  0  0  0  0  0  0  0  0  0
   -7.2569   21.3901   27.9518 O   0  0  0  0  0  0  0  0  0  0  0  0
   -4.9397   24.3481   31.2251 O   0  0  0  0  0  0  0  0  0  0  0  0
   -3.9780   22.9694   23.7790 H   0  0  0  0  0  0  0  0  0  0  0  0
    1.6330    7.8639   30.1118 H   0  0  0  0  0  0  0  0  0  0  0  0
  1  2  1  0
  1103  1  0
  1109  1  0
  2  3  1  0
  2109  1  1
  3  4  2  0
  3  5  1  0
  5  6  1  0
  6  7  1  0
  6  9  1  1
  7  8  2  0
  7 16  1  0
  9 10  1  0
 10 11  1  0
 11 12  1  0
 12 13  1  0
 13 14  1  0
 13 15  2  0
 17 16  1  1
 17 18  1  0
 17 20  1  0
 18 19  2  0
 18 22  1  0
 20 21  1  0
 21 82  1  0
 23 22  1  1
 23 24  1  0
 23 26  1  0
 24 25  2  0
 24 29  1  0
 26 27  1  0
 26 28  1  1
 29 30  1  0
 30 31  1  0
 30 33  1  6
 31 32  2  0
 31 38  1  0
 33 34  1  0
 34 35  1  0
 35 36  1  0
 36 37  1  0
 38 39  1  0
 39 40  1  0
 39 42  1  1
 40 41  2  0
 40 44  1  0
 42 43  1  0
 44 45  1  0
 45 46  1  0
 45 48  1  1
 46 47  2  0
 46 55  1  0
 48 49  1  0
 49 50  1  0
 50 51  1  0
 51 52  1  0
 52 53  1  0
 52 54  2  0
 55 56  1  0
 55 61  1  0
 56 57  1  0
 56 59  1  1
 57 58  2  0
 57 62  1  0
 59 60  1  0
 60 61  1  0
 62 63  1  0
 62 68  1  0
 63 64  1  0
 63 66  1  1
 64 65  2  0
 64 69  1  0
 66 67  1  0
 67 68  1  0
 70 69  1  1
 70 71  1  0
 70 73  1  0
 71 72  2  0
 71 77  1  0
 73 74  1  0
 73 75  1  1
 74 76  1  0
 78 77  1  1
 78 79  1  0
 78 81  1  0
 79 80  2  0
 79 83  1  0
 81 82  1  0
 83 84  1  0
 84 85  1  0
 84 87  1  1
 85 86  2  0
 85 94  1  0
 87 88  1  0
 88 89  2  0
 88 90  1  0
 89 91  1  0
 90 92  2  0
 91 93  2  0
 92 93  1  0
 94 95  1  0
 94100  1  0
 95 96  1  0
 95 98  1  6
 96 97  2  0
 96101  1  0
 98 99  1  0
 99100  1  0
101102  1  0
102103  1  0
102105  1  6
103104  2  0
105106  1  0
106107  1  0
106108  2  0
 15110  1  0
 54111  1  0
M  CHG  1  37   1
M  END
$$$$
