
     RDKit          3D

111117  0  0  0  0  0  0  0  0999 V2000
   -1.7991    7.8285   37.3519 N   0  0  0  0  0  0  0  0  0  0  0  0
   -1.6426    8.1965   35.9830 C   0  0  2  0  0  0  0  0  0  0  0  0
   -2.5387    9.2761   35.4995 C   0  0  0  0  0  0  0  0  0  0  0  0
   -3.7989    9.0618   35.7257 O   0  0  0  0  0  0  0  0  0  0  0  0
   -2.1590   10.4638   34.8484 N   0  0  0  0  0  0  0  0  0  0  0  0
   -1.6094   10.6702   33.5235 C   0  0  2  0  0  0  0  0  0  0  0  0
   -2.7630   11.0151   32.5972 C   0  0  0  0  0  0  0  0  0  0  0  0
   -3.0517   10.1321   31.7298 O   0  0  0  0  0  0  0  0  0  0  0  0
   -0.8104    9.5367   32.9874 C   0  0  0  0  0  0  0  0  0  0  0  0
   -1.2266    9.1486   31.6006 C   0  0  0  0  0  0  0  0  0  0  0  0
   -0.1170    8.4087   30.8693 C   0  0  0  0  0  0  0  0  0  0  0  0
   -0.5396    7.8938   29.5948 N   0  0  0  0  0  0  0  0  0  0  0  0
    0.2345    6.9778   28.8415 C   0  0  0  0  0  0  0  0  0  0  0  0
    1.6265    6.8256   29.1167 N   0  0  0  0  0  0  0  0  0  0  0  0
   -0.3247    6.3015   27.9224 N   0  0  0  0  0  0  0  0  0  0  0  0
   -3.5071   12.1900   32.6290 N   0  0  0  0  0  0  0  0  0  0  0  0
   -3.1241   13.5669   32.6594 C   0  0  2  0  0  0  0  0  0  0  0  0
   -1.7047   13.8598   32.4316 C   0  0  0  0  0  0  0  0  0  0  0  0
   -1.0727   14.2793   33.4809 O   0  0  0  0  0  0  0  0  0  0  0  0
   -3.6979   14.2916   33.8638 C   0  0  0  0  0  0  0  0  0  0  0  0
   -2.6576   14.3104   35.3039 S   0  0  0  0  0  0  0  0  0  0  0  0
   -0.9867   13.7344   31.2269 N   0  0  0  0  0  0  0  0  0  0  0  0
   -1.2342   14.3590   29.9687 C   0  0  2  0  0  0  0  0  0  0  0  0
   -2.4474   13.9326   29.2637 C   0  0  0  0  0  0  0  0  0  0  0  0
   -2.9430   12.7693   29.4781 O   0  0  0  0  0  0  0  0  0  0  0  0
   -0.0749   14.0463   29.0258 C   0  0  2  0  0  0  0  0  0  0  0  0
   -0.1798   12.7141   28.5767 O   0  0  0  0  0  0  0  0  0  0  0  0
    1.1932   14.0695   29.8715 C   0  0  0  0  0  0  0  0  0  0  0  0
   -3.1219   14.7437   28.3362 N   0  0  0  0  0  0  0  0  0  0  0  0
   -3.6093   16.0880   28.5148 C   0  0  2  0  0  0  0  0  0  0  0  0
   -5.0646   16.1797   28.2517 C   0  0  0  0  0  0  0  0  0  0  0  0
   -5.7413   15.4233   29.0514 O   0  0  0  0  0  0  0  0  0  0  0  0
   -2.7811   17.0612   27.7312 C   0  0  0  0  0  0  0  0  0  0  0  0
   -2.4724   16.5391   26.3436 C   0  0  0  0  0  0  0  0  0  0  0  0
   -1.5059   17.5155   25.7124 C   0  0  0  0  0  0  0  0  0  0  0  0
   -2.1836   18.7031   25.0796 C   0  0  0  0  0  0  0  0  0  0  0  0
   -1.3104   19.2296   24.0227 N   0  0  0  0  0  4  0  0  0  0  0  0
   -5.7635   16.9203   27.3182 N   0  0  0  0  0  0  0  0  0  0  0  0
   -5.8467   18.3388   27.1084 C   0  0  2  0  0  0  0  0  0  0  0  0
   -6.0438   19.1541   28.3230 C   0  0  0  0  0  0  0  0  0  0  0  0
   -5.1942   20.0903   28.5535 O   0  0  0  0  0  0  0  0  0  0  0  0
   -6.8728   18.6648   26.0221 C   0  0  0  0  0  0  0  0  0  0  0  0
   -6.3380   19.5084   25.0918 O   0  0  0  0  0  0  0  0  0  0  0  0
   -7.0684   19.0250   29.2775 N   0  0  0  0  0  0  0  0  0  0  0  0
   -8.5143   19.1121   28.9975 C   0  0  2  0  0  0  0  0  0  0  0  0
   -8.9898   20.4057   29.5493 C   0  0  0  0  0  0  0  0  0  0  0  0
   -8.9861   21.3803   28.6919 O   0  0  0  0  0  0  0  0  0  0  0  0
   -9.2674   17.9397   29.5258 C   0  0  0  0  0  0  0  0  0  0  0  0
  -10.1408   17.3474   28.4781 C   0  0  0  0  0  0  0  0  0  0  0  0
  -10.1330   18.1832   27.1908 C   0  0  0  0  0  0  0  0  0  0  0  0
   -9.5342   19.4791   27.4211 N   0  0  0  0  0  0  0  0  0  0  0  0
  -10.3461   20.5715   27.7973 C   0  0  0  0  0  0  0  0  0  0  0  0
  -11.4177   20.9823   26.9594 N   0  0  0  0  0  0  0  0  0  0  0  0
  -10.1353   21.2190   28.9020 N   0  0  0  0  0  0  0  0  0  0  0  0
   -9.4279   20.6693   30.8570 N   0  0  0  0  0  0  0  0  0  0  0  0
   -9.0942   20.0046   32.0826 C   0  0  2  0  0  0  0  0  0  0  0  0
  -10.2314   19.3429   32.7536 C   0  0  0  0  0  0  0  0  0  0  0  0
  -11.3701   19.2053   32.1710 O   0  0  0  0  0  0  0  0  0  0  0  0
   -8.6973   21.2458   32.9283 C   0  0  0  0  0  0  0  0  0  0  0  0
   -9.5605   22.3610   32.3993 C   0  0  0  0  0  0  0  0  0  0  0  0
  -10.3411   21.7485   31.2807 C   0  0  0  0  0  0  0  0  0  0  0  0
  -10.0968   18.8329   34.0811 N   0  0  0  0  0  0  0  0  0  0  0  0
   -8.9861   18.0159   34.5330 C   0  0  2  0  0  0  0  0  0  0  0  0
   -9.2552   16.5746   34.3276 C   0  0  0  0  0  0  0  0  0  0  0  0
  -10.3017   16.4073   33.5392 O   0  0  0  0  0  0  0  0  0  0  0  0
   -8.7359   18.4812   35.9029 C   0  0  0  0  0  0  0  0  0  0  0  0
   -9.9265   19.2531   36.3300 C   0  0  0  0  0  0  0  0  0  0  0  0
  -10.9675   18.9695   35.2423 C   0  0  0  0  0  0  0  0  0  0  0  0
   -8.6854   15.4111   34.7436 N   0  0  0  0  0  0  0  0  0  0  0  0
   -8.6917   14.5285   35.8827 C   0  0  2  0  0  0  0  0  0  0  0  0
   -8.2076   13.1548   35.5344 C   0  0  0  0  0  0  0  0  0  0  0  0
   -9.1372   12.3705   35.1288 O   0  0  0  0  0  0  0  0  0  0  0  0
   -9.9797   14.3380   36.5959 C   0  0  2  0  0  0  0  0  0  0  0  0
  -10.7616   15.5553   36.9538 C   0  0  0  0  0  0  0  0  0  0  0  0
   -9.8905   13.4880   37.8459 C   0  0  0  0  0  0  0  0  0  0  0  0
   -9.9754   16.8297   36.6822 C   0  0  0  0  0  0  0  0  0  0  0  0
   -6.9157   12.6442   35.5941 N   0  0  0  0  0  0  0  0  0  0  0  0
   -6.0118   12.6316   36.7600 C   0  0  2  0  0  0  0  0  0  0  0  0
   -6.5657   11.8828   37.8970 C   0  0  0  0  0  0  0  0  0  0  0  0
   -7.1371   10.7738   37.4798 O   0  0  0  0  0  0  0  0  0  0  0  0
   -5.4403   13.9749   37.0173 C   0  0  0  0  0  0  0  0  0  0  0  0
   -3.6079   13.9536   37.1322 S   0  0  0  0  0  0  0  0  0  0  0  0
   -6.6025   12.1065   39.2568 N   0  0  0  0  0  0  0  0  0  0  0  0
   -5.5301   12.3551   40.2071 C   0  0  2  0  0  0  0  0  0  0  0  0
   -5.6449   11.2300   41.1812 C   0  0  0  0  0  0  0  0  0  0  0  0
   -6.1695   11.5011   42.3052 O   0  0  0  0  0  0  0  0  0  0  0  0
   -5.6499   13.6768   40.8608 C   0  0  0  0  0  0  0  0  0  0  0  0
   -6.9864   14.2355   41.0284 C   0  0  0  0  0  0  0  0  0  0  0  0
   -8.0920   13.7971   40.3407 C   0  0  0  0  0  0  0  0  0  0  0  0
   -7.1491   15.3175   41.8933 C   0  0  0  0  0  0  0  0  0  0  0  0
   -9.3103   14.3882   40.4909 C   0  0  0  0  0  0  0  0  0  0  0  0
   -8.3832   15.8952   42.0290 C   0  0  0  0  0  0  0  0  0  0  0  0
   -9.5113   15.4661   41.3456 C   0  0  0  0  0  0  0  0  0  0  0  0
   -5.2408    9.9009   40.9895 N   0  0  0  0  0  0  0  0  0  0  0  0
   -3.9282    9.3978   40.6091 C   0  0  2  0  0  0  0  0  0  0  0  0
   -2.9083   10.4151   40.5506 C   0  0  0  0  0  0  0  0  0  0  0  0
   -2.9737   11.2452   41.5512 O   0  0  0  0  0  0  0  0  0  0  0  0
   -4.2232    8.5570   39.4380 C   0  0  0  0  0  0  0  0  0  0  0  0
   -5.6729    8.0877   39.6952 C   0  0  0  0  0  0  0  0  0  0  0  0
   -5.9675    8.6101   41.1053 C   0  0  0  0  0  0  0  0  0  0  0  0
   -1.8719   10.7007   39.6639 N   0  0  0  0  0  0  0  0  0  0  0  0
   -1.5666   10.1068   38.3792 C   0  0  2  0  0  0  0  0  0  0  0  0
   -1.3222    8.6588   38.4063 C   0  0  0  0  0  0  0  0  0  0  0  0
   -0.6774    8.1659   39.3944 O   0  0  0  0  0  0  0  0  0  0  0  0
   -0.3467   10.7705   37.7448 C   0  0  0  0  0  0  0  0  0  0  0  0
   -0.0373   10.2397   36.3952 C   0  0  0  0  0  0  0  0  0  0  0  0
    1.2893    9.9373   36.0354 O   0  0  0  0  0  0  0  0  0  0  0  0
   -0.9468   10.0616   35.5756 O   0  0  0  0  0  0  0  0  0  0  0  0
   -2.2501    7.0432   36.3535 O   0  0  0  0  0  0  0  0  0  0  0  0
    0.1863    6.0054   27.0760 H   0  0  0  0  0  0  0  0  0  0  0  0
  -10.6284   20.9527   29.7747 H   0  0  0  0  0  0  0  0  0  0  0  0
  1  2  1  0
  1103  1  0
  1109  1  0
  2  3  1  0
  2109  1  6
  3  4  2  0
  3  5  1  0
  5  6  1  0
  6  7  1  0
  6  9  1  6
  7  8  2  0
  7 16  1  0
  9 10  1  0
 10 11  1  0
 11 12  1  0
 12 13  1  0
 13 14  1  0
 13 15  2  0
 17 16  1  1
 17 18  1  0
 17 20  1  0
 18 19  2  0
 18 22  1  0
 20 21  1  0
 21 82  1  0
 23 22  1  1
 23 24  1  0
 23 26  1  0
 24 25  2  0
 24 29  1  0
 26 27  1  0
 26 28  1  1
 29 30  1  0
 30 31  1  0
 30 33  1  6
 31 32  2  0
 31 38  1  0
 33 34  1  0
 34 35  1  0
 35 36  1  0
 36 37  1  0
 38 39  1  0
 39 40  1  0
 39 42  1  6
 40 41  2  0
 40 44  1  0
 42 43  1  0
 44 45  1  0
 45 46  1  0
 45 48  1  1
 46 47  2  0
 46 55  1  0
 48 49  1  0
 49 50  1  0
 50 51  1  0
 51 52  1  0
 52 53  1  0
 52 54  2  0
 55 56  1  0
 55 61  1  0
 56 57  1  0
 56 59  1  1
 57 58  2  0
 57 62  1  0
 59 60  1  0
 60 61  1  0
 62 63  1  0
 62 68  1  0
 63 64  1  0
 63 66  1  1
 64 65  2  0
 64 69  1  0
 66 67  1  0
 67 68  1  0
 70 69  1  6
 70 71  1  0
 70 73  1  0
 71 72  2  0
 71 77  1  0
 73 74  1  0
 73 75  1  1
 74 76  1  0
 78 77  1  6
 78 79  1  0
 78 81  1  0
 79 80  2  0
 79 83  1  0
 81 82  1  0
 83 84  1  0
 84 85  1  0
 84 87  1  1
 85 86  2  0
 85 94  1  0
 87 88  1  0
 88 89  2  0
 88 90  1  0
 89 91  1  0
 90 92  2  0
 91 93  2  0
 92 93  1  0
 94 95  1  0
 94100  1  0
 95 96  1  0
 95 98  1  6
 96 97  2  0
 96101  1  0
 98 99  1  0
 99100  1  0
101102  1  0
102103  1  0
102105  1  1
103104  2  0
105106  1  0
106107  1  0
106108  2  0
 15110  1  0
 54111  1  0
M  CHG  1  37   1
M  END
$$$$
