
     RDKit          3D

111117  0  0  0  0  0  0  0  0999 V2000
   -5.7964    6.9594   39.5873 N   0  0  0  0  0  0  0  0  0  0  0  0
   -5.2024    6.8306   38.2972 C   0  0  2  0  0  0  0  0  0  0  0  0
   -5.3718    7.9934   37.3909 C   0  0  0  0  0  0  0  0  0  0  0  0
   -6.6036    8.3743   37.2397 O   0  0  0  0  0  0  0  0  0  0  0  0
   -4.3575    8.6930   36.7123 N   0  0  0  0  0  0  0  0  0  0  0  0
   -3.5092    8.2786   35.6128 C   0  0  2  0  0  0  0  0  0  0  0  0
   -4.1471    8.7786   34.3279 C   0  0  0  0  0  0  0  0  0  0  0  0
   -4.6215    7.8788   33.5659 O   0  0  0  0  0  0  0  0  0  0  0  0
   -3.2333    6.8194   35.5432 C   0  0  0  0  0  0  0  0  0  0  0  0
   -3.8592    6.1752   34.3430 C   0  0  0  0  0  0  0  0  0  0  0  0
   -4.6695    7.1734   33.5302 C   0  0  0  0  0  0  0  0  0  0  0  0
   -5.4029    8.0952   34.3550 N   0  0  0  0  0  0  0  0  0  0  0  0
   -6.3010    9.0533   33.8247 C   0  0  0  0  0  0  0  0  0  0  0  0
   -6.5097   10.2892   34.5072 N   0  0  0  0  0  0  0  0  0  0  0  0
   -6.9151    8.7961   32.7423 N   0  0  0  0  0  0  0  0  0  0  0  0
   -4.2502   10.1095   33.9365 N   0  0  0  0  0  0  0  0  0  0  0  0
   -3.2893   11.1655   33.8666 C   0  0  2  0  0  0  0  0  0  0  0  0
   -1.8837   10.7890   34.0538 C   0  0  0  0  0  0  0  0  0  0  0  0
   -1.3669   11.1988   35.1679 O   0  0  0  0  0  0  0  0  0  0  0  0
   -3.7018   12.3673   34.6974 C   0  0  0  0  0  0  0  0  0  0  0  0
   -3.1014   12.3751   36.3696 S   0  0  0  0  0  0  0  0  0  0  0  0
   -1.0696   10.0520   33.1726 N   0  0  0  0  0  0  0  0  0  0  0  0
   -0.7279   10.3397   31.8181 C   0  0  2  0  0  0  0  0  0  0  0  0
   -1.8209   10.2536   30.8441 C   0  0  0  0  0  0  0  0  0  0  0  0
   -2.8315    9.4981   31.0737 O   0  0  0  0  0  0  0  0  0  0  0  0
    0.3243    9.3371   31.3506 C   0  0  2  0  0  0  0  0  0  0  0  0
    0.4623    9.4184   29.9500 O   0  0  0  0  0  0  0  0  0  0  0  0
   -0.2545    7.9493   31.6012 C   0  0  0  0  0  0  0  0  0  0  0  0
   -1.8302   10.9682   29.6348 N   0  0  0  0  0  0  0  0  0  0  0  0
   -1.6649   12.3856   29.4346 C   0  0  2  0  0  0  0  0  0  0  0  0
   -2.8197   12.9729   28.7155 C   0  0  0  0  0  0  0  0  0  0  0  0
   -3.9212   12.8101   29.3710 O   0  0  0  0  0  0  0  0  0  0  0  0
   -0.3360   12.6815   28.8074 C   0  0  0  0  0  0  0  0  0  0  0  0
   -0.2034   12.0269   27.4483 C   0  0  0  0  0  0  0  0  0  0  0  0
    0.0962   10.5653   27.6926 C   0  0  0  0  0  0  0  0  0  0  0  0
    1.3949   10.1104   27.0790 C   0  0  0  0  0  0  0  0  0  0  0  0
    1.3533    8.6500   26.9288 N   0  0  0  0  0  4  0  0  0  0  0  0
   -2.8813   13.6341   27.5041 N   0  0  0  0  0  0  0  0  0  0  0  0
   -2.2517   14.8448   27.0560 C   0  0  2  0  0  0  0  0  0  0  0  0
   -2.3002   15.9780   28.0007 C   0  0  0  0  0  0  0  0  0  0  0  0
   -1.1839   16.5198   28.3350 O   0  0  0  0  0  0  0  0  0  0  0  0
   -2.7548   15.2321   25.6645 C   0  0  0  0  0  0  0  0  0  0  0  0
   -4.0452   15.6733   25.7243 O   0  0  0  0  0  0  0  0  0  0  0  0
   -3.4434   16.5449   28.5917 N   0  0  0  0  0  0  0  0  0  0  0  0
   -4.5886   17.1197   27.8605 C   0  0  2  0  0  0  0  0  0  0  0  0
   -4.5153   18.5938   28.0213 C   0  0  0  0  0  0  0  0  0  0  0  0
   -3.8798   19.1996   27.0651 O   0  0  0  0  0  0  0  0  0  0  0  0
   -5.8913   16.5480   28.3041 C   0  0  0  0  0  0  0  0  0  0  0  0
   -6.8308   16.4043   27.1604 C   0  0  0  0  0  0  0  0  0  0  0  0
   -8.2190   15.9368   27.6189 C   0  0  0  0  0  0  0  0  0  0  0  0
   -8.2685   15.8024   29.0579 N   0  0  0  0  0  0  0  0  0  0  0  0
   -9.4601   15.3747   29.6831 C   0  0  0  0  0  0  0  0  0  0  0  0
   -9.4227   14.3290   30.6444 N   0  0  0  0  0  0  0  0  0  0  0  0
  -10.6035   15.9183   29.3978 N   0  0  0  0  0  0  0  0  0  0  0  0
   -5.0462   19.3685   29.0650 N   0  0  0  0  0  0  0  0  0  0  0  0
   -5.3255   19.0021   30.4226 C   0  0  2  0  0  0  0  0  0  0  0  0
   -6.7524   19.0695   30.7975 C   0  0  0  0  0  0  0  0  0  0  0  0
   -7.6734   19.2400   29.9157 O   0  0  0  0  0  0  0  0  0  0  0  0
   -4.5874   20.1648   31.1414 C   0  0  0  0  0  0  0  0  0  0  0  0
   -4.7024   21.3327   30.1972 C   0  0  0  0  0  0  0  0  0  0  0  0
   -5.4219   20.7943   29.0021 C   0  0  0  0  0  0  0  0  0  0  0  0
   -7.1528   18.9464   32.1632 N   0  0  0  0  0  0  0  0  0  0  0  0
   -6.6704   17.9178   33.0658 C   0  0  2  0  0  0  0  0  0  0  0  0
   -7.5262   16.7107   33.0181 C   0  0  0  0  0  0  0  0  0  0  0  0
   -8.3381   16.7602   31.9774 O   0  0  0  0  0  0  0  0  0  0  0  0
   -6.5286   18.6109   34.3523 C   0  0  0  0  0  0  0  0  0  0  0  0
   -7.2861   19.8806   34.2542 C   0  0  0  0  0  0  0  0  0  0  0  0
   -8.0841   19.7419   32.9538 C   0  0  0  0  0  0  0  0  0  0  0  0
   -7.6623   15.5861   33.7719 N   0  0  0  0  0  0  0  0  0  0  0  0
   -8.3168   15.1412   34.9761 C   0  0  2  0  0  0  0  0  0  0  0  0
   -8.4628   13.6513   35.0212 C   0  0  0  0  0  0  0  0  0  0  0  0
   -9.5406   13.2244   34.4737 O   0  0  0  0  0  0  0  0  0  0  0  0
   -9.6643   15.6916   35.2681 C   0  0  2  0  0  0  0  0  0  0  0  0
   -9.9529   17.0876   34.8334 C   0  0  0  0  0  0  0  0  0  0  0  0
  -10.0908   15.5840   36.7171 C   0  0  0  0  0  0  0  0  0  0  0  0
   -9.0978   17.4947   33.6421 C   0  0  0  0  0  0  0  0  0  0  0  0
   -7.5998   12.7066   35.5652 N   0  0  0  0  0  0  0  0  0  0  0  0
   -7.0735   12.6640   36.9428 C   0  0  2  0  0  0  0  0  0  0  0  0
   -8.1370   12.5541   37.9513 C   0  0  0  0  0  0  0  0  0  0  0  0
   -9.0545   11.6975   37.5573 O   0  0  0  0  0  0  0  0  0  0  0  0
   -6.0137   13.6794   37.1498 C   0  0  0  0  0  0  0  0  0  0  0  0
   -4.4705   12.9609   37.8377 S   0  0  0  0  0  0  0  0  0  0  0  0
   -8.3520   13.1483   39.1765 N   0  0  0  0  0  0  0  0  0  0  0  0
   -7.5143   13.2051   40.3638 C   0  0  2  0  0  0  0  0  0  0  0  0
   -8.3397   12.5454   41.4181 C   0  0  0  0  0  0  0  0  0  0  0  0
   -8.9028   13.3094   42.2615 O   0  0  0  0  0  0  0  0  0  0  0  0
   -7.1432   14.5902   40.7275 C   0  0  0  0  0  0  0  0  0  0  0  0
   -5.7393   14.9700   40.6202 C   0  0  0  0  0  0  0  0  0  0  0  0
   -5.2581   16.2199   40.9260 C   0  0  0  0  0  0  0  0  0  0  0  0
   -4.8347   14.0318   40.1234 C   0  0  0  0  0  0  0  0  0  0  0  0
   -3.9455   16.5436   40.7566 C   0  0  0  0  0  0  0  0  0  0  0  0
   -3.5200   14.3793   39.9624 C   0  0  0  0  0  0  0  0  0  0  0  0
   -3.0147   15.6345   40.2672 C   0  0  0  0  0  0  0  0  0  0  0  0
   -8.5669   11.1708   41.5774 N   0  0  0  0  0  0  0  0  0  0  0  0
   -7.5897   10.0998   41.7149 C   0  0  2  0  0  0  0  0  0  0  0  0
   -6.2283   10.5626   41.8195 C   0  0  0  0  0  0  0  0  0  0  0  0
   -6.1112   11.5955   42.6032 O   0  0  0  0  0  0  0  0  0  0  0  0
   -7.9859    9.1535   40.6599 C   0  0  0  0  0  0  0  0  0  0  0  0
   -9.5054    9.3966   40.5187 C   0  0  0  0  0  0  0  0  0  0  0  0
   -9.8146   10.3686   41.6622 C   0  0  0  0  0  0  0  0  0  0  0  0
   -5.0168   10.1466   41.2709 N   0  0  0  0  0  0  0  0  0  0  0  0
   -4.7579    9.1434   40.2594 C   0  0  2  0  0  0  0  0  0  0  0  0
   -5.2238    7.7909   40.5920 C   0  0  0  0  0  0  0  0  0  0  0  0
   -5.1055    7.3827   41.7980 O   0  0  0  0  0  0  0  0  0  0  0  0
   -3.2666    9.0550   39.9444 C   0  0  0  0  0  0  0  0  0  0  0  0
   -2.7323   10.2934   39.3283 C   0  0  0  0  0  0  0  0  0  0  0  0
   -2.8173   11.5220   40.0095 O   0  0  0  0  0  0  0  0  0  0  0  0
   -2.2093   10.2527   38.2078 O   0  0  0  0  0  0  0  0  0  0  0  0
   -6.3376    6.1727   38.6360 O   0  0  0  0  0  0  0  0  0  0  0  0
   -7.8119    9.2480   32.5041 H   0  0  0  0  0  0  0  0  0  0  0  0
  -11.4867   15.5200   29.7679 H   0  0  0  0  0  0  0  0  0  0  0  0
  1  2  1  0
  1103  1  0
  1109  1  0
  2  3  1  0
  2109  1  6
  3  4  2  0
  3  5  1  0
  5  6  1  0
  6  7  1  0
  6  9  1  6
  7  8  2  0
  7 16  1  0
  9 10  1  0
 10 11  1  0
 11 12  1  0
 12 13  1  0
 13 14  1  0
 13 15  2  0
 17 16  1  1
 17 18  1  0
 17 20  1  0
 18 19  2  0
 18 22  1  0
 20 21  1  0
 21 82  1  0
 23 22  1  1
 23 24  1  0
 23 26  1  0
 24 25  2  0
 24 29  1  0
 26 27  1  0
 26 28  1  6
 29 30  1  0
 30 31  1  0
 30 33  1  6
 31 32  2  0
 31 38  1  0
 33 34  1  0
 34 35  1  0
 35 36  1  0
 36 37  1  0
 38 39  1  0
 39 40  1  0
 39 42  1  6
 40 41  2  0
 40 44  1  0
 42 43  1  0
 44 45  1  0
 45 46  1  0
 45 48  1  1
 46 47  2  0
 46 55  1  0
 48 49  1  0
 49 50  1  0
 50 51  1  0
 51 52  1  0
 52 53  1  0
 52 54  2  0
 55 56  1  0
 55 61  1  0
 56 57  1  0
 56 59  1  1
 57 58  2  0
 57 62  1  0
 59 60  1  0
 60 61  1  0
 62 63  1  0
 62 68  1  0
 63 64  1  0
 63 66  1  1
 64 65  2  0
 64 69  1  0
 66 67  1  0
 67 68  1  0
 70 69  1  6
 70 71  1  0
 70 73  1  0
 71 72  2  0
 71 77  1  0
 73 74  1  0
 73 75  1  1
 74 76  1  0
 78 77  1  6
 78 79  1  0
 78 81  1  0
 79 80  2  0
 79 83  1  0
 81 82  1  0
 83 84  1  0
 84 85  1  0
 84 87  1  1
 85 86  2  0
 85 94  1  0
 87 88  1  0
 88 89  2  0
 88 90  1  0
 89 91  1  0
 90 92  2  0
 91 93  2  0
 92 93  1  0
 94 95  1  0
 94100  1  0
 95 96  1  0
 95 98  1  6
 96 97  2  0
 96101  1  0
 98 99  1  0
 99100  1  0
101102  1  0
102103  1  0
102105  1  1
103104  2  0
105106  1  0
106107  1  0
106108  2  0
 15110  1  0
 54111  1  0
M  CHG  1  37   1
M  END
$$$$
