
     RDKit          3D

111117  0  0  0  0  0  0  0  0999 V2000
   -5.4125   19.2441   27.1706 N   0  0  0  0  0  0  0  0  0  0  0  0
   -4.8614   17.9290   27.1444 C   0  0  2  0  0  0  0  0  0  0  0  0
   -4.5898   17.3177   28.4691 C   0  0  0  0  0  0  0  0  0  0  0  0
   -3.8623   18.0524   29.2542 O   0  0  0  0  0  0  0  0  0  0  0  0
   -5.0356   16.0664   28.9319 N   0  0  0  0  0  0  0  0  0  0  0  0
   -4.6629   14.7285   28.5181 C   0  0  2  0  0  0  0  0  0  0  0  0
   -3.5858   14.2375   29.4702 C   0  0  0  0  0  0  0  0  0  0  0  0
   -2.4255   14.1123   28.9667 O   0  0  0  0  0  0  0  0  0  0  0  0
   -4.2261   14.6038   27.1025 C   0  0  0  0  0  0  0  0  0  0  0  0
   -2.7343   14.5476   26.9666 C   0  0  0  0  0  0  0  0  0  0  0  0
   -2.1689   13.2530   27.5303 C   0  0  0  0  0  0  0  0  0  0  0  0
   -1.0849   12.7314   26.7423 N   0  0  0  0  0  0  0  0  0  0  0  0
   -0.3944   11.5413   27.0782 C   0  0  0  0  0  0  0  0  0  0  0  0
    0.7034   11.5870   27.9889 N   0  0  0  0  0  0  0  0  0  0  0  0
   -0.7628   10.4421   26.5578 N   0  0  0  0  0  0  0  0  0  0  0  0
   -3.7691   13.9269   30.8136 N   0  0  0  0  0  0  0  0  0  0  0  0
   -4.7310   13.1112   31.4865 C   0  0  2  0  0  0  0  0  0  0  0  0
   -5.5936   12.2785   30.6409 C   0  0  0  0  0  0  0  0  0  0  0  0
   -6.8300   12.6608   30.6023 O   0  0  0  0  0  0  0  0  0  0  0  0
   -5.4985   13.8877   32.5414 C   0  0  0  0  0  0  0  0  0  0  0  0
   -7.0102   14.6353   31.9825 S   0  0  0  0  0  0  0  0  0  0  0  0
   -5.2229   11.1443   29.8934 N   0  0  0  0  0  0  0  0  0  0  0  0
   -4.6307    9.9285   30.3466 C   0  0  2  0  0  0  0  0  0  0  0  0
   -3.2529   10.0258   30.8394 C   0  0  0  0  0  0  0  0  0  0  0  0
   -2.4838   10.9641   30.4236 O   0  0  0  0  0  0  0  0  0  0  0  0
   -4.5870    8.9379   29.1857 C   0  0  2  0  0  0  0  0  0  0  0  0
   -3.2452    8.6462   28.8663 O   0  0  0  0  0  0  0  0  0  0  0  0
   -5.1228    9.6748   27.9635 C   0  0  0  0  0  0  0  0  0  0  0  0
   -2.7036    9.1254   31.7672 N   0  0  0  0  0  0  0  0  0  0  0  0
   -3.2180    8.7518   33.0603 C   0  0  2  0  0  0  0  0  0  0  0  0
   -2.2337    9.0166   34.1358 C   0  0  0  0  0  0  0  0  0  0  0  0
   -1.9246   10.2695   34.2000 O   0  0  0  0  0  0  0  0  0  0  0  0
   -3.7402    7.3469   33.0381 C   0  0  0  0  0  0  0  0  0  0  0  0
   -4.4279    7.0290   31.7269 C   0  0  0  0  0  0  0  0  0  0  0  0
   -3.5669    7.6091   30.6278 C   0  0  0  0  0  0  0  0  0  0  0  0
   -3.1864    6.6032   29.5725 C   0  0  0  0  0  0  0  0  0  0  0  0
   -1.8585    6.9533   29.0521 N   0  0  0  0  0  4  0  0  0  0  0  0
   -1.6296    8.1561   35.0319 N   0  0  0  0  0  0  0  0  0  0  0  0
   -2.1875    7.2969   36.0387 C   0  0  2  0  0  0  0  0  0  0  0  0
   -3.2337    7.9013   36.8867 C   0  0  0  0  0  0  0  0  0  0  0  0
   -4.3686    7.3013   36.9468 O   0  0  0  0  0  0  0  0  0  0  0  0
   -1.0791    6.6450   36.8669 C   0  0  0  0  0  0  0  0  0  0  0  0
   -0.3957    7.5854   37.5823 O   0  0  0  0  0  0  0  0  0  0  0  0
   -3.1361    9.0787   37.6494 N   0  0  0  0  0  0  0  0  0  0  0  0
   -2.1448    9.3292   38.7129 C   0  0  2  0  0  0  0  0  0  0  0  0
   -2.8679    9.2694   40.0082 C   0  0  0  0  0  0  0  0  0  0  0  0
   -2.8521    8.0991   40.5697 O   0  0  0  0  0  0  0  0  0  0  0  0
   -1.4084   10.6094   38.5138 C   0  0  0  0  0  0  0  0  0  0  0  0
   -0.5053   10.5303   37.3350 C   0  0  0  0  0  0  0  0  0  0  0  0
    0.6728    9.5782   37.5829 C   0  0  0  0  0  0  0  0  0  0  0  0
    0.7348    9.1859   38.9734 N   0  0  0  0  0  0  0  0  0  0  0  0
    1.6087    8.1514   39.3733 C   0  0  0  0  0  0  0  0  0  0  0  0
    2.4410    8.3245   40.5119 N   0  0  0  0  0  0  0  0  0  0  0  0
    1.6731    7.0327   38.7186 N   0  0  0  0  0  0  0  0  0  0  0  0
   -3.5406   10.3141   40.6620 N   0  0  0  0  0  0  0  0  0  0  0  0
   -4.1437   11.4942   40.1155 C   0  0  2  0  0  0  0  0  0  0  0  0
   -3.5293   12.7618   40.5595 C   0  0  0  0  0  0  0  0  0  0  0  0
   -2.4207   12.7810   41.2118 O   0  0  0  0  0  0  0  0  0  0  0  0
   -5.5413   11.3810   40.7843 C   0  0  0  0  0  0  0  0  0  0  0  0
   -5.2800   10.7043   42.1043 C   0  0  0  0  0  0  0  0  0  0  0  0
   -3.8122   10.4191   42.1088 C   0  0  0  0  0  0  0  0  0  0  0  0
   -4.1559   14.0135   40.2744 N   0  0  0  0  0  0  0  0  0  0  0  0
   -4.6729   14.3895   38.9718 C   0  0  2  0  0  0  0  0  0  0  0  0
   -3.6389   15.0607   38.1519 C   0  0  0  0  0  0  0  0  0  0  0  0
   -2.4443   14.9012   38.6925 O   0  0  0  0  0  0  0  0  0  0  0  0
   -5.9002   15.1352   39.2776 C   0  0  0  0  0  0  0  0  0  0  0  0
   -5.8485   15.4985   40.7131 C   0  0  0  0  0  0  0  0  0  0  0  0
   -4.4143   15.1622   41.1339 C   0  0  0  0  0  0  0  0  0  0  0  0
   -3.6305   15.7780   36.9956 N   0  0  0  0  0  0  0  0  0  0  0  0
   -3.8643   17.1227   36.5333 C   0  0  2  0  0  0  0  0  0  0  0  0
   -3.2290   17.3796   35.2016 C   0  0  0  0  0  0  0  0  0  0  0  0
   -2.0182   17.7933   35.2819 O   0  0  0  0  0  0  0  0  0  0  0  0
   -3.4298   18.2362   37.4137 C   0  0  2  0  0  0  0  0  0  0  0  0
   -1.9819   18.3268   37.7549 C   0  0  0  0  0  0  0  0  0  0  0  0
   -4.1972   18.3504   38.7141 C   0  0  0  0  0  0  0  0  0  0  0  0
   -1.2046   19.1119   36.7082 C   0  0  0  0  0  0  0  0  0  0  0  0
   -3.7741   17.2278   33.9315 N   0  0  0  0  0  0  0  0  0  0  0  0
   -5.0203   17.8254   33.4156 C   0  0  2  0  0  0  0  0  0  0  0  0
   -4.9945   19.2947   33.4378 C   0  0  0  0  0  0  0  0  0  0  0  0
   -3.8225   19.7379   33.0369 O   0  0  0  0  0  0  0  0  0  0  0  0
   -6.2162   17.1373   33.9576 C   0  0  0  0  0  0  0  0  0  0  0  0
   -7.3723   16.5865   32.6418 S   0  0  0  0  0  0  0  0  0  0  0  0
   -5.9186   20.2579   33.7826 N   0  0  0  0  0  0  0  0  0  0  0  0
   -7.2695   20.4933   33.2987 C   0  0  2  0  0  0  0  0  0  0  0  0
   -7.2119   21.8714   32.7279 C   0  0  0  0  0  0  0  0  0  0  0  0
   -7.7247   22.7991   33.4267 O   0  0  0  0  0  0  0  0  0  0  0  0
   -8.2824   20.3725   34.3702 C   0  0  0  0  0  0  0  0  0  0  0  0
   -8.6450   19.0325   34.8170 C   0  0  0  0  0  0  0  0  0  0  0  0
   -8.2458   18.4898   36.0142 C   0  0  0  0  0  0  0  0  0  0  0  0
   -9.3927   18.2269   33.9583 C   0  0  0  0  0  0  0  0  0  0  0  0
   -8.5643   17.2119   36.3634 C   0  0  0  0  0  0  0  0  0  0  0  0
   -9.7017   16.9459   34.3307 C   0  0  0  0  0  0  0  0  0  0  0  0
   -9.3101   16.3808   35.5353 C   0  0  0  0  0  0  0  0  0  0  0  0
   -6.6475   22.2565   31.5033 N   0  0  0  0  0  0  0  0  0  0  0  0
   -6.9401   21.7490   30.1700 C   0  0  2  0  0  0  0  0  0  0  0  0
   -8.0426   20.8209   30.1284 C   0  0  0  0  0  0  0  0  0  0  0  0
   -9.0448   21.2033   30.8659 O   0  0  0  0  0  0  0  0  0  0  0  0
   -5.6126   21.3667   29.6632 C   0  0  0  0  0  0  0  0  0  0  0  0
   -4.6583   22.3232   30.4132 C   0  0  0  0  0  0  0  0  0  0  0  0
   -5.6137   23.2649   31.1539 C   0  0  0  0  0  0  0  0  0  0  0  0
   -8.2699   19.6125   29.4727 N   0  0  0  0  0  0  0  0  0  0  0  0
   -7.3604   18.8017   28.6905 C   0  0  2  0  0  0  0  0  0  0  0  0
   -6.7723   19.4756   27.5256 C   0  0  0  0  0  0  0  0  0  0  0  0
   -7.5058   20.2715   26.8447 O   0  0  0  0  0  0  0  0  0  0  0  0
   -8.0477   17.5323   28.1929 C   0  0  0  0  0  0  0  0  0  0  0  0
   -7.2298   16.7801   27.2110 C   0  0  0  0  0  0  0  0  0  0  0  0
   -6.0607   16.1122   27.6206 O   0  0  0  0  0  0  0  0  0  0  0  0
   -7.5715   16.7377   26.0227 O   0  0  0  0  0  0  0  0  0  0  0  0
   -4.1258   19.0241   26.8347 O   0  0  0  0  0  0  0  0  0  0  0  0
   -0.1003    9.6680   26.3935 H   0  0  0  0  0  0  0  0  0  0  0  0
    2.2553    6.2480   39.0662 H   0  0  0  0  0  0  0  0  0  0  0  0
  1  2  1  0
  1103  1  0
  1109  1  0
  2  3  1  0
  2109  1  6
  3  4  2  0
  3  5  1  0
  5  6  1  0
  6  7  1  0
  6  9  1  6
  7  8  2  0
  7 16  1  0
  9 10  1  0
 10 11  1  0
 11 12  1  0
 12 13  1  0
 13 14  1  0
 13 15  2  0
 17 16  1  6
 17 18  1  0
 17 20  1  0
 18 19  2  0
 18 22  1  0
 20 21  1  0
 21 82  1  0
 23 22  1  6
 23 24  1  0
 23 26  1  0
 24 25  2  0
 24 29  1  0
 26 27  1  0
 26 28  1  6
 29 30  1  0
 30 31  1  0
 30 33  1  6
 31 32  2  0
 31 38  1  0
 33 34  1  0
 34 35  1  0
 35 36  1  0
 36 37  1  0
 38 39  1  0
 39 40  1  0
 39 42  1  1
 40 41  2  0
 40 44  1  0
 42 43  1  0
 44 45  1  0
 45 46  1  0
 45 48  1  6
 46 47  2  0
 46 55  1  0
 48 49  1  0
 49 50  1  0
 50 51  1  0
 51 52  1  0
 52 53  1  0
 52 54  2  0
 55 56  1  0
 55 61  1  0
 56 57  1  0
 56 59  1  1
 57 58  2  0
 57 62  1  0
 59 60  1  0
 60 61  1  0
 62 63  1  0
 62 68  1  0
 63 64  1  0
 63 66  1  1
 64 65  2  0
 64 69  1  0
 66 67  1  0
 67 68  1  0
 70 69  1  1
 70 71  1  0
 70 73  1  0
 71 72  2  0
 71 77  1  0
 73 74  1  0
 73 75  1  1
 74 76  1  0
 78 77  1  1
 78 79  1  0
 78 81  1  0
 79 80  2  0
 79 83  1  0
 81 82  1  0
 83 84  1  0
 84 85  1  0
 84 87  1  1
 85 86  2  0
 85 94  1  0
 87 88  1  0
 88 89  2  0
 88 90  1  0
 89 91  1  0
 90 92  2  0
 91 93  2  0
 92 93  1  0
 94 95  1  0
 94100  1  0
 95 96  1  0
 95 98  1  1
 96 97  2  0
 96101  1  0
 98 99  1  0
 99100  1  0
101102  1  0
102103  1  0
102105  1  6
103104  2  0
105106  1  0
106107  1  0
106108  2  0
 15110  1  0
 54111  1  0
M  CHG  1  37   1
M  END
$$$$
