
     RDKit          3D

111117  0  0  0  0  0  0  0  0999 V2000
   -5.1836   22.4160   28.4766 N   0  0  0  0  0  0  0  0  0  0  0  0
   -4.6076   21.1926   28.0232 C   0  0  2  0  0  0  0  0  0  0  0  0
   -4.4359   20.1400   29.0550 C   0  0  0  0  0  0  0  0  0  0  0  0
   -3.7903   20.5313   30.1111 O   0  0  0  0  0  0  0  0  0  0  0  0
   -4.8951   18.8118   28.9943 N   0  0  0  0  0  0  0  0  0  0  0  0
   -4.4640   17.7097   28.1577 C   0  0  2  0  0  0  0  0  0  0  0  0
   -3.4610   16.8937   28.9551 C   0  0  0  0  0  0  0  0  0  0  0  0
   -2.2606   16.9447   28.5405 O   0  0  0  0  0  0  0  0  0  0  0  0
   -3.9085   18.1004   26.8352 C   0  0  0  0  0  0  0  0  0  0  0  0
   -3.5953   16.9147   25.9731 C   0  0  0  0  0  0  0  0  0  0  0  0
   -4.7867   15.9764   25.8568 C   0  0  0  0  0  0  0  0  0  0  0  0
   -5.9867   16.5302   26.4237 N   0  0  0  0  0  0  0  0  0  0  0  0
   -7.2192   15.8329   26.4445 C   0  0  0  0  0  0  0  0  0  0  0  0
   -7.7402   15.2700   25.2410 N   0  0  0  0  0  0  0  0  0  0  0  0
   -7.8500   15.7200   27.5419 N   0  0  0  0  0  0  0  0  0  0  0  0
   -3.7497   16.1203   30.0746 N   0  0  0  0  0  0  0  0  0  0  0  0
   -4.7489   15.1286   30.3230 C   0  0  2  0  0  0  0  0  0  0  0  0
   -5.5221   14.6694   29.1638 C   0  0  0  0  0  0  0  0  0  0  0  0
   -6.7580   15.0555   29.1617 O   0  0  0  0  0  0  0  0  0  0  0  0
   -5.6161   15.4803   31.5184 C   0  0  0  0  0  0  0  0  0  0  0  0
   -7.0898   16.3986   31.1421 S   0  0  0  0  0  0  0  0  0  0  0  0
   -5.0692   13.8782   28.0909 N   0  0  0  0  0  0  0  0  0  0  0  0
   -4.4940   12.5734   28.1219 C   0  0  2  0  0  0  0  0  0  0  0  0
   -3.1642   12.4683   28.7311 C   0  0  0  0  0  0  0  0  0  0  0  0
   -2.3808   13.4836   28.7494 O   0  0  0  0  0  0  0  0  0  0  0  0
   -4.3351   12.0697   26.6894 C   0  0  2  0  0  0  0  0  0  0  0  0
   -3.7429   13.0763   25.8997 O   0  0  0  0  0  0  0  0  0  0  0  0
   -5.7419   11.9134   26.1237 C   0  0  0  0  0  0  0  0  0  0  0  0
   -2.6773   11.2862   29.3132 N   0  0  0  0  0  0  0  0  0  0  0  0
   -3.2906   10.4764   30.3353 C   0  0  2  0  0  0  0  0  0  0  0  0
   -2.4046   10.3214   31.5128 C   0  0  0  0  0  0  0  0  0  0  0  0
   -2.1254   11.4621   32.0516 O   0  0  0  0  0  0  0  0  0  0  0  0
   -3.7826    9.1815   29.7623 C   0  0  0  0  0  0  0  0  0  0  0  0
   -2.6353    8.2711   29.3774 C   0  0  0  0  0  0  0  0  0  0  0  0
   -1.6359    9.1191   28.6239 C   0  0  0  0  0  0  0  0  0  0  0  0
   -0.3916    8.3672   28.2284 C   0  0  0  0  0  0  0  0  0  0  0  0
    0.5183    9.2971   27.5470 N   0  0  0  0  0  4  0  0  0  0  0  0
   -1.8611    9.1873   32.0846 N   0  0  0  0  0  0  0  0  0  0  0  0
   -2.4847    8.0291   32.6614 C   0  0  2  0  0  0  0  0  0  0  0  0
   -3.6092    8.2987   33.5789 C   0  0  0  0  0  0  0  0  0  0  0  0
   -4.7336    7.7321   33.3217 O   0  0  0  0  0  0  0  0  0  0  0  0
   -1.4372    7.1076   33.2882 C   0  0  0  0  0  0  0  0  0  0  0  0
   -0.6304    7.8047   34.1404 O   0  0  0  0  0  0  0  0  0  0  0  0
   -3.5977    9.1189   34.7211 N   0  0  0  0  0  0  0  0  0  0  0  0
   -2.7033    8.9548   35.8829 C   0  0  2  0  0  0  0  0  0  0  0  0
   -3.5306    8.4394   37.0028 C   0  0  0  0  0  0  0  0  0  0  0  0
   -3.5397    7.1451   37.1021 O   0  0  0  0  0  0  0  0  0  0  0  0
   -1.9771   10.2108   36.2234 C   0  0  0  0  0  0  0  0  0  0  0  0
   -1.4788   10.8905   34.9982 C   0  0  0  0  0  0  0  0  0  0  0  0
   -1.6086    9.9959   33.7578 C   0  0  0  0  0  0  0  0  0  0  0  0
   -0.9492    8.7260   33.9668 N   0  0  0  0  0  0  0  0  0  0  0  0
   -0.9158    7.7720   32.9263 C   0  0  0  0  0  0  0  0  0  0  0  0
   -2.0553    7.5827   32.0987 N   0  0  0  0  0  0  0  0  0  0  0  0
    0.1418    7.0534   32.7043 N   0  0  0  0  0  0  0  0  0  0  0  0
   -4.2750    9.1850   37.9309 N   0  0  0  0  0  0  0  0  0  0  0  0
   -4.8526   10.4905   37.7994 C   0  0  2  0  0  0  0  0  0  0  0  0
   -4.3014   11.5035   38.7220 C   0  0  0  0  0  0  0  0  0  0  0  0
   -3.2515   11.2712   39.4283 O   0  0  0  0  0  0  0  0  0  0  0  0
   -6.2987   10.1606   38.2613 C   0  0  0  0  0  0  0  0  0  0  0  0
   -6.1357    9.0487   39.2641 C   0  0  0  0  0  0  0  0  0  0  0  0
   -4.6683    8.7626   39.2892 C   0  0  0  0  0  0  0  0  0  0  0  0
   -4.9254   12.7813   38.8571 N   0  0  0  0  0  0  0  0  0  0  0  0
   -5.3390   13.6099   37.7400 C   0  0  2  0  0  0  0  0  0  0  0  0
   -4.2531   14.5192   37.3090 C   0  0  0  0  0  0  0  0  0  0  0  0
   -3.1050   14.1596   37.8542 O   0  0  0  0  0  0  0  0  0  0  0  0
   -6.6014   14.2098   38.1899 C   0  0  0  0  0  0  0  0  0  0  0  0
   -6.6764   14.0282   39.6585 C   0  0  0  0  0  0  0  0  0  0  0  0
   -5.2761   13.5442   40.0487 C   0  0  0  0  0  0  0  0  0  0  0  0
   -4.1619   15.6062   36.4956 N   0  0  0  0  0  0  0  0  0  0  0  0
   -4.3816   17.0299   36.5329 C   0  0  2  0  0  0  0  0  0  0  0  0
   -3.6425   17.7433   35.4432 C   0  0  0  0  0  0  0  0  0  0  0  0
   -2.4505   18.0846   35.7696 O   0  0  0  0  0  0  0  0  0  0  0  0
   -4.0430   17.7436   37.7899 C   0  0  2  0  0  0  0  0  0  0  0  0
   -4.1861   16.9974   39.0719 C   0  0  0  0  0  0  0  0  0  0  0  0
   -4.7470   19.0719   37.9719 C   0  0  0  0  0  0  0  0  0  0  0  0
   -5.0580   15.7606   38.9095 C   0  0  0  0  0  0  0  0  0  0  0  0
   -4.0768   18.0685   34.1630 N   0  0  0  0  0  0  0  0  0  0  0  0
   -5.2867   18.8281   33.7948 C   0  0  2  0  0  0  0  0  0  0  0  0
   -5.2905   20.1893   34.3491 C   0  0  0  0  0  0  0  0  0  0  0  0
   -4.0977   20.7326   34.2362 O   0  0  0  0  0  0  0  0  0  0  0  0
   -6.5105   18.0057   33.9481 C   0  0  0  0  0  0  0  0  0  0  0  0
   -7.5422   17.9832   32.4295 S   0  0  0  0  0  0  0  0  0  0  0  0
   -6.2580   20.9740   34.9395 N   0  0  0  0  0  0  0  0  0  0  0  0
   -7.5682   21.3857   34.4612 C   0  0  2  0  0  0  0  0  0  0  0  0
   -7.4891   22.8761   34.4345 C   0  0  0  0  0  0  0  0  0  0  0  0
   -8.0757   23.4944   35.3756 O   0  0  0  0  0  0  0  0  0  0  0  0
   -8.6643   20.8980   35.3267 C   0  0  0  0  0  0  0  0  0  0  0  0
   -8.3848   19.7731   36.2115 C   0  0  0  0  0  0  0  0  0  0  0  0
   -8.1611   18.4905   35.7730 C   0  0  0  0  0  0  0  0  0  0  0  0
   -8.4011   19.9927   37.5887 C   0  0  0  0  0  0  0  0  0  0  0  0
   -7.9588   17.4610   36.6423 C   0  0  0  0  0  0  0  0  0  0  0  0
   -8.1944   18.9430   38.4435 C   0  0  0  0  0  0  0  0  0  0  0  0
   -7.9649   17.6422   38.0206 C   0  0  0  0  0  0  0  0  0  0  0  0
   -6.8319   23.6712   33.4846 N   0  0  0  0  0  0  0  0  0  0  0  0
   -7.0028   23.6845   32.0384 C   0  0  2  0  0  0  0  0  0  0  0  0
   -8.0803   22.8484   31.5709 C   0  0  0  0  0  0  0  0  0  0  0  0
   -9.1475   22.9506   32.3092 O   0  0  0  0  0  0  0  0  0  0  0  0
   -5.6306   23.4948   31.5417 C   0  0  0  0  0  0  0  0  0  0  0  0
   -4.7604   24.1028   32.6647 C   0  0  0  0  0  0  0  0  0  0  0  0
   -5.7917   24.7244   33.6123 C   0  0  0  0  0  0  0  0  0  0  0  0
   -8.2294   21.9623   30.5058 N   0  0  0  0  0  0  0  0  0  0  0  0
   -7.2427   21.4782   29.5631 C   0  0  2  0  0  0  0  0  0  0  0  0
   -6.5723   22.5205   28.7750 C   0  0  0  0  0  0  0  0  0  0  0  0
   -7.2614   23.5181   28.3687 O   0  0  0  0  0  0  0  0  0  0  0  0
   -7.8621   20.4838   28.5839 C   0  0  0  0  0  0  0  0  0  0  0  0
   -6.8535   19.8066   27.7335 C   0  0  0  0  0  0  0  0  0  0  0  0
   -6.7931   18.4015   27.6819 O   0  0  0  0  0  0  0  0  0  0  0  0
   -6.0565   20.4760   27.0647 O   0  0  0  0  0  0  0  0  0  0  0  0
   -3.8694   22.3162   28.1940 O   0  0  0  0  0  0  0  0  0  0  0  0
   -8.8039   15.3283   27.5842 H   0  0  0  0  0  0  0  0  0  0  0  0
    0.5042    6.4058   33.4288 H   0  0  0  0  0  0  0  0  0  0  0  0
  1  2  1  0
  1103  1  0
  1109  1  0
  2  3  1  0
  2109  1  1
  3  4  2  0
  3  5  1  0
  5  6  1  0
  6  7  1  0
  6  9  1  6
  7  8  2  0
  7 16  1  0
  9 10  1  0
 10 11  1  0
 11 12  1  0
 12 13  1  0
 13 14  1  0
 13 15  2  0
 17 16  1  6
 17 18  1  0
 17 20  1  0
 18 19  2  0
 18 22  1  0
 20 21  1  0
 21 82  1  0
 23 22  1  6
 23 24  1  0
 23 26  1  0
 24 25  2  0
 24 29  1  0
 26 27  1  0
 26 28  1  6
 29 30  1  0
 30 31  1  0
 30 33  1  6
 31 32  2  0
 31 38  1  0
 33 34  1  0
 34 35  1  0
 35 36  1  0
 36 37  1  0
 38 39  1  0
 39 40  1  0
 39 42  1  1
 40 41  2  0
 40 44  1  0
 42 43  1  0
 44 45  1  0
 45 46  1  0
 45 48  1  1
 46 47  2  0
 46 55  1  0
 48 49  1  0
 49 50  1  0
 50 51  1  0
 51 52  1  0
 52 53  1  0
 52 54  2  0
 55 56  1  0
 55 61  1  0
 56 57  1  0
 56 59  1  1
 57 58  2  0
 57 62  1  0
 59 60  1  0
 60 61  1  0
 62 63  1  0
 62 68  1  0
 63 64  1  0
 63 66  1  1
 64 65  2  0
 64 69  1  0
 66 67  1  0
 67 68  1  0
 70 69  1  1
 70 71  1  0
 70 73  1  0
 71 72  2  0
 71 77  1  0
 73 74  1  0
 73 75  1  1
 74 76  1  0
 78 77  1  1
 78 79  1  0
 78 81  1  0
 79 80  2  0
 79 83  1  0
 81 82  1  0
 83 84  1  0
 84 85  1  0
 84 87  1  1
 85 86  2  0
 85 94  1  0
 87 88  1  0
 88 89  2  0
 88 90  1  0
 89 91  1  0
 90 92  2  0
 91 93  2  0
 92 93  1  0
 94 95  1  0
 94100  1  0
 95 96  1  0
 95 98  1  6
 96 97  2  0
 96101  1  0
 98 99  1  0
 99100  1  0
101102  1  0
102103  1  0
102105  1  6
103104  2  0
105106  1  0
106107  1  0
106108  2  0
 15110  1  0
 54111  1  0
M  CHG  1  37   1
M  END
$$$$
