
     RDKit          3D

111117  0  0  0  0  0  0  0  0999 V2000
   -6.4295   22.6349   29.0274 N   0  0  0  0  0  0  0  0  0  0  0  0
   -5.7158   21.5438   28.4493 C   0  0  2  0  0  0  0  0  0  0  0  0
   -5.3667   20.4389   29.3764 C   0  0  0  0  0  0  0  0  0  0  0  0
   -4.7372   20.8211   30.4454 O   0  0  0  0  0  0  0  0  0  0  0  0
   -5.6492   19.0712   29.2082 N   0  0  0  0  0  0  0  0  0  0  0  0
   -5.1102   18.1134   28.2637 C   0  0  2  0  0  0  0  0  0  0  0  0
   -3.9779   17.3741   28.9560 C   0  0  0  0  0  0  0  0  0  0  0  0
   -2.8119   17.6216   28.5148 O   0  0  0  0  0  0  0  0  0  0  0  0
   -4.6633   18.6876   26.9672 C   0  0  0  0  0  0  0  0  0  0  0  0
   -3.2153   18.4165   26.6900 C   0  0  0  0  0  0  0  0  0  0  0  0
   -2.9381   18.3269   25.1971 C   0  0  0  0  0  0  0  0  0  0  0  0
   -3.9851   18.9100   24.4023 N   0  0  0  0  0  0  0  0  0  0  0  0
   -3.7706   20.0114   23.5381 C   0  0  0  0  0  0  0  0  0  0  0  0
   -4.2758   21.2999   23.8866 N   0  0  0  0  0  0  0  0  0  0  0  0
   -3.1293   19.8351   22.4553 N   0  0  0  0  0  0  0  0  0  0  0  0
   -4.1182   16.4753   30.0083 N   0  0  0  0  0  0  0  0  0  0  0  0
   -4.9676   15.3405   30.1932 C   0  0  2  0  0  0  0  0  0  0  0  0
   -5.7187   14.8831   29.0188 C   0  0  0  0  0  0  0  0  0  0  0  0
   -6.9937   15.0981   29.0857 O   0  0  0  0  0  0  0  0  0  0  0  0
   -5.8259   15.4680   31.4389 C   0  0  0  0  0  0  0  0  0  0  0  0
   -7.4212   16.2088   31.1880 S   0  0  0  0  0  0  0  0  0  0  0  0
   -5.2081   14.2553   27.8666 N   0  0  0  0  0  0  0  0  0  0  0  0
   -4.4655   13.0420   27.7634 C   0  0  2  0  0  0  0  0  0  0  0  0
   -3.1105   13.0647   28.3238 C   0  0  0  0  0  0  0  0  0  0  0  0
   -2.4674   14.1708   28.4126 O   0  0  0  0  0  0  0  0  0  0  0  0
   -4.2981   12.6896   26.2874 C   0  0  2  0  0  0  0  0  0  0  0  0
   -4.1707   11.2925   26.1487 O   0  0  0  0  0  0  0  0  0  0  0  0
   -2.9451   13.2448   25.8575 C   0  0  0  0  0  0  0  0  0  0  0  0
   -2.4498   11.9132   28.7828 N   0  0  0  0  0  0  0  0  0  0  0  0
   -2.9106   10.9432   29.7437 C   0  0  2  0  0  0  0  0  0  0  0  0
   -1.9663   10.8080   30.8776 C   0  0  0  0  0  0  0  0  0  0  0  0
   -1.8187   11.9251   31.5097 O   0  0  0  0  0  0  0  0  0  0  0  0
   -3.2501    9.6482   29.0695 C   0  0  0  0  0  0  0  0  0  0  0  0
   -2.4724    9.4697   27.7825 C   0  0  0  0  0  0  0  0  0  0  0  0
   -1.0961   10.0496   28.0173 C   0  0  0  0  0  0  0  0  0  0  0  0
   -0.0287    9.4230   27.1581 C   0  0  0  0  0  0  0  0  0  0  0  0
    0.1757    8.0387   27.6040 N   0  0  0  0  0  4  0  0  0  0  0  0
   -1.2563    9.7123   31.3291 N   0  0  0  0  0  0  0  0  0  0  0  0
   -1.6989    8.4354   31.8155 C   0  0  2  0  0  0  0  0  0  0  0  0
   -2.8122    8.4713   32.7842 C   0  0  0  0  0  0  0  0  0  0  0  0
   -3.8615    7.7828   32.5078 O   0  0  0  0  0  0  0  0  0  0  0  0
   -0.5154    7.6127   32.3272 C   0  0  0  0  0  0  0  0  0  0  0  0
    0.6378    7.9852   31.6991 O   0  0  0  0  0  0  0  0  0  0  0  0
   -2.8637    9.1840   33.9953 N   0  0  0  0  0  0  0  0  0  0  0  0
   -1.9106    9.0422   35.1125 C   0  0  2  0  0  0  0  0  0  0  0  0
   -2.6182    8.3257   36.2033 C   0  0  0  0  0  0  0  0  0  0  0  0
   -2.4531    7.0383   36.1852 O   0  0  0  0  0  0  0  0  0  0  0  0
   -1.3431   10.3505   35.5452 C   0  0  0  0  0  0  0  0  0  0  0  0
   -0.1159   10.6836   34.7743 C   0  0  0  0  0  0  0  0  0  0  0  0
    0.1510    9.6630   33.6595 C   0  0  0  0  0  0  0  0  0  0  0  0
   -1.0171    9.4955   32.8235 N   0  0  0  0  0  0  0  0  0  0  0  0
   -0.9161    8.7801   31.6103 C   0  0  0  0  0  0  0  0  0  0  0  0
   -2.0916    8.4158   30.9000 N   0  0  0  0  0  0  0  0  0  0  0  0
    0.2374    8.4413   31.1216 N   0  0  0  0  0  0  0  0  0  0  0  0
   -3.4172    8.8816   37.2153 N   0  0  0  0  0  0  0  0  0  0  0  0
   -4.1662   10.1040   37.2185 C   0  0  2  0  0  0  0  0  0  0  0  0
   -3.7172   11.0987   38.2137 C   0  0  0  0  0  0  0  0  0  0  0  0
   -2.6189   10.9498   38.8668 O   0  0  0  0  0  0  0  0  0  0  0  0
   -5.5370    9.5440   37.6882 C   0  0  0  0  0  0  0  0  0  0  0  0
   -5.1899    8.3819   38.5813 C   0  0  0  0  0  0  0  0  0  0  0  0
   -3.6977    8.2948   38.5400 C   0  0  0  0  0  0  0  0  0  0  0  0
   -4.4981   12.2645   38.4810 N   0  0  0  0  0  0  0  0  0  0  0  0
   -5.0607   13.1230   37.4555 C   0  0  2  0  0  0  0  0  0  0  0  0
   -4.1217   14.2039   37.0789 C   0  0  0  0  0  0  0  0  0  0  0  0
   -2.9157   13.9564   37.5575 O   0  0  0  0  0  0  0  0  0  0  0  0
   -6.3723   13.5066   37.9924 C   0  0  0  0  0  0  0  0  0  0  0  0
   -6.3650   13.1907   39.4400 C   0  0  0  0  0  0  0  0  0  0  0  0
   -4.8990   12.8678   39.7461 C   0  0  0  0  0  0  0  0  0  0  0  0
   -4.2063   15.3593   36.3652 N   0  0  0  0  0  0  0  0  0  0  0  0
   -4.6098   16.7319   36.5374 C   0  0  2  0  0  0  0  0  0  0  0  0
   -4.0144   17.6295   35.4969 C   0  0  0  0  0  0  0  0  0  0  0  0
   -2.8658   18.0986   35.8200 O   0  0  0  0  0  0  0  0  0  0  0  0
   -4.3189   17.3737   37.8440 C   0  0  2  0  0  0  0  0  0  0  0  0
   -2.9152   17.7964   38.1125 C   0  0  0  0  0  0  0  0  0  0  0  0
   -4.7809   16.5862   39.0520 C   0  0  0  0  0  0  0  0  0  0  0  0
   -2.7941   18.5405   39.4346 C   0  0  0  0  0  0  0  0  0  0  0  0
   -4.5377   18.0023   34.2638 N   0  0  0  0  0  0  0  0  0  0  0  0
   -5.8506   18.6211   33.9994 C   0  0  2  0  0  0  0  0  0  0  0  0
   -6.0116   19.9166   34.6746 C   0  0  0  0  0  0  0  0  0  0  0  0
   -4.9060   20.6231   34.5787 O   0  0  0  0  0  0  0  0  0  0  0  0
   -6.9485   17.6314   34.1111 C   0  0  0  0  0  0  0  0  0  0  0  0
   -8.0272   17.6013   32.6256 S   0  0  0  0  0  0  0  0  0  0  0  0
   -7.0500   20.5101   35.3601 N   0  0  0  0  0  0  0  0  0  0  0  0
   -8.4207   20.7815   34.9572 C   0  0  2  0  0  0  0  0  0  0  0  0
   -8.5395   22.2656   35.0636 C   0  0  0  0  0  0  0  0  0  0  0  0
   -9.1649   22.7161   36.0725 O   0  0  0  0  0  0  0  0  0  0  0  0
   -9.4083   20.0781   35.8047 C   0  0  0  0  0  0  0  0  0  0  0  0
   -9.6317   18.6587   35.5556 C   0  0  0  0  0  0  0  0  0  0  0  0
   -9.6460   17.7008   36.5402 C   0  0  0  0  0  0  0  0  0  0  0  0
   -9.7830   18.2329   34.2360 C   0  0  0  0  0  0  0  0  0  0  0  0
   -9.8037   16.3786   36.2515 C   0  0  0  0  0  0  0  0  0  0  0  0
   -9.9410   16.8990   33.9698 C   0  0  0  0  0  0  0  0  0  0  0  0
   -9.9603   15.9174   34.9495 C   0  0  0  0  0  0  0  0  0  0  0  0
   -8.0305   23.2208   34.1718 N   0  0  0  0  0  0  0  0  0  0  0  0
   -8.2583   23.3355   32.7381 C   0  0  2  0  0  0  0  0  0  0  0  0
   -9.2340   22.4055   32.2265 C   0  0  0  0  0  0  0  0  0  0  0  0
  -10.2756   22.2992   33.0001 O   0  0  0  0  0  0  0  0  0  0  0  0
   -6.8938   23.3757   32.1888 C   0  0  0  0  0  0  0  0  0  0  0  0
   -6.0676   23.9962   33.3379 C   0  0  0  0  0  0  0  0  0  0  0  0
   -7.1337   24.3895   34.3659 C   0  0  0  0  0  0  0  0  0  0  0  0
   -9.3070   21.6025   31.0900 N   0  0  0  0  0  0  0  0  0  0  0  0
   -8.3030   21.3385   30.0806 C   0  0  2  0  0  0  0  0  0  0  0  0
   -7.8071   22.5256   29.3721 C   0  0  0  0  0  0  0  0  0  0  0  0
   -8.6369   23.4526   29.0770 O   0  0  0  0  0  0  0  0  0  0  0  0
   -8.8242   20.3580   29.0327 C   0  0  0  0  0  0  0  0  0  0  0  0
   -7.7762   19.9215   28.0788 C   0  0  0  0  0  0  0  0  0  0  0  0
   -6.8295   20.8413   27.5905 O   0  0  0  0  0  0  0  0  0  0  0  0
   -7.7301   18.7431   27.7048 O   0  0  0  0  0  0  0  0  0  0  0  0
   -5.1258   22.7376   28.7009 O   0  0  0  0  0  0  0  0  0  0  0  0
   -2.5356   20.5742   22.0472 H   0  0  0  0  0  0  0  0  0  0  0  0
    0.3430    7.5718   30.5662 H   0  0  0  0  0  0  0  0  0  0  0  0
  1  2  1  0
  1103  1  0
  1109  1  0
  2  3  1  0
  2109  1  1
  3  4  2  0
  3  5  1  0
  5  6  1  0
  6  7  1  0
  6  9  1  6
  7  8  2  0
  7 16  1  0
  9 10  1  0
 10 11  1  0
 11 12  1  0
 12 13  1  0
 13 14  1  0
 13 15  2  0
 17 16  1  6
 17 18  1  0
 17 20  1  0
 18 19  2  0
 18 22  1  0
 20 21  1  0
 21 82  1  0
 23 22  1  6
 23 24  1  0
 23 26  1  0
 24 25  2  0
 24 29  1  0
 26 27  1  0
 26 28  1  1
 29 30  1  0
 30 31  1  0
 30 33  1  6
 31 32  2  0
 31 38  1  0
 33 34  1  0
 34 35  1  0
 35 36  1  0
 36 37  1  0
 38 39  1  0
 39 40  1  0
 39 42  1  1
 40 41  2  0
 40 44  1  0
 42 43  1  0
 44 45  1  0
 45 46  1  0
 45 48  1  1
 46 47  2  0
 46 55  1  0
 48 49  1  0
 49 50  1  0
 50 51  1  0
 51 52  1  0
 52 53  1  0
 52 54  2  0
 55 56  1  0
 55 61  1  0
 56 57  1  0
 56 59  1  1
 57 58  2  0
 57 62  1  0
 59 60  1  0
 60 61  1  0
 62 63  1  0
 62 68  1  0
 63 64  1  0
 63 66  1  1
 64 65  2  0
 64 69  1  0
 66 67  1  0
 67 68  1  0
 70 69  1  1
 70 71  1  0
 70 73  1  0
 71 72  2  0
 71 77  1  0
 73 74  1  0
 73 75  1  1
 74 76  1  0
 78 77  1  1
 78 79  1  0
 78 81  1  0
 79 80  2  0
 79 83  1  0
 81 82  1  0
 83 84  1  0
 84 85  1  0
 84 87  1  1
 85 86  2  0
 85 94  1  0
 87 88  1  0
 88 89  2  0
 88 90  1  0
 89 91  1  0
 90 92  2  0
 91 93  2  0
 92 93  1  0
 94 95  1  0
 94100  1  0
 95 96  1  0
 95 98  1  6
 96 97  2  0
 96101  1  0
 98 99  1  0
 99100  1  0
101102  1  0
102103  1  0
102105  1  6
103104  2  0
105106  1  0
106107  1  0
106108  2  0
 15110  1  0
 54111  1  0
M  CHG  1  37   1
M  END
$$$$
