
     RDKit          3D

111117  0  0  0  0  0  0  0  0999 V2000
   -1.9340    7.3037   37.6162 N   0  0  0  0  0  0  0  0  0  0  0  0
   -1.8324    7.4968   36.2068 C   0  0  2  0  0  0  0  0  0  0  0  0
   -2.6429    8.6076   35.6487 C   0  0  0  0  0  0  0  0  0  0  0  0
   -3.9005    8.5599   35.9670 O   0  0  0  0  0  0  0  0  0  0  0  0
   -2.1873    9.6660   34.8418 N   0  0  0  0  0  0  0  0  0  0  0  0
   -1.7093    9.6612   33.4737 C   0  0  2  0  0  0  0  0  0  0  0  0
   -2.8807   10.0253   32.5775 C   0  0  0  0  0  0  0  0  0  0  0  0
   -3.3162    9.0879   31.8378 O   0  0  0  0  0  0  0  0  0  0  0  0
   -1.0691    8.3940   33.0327 C   0  0  0  0  0  0  0  0  0  0  0  0
   -0.3755    7.6823   34.1551 C   0  0  0  0  0  0  0  0  0  0  0  0
   -0.4714    6.1718   34.0047 C   0  0  0  0  0  0  0  0  0  0  0  0
    0.5387    5.6358   33.1328 N   0  0  0  0  0  0  0  0  0  0  0  0
    1.0086    6.3237   31.9874 C   0  0  0  0  0  0  0  0  0  0  0  0
    2.4112    6.4766   31.7732 N   0  0  0  0  0  0  0  0  0  0  0  0
    0.1685    6.8013   31.1621 N   0  0  0  0  0  0  0  0  0  0  0  0
   -3.4960   11.2710   32.5106 N   0  0  0  0  0  0  0  0  0  0  0  0
   -2.9721   12.5921   32.3570 C   0  0  2  0  0  0  0  0  0  0  0  0
   -1.5485   12.6997   32.0189 C   0  0  0  0  0  0  0  0  0  0  0  0
   -0.8079   13.1618   32.9751 O   0  0  0  0  0  0  0  0  0  0  0  0
   -3.3863   13.5056   33.4966 C   0  0  0  0  0  0  0  0  0  0  0  0
   -2.2556   13.5708   34.8654 S   0  0  0  0  0  0  0  0  0  0  0  0
   -0.9296   12.3622   30.8001 N   0  0  0  0  0  0  0  0  0  0  0  0
   -1.1950   12.8655   29.4922 C   0  0  2  0  0  0  0  0  0  0  0  0
   -2.4902   12.4991   28.9099 C   0  0  0  0  0  0  0  0  0  0  0  0
   -3.0875   11.4287   29.2872 O   0  0  0  0  0  0  0  0  0  0  0  0
   -0.1398   12.3238   28.5311 C   0  0  2  0  0  0  0  0  0  0  0  0
   -0.3882   12.8161   27.2336 O   0  0  0  0  0  0  0  0  0  0  0  0
   -0.3767   10.8216   28.4255 C   0  0  0  0  0  0  0  0  0  0  0  0
   -3.1382   13.2707   27.9312 N   0  0  0  0  0  0  0  0  0  0  0  0
   -3.4714   14.6719   27.9757 C   0  0  2  0  0  0  0  0  0  0  0  0
   -4.9239   14.8931   27.7836 C   0  0  0  0  0  0  0  0  0  0  0  0
   -5.6198   14.3100   28.7029 O   0  0  0  0  0  0  0  0  0  0  0  0
   -2.6018   15.4543   27.0385 C   0  0  0  0  0  0  0  0  0  0  0  0
   -1.3712   15.9920   27.7382 C   0  0  0  0  0  0  0  0  0  0  0  0
   -0.6989   14.8158   28.4092 C   0  0  0  0  0  0  0  0  0  0  0  0
   -1.3546   13.4952   28.0987 C   0  0  0  0  0  0  0  0  0  0  0  0
   -0.5509   12.4230   28.6997 N   0  0  0  0  0  4  0  0  0  0  0  0
   -5.6037   15.5971   26.8085 N   0  0  0  0  0  0  0  0  0  0  0  0
   -5.5542   16.9837   26.4371 C   0  0  2  0  0  0  0  0  0  0  0  0
   -5.5846   17.9465   27.5557 C   0  0  0  0  0  0  0  0  0  0  0  0
   -4.6296   18.8034   27.6270 O   0  0  0  0  0  0  0  0  0  0  0  0
   -6.6117   17.2971   25.3776 C   0  0  0  0  0  0  0  0  0  0  0  0
   -7.7332   17.8181   25.9554 O   0  0  0  0  0  0  0  0  0  0  0  0
   -6.5508   18.0384   28.5733 N   0  0  0  0  0  0  0  0  0  0  0  0
   -7.9955   18.2522   28.3643 C   0  0  2  0  0  0  0  0  0  0  0  0
   -8.2973   19.6439   28.7843 C   0  0  0  0  0  0  0  0  0  0  0  0
   -8.2507   20.5101   27.8186 O   0  0  0  0  0  0  0  0  0  0  0  0
   -8.8283   17.2363   29.0680 C   0  0  0  0  0  0  0  0  0  0  0  0
   -8.4685   15.8585   28.6395 C   0  0  0  0  0  0  0  0  0  0  0  0
   -7.2180   15.8471   27.7497 C   0  0  0  0  0  0  0  0  0  0  0  0
   -6.5603   17.1348   27.7682 N   0  0  0  0  0  0  0  0  0  0  0  0
   -5.4651   17.3768   26.9104 C   0  0  0  0  0  0  0  0  0  0  0  0
   -5.6833   17.9159   25.6139 N   0  0  0  0  0  0  0  0  0  0  0  0
   -4.2489   17.1152   27.2798 N   0  0  0  0  0  0  0  0  0  0  0  0
   -8.6174   20.0986   30.0735 N   0  0  0  0  0  0  0  0  0  0  0  0
   -8.2727   19.5424   31.3491 C   0  0  2  0  0  0  0  0  0  0  0  0
   -9.4245   19.0891   32.1548 C   0  0  0  0  0  0  0  0  0  0  0  0
  -10.6077   19.0134   31.6556 O   0  0  0  0  0  0  0  0  0  0  0  0
   -7.6943   20.8192   32.0190 C   0  0  0  0  0  0  0  0  0  0  0  0
   -8.4715   21.9564   31.4097 C   0  0  0  0  0  0  0  0  0  0  0  0
   -9.3841   21.3123   30.4157 C   0  0  0  0  0  0  0  0  0  0  0  0
   -9.2545   18.7191   33.5240 N   0  0  0  0  0  0  0  0  0  0  0  0
   -8.2061   17.8405   34.0080 C   0  0  2  0  0  0  0  0  0  0  0  0
   -8.6354   16.4238   33.9897 C   0  0  0  0  0  0  0  0  0  0  0  0
   -9.7439   16.2855   33.2849 O   0  0  0  0  0  0  0  0  0  0  0  0
   -7.8182   18.4258   35.2976 C   0  0  0  0  0  0  0  0  0  0  0  0
   -8.8917   19.3668   35.6946 C   0  0  0  0  0  0  0  0  0  0  0  0
  -10.0268   19.0796   34.7066 C   0  0  0  0  0  0  0  0  0  0  0  0
   -8.1619   15.2585   34.5087 N   0  0  0  0  0  0  0  0  0  0  0  0
   -8.1827   14.5149   35.7429 C   0  0  2  0  0  0  0  0  0  0  0  0
   -7.8671   13.0659   35.5337 C   0  0  0  0  0  0  0  0  0  0  0  0
   -8.8975   12.3483   35.2751 O   0  0  0  0  0  0  0  0  0  0  0  0
   -9.4329   14.5482   36.5429 C   0  0  2  0  0  0  0  0  0  0  0  0
   -9.8577   13.2901   37.2195 C   0  0  0  0  0  0  0  0  0  0  0  0
  -10.6423   15.0814   35.8040 C   0  0  0  0  0  0  0  0  0  0  0  0
   -9.9339   12.1242   36.2443 C   0  0  0  0  0  0  0  0  0  0  0  0
   -6.6336   12.4262   35.5828 N   0  0  0  0  0  0  0  0  0  0  0  0
   -5.6598   12.4447   36.6909 C   0  0  2  0  0  0  0  0  0  0  0  0
   -6.2105   11.8933   37.9371 C   0  0  0  0  0  0  0  0  0  0  0  0
   -6.9197   10.8141   37.6858 O   0  0  0  0  0  0  0  0  0  0  0  0
   -4.9370   13.7372   36.7558 C   0  0  0  0  0  0  0  0  0  0  0  0
   -3.1130   13.5275   36.7722 S   0  0  0  0  0  0  0  0  0  0  0  0
   -6.1330   12.2703   39.2608 N   0  0  0  0  0  0  0  0  0  0  0  0
   -4.9795   12.5041   40.1150 C   0  0  2  0  0  0  0  0  0  0  0  0
   -5.1441   11.5144   41.2202 C   0  0  0  0  0  0  0  0  0  0  0  0
   -5.5614   11.9656   42.3312 O   0  0  0  0  0  0  0  0  0  0  0  0
   -4.9184   13.8957   40.6132 C   0  0  0  0  0  0  0  0  0  0  0  0
   -4.0906   14.8462   39.8800 C   0  0  0  0  0  0  0  0  0  0  0  0
   -3.2741   14.5011   38.8304 C   0  0  0  0  0  0  0  0  0  0  0  0
   -4.0773   16.1761   40.3002 C   0  0  0  0  0  0  0  0  0  0  0  0
   -2.4765   15.4164   38.2119 C   0  0  0  0  0  0  0  0  0  0  0  0
   -3.2683   17.0787   39.6630 C   0  0  0  0  0  0  0  0  0  0  0  0
   -2.4391   16.7505   38.6008 C   0  0  0  0  0  0  0  0  0  0  0  0
   -4.8927   10.1359   41.1654 N   0  0  0  0  0  0  0  0  0  0  0  0
   -3.6673    9.4520   40.7761 C   0  0  2  0  0  0  0  0  0  0  0  0
   -2.5543   10.3380   40.5420 C   0  0  0  0  0  0  0  0  0  0  0  0
   -2.4667   11.2769   41.4394 O   0  0  0  0  0  0  0  0  0  0  0  0
   -4.1251    8.5232   39.7306 C   0  0  0  0  0  0  0  0  0  0  0  0
   -5.5949    8.2480   40.1202 C   0  0  0  0  0  0  0  0  0  0  0  0
   -5.7391    8.9540   41.4726 C   0  0  0  0  0  0  0  0  0  0  0  0
   -1.5557   10.4069   39.5725 N   0  0  0  0  0  0  0  0  0  0  0  0
   -1.3999    9.6431   38.3524 C   0  0  2  0  0  0  0  0  0  0  0  0
   -1.3046    8.1892   38.5372 C   0  0  0  0  0  0  0  0  0  0  0  0
   -0.6493    7.7419   39.5400 O   0  0  0  0  0  0  0  0  0  0  0  0
   -0.1633   10.0934   37.5782 C   0  0  0  0  0  0  0  0  0  0  0  0
    0.1794    9.1840   36.4582 C   0  0  0  0  0  0  0  0  0  0  0  0
    1.0999    9.5843   35.4717 O   0  0  0  0  0  0  0  0  0  0  0  0
   -0.3456    8.0662   36.3843 O   0  0  0  0  0  0  0  0  0  0  0  0
   -2.5293    6.4662   36.7439 O   0  0  0  0  0  0  0  0  0  0  0  0
    0.4377    7.0635   30.2009 H   0  0  0  0  0  0  0  0  0  0  0  0
   -3.7778   17.6935   28.0004 H   0  0  0  0  0  0  0  0  0  0  0  0
  1  2  1  0
  1103  1  0
  1109  1  0
  2  3  1  0
  2109  1  6
  3  4  2  0
  3  5  1  0
  5  6  1  0
  6  7  1  0
  6  9  1  6
  7  8  2  0
  7 16  1  0
  9 10  1  0
 10 11  1  0
 11 12  1  0
 12 13  1  0
 13 14  1  0
 13 15  2  0
 17 16  1  1
 17 18  1  0
 17 20  1  0
 18 19  2  0
 18 22  1  0
 20 21  1  0
 21 82  1  0
 23 22  1  1
 23 24  1  0
 23 26  1  0
 24 25  2  0
 24 29  1  0
 26 27  1  0
 26 28  1  6
 29 30  1  0
 30 31  1  0
 30 33  1  6
 31 32  2  0
 31 38  1  0
 33 34  1  0
 34 35  1  0
 35 36  1  0
 36 37  1  0
 38 39  1  0
 39 40  1  0
 39 42  1  6
 40 41  2  0
 40 44  1  0
 42 43  1  0
 44 45  1  0
 45 46  1  0
 45 48  1  1
 46 47  2  0
 46 55  1  0
 48 49  1  0
 49 50  1  0
 50 51  1  0
 51 52  1  0
 52 53  1  0
 52 54  2  0
 55 56  1  0
 55 61  1  0
 56 57  1  0
 56 59  1  1
 57 58  2  0
 57 62  1  0
 59 60  1  0
 60 61  1  0
 62 63  1  0
 62 68  1  0
 63 64  1  0
 63 66  1  1
 64 65  2  0
 64 69  1  0
 66 67  1  0
 67 68  1  0
 70 69  1  6
 70 71  1  0
 70 73  1  0
 71 72  2  0
 71 77  1  0
 73 74  1  0
 73 75  1  6
 74 76  1  0
 78 77  1  6
 78 79  1  0
 78 81  1  0
 79 80  2  0
 79 83  1  0
 81 82  1  0
 83 84  1  0
 84 85  1  0
 84 87  1  1
 85 86  2  0
 85 94  1  0
 87 88  1  0
 88 89  2  0
 88 90  1  0
 89 91  1  0
 90 92  2  0
 91 93  2  0
 92 93  1  0
 94 95  1  0
 94100  1  0
 95 96  1  0
 95 98  1  6
 96 97  2  0
 96101  1  0
 98 99  1  0
 99100  1  0
101102  1  0
102103  1  0
102105  1  1
103104  2  0
105106  1  0
106107  1  0
106108  2  0
 15110  1  0
 54111  1  0
M  CHG  1  37   1
M  END
$$$$
