
     RDKit          3D

111117  0  0  0  0  0  0  0  0999 V2000
   -1.3768    8.9517   37.0535 N   0  0  0  0  0  0  0  0  0  0  0  0
   -1.9874    8.8765   35.7668 C   0  0  2  0  0  0  0  0  0  0  0  0
   -2.8322   10.0356   35.3859 C   0  0  0  0  0  0  0  0  0  0  0  0
   -3.7463   10.3361   36.2574 O   0  0  0  0  0  0  0  0  0  0  0  0
   -2.7319   10.8080   34.2146 N   0  0  0  0  0  0  0  0  0  0  0  0
   -3.0240   10.4626   32.8378 C   0  0  2  0  0  0  0  0  0  0  0  0
   -4.4366   10.9336   32.5367 C   0  0  0  0  0  0  0  0  0  0  0  0
   -5.2954   10.0129   32.3629 O   0  0  0  0  0  0  0  0  0  0  0  0
   -2.8528    9.0256   32.4971 C   0  0  0  0  0  0  0  0  0  0  0  0
   -2.0890    8.8266   31.2228 C   0  0  0  0  0  0  0  0  0  0  0  0
   -0.7596    9.5653   31.2454 C   0  0  0  0  0  0  0  0  0  0  0  0
    0.3251    8.7716   30.7340 N   0  0  0  0  0  0  0  0  0  0  0  0
    1.6838    9.1450   30.8765 C   0  0  0  0  0  0  0  0  0  0  0  0
    2.6003    8.9225   29.8054 N   0  0  0  0  0  0  0  0  0  0  0  0
    2.0713    9.6740   31.9650 N   0  0  0  0  0  0  0  0  0  0  0  0
   -4.8484   12.2590   32.4431 N   0  0  0  0  0  0  0  0  0  0  0  0
   -4.3255   13.3767   31.7217 C   0  0  2  0  0  0  0  0  0  0  0  0
   -3.2731   13.0918   30.7400 C   0  0  0  0  0  0  0  0  0  0  0  0
   -2.0996   13.5224   31.0776 O   0  0  0  0  0  0  0  0  0  0  0  0
   -3.9889   14.5395   32.6379 C   0  0  0  0  0  0  0  0  0  0  0  0
   -2.3191   14.5685   33.2442 S   0  0  0  0  0  0  0  0  0  0  0  0
   -3.4081   12.4198   29.5101 N   0  0  0  0  0  0  0  0  0  0  0  0
   -4.2429   12.7443   28.4002 C   0  0  2  0  0  0  0  0  0  0  0  0
   -5.6864   12.5970   28.6132 C   0  0  0  0  0  0  0  0  0  0  0  0
   -6.1282   11.7741   29.4920 O   0  0  0  0  0  0  0  0  0  0  0  0
   -3.8988   11.8184   27.2361 C   0  0  2  0  0  0  0  0  0  0  0  0
   -4.9113   10.8481   27.0914 O   0  0  0  0  0  0  0  0  0  0  0  0
   -2.6651   11.0284   27.6576 C   0  0  0  0  0  0  0  0  0  0  0  0
   -6.6475   13.3228   27.8902 N   0  0  0  0  0  0  0  0  0  0  0  0
   -6.7439   14.7501   27.7173 C   0  0  2  0  0  0  0  0  0  0  0  0
   -8.0532   15.2679   28.1793 C   0  0  0  0  0  0  0  0  0  0  0  0
   -8.2448   15.0256   29.4339 O   0  0  0  0  0  0  0  0  0  0  0  0
   -6.3900   15.1399   26.3138 C   0  0  0  0  0  0  0  0  0  0  0  0
   -5.6153   14.0453   25.6104 C   0  0  0  0  0  0  0  0  0  0  0  0
   -6.2531   13.8597   24.2522 C   0  0  0  0  0  0  0  0  0  0  0  0
   -6.5689   12.4218   23.9314 C   0  0  0  0  0  0  0  0  0  0  0  0
   -6.4816   12.2386   22.4769 N   0  0  0  0  0  4  0  0  0  0  0  0
   -9.0474   15.9369   27.4920 N   0  0  0  0  0  0  0  0  0  0  0  0
   -9.0320   17.1914   26.7926 C   0  0  2  0  0  0  0  0  0  0  0  0
   -8.3735   18.3084   27.4980 C   0  0  0  0  0  0  0  0  0  0  0  0
   -7.4230   18.9189   26.8854 O   0  0  0  0  0  0  0  0  0  0  0  0
  -10.4369   17.5599   26.3136 C   0  0  0  0  0  0  0  0  0  0  0  0
  -11.2815   17.7182   27.3742 O   0  0  0  0  0  0  0  0  0  0  0  0
   -8.6659   18.7921   28.7857 N   0  0  0  0  0  0  0  0  0  0  0  0
   -9.9779   19.2982   29.2317 C   0  0  2  0  0  0  0  0  0  0  0  0
   -9.8569   20.7720   29.3632 C   0  0  0  0  0  0  0  0  0  0  0  0
  -10.2086   21.4290   28.3003 O   0  0  0  0  0  0  0  0  0  0  0  0
  -10.4472   18.6370   30.4821 C   0  0  0  0  0  0  0  0  0  0  0  0
  -11.0007   17.2862   30.1987 C   0  0  0  0  0  0  0  0  0  0  0  0
  -11.7852   17.2574   28.8798 C   0  0  0  0  0  0  0  0  0  0  0  0
  -11.1440   18.0828   27.8804 N   0  0  0  0  0  0  0  0  0  0  0  0
  -11.7974   18.3376   26.6549 C   0  0  0  0  0  0  0  0  0  0  0  0
  -13.0378   17.7074   26.3663 N   0  0  0  0  0  0  0  0  0  0  0  0
  -11.2872   19.1420   25.7735 N   0  0  0  0  0  0  0  0  0  0  0  0
   -9.4176   21.4985   30.4816 N   0  0  0  0  0  0  0  0  0  0  0  0
   -8.5379   21.0996   31.5409 C   0  0  2  0  0  0  0  0  0  0  0  0
   -9.1607   21.0686   32.8798 C   0  0  0  0  0  0  0  0  0  0  0  0
  -10.4323   21.1878   33.0342 O   0  0  0  0  0  0  0  0  0  0  0  0
   -7.5532   22.3004   31.5000 C   0  0  0  0  0  0  0  0  0  0  0  0
   -8.3927   23.4685   31.0534 C   0  0  0  0  0  0  0  0  0  0  0  0
   -9.7533   22.8971   30.8124 C   0  0  0  0  0  0  0  0  0  0  0  0
   -8.3601   20.9044   34.0513 N   0  0  0  0  0  0  0  0  0  0  0  0
   -7.3232   19.8999   34.1973 C   0  0  2  0  0  0  0  0  0  0  0  0
   -7.8647   18.6396   34.7543 C   0  0  0  0  0  0  0  0  0  0  0  0
   -9.1850   18.6469   34.7167 O   0  0  0  0  0  0  0  0  0  0  0  0
   -6.2656   20.5866   34.9493 C   0  0  0  0  0  0  0  0  0  0  0  0
   -6.8664   21.8046   35.5417 C   0  0  0  0  0  0  0  0  0  0  0  0
   -8.3715   21.6280   35.3168 C   0  0  0  0  0  0  0  0  0  0  0  0
   -7.3333   17.5002   35.2747 N   0  0  0  0  0  0  0  0  0  0  0  0
   -6.8081   16.9999   36.5199 C   0  0  2  0  0  0  0  0  0  0  0  0
   -6.8164   15.5032   36.5746 C   0  0  0  0  0  0  0  0  0  0  0  0
   -7.9104   15.0123   37.0283 O   0  0  0  0  0  0  0  0  0  0  0  0
   -7.4604   17.4570   37.7727 C   0  0  2  0  0  0  0  0  0  0  0  0
   -8.8438   16.9772   38.0500 C   0  0  0  0  0  0  0  0  0  0  0  0
   -7.4664   18.9582   37.9709 C   0  0  0  0  0  0  0  0  0  0  0  0
   -9.6258   16.7402   36.7660 C   0  0  0  0  0  0  0  0  0  0  0  0
   -5.8159   14.6115   36.2044 N   0  0  0  0  0  0  0  0  0  0  0  0
   -4.4185   14.5885   36.6767 C   0  0  2  0  0  0  0  0  0  0  0  0
   -4.3158   14.3976   38.1304 C   0  0  0  0  0  0  0  0  0  0  0  0
   -5.1750   13.4868   38.5340 O   0  0  0  0  0  0  0  0  0  0  0  0
   -3.6179   15.6693   36.0536 C   0  0  0  0  0  0  0  0  0  0  0  0
   -2.0807   15.0465   35.2659 S   0  0  0  0  0  0  0  0  0  0  0  0
   -3.5294   14.9629   39.1115 N   0  0  0  0  0  0  0  0  0  0  0  0
   -2.0833   15.0616   39.2289 C   0  0  2  0  0  0  0  0  0  0  0  0
   -1.7753   14.3374   40.4972 C   0  0  0  0  0  0  0  0  0  0  0  0
   -1.5104   15.0532   41.5118 O   0  0  0  0  0  0  0  0  0  0  0  0
   -1.6134   16.4641   39.2560 C   0  0  0  0  0  0  0  0  0  0  0  0
   -1.6525   17.2200   38.0096 C   0  0  0  0  0  0  0  0  0  0  0  0
   -1.0211   18.4260   37.8246 C   0  0  0  0  0  0  0  0  0  0  0  0
   -2.4221   16.7242   36.9573 C   0  0  0  0  0  0  0  0  0  0  0  0
   -1.1327   19.1220   36.6587 C   0  0  0  0  0  0  0  0  0  0  0  0
   -2.5191   17.4406   35.7943 C   0  0  0  0  0  0  0  0  0  0  0  0
   -1.8879   18.6582   35.5876 C   0  0  0  0  0  0  0  0  0  0  0  0
   -1.7512   12.9491   40.6939 N   0  0  0  0  0  0  0  0  0  0  0  0
   -0.9868   11.9434   39.9693 C   0  0  2  0  0  0  0  0  0  0  0  0
   -0.0543   12.4938   39.0174 C   0  0  0  0  0  0  0  0  0  0  0  0
    0.5890   13.5234   39.4872 O   0  0  0  0  0  0  0  0  0  0  0  0
   -2.0198   10.9848   39.5459 C   0  0  0  0  0  0  0  0  0  0  0  0
   -3.1049   11.1287   40.6366 C   0  0  0  0  0  0  0  0  0  0  0  0
   -2.4541   12.0655   41.6598 C   0  0  0  0  0  0  0  0  0  0  0  0
    0.3092   12.1646   37.7131 N   0  0  0  0  0  0  0  0  0  0  0  0
   -0.2710   11.1919   36.8110 C   0  0  2  0  0  0  0  0  0  0  0  0
   -0.2663    9.8080   37.3028 C   0  0  0  0  0  0  0  0  0  0  0  0
    0.7514    9.3953   37.9578 O   0  0  0  0  0  0  0  0  0  0  0  0
    0.4397   11.2055   35.4597 C   0  0  0  0  0  0  0  0  0  0  0  0
    1.6571   10.3591   35.4393 C   0  0  0  0  0  0  0  0  0  0  0  0
    1.6309    9.0877   34.8364 O   0  0  0  0  0  0  0  0  0  0  0  0
    2.7046   10.7673   35.9557 O   0  0  0  0  0  0  0  0  0  0  0  0
   -2.4277    8.1416   36.8167 O   0  0  0  0  0  0  0  0  0  0  0  0
    3.0715    9.8155   32.1762 H   0  0  0  0  0  0  0  0  0  0  0  0
  -10.3790   18.9258   25.3216 H   0  0  0  0  0  0  0  0  0  0  0  0
  1  2  1  0
  1103  1  0
  1109  1  0
  2  3  1  0
  2109  1  1
  3  4  2  0
  3  5  1  0
  5  6  1  0
  6  7  1  0
  6  9  1  1
  7  8  2  0
  7 16  1  0
  9 10  1  0
 10 11  1  0
 11 12  1  0
 12 13  1  0
 13 14  1  0
 13 15  2  0
 17 16  1  1
 17 18  1  0
 17 20  1  0
 18 19  2  0
 18 22  1  0
 20 21  1  0
 21 82  1  0
 23 22  1  1
 23 24  1  0
 23 26  1  0
 24 25  2  0
 24 29  1  0
 26 27  1  0
 26 28  1  1
 29 30  1  0
 30 31  1  0
 30 33  1  6
 31 32  2  0
 31 38  1  0
 33 34  1  0
 34 35  1  0
 35 36  1  0
 36 37  1  0
 38 39  1  0
 39 40  1  0
 39 42  1  1
 40 41  2  0
 40 44  1  0
 42 43  1  0
 44 45  1  0
 45 46  1  0
 45 48  1  1
 46 47  2  0
 46 55  1  0
 48 49  1  0
 49 50  1  0
 50 51  1  0
 51 52  1  0
 52 53  1  0
 52 54  2  0
 55 56  1  0
 55 61  1  0
 56 57  1  0
 56 59  1  1
 57 58  2  0
 57 62  1  0
 59 60  1  0
 60 61  1  0
 62 63  1  0
 62 68  1  0
 63 64  1  0
 63 66  1  1
 64 65  2  0
 64 69  1  0
 66 67  1  0
 67 68  1  0
 70 69  1  6
 70 71  1  0
 70 73  1  0
 71 72  2  0
 71 77  1  0
 73 74  1  0
 73 75  1  6
 74 76  1  0
 78 77  1  1
 78 79  1  0
 78 81  1  0
 79 80  2  0
 79 83  1  0
 81 82  1  0
 83 84  1  0
 84 85  1  0
 84 87  1  1
 85 86  2  0
 85 94  1  0
 87 88  1  0
 88 89  2  0
 88 90  1  0
 89 91  1  0
 90 92  2  0
 91 93  2  0
 92 93  1  0
 94 95  1  0
 94100  1  0
 95 96  1  0
 95 98  1  6
 96 97  2  0
 96101  1  0
 98 99  1  0
 99100  1  0
101102  1  0
102103  1  0
102105  1  6
103104  2  0
105106  1  0
106107  1  0
106108  2  0
 15110  1  0
 54111  1  0
M  CHG  1  37   1
M  END
$$$$
