
     RDKit          3D

111117  0  0  0  0  0  0  0  0999 V2000
   -1.8398    8.2435   40.4234 N   0  0  0  0  0  0  0  0  0  0  0  0
   -1.8805    7.9120   39.0369 C   0  0  2  0  0  0  0  0  0  0  0  0
   -2.5261    8.9144   38.1534 C   0  0  0  0  0  0  0  0  0  0  0  0
   -3.7195    9.2624   38.5277 O   0  0  0  0  0  0  0  0  0  0  0  0
   -1.9807    9.4997   36.9964 N   0  0  0  0  0  0  0  0  0  0  0  0
   -1.6878    8.9175   35.7020 C   0  0  2  0  0  0  0  0  0  0  0  0
   -2.8704    9.2037   34.7924 C   0  0  0  0  0  0  0  0  0  0  0  0
   -3.5670    8.1921   34.4654 O   0  0  0  0  0  0  0  0  0  0  0  0
   -1.3632    7.4668   35.7208 C   0  0  0  0  0  0  0  0  0  0  0  0
   -2.3496    6.6699   36.5202 C   0  0  0  0  0  0  0  0  0  0  0  0
   -3.4680    6.1236   35.6460 C   0  0  0  0  0  0  0  0  0  0  0  0
   -4.5874    5.6452   36.4115 N   0  0  0  0  0  0  0  0  0  0  0  0
   -5.1303    4.3472   36.2493 C   0  0  0  0  0  0  0  0  0  0  0  0
   -4.4873    3.2250   36.8527 N   0  0  0  0  0  0  0  0  0  0  0  0
   -6.1882    4.1984   35.5612 N   0  0  0  0  0  0  0  0  0  0  0  0
   -3.2385   10.4545   34.3077 N   0  0  0  0  0  0  0  0  0  0  0  0
   -2.4942   11.4887   33.6599 C   0  0  2  0  0  0  0  0  0  0  0  0
   -1.1303   11.1514   33.2375 C   0  0  0  0  0  0  0  0  0  0  0  0
   -0.2008   11.7357   33.9239 O   0  0  0  0  0  0  0  0  0  0  0  0
   -2.5791   12.8066   34.4087 C   0  0  0  0  0  0  0  0  0  0  0  0
   -1.2944   13.0835   35.6042 S   0  0  0  0  0  0  0  0  0  0  0  0
   -0.7454   10.2856   32.1960 N   0  0  0  0  0  0  0  0  0  0  0  0
   -1.0711   10.3541   30.8092 C   0  0  2  0  0  0  0  0  0  0  0  0
   -2.4751   10.1099   30.4628 C   0  0  0  0  0  0  0  0  0  0  0  0
   -3.2147    9.3977   31.2312 O   0  0  0  0  0  0  0  0  0  0  0  0
   -0.2686    9.2929   30.0605 C   0  0  2  0  0  0  0  0  0  0  0  0
   -0.6975    9.2382   28.7186 O   0  0  0  0  0  0  0  0  0  0  0  0
   -0.6714    7.9458   30.6494 C   0  0  0  0  0  0  0  0  0  0  0  0
   -3.0804   10.6220   29.3032 N   0  0  0  0  0  0  0  0  0  0  0  0
   -3.1302   11.9897   28.8521 C   0  0  2  0  0  0  0  0  0  0  0  0
   -4.5256   12.4509   28.6631 C   0  0  0  0  0  0  0  0  0  0  0  0
   -5.1996   12.3915   29.7638 O   0  0  0  0  0  0  0  0  0  0  0  0
   -2.2510   12.1856   27.6540 C   0  0  0  0  0  0  0  0  0  0  0  0
   -0.8285   12.5158   28.0549 C   0  0  0  0  0  0  0  0  0  0  0  0
   -0.2748   11.2948   28.7536 C   0  0  0  0  0  0  0  0  0  0  0  0
    0.8700   11.6051   29.6826 C   0  0  0  0  0  0  0  0  0  0  0  0
    1.5032   10.3413   30.0807 N   0  0  0  0  0  4  0  0  0  0  0  0
   -5.1744   12.9097   27.5330 N   0  0  0  0  0  0  0  0  0  0  0  0
   -4.9065   14.0351   26.6817 C   0  0  2  0  0  0  0  0  0  0  0  0
   -4.6110   15.3046   27.3746 C   0  0  0  0  0  0  0  0  0  0  0  0
   -3.5080   15.8964   27.0838 O   0  0  0  0  0  0  0  0  0  0  0  0
   -6.0084   14.1934   25.6330 C   0  0  0  0  0  0  0  0  0  0  0  0
   -6.6425   15.3934   25.7777 O   0  0  0  0  0  0  0  0  0  0  0  0
   -5.4062   15.9551   28.3348 N   0  0  0  0  0  0  0  0  0  0  0  0
   -6.7976   16.4020   28.1323 C   0  0  2  0  0  0  0  0  0  0  0  0
   -6.7715   17.8831   28.0326 C   0  0  0  0  0  0  0  0  0  0  0  0
   -6.6808   18.3302   26.8173 O   0  0  0  0  0  0  0  0  0  0  0  0
   -7.7150   15.9045   29.1961 C   0  0  0  0  0  0  0  0  0  0  0  0
   -8.9978   15.4253   28.6164 C   0  0  0  0  0  0  0  0  0  0  0  0
   -9.2644   16.0414   27.2361 C   0  0  0  0  0  0  0  0  0  0  0  0
   -9.8543   17.3556   27.3633 N   0  0  0  0  0  0  0  0  0  0  0  0
   -9.7555   18.2762   26.2973 C   0  0  0  0  0  0  0  0  0  0  0  0
   -8.8204   18.0543   25.2507 N   0  0  0  0  0  0  0  0  0  0  0  0
  -10.5056   19.3342   26.2486 N   0  0  0  0  0  0  0  0  0  0  0  0
   -6.8341   18.8130   29.0827 N   0  0  0  0  0  0  0  0  0  0  0  0
   -6.4454   18.6675   30.4549 C   0  0  2  0  0  0  0  0  0  0  0  0
   -7.5526   18.7896   31.4248 C   0  0  0  0  0  0  0  0  0  0  0  0
   -8.7814   18.8140   31.0448 O   0  0  0  0  0  0  0  0  0  0  0  0
   -5.5534   19.9325   30.5869 C   0  0  0  0  0  0  0  0  0  0  0  0
   -6.1679   20.9340   29.6446 C   0  0  0  0  0  0  0  0  0  0  0  0
   -7.3045   20.2093   28.9975 C   0  0  0  0  0  0  0  0  0  0  0  0
   -7.2865   18.8852   32.8250 N   0  0  0  0  0  0  0  0  0  0  0  0
   -6.3740   18.0156   33.5437 C   0  0  2  0  0  0  0  0  0  0  0  0
   -7.0662   16.8137   34.0616 C   0  0  0  0  0  0  0  0  0  0  0  0
   -8.2601   16.6936   33.5095 O   0  0  0  0  0  0  0  0  0  0  0  0
   -5.7225   18.9059   34.5125 C   0  0  0  0  0  0  0  0  0  0  0  0
   -6.5369   20.1412   34.5922 C   0  0  0  0  0  0  0  0  0  0  0  0
   -7.8208   19.7939   33.8319 C   0  0  0  0  0  0  0  0  0  0  0  0
   -6.7640   15.8236   34.9447 N   0  0  0  0  0  0  0  0  0  0  0  0
   -6.7724   15.5750   36.3641 C   0  0  2  0  0  0  0  0  0  0  0  0
   -6.7695   14.1110   36.6802 C   0  0  0  0  0  0  0  0  0  0  0  0
   -7.9428   13.5987   36.7498 O   0  0  0  0  0  0  0  0  0  0  0  0
   -7.8825   16.1608   37.1568 C   0  0  2  0  0  0  0  0  0  0  0  0
   -8.8103   15.2231   37.8504 C   0  0  0  0  0  0  0  0  0  0  0  0
   -8.7417   17.1542   36.4032 C   0  0  0  0  0  0  0  0  0  0  0  0
   -9.8710   15.9677   38.6483 C   0  0  0  0  0  0  0  0  0  0  0  0
   -5.6856   13.2681   36.8986 N   0  0  0  0  0  0  0  0  0  0  0  0
   -4.5953   13.4479   37.8760 C   0  0  2  0  0  0  0  0  0  0  0  0
   -5.0809   13.4973   39.2623 C   0  0  0  0  0  0  0  0  0  0  0  0
   -6.0100   12.5860   39.4545 O   0  0  0  0  0  0  0  0  0  0  0  0
   -3.6354   14.4867   37.4323 C   0  0  0  0  0  0  0  0  0  0  0  0
   -1.8983   13.8922   37.4357 S   0  0  0  0  0  0  0  0  0  0  0  0
   -4.7671   14.2792   40.3536 N   0  0  0  0  0  0  0  0  0  0  0  0
   -3.4924   14.5277   41.0079 C   0  0  2  0  0  0  0  0  0  0  0  0
   -3.7041   14.0424   42.4035 C   0  0  0  0  0  0  0  0  0  0  0  0
   -3.8844   14.9296   43.2937 O   0  0  0  0  0  0  0  0  0  0  0  0
   -3.1033   15.9543   40.9634 C   0  0  0  0  0  0  0  0  0  0  0  0
   -3.6058   16.7634   39.8592 C   0  0  0  0  0  0  0  0  0  0  0  0
   -4.4810   16.3010   38.9066 C   0  0  0  0  0  0  0  0  0  0  0  0
   -3.1294   18.0672   39.7221 C   0  0  0  0  0  0  0  0  0  0  0  0
   -4.8792   17.0790   37.8613 C   0  0  0  0  0  0  0  0  0  0  0  0
   -3.5441   18.8310   38.6640 C   0  0  0  0  0  0  0  0  0  0  0  0
   -4.4283   18.3833   37.6936 C   0  0  0  0  0  0  0  0  0  0  0  0
   -3.7310   12.7103   42.8408 N   0  0  0  0  0  0  0  0  0  0  0  0
   -2.7184   11.6781   42.6676 C   0  0  2  0  0  0  0  0  0  0  0  0
   -1.4942   12.1559   42.0745 C   0  0  0  0  0  0  0  0  0  0  0  0
   -1.1161   13.3011   42.5645 O   0  0  0  0  0  0  0  0  0  0  0  0
   -3.4733   10.5741   42.0540 C   0  0  0  0  0  0  0  0  0  0  0  0
   -4.9080   10.7867   42.5874 C   0  0  0  0  0  0  0  0  0  0  0  0
   -4.7432   11.9281   43.5965 C   0  0  0  0  0  0  0  0  0  0  0  0
   -0.6305   11.6613   41.0992 N   0  0  0  0  0  0  0  0  0  0  0  0
   -0.7785   10.5101   40.2335 C   0  0  2  0  0  0  0  0  0  0  0  0
   -0.9418    9.2267   40.9286 C   0  0  0  0  0  0  0  0  0  0  0  0
   -0.2640    9.0170   41.9925 O   0  0  0  0  0  0  0  0  0  0  0  0
    0.4146   10.3771   39.2900 C   0  0  0  0  0  0  0  0  0  0  0  0
    0.0141   10.2376   37.8691 C   0  0  0  0  0  0  0  0  0  0  0  0
   -1.2740    9.7803   37.5336 O   0  0  0  0  0  0  0  0  0  0  0  0
    0.8137   10.5216   36.9688 O   0  0  0  0  0  0  0  0  0  0  0  0
   -2.6894    7.3132   39.9444 O   0  0  0  0  0  0  0  0  0  0  0  0
   -6.7306    3.3205   35.5787 H   0  0  0  0  0  0  0  0  0  0  0  0
  -10.6126   19.8679   25.3658 H   0  0  0  0  0  0  0  0  0  0  0  0
  1  2  1  0
  1103  1  0
  1109  1  0
  2  3  1  0
  2109  1  1
  3  4  2  0
  3  5  1  0
  5  6  1  0
  6  7  1  0
  6  9  1  1
  7  8  2  0
  7 16  1  0
  9 10  1  0
 10 11  1  0
 11 12  1  0
 12 13  1  0
 13 14  1  0
 13 15  2  0
 17 16  1  1
 17 18  1  0
 17 20  1  0
 18 19  2  0
 18 22  1  0
 20 21  1  0
 21 82  1  0
 23 22  1  1
 23 24  1  0
 23 26  1  0
 24 25  2  0
 24 29  1  0
 26 27  1  0
 26 28  1  1
 29 30  1  0
 30 31  1  0
 30 33  1  6
 31 32  2  0
 31 38  1  0
 33 34  1  0
 34 35  1  0
 35 36  1  0
 36 37  1  0
 38 39  1  0
 39 40  1  0
 39 42  1  6
 40 41  2  0
 40 44  1  0
 42 43  1  0
 44 45  1  0
 45 46  1  0
 45 48  1  1
 46 47  2  0
 46 55  1  0
 48 49  1  0
 49 50  1  0
 50 51  1  0
 51 52  1  0
 52 53  1  0
 52 54  2  0
 55 56  1  0
 55 61  1  0
 56 57  1  0
 56 59  1  1
 57 58  2  0
 57 62  1  0
 59 60  1  0
 60 61  1  0
 62 63  1  0
 62 68  1  0
 63 64  1  0
 63 66  1  1
 64 65  2  0
 64 69  1  0
 66 67  1  0
 67 68  1  0
 70 69  1  6
 70 71  1  0
 70 73  1  0
 71 72  2  0
 71 77  1  0
 73 74  1  0
 73 75  1  6
 74 76  1  0
 78 77  1  6
 78 79  1  0
 78 81  1  0
 79 80  2  0
 79 83  1  0
 81 82  1  0
 83 84  1  0
 84 85  1  0
 84 87  1  1
 85 86  2  0
 85 94  1  0
 87 88  1  0
 88 89  2  0
 88 90  1  0
 89 91  1  0
 90 92  2  0
 91 93  2  0
 92 93  1  0
 94 95  1  0
 94100  1  0
 95 96  1  0
 95 98  1  6
 96 97  2  0
 96101  1  0
 98 99  1  0
 99100  1  0
101102  1  0
102103  1  0
102105  1  6
103104  2  0
105106  1  0
106107  1  0
106108  2  0
 15110  1  0
 54111  1  0
M  CHG  1  37   1
M  END
$$$$
