
     RDKit          3D

111117  0  0  0  0  0  0  0  0999 V2000
   -4.0379    6.7212   38.3230 N   0  0  0  0  0  0  0  0  0  0  0  0
   -3.6742    6.8960   36.9551 C   0  0  2  0  0  0  0  0  0  0  0  0
   -4.1918    8.1243   36.3028 C   0  0  0  0  0  0  0  0  0  0  0  0
   -5.4759    8.2819   36.4097 O   0  0  0  0  0  0  0  0  0  0  0  0
   -3.4448    9.0948   35.6109 N   0  0  0  0  0  0  0  0  0  0  0  0
   -2.7534    9.0130   34.3399 C   0  0  2  0  0  0  0  0  0  0  0  0
   -3.6859    9.5636   33.2744 C   0  0  0  0  0  0  0  0  0  0  0  0
   -4.1374    8.7102   32.4479 O   0  0  0  0  0  0  0  0  0  0  0  0
   -2.2607    7.6587   33.9748 C   0  0  0  0  0  0  0  0  0  0  0  0
   -1.4539    7.6645   32.7114 C   0  0  0  0  0  0  0  0  0  0  0  0
   -0.0111    7.2561   32.9663 C   0  0  0  0  0  0  0  0  0  0  0  0
    0.8024    7.3247   31.7824 N   0  0  0  0  0  0  0  0  0  0  0  0
    2.0514    6.6665   31.6696 C   0  0  0  0  0  0  0  0  0  0  0  0
    3.0344    6.8226   32.6922 N   0  0  0  0  0  0  0  0  0  0  0  0
    2.2819    5.9433   30.6504 N   0  0  0  0  0  0  0  0  0  0  0  0
   -4.0735   10.8930   33.1422 N   0  0  0  0  0  0  0  0  0  0  0  0
   -3.3262   12.1111   33.1129 C   0  0  2  0  0  0  0  0  0  0  0  0
   -1.8677   11.9857   33.0154 C   0  0  0  0  0  0  0  0  0  0  0  0
   -1.2316   12.3203   34.0924 O   0  0  0  0  0  0  0  0  0  0  0  0
   -3.7717   13.0793   34.1941 C   0  0  0  0  0  0  0  0  0  0  0  0
   -2.8881   12.9586   35.7308 S   0  0  0  0  0  0  0  0  0  0  0  0
   -1.1174   11.5525   31.9055 N   0  0  0  0  0  0  0  0  0  0  0  0
   -1.0779   12.0932   30.5863 C   0  0  2  0  0  0  0  0  0  0  0  0
   -2.3002   11.9429   29.7900 C   0  0  0  0  0  0  0  0  0  0  0  0
   -3.1158   10.9840   30.0347 O   0  0  0  0  0  0  0  0  0  0  0  0
    0.0214   11.3873   29.7961 C   0  0  2  0  0  0  0  0  0  0  0  0
   -0.1647   11.6220   28.4185 O   0  0  0  0  0  0  0  0  0  0  0  0
   -0.2115    9.8906   29.9672 C   0  0  0  0  0  0  0  0  0  0  0  0
   -2.6444   12.8104   28.7401 N   0  0  0  0  0  0  0  0  0  0  0  0
   -2.7511   14.2472   28.7682 C   0  0  2  0  0  0  0  0  0  0  0  0
   -4.0969   14.7022   28.3471 C   0  0  0  0  0  0  0  0  0  0  0  0
   -5.0202   14.2397   29.1237 O   0  0  0  0  0  0  0  0  0  0  0  0
   -1.6238   14.8780   28.0078 C   0  0  0  0  0  0  0  0  0  0  0  0
   -1.7563   14.6424   26.5178 C   0  0  0  0  0  0  0  0  0  0  0  0
   -2.8943   13.6654   26.3275 C   0  0  0  0  0  0  0  0  0  0  0  0
   -3.7785   13.9986   25.1539 C   0  0  0  0  0  0  0  0  0  0  0  0
   -5.0464   14.5367   25.6634 N   0  0  0  0  0  4  0  0  0  0  0  0
   -4.4835   15.5081   27.2937 N   0  0  0  0  0  0  0  0  0  0  0  0
   -4.1511   16.8683   26.9739 C   0  0  2  0  0  0  0  0  0  0  0  0
   -4.2117   17.8225   28.0986 C   0  0  0  0  0  0  0  0  0  0  0  0
   -3.1568   18.5124   28.3488 O   0  0  0  0  0  0  0  0  0  0  0  0
   -4.9538   17.3504   25.7647 C   0  0  0  0  0  0  0  0  0  0  0  0
   -4.7917   18.6935   25.5831 O   0  0  0  0  0  0  0  0  0  0  0  0
   -5.3059   18.0700   28.9465 N   0  0  0  0  0  0  0  0  0  0  0  0
   -6.6426   18.5164   28.5099 C   0  0  2  0  0  0  0  0  0  0  0  0
   -6.7824   19.9384   28.9131 C   0  0  0  0  0  0  0  0  0  0  0  0
   -6.4378   20.7860   27.9924 O   0  0  0  0  0  0  0  0  0  0  0  0
   -7.7328   17.6493   29.0395 C   0  0  0  0  0  0  0  0  0  0  0  0
   -8.9591   17.7611   28.2059 C   0  0  0  0  0  0  0  0  0  0  0  0
   -8.7082   18.5764   26.9300 C   0  0  0  0  0  0  0  0  0  0  0  0
   -7.3133   18.9405   26.8169 N   0  0  0  0  0  0  0  0  0  0  0  0
   -6.8944   19.8048   25.7818 C   0  0  0  0  0  0  0  0  0  0  0  0
   -6.2384   19.2772   24.6371 N   0  0  0  0  0  0  0  0  0  0  0  0
   -7.0946   21.0852   25.8505 N   0  0  0  0  0  0  0  0  0  0  0  0
   -7.2348   20.4384   30.1447 N   0  0  0  0  0  0  0  0  0  0  0  0
   -7.2004   19.8328   31.4436 C   0  0  2  0  0  0  0  0  0  0  0  0
   -8.5276   19.5726   32.0371 C   0  0  0  0  0  0  0  0  0  0  0  0
   -9.6081   19.6910   31.3492 O   0  0  0  0  0  0  0  0  0  0  0  0
   -6.5439   20.9978   32.2342 C   0  0  0  0  0  0  0  0  0  0  0  0
   -7.0164   22.2469   31.5375 C   0  0  0  0  0  0  0  0  0  0  0  0
   -7.8428   21.7606   30.3902 C   0  0  0  0  0  0  0  0  0  0  0  0
   -8.6488   19.1791   33.4050 N   0  0  0  0  0  0  0  0  0  0  0  0
   -7.8501   18.1411   34.0296 C   0  0  2  0  0  0  0  0  0  0  0  0
   -8.4922   16.8133   33.9021 C   0  0  0  0  0  0  0  0  0  0  0  0
   -9.4760   16.8578   33.0219 O   0  0  0  0  0  0  0  0  0  0  0  0
   -7.5927   18.6546   35.3808 C   0  0  0  0  0  0  0  0  0  0  0  0
   -8.5520   19.7577   35.6228 C   0  0  0  0  0  0  0  0  0  0  0  0
   -9.5386   19.6599   34.4548 C   0  0  0  0  0  0  0  0  0  0  0  0
   -8.3047   15.5861   34.4593 N   0  0  0  0  0  0  0  0  0  0  0  0
   -8.6492   14.8551   35.6524 C   0  0  2  0  0  0  0  0  0  0  0  0
   -8.5400   13.3742   35.4577 C   0  0  0  0  0  0  0  0  0  0  0  0
   -9.6149   12.8341   35.0143 O   0  0  0  0  0  0  0  0  0  0  0  0
   -9.9930   15.0911   36.2376 C   0  0  2  0  0  0  0  0  0  0  0  0
  -10.1233   15.0360   37.7212 C   0  0  0  0  0  0  0  0  0  0  0  0
  -11.0931   14.2219   35.6657 C   0  0  0  0  0  0  0  0  0  0  0  0
   -8.8353   15.4540   38.4157 C   0  0  0  0  0  0  0  0  0  0  0  0
   -7.4507   12.5420   35.6903 N   0  0  0  0  0  0  0  0  0  0  0  0
   -6.6841   12.4010   36.9429 C   0  0  2  0  0  0  0  0  0  0  0  0
   -7.5152   11.9459   38.0664 C   0  0  0  0  0  0  0  0  0  0  0  0
   -8.3369   10.9969   37.6728 O   0  0  0  0  0  0  0  0  0  0  0  0
   -5.7841   13.5584   37.1608 C   0  0  0  0  0  0  0  0  0  0  0  0
   -4.0458   13.0543   37.4697 S   0  0  0  0  0  0  0  0  0  0  0  0
   -7.5989   12.3045   39.3949 N   0  0  0  0  0  0  0  0  0  0  0  0
   -6.5808   12.3467   40.4324 C   0  0  2  0  0  0  0  0  0  0  0  0
   -7.0833   11.3964   41.4681 C   0  0  0  0  0  0  0  0  0  0  0  0
   -7.6013   11.9089   42.5078 O   0  0  0  0  0  0  0  0  0  0  0  0
   -6.3807   13.7095   40.9722 C   0  0  0  0  0  0  0  0  0  0  0  0
   -6.4041   14.8246   40.0328 C   0  0  0  0  0  0  0  0  0  0  0  0
   -6.5281   16.1403   40.4082 C   0  0  0  0  0  0  0  0  0  0  0  0
   -6.3566   14.5427   38.6677 C   0  0  0  0  0  0  0  0  0  0  0  0
   -6.6009   17.1439   39.4895 C   0  0  0  0  0  0  0  0  0  0  0  0
   -6.4305   15.5676   37.7625 C   0  0  0  0  0  0  0  0  0  0  0  0
   -6.5537   16.9017   38.1214 C   0  0  0  0  0  0  0  0  0  0  0  0
   -7.0509    9.9954   41.4171 N   0  0  0  0  0  0  0  0  0  0  0  0
   -5.9039    9.1213   41.2148 C   0  0  2  0  0  0  0  0  0  0  0  0
   -4.6398    9.8142   41.1906 C   0  0  0  0  0  0  0  0  0  0  0  0
   -4.5527   10.7258   42.1158 O   0  0  0  0  0  0  0  0  0  0  0  0
   -6.3249    8.2800   40.0832 C   0  0  0  0  0  0  0  0  0  0  0  0
   -7.8638    8.2477   40.2194 C   0  0  0  0  0  0  0  0  0  0  0  0
   -8.1152    8.9670   41.5489 C   0  0  0  0  0  0  0  0  0  0  0  0
   -3.4963    9.7201   40.3999 N   0  0  0  0  0  0  0  0  0  0  0  0
   -3.2648    8.9418   39.2010 C   0  0  2  0  0  0  0  0  0  0  0  0
   -3.4362    7.4918   39.3587 C   0  0  0  0  0  0  0  0  0  0  0  0
   -3.0368    6.9431   40.4425 O   0  0  0  0  0  0  0  0  0  0  0  0
   -1.8609    9.1851   38.6524 C   0  0  0  0  0  0  0  0  0  0  0  0
   -0.8971    8.1281   39.0434 C   0  0  0  0  0  0  0  0  0  0  0  0
    0.4460    8.4524   39.3110 O   0  0  0  0  0  0  0  0  0  0  0  0
   -1.2701    6.9521   39.1345 O   0  0  0  0  0  0  0  0  0  0  0  0
   -4.6069    5.9923   37.3423 O   0  0  0  0  0  0  0  0  0  0  0  0
    3.0551    5.2599   30.6309 H   0  0  0  0  0  0  0  0  0  0  0  0
   -7.2756   21.6401   24.9931 H   0  0  0  0  0  0  0  0  0  0  0  0
  1  2  1  0
  1103  1  0
  1109  1  0
  2  3  1  0
  2109  1  6
  3  4  2  0
  3  5  1  0
  5  6  1  0
  6  7  1  0
  6  9  1  6
  7  8  2  0
  7 16  1  0
  9 10  1  0
 10 11  1  0
 11 12  1  0
 12 13  1  0
 13 14  1  0
 13 15  2  0
 17 16  1  1
 17 18  1  0
 17 20  1  0
 18 19  2  0
 18 22  1  0
 20 21  1  0
 21 82  1  0
 23 22  1  1
 23 24  1  0
 23 26  1  0
 24 25  2  0
 24 29  1  0
 26 27  1  0
 26 28  1  6
 29 30  1  0
 30 31  1  0
 30 33  1  6
 31 32  2  0
 31 38  1  0
 33 34  1  0
 34 35  1  0
 35 36  1  0
 36 37  1  0
 38 39  1  0
 39 40  1  0
 39 42  1  6
 40 41  2  0
 40 44  1  0
 42 43  1  0
 44 45  1  0
 45 46  1  0
 45 48  1  1
 46 47  2  0
 46 55  1  0
 48 49  1  0
 49 50  1  0
 50 51  1  0
 51 52  1  0
 52 53  1  0
 52 54  2  0
 55 56  1  0
 55 61  1  0
 56 57  1  0
 56 59  1  1
 57 58  2  0
 57 62  1  0
 59 60  1  0
 60 61  1  0
 62 63  1  0
 62 68  1  0
 63 64  1  0
 63 66  1  1
 64 65  2  0
 64 69  1  0
 66 67  1  0
 67 68  1  0
 70 69  1  6
 70 71  1  0
 70 73  1  0
 71 72  2  0
 71 77  1  0
 73 74  1  0
 73 75  1  6
 74 76  1  0
 78 77  1  6
 78 79  1  0
 78 81  1  0
 79 80  2  0
 79 83  1  0
 81 82  1  0
 83 84  1  0
 84 85  1  0
 84 87  1  1
 85 86  2  0
 85 94  1  0
 87 88  1  0
 88 89  2  0
 88 90  1  0
 89 91  1  0
 90 92  2  0
 91 93  2  0
 92 93  1  0
 94 95  1  0
 94100  1  0
 95 96  1  0
 95 98  1  6
 96 97  2  0
 96101  1  0
 98 99  1  0
 99100  1  0
101102  1  0
102103  1  0
102105  1  1
103104  2  0
105106  1  0
106107  1  0
106108  2  0
 15110  1  0
 54111  1  0
M  CHG  1  37   1
M  END
$$$$
