
     RDKit          3D

111117  0  0  0  0  0  0  0  0999 V2000
   -5.1428    6.8913   37.3550 N   0  0  0  0  0  0  0  0  0  0  0  0
   -4.1507    7.4604   36.5032 C   0  0  2  0  0  0  0  0  0  0  0  0
   -4.5636    8.6727   35.7534 C   0  0  0  0  0  0  0  0  0  0  0  0
   -5.6577    8.5278   35.0699 O   0  0  0  0  0  0  0  0  0  0  0  0
   -3.9040    9.9147   35.7222 N   0  0  0  0  0  0  0  0  0  0  0  0
   -2.6350   10.2859   35.1288 C   0  0  2  0  0  0  0  0  0  0  0  0
   -2.9238   10.8675   33.7554 C   0  0  0  0  0  0  0  0  0  0  0  0
   -2.5410   10.1615   32.7703 O   0  0  0  0  0  0  0  0  0  0  0  0
   -1.6312    9.1922   35.0489 C   0  0  0  0  0  0  0  0  0  0  0  0
   -0.5185    9.5054   34.0944 C   0  0  0  0  0  0  0  0  0  0  0  0
    0.0426    8.2444   33.4551 C   0  0  0  0  0  0  0  0  0  0  0  0
    0.4928    7.2834   34.4256 N   0  0  0  0  0  0  0  0  0  0  0  0
    1.7441    6.6265   34.3328 C   0  0  0  0  0  0  0  0  0  0  0  0
    2.3041    5.9940   35.4830 N   0  0  0  0  0  0  0  0  0  0  0  0
    2.3565    6.6120   33.2194 N   0  0  0  0  0  0  0  0  0  0  0  0
   -3.5602   12.0784   33.5034 N   0  0  0  0  0  0  0  0  0  0  0  0
   -3.3492   13.3969   34.0138 C   0  0  2  0  0  0  0  0  0  0  0  0
   -2.1366   13.6066   34.8126 C   0  0  0  0  0  0  0  0  0  0  0  0
   -2.3569   13.7995   36.0738 O   0  0  0  0  0  0  0  0  0  0  0  0
   -4.5986   13.9630   34.6644 C   0  0  0  0  0  0  0  0  0  0  0  0
   -4.7455   13.6660   36.4099 S   0  0  0  0  0  0  0  0  0  0  0  0
   -0.8036   13.6184   34.3594 N   0  0  0  0  0  0  0  0  0  0  0  0
   -0.2011   14.4548   33.3737 C   0  0  2  0  0  0  0  0  0  0  0  0
   -0.6453   14.2470   31.9916 C   0  0  0  0  0  0  0  0  0  0  0  0
   -1.1102   13.1085   31.6276 O   0  0  0  0  0  0  0  0  0  0  0  0
    1.3049   14.2047   33.3675 C   0  0  2  0  0  0  0  0  0  0  0  0
    1.9095   14.9971   32.3704 O   0  0  0  0  0  0  0  0  0  0  0  0
    1.5064   12.7696   32.8944 C   0  0  0  0  0  0  0  0  0  0  0  0
   -0.5899   15.2485   31.0081 N   0  0  0  0  0  0  0  0  0  0  0  0
   -1.1342   16.5817   31.0606 C   0  0  2  0  0  0  0  0  0  0  0  0
   -2.0719   16.8321   29.9409 C   0  0  0  0  0  0  0  0  0  0  0  0
   -3.0721   16.0146   29.9659 O   0  0  0  0  0  0  0  0  0  0  0  0
   -0.0389   17.5977   31.1832 C   0  0  0  0  0  0  0  0  0  0  0  0
    1.2290   17.1354   30.4963 C   0  0  0  0  0  0  0  0  0  0  0  0
    0.8078   16.4223   29.2315 C   0  0  0  0  0  0  0  0  0  0  0  0
    1.0364   17.2341   27.9829 C   0  0  0  0  0  0  0  0  0  0  0  0
    0.1049   18.3695   27.9880 N   0  0  0  0  0  4  0  0  0  0  0  0
   -2.0280   17.7672   28.9249 N   0  0  0  0  0  0  0  0  0  0  0  0
   -2.0164   19.2030   28.9629 C   0  0  2  0  0  0  0  0  0  0  0  0
   -2.9906   19.8260   29.8804 C   0  0  0  0  0  0  0  0  0  0  0  0
   -2.5362   20.6411   30.7639 O   0  0  0  0  0  0  0  0  0  0  0  0
   -2.1036   19.7813   27.5497 C   0  0  0  0  0  0  0  0  0  0  0  0
   -3.0455   20.7674   27.4898 O   0  0  0  0  0  0  0  0  0  0  0  0
   -4.3828   19.6288   29.9051 N   0  0  0  0  0  0  0  0  0  0  0  0
   -5.3020   19.8768   28.7781 C   0  0  2  0  0  0  0  0  0  0  0  0
   -6.0776   21.0993   29.1067 C   0  0  0  0  0  0  0  0  0  0  0  0
   -5.5601   22.1953   28.6421 O   0  0  0  0  0  0  0  0  0  0  0  0
   -6.1659   18.6998   28.4795 C   0  0  0  0  0  0  0  0  0  0  0  0
   -5.7453   18.0324   27.2189 C   0  0  0  0  0  0  0  0  0  0  0  0
   -5.0782   19.0168   26.2485 C   0  0  0  0  0  0  0  0  0  0  0  0
   -4.2407   18.3175   25.2995 N   0  0  0  0  0  0  0  0  0  0  0  0
   -3.6918   19.0135   24.2003 C   0  0  0  0  0  0  0  0  0  0  0  0
   -4.5384   19.4744   23.1563 N   0  0  0  0  0  0  0  0  0  0  0  0
   -2.4176   19.2450   24.1173 N   0  0  0  0  0  0  0  0  0  0  0  0
   -7.2711   21.1841   29.8414 N   0  0  0  0  0  0  0  0  0  0  0  0
   -7.7853   20.3064   30.8516 C   0  0  2  0  0  0  0  0  0  0  0  0
   -9.0555   19.6400   30.5000 C   0  0  0  0  0  0  0  0  0  0  0  0
   -9.5353   19.6906   29.3074 O   0  0  0  0  0  0  0  0  0  0  0  0
   -8.0874   21.3594   31.9530 C   0  0  0  0  0  0  0  0  0  0  0  0
   -8.4473   22.6114   31.1970 C   0  0  0  0  0  0  0  0  0  0  0  0
   -8.2864   22.2517   29.7546 C   0  0  0  0  0  0  0  0  0  0  0  0
   -9.7937   18.9143   31.4844 N   0  0  0  0  0  0  0  0  0  0  0  0
   -9.2087   17.9480   32.3952 C   0  0  2  0  0  0  0  0  0  0  0  0
   -9.2170   16.5851   31.8171 C   0  0  0  0  0  0  0  0  0  0  0  0
   -9.4917   16.6319   30.5260 O   0  0  0  0  0  0  0  0  0  0  0  0
   -9.9292   18.1655   33.6559 C   0  0  0  0  0  0  0  0  0  0  0  0
  -11.1437   18.9528   33.3388 C   0  0  0  0  0  0  0  0  0  0  0  0
  -11.2148   18.9329   31.8085 C   0  0  0  0  0  0  0  0  0  0  0  0
   -9.0042   15.3275   32.2913 N   0  0  0  0  0  0  0  0  0  0  0  0
   -9.7107   14.2770   32.9796 C   0  0  2  0  0  0  0  0  0  0  0  0
   -9.0572   12.9423   32.7938 C   0  0  0  0  0  0  0  0  0  0  0  0
   -9.4652   12.3113   31.7550 O   0  0  0  0  0  0  0  0  0  0  0  0
  -11.1433   14.0795   32.6441 C   0  0  2  0  0  0  0  0  0  0  0  0
  -11.5592   14.2850   31.2278 C   0  0  0  0  0  0  0  0  0  0  0  0
  -12.1086   14.8662   33.5057 C   0  0  0  0  0  0  0  0  0  0  0  0
  -10.3918   14.7245   30.3561 C   0  0  0  0  0  0  0  0  0  0  0  0
   -8.0934   12.3256   33.5837 N   0  0  0  0  0  0  0  0  0  0  0  0
   -8.1643   12.0528   35.0318 C   0  0  2  0  0  0  0  0  0  0  0  0
   -9.2908   11.1786   35.3881 C   0  0  0  0  0  0  0  0  0  0  0  0
   -9.4052   10.2010   34.5153 O   0  0  0  0  0  0  0  0  0  0  0  0
   -7.9560   13.2865   35.8267 C   0  0  0  0  0  0  0  0  0  0  0  0
   -6.6391   13.0986   37.0922 S   0  0  0  0  0  0  0  0  0  0  0  0
  -10.2120   11.1833   36.4138 N   0  0  0  0  0  0  0  0  0  0  0  0
  -10.0262   11.1884   37.8561 C   0  0  2  0  0  0  0  0  0  0  0  0
  -10.6973    9.9345   38.3094 C   0  0  0  0  0  0  0  0  0  0  0  0
  -11.8375   10.0633   38.8530 O   0  0  0  0  0  0  0  0  0  0  0  0
  -10.5992   12.3933   38.4952 C   0  0  0  0  0  0  0  0  0  0  0  0
   -9.6988   13.2587   39.2480 C   0  0  0  0  0  0  0  0  0  0  0  0
   -8.3827   12.9588   39.5030 C   0  0  0  0  0  0  0  0  0  0  0  0
  -10.2122   14.4350   39.7942 C   0  0  0  0  0  0  0  0  0  0  0  0
   -7.5954   13.7741   40.2592 C   0  0  0  0  0  0  0  0  0  0  0  0
   -9.4021   15.2395   40.5502 C   0  0  0  0  0  0  0  0  0  0  0  0
   -8.0710   14.9553   40.8171 C   0  0  0  0  0  0  0  0  0  0  0  0
  -10.2083    8.6251   38.1961 N   0  0  0  0  0  0  0  0  0  0  0  0
   -8.9431    8.0848   38.6736 C   0  0  2  0  0  0  0  0  0  0  0  0
   -8.1752    9.0122   39.4667 C   0  0  0  0  0  0  0  0  0  0  0  0
   -8.9110    9.6734   40.3128 O   0  0  0  0  0  0  0  0  0  0  0  0
   -8.3696    7.4697   37.4661 C   0  0  0  0  0  0  0  0  0  0  0  0
   -9.6165    7.0843   36.6387 C   0  0  0  0  0  0  0  0  0  0  0  0
  -10.7789    7.3957   37.5873 C   0  0  0  0  0  0  0  0  0  0  0  0
   -6.8250    9.3514   39.5272 N   0  0  0  0  0  0  0  0  0  0  0  0
   -5.7328    8.9487   38.6662 C   0  0  2  0  0  0  0  0  0  0  0  0
   -5.5020    7.5002   38.5915 C   0  0  0  0  0  0  0  0  0  0  0  0
   -5.6331    6.8044   39.6563 O   0  0  0  0  0  0  0  0  0  0  0  0
   -4.4236    9.6045   39.0988 C   0  0  0  0  0  0  0  0  0  0  0  0
   -3.2879    8.6521   39.1427 C   0  0  0  0  0  0  0  0  0  0  0  0
   -3.3775    7.4061   38.4945 O   0  0  0  0  0  0  0  0  0  0  0  0
   -2.2534    8.9485   39.7530 O   0  0  0  0  0  0  0  0  0  0  0  0
   -4.8024    6.3157   36.1847 O   0  0  0  0  0  0  0  0  0  0  0  0
    2.2044    5.8651   32.5237 H   0  0  0  0  0  0  0  0  0  0  0  0
   -2.0620   20.0771   23.6106 H   0  0  0  0  0  0  0  0  0  0  0  0
  1  2  1  0
  1103  1  0
  1109  1  0
  2  3  1  0
  2109  1  6
  3  4  2  0
  3  5  1  0
  5  6  1  0
  6  7  1  0
  6  9  1  6
  7  8  2  0
  7 16  1  0
  9 10  1  0
 10 11  1  0
 11 12  1  0
 12 13  1  0
 13 14  1  0
 13 15  2  0
 17 16  1  1
 17 18  1  0
 17 20  1  0
 18 19  2  0
 18 22  1  0
 20 21  1  0
 21 82  1  0
 23 22  1  1
 23 24  1  0
 23 26  1  0
 24 25  2  0
 24 29  1  0
 26 27  1  0
 26 28  1  6
 29 30  1  0
 30 31  1  0
 30 33  1  6
 31 32  2  0
 31 38  1  0
 33 34  1  0
 34 35  1  0
 35 36  1  0
 36 37  1  0
 38 39  1  0
 39 40  1  0
 39 42  1  6
 40 41  2  0
 40 44  1  0
 42 43  1  0
 44 45  1  0
 45 46  1  0
 45 48  1  1
 46 47  2  0
 46 55  1  0
 48 49  1  0
 49 50  1  0
 50 51  1  0
 51 52  1  0
 52 53  1  0
 52 54  2  0
 55 56  1  0
 55 61  1  0
 56 57  1  0
 56 59  1  1
 57 58  2  0
 57 62  1  0
 59 60  1  0
 60 61  1  0
 62 63  1  0
 62 68  1  0
 63 64  1  0
 63 66  1  1
 64 65  2  0
 64 69  1  0
 66 67  1  0
 67 68  1  0
 70 69  1  6
 70 71  1  0
 70 73  1  0
 71 72  2  0
 71 77  1  0
 73 74  1  0
 73 75  1  1
 74 76  1  0
 78 77  1  6
 78 79  1  0
 78 81  1  0
 79 80  2  0
 79 83  1  0
 81 82  1  0
 83 84  1  0
 84 85  1  0
 84 87  1  1
 85 86  2  0
 85 94  1  0
 87 88  1  0
 88 89  2  0
 88 90  1  0
 89 91  1  0
 90 92  2  0
 91 93  2  0
 92 93  1  0
 94 95  1  0
 94100  1  0
 95 96  1  0
 95 98  1  6
 96 97  2  0
 96101  1  0
 98 99  1  0
 99100  1  0
101102  1  0
102103  1  0
102105  1  1
103104  2  0
105106  1  0
106107  1  0
106108  2  0
 15110  1  0
 54111  1  0
M  CHG  1  37   1
M  END
$$$$
