
     RDKit          3D

111117  0  0  0  0  0  0  0  0999 V2000
   -1.1458   21.8363   32.9511 N   0  0  0  0  0  0  0  0  0  0  0  0
   -0.8351   20.7356   32.0991 C   0  0  2  0  0  0  0  0  0  0  0  0
   -1.4491   19.4375   32.4736 C   0  0  0  0  0  0  0  0  0  0  0  0
   -1.2293   19.0806   33.7023 O   0  0  0  0  0  0  0  0  0  0  0  0
   -2.2194   18.5963   31.6505 N   0  0  0  0  0  0  0  0  0  0  0  0
   -1.8321   17.7970   30.5054 C   0  0  2  0  0  0  0  0  0  0  0  0
   -1.5658   16.3856   31.0004 C   0  0  0  0  0  0  0  0  0  0  0  0
   -0.3512   16.0132   30.9654 O   0  0  0  0  0  0  0  0  0  0  0  0
   -0.6767   18.3215   29.7307 C   0  0  0  0  0  0  0  0  0  0  0  0
    0.5983   18.2993   30.5188 C   0  0  0  0  0  0  0  0  0  0  0  0
    0.9369   16.8955   30.9967 C   0  0  0  0  0  0  0  0  0  0  0  0
    2.1562   16.8475   31.7576 N   0  0  0  0  0  0  0  0  0  0  0  0
    2.7895   15.6329   32.1177 C   0  0  0  0  0  0  0  0  0  0  0  0
    2.9224   15.2791   33.4939 N   0  0  0  0  0  0  0  0  0  0  0  0
    3.2364   14.8713   31.2040 N   0  0  0  0  0  0  0  0  0  0  0  0
   -2.5243   15.4979   31.4780 N   0  0  0  0  0  0  0  0  0  0  0  0
   -3.7836   15.0724   30.9523 C   0  0  2  0  0  0  0  0  0  0  0  0
   -4.0889   15.4703   29.5735 C   0  0  0  0  0  0  0  0  0  0  0  0
   -5.0232   16.3608   29.4711 O   0  0  0  0  0  0  0  0  0  0  0  0
   -4.9241   15.3401   31.9179 C   0  0  0  0  0  0  0  0  0  0  0  0
   -5.7393   16.9053   31.7132 S   0  0  0  0  0  0  0  0  0  0  0  0
   -3.4876   14.9962   28.3920 N   0  0  0  0  0  0  0  0  0  0  0  0
   -3.4086   13.6588   27.9026 C   0  0  2  0  0  0  0  0  0  0  0  0
   -2.5671   12.7378   28.6735 C   0  0  0  0  0  0  0  0  0  0  0  0
   -1.5979   13.1890   29.3820 O   0  0  0  0  0  0  0  0  0  0  0  0
   -2.8169   13.6821   26.4954 C   0  0  2  0  0  0  0  0  0  0  0  0
   -3.7671   13.1904   25.5773 O   0  0  0  0  0  0  0  0  0  0  0  0
   -1.6941   12.6514   26.4776 C   0  0  0  0  0  0  0  0  0  0  0  0
   -2.7605   11.3465   28.6836 N   0  0  0  0  0  0  0  0  0  0  0  0
   -3.9651   10.6152   28.9849 C   0  0  2  0  0  0  0  0  0  0  0  0
   -3.7587    9.6602   30.0989 C   0  0  0  0  0  0  0  0  0  0  0  0
   -3.4025   10.2645   31.1839 O   0  0  0  0  0  0  0  0  0  0  0  0
   -4.5351    9.9972   27.7438 C   0  0  0  0  0  0  0  0  0  0  0  0
   -3.7841   10.4400   26.5056 C   0  0  0  0  0  0  0  0  0  0  0  0
   -2.4975   11.0785   26.9776 C   0  0  0  0  0  0  0  0  0  0  0  0
   -1.7676   10.2599   28.0106 C   0  0  0  0  0  0  0  0  0  0  0  0
   -0.5110   10.9430   28.3441 N   0  0  0  0  0  4  0  0  0  0  0  0
   -3.8850    8.2850   30.1378 N   0  0  0  0  0  0  0  0  0  0  0  0
   -5.0150    7.4332   29.8916 C   0  0  2  0  0  0  0  0  0  0  0  0
   -6.2813    7.8526   30.5236 C   0  0  0  0  0  0  0  0  0  0  0  0
   -7.3026    8.0088   29.7593 O   0  0  0  0  0  0  0  0  0  0  0  0
   -4.6704    5.9758   30.2023 C   0  0  0  0  0  0  0  0  0  0  0  0
   -4.0481    5.8754   31.4130 O   0  0  0  0  0  0  0  0  0  0  0  0
   -6.5077    8.1088   31.8877 N   0  0  0  0  0  0  0  0  0  0  0  0
   -6.2904    7.1481   32.9860 C   0  0  2  0  0  0  0  0  0  0  0  0
   -7.6291    6.7208   33.4650 C   0  0  0  0  0  0  0  0  0  0  0  0
   -8.0738    5.6405   32.8991 O   0  0  0  0  0  0  0  0  0  0  0  0
   -5.4336    7.7074   34.0695 C   0  0  0  0  0  0  0  0  0  0  0  0
   -4.2229    6.8704   34.2813 C   0  0  0  0  0  0  0  0  0  0  0  0
   -4.1538    5.7061   33.2836 C   0  0  0  0  0  0  0  0  0  0  0  0
   -5.4304    5.5073   32.6341 N   0  0  0  0  0  0  0  0  0  0  0  0
   -5.5813    4.4753   31.6822 C   0  0  0  0  0  0  0  0  0  0  0  0
   -6.1623    4.7556   30.4161 N   0  0  0  0  0  0  0  0  0  0  0  0
   -5.1993    3.2616   31.9376 N   0  0  0  0  0  0  0  0  0  0  0  0
   -8.4310    7.3450   34.4339 N   0  0  0  0  0  0  0  0  0  0  0  0
   -8.4690    8.7196   34.8393 C   0  0  2  0  0  0  0  0  0  0  0  0
   -8.0833    8.9579   36.2449 C   0  0  0  0  0  0  0  0  0  0  0  0
   -7.5603    8.0302   36.9666 O   0  0  0  0  0  0  0  0  0  0  0  0
   -9.9982    8.9639   34.7158 C   0  0  0  0  0  0  0  0  0  0  0  0
  -10.6253    7.6320   35.0346 C   0  0  0  0  0  0  0  0  0  0  0  0
   -9.4730    6.7064   35.2611 C   0  0  0  0  0  0  0  0  0  0  0  0
   -8.2827   10.2376   36.8475 N   0  0  0  0  0  0  0  0  0  0  0  0
   -7.9069   11.4970   36.2326 C   0  0  2  0  0  0  0  0  0  0  0  0
   -6.5210   11.8797   36.5856 C   0  0  0  0  0  0  0  0  0  0  0  0
   -5.8847   10.8598   37.1329 O   0  0  0  0  0  0  0  0  0  0  0  0
   -8.9910   12.4136   36.6072 C   0  0  0  0  0  0  0  0  0  0  0  0
   -9.7355   11.7827   37.7222 C   0  0  0  0  0  0  0  0  0  0  0  0
   -8.8562   10.5990   38.1381 C   0  0  0  0  0  0  0  0  0  0  0  0
   -5.7656   13.0058   36.4726 N   0  0  0  0  0  0  0  0  0  0  0  0
   -5.5346   14.2495   37.1627 C   0  0  2  0  0  0  0  0  0  0  0  0
   -4.2234   14.8679   36.7868 C   0  0  0  0  0  0  0  0  0  0  0  0
   -3.2429   14.4731   37.5123 O   0  0  0  0  0  0  0  0  0  0  0  0
   -5.5636   14.2264   38.6469 C   0  0  2  0  0  0  0  0  0  0  0  0
   -4.5542   15.0473   39.3737 C   0  0  0  0  0  0  0  0  0  0  0  0
   -5.5285   12.8415   39.2583 C   0  0  0  0  0  0  0  0  0  0  0  0
   -3.1332   14.6746   38.9762 C   0  0  0  0  0  0  0  0  0  0  0  0
   -3.9492   15.7864   35.7796 N   0  0  0  0  0  0  0  0  0  0  0  0
   -4.5918   17.0970   35.5649 C   0  0  2  0  0  0  0  0  0  0  0  0
   -4.4158   18.0067   36.7058 C   0  0  0  0  0  0  0  0  0  0  0  0
   -3.1859   17.9305   37.1664 O   0  0  0  0  0  0  0  0  0  0  0  0
   -5.9503   16.9471   34.9912 C   0  0  0  0  0  0  0  0  0  0  0  0
   -6.1897   17.9468   33.4697 S   0  0  0  0  0  0  0  0  0  0  0  0
   -5.2522   18.8860   37.3599 N   0  0  0  0  0  0  0  0  0  0  0  0
   -6.0392   20.0002   36.8559 C   0  0  2  0  0  0  0  0  0  0  0  0
   -5.5060   21.1812   37.5969 C   0  0  0  0  0  0  0  0  0  0  0  0
   -6.2178   21.6240   38.5505 O   0  0  0  0  0  0  0  0  0  0  0  0
   -7.4902   19.8107   37.0730 C   0  0  0  0  0  0  0  0  0  0  0  0
   -8.2257   19.0104   36.1009 C   0  0  0  0  0  0  0  0  0  0  0  0
   -7.6434   18.3863   35.0244 C   0  0  0  0  0  0  0  0  0  0  0  0
   -9.6111   18.9159   36.2322 C   0  0  0  0  0  0  0  0  0  0  0  0
   -8.3814   17.6947   34.1115 C   0  0  0  0  0  0  0  0  0  0  0  0
  -10.3323   18.2147   35.3030 C   0  0  0  0  0  0  0  0  0  0  0  0
   -9.7629   17.5764   34.2113 C   0  0  0  0  0  0  0  0  0  0  0  0
   -4.2993   21.8547   37.3588 N   0  0  0  0  0  0  0  0  0  0  0  0
   -3.8252   22.4559   36.1201 C   0  0  2  0  0  0  0  0  0  0  0  0
   -4.7990   22.4460   35.0570 C   0  0  0  0  0  0  0  0  0  0  0  0
   -5.9914   22.7662   35.4697 O   0  0  0  0  0  0  0  0  0  0  0  0
   -2.5026   21.8372   35.9374 C   0  0  0  0  0  0  0  0  0  0  0  0
   -2.0539   21.5275   37.3833 C   0  0  0  0  0  0  0  0  0  0  0  0
   -3.1463   22.1782   38.2384 C   0  0  0  0  0  0  0  0  0  0  0  0
   -4.7428   22.1732   33.6916 N   0  0  0  0  0  0  0  0  0  0  0  0
   -3.6486   21.6531   32.8988 C   0  0  2  0  0  0  0  0  0  0  0  0
   -2.4241   22.4637   32.9221 C   0  0  0  0  0  0  0  0  0  0  0  0
   -2.5340   23.7377   32.9183 O   0  0  0  0  0  0  0  0  0  0  0  0
   -4.0626   21.4817   31.4392 C   0  0  0  0  0  0  0  0  0  0  0  0
   -3.6418   22.6167   30.5827 C   0  0  0  0  0  0  0  0  0  0  0  0
   -4.0618   23.9268   30.8791 O   0  0  0  0  0  0  0  0  0  0  0  0
   -2.9187   22.4163   29.5991 O   0  0  0  0  0  0  0  0  0  0  0  0
    0.0636   21.2419   32.9780 O   0  0  0  0  0  0  0  0  0  0  0  0
    4.2192   14.9138   30.8915 H   0  0  0  0  0  0  0  0  0  0  0  0
   -4.1916    3.0268   32.0072 H   0  0  0  0  0  0  0  0  0  0  0  0
  1  2  1  0
  1103  1  0
  1109  1  0
  2  3  1  0
  2109  1  1
  3  4  2  0
  3  5  1  0
  5  6  1  0
  6  7  1  0
  6  9  1  1
  7  8  2  0
  7 16  1  0
  9 10  1  0
 10 11  1  0
 11 12  1  0
 12 13  1  0
 13 14  1  0
 13 15  2  0
 17 16  1  1
 17 18  1  0
 17 20  1  0
 18 19  2  0
 18 22  1  0
 20 21  1  0
 21 82  1  0
 23 22  1  1
 23 24  1  0
 23 26  1  0
 24 25  2  0
 24 29  1  0
 26 27  1  0
 26 28  1  1
 29 30  1  0
 30 31  1  0
 30 33  1  6
 31 32  2  0
 31 38  1  0
 33 34  1  0
 34 35  1  0
 35 36  1  0
 36 37  1  0
 38 39  1  0
 39 40  1  0
 39 42  1  1
 40 41  2  0
 40 44  1  0
 42 43  1  0
 44 45  1  0
 45 46  1  0
 45 48  1  1
 46 47  2  0
 46 55  1  0
 48 49  1  0
 49 50  1  0
 50 51  1  0
 51 52  1  0
 52 53  1  0
 52 54  2  0
 55 56  1  0
 55 61  1  0
 56 57  1  0
 56 59  1  1
 57 58  2  0
 57 62  1  0
 59 60  1  0
 60 61  1  0
 62 63  1  0
 62 68  1  0
 63 64  1  0
 63 66  1  1
 64 65  2  0
 64 69  1  0
 66 67  1  0
 67 68  1  0
 70 69  1  6
 70 71  1  0
 70 73  1  0
 71 72  2  0
 71 77  1  0
 73 74  1  0
 73 75  1  1
 74 76  1  0
 78 77  1  1
 78 79  1  0
 78 81  1  0
 79 80  2  0
 79 83  1  0
 81 82  1  0
 83 84  1  0
 84 85  1  0
 84 87  1  1
 85 86  2  0
 85 94  1  0
 87 88  1  0
 88 89  2  0
 88 90  1  0
 89 91  1  0
 90 92  2  0
 91 93  2  0
 92 93  1  0
 94 95  1  0
 94100  1  0
 95 96  1  0
 95 98  1  6
 96 97  2  0
 96101  1  0
 98 99  1  0
 99100  1  0
101102  1  0
102103  1  0
102105  1  6
103104  2  0
105106  1  0
106107  1  0
106108  2  0
 15110  1  0
 54111  1  0
M  CHG  1  37   1
M  END
$$$$
