
     RDKit          3D

 31 36  0  0  0  0  0  0  0  0999 V2000
   35.1187  102.4600   -0.7414 C   0  0  0  0  0  0  0  0  0  0  0  0
   36.2554  101.4906   -0.5172 C   0  0  2  0  0  0  0  0  0  0  0  0
   36.1485  100.1737   -1.2482 C   0  0  1  0  0  0  0  0  0  0  0  0
   37.3959   99.4819   -1.4496 N   0  0  0  0  0  4  0  0  0  0  0  0
   35.6446  100.3208    0.1501 C   0  0  2  0  0  0  0  0  0  0  0  0
   34.1596  100.6801    0.3225 C   0  0  0  0  0  0  0  0  0  0  0  0
   34.1268  102.0991    0.2907 N   0  0  0  0  0  0  0  0  0  0  0  0
   33.4141  103.0565    1.0246 C   0  0  0  0  0  0  0  0  0  0  0  0
   32.6840  102.6557    2.1244 N   0  0  0  0  0  0  0  0  0  0  0  0
   31.9346  103.4375    2.8758 C   0  0  0  0  0  0  0  0  0  0  0  0
   31.2370  102.9706    3.9514 N   0  0  0  0  0  0  0  0  0  0  0  0
   30.4721  103.7620    4.7188 C   0  0  0  0  0  0  0  0  0  0  0  0
   29.7563  103.2418    5.8360 N   0  0  0  0  0  0  0  0  0  0  0  0
   30.4032  105.0678    4.3974 N   0  0  0  0  0  0  0  0  0  0  0  0
   31.0704  105.5814    3.3473 C   0  0  0  0  0  0  0  0  0  0  0  0
   31.8523  104.7770    2.5616 C   0  0  0  0  0  0  0  0  0  0  0  0
   32.5613  105.2363    1.4730 C   0  0  0  0  0  0  0  0  0  0  0  0
   33.3571  104.3834    0.6840 C   0  0  0  0  0  0  0  0  0  0  0  0
   34.0683  104.9885   -0.4119 C   0  0  0  0  0  0  0  0  0  0  0  0
   35.3669  105.4516   -0.1683 C   0  0  0  0  0  0  0  0  0  0  0  0
   36.0299  105.2793    1.4365 Cl  0  0  0  0  0  0  0  0  0  0  0  0
   36.1150  106.0319   -1.1670 C   0  0  0  0  0  0  0  0  0  0  0  0
   35.6050  106.1737   -2.4385 C   0  0  0  0  0  0  0  0  0  0  0  0
   34.3373  105.7243   -2.6883 C   0  0  0  0  0  0  0  0  0  0  0  0
   33.5725  105.1299   -1.6657 C   0  0  0  0  0  0  0  0  0  0  0  0
   32.2541  104.6467   -1.9992 C   0  0  0  0  0  0  0  0  0  0  0  0
   31.1392  105.4182   -1.7908 C   0  0  0  0  0  0  0  0  0  0  0  0
   29.8607  104.9464   -2.1237 C   0  0  0  0  0  0  0  0  0  0  0  0
   29.7183  103.6906   -2.6687 C   0  0  0  0  0  0  0  0  0  0  0  0
   30.8167  102.9505   -2.8665 N   0  0  0  0  0  0  0  0  0  0  0  0
   32.0702  103.4039   -2.5439 C   0  0  0  0  0  0  0  0  0  0  0  0
  2  1  1  6
  1  7  1  0
  2  3  1  0
  2  5  1  0
  3  4  1  1
  3  5  1  0
  5  6  1  6
  6  7  1  0
  7  8  1  0
  8  9  2  0
  8 18  1  0
  9 10  1  0
 10 11  2  0
 10 16  1  0
 11 12  1  0
 12 13  1  0
 12 14  2  0
 14 15  1  0
 15 16  2  0
 16 17  1  0
 17 18  2  0
 18 19  1  0
 19 20  2  0
 19 25  1  0
 20 21  1  0
 20 22  1  0
 22 23  2  0
 23 24  1  0
 24 25  2  0
 25 26  1  0
 26 27  2  0
 26 31  1  0
 27 28  1  0
 28 29  2  0
 29 30  1  0
 30 31  2  0
M  CHG  1   4   1
M  END
$$$$
