
     RDKit          3D

 31 36  0  0  0  0  0  0  0  0999 V2000
   34.4331  101.4724   -0.8360 C   0  0  0  0  0  0  0  0  0  0  0  0
   35.9005  101.1182   -0.7786 C   0  0  2  0  0  0  0  0  0  0  0  0
   36.2217   99.6435   -0.8222 C   0  0  1  0  0  0  0  0  0  0  0  0
   37.5533   99.3194   -1.2659 N   0  0  0  0  0  4  0  0  0  0  0  0
   36.0698  100.3598    0.4795 C   0  0  2  0  0  0  0  0  0  0  0  0
   34.6773  100.3360    1.1309 C   0  0  0  0  0  0  0  0  0  0  0  0
   34.0012  101.4541    0.5756 N   0  0  0  0  0  0  0  0  0  0  0  0
   33.1402  102.4176    1.1174 C   0  0  0  0  0  0  0  0  0  0  0  0
   32.7661  102.3183    2.4415 N   0  0  0  0  0  0  0  0  0  0  0  0
   31.9312  103.1242    3.0668 C   0  0  0  0  0  0  0  0  0  0  0  0
   31.6053  102.9648    4.3820 N   0  0  0  0  0  0  0  0  0  0  0  0
   30.7553  103.7817    5.0228 C   0  0  0  0  0  0  0  0  0  0  0  0
   30.4365  103.5870    6.3981 N   0  0  0  0  0  0  0  0  0  0  0  0
   30.2123  104.7945    4.3211 N   0  0  0  0  0  0  0  0  0  0  0  0
   30.4987  104.9980    3.0218 C   0  0  0  0  0  0  0  0  0  0  0  0
   31.3657  104.1665    2.3642 C   0  0  0  0  0  0  0  0  0  0  0  0
   31.7027  104.3168    1.0365 C   0  0  0  0  0  0  0  0  0  0  0  0
   32.5981  103.4444    0.3881 C   0  0  0  0  0  0  0  0  0  0  0  0
   32.8883  103.7216   -0.9945 C   0  0  0  0  0  0  0  0  0  0  0  0
   32.0652  103.1339   -1.9627 C   0  0  0  0  0  0  0  0  0  0  0  0
   30.7600  102.1020   -1.4372 Cl  0  0  0  0  0  0  0  0  0  0  0  0
   32.2715  103.3592   -3.3045 C   0  0  0  0  0  0  0  0  0  0  0  0
   33.2971  104.1721   -3.7338 C   0  0  0  0  0  0  0  0  0  0  0  0
   34.1075  104.7522   -2.7966 C   0  0  0  0  0  0  0  0  0  0  0  0
   33.8953  104.5216   -1.4234 C   0  0  0  0  0  0  0  0  0  0  0  0
   34.7637  105.1874   -0.4824 C   0  0  0  0  0  0  0  0  0  0  0  0
   36.0480  104.7548   -0.2697 C   0  0  0  0  0  0  0  0  0  0  0  0
   36.8903  105.4103    0.6408 C   0  0  0  0  0  0  0  0  0  0  0  0
   36.4251  106.5051    1.3331 C   0  0  0  0  0  0  0  0  0  0  0  0
   35.1693  106.9150    1.1133 N   0  0  0  0  0  0  0  0  0  0  0  0
   34.3392  106.2801    0.2252 C   0  0  0  0  0  0  0  0  0  0  0  0
  2  1  1  1
  1  7  1  0
  2  3  1  0
  2  5  1  0
  3  4  1  6
  3  5  1  0
  5  6  1  1
  6  7  1  0
  7  8  1  0
  8  9  2  0
  8 18  1  0
  9 10  1  0
 10 11  2  0
 10 16  1  0
 11 12  1  0
 12 13  1  0
 12 14  2  0
 14 15  1  0
 15 16  2  0
 16 17  1  0
 17 18  2  0
 18 19  1  0
 19 20  2  0
 19 25  1  0
 20 21  1  0
 20 22  1  0
 22 23  2  0
 23 24  1  0
 24 25  2  0
 25 26  1  0
 26 27  2  0
 26 31  1  0
 27 28  1  0
 28 29  2  0
 29 30  1  0
 30 31  2  0
M  CHG  1   4   1
M  END
$$$$
