
     RDKit          3D

 31 36  0  0  0  0  0  0  0  0999 V2000
   34.4829  100.8385    1.0083 C   0  0  0  0  0  0  0  0  0  0  0  0
   34.8665  100.2258   -0.3182 C   0  0  2  0  0  0  0  0  0  0  0  0
   36.3413   99.9753   -0.5232 C   0  0  1  0  0  0  0  0  0  0  0  0
   36.6615   98.9749   -1.5089 N   0  0  0  0  0  4  0  0  0  0  0  0
   35.7039  101.2428   -0.9900 C   0  0  2  0  0  0  0  0  0  0  0  0
   35.7426  102.4397   -0.0257 C   0  0  0  0  0  0  0  0  0  0  0  0
   34.5803  102.2932    0.7763 N   0  0  0  0  0  0  0  0  0  0  0  0
   33.6365  103.2042    1.2690 C   0  0  0  0  0  0  0  0  0  0  0  0
   32.8030  102.8198    2.2988 N   0  0  0  0  0  0  0  0  0  0  0  0
   31.8445  103.5548    2.8268 C   0  0  0  0  0  0  0  0  0  0  0  0
   31.0557  103.1079    3.8464 N   0  0  0  0  0  0  0  0  0  0  0  0
   30.0782  103.8515    4.3866 C   0  0  0  0  0  0  0  0  0  0  0  0
   29.2721  103.3541    5.4514 N   0  0  0  0  0  0  0  0  0  0  0  0
   29.8838  105.0870    3.8878 N   0  0  0  0  0  0  0  0  0  0  0  0
   30.6326  105.5779    2.8828 C   0  0  0  0  0  0  0  0  0  0  0  0
   31.6313  104.8221    2.3287 C   0  0  0  0  0  0  0  0  0  0  0  0
   32.4345  105.2619    1.2990 C   0  0  0  0  0  0  0  0  0  0  0  0
   33.4539  104.4601    0.7501 C   0  0  0  0  0  0  0  0  0  0  0  0
   34.2405  105.0426   -0.3057 C   0  0  0  0  0  0  0  0  0  0  0  0
   35.3963  105.7452    0.0557 C   0  0  0  0  0  0  0  0  0  0  0  0
   35.7993  105.8801    1.7480 Cl  0  0  0  0  0  0  0  0  0  0  0  0
   36.2063  106.3212   -0.8962 C   0  0  0  0  0  0  0  0  0  0  0  0
   35.9012  106.2221   -2.2356 C   0  0  0  0  0  0  0  0  0  0  0  0
   34.7745  105.5373   -2.6005 C   0  0  0  0  0  0  0  0  0  0  0  0
   33.9464  104.9476   -1.6256 C   0  0  0  0  0  0  0  0  0  0  0  0
   32.7894  104.2112   -2.0751 C   0  0  0  0  0  0  0  0  0  0  0  0
   31.5178  104.6600   -1.8232 C   0  0  0  0  0  0  0  0  0  0  0  0
   30.3967  103.9441   -2.2689 C   0  0  0  0  0  0  0  0  0  0  0  0
   30.5707  102.7728   -2.9704 C   0  0  0  0  0  0  0  0  0  0  0  0
   31.8186  102.3489   -3.2086 N   0  0  0  0  0  0  0  0  0  0  0  0
   32.9200  103.0425   -2.7766 C   0  0  0  0  0  0  0  0  0  0  0  0
  2  1  1  1
  1  7  1  0
  2  3  1  0
  2  5  1  0
  3  4  1  6
  3  5  1  0
  5  6  1  1
  6  7  1  0
  7  8  1  0
  8  9  2  0
  8 18  1  0
  9 10  1  0
 10 11  2  0
 10 16  1  0
 11 12  1  0
 12 13  1  0
 12 14  2  0
 14 15  1  0
 15 16  2  0
 16 17  1  0
 17 18  2  0
 18 19  1  0
 19 20  2  0
 19 25  1  0
 20 21  1  0
 20 22  1  0
 22 23  2  0
 23 24  1  0
 24 25  2  0
 25 26  1  0
 26 27  2  0
 26 31  1  0
 27 28  1  0
 28 29  2  0
 29 30  1  0
 30 31  2  0
M  CHG  1   4   1
M  END
$$$$
