
     RDKit          3D

 31 36  0  0  0  0  0  0  0  0999 V2000
   35.3102  102.5067   -0.7074 C   0  0  0  0  0  0  0  0  0  0  0  0
   36.1775  101.2878   -0.4971 C   0  0  2  0  0  0  0  0  0  0  0  0
   36.0517  100.2049   -1.5418 C   0  0  1  0  0  0  0  0  0  0  0  0
   37.1795   99.3140   -1.6396 N   0  0  0  0  0  4  0  0  0  0  0  0
   35.2335  100.1679   -0.2929 C   0  0  2  0  0  0  0  0  0  0  0  0
   33.8331  100.7993   -0.3571 C   0  0  0  0  0  0  0  0  0  0  0  0
   34.0400  102.1668   -0.0364 N   0  0  0  0  0  0  0  0  0  0  0  0
   33.3263  103.0850    0.7452 C   0  0  0  0  0  0  0  0  0  0  0  0
   32.5972  102.6282    1.8237 N   0  0  0  0  0  0  0  0  0  0  0  0
   31.8471  103.3701    2.6139 C   0  0  0  0  0  0  0  0  0  0  0  0
   31.1508  102.8486    3.6649 N   0  0  0  0  0  0  0  0  0  0  0  0
   30.3851  103.5992    4.4716 C   0  0  0  0  0  0  0  0  0  0  0  0
   29.6706  103.0223    5.5613 N   0  0  0  0  0  0  0  0  0  0  0  0
   30.3144  104.9193    4.2165 N   0  0  0  0  0  0  0  0  0  0  0  0
   30.9803  105.4862    3.1933 C   0  0  0  0  0  0  0  0  0  0  0  0
   31.7629  104.7236    2.3677 C   0  0  0  0  0  0  0  0  0  0  0  0
   32.4707  105.2382    1.3033 C   0  0  0  0  0  0  0  0  0  0  0  0
   33.2673  104.4273    0.4720 C   0  0  0  0  0  0  0  0  0  0  0  0
   33.9772  105.0879   -0.5922 C   0  0  0  0  0  0  0  0  0  0  0  0
   35.2234  105.6508   -0.2919 C   0  0  0  0  0  0  0  0  0  0  0  0
   35.8256  105.5285    1.3412 Cl  0  0  0  0  0  0  0  0  0  0  0  0
   35.9676  106.2894   -1.2574 C   0  0  0  0  0  0  0  0  0  0  0  0
   35.5053  106.3929   -2.5507 C   0  0  0  0  0  0  0  0  0  0  0  0
   34.2891  105.8459   -2.8558 C   0  0  0  0  0  0  0  0  0  0  0  0
   33.5283  105.1919   -1.8672 C   0  0  0  0  0  0  0  0  0  0  0  0
   32.2680  104.6075   -2.2583 C   0  0  0  0  0  0  0  0  0  0  0  0
   31.1018  104.9326   -1.6133 C   0  0  0  0  0  0  0  0  0  0  0  0
   29.8783  104.3671   -2.0025 C   0  0  0  0  0  0  0  0  0  0  0  0
   29.8430  103.4720   -3.0474 C   0  0  0  0  0  0  0  0  0  0  0  0
   30.9901  103.1659   -3.6669 N   0  0  0  0  0  0  0  0  0  0  0  0
   32.1904  103.7140   -3.2930 C   0  0  0  0  0  0  0  0  0  0  0  0
  2  1  1  6
  1  7  1  0
  2  3  1  0
  2  5  1  0
  3  4  1  1
  3  5  1  0
  5  6  1  6
  6  7  1  0
  7  8  1  0
  8  9  2  0
  8 18  1  0
  9 10  1  0
 10 11  2  0
 10 16  1  0
 11 12  1  0
 12 13  1  0
 12 14  2  0
 14 15  1  0
 15 16  2  0
 16 17  1  0
 17 18  2  0
 18 19  1  0
 19 20  2  0
 19 25  1  0
 20 21  1  0
 20 22  1  0
 22 23  2  0
 23 24  1  0
 24 25  2  0
 25 26  1  0
 26 27  2  0
 26 31  1  0
 27 28  1  0
 28 29  2  0
 29 30  1  0
 30 31  2  0
M  CHG  1   4   1
M  END
$$$$
