
     RDKit          3D

 31 36  0  0  0  0  0  0  0  0999 V2000
   33.9668  100.8081    0.3670 C   0  0  0  0  0  0  0  0  0  0  0  0
   34.4591  100.5457   -1.0368 C   0  0  2  0  0  0  0  0  0  0  0  0
   35.9113  100.1504   -1.1596 C   0  0  1  0  0  0  0  0  0  0  0  0
   36.2514   99.4335   -2.3619 N   0  0  0  0  0  4  0  0  0  0  0  0
   35.4886  101.5771   -1.2883 C   0  0  2  0  0  0  0  0  0  0  0  0
   35.5264  102.4339   -0.0122 C   0  0  0  0  0  0  0  0  0  0  0  0
   34.2557  102.2385    0.5901 N   0  0  0  0  0  0  0  0  0  0  0  0
   33.3599  103.1011    1.2356 C   0  0  0  0  0  0  0  0  0  0  0  0
   32.5932  102.6199    2.2767 N   0  0  0  0  0  0  0  0  0  0  0  0
   31.6828  103.3039    2.9407 C   0  0  0  0  0  0  0  0  0  0  0  0
   30.9592  102.7613    3.9622 N   0  0  0  0  0  0  0  0  0  0  0  0
   30.0307  103.4528    4.6405 C   0  0  0  0  0  0  0  0  0  0  0  0
   29.2923  102.8555    5.7030 N   0  0  0  0  0  0  0  0  0  0  0  0
   29.8194  104.7336    4.2828 N   0  0  0  0  0  0  0  0  0  0  0  0
   30.5046  105.3188    3.2830 C   0  0  0  0  0  0  0  0  0  0  0  0
   31.4531  104.6164    2.5883 C   0  0  0  0  0  0  0  0  0  0  0  0
   32.1902  105.1529    1.5550 C   0  0  0  0  0  0  0  0  0  0  0  0
   33.1592  104.4042    0.8593 C   0  0  0  0  0  0  0  0  0  0  0  0
   33.8800  105.0853   -0.1844 C   0  0  0  0  0  0  0  0  0  0  0  0
   35.1185  105.6504    0.1421 C   0  0  0  0  0  0  0  0  0  0  0  0
   35.6987  105.5059    1.7813 Cl  0  0  0  0  0  0  0  0  0  0  0  0
   35.8724  106.3082   -0.8029 C   0  0  0  0  0  0  0  0  0  0  0  0
   35.4276  106.4293   -2.1007 C   0  0  0  0  0  0  0  0  0  0  0  0
   34.2188  105.8804   -2.4314 C   0  0  0  0  0  0  0  0  0  0  0  0
   33.4482  105.2068   -1.4637 C   0  0  0  0  0  0  0  0  0  0  0  0
   32.1969  104.6215   -1.8815 C   0  0  0  0  0  0  0  0  0  0  0  0
   32.1598  103.4306   -2.5614 C   0  0  0  0  0  0  0  0  0  0  0  0
   30.9402  102.8624   -2.9587 C   0  0  0  0  0  0  0  0  0  0  0  0
   29.7601  103.5062   -2.6632 C   0  0  0  0  0  0  0  0  0  0  0  0
   29.8137  104.6674   -1.9982 N   0  0  0  0  0  0  0  0  0  0  0  0
   31.0015  105.2299   -1.6062 C   0  0  0  0  0  0  0  0  0  0  0  0
  2  1  1  1
  1  7  1  0
  2  3  1  0
  2  5  1  0
  3  4  1  6
  3  5  1  0
  5  6  1  1
  6  7  1  0
  7  8  1  0
  8  9  2  0
  8 18  1  0
  9 10  1  0
 10 11  2  0
 10 16  1  0
 11 12  1  0
 12 13  1  0
 12 14  2  0
 14 15  1  0
 15 16  2  0
 16 17  1  0
 17 18  2  0
 18 19  1  0
 19 20  2  0
 19 25  1  0
 20 21  1  0
 20 22  1  0
 22 23  2  0
 23 24  1  0
 24 25  2  0
 25 26  1  0
 26 27  2  0
 26 31  1  0
 27 28  1  0
 28 29  2  0
 29 30  1  0
 30 31  2  0
M  CHG  1   4   1
M  END
$$$$
