
     RDKit          3D

 31 36  0  0  0  0  0  0  0  0999 V2000
   34.7216  101.9450   -0.7078 C   0  0  0  0  0  0  0  0  0  0  0  0
   35.8851  101.0422   -0.3716 C   0  0  2  0  0  0  0  0  0  0  0  0
   35.8631   99.6764   -1.0151 C   0  0  1  0  0  0  0  0  0  0  0  0
   37.1447   99.0267   -1.1175 N   0  0  0  0  0  4  0  0  0  0  0  0
   35.2928   99.8941    0.3480 C   0  0  2  0  0  0  0  0  0  0  0  0
   33.7886  100.2002    0.4344 C   0  0  0  0  0  0  0  0  0  0  0  0
   33.7005  101.6113    0.3048 N   0  0  0  0  0  0  0  0  0  0  0  0
   32.9186  102.5838    0.9420 C   0  0  0  0  0  0  0  0  0  0  0  0
   32.5492  102.3952    2.2577 N   0  0  0  0  0  0  0  0  0  0  0  0
   31.7823  103.2020    2.9638 C   0  0  0  0  0  0  0  0  0  0  0  0
   31.4564  102.9510    4.2647 N   0  0  0  0  0  0  0  0  0  0  0  0
   30.6753  103.7683    4.9874 C   0  0  0  0  0  0  0  0  0  0  0  0
   30.3543  103.4764    6.3448 N   0  0  0  0  0  0  0  0  0  0  0  0
   30.2038  104.8767    4.3856 N   0  0  0  0  0  0  0  0  0  0  0  0
   30.4938  105.1730    3.1051 C   0  0  0  0  0  0  0  0  0  0  0  0
   31.2906  104.3414    2.3641 C   0  0  0  0  0  0  0  0  0  0  0  0
   31.6268  104.5837    1.0499 C   0  0  0  0  0  0  0  0  0  0  0  0
   32.4489  103.7085    0.3140 C   0  0  0  0  0  0  0  0  0  0  0  0
   32.7475  104.0852   -1.0431 C   0  0  0  0  0  0  0  0  0  0  0  0
   31.9102  103.5966   -2.0532 C   0  0  0  0  0  0  0  0  0  0  0  0
   30.5780  102.5612   -1.6085 Cl  0  0  0  0  0  0  0  0  0  0  0  0
   32.1235  103.9205   -3.3736 C   0  0  0  0  0  0  0  0  0  0  0  0
   33.1704  104.7373   -3.7393 C   0  0  0  0  0  0  0  0  0  0  0  0
   33.9948  105.2211   -2.7606 C   0  0  0  0  0  0  0  0  0  0  0  0
   33.7754  104.8895   -1.4093 C   0  0  0  0  0  0  0  0  0  0  0  0
   34.6601  105.4569   -0.4203 C   0  0  0  0  0  0  0  0  0  0  0  0
   35.7288  104.7492    0.0686 C   0  0  0  0  0  0  0  0  0  0  0  0
   36.5899  105.3084    1.0246 C   0  0  0  0  0  0  0  0  0  0  0  0
   36.3630  106.5867    1.4815 C   0  0  0  0  0  0  0  0  0  0  0  0
   35.3160  107.2642    0.9935 N   0  0  0  0  0  0  0  0  0  0  0  0
   34.4692  106.7253    0.0590 C   0  0  0  0  0  0  0  0  0  0  0  0
  2  1  1  6
  1  7  1  0
  2  3  1  0
  2  5  1  0
  3  4  1  1
  3  5  1  0
  5  6  1  6
  6  7  1  0
  7  8  1  0
  8  9  2  0
  8 18  1  0
  9 10  1  0
 10 11  2  0
 10 16  1  0
 11 12  1  0
 12 13  1  0
 12 14  2  0
 14 15  1  0
 15 16  2  0
 16 17  1  0
 17 18  2  0
 18 19  1  0
 19 20  2  0
 19 25  1  0
 20 21  1  0
 20 22  1  0
 22 23  2  0
 23 24  1  0
 24 25  2  0
 25 26  1  0
 26 27  2  0
 26 31  1  0
 27 28  1  0
 28 29  2  0
 29 30  1  0
 30 31  2  0
M  CHG  1   4   1
M  END
$$$$
