
     RDKit          3D

 31 36  0  0  0  0  0  0  0  0999 V2000
   35.6423  102.1187    0.8071 C   0  0  0  0  0  0  0  0  0  0  0  0
   35.7559  100.6293    0.5818 C   0  0  2  0  0  0  0  0  0  0  0  0
   36.2850  100.2084   -0.7683 C   0  0  1  0  0  0  0  0  0  0  0  0
   36.8579   98.8876   -0.8172 N   0  0  0  0  0  4  0  0  0  0  0  0
   34.8172  100.3287   -0.5205 C   0  0  2  0  0  0  0  0  0  0  0  0
   34.1581  101.6727   -0.8715 C   0  0  0  0  0  0  0  0  0  0  0  0
   34.2975  102.4592    0.3022 N   0  0  0  0  0  0  0  0  0  0  0  0
   33.4426  103.3504    0.9641 C   0  0  0  0  0  0  0  0  0  0  0  0
   32.6724  102.8919    2.0127 N   0  0  0  0  0  0  0  0  0  0  0  0
   31.7965  103.6050    2.6923 C   0  0  0  0  0  0  0  0  0  0  0  0
   31.0668  103.0836    3.7204 N   0  0  0  0  0  0  0  0  0  0  0  0
   30.1734  103.8049    4.4146 C   0  0  0  0  0  0  0  0  0  0  0  0
   29.4274  103.2290    5.4837 N   0  0  0  0  0  0  0  0  0  0  0  0
   30.0047  105.0946    4.0665 N   0  0  0  0  0  0  0  0  0  0  0  0
   30.6979  105.6599    3.0607 C   0  0  0  0  0  0  0  0  0  0  0  0
   31.6107  104.9271    2.3498 C   0  0  0  0  0  0  0  0  0  0  0  0
   32.3535  105.4420    1.3096 C   0  0  0  0  0  0  0  0  0  0  0  0
   33.2851  104.6622    0.5973 C   0  0  0  0  0  0  0  0  0  0  0  0
   34.0167  105.3223   -0.4524 C   0  0  0  0  0  0  0  0  0  0  0  0
   35.3443  105.6831   -0.1927 C   0  0  0  0  0  0  0  0  0  0  0  0
   36.0176  105.3246    1.3767 Cl  0  0  0  0  0  0  0  0  0  0  0  0
   36.1126  106.3074   -1.1486 C   0  0  0  0  0  0  0  0  0  0  0  0
   35.5948  106.5957   -2.3919 C   0  0  0  0  0  0  0  0  0  0  0  0
   34.2987  106.2473   -2.6571 C   0  0  0  0  0  0  0  0  0  0  0  0
   33.5133  105.6077   -1.6783 C   0  0  0  0  0  0  0  0  0  0  0  0
   32.1635  105.2364   -2.0290 C   0  0  0  0  0  0  0  0  0  0  0  0
   31.2118  106.1861   -2.3014 C   0  0  0  0  0  0  0  0  0  0  0  0
   29.9031  105.8194   -2.6491 C   0  0  0  0  0  0  0  0  0  0  0  0
   29.5645  104.4872   -2.7196 C   0  0  0  0  0  0  0  0  0  0  0  0
   30.5054  103.5728   -2.4515 N   0  0  0  0  0  0  0  0  0  0  0  0
   31.7870  103.9224   -2.1108 C   0  0  0  0  0  0  0  0  0  0  0  0
  2  1  1  6
  1  7  1  0
  2  3  1  0
  2  5  1  0
  3  4  1  1
  3  5  1  0
  5  6  1  6
  6  7  1  0
  7  8  1  0
  8  9  2  0
  8 18  1  0
  9 10  1  0
 10 11  2  0
 10 16  1  0
 11 12  1  0
 12 13  1  0
 12 14  2  0
 14 15  1  0
 15 16  2  0
 16 17  1  0
 17 18  2  0
 18 19  1  0
 19 20  2  0
 19 25  1  0
 20 21  1  0
 20 22  1  0
 22 23  2  0
 23 24  1  0
 24 25  2  0
 25 26  1  0
 26 27  2  0
 26 31  1  0
 27 28  1  0
 28 29  2  0
 29 30  1  0
 30 31  2  0
M  CHG  1   4   1
M  END
$$$$
