
     RDKit          3D

 31 36  0  0  0  0  0  0  0  0999 V2000
   35.4509  101.4240    0.7421 C   0  0  0  0  0  0  0  0  0  0  0  0
   35.2983  100.1119    0.0091 C   0  0  2  0  0  0  0  0  0  0  0  0
   36.1174   99.9651   -1.2508 C   0  0  1  0  0  0  0  0  0  0  0  0
   36.3708   98.6080   -1.6620 N   0  0  0  0  0  4  0  0  0  0  0  0
   34.7104  100.4634   -1.3014 C   0  0  2  0  0  0  0  0  0  0  0  0
   34.5077  101.9869   -1.2612 C   0  0  0  0  0  0  0  0  0  0  0  0
   34.4420  102.3047    0.1210 N   0  0  0  0  0  0  0  0  0  0  0  0
   33.6412  103.1820    0.8641 C   0  0  0  0  0  0  0  0  0  0  0  0
   32.9192  102.6933    1.9332 N   0  0  0  0  0  0  0  0  0  0  0  0
   32.0949  103.3924    2.6878 C   0  0  0  0  0  0  0  0  0  0  0  0
   31.4110  102.8410    3.7317 N   0  0  0  0  0  0  0  0  0  0  0  0
   30.5702  103.5480    4.5022 C   0  0  0  0  0  0  0  0  0  0  0  0
   29.8712  102.9408    5.5856 N   0  0  0  0  0  0  0  0  0  0  0  0
   30.4085  104.8539    4.2169 N   0  0  0  0  0  0  0  0  0  0  0  0
   31.0581  105.4488    3.1990 C   0  0  0  0  0  0  0  0  0  0  0  0
   31.9171  104.7307    2.4104 C   0  0  0  0  0  0  0  0  0  0  0  0
   32.6134  105.2759    1.3535 C   0  0  0  0  0  0  0  0  0  0  0  0
   33.4902  104.5106    0.5605 C   0  0  0  0  0  0  0  0  0  0  0  0
   34.1776  105.2014   -0.4993 C   0  0  0  0  0  0  0  0  0  0  0  0
   35.4642  105.6851   -0.2334 C   0  0  0  0  0  0  0  0  0  0  0  0
   36.1415  105.4336    1.3549 Cl  0  0  0  0  0  0  0  0  0  0  0  0
   36.1898  106.3462   -1.1979 C   0  0  0  0  0  0  0  0  0  0  0  0
   35.6684  106.5512   -2.4561 C   0  0  0  0  0  0  0  0  0  0  0  0
   34.4121  106.0823   -2.7274 C   0  0  0  0  0  0  0  0  0  0  0  0
   33.6704  105.4052   -1.7398 C   0  0  0  0  0  0  0  0  0  0  0  0
   32.3640  104.9063   -2.0967 C   0  0  0  0  0  0  0  0  0  0  0  0
   31.2337  105.3505   -1.4588 C   0  0  0  0  0  0  0  0  0  0  0  0
   29.9655  104.8677   -1.8147 C   0  0  0  0  0  0  0  0  0  0  0  0
   29.8490  103.9341   -2.8193 C   0  0  0  0  0  0  0  0  0  0  0  0
   30.9621  103.5116   -3.4325 N   0  0  0  0  0  0  0  0  0  0  0  0
   32.2056  103.9782   -3.0909 C   0  0  0  0  0  0  0  0  0  0  0  0
  2  1  1  1
  1  7  1  0
  2  3  1  0
  2  5  1  0
  3  4  1  6
  3  5  1  0
  5  6  1  1
  6  7  1  0
  7  8  1  0
  8  9  2  0
  8 18  1  0
  9 10  1  0
 10 11  2  0
 10 16  1  0
 11 12  1  0
 12 13  1  0
 12 14  2  0
 14 15  1  0
 15 16  2  0
 16 17  1  0
 17 18  2  0
 18 19  1  0
 19 20  2  0
 19 25  1  0
 20 21  1  0
 20 22  1  0
 22 23  2  0
 23 24  1  0
 24 25  2  0
 25 26  1  0
 26 27  2  0
 26 31  1  0
 27 28  1  0
 28 29  2  0
 29 30  1  0
 30 31  2  0
M  CHG  1   4   1
M  END
$$$$
