
     RDKit          3D

 31 36  0  0  0  0  0  0  0  0999 V2000
   35.4984  102.4953    0.2035 C   0  0  0  0  0  0  0  0  0  0  0  0
   36.0690  101.1036    0.3444 C   0  0  2  0  0  0  0  0  0  0  0  0
   36.1087  100.2797   -0.9204 C   0  0  1  0  0  0  0  0  0  0  0  0
   37.0671   99.2043   -0.9210 N   0  0  0  0  0  4  0  0  0  0  0  0
   34.9525  100.1896    0.0207 C   0  0  2  0  0  0  0  0  0  0  0  0
   33.7485  101.1027   -0.2637 C   0  0  0  0  0  0  0  0  0  0  0  0
   34.0483  102.3144    0.4127 N   0  0  0  0  0  0  0  0  0  0  0  0
   33.2747  103.2046    1.1693 C   0  0  0  0  0  0  0  0  0  0  0  0
   32.5596  102.7267    2.2479 N   0  0  0  0  0  0  0  0  0  0  0  0
   31.7595  103.4391    3.0160 C   0  0  0  0  0  0  0  0  0  0  0  0
   31.0809  102.8980    4.0687 N   0  0  0  0  0  0  0  0  0  0  0  0
   30.2646  103.6185    4.8529 C   0  0  0  0  0  0  0  0  0  0  0  0
   29.5706  103.0217    5.9452 N   0  0  0  0  0  0  0  0  0  0  0  0
   30.1228  104.9278    4.5726 N   0  0  0  0  0  0  0  0  0  0  0  0
   30.7682  105.5130    3.5465 C   0  0  0  0  0  0  0  0  0  0  0  0
   31.6022  104.7811    2.7439 C   0  0  0  0  0  0  0  0  0  0  0  0
   32.2928  105.3158    1.6780 C   0  0  0  0  0  0  0  0  0  0  0  0
   33.1437  104.5364    0.8706 C   0  0  0  0  0  0  0  0  0  0  0  0
   33.8281  105.2169   -0.1977 C   0  0  0  0  0  0  0  0  0  0  0  0
   35.1613  105.5871    0.0153 C   0  0  0  0  0  0  0  0  0  0  0  0
   35.8981  105.2153    1.5527 Cl  0  0  0  0  0  0  0  0  0  0  0  0
   35.8863  106.2310   -0.9613 C   0  0  0  0  0  0  0  0  0  0  0  0
   35.3181  106.5301   -2.1798 C   0  0  0  0  0  0  0  0  0  0  0  0
   34.0160  106.1725   -2.3994 C   0  0  0  0  0  0  0  0  0  0  0  0
   33.2750  105.5130   -1.3995 C   0  0  0  0  0  0  0  0  0  0  0  0
   31.9161  105.1331   -1.7028 C   0  0  0  0  0  0  0  0  0  0  0  0
   31.5742  103.8219   -1.9166 C   0  0  0  0  0  0  0  0  0  0  0  0
   30.2503  103.4573   -2.2037 C   0  0  0  0  0  0  0  0  0  0  0  0
   29.2760  104.4270   -2.2725 C   0  0  0  0  0  0  0  0  0  0  0  0
   29.6262  105.7021   -2.0605 N   0  0  0  0  0  0  0  0  0  0  0  0
   30.9179  106.0673   -1.7793 C   0  0  0  0  0  0  0  0  0  0  0  0
  2  1  1  6
  1  7  1  0
  2  3  1  0
  2  5  1  0
  3  4  1  1
  3  5  1  0
  5  6  1  6
  6  7  1  0
  7  8  1  0
  8  9  2  0
  8 18  1  0
  9 10  1  0
 10 11  2  0
 10 16  1  0
 11 12  1  0
 12 13  1  0
 12 14  2  0
 14 15  1  0
 15 16  2  0
 16 17  1  0
 17 18  2  0
 18 19  1  0
 19 20  2  0
 19 25  1  0
 20 21  1  0
 20 22  1  0
 22 23  2  0
 23 24  1  0
 24 25  2  0
 25 26  1  0
 26 27  2  0
 26 31  1  0
 27 28  1  0
 28 29  2  0
 29 30  1  0
 30 31  2  0
M  CHG  1   4   1
M  END
$$$$
