
     RDKit          3D

 31 36  0  0  0  0  0  0  0  0999 V2000
   34.7712  102.6506   -0.7026 C   0  0  0  0  0  0  0  0  0  0  0  0
   35.8000  101.5706   -0.4636 C   0  0  2  0  0  0  0  0  0  0  0  0
   35.7758  100.4148   -1.4351 C   0  0  1  0  0  0  0  0  0  0  0  0
   37.0066   99.6732   -1.5355 N   0  0  0  0  0  4  0  0  0  0  0  0
   35.0218  100.3536   -0.1473 C   0  0  2  0  0  0  0  0  0  0  0  0
   33.5487  100.7927   -0.1797 C   0  0  0  0  0  0  0  0  0  0  0  0
   33.5857  102.1934    0.0491 N   0  0  0  0  0  0  0  0  0  0  0  0
   32.7896  103.0603    0.8094 C   0  0  0  0  0  0  0  0  0  0  0  0
   32.3927  102.6759    2.0735 N   0  0  0  0  0  0  0  0  0  0  0  0
   31.6102  103.3684    2.8770 C   0  0  0  0  0  0  0  0  0  0  0  0
   31.2572  102.9245    4.1179 N   0  0  0  0  0  0  0  0  0  0  0  0
   30.4603  103.6250    4.9392 C   0  0  0  0  0  0  0  0  0  0  0  0
   30.1110  103.1321    6.2300 N   0  0  0  0  0  0  0  0  0  0  0  0
   30.0004  104.8126    4.5020 N   0  0  0  0  0  0  0  0  0  0  0  0
   30.3170  105.2983    3.2873 C   0  0  0  0  0  0  0  0  0  0  0  0
   31.1301  104.5864    2.4461 C   0  0  0  0  0  0  0  0  0  0  0  0
   31.4937  105.0237    1.1909 C   0  0  0  0  0  0  0  0  0  0  0  0
   32.3321  104.2679    0.3487 C   0  0  0  0  0  0  0  0  0  0  0  0
   32.6588  104.8446   -0.9294 C   0  0  0  0  0  0  0  0  0  0  0  0
   31.7516  104.6568   -1.9790 C   0  0  0  0  0  0  0  0  0  0  0  0
   30.3022  103.7332   -1.6777 Cl  0  0  0  0  0  0  0  0  0  0  0  0
   31.9874  105.1860   -3.2273 C   0  0  0  0  0  0  0  0  0  0  0  0
   33.1266  105.9178   -3.4795 C   0  0  0  0  0  0  0  0  0  0  0  0
   34.0200  106.1083   -2.4610 C   0  0  0  0  0  0  0  0  0  0  0  0
   33.7775  105.5668   -1.1836 C   0  0  0  0  0  0  0  0  0  0  0  0
   34.7417  105.8294   -0.1422 C   0  0  0  0  0  0  0  0  0  0  0  0
   36.0063  105.3003   -0.1930 C   0  0  0  0  0  0  0  0  0  0  0  0
   36.9420  105.5648    0.8183 C   0  0  0  0  0  0  0  0  0  0  0  0
   36.5900  106.3675    1.8794 C   0  0  0  0  0  0  0  0  0  0  0  0
   35.3518  106.8768    1.9135 N   0  0  0  0  0  0  0  0  0  0  0  0
   34.4310  106.6233    0.9293 C   0  0  0  0  0  0  0  0  0  0  0  0
  2  1  1  6
  1  7  1  0
  2  3  1  0
  2  5  1  0
  3  4  1  1
  3  5  1  0
  5  6  1  6
  6  7  1  0
  7  8  1  0
  8  9  2  0
  8 18  1  0
  9 10  1  0
 10 11  2  0
 10 16  1  0
 11 12  1  0
 12 13  1  0
 12 14  2  0
 14 15  1  0
 15 16  2  0
 16 17  1  0
 17 18  2  0
 18 19  1  0
 19 20  2  0
 19 25  1  0
 20 21  1  0
 20 22  1  0
 22 23  2  0
 23 24  1  0
 24 25  2  0
 25 26  1  0
 26 27  2  0
 26 31  1  0
 27 28  1  0
 28 29  2  0
 29 30  1  0
 30 31  2  0
M  CHG  1   4   1
M  END
$$$$
