
     RDKit          3D

 31 36  0  0  0  0  0  0  0  0999 V2000
   34.8821  104.4291   -1.0138 C   0  0  0  0  0  0  0  0  0  0  0  0
   35.9488  105.4945   -0.9179 C   0  0  2  0  0  0  0  0  0  0  0  0
   37.3740  105.0076   -1.0258 C   0  0  1  0  0  0  0  0  0  0  0  0
   38.3322  106.0029   -1.4337 N   0  0  0  0  0  4  0  0  0  0  0  0
   36.7151  105.1704    0.3046 C   0  0  2  0  0  0  0  0  0  0  0  0
   36.0274  103.9304    0.8991 C   0  0  0  0  0  0  0  0  0  0  0  0
   34.7076  103.9659    0.3770 N   0  0  0  0  0  0  0  0  0  0  0  0
   33.4505  103.6974    0.9344 C   0  0  0  0  0  0  0  0  0  0  0  0
   33.1728  104.1357    2.2127 N   0  0  0  0  0  0  0  0  0  0  0  0
   32.0542  103.9160    2.8744 C   0  0  0  0  0  0  0  0  0  0  0  0
   31.8484  104.3808    4.1405 N   0  0  0  0  0  0  0  0  0  0  0  0
   30.7121  104.1591    4.8188 C   0  0  0  0  0  0  0  0  0  0  0  0
   30.5295  104.6593    6.1407 N   0  0  0  0  0  0  0  0  0  0  0  0
   29.7474  103.4463    4.2070 N   0  0  0  0  0  0  0  0  0  0  0  0
   29.8974  102.9641    2.9594 C   0  0  0  0  0  0  0  0  0  0  0  0
   31.0556  103.1882    2.2638 C   0  0  0  0  0  0  0  0  0  0  0  0
   31.2755  102.7242    0.9850 C   0  0  0  0  0  0  0  0  0  0  0  0
   32.4784  102.9715    0.2956 C   0  0  0  0  0  0  0  0  0  0  0  0
   32.5770  102.4542   -1.0444 C   0  0  0  0  0  0  0  0  0  0  0  0
   31.8929  103.1367   -2.0574 C   0  0  0  0  0  0  0  0  0  0  0  0
   30.9622  104.5505   -1.6334 Cl  0  0  0  0  0  0  0  0  0  0  0  0
   31.9468  102.7108   -3.3649 C   0  0  0  0  0  0  0  0  0  0  0  0
   32.6780  101.5972   -3.7144 C   0  0  0  0  0  0  0  0  0  0  0  0
   33.3511  100.9226   -2.7328 C   0  0  0  0  0  0  0  0  0  0  0  0
   33.2958  101.3596   -1.3950 C   0  0  0  0  0  0  0  0  0  0  0  0
   34.0531  100.6247   -0.4104 C   0  0  0  0  0  0  0  0  0  0  0  0
   33.4286   99.9004    0.5730 C   0  0  0  0  0  0  0  0  0  0  0  0
   34.1696   99.1819    1.5231 C   0  0  0  0  0  0  0  0  0  0  0  0
   35.5448   99.2009    1.4713 C   0  0  0  0  0  0  0  0  0  0  0  0
   36.1389   99.9123    0.5046 N   0  0  0  0  0  0  0  0  0  0  0  0
   35.4223  100.6175   -0.4281 C   0  0  0  0  0  0  0  0  0  0  0  0
  2  1  1  6
  1  7  1  0
  2  3  1  0
  2  5  1  0
  3  4  1  1
  3  5  1  0
  5  6  1  6
  6  7  1  0
  7  8  1  0
  8  9  2  0
  8 18  1  0
  9 10  1  0
 10 11  2  0
 10 16  1  0
 11 12  1  0
 12 13  1  0
 12 14  2  0
 14 15  1  0
 15 16  2  0
 16 17  1  0
 17 18  2  0
 18 19  1  0
 19 20  2  0
 19 25  1  0
 20 21  1  0
 20 22  1  0
 22 23  2  0
 23 24  1  0
 24 25  2  0
 25 26  1  0
 26 27  2  0
 26 31  1  0
 27 28  1  0
 28 29  2  0
 29 30  1  0
 30 31  2  0
M  CHG  1   4   1
M  END
$$$$
