
     RDKit          3D

 31 36  0  0  0  0  0  0  0  0999 V2000
   34.0834  100.8701    0.7307 C   0  0  0  0  0  0  0  0  0  0  0  0
   34.4546  100.4337   -0.6672 C   0  0  2  0  0  0  0  0  0  0  0  0
   35.9130  100.1110   -0.8882 C   0  0  1  0  0  0  0  0  0  0  0  0
   36.1862   99.2465   -2.0076 N   0  0  0  0  0  4  0  0  0  0  0  0
   35.3757  101.4758   -1.1695 C   0  0  2  0  0  0  0  0  0  0  0  0
   35.4745  102.5116   -0.0375 C   0  0  0  0  0  0  0  0  0  0  0  0
   34.2865  102.3323    0.7189 N   0  0  0  0  0  0  0  0  0  0  0  0
   33.3967  103.2261    1.3294 C   0  0  0  0  0  0  0  0  0  0  0  0
   32.6372  102.7962    2.3978 N   0  0  0  0  0  0  0  0  0  0  0  0
   31.7327  103.5124    3.0354 C   0  0  0  0  0  0  0  0  0  0  0  0
   31.0160  103.0201    4.0867 N   0  0  0  0  0  0  0  0  0  0  0  0
   30.0936  103.7447    4.7383 C   0  0  0  0  0  0  0  0  0  0  0  0
   29.3624  103.1996    5.8334 N   0  0  0  0  0  0  0  0  0  0  0  0
   29.8814  105.0074    4.3220 N   0  0  0  0  0  0  0  0  0  0  0  0
   30.5599  105.5433    3.2904 C   0  0  0  0  0  0  0  0  0  0  0  0
   31.5022  104.8072    2.6228 C   0  0  0  0  0  0  0  0  0  0  0  0
   32.2324  105.2927    1.5598 C   0  0  0  0  0  0  0  0  0  0  0  0
   33.1950  104.5102    0.8933 C   0  0  0  0  0  0  0  0  0  0  0  0
   33.9089  105.1398   -0.1869 C   0  0  0  0  0  0  0  0  0  0  0  0
   35.1401  105.7376    0.1079 C   0  0  0  0  0  0  0  0  0  0  0  0
   35.7198  105.6932    1.7531 Cl  0  0  0  0  0  0  0  0  0  0  0  0
   35.8872  106.3499   -0.8723 C   0  0  0  0  0  0  0  0  0  0  0  0
   35.4427  106.3919   -2.1752 C   0  0  0  0  0  0  0  0  0  0  0  0
   34.2412  105.8105   -2.4750 C   0  0  0  0  0  0  0  0  0  0  0  0
   33.4775  105.1834   -1.4713 C   0  0  0  0  0  0  0  0  0  0  0  0
   32.2339  104.5602   -1.8561 C   0  0  0  0  0  0  0  0  0  0  0  0
   32.1931  103.2580   -2.2853 C   0  0  0  0  0  0  0  0  0  0  0  0
   30.9804  102.6548   -2.6510 C   0  0  0  0  0  0  0  0  0  0  0  0
   29.8111  103.3772   -2.5792 C   0  0  0  0  0  0  0  0  0  0  0  0
   29.8681  104.6469   -2.1575 N   0  0  0  0  0  0  0  0  0  0  0  0
   31.0492  105.2443   -1.7981 C   0  0  0  0  0  0  0  0  0  0  0  0
  2  1  1  1
  1  7  1  0
  2  3  1  0
  2  5  1  0
  3  4  1  6
  3  5  1  0
  5  6  1  1
  6  7  1  0
  7  8  1  0
  8  9  2  0
  8 18  1  0
  9 10  1  0
 10 11  2  0
 10 16  1  0
 11 12  1  0
 12 13  1  0
 12 14  2  0
 14 15  1  0
 15 16  2  0
 16 17  1  0
 17 18  2  0
 18 19  1  0
 19 20  2  0
 19 25  1  0
 20 21  1  0
 20 22  1  0
 22 23  2  0
 23 24  1  0
 24 25  2  0
 25 26  1  0
 26 27  2  0
 26 31  1  0
 27 28  1  0
 28 29  2  0
 29 30  1  0
 30 31  2  0
M  CHG  1   4   1
M  END
$$$$
