
     RDKit          3D

 31 36  0  0  0  0  0  0  0  0999 V2000
   34.5690  100.6856    1.1464 C   0  0  0  0  0  0  0  0  0  0  0  0
   34.7074   99.6791    0.0284 C   0  0  2  0  0  0  0  0  0  0  0  0
   36.0785   99.5762   -0.5956 C   0  0  1  0  0  0  0  0  0  0  0  0
   36.3526   98.3334   -1.2706 N   0  0  0  0  0  4  0  0  0  0  0  0
   35.0351  100.4745   -1.1743 C   0  0  2  0  0  0  0  0  0  0  0  0
   35.0372  101.9389   -0.7056 C   0  0  0  0  0  0  0  0  0  0  0  0
   34.2239  101.9452    0.4581 N   0  0  0  0  0  0  0  0  0  0  0  0
   33.2571  102.8348    0.9450 C   0  0  0  0  0  0  0  0  0  0  0  0
   32.8169  102.7053    2.2460 N   0  0  0  0  0  0  0  0  0  0  0  0
   31.8842  103.4401    2.8186 C   0  0  0  0  0  0  0  0  0  0  0  0
   31.4974  103.2546    4.1137 N   0  0  0  0  0  0  0  0  0  0  0  0
   30.5479  103.9990    4.7008 C   0  0  0  0  0  0  0  0  0  0  0  0
   30.1676  103.7790    6.0565 N   0  0  0  0  0  0  0  0  0  0  0  0
   29.9649  104.9637    3.9642 N   0  0  0  0  0  0  0  0  0  0  0  0
   30.3079  105.1898    2.6825 C   0  0  0  0  0  0  0  0  0  0  0  0
   31.2765  104.4323    2.0797 C   0  0  0  0  0  0  0  0  0  0  0  0
   31.6758  104.6096    0.7728 C   0  0  0  0  0  0  0  0  0  0  0  0
   32.6755  103.8136    0.1810 C   0  0  0  0  0  0  0  0  0  0  0  0
   33.0210  104.1135   -1.1841 C   0  0  0  0  0  0  0  0  0  0  0  0
   32.1589  103.6577   -2.1887 C   0  0  0  0  0  0  0  0  0  0  0  0
   30.7404  102.7524   -1.7274 Cl  0  0  0  0  0  0  0  0  0  0  0  0
   32.4145  103.9135   -3.5165 C   0  0  0  0  0  0  0  0  0  0  0  0
   33.5297  104.6275   -3.8953 C   0  0  0  0  0  0  0  0  0  0  0  0
   34.3790  105.0783   -2.9221 C   0  0  0  0  0  0  0  0  0  0  0  0
   34.1162  104.8167   -1.5633 C   0  0  0  0  0  0  0  0  0  0  0  0
   35.0323  105.3462   -0.5819 C   0  0  0  0  0  0  0  0  0  0  0  0
   34.6055  106.2020    0.4016 C   0  0  0  0  0  0  0  0  0  0  0  0
   35.4989  106.7079    1.3577 C   0  0  0  0  0  0  0  0  0  0  0  0
   36.8250  106.3423    1.3120 C   0  0  0  0  0  0  0  0  0  0  0  0
   37.2252  105.5054    0.3461 N   0  0  0  0  0  0  0  0  0  0  0  0
   36.3587  105.0062   -0.5924 C   0  0  0  0  0  0  0  0  0  0  0  0
  2  1  1  1
  1  7  1  0
  2  3  1  0
  2  5  1  0
  3  4  1  6
  3  5  1  0
  5  6  1  1
  6  7  1  0
  7  8  1  0
  8  9  2  0
  8 18  1  0
  9 10  1  0
 10 11  2  0
 10 16  1  0
 11 12  1  0
 12 13  1  0
 12 14  2  0
 14 15  1  0
 15 16  2  0
 16 17  1  0
 17 18  2  0
 18 19  1  0
 19 20  2  0
 19 25  1  0
 20 21  1  0
 20 22  1  0
 22 23  2  0
 23 24  1  0
 24 25  2  0
 25 26  1  0
 26 27  2  0
 26 31  1  0
 27 28  1  0
 28 29  2  0
 29 30  1  0
 30 31  2  0
M  CHG  1   4   1
M  END
$$$$
