
     RDKit          3D

 31 36  0  0  0  0  0  0  0  0999 V2000
   34.7538  102.2673   -0.8513 C   0  0  0  0  0  0  0  0  0  0  0  0
   35.8707  101.2959   -0.5494 C   0  0  2  0  0  0  0  0  0  0  0  0
   35.8501  100.0074   -1.3364 C   0  0  1  0  0  0  0  0  0  0  0  0
   37.1176   99.3302   -1.4361 N   0  0  0  0  0  4  0  0  0  0  0  0
   35.2060  100.0982    0.0080 C   0  0  2  0  0  0  0  0  0  0  0  0
   33.7080  100.4430    0.0422 C   0  0  0  0  0  0  0  0  0  0  0  0
   33.6658  101.8620    0.0606 N   0  0  0  0  0  0  0  0  0  0  0  0
   32.8739  102.7869    0.7539 C   0  0  0  0  0  0  0  0  0  0  0  0
   32.4887  102.5070    2.0487 N   0  0  0  0  0  0  0  0  0  0  0  0
   31.7113  103.2617    2.7994 C   0  0  0  0  0  0  0  0  0  0  0  0
   31.3699  102.9206    4.0755 N   0  0  0  0  0  0  0  0  0  0  0  0
   30.5782  103.6848    4.8434 C   0  0  0  0  0  0  0  0  0  0  0  0
   30.2411  103.2990    6.1732 N   0  0  0  0  0  0  0  0  0  0  0  0
   30.1116  104.8316    4.3141 N   0  0  0  0  0  0  0  0  0  0  0  0
   30.4166  105.2163    3.0608 C   0  0  0  0  0  0  0  0  0  0  0  0
   31.2244  104.4393    2.2739 C   0  0  0  0  0  0  0  0  0  0  0  0
   31.5762  104.7726    0.9840 C   0  0  0  0  0  0  0  0  0  0  0  0
   32.4094  103.9518    0.1996 C   0  0  0  0  0  0  0  0  0  0  0  0
   32.7238  104.4220   -1.1244 C   0  0  0  0  0  0  0  0  0  0  0  0
   31.8218  104.1229   -2.1525 C   0  0  0  0  0  0  0  0  0  0  0  0
   30.3935  103.1965   -1.7699 Cl  0  0  0  0  0  0  0  0  0  0  0  0
   32.0463  104.5465   -3.4425 C   0  0  0  0  0  0  0  0  0  0  0  0
   33.1688  105.2791   -3.7590 C   0  0  0  0  0  0  0  0  0  0  0  0
   34.0569  105.5779   -2.7622 C   0  0  0  0  0  0  0  0  0  0  0  0
   33.8260  105.1445   -1.4421 C   0  0  0  0  0  0  0  0  0  0  0  0
   34.7833  105.5186   -0.4289 C   0  0  0  0  0  0  0  0  0  0  0  0
   36.0889  105.1031   -0.4949 C   0  0  0  0  0  0  0  0  0  0  0  0
   37.0170  105.4759    0.4888 C   0  0  0  0  0  0  0  0  0  0  0  0
   36.6157  106.2712    1.5380 C   0  0  0  0  0  0  0  0  0  0  0  0
   35.3379  106.6689    1.5872 N   0  0  0  0  0  0  0  0  0  0  0  0
   34.4241  106.3091    0.6299 C   0  0  0  0  0  0  0  0  0  0  0  0
  2  1  1  6
  1  7  1  0
  2  3  1  0
  2  5  1  0
  3  4  1  1
  3  5  1  0
  5  6  1  6
  6  7  1  0
  7  8  1  0
  8  9  2  0
  8 18  1  0
  9 10  1  0
 10 11  2  0
 10 16  1  0
 11 12  1  0
 12 13  1  0
 12 14  2  0
 14 15  1  0
 15 16  2  0
 16 17  1  0
 17 18  2  0
 18 19  1  0
 19 20  2  0
 19 25  1  0
 20 21  1  0
 20 22  1  0
 22 23  2  0
 23 24  1  0
 24 25  2  0
 25 26  1  0
 26 27  2  0
 26 31  1  0
 27 28  1  0
 28 29  2  0
 29 30  1  0
 30 31  2  0
M  CHG  1   4   1
M  END
$$$$
