
     RDKit          3D

 31 36  0  0  0  0  0  0  0  0999 V2000
   33.4890  101.0337   -0.3067 C   0  0  0  0  0  0  0  0  0  0  0  0
   34.2343  100.9831   -1.6197 C   0  0  2  0  0  0  0  0  0  0  0  0
   35.5327  100.2124   -1.6078 C   0  0  1  0  0  0  0  0  0  0  0  0
   35.9760   99.7392   -2.8941 N   0  0  0  0  0  4  0  0  0  0  0  0
   35.5108  101.6868   -1.3711 C   0  0  2  0  0  0  0  0  0  0  0  0
   35.4379  102.1579    0.0906 C   0  0  0  0  0  0  0  0  0  0  0  0
   34.0494  102.2133    0.3819 N   0  0  0  0  0  0  0  0  0  0  0  0
   33.2568  103.1220    1.0954 C   0  0  0  0  0  0  0  0  0  0  0  0
   32.5063  102.6696    2.1608 N   0  0  0  0  0  0  0  0  0  0  0  0
   31.6860  103.4009    2.8887 C   0  0  0  0  0  0  0  0  0  0  0  0
   30.9725  102.8845    3.9307 N   0  0  0  0  0  0  0  0  0  0  0  0
   30.1355  103.6243    4.6739 C   0  0  0  0  0  0  0  0  0  0  0  0
   29.4051  103.0532    5.7562 N   0  0  0  0  0  0  0  0  0  0  0  0
   30.0085  104.9281    4.3623 N   0  0  0  0  0  0  0  0  0  0  0  0
   30.6881  105.4892    3.3450 C   0  0  0  0  0  0  0  0  0  0  0  0
   31.5433  104.7375    2.5840 C   0  0  0  0  0  0  0  0  0  0  0  0
   32.2692  105.2472    1.5294 C   0  0  0  0  0  0  0  0  0  0  0  0
   33.1411  104.4478    0.7652 C   0  0  0  0  0  0  0  0  0  0  0  0
   33.8615  105.1032   -0.2951 C   0  0  0  0  0  0  0  0  0  0  0  0
   35.2057  105.4222   -0.0683 C   0  0  0  0  0  0  0  0  0  0  0  0
   35.9124  105.0207    1.4757 Cl  0  0  0  0  0  0  0  0  0  0  0  0
   35.9643  106.0394   -1.0366 C   0  0  0  0  0  0  0  0  0  0  0  0
   35.4201  106.3615   -2.2601 C   0  0  0  0  0  0  0  0  0  0  0  0
   34.1076  106.0539   -2.4932 C   0  0  0  0  0  0  0  0  0  0  0  0
   33.3321  105.4217   -1.5018 C   0  0  0  0  0  0  0  0  0  0  0  0
   31.9628  105.0941   -1.8192 C   0  0  0  0  0  0  0  0  0  0  0  0
   31.5899  103.8091   -2.1214 C   0  0  0  0  0  0  0  0  0  0  0  0
   30.2561  103.4949   -2.4219 C   0  0  0  0  0  0  0  0  0  0  0  0
   29.3035  104.4883   -2.4142 C   0  0  0  0  0  0  0  0  0  0  0  0
   29.6840  105.7373   -2.1163 N   0  0  0  0  0  0  0  0  0  0  0  0
   30.9855  106.0532   -1.8214 C   0  0  0  0  0  0  0  0  0  0  0  0
  2  1  1  1
  1  7  1  0
  2  3  1  0
  2  5  1  0
  3  4  1  6
  3  5  1  0
  5  6  1  1
  6  7  1  0
  7  8  1  0
  8  9  2  0
  8 18  1  0
  9 10  1  0
 10 11  2  0
 10 16  1  0
 11 12  1  0
 12 13  1  0
 12 14  2  0
 14 15  1  0
 15 16  2  0
 16 17  1  0
 17 18  2  0
 18 19  1  0
 19 20  2  0
 19 25  1  0
 20 21  1  0
 20 22  1  0
 22 23  2  0
 23 24  1  0
 24 25  2  0
 25 26  1  0
 26 27  2  0
 26 31  1  0
 27 28  1  0
 28 29  2  0
 29 30  1  0
 30 31  2  0
M  CHG  1   4   1
M  END
$$$$
