
     RDKit          3D

 31 36  0  0  0  0  0  0  0  0999 V2000
   34.3596  101.8778   -0.9066 C   0  0  0  0  0  0  0  0  0  0  0  0
   35.8191  101.4953   -0.8314 C   0  0  2  0  0  0  0  0  0  0  0  0
   36.1236  100.0288   -1.0224 C   0  0  1  0  0  0  0  0  0  0  0  0
   37.4679   99.7325   -1.4470 N   0  0  0  0  0  4  0  0  0  0  0  0
   35.9284  100.6027    0.3425 C   0  0  2  0  0  0  0  0  0  0  0  0
   34.5107  100.5317    0.9332 C   0  0  0  0  0  0  0  0  0  0  0  0
   33.8712  101.7143    0.4770 N   0  0  0  0  0  0  0  0  0  0  0  0
   33.0010  102.6277    1.0866 C   0  0  0  0  0  0  0  0  0  0  0  0
   32.4768  102.3330    2.3281 N   0  0  0  0  0  0  0  0  0  0  0  0
   31.6158  103.0758    2.9949 C   0  0  0  0  0  0  0  0  0  0  0  0
   31.1376  102.7203    4.2222 N   0  0  0  0  0  0  0  0  0  0  0  0
   30.2604  103.4723    4.9045 C   0  0  0  0  0  0  0  0  0  0  0  0
   29.7808  103.0715    6.1853 N   0  0  0  0  0  0  0  0  0  0  0  0
   29.8474  104.6214    4.3371 N   0  0  0  0  0  0  0  0  0  0  0  0
   30.2867  105.0202    3.1289 C   0  0  0  0  0  0  0  0  0  0  0  0
   31.1820  104.2555    2.4294 C   0  0  0  0  0  0  0  0  0  0  0  0
   31.6722  104.6035    1.1895 C   0  0  0  0  0  0  0  0  0  0  0  0
   32.5927  103.7952    0.4948 C   0  0  0  0  0  0  0  0  0  0  0  0
   33.0485  104.2802   -0.7819 C   0  0  0  0  0  0  0  0  0  0  0  0
   32.3877  103.8193   -1.9268 C   0  0  0  0  0  0  0  0  0  0  0  0
   31.0741  102.6867   -1.7363 Cl  0  0  0  0  0  0  0  0  0  0  0  0
   32.7575  104.2447   -3.1823 C   0  0  0  0  0  0  0  0  0  0  0  0
   33.7918  105.1390   -3.3478 C   0  0  0  0  0  0  0  0  0  0  0  0
   34.4444  105.5966   -2.2360 C   0  0  0  0  0  0  0  0  0  0  0  0
   34.0649  105.1612   -0.9513 C   0  0  0  0  0  0  0  0  0  0  0  0
   34.7706  105.7046    0.1843 C   0  0  0  0  0  0  0  0  0  0  0  0
   35.6476  104.9393    0.9103 C   0  0  0  0  0  0  0  0  0  0  0  0
   36.3365  105.4748    2.0088 C   0  0  0  0  0  0  0  0  0  0  0  0
   36.1327  106.7880    2.3669 C   0  0  0  0  0  0  0  0  0  0  0  0
   35.2740  107.5216    1.6472 N   0  0  0  0  0  0  0  0  0  0  0  0
   34.5963  107.0062    0.5721 C   0  0  0  0  0  0  0  0  0  0  0  0
  2  1  1  6
  1  7  1  0
  2  3  1  0
  2  5  1  0
  3  4  1  1
  3  5  1  0
  5  6  1  6
  6  7  1  0
  7  8  1  0
  8  9  2  0
  8 18  1  0
  9 10  1  0
 10 11  2  0
 10 16  1  0
 11 12  1  0
 12 13  1  0
 12 14  2  0
 14 15  1  0
 15 16  2  0
 16 17  1  0
 17 18  2  0
 18 19  1  0
 19 20  2  0
 19 25  1  0
 20 21  1  0
 20 22  1  0
 22 23  2  0
 23 24  1  0
 24 25  2  0
 25 26  1  0
 26 27  2  0
 26 31  1  0
 27 28  1  0
 28 29  2  0
 29 30  1  0
 30 31  2  0
M  CHG  1   4   1
M  END
$$$$
