
     RDKit          3D

 11 12  0  0  0  0  0  0  0  0999 V2000
  -17.0873   -5.8724  -25.2539 C   0  0  0  0  0  0  0  0  0  0  0  0
  -17.8797   -4.7959  -25.6286 C   0  0  0  0  0  0  0  0  0  0  0  0
  -15.6690   -5.5806  -27.1795 C   0  0  0  0  0  0  0  0  0  0  0  0
  -17.2922   -1.8735  -27.4874 C   0  0  0  0  0  0  0  0  0  0  0  0
  -16.2168   -2.2559  -28.4472 C   0  0  0  0  0  0  0  0  0  0  0  0
  -18.3112   -2.9773  -27.2746 C   0  0  0  0  0  0  0  0  0  0  0  0
  -16.1788   -3.7126  -28.7963 C   0  0  0  0  0  0  0  0  0  0  0  0
  -16.0024   -6.2505  -26.0232 C   0  0  0  0  0  0  0  0  0  0  0  0
  -17.5312   -4.1405  -26.7847 C   0  0  0  0  0  0  0  0  0  0  0  0
  -16.4531   -4.5136  -27.5523 C   0  0  0  0  0  0  0  0  0  0  0  0
  -15.2294   -7.3183  -25.6371 O   0  0  0  0  0  0  0  0  0  0  0  0
  2  1  2  0
  1  8  1  0
  9  2  1  0
  8  3  2  0
  3 10  1  0
  4  5  1  0
  6  4  1  0
  5  7  1  0
  6  9  1  0
  7 10  1  0
  8 11  1  0
  9 10  2  0
M  END
$$$$
