
     RDKit          3D

 11 12  0  0  0  0  0  0  0  0999 V2000
  -15.5373   -6.0375  -26.2810 C   0  0  0  0  0  0  0  0  0  0  0  0
  -15.1787   -5.0381  -27.1752 C   0  0  0  0  0  0  0  0  0  0  0  0
  -17.6555   -4.9754  -25.8448 C   0  0  0  0  0  0  0  0  0  0  0  0
  -16.9971   -2.8574  -29.2438 C   0  0  0  0  0  0  0  0  0  0  0  0
  -18.2873   -2.6550  -28.5238 C   0  0  0  0  0  0  0  0  0  0  0  0
  -15.8032   -2.9103  -28.3090 C   0  0  0  0  0  0  0  0  0  0  0  0
  -18.2068   -2.8218  -27.0368 C   0  0  0  0  0  0  0  0  0  0  0  0
  -16.7575   -5.9978  -25.6318 C   0  0  0  0  0  0  0  0  0  0  0  0
  -16.0874   -4.0270  -27.3743 C   0  0  0  0  0  0  0  0  0  0  0  0
  -17.3017   -3.9842  -26.7305 C   0  0  0  0  0  0  0  0  0  0  0  0
  -17.0956   -6.9954  -24.7502 O   0  0  0  0  0  0  0  0  0  0  0  0
  2  1  2  0
  1  8  1  0
  9  2  1  0
  8  3  2  0
  3 10  1  0
  4  5  1  0
  6  4  1  0
  5  7  1  0
  6  9  1  0
  7 10  1  0
  8 11  1  0
  9 10  2  0
M  END
$$$$
