
     RDKit          3D

 11 12  0  0  0  0  0  0  0  0999 V2000
  -15.3693   -6.2620  -27.0537 C   0  0  0  0  0  0  0  0  0  0  0  0
  -15.4948   -5.0956  -27.8242 C   0  0  0  0  0  0  0  0  0  0  0  0
  -17.3149   -5.5998  -25.7896 C   0  0  0  0  0  0  0  0  0  0  0  0
  -16.8585   -1.8417  -27.3621 C   0  0  0  0  0  0  0  0  0  0  0  0
  -17.8004   -2.1286  -26.2511 C   0  0  0  0  0  0  0  0  0  0  0  0
  -16.6827   -2.9554  -28.3694 C   0  0  0  0  0  0  0  0  0  0  0  0
  -18.4705   -3.4814  -26.3465 C   0  0  0  0  0  0  0  0  0  0  0  0
  -16.2803   -6.5147  -26.0350 C   0  0  0  0  0  0  0  0  0  0  0  0
  -16.5066   -4.1974  -27.5870 C   0  0  0  0  0  0  0  0  0  0  0  0
  -17.3948   -4.4716  -26.5727 C   0  0  0  0  0  0  0  0  0  0  0  0
  -16.1646   -7.6649  -25.2678 O   0  0  0  0  0  0  0  0  0  0  0  0
  2  1  2  0
  1  8  1  0
  9  2  1  0
  8  3  2  0
  3 10  1  0
  4  5  1  0
  4  6  1  6
  5  7  1  6
  6  9  1  6
  7 10  1  6
  8 11  1  0
  9 10  2  0
M  END
$$$$
