
     RDKit          3D

 11 12  0  0  0  0  0  0  0  0999 V2000
  -17.0840   -1.8986  -27.7900 C   0  0  0  0  0  0  0  0  0  0  0  0
  -17.5906   -2.5794  -26.6720 C   0  0  0  0  0  0  0  0  0  0  0  0
  -16.1387   -3.9711  -28.5857 C   0  0  0  0  0  0  0  0  0  0  0  0
  -16.7239   -5.4949  -24.8253 C   0  0  0  0  0  0  0  0  0  0  0  0
  -15.9229   -6.2048  -25.8540 C   0  0  0  0  0  0  0  0  0  0  0  0
  -17.8907   -4.6899  -25.3512 C   0  0  0  0  0  0  0  0  0  0  0  0
  -16.4481   -6.0420  -27.2632 C   0  0  0  0  0  0  0  0  0  0  0  0
  -16.3571   -2.5951  -28.7482 C   0  0  0  0  0  0  0  0  0  0  0  0
  -17.3788   -3.9268  -26.5094 C   0  0  0  0  0  0  0  0  0  0  0  0
  -16.6561   -4.5922  -27.4726 C   0  0  0  0  0  0  0  0  0  0  0  0
  -15.8523   -1.9310  -29.8568 O   0  0  0  0  0  0  0  0  0  0  0  0
  2  1  2  0
  1  8  1  0
  9  2  1  0
  8  3  2  0
  3 10  1  0
  4  5  1  0
  4  6  1  6
  5  7  1  6
  6  9  1  6
  7 10  1  6
  8 11  1  0
  9 10  2  0
M  END
$$$$
