
     RDKit          3D

 11 12  0  0  0  0  0  0  0  0999 V2000
  -16.9433   -5.8866  -25.2607 C   0  0  0  0  0  0  0  0  0  0  0  0
  -17.7473   -4.8469  -25.7076 C   0  0  0  0  0  0  0  0  0  0  0  0
  -15.4796   -5.6561  -27.1606 C   0  0  0  0  0  0  0  0  0  0  0  0
  -17.1703   -2.0045  -27.6897 C   0  0  0  0  0  0  0  0  0  0  0  0
  -16.0615   -2.4086  -28.6015 C   0  0  0  0  0  0  0  0  0  0  0  0
  -18.1716   -3.1190  -27.4504 C   0  0  0  0  0  0  0  0  0  0  0  0
  -15.9839   -3.8792  -28.8786 C   0  0  0  0  0  0  0  0  0  0  0  0
  -15.8303   -6.2770  -25.9823 C   0  0  0  0  0  0  0  0  0  0  0  0
  -17.3813   -4.2401  -26.8847 C   0  0  0  0  0  0  0  0  0  0  0  0
  -16.2752   -4.6257  -27.6049 C   0  0  0  0  0  0  0  0  0  0  0  0
  -15.0461   -7.3079  -25.5248 O   0  0  0  0  0  0  0  0  0  0  0  0
  2  1  2  0
  1  8  1  0
  9  2  1  0
  8  3  2  0
  3 10  1  0
  4  5  1  0
  6  4  1  0
  5  7  1  0
  6  9  1  0
  7 10  1  0
  8 11  1  0
  9 10  2  0
M  END
$$$$
