
     RDKit          3D

 11 12  0  0  0  0  0  0  0  0999 V2000
  -16.7748   -1.9582  -28.4032 C   0  0  0  0  0  0  0  0  0  0  0  0
  -15.9860   -3.1068  -28.2344 C   0  0  0  0  0  0  0  0  0  0  0  0
  -18.0132   -2.5542  -26.4200 C   0  0  0  0  0  0  0  0  0  0  0  0
  -16.3888   -6.3053  -26.7280 C   0  0  0  0  0  0  0  0  0  0  0  0
  -17.4963   -5.9942  -25.7897 C   0  0  0  0  0  0  0  0  0  0  0  0
  -15.3996   -5.1857  -26.9603 C   0  0  0  0  0  0  0  0  0  0  0  0
  -17.4156   -4.6124  -25.1792 C   0  0  0  0  0  0  0  0  0  0  0  0
  -17.7897   -1.6813  -27.4950 C   0  0  0  0  0  0  0  0  0  0  0  0
  -16.2018   -3.9640  -27.1829 C   0  0  0  0  0  0  0  0  0  0  0  0
  -17.2128   -3.6664  -26.2985 C   0  0  0  0  0  0  0  0  0  0  0  0
  -18.5748   -0.5484  -27.6535 O   0  0  0  0  0  0  0  0  0  0  0  0
  2  1  2  0
  1  8  1  0
  9  2  1  0
  8  3  2  0
  3 10  1  0
  4  5  1  0
  4  6  1  6
  5  7  1  6
  6  9  1  6
  7 10  1  6
  8 11  1  0
  9 10  2  0
M  END
$$$$
