
     RDKit          3D

 11 12  0  0  0  0  0  0  0  0999 V2000
  -17.0387   -5.9805  -25.1538 C   0  0  0  0  0  0  0  0  0  0  0  0
  -17.8773   -4.9577  -25.5755 C   0  0  0  0  0  0  0  0  0  0  0  0
  -15.6824   -5.7712  -27.1341 C   0  0  0  0  0  0  0  0  0  0  0  0
  -17.4399   -2.1477  -27.6379 C   0  0  0  0  0  0  0  0  0  0  0  0
  -16.3775   -2.5578  -28.6008 C   0  0  0  0  0  0  0  0  0  0  0  0
  -18.4143   -3.2676  -27.3242 C   0  0  0  0  0  0  0  0  0  0  0  0
  -16.2986   -4.0325  -28.8546 C   0  0  0  0  0  0  0  0  0  0  0  0
  -15.9620   -6.3733  -25.9273 C   0  0  0  0  0  0  0  0  0  0  0  0
  -17.5821   -4.3696  -26.7816 C   0  0  0  0  0  0  0  0  0  0  0  0
  -16.5123   -4.7576  -27.5535 C   0  0  0  0  0  0  0  0  0  0  0  0
  -15.1428   -7.3872  -25.4942 O   0  0  0  0  0  0  0  0  0  0  0  0
  2  1  2  0
  1  8  1  0
  9  2  1  0
  8  3  2  0
  3 10  1  0
  4  5  1  0
  6  4  1  0
  5  7  1  0
  6  9  1  0
  7 10  1  0
  8 11  1  0
  9 10  2  0
M  END
$$$$
