
     RDKit          3D

 11 12  0  0  0  0  0  0  0  0999 V2000
  -17.7483   -1.4984  -26.8472 C   0  0  0  0  0  0  0  0  0  0  0  0
  -18.1145   -2.6334  -26.1071 C   0  0  0  0  0  0  0  0  0  0  0  0
  -16.4535   -2.9103  -28.3142 C   0  0  0  0  0  0  0  0  0  0  0  0
  -16.7224   -5.8443  -25.4639 C   0  0  0  0  0  0  0  0  0  0  0  0
  -15.8162   -5.9551  -26.6344 C   0  0  0  0  0  0  0  0  0  0  0  0
  -18.0194   -5.1081  -25.7131 C   0  0  0  0  0  0  0  0  0  0  0  0
  -16.3746   -5.3514  -27.9042 C   0  0  0  0  0  0  0  0  0  0  0  0
  -16.9168   -1.6368  -27.9522 C   0  0  0  0  0  0  0  0  0  0  0  0
  -17.6630   -3.8822  -26.4585 C   0  0  0  0  0  0  0  0  0  0  0  0
  -16.8411   -3.9911  -27.5565 C   0  0  0  0  0  0  0  0  0  0  0  0
  -16.5491   -0.5209  -28.6901 O   0  0  0  0  0  0  0  0  0  0  0  0
  2  1  2  0
  1  8  1  0
  9  2  1  0
  8  3  2  0
  3 10  1  0
  4  5  1  0
  4  6  1  6
  5  7  1  6
  6  9  1  6
  7 10  1  6
  8 11  1  0
  9 10  2  0
M  END
$$$$
