
     RDKit          3D

 11 12  0  0  0  0  0  0  0  0999 V2000
  -15.3266   -6.0460  -27.1085 C   0  0  0  0  0  0  0  0  0  0  0  0
  -15.3085   -4.7936  -27.7071 C   0  0  0  0  0  0  0  0  0  0  0  0
  -17.0997   -5.3791  -25.6197 C   0  0  0  0  0  0  0  0  0  0  0  0
  -17.7219   -2.2831  -28.1692 C   0  0  0  0  0  0  0  0  0  0  0  0
  -18.6410   -2.4351  -27.0046 C   0  0  0  0  0  0  0  0  0  0  0  0
  -16.2654   -2.4962  -27.8015 C   0  0  0  0  0  0  0  0  0  0  0  0
  -18.0102   -3.0324  -25.7836 C   0  0  0  0  0  0  0  0  0  0  0  0
  -16.2111   -6.3241  -26.0828 C   0  0  0  0  0  0  0  0  0  0  0  0
  -16.2020   -3.8646  -27.2316 C   0  0  0  0  0  0  0  0  0  0  0  0
  -17.0831   -4.1376  -26.2117 C   0  0  0  0  0  0  0  0  0  0  0  0
  -16.2150   -7.5690  -25.5021 O   0  0  0  0  0  0  0  0  0  0  0  0
  2  1  2  0
  1  8  1  0
  9  2  1  0
  8  3  2  0
  3 10  1  0
  4  5  1  0
  6  4  1  0
  5  7  1  0
  6  9  1  0
  7 10  1  0
  8 11  1  0
  9 10  2  0
M  END
$$$$
