
     RDKit          3D

 11 12  0  0  0  0  0  0  0  0999 V2000
  -17.4353   -2.2789  -27.4516 C   0  0  0  0  0  0  0  0  0  0  0  0
  -17.6946   -3.0775  -26.3461 C   0  0  0  0  0  0  0  0  0  0  0  0
  -15.7780   -3.8286  -28.2620 C   0  0  0  0  0  0  0  0  0  0  0  0
  -17.4349   -6.5245  -25.7205 C   0  0  0  0  0  0  0  0  0  0  0  0
  -16.3232   -6.9779  -26.6051 C   0  0  0  0  0  0  0  0  0  0  0  0
  -17.1734   -5.1670  -25.0952 C   0  0  0  0  0  0  0  0  0  0  0  0
  -15.3127   -5.9207  -26.9318 C   0  0  0  0  0  0  0  0  0  0  0  0
  -16.4910   -2.6569  -28.3881 C   0  0  0  0  0  0  0  0  0  0  0  0
  -16.9736   -4.2420  -26.2378 C   0  0  0  0  0  0  0  0  0  0  0  0
  -16.0338   -4.6211  -27.1672 C   0  0  0  0  0  0  0  0  0  0  0  0
  -16.2474   -1.8542  -29.4759 O   0  0  0  0  0  0  0  0  0  0  0  0
  2  1  2  0
  1  8  1  0
  9  2  1  0
  8  3  2  0
  3 10  1  0
  4  5  1  0
  6  4  1  0
  5  7  1  0
  6  9  1  0
  7 10  1  0
  8 11  1  0
  9 10  2  0
M  END
$$$$
