
     RDKit          3D

 11 12  0  0  0  0  0  0  0  0999 V2000
  -16.0445   -2.8156  -28.9317 C   0  0  0  0  0  0  0  0  0  0  0  0
  -15.4061   -3.9645  -28.4395 C   0  0  0  0  0  0  0  0  0  0  0  0
  -17.6259   -2.9528  -27.1145 C   0  0  0  0  0  0  0  0  0  0  0  0
  -16.3439   -6.7981  -26.5023 C   0  0  0  0  0  0  0  0  0  0  0  0
  -17.5476   -6.2461  -25.8314 C   0  0  0  0  0  0  0  0  0  0  0  0
  -15.2271   -5.8096  -26.7506 C   0  0  0  0  0  0  0  0  0  0  0  0
  -17.4289   -4.7846  -25.4595 C   0  0  0  0  0  0  0  0  0  0  0  0
  -17.1558   -2.3089  -28.2686 C   0  0  0  0  0  0  0  0  0  0  0  0
  -15.8634   -4.5979  -27.3096 C   0  0  0  0  0  0  0  0  0  0  0  0
  -16.9652   -4.0756  -26.6725 C   0  0  0  0  0  0  0  0  0  0  0  0
  -17.7938   -1.1737  -28.7474 O   0  0  0  0  0  0  0  0  0  0  0  0
  2  1  2  0
  1  8  1  0
  9  2  1  0
  8  3  2  0
  3 10  1  0
  4  5  1  0
  4  6  1  6
  5  7  1  6
  6  9  1  6
  7 10  1  6
  8 11  1  0
  9 10  2  0
M  END
$$$$
