
     RDKit          3D

 11 12  0  0  0  0  0  0  0  0999 V2000
  -15.3055   -6.2027  -26.4889 C   0  0  0  0  0  0  0  0  0  0  0  0
  -15.1153   -5.0934  -27.3014 C   0  0  0  0  0  0  0  0  0  0  0  0
  -17.2077   -5.1764  -25.4244 C   0  0  0  0  0  0  0  0  0  0  0  0
  -17.2536   -2.6113  -28.5693 C   0  0  0  0  0  0  0  0  0  0  0  0
  -18.3288   -2.4902  -27.5430 C   0  0  0  0  0  0  0  0  0  0  0  0
  -15.8790   -2.8163  -27.9605 C   0  0  0  0  0  0  0  0  0  0  0  0
  -17.9127   -2.8667  -26.1536 C   0  0  0  0  0  0  0  0  0  0  0  0
  -16.3373   -6.2340  -25.5690 C   0  0  0  0  0  0  0  0  0  0  0  0
  -15.9935   -4.0488  -27.1424 C   0  0  0  0  0  0  0  0  0  0  0  0
  -17.0207   -4.0763  -26.2287 C   0  0  0  0  0  0  0  0  0  0  0  0
  -16.5106   -7.3401  -24.7732 O   0  0  0  0  0  0  0  0  0  0  0  0
  2  1  2  0
  1  8  1  0
  9  2  1  0
  8  3  2  0
  3 10  1  0
  4  5  1  0
  6  4  1  0
  5  7  1  0
  6  9  1  0
  7 10  1  0
  8 11  1  0
  9 10  2  0
M  END
$$$$
