
     RDKit          3D

 11 12  0  0  0  0  0  0  0  0999 V2000
  -17.0667   -5.9102  -25.2710 C   0  0  0  0  0  0  0  0  0  0  0  0
  -17.8677   -4.8808  -25.7463 C   0  0  0  0  0  0  0  0  0  0  0  0
  -15.5289   -5.6471  -27.1070 C   0  0  0  0  0  0  0  0  0  0  0  0
  -17.2533   -2.0195  -27.6895 C   0  0  0  0  0  0  0  0  0  0  0  0
  -16.1013   -2.4016  -28.5560 C   0  0  0  0  0  0  0  0  0  0  0  0
  -18.2461   -3.1507  -27.4973 C   0  0  0  0  0  0  0  0  0  0  0  0
  -15.9891   -3.8694  -28.8364 C   0  0  0  0  0  0  0  0  0  0  0  0
  -15.9187   -6.2796  -25.9472 C   0  0  0  0  0  0  0  0  0  0  0  0
  -17.4625   -4.2622  -26.9042 C   0  0  0  0  0  0  0  0  0  0  0  0
  -16.3215   -4.6269  -27.5794 C   0  0  0  0  0  0  0  0  0  0  0  0
  -15.1381   -7.3006  -25.4621 O   0  0  0  0  0  0  0  0  0  0  0  0
  2  1  2  0
  1  8  1  0
  9  2  1  0
  8  3  2  0
  3 10  1  0
  4  5  1  0
  6  4  1  0
  5  7  1  0
  6  9  1  0
  7 10  1  0
  8 11  1  0
  9 10  2  0
M  END
$$$$
