
     RDKit          3D

 11 12  0  0  0  0  0  0  0  0999 V2000
  -16.8727   -6.0760  -25.2616 C   0  0  0  0  0  0  0  0  0  0  0  0
  -17.7003   -5.0255  -25.6337 C   0  0  0  0  0  0  0  0  0  0  0  0
  -15.4971   -5.7682  -27.2156 C   0  0  0  0  0  0  0  0  0  0  0  0
  -17.2251   -2.1097  -27.5346 C   0  0  0  0  0  0  0  0  0  0  0  0
  -16.1569   -2.4741  -28.5093 C   0  0  0  0  0  0  0  0  0  0  0  0
  -18.2100   -3.2380  -27.2914 C   0  0  0  0  0  0  0  0  0  0  0  0
  -16.0857   -3.9331  -28.8432 C   0  0  0  0  0  0  0  0  0  0  0  0
  -15.7918   -6.4336  -26.0462 C   0  0  0  0  0  0  0  0  0  0  0  0
  -17.3903   -4.3742  -26.8030 C   0  0  0  0  0  0  0  0  0  0  0  0
  -16.3162   -4.7270  -27.5858 C   0  0  0  0  0  0  0  0  0  0  0  0
  -14.9835   -7.4758  -25.6624 O   0  0  0  0  0  0  0  0  0  0  0  0
  2  1  2  0
  1  8  1  0
  9  2  1  0
  8  3  2  0
  3 10  1  0
  4  5  1  0
  6  4  1  0
  5  7  1  0
  6  9  1  0
  7 10  1  0
  8 11  1  0
  9 10  2  0
M  END
$$$$
