
     RDKit          3D

 11 12  0  0  0  0  0  0  0  0999 V2000
  -16.3842   -2.5867  -28.8890 C   0  0  0  0  0  0  0  0  0  0  0  0
  -15.5885   -3.6336  -28.3984 C   0  0  0  0  0  0  0  0  0  0  0  0
  -17.7472   -2.7327  -26.9034 C   0  0  0  0  0  0  0  0  0  0  0  0
  -16.0378   -6.3904  -26.1939 C   0  0  0  0  0  0  0  0  0  0  0  0
  -17.2136   -5.9019  -25.4306 C   0  0  0  0  0  0  0  0  0  0  0  0
  -15.0551   -5.3257  -26.6260 C   0  0  0  0  0  0  0  0  0  0  0  0
  -17.2007   -4.4123  -25.1675 C   0  0  0  0  0  0  0  0  0  0  0  0
  -17.4650   -2.1354  -28.1408 C   0  0  0  0  0  0  0  0  0  0  0  0
  -15.8617   -4.2210  -27.1871 C   0  0  0  0  0  0  0  0  0  0  0  0
  -16.9373   -3.7553  -26.4667 C   0  0  0  0  0  0  0  0  0  0  0  0
  -18.2574   -1.1010  -28.6172 O   0  0  0  0  0  0  0  0  0  0  0  0
  2  1  2  0
  1  8  1  0
  9  2  1  0
  8  3  2  0
  3 10  1  0
  4  5  1  0
  4  6  1  6
  5  7  1  6
  6  9  1  6
  7 10  1  6
  8 11  1  0
  9 10  2  0
M  END
$$$$
