
     RDKit          3D

 11 12  0  0  0  0  0  0  0  0999 V2000
  -14.9366   -6.2331  -26.7527 C   0  0  0  0  0  0  0  0  0  0  0  0
  -15.0843   -5.0991  -27.5664 C   0  0  0  0  0  0  0  0  0  0  0  0
  -16.9820   -5.6459  -25.6154 C   0  0  0  0  0  0  0  0  0  0  0  0
  -16.6493   -1.9160  -27.2832 C   0  0  0  0  0  0  0  0  0  0  0  0
  -17.6330   -2.2231  -26.2148 C   0  0  0  0  0  0  0  0  0  0  0  0
  -16.3574   -3.0472  -28.2430 C   0  0  0  0  0  0  0  0  0  0  0  0
  -18.2210   -3.6143  -26.3013 C   0  0  0  0  0  0  0  0  0  0  0  0
  -15.8865   -6.5071  -25.7759 C   0  0  0  0  0  0  0  0  0  0  0  0
  -16.1557   -4.2534  -27.4123 C   0  0  0  0  0  0  0  0  0  0  0  0
  -17.0813   -4.5478  -26.4379 C   0  0  0  0  0  0  0  0  0  0  0  0
  -15.7493   -7.6256  -24.9665 O   0  0  0  0  0  0  0  0  0  0  0  0
  2  1  2  0
  1  8  1  0
  9  2  1  0
  8  3  2  0
  3 10  1  0
  4  5  1  0
  4  6  1  6
  5  7  1  6
  6  9  1  6
  7 10  1  6
  8 11  1  0
  9 10  2  0
M  END
$$$$
