
     RDKit          3D

 11 12  0  0  0  0  0  0  0  0999 V2000
  -16.3199   -2.1997  -28.1763 C   0  0  0  0  0  0  0  0  0  0  0  0
  -16.0785   -2.5823  -26.8476 C   0  0  0  0  0  0  0  0  0  0  0  0
  -17.7113   -4.1513  -28.4536 C   0  0  0  0  0  0  0  0  0  0  0  0
  -16.0406   -5.6326  -25.0157 C   0  0  0  0  0  0  0  0  0  0  0  0
  -16.8889   -6.4623  -25.9077 C   0  0  0  0  0  0  0  0  0  0  0  0
  -16.4165   -4.1702  -24.9363 C   0  0  0  0  0  0  0  0  0  0  0  0
  -18.0293   -5.7050  -26.5515 C   0  0  0  0  0  0  0  0  0  0  0  0
  -17.1372   -2.9850  -28.9805 C   0  0  0  0  0  0  0  0  0  0  0  0
  -16.6389   -3.7238  -26.3281 C   0  0  0  0  0  0  0  0  0  0  0  0
  -17.4440   -4.4830  -27.1456 C   0  0  0  0  0  0  0  0  0  0  0  0
  -17.3818   -2.6151  -30.2951 O   0  0  0  0  0  0  0  0  0  0  0  0
  2  1  2  0
  1  8  1  0
  9  2  1  0
  8  3  2  0
  3 10  1  0
  4  5  1  0
  4  6  1  6
  5  7  1  6
  6  9  1  6
  7 10  1  6
  8 11  1  0
  9 10  2  0
M  END
$$$$
