
     RDKit          3D

 11 12  0  0  0  0  0  0  0  0999 V2000
  -16.2568   -2.8432  -28.8773 C   0  0  0  0  0  0  0  0  0  0  0  0
  -15.5826   -3.9516  -28.3416 C   0  0  0  0  0  0  0  0  0  0  0  0
  -17.7994   -2.9240  -27.0238 C   0  0  0  0  0  0  0  0  0  0  0  0
  -16.4175   -6.7044  -26.2472 C   0  0  0  0  0  0  0  0  0  0  0  0
  -17.6205   -6.1462  -25.5803 C   0  0  0  0  0  0  0  0  0  0  0  0
  -15.3288   -5.7052  -26.5670 C   0  0  0  0  0  0  0  0  0  0  0  0
  -17.5285   -4.6656  -25.2841 C   0  0  0  0  0  0  0  0  0  0  0  0
  -17.3666   -2.3286  -28.2178 C   0  0  0  0  0  0  0  0  0  0  0  0
  -16.0035   -4.5374  -27.1726 C   0  0  0  0  0  0  0  0  0  0  0  0
  -17.1047   -4.0082  -26.5400 C   0  0  0  0  0  0  0  0  0  0  0  0
  -18.0397   -1.2332  -28.7395 O   0  0  0  0  0  0  0  0  0  0  0  0
  2  1  2  0
  1  8  1  0
  9  2  1  0
  8  3  2  0
  3 10  1  0
  4  5  1  0
  4  6  1  6
  5  7  1  6
  6  9  1  6
  7 10  1  6
  8 11  1  0
  9 10  2  0
M  END
$$$$
