
     RDKit          3D

 11 12  0  0  0  0  0  0  0  0999 V2000
  -16.8578   -5.9548  -25.3258 C   0  0  0  0  0  0  0  0  0  0  0  0
  -17.6758   -4.9145  -25.7448 C   0  0  0  0  0  0  0  0  0  0  0  0
  -15.4806   -5.7487  -27.2920 C   0  0  0  0  0  0  0  0  0  0  0  0
  -17.1744   -2.0923  -27.7757 C   0  0  0  0  0  0  0  0  0  0  0  0
  -16.1103   -2.5103  -28.7332 C   0  0  0  0  0  0  0  0  0  0  0  0
  -18.1697   -3.1990  -27.4815 C   0  0  0  0  0  0  0  0  0  0  0  0
  -16.0531   -3.9836  -29.0008 C   0  0  0  0  0  0  0  0  0  0  0  0
  -15.7808   -6.3577  -26.0937 C   0  0  0  0  0  0  0  0  0  0  0  0
  -17.3604   -4.3197  -26.9425 C   0  0  0  0  0  0  0  0  0  0  0  0
  -16.2902   -4.7176  -27.7087 C   0  0  0  0  0  0  0  0  0  0  0  0
  -14.9821   -7.3891  -25.6633 O   0  0  0  0  0  0  0  0  0  0  0  0
  2  1  2  0
  1  8  1  0
  9  2  1  0
  8  3  2  0
  3 10  1  0
  4  5  1  0
  6  4  1  0
  5  7  1  0
  6  9  1  0
  7 10  1  0
  8 11  1  0
  9 10  2  0
M  END
$$$$
