
     RDKit          3D

 11 12  0  0  0  0  0  0  0  0999 V2000
  -16.1805   -2.7026  -28.8241 C   0  0  0  0  0  0  0  0  0  0  0  0
  -15.4737   -3.7622  -28.2344 C   0  0  0  0  0  0  0  0  0  0  0  0
  -17.9417   -3.0165  -27.2049 C   0  0  0  0  0  0  0  0  0  0  0  0
  -16.2939   -6.6738  -26.3605 C   0  0  0  0  0  0  0  0  0  0  0  0
  -17.6268   -6.2664  -25.8496 C   0  0  0  0  0  0  0  0  0  0  0  0
  -15.2811   -5.5594  -26.4960 C   0  0  0  0  0  0  0  0  0  0  0  0
  -17.7287   -4.7985  -25.4984 C   0  0  0  0  0  0  0  0  0  0  0  0
  -17.4160   -2.3291  -28.3089 C   0  0  0  0  0  0  0  0  0  0  0  0
  -15.9851   -4.4377  -27.1532 C   0  0  0  0  0  0  0  0  0  0  0  0
  -17.2101   -4.0477  -26.6630 C   0  0  0  0  0  0  0  0  0  0  0  0
  -18.1223   -1.2830  -28.8849 O   0  0  0  0  0  0  0  0  0  0  0  0
  2  1  2  0
  1  8  1  0
  9  2  1  0
  8  3  2  0
  3 10  1  0
  4  5  1  0
  4  6  1  6
  5  7  1  6
  6  9  1  6
  7 10  1  6
  8 11  1  0
  9 10  2  0
M  END
$$$$
