
     RDKit          3D

 11 12  0  0  0  0  0  0  0  0999 V2000
  -14.9625   -6.0368  -27.0111 C   0  0  0  0  0  0  0  0  0  0  0  0
  -15.2389   -4.8458  -27.7004 C   0  0  0  0  0  0  0  0  0  0  0  0
  -16.8525   -5.6079  -25.5738 C   0  0  0  0  0  0  0  0  0  0  0  0
  -16.8180   -1.7466  -26.9499 C   0  0  0  0  0  0  0  0  0  0  0  0
  -17.6465   -2.1699  -25.7932 C   0  0  0  0  0  0  0  0  0  0  0  0
  -16.6315   -2.7867  -28.0314 C   0  0  0  0  0  0  0  0  0  0  0  0
  -18.2122   -3.5672  -25.9201 C   0  0  0  0  0  0  0  0  0  0  0  0
  -15.7701   -6.4185  -25.9465 C   0  0  0  0  0  0  0  0  0  0  0  0
  -16.2979   -4.0493  -27.3384 C   0  0  0  0  0  0  0  0  0  0  0  0
  -17.0814   -4.4504  -26.2810 C   0  0  0  0  0  0  0  0  0  0  0  0
  -15.5050   -7.5941  -25.2589 O   0  0  0  0  0  0  0  0  0  0  0  0
  2  1  2  0
  1  8  1  0
  9  2  1  0
  8  3  2  0
  3 10  1  0
  4  5  1  0
  4  6  1  6
  5  7  1  6
  6  9  1  6
  7 10  1  6
  8 11  1  0
  9 10  2  0
M  END
$$$$
