
     RDKit          3D

 11 12  0  0  0  0  0  0  0  0999 V2000
  -16.3878   -2.5991  -28.9280 C   0  0  0  0  0  0  0  0  0  0  0  0
  -15.6731   -3.7128  -28.4601 C   0  0  0  0  0  0  0  0  0  0  0  0
  -17.9538   -2.8802  -27.1140 C   0  0  0  0  0  0  0  0  0  0  0  0
  -16.4162   -6.6430  -26.5830 C   0  0  0  0  0  0  0  0  0  0  0  0
  -17.6532   -6.1871  -25.9005 C   0  0  0  0  0  0  0  0  0  0  0  0
  -15.3685   -5.5769  -26.8105 C   0  0  0  0  0  0  0  0  0  0  0  0
  -17.6320   -4.7290  -25.4980 C   0  0  0  0  0  0  0  0  0  0  0  0
  -17.5296   -2.1821  -28.2543 C   0  0  0  0  0  0  0  0  0  0  0  0
  -16.0853   -4.3990  -27.3438 C   0  0  0  0  0  0  0  0  0  0  0  0
  -17.2187   -3.9652  -26.6958 C   0  0  0  0  0  0  0  0  0  0  0  0
  -18.2428   -1.0823  -28.7090 O   0  0  0  0  0  0  0  0  0  0  0  0
  2  1  2  0
  1  8  1  0
  9  2  1  0
  8  3  2  0
  3 10  1  0
  4  5  1  0
  4  6  1  6
  5  7  1  6
  6  9  1  6
  7 10  1  6
  8 11  1  0
  9 10  2  0
M  END
$$$$
