
     RDKit          3D

 11 12  0  0  0  0  0  0  0  0999 V2000
  -16.4591   -2.5121  -28.6891 C   0  0  0  0  0  0  0  0  0  0  0  0
  -15.7103   -3.5737  -28.1578 C   0  0  0  0  0  0  0  0  0  0  0  0
  -17.9133   -2.6156  -26.7665 C   0  0  0  0  0  0  0  0  0  0  0  0
  -16.3210   -6.3065  -25.9622 C   0  0  0  0  0  0  0  0  0  0  0  0
  -17.5187   -5.7872  -25.2554 C   0  0  0  0  0  0  0  0  0  0  0  0
  -15.2959   -5.2667  -26.3547 C   0  0  0  0  0  0  0  0  0  0  0  0
  -17.4839   -4.2967  -24.9993 C   0  0  0  0  0  0  0  0  0  0  0  0
  -17.5620   -2.0323  -27.9928 C   0  0  0  0  0  0  0  0  0  0  0  0
  -16.0511   -4.1476  -26.9573 C   0  0  0  0  0  0  0  0  0  0  0  0
  -17.1473   -3.6535  -26.2886 C   0  0  0  0  0  0  0  0  0  0  0  0
  -18.3084   -0.9833  -28.5098 O   0  0  0  0  0  0  0  0  0  0  0  0
  2  1  2  0
  1  8  1  0
  9  2  1  0
  8  3  2  0
  3 10  1  0
  4  5  1  0
  4  6  1  6
  5  7  1  6
  6  9  1  6
  7 10  1  6
  8 11  1  0
  9 10  2  0
M  END
$$$$
