
     RDKit          3D

 11 12  0  0  0  0  0  0  0  0999 V2000
  -16.8884   -5.7751  -25.3522 C   0  0  0  0  0  0  0  0  0  0  0  0
  -17.6151   -4.6594  -25.7446 C   0  0  0  0  0  0  0  0  0  0  0  0
  -15.7424   -5.8527  -27.4701 C   0  0  0  0  0  0  0  0  0  0  0  0
  -17.0143   -2.0354  -28.0017 C   0  0  0  0  0  0  0  0  0  0  0  0
  -16.1331   -2.6381  -29.0430 C   0  0  0  0  0  0  0  0  0  0  0  0
  -18.0968   -2.9854  -27.5247 C   0  0  0  0  0  0  0  0  0  0  0  0
  -16.2919   -4.1179  -29.2169 C   0  0  0  0  0  0  0  0  0  0  0  0
  -15.9698   -6.3547  -26.2078 C   0  0  0  0  0  0  0  0  0  0  0  0
  -17.3743   -4.1734  -27.0070 C   0  0  0  0  0  0  0  0  0  0  0  0
  -16.4616   -4.7471  -27.8606 C   0  0  0  0  0  0  0  0  0  0  0  0
  -15.2596   -7.4584  -25.8026 O   0  0  0  0  0  0  0  0  0  0  0  0
  2  1  2  0
  1  8  1  0
  9  2  1  0
  8  3  2  0
  3 10  1  0
  4  5  1  0
  6  4  1  0
  5  7  1  0
  6  9  1  0
  7 10  1  0
  8 11  1  0
  9 10  2  0
M  END
$$$$
