
     RDKit          3D

 11 12  0  0  0  0  0  0  0  0999 V2000
  -17.0705   -5.9853  -25.1064 C   0  0  0  0  0  0  0  0  0  0  0  0
  -17.8484   -4.9236  -25.5475 C   0  0  0  0  0  0  0  0  0  0  0  0
  -15.7617   -5.9497  -27.1289 C   0  0  0  0  0  0  0  0  0  0  0  0
  -17.2786   -2.2343  -27.7347 C   0  0  0  0  0  0  0  0  0  0  0  0
  -16.2759   -2.7554  -28.7078 C   0  0  0  0  0  0  0  0  0  0  0  0
  -18.3185   -3.2698  -27.3494 C   0  0  0  0  0  0  0  0  0  0  0  0
  -16.3065   -4.2409  -28.9027 C   0  0  0  0  0  0  0  0  0  0  0  0
  -16.0467   -6.4828  -25.8914 C   0  0  0  0  0  0  0  0  0  0  0  0
  -17.5489   -4.4054  -26.7842 C   0  0  0  0  0  0  0  0  0  0  0  0
  -16.5315   -4.8975  -27.5676 C   0  0  0  0  0  0  0  0  0  0  0  0
  -15.2872   -7.5340  -25.4387 O   0  0  0  0  0  0  0  0  0  0  0  0
  2  1  2  0
  1  8  1  0
  9  2  1  0
  8  3  2  0
  3 10  1  0
  4  5  1  0
  6  4  1  0
  5  7  1  0
  6  9  1  0
  7 10  1  0
  8 11  1  0
  9 10  2  0
M  END
$$$$
