
     RDKit          3D

 11 12  0  0  0  0  0  0  0  0999 V2000
  -17.4505   -5.9164  -25.0797 C   0  0  0  0  0  0  0  0  0  0  0  0
  -18.2528   -4.9295  -25.6358 C   0  0  0  0  0  0  0  0  0  0  0  0
  -15.8806   -5.7553  -26.9003 C   0  0  0  0  0  0  0  0  0  0  0  0
  -17.6312   -2.1935  -27.7498 C   0  0  0  0  0  0  0  0  0  0  0  0
  -16.4589   -2.6177  -28.5682 C   0  0  0  0  0  0  0  0  0  0  0  0
  -18.6156   -3.3213  -27.5026 C   0  0  0  0  0  0  0  0  0  0  0  0
  -16.3260   -4.0992  -28.7501 C   0  0  0  0  0  0  0  0  0  0  0  0
  -16.2859   -6.3156  -25.7092 C   0  0  0  0  0  0  0  0  0  0  0  0
  -17.8320   -4.3828  -26.8240 C   0  0  0  0  0  0  0  0  0  0  0  0
  -16.6745   -4.7772  -27.4528 C   0  0  0  0  0  0  0  0  0  0  0  0
  -15.5042   -7.2937  -25.1443 O   0  0  0  0  0  0  0  0  0  0  0  0
  2  1  2  0
  1  8  1  0
  9  2  1  0
  8  3  2  0
  3 10  1  0
  4  5  1  0
  6  4  1  0
  5  7  1  0
  6  9  1  0
  7 10  1  0
  8 11  1  0
  9 10  2  0
M  END
$$$$
