
     RDKit          3D

 11 12  0  0  0  0  0  0  0  0999 V2000
  -16.0771   -3.1370  -28.7782 C   0  0  0  0  0  0  0  0  0  0  0  0
  -15.3512   -3.9018  -27.8519 C   0  0  0  0  0  0  0  0  0  0  0  0
  -18.1216   -3.8193  -27.6936 C   0  0  0  0  0  0  0  0  0  0  0  0
  -15.9654   -6.7760  -25.8461 C   0  0  0  0  0  0  0  0  0  0  0  0
  -17.4486   -6.7305  -25.8040 C   0  0  0  0  0  0  0  0  0  0  0  0
  -15.2739   -5.4316  -25.8663 C   0  0  0  0  0  0  0  0  0  0  0  0
  -18.0194   -5.3313  -25.7349 C   0  0  0  0  0  0  0  0  0  0  0  0
  -17.4641   -3.0956  -28.6993 C   0  0  0  0  0  0  0  0  0  0  0  0
  -15.9915   -4.6119  -26.8657 C   0  0  0  0  0  0  0  0  0  0  0  0
  -17.3650   -4.5535  -26.8100 C   0  0  0  0  0  0  0  0  0  0  0  0
  -18.1904   -2.3425  -29.6104 O   0  0  0  0  0  0  0  0  0  0  0  0
  2  1  2  0
  1  8  1  0
  9  2  1  0
  8  3  2  0
  3 10  1  0
  4  5  1  0
  4  6  1  6
  5  7  1  6
  6  9  1  6
  7 10  1  6
  8 11  1  0
  9 10  2  0
M  END
$$$$
