
     RDKit          3D

 11 12  0  0  0  0  0  0  0  0999 V2000
  -15.0617   -5.9076  -26.2770 C   0  0  0  0  0  0  0  0  0  0  0  0
  -14.8781   -4.7356  -26.9979 C   0  0  0  0  0  0  0  0  0  0  0  0
  -17.4154   -5.4588  -26.0246 C   0  0  0  0  0  0  0  0  0  0  0  0
  -16.9635   -2.7878  -29.0468 C   0  0  0  0  0  0  0  0  0  0  0  0
  -18.3316   -3.0053  -28.4947 C   0  0  0  0  0  0  0  0  0  0  0  0
  -15.9027   -2.6829  -27.9671 C   0  0  0  0  0  0  0  0  0  0  0  0
  -18.3701   -3.3554  -27.0382 C   0  0  0  0  0  0  0  0  0  0  0  0
  -16.3133   -6.2545  -25.8026 C   0  0  0  0  0  0  0  0  0  0  0  0
  -15.9891   -3.9553  -27.2090 C   0  0  0  0  0  0  0  0  0  0  0  0
  -17.2352   -4.2971  -26.7387 C   0  0  0  0  0  0  0  0  0  0  0  0
  -16.4764   -7.4181  -25.0911 O   0  0  0  0  0  0  0  0  0  0  0  0
  2  1  2  0
  1  8  1  0
  9  2  1  0
  8  3  2  0
  3 10  1  0
  4  5  1  0
  6  4  1  0
  5  7  1  0
  6  9  1  0
  7 10  1  0
  8 11  1  0
  9 10  2  0
M  END
$$$$
