
     RDKit          3D

 11 12  0  0  0  0  0  0  0  0999 V2000
  -17.2423   -6.1194  -25.3142 C   0  0  0  0  0  0  0  0  0  0  0  0
  -17.6793   -4.8138  -25.5869 C   0  0  0  0  0  0  0  0  0  0  0  0
  -15.4417   -5.8134  -26.8908 C   0  0  0  0  0  0  0  0  0  0  0  0
  -17.4647   -2.5479  -28.3221 C   0  0  0  0  0  0  0  0  0  0  0  0
  -16.2866   -3.1208  -29.0203 C   0  0  0  0  0  0  0  0  0  0  0  0
  -17.4346   -2.6401  -26.8132 C   0  0  0  0  0  0  0  0  0  0  0  0
  -15.2213   -3.6579  -28.0901 C   0  0  0  0  0  0  0  0  0  0  0  0
  -16.1222   -6.6201  -25.9669 C   0  0  0  0  0  0  0  0  0  0  0  0
  -17.0156   -4.0208  -26.4910 C   0  0  0  0  0  0  0  0  0  0  0  0
  -15.9098   -4.5409  -27.1231 C   0  0  0  0  0  0  0  0  0  0  0  0
  -15.6824   -7.9095  -25.7041 O   0  0  0  0  0  0  0  0  0  0  0  0
  2  1  2  0
  1  8  1  0
  9  2  1  0
  8  3  2  0
  3 10  1  0
  4  5  1  0
  4  6  1  6
  5  7  1  6
  6  9  1  6
  7 10  1  6
  8 11  1  0
  9 10  2  0
M  END
$$$$
