
     RDKit          3D

 11 12  0  0  0  0  0  0  0  0999 V2000
  -15.5929   -6.0883  -26.5028 C   0  0  0  0  0  0  0  0  0  0  0  0
  -15.2152   -5.0852  -27.3850 C   0  0  0  0  0  0  0  0  0  0  0  0
  -17.7698   -5.0983  -26.2093 C   0  0  0  0  0  0  0  0  0  0  0  0
  -16.9782   -2.9907  -29.5862 C   0  0  0  0  0  0  0  0  0  0  0  0
  -18.3165   -2.8275  -28.9489 C   0  0  0  0  0  0  0  0  0  0  0  0
  -15.8429   -2.9920  -28.5796 C   0  0  0  0  0  0  0  0  0  0  0  0
  -18.3219   -2.9772  -27.4579 C   0  0  0  0  0  0  0  0  0  0  0  0
  -16.8513   -6.0859  -25.9299 C   0  0  0  0  0  0  0  0  0  0  0  0
  -16.1448   -4.1092  -27.6511 C   0  0  0  0  0  0  0  0  0  0  0  0
  -17.3971   -4.1036  -27.0833 C   0  0  0  0  0  0  0  0  0  0  0  0
  -17.2079   -7.0866  -25.0591 O   0  0  0  0  0  0  0  0  0  0  0  0
  2  1  2  0
  1  8  1  0
  9  2  1  0
  8  3  2  0
  3 10  1  0
  4  5  1  0
  6  4  1  0
  5  7  1  0
  6  9  1  0
  7 10  1  0
  8 11  1  0
  9 10  2  0
M  END
$$$$
