
     RDKit          3D

 11 12  0  0  0  0  0  0  0  0999 V2000
  -16.2849   -2.9547  -28.7601 C   0  0  0  0  0  0  0  0  0  0  0  0
  -15.4963   -3.8032  -27.9675 C   0  0  0  0  0  0  0  0  0  0  0  0
  -18.1997   -3.5177  -27.4042 C   0  0  0  0  0  0  0  0  0  0  0  0
  -16.0419   -6.6899  -25.9598 C   0  0  0  0  0  0  0  0  0  0  0  0
  -17.4952   -6.5342  -25.7004 C   0  0  0  0  0  0  0  0  0  0  0  0
  -15.2558   -5.4014  -26.0501 C   0  0  0  0  0  0  0  0  0  0  0  0
  -17.9371   -5.0991  -25.5165 C   0  0  0  0  0  0  0  0  0  0  0  0
  -17.6383   -2.8116  -28.4783 C   0  0  0  0  0  0  0  0  0  0  0  0
  -16.0424   -4.4963  -26.9148 C   0  0  0  0  0  0  0  0  0  0  0  0
  -17.3845   -4.3366  -26.6576 C   0  0  0  0  0  0  0  0  0  0  0  0
  -18.4261   -1.9752  -29.2561 O   0  0  0  0  0  0  0  0  0  0  0  0
  2  1  2  0
  1  8  1  0
  9  2  1  0
  8  3  2  0
  3 10  1  0
  4  5  1  0
  4  6  1  6
  5  7  1  6
  6  9  1  6
  7 10  1  6
  8 11  1  0
  9 10  2  0
M  END
$$$$
