
     RDKit          3D

 11 12  0  0  0  0  0  0  0  0999 V2000
  -17.2705   -6.1513  -25.1753 C   0  0  0  0  0  0  0  0  0  0  0  0
  -17.6792   -4.8293  -25.4105 C   0  0  0  0  0  0  0  0  0  0  0  0
  -15.4631   -5.8393  -26.7429 C   0  0  0  0  0  0  0  0  0  0  0  0
  -17.4147   -2.4914  -28.0799 C   0  0  0  0  0  0  0  0  0  0  0  0
  -16.2489   -3.0694  -28.7944 C   0  0  0  0  0  0  0  0  0  0  0  0
  -17.3872   -2.6272  -26.5743 C   0  0  0  0  0  0  0  0  0  0  0  0
  -15.1958   -3.6556  -27.8802 C   0  0  0  0  0  0  0  0  0  0  0  0
  -16.1611   -6.6572  -25.8422 C   0  0  0  0  0  0  0  0  0  0  0  0
  -16.9982   -4.0253  -26.2917 C   0  0  0  0  0  0  0  0  0  0  0  0
  -15.9036   -4.5509  -26.9386 C   0  0  0  0  0  0  0  0  0  0  0  0
  -15.7494   -7.9627  -25.6164 O   0  0  0  0  0  0  0  0  0  0  0  0
  2  1  2  0
  1  8  1  0
  9  2  1  0
  8  3  2  0
  3 10  1  0
  4  5  1  0
  4  6  1  6
  5  7  1  6
  6  9  1  6
  7 10  1  6
  8 11  1  0
  9 10  2  0
M  END
$$$$
