
     RDKit          3D

 11 12  0  0  0  0  0  0  0  0999 V2000
  -17.3165   -1.3268  -27.2177 C   0  0  0  0  0  0  0  0  0  0  0  0
  -17.6009   -2.2026  -26.1583 C   0  0  0  0  0  0  0  0  0  0  0  0
  -16.5081   -3.1986  -28.5079 C   0  0  0  0  0  0  0  0  0  0  0  0
  -16.3745   -5.3413  -25.0157 C   0  0  0  0  0  0  0  0  0  0  0  0
  -15.7672   -5.8382  -26.2759 C   0  0  0  0  0  0  0  0  0  0  0  0
  -17.6277   -4.5118  -25.1807 C   0  0  0  0  0  0  0  0  0  0  0  0
  -16.5442   -5.4694  -27.5204 C   0  0  0  0  0  0  0  0  0  0  0  0
  -16.7694   -1.8252  -28.3940 C   0  0  0  0  0  0  0  0  0  0  0  0
  -17.3465   -3.5481  -26.2661 C   0  0  0  0  0  0  0  0  0  0  0  0
  -16.8047   -4.0152  -27.4413 C   0  0  0  0  0  0  0  0  0  0  0  0
  -16.4848   -0.9675  -29.4468 O   0  0  0  0  0  0  0  0  0  0  0  0
  2  1  2  0
  1  8  1  0
  9  2  1  0
  8  3  2  0
  3 10  1  0
  4  5  1  0
  4  6  1  6
  5  7  1  6
  6  9  1  6
  7 10  1  6
  8 11  1  0
  9 10  2  0
M  END
$$$$
