
     RDKit          3D

 11 12  0  0  0  0  0  0  0  0999 V2000
  -16.9561   -5.6827  -25.1876 C   0  0  0  0  0  0  0  0  0  0  0  0
  -17.7896   -4.6634  -25.6272 C   0  0  0  0  0  0  0  0  0  0  0  0
  -15.6675   -5.5927  -27.2214 C   0  0  0  0  0  0  0  0  0  0  0  0
  -17.3727   -1.9607  -27.8324 C   0  0  0  0  0  0  0  0  0  0  0  0
  -16.3533   -2.4364  -28.8114 C   0  0  0  0  0  0  0  0  0  0  0  0
  -18.3564   -3.0447  -27.4332 C   0  0  0  0  0  0  0  0  0  0  0  0
  -16.3115   -3.9225  -28.9987 C   0  0  0  0  0  0  0  0  0  0  0  0
  -15.9153   -6.1327  -25.9788 C   0  0  0  0  0  0  0  0  0  0  0  0
  -17.5265   -4.1375  -26.8690 C   0  0  0  0  0  0  0  0  0  0  0  0
  -16.4924   -4.5825  -27.6586 C   0  0  0  0  0  0  0  0  0  0  0  0
  -15.1005   -7.1424  -25.5276 O   0  0  0  0  0  0  0  0  0  0  0  0
  2  1  2  0
  1  8  1  0
  9  2  1  0
  8  3  2  0
  3 10  1  0
  4  5  1  0
  6  4  1  0
  5  7  1  0
  6  9  1  0
  7 10  1  0
  8 11  1  0
  9 10  2  0
M  END
$$$$
