
     RDKit          3D

 11 12  0  0  0  0  0  0  0  0999 V2000
  -15.3377   -6.1062  -27.0951 C   0  0  0  0  0  0  0  0  0  0  0  0
  -15.4835   -4.9554  -27.8853 C   0  0  0  0  0  0  0  0  0  0  0  0
  -17.2219   -5.3954  -25.7661 C   0  0  0  0  0  0  0  0  0  0  0  0
  -16.7935   -1.6773  -27.4385 C   0  0  0  0  0  0  0  0  0  0  0  0
  -17.6909   -1.9297  -26.2832 C   0  0  0  0  0  0  0  0  0  0  0  0
  -16.6713   -2.8144  -28.4275 C   0  0  0  0  0  0  0  0  0  0  0  0
  -18.3782   -3.2768  -26.3209 C   0  0  0  0  0  0  0  0  0  0  0  0
  -16.2079   -6.3267  -26.0341 C   0  0  0  0  0  0  0  0  0  0  0  0
  -16.4752   -4.0410  -27.6260 C   0  0  0  0  0  0  0  0  0  0  0  0
  -17.3230   -4.2835  -26.5698 C   0  0  0  0  0  0  0  0  0  0  0  0
  -16.0718   -7.4613  -25.2473 O   0  0  0  0  0  0  0  0  0  0  0  0
  2  1  2  0
  1  8  1  0
  9  2  1  0
  8  3  2  0
  3 10  1  0
  4  5  1  0
  4  6  1  6
  5  7  1  6
  6  9  1  6
  7 10  1  6
  8 11  1  0
  9 10  2  0
M  END
$$$$
