
     RDKit          3D

 41 44  0  0  0  0  0  0  0  0999 V2000
   74.0162   54.7122   15.1307 C   0  0  0  0  0  0  0  0  0  0  0  0
   71.9921   56.0246   15.4214 C   0  0  0  0  0  0  0  0  0  0  0  0
   72.8110   59.0034   17.9346 C   0  0  0  0  0  0  0  0  0  0  0  0
   76.1026   60.2501   19.2848 C   0  0  0  0  0  0  0  0  0  0  0  0
   74.0584   60.3912   20.4159 C   0  0  1  0  0  0  0  0  0  0  0  0
   72.6647   60.7867   20.0907 C   0  0  0  0  0  0  0  0  0  0  0  0
   67.5999   51.1090   13.5616 C   0  0  0  0  0  0  0  0  0  0  0  0
   68.5975   50.8161   14.4866 C   0  0  0  0  0  0  0  0  0  0  0  0
   69.3239   51.7807   15.1504 C   0  0  0  0  0  0  0  0  0  0  0  0
   69.0501   53.1034   14.8867 C   0  0  0  0  0  0  0  0  0  0  0  0
   68.0676   53.4266   13.9754 C   0  0  0  0  0  0  0  0  0  0  0  0
   67.3415   52.4447   13.3119 C   0  0  0  0  0  0  0  0  0  0  0  0
   71.8736   54.1140   13.9290 C   0  0  0  0  0  0  0  0  0  0  0  0
   73.3767   54.0324   13.9681 C   0  0  2  0  0  0  0  0  0  0  0  0
   73.8451   52.5748   13.9628 C   0  0  0  0  0  0  0  0  0  0  0  0
   71.2438   57.2956   15.1813 C   0  0  2  0  0  0  0  0  0  0  0  0
   71.0401   58.1007   16.4453 C   0  0  2  0  0  0  0  0  0  0  0  0
   74.7525   59.6232   19.3300 C   0  0  1  0  0  0  0  0  0  0  0  0
   74.8336   61.6588   20.4950 C   0  0  1  0  0  0  0  0  0  0  0  0
   72.7594   62.2743   19.8706 C   0  0  0  0  0  0  0  0  0  0  0  0
   69.7290   58.8353   16.4721 C   0  0  0  0  0  0  0  0  0  0  0  0
   69.4366   59.1808   17.8887 C   0  0  0  0  0  0  0  0  0  0  0  0
   69.5316   60.5042   18.2590 C   0  0  0  0  0  0  0  0  0  0  0  0
   69.2731   60.8613   19.5637 C   0  0  0  0  0  0  0  0  0  0  0  0
   68.9213   59.8839   20.4836 C   0  0  0  0  0  0  0  0  0  0  0  0
   68.8213   58.5512   20.1301 C   0  0  0  0  0  0  0  0  0  0  0  0
   69.0852   58.2224   18.8184 C   0  0  0  0  0  0  0  0  0  0  0  0
   66.8472   50.0087   12.8742 C   0  0  1  0  0  0  0  0  0  0  0  0
   65.7534   50.6590   12.0680 C   0  0  0  0  0  0  0  0  0  0  0  0
   71.3765   54.8250   15.0372 N   0  0  0  0  0  0  0  0  0  0  0  0
   72.1122   59.0056   16.7123 N   0  0  0  0  0  0  0  0  0  0  0  0
   70.1257   53.9184   17.1377 O   0  0  0  0  0  0  0  0  0  0  0  0
   69.0376   55.6143   15.8277 O   0  0  0  0  0  0  0  0  0  0  0  0
   70.0261   57.0653   14.5581 O   0  0  0  0  0  0  0  0  0  0  0  0
   72.3228   58.4330   18.9151 O   0  0  0  0  0  0  0  0  0  0  0  0
   74.0527   59.6207   18.1123 O   0  0  0  0  0  0  0  0  0  0  0  0
   75.9502   61.5616   19.6945 O   0  0  0  0  0  0  0  0  0  0  0  0
   74.0543   62.6804   20.0243 O   0  0  0  0  0  0  0  0  0  0  0  0
   67.7113   49.3232   12.0598 O   0  0  0  0  0  0  0  0  0  0  0  0
   64.9489   49.7263   11.4193 O   0  0  0  0  0  0  0  0  0  0  0  0
   69.9059   54.3854   15.7026 S   0  0  2  0  0  6  0  0  0  0  0  0
 14  1  1  1
  2 16  1  0
 30  2  1  0
 31  3  1  0
  3 35  2  0
  3 36  1  0
 18  4  1  0
  4 37  1  0
  5  6  1  6
 18  5  1  0
  5 19  1  0
  6 20  1  0
  8  7  2  0
 12  7  1  0
  7 28  1  0
  9  8  1  0
 10  9  2  0
 10 11  1  0
 41 10  1  0
 11 12  2  0
 13 14  1  0
 30 13  1  0
 14 15  1  0
 16 17  1  0
 16 34  1  1
 17 21  1  6
 17 31  1  0
 18 36  1  6
 19 37  1  6
 19 38  1  0
 38 20  1  0
 21 22  1  0
 22 23  2  0
 22 27  1  0
 23 24  1  0
 24 25  2  0
 26 25  1  0
 27 26  2  0
 28 29  1  0
 28 39  1  6
 29 40  1  0
 41 30  1  6
 41 32  2  0
 41 33  2  0
M  END
$$$$
