
     RDKit          3D

 41 44  0  0  0  0  0  0  0  0999 V2000
   65.8987   56.4860   15.9805 C   0  0  0  0  0  0  0  0  0  0  0  0
   69.5211   56.8672   14.5113 C   0  0  0  0  0  0  0  0  0  0  0  0
   72.4809   58.3095   17.9119 C   0  0  0  0  0  0  0  0  0  0  0  0
   75.4970   59.2947   18.0990 C   0  0  0  0  0  0  0  0  0  0  0  0
   74.9899   59.6708   20.3527 C   0  0  1  0  0  0  0  0  0  0  0  0
   73.8910   60.3028   21.1256 C   0  0  0  0  0  0  0  0  0  0  0  0
   69.7613   50.4899   12.8149 C   0  0  0  0  0  0  0  0  0  0  0  0
   69.4714   50.6531   14.1662 C   0  0  0  0  0  0  0  0  0  0  0  0
   69.6891   51.8279   14.8526 C   0  0  0  0  0  0  0  0  0  0  0  0
   70.2207   52.8970   14.1683 C   0  0  0  0  0  0  0  0  0  0  0  0
   70.5190   52.7674   12.8287 C   0  0  0  0  0  0  0  0  0  0  0  0
   70.2950   51.5772   12.1470 C   0  0  0  0  0  0  0  0  0  0  0  0
   67.9897   55.1970   15.3813 C   0  0  0  0  0  0  0  0  0  0  0  0
   67.3767   56.3540   16.1250 C   0  0  2  0  0  0  0  0  0  0  0  0
   67.6952   56.2728   17.6204 C   0  0  0  0  0  0  0  0  0  0  0  0
   70.7306   57.5160   15.1021 C   0  0  2  0  0  0  0  0  0  0  0  0
   70.4683   58.1029   16.4711 C   0  0  2  0  0  0  0  0  0  0  0  0
   74.5339   58.8856   19.1585 C   0  0  1  0  0  0  0  0  0  0  0  0
   75.7651   60.7920   19.7560 C   0  0  1  0  0  0  0  0  0  0  0  0
   74.0312   61.7693   20.8092 C   0  0  0  0  0  0  0  0  0  0  0  0
   69.2165   58.9330   16.5272 C   0  0  0  0  0  0  0  0  0  0  0  0
   69.0671   59.4268   17.9219 C   0  0  0  0  0  0  0  0  0  0  0  0
   70.0292   59.0625   18.8380 C   0  0  0  0  0  0  0  0  0  0  0  0
   69.9212   59.4967   20.1405 C   0  0  0  0  0  0  0  0  0  0  0  0
   68.8466   60.2932   20.5093 C   0  0  0  0  0  0  0  0  0  0  0  0
   67.8718   60.6684   19.6038 C   0  0  0  0  0  0  0  0  0  0  0  0
   68.0049   60.2201   18.3078 C   0  0  0  0  0  0  0  0  0  0  0  0
   69.4994   49.1821   12.1289 C   0  0  1  0  0  0  0  0  0  0  0  0
   70.3367   49.1651   10.8767 C   0  0  0  0  0  0  0  0  0  0  0  0
   69.2556   55.5380   14.8697 N   0  0  0  0  0  0  0  0  0  0  0  0
   71.5730   58.8504   16.9814 N   0  0  0  0  0  0  0  0  0  0  0  0
   71.7509   55.0242   14.3147 O   0  0  0  0  0  0  0  0  0  0  0  0
   70.8773   54.2223   16.4051 O   0  0  0  0  0  0  0  0  0  0  0  0
   71.2589   58.4828   14.2592 O   0  0  0  0  0  0  0  0  0  0  0  0
   72.6883   57.0922   17.9247 O   0  0  0  0  0  0  0  0  0  0  0  0
   73.1792   59.0824   18.8443 O   0  0  0  0  0  0  0  0  0  0  0  0
   75.9054   60.5801   18.4022 O   0  0  0  0  0  0  0  0  0  0  0  0
   75.0678   61.9550   19.9395 O   0  0  0  0  0  0  0  0  0  0  0  0
   69.8597   48.1612   12.9702 O   0  0  0  0  0  0  0  0  0  0  0  0
   70.3159   47.9254   10.2438 O   0  0  0  0  0  0  0  0  0  0  0  0
   70.5032   54.4269   14.9566 S   0  0  2  0  0  6  0  0  0  0  0  0
 14  1  1  1
  2 16  1  0
 30  2  1  0
 31  3  1  0
  3 35  2  0
  3 36  1  0
 18  4  1  0
  4 37  1  0
  5  6  1  6
 18  5  1  0
  5 19  1  0
  6 20  1  0
  8  7  2  0
 12  7  1  0
  7 28  1  0
  9  8  1  0
 10  9  2  0
 10 11  1  0
 41 10  1  0
 11 12  2  0
 13 14  1  0
 30 13  1  0
 14 15  1  0
 16 17  1  0
 16 34  1  6
 17 21  1  6
 17 31  1  0
 18 36  1  6
 19 37  1  6
 19 38  1  0
 38 20  1  0
 21 22  1  0
 22 23  2  0
 22 27  1  0
 23 24  1  0
 24 25  2  0
 26 25  1  0
 27 26  2  0
 28 29  1  0
 28 39  1  1
 29 40  1  0
 41 30  1  1
 41 32  2  0
 41 33  2  0
M  END
$$$$
