
     RDKit          3D

 41 44  0  0  0  0  0  0  0  0999 V2000
   75.2806   57.2775   18.4392 C   0  0  0  0  0  0  0  0  0  0  0  0
   71.4788   56.3379   17.2623 C   0  0  0  0  0  0  0  0  0  0  0  0
   69.7801   54.1034   15.5006 C   0  0  0  0  0  0  0  0  0  0  0  0
   66.7807   52.7883   13.8635 C   0  0  0  0  0  0  0  0  0  0  0  0
   68.4616   51.2050   14.2453 C   0  0  1  0  0  0  0  0  0  0  0  0
   69.9139   51.0768   13.9646 C   0  0  0  0  0  0  0  0  0  0  0  0
   70.8830   61.8365   21.2495 C   0  0  0  0  0  0  0  0  0  0  0  0
   70.1853   60.6518   21.4645 C   0  0  0  0  0  0  0  0  0  0  0  0
   70.0287   59.6779   20.5023 C   0  0  0  0  0  0  0  0  0  0  0  0
   70.5909   59.8853   19.2634 C   0  0  0  0  0  0  0  0  0  0  0  0
   71.2885   61.0489   19.0187 C   0  0  0  0  0  0  0  0  0  0  0  0
   71.4397   62.0241   19.9972 C   0  0  0  0  0  0  0  0  0  0  0  0
   72.8095   57.6998   18.7676 C   0  0  0  0  0  0  0  0  0  0  0  0
   73.8953   56.7294   18.3843 C   0  0  2  0  0  0  0  0  0  0  0  0
   73.8504   55.4814   19.2702 C   0  0  0  0  0  0  0  0  0  0  0  0
   71.6937   56.3292   15.7836 C   0  0  2  0  0  0  0  0  0  0  0  0
   72.0958   54.9684   15.2602 C   0  0  2  0  0  0  0  0  0  0  0  0
   68.0291   52.5836   14.6491 C   0  0  1  0  0  0  0  0  0  0  0  0
   67.7748   50.9931   12.9424 C   0  0  1  0  0  0  0  0  0  0  0  0
   69.9748   50.9272   12.4665 C   0  0  0  0  0  0  0  0  0  0  0  0
   72.3377   54.9547   13.7767 C   0  0  0  0  0  0  0  0  0  0  0  0
   72.8043   53.5911   13.4103 C   0  0  0  0  0  0  0  0  0  0  0  0
   73.3136   52.7962   14.4134 C   0  0  0  0  0  0  0  0  0  0  0  0
   73.7603   51.5290   14.1107 C   0  0  0  0  0  0  0  0  0  0  0  0
   73.6904   51.0735   12.8019 C   0  0  0  0  0  0  0  0  0  0  0  0
   73.1826   51.8571   11.7826 C   0  0  0  0  0  0  0  0  0  0  0  0
   72.7428   53.1202   12.1138 C   0  0  0  0  0  0  0  0  0  0  0  0
   71.0151   62.8555   22.3421 C   0  0  1  0  0  0  0  0  0  0  0  0
   72.4884   63.0907   22.5505 C   0  0  0  0  0  0  0  0  0  0  0  0
   71.6802   57.5476   17.9416 N   0  0  0  0  0  0  0  0  0  0  0  0
   71.1736   53.9370   15.6139 N   0  0  0  0  0  0  0  0  0  0  0  0
   70.4299   59.4560   16.6793 O   0  0  0  0  0  0  0  0  0  0  0  0
   69.1283   57.9846   18.0639 O   0  0  0  0  0  0  0  0  0  0  0  0
   72.6192   57.2858   15.3930 O   0  0  0  0  0  0  0  0  0  0  0  0
   69.1732   54.7606   16.3521 O   0  0  0  0  0  0  0  0  0  0  0  0
   69.0220   53.5587   14.4599 O   0  0  0  0  0  0  0  0  0  0  0  0
   66.9032   52.0343   12.7113 O   0  0  0  0  0  0  0  0  0  0  0  0
   68.7134   50.9885   11.9466 O   0  0  0  0  0  0  0  0  0  0  0  0
   70.3879   64.0096   21.9489 O   0  0  0  0  0  0  0  0  0  0  0  0
   72.7502   63.8011   23.7186 O   0  0  0  0  0  0  0  0  0  0  0  0
   70.4609   58.6916   17.9986 S   0  0  2  0  0  6  0  0  0  0  0  0
 14  1  1  1
  2 16  1  0
 30  2  1  0
 31  3  1  0
  3 35  2  0
  3 36  1  0
 18  4  1  0
  4 37  1  0
  5  6  1  6
 18  5  1  0
  5 19  1  0
  6 20  1  0
  8  7  2  0
 12  7  1  0
  7 28  1  0
  9  8  1  0
 10  9  2  0
 10 11  1  0
 41 10  1  0
 11 12  2  0
 13 14  1  0
 30 13  1  0
 14 15  1  0
 16 17  1  0
 16 34  1  1
 17 21  1  6
 17 31  1  0
 18 36  1  6
 19 37  1  6
 19 38  1  0
 38 20  1  0
 21 22  1  0
 22 23  2  0
 22 27  1  0
 23 24  1  0
 24 25  2  0
 26 25  1  0
 27 26  2  0
 28 29  1  0
 28 39  1  6
 29 40  1  0
 41 30  1  6
 41 32  2  0
 41 33  2  0
M  END
$$$$
