
     RDKit          3D

 41 44  0  0  0  0  0  0  0  0999 V2000
   72.7798   54.9649   17.1245 C   0  0  0  0  0  0  0  0  0  0  0  0
   70.1188   55.5781   15.7793 C   0  0  0  0  0  0  0  0  0  0  0  0
   72.7269   58.7325   18.0571 C   0  0  0  0  0  0  0  0  0  0  0  0
   75.7559   60.6840   19.1160 C   0  0  0  0  0  0  0  0  0  0  0  0
   73.8012   60.6264   20.4019 C   0  0  1  0  0  0  0  0  0  0  0  0
   72.3453   60.8019   20.1694 C   0  0  0  0  0  0  0  0  0  0  0  0
   66.6161   51.0488   13.0572 C   0  0  0  0  0  0  0  0  0  0  0  0
   66.2764   52.3962   13.1332 C   0  0  0  0  0  0  0  0  0  0  0  0
   67.2041   53.4064   13.2663 C   0  0  0  0  0  0  0  0  0  0  0  0
   68.5365   53.0676   13.3274 C   0  0  0  0  0  0  0  0  0  0  0  0
   68.9057   51.7414   13.2548 C   0  0  0  0  0  0  0  0  0  0  0  0
   67.9608   50.7312   13.1206 C   0  0  0  0  0  0  0  0  0  0  0  0
   71.5274   53.6442   15.3695 C   0  0  0  0  0  0  0  0  0  0  0  0
   72.7412   54.4631   15.7212 C   0  0  2  0  0  0  0  0  0  0  0  0
   74.0266   53.6692   15.4726 C   0  0  0  0  0  0  0  0  0  0  0  0
   70.7469   56.8896   15.4355 C   0  0  2  0  0  0  0  0  0  0  0  0
   70.9190   57.7880   16.6399 C   0  0  2  0  0  0  0  0  0  0  0  0
   74.5161   59.8828   19.3126 C   0  0  1  0  0  0  0  0  0  0  0  0
   74.3913   61.9908   20.3364 C   0  0  1  0  0  0  0  0  0  0  0  0
   72.2104   62.2680   19.8490 C   0  0  0  0  0  0  0  0  0  0  0  0
   69.9969   58.9749   16.6274 C   0  0  0  0  0  0  0  0  0  0  0  0
   69.5152   59.1843   18.0186 C   0  0  0  0  0  0  0  0  0  0  0  0
   69.1688   58.0709   18.7520 C   0  0  0  0  0  0  0  0  0  0  0  0
   68.7136   58.2263   20.0425 C   0  0  0  0  0  0  0  0  0  0  0  0
   68.6112   59.5001   20.5831 C   0  0  0  0  0  0  0  0  0  0  0  0
   68.9541   60.6286   19.8621 C   0  0  0  0  0  0  0  0  0  0  0  0
   69.4065   60.4438   18.5738 C   0  0  0  0  0  0  0  0  0  0  0  0
   65.5544   49.9993   12.9128 C   0  0  1  0  0  0  0  0  0  0  0  0
   66.2477   48.7215   12.5180 C   0  0  0  0  0  0  0  0  0  0  0  0
   70.4532   54.4698   14.9884 N   0  0  0  0  0  0  0  0  0  0  0  0
   72.2672   58.2194   16.8292 N   0  0  0  0  0  0  0  0  0  0  0  0
   69.1397   55.6060   13.0436 O   0  0  0  0  0  0  0  0  0  0  0  0
   70.8782   54.0503   12.4662 O   0  0  0  0  0  0  0  0  0  0  0  0
   70.0428   57.5516   14.4403 O   0  0  0  0  0  0  0  0  0  0  0  0
   72.2285   58.3278   19.1121 O   0  0  0  0  0  0  0  0  0  0  0  0
   73.7363   59.6942   18.1598 O   0  0  0  0  0  0  0  0  0  0  0  0
   75.4486   61.9888   19.4536 O   0  0  0  0  0  0  0  0  0  0  0  0
   73.4419   62.8582   19.8688 O   0  0  0  0  0  0  0  0  0  0  0  0
   64.9102   49.8533   14.1143 O   0  0  0  0  0  0  0  0  0  0  0  0
   66.4627   48.6392   11.1451 O   0  0  0  0  0  0  0  0  0  0  0  0
   69.7754   54.2869   13.4699 S   0  0  2  0  0  6  0  0  0  0  0  0
 14  1  1  1
  2 16  1  0
 30  2  1  0
 31  3  1  0
  3 35  2  0
  3 36  1  0
 18  4  1  0
  4 37  1  0
  5  6  1  6
 18  5  1  0
  5 19  1  0
  6 20  1  0
  8  7  2  0
 12  7  1  0
  7 28  1  0
  9  8  1  0
 10  9  2  0
 10 11  1  0
 41 10  1  0
 11 12  2  0
 13 14  1  0
 30 13  1  0
 14 15  1  0
 16 17  1  0
 16 34  1  6
 17 21  1  6
 17 31  1  0
 18 36  1  6
 19 37  1  6
 19 38  1  0
 38 20  1  0
 21 22  1  0
 22 23  2  0
 22 27  1  0
 23 24  1  0
 24 25  2  0
 26 25  1  0
 27 26  2  0
 28 29  1  0
 28 39  1  1
 29 40  1  0
 41 30  1  1
 41 32  2  0
 41 33  2  0
M  END
$$$$
