
     RDKit          3D

 41 44  0  0  0  0  0  0  0  0999 V2000
   68.0369   55.1941   12.6986 C   0  0  0  0  0  0  0  0  0  0  0  0
   71.4010   57.0390   15.2233 C   0  0  0  0  0  0  0  0  0  0  0  0
   71.9395   59.1068   18.7500 C   0  0  0  0  0  0  0  0  0  0  0  0
   75.4184   59.2399   20.0414 C   0  0  0  0  0  0  0  0  0  0  0  0
   74.0951   60.9516   19.1488 C   0  0  1  0  0  0  0  0  0  0  0  0
   73.0446   61.0784   18.1072 C   0  0  0  0  0  0  0  0  0  0  0  0
   70.7282   50.5108   14.7417 C   0  0  0  0  0  0  0  0  0  0  0  0
   69.5708   51.1911   15.1081 C   0  0  0  0  0  0  0  0  0  0  0  0
   69.5733   52.4653   15.6325 C   0  0  0  0  0  0  0  0  0  0  0  0
   70.7822   53.1004   15.8036 C   0  0  0  0  0  0  0  0  0  0  0  0
   71.9470   52.4533   15.4503 C   0  0  0  0  0  0  0  0  0  0  0  0
   71.9319   51.1678   14.9223 C   0  0  0  0  0  0  0  0  0  0  0  0
   69.2518   56.0104   14.7603 C   0  0  0  0  0  0  0  0  0  0  0  0
   69.3213   55.6560   13.2983 C   0  0  2  0  0  0  0  0  0  0  0  0
   69.8236   56.8428   12.4717 C   0  0  0  0  0  0  0  0  0  0  0  0
   71.2789   58.1523   16.2126 C   0  0  2  0  0  0  0  0  0  0  0  0
   70.3399   57.8211   17.3510 C   0  0  2  0  0  0  0  0  0  0  0  0
   74.0038   59.6994   19.9700 C   0  0  1  0  0  0  0  0  0  0  0  0
   75.3795   60.7927   18.4145 C   0  0  1  0  0  0  0  0  0  0  0  0
   73.7913   60.8480   16.8190 C   0  0  0  0  0  0  0  0  0  0  0  0
   68.9432   58.3311   17.1313 C   0  0  0  0  0  0  0  0  0  0  0  0
   68.4750   58.9245   18.4120 C   0  0  0  0  0  0  0  0  0  0  0  0
   68.0902   58.0628   19.4155 C   0  0  0  0  0  0  0  0  0  0  0  0
   67.6460   58.5761   20.6138 C   0  0  0  0  0  0  0  0  0  0  0  0
   67.5932   59.9512   20.7915 C   0  0  0  0  0  0  0  0  0  0  0  0
   67.9751   60.8309   19.7958 C   0  0  0  0  0  0  0  0  0  0  0  0
   68.4154   60.2900   18.6075 C   0  0  0  0  0  0  0  0  0  0  0  0
   70.6536   49.1235   14.1764 C   0  0  1  0  0  0  0  0  0  0  0  0
   70.7517   49.2513   12.6786 C   0  0  0  0  0  0  0  0  0  0  0  0
   70.5254   55.9521   15.3561 N   0  0  0  0  0  0  0  0  0  0  0  0
   70.8244   58.2568   18.6218 N   0  0  0  0  0  0  0  0  0  0  0  0
   72.2892   54.9068   16.9671 O   0  0  0  0  0  0  0  0  0  0  0  0
   69.9852   54.8738   17.6503 O   0  0  0  0  0  0  0  0  0  0  0  0
   70.8965   59.3397   15.6057 O   0  0  0  0  0  0  0  0  0  0  0  0
   71.9205   60.2218   18.2194 O   0  0  0  0  0  0  0  0  0  0  0  0
   73.0944   58.7599   19.4572 O   0  0  0  0  0  0  0  0  0  0  0  0
   76.0434   59.6840   18.8910 O   0  0  0  0  0  0  0  0  0  0  0  0
   75.1058   60.5935   17.0886 O   0  0  0  0  0  0  0  0  0  0  0  0
   71.6981   48.3868   14.6724 O   0  0  0  0  0  0  0  0  0  0  0  0
   69.5467   48.9640   12.0435 O   0  0  0  0  0  0  0  0  0  0  0  0
   70.8711   54.7229   16.4370 S   0  0  2  0  0  6  0  0  0  0  0  0
 14  1  1  6
  2 16  1  0
 30  2  1  0
 31  3  1  0
  3 35  2  0
  3 36  1  0
 18  4  1  0
  4 37  1  0
  5  6  1  6
 18  5  1  0
  5 19  1  0
  6 20  1  0
  8  7  2  0
 12  7  1  0
  7 28  1  0
  9  8  1  0
 10  9  2  0
 10 11  1  0
 41 10  1  0
 11 12  2  0
 13 14  1  0
 30 13  1  0
 14 15  1  0
 16 17  1  0
 16 34  1  6
 17 21  1  6
 17 31  1  0
 18 36  1  6
 19 37  1  1
 19 38  1  0
 38 20  1  0
 21 22  1  0
 22 23  2  0
 22 27  1  0
 23 24  1  0
 24 25  2  0
 26 25  1  0
 27 26  2  0
 28 29  1  0
 28 39  1  1
 29 40  1  0
 41 30  1  6
 41 32  2  0
 41 33  2  0
M  END
$$$$
