
     RDKit          3D

 41 44  0  0  0  0  0  0  0  0999 V2000
   74.0878   54.2093   15.7741 C   0  0  0  0  0  0  0  0  0  0  0  0
   71.9741   56.2177   15.2625 C   0  0  0  0  0  0  0  0  0  0  0  0
   72.5480   58.6945   18.0368 C   0  0  0  0  0  0  0  0  0  0  0  0
   75.7959   60.0615   19.3014 C   0  0  0  0  0  0  0  0  0  0  0  0
   73.8628   60.1541   20.6178 C   0  0  1  0  0  0  0  0  0  0  0  0
   72.4531   60.5867   20.4444 C   0  0  0  0  0  0  0  0  0  0  0  0
   67.3058   51.7087   13.3918 C   0  0  0  0  0  0  0  0  0  0  0  0
   68.1982   51.2989   14.3778 C   0  0  0  0  0  0  0  0  0  0  0  0
   68.9876   52.1702   15.0966 C   0  0  0  0  0  0  0  0  0  0  0  0
   68.8900   53.5162   14.8271 C   0  0  0  0  0  0  0  0  0  0  0  0
   68.0151   53.9543   13.8560 C   0  0  0  0  0  0  0  0  0  0  0  0
   67.2240   53.0659   13.1375 C   0  0  0  0  0  0  0  0  0  0  0  0
   72.0108   53.9676   14.3528 C   0  0  0  0  0  0  0  0  0  0  0  0
   73.5099   54.1001   14.4042 C   0  0  2  0  0  0  0  0  0  0  0  0
   74.1871   52.9191   13.7035 C   0  0  0  0  0  0  0  0  0  0  0  0
   71.0709   57.4064   15.1981 C   0  0  2  0  0  0  0  0  0  0  0  0
   70.6975   57.9305   16.5667 C   0  0  2  0  0  0  0  0  0  0  0  0
   74.4442   59.4494   19.4279 C   0  0  1  0  0  0  0  0  0  0  0  0
   74.6644   61.4046   20.7068 C   0  0  1  0  0  0  0  0  0  0  0  0
   72.5544   62.0841   20.3109 C   0  0  0  0  0  0  0  0  0  0  0  0
   69.2765   58.4144   16.6458 C   0  0  0  0  0  0  0  0  0  0  0  0
   69.0514   58.9235   18.0248 C   0  0  0  0  0  0  0  0  0  0  0  0
   69.2184   60.2729   18.2456 C   0  0  0  0  0  0  0  0  0  0  0  0
   69.0236   60.7798   19.5112 C   0  0  0  0  0  0  0  0  0  0  0  0
   68.6625   59.9248   20.5426 C   0  0  0  0  0  0  0  0  0  0  0  0
   68.4907   58.5682   20.3396 C   0  0  0  0  0  0  0  0  0  0  0  0
   68.6918   58.0883   19.0638 C   0  0  0  0  0  0  0  0  0  0  0  0
   66.4759   50.7060   12.6466 C   0  0  1  0  0  0  0  0  0  0  0  0
   66.9389   49.3398   13.0810 C   0  0  0  0  0  0  0  0  0  0  0  0
   71.3886   54.9491   15.1468 N   0  0  0  0  0  0  0  0  0  0  0  0
   71.5852   58.9441   17.0401 N   0  0  0  0  0  0  0  0  0  0  0  0
   69.9009   54.1968   17.1516 O   0  0  0  0  0  0  0  0  0  0  0  0
   69.1121   56.0105   15.7862 O   0  0  0  0  0  0  0  0  0  0  0  0
   69.9281   57.1441   14.4569 O   0  0  0  0  0  0  0  0  0  0  0  0
   72.4451   57.6885   18.7457 O   0  0  0  0  0  0  0  0  0  0  0  0
   73.6393   59.5337   18.2800 O   0  0  0  0  0  0  0  0  0  0  0  0
   75.7038   61.3456   19.8050 O   0  0  0  0  0  0  0  0  0  0  0  0
   73.8648   62.4638   20.3732 O   0  0  0  0  0  0  0  0  0  0  0  0
   65.1567   50.8982   12.9664 O   0  0  0  0  0  0  0  0  0  0  0  0
   66.1858   48.3193   12.5074 O   0  0  0  0  0  0  0  0  0  0  0  0
   69.8349   54.6871   15.7090 S   0  0  2  0  0  6  0  0  0  0  0  0
 14  1  1  1
  2 16  1  0
 30  2  1  0
 31  3  1  0
  3 35  2  0
  3 36  1  0
 18  4  1  0
  4 37  1  0
  5  6  1  6
 18  5  1  0
  5 19  1  0
  6 20  1  0
  8  7  2  0
 12  7  1  0
  7 28  1  0
  9  8  1  0
 10  9  2  0
 10 11  1  0
 41 10  1  0
 11 12  2  0
 13 14  1  0
 30 13  1  0
 14 15  1  0
 16 17  1  0
 16 34  1  1
 17 21  1  6
 17 31  1  0
 18 36  1  6
 19 37  1  6
 19 38  1  0
 38 20  1  0
 21 22  1  0
 22 23  2  0
 22 27  1  0
 23 24  1  0
 24 25  2  0
 26 25  1  0
 27 26  2  0
 28 29  1  0
 28 39  1  1
 29 40  1  0
 41 30  1  6
 41 32  2  0
 41 33  2  0
M  END
$$$$
