
     RDKit          3D

 41 44  0  0  0  0  0  0  0  0999 V2000
   72.9445   55.2146   15.6644 C   0  0  0  0  0  0  0  0  0  0  0  0
   69.9107   56.3925   14.9484 C   0  0  0  0  0  0  0  0  0  0  0  0
   72.9165   58.7431   17.7657 C   0  0  0  0  0  0  0  0  0  0  0  0
   75.7494   60.4593   19.5340 C   0  0  0  0  0  0  0  0  0  0  0  0
   73.5969   60.3583   20.4474 C   0  0  1  0  0  0  0  0  0  0  0  0
   72.2099   60.6164   19.9846 C   0  0  0  0  0  0  0  0  0  0  0  0
   67.4802   50.8116   12.8511 C   0  0  0  0  0  0  0  0  0  0  0  0
   67.0509   52.1325   12.9379 C   0  0  0  0  0  0  0  0  0  0  0  0
   67.6462   53.0720   13.7514 C   0  0  0  0  0  0  0  0  0  0  0  0
   68.7215   52.6863   14.5187 C   0  0  0  0  0  0  0  0  0  0  0  0
   69.1711   51.3847   14.4553 C   0  0  0  0  0  0  0  0  0  0  0  0
   68.5624   50.4459   13.6310 C   0  0  0  0  0  0  0  0  0  0  0  0
   71.3020   54.7731   13.7936 C   0  0  0  0  0  0  0  0  0  0  0  0
   72.6436   54.4714   14.4076 C   0  0  2  0  0  0  0  0  0  0  0  0
   72.7854   52.9758   14.7030 C   0  0  0  0  0  0  0  0  0  0  0  0
   70.9382   57.4754   14.8808 C   0  0  2  0  0  0  0  0  0  0  0  0
   71.0721   58.2351   16.1817 C   0  0  2  0  0  0  0  0  0  0  0  0
   74.4756   59.6953   19.4280 C   0  0  1  0  0  0  0  0  0  0  0  0
   74.2218   61.6966   20.6271 C   0  0  1  0  0  0  0  0  0  0  0  0
   72.1692   62.1111   19.7992 C   0  0  0  0  0  0  0  0  0  0  0  0
   70.1431   59.4131   16.2754 C   0  0  0  0  0  0  0  0  0  0  0  0
   69.5446   59.4060   17.6367 C   0  0  0  0  0  0  0  0  0  0  0  0
   69.1380   58.1951   18.1524 C   0  0  0  0  0  0  0  0  0  0  0  0
   68.5744   58.1502   19.4082 C   0  0  0  0  0  0  0  0  0  0  0  0
   68.4252   59.3237   20.1335 C   0  0  0  0  0  0  0  0  0  0  0  0
   68.8272   60.5476   19.6319 C   0  0  0  0  0  0  0  0  0  0  0  0
   69.3879   60.5631   18.3735 C   0  0  0  0  0  0  0  0  0  0  0  0
   66.7856   49.8396   11.9442 C   0  0  1  0  0  0  0  0  0  0  0  0
   65.9007   48.9822   12.8110 C   0  0  0  0  0  0  0  0  0  0  0  0
   70.3476   55.0705   14.7842 N   0  0  0  0  0  0  0  0  0  0  0  0
   72.4119   58.6471   16.4547 N   0  0  0  0  0  0  0  0  0  0  0  0
   70.5504   53.0127   16.3726 O   0  0  0  0  0  0  0  0  0  0  0  0
   68.5993   54.4010   16.5767 O   0  0  0  0  0  0  0  0  0  0  0  0
   70.6913   58.3538   13.8358 O   0  0  0  0  0  0  0  0  0  0  0  0
   72.4764   57.9956   18.6447 O   0  0  0  0  0  0  0  0  0  0  0  0
   73.9082   59.6530   18.1439 O   0  0  0  0  0  0  0  0  0  0  0  0
   75.4185   61.7366   19.9463 O   0  0  0  0  0  0  0  0  0  0  0  0
   73.3915   62.6445   20.0938 O   0  0  0  0  0  0  0  0  0  0  0  0
   66.0414   50.5408   11.0308 O   0  0  0  0  0  0  0  0  0  0  0  0
   65.2493   47.9902   12.0834 O   0  0  0  0  0  0  0  0  0  0  0  0
   69.5473   53.8200   15.5553 S   0  0  2  0  0  6  0  0  0  0  0  0
 14  1  1  1
  2 16  1  0
 30  2  1  0
 31  3  1  0
  3 35  2  0
  3 36  1  0
 18  4  1  0
  4 37  1  0
  5  6  1  6
 18  5  1  0
  5 19  1  0
  6 20  1  0
  8  7  2  0
 12  7  1  0
  7 28  1  0
  9  8  1  0
 10  9  2  0
 10 11  1  0
 41 10  1  0
 11 12  2  0
 13 14  1  0
 30 13  1  0
 14 15  1  0
 16 17  1  0
 16 34  1  6
 17 21  1  6
 17 31  1  0
 18 36  1  6
 19 37  1  6
 19 38  1  0
 38 20  1  0
 21 22  1  0
 22 23  2  0
 22 27  1  0
 23 24  1  0
 24 25  2  0
 26 25  1  0
 27 26  2  0
 28 29  1  0
 28 39  1  6
 29 40  1  0
 41 30  1  6
 41 32  2  0
 41 33  2  0
M  END
$$$$
