
     RDKit          3D

 41 44  0  0  0  0  0  0  0  0999 V2000
   73.9536   52.8810   14.4271 C   0  0  0  0  0  0  0  0  0  0  0  0
   71.6381   56.2047   15.6082 C   0  0  0  0  0  0  0  0  0  0  0  0
   72.4134   59.2376   17.9589 C   0  0  0  0  0  0  0  0  0  0  0  0
   75.6521   60.6090   18.6819 C   0  0  0  0  0  0  0  0  0  0  0  0
   73.6813   60.7361   19.9380 C   0  0  1  0  0  0  0  0  0  0  0  0
   72.2224   60.6440   19.6780 C   0  0  0  0  0  0  0  0  0  0  0  0
   67.2550   51.4812   13.5173 C   0  0  0  0  0  0  0  0  0  0  0  0
   67.0271   52.8320   13.2723 C   0  0  0  0  0  0  0  0  0  0  0  0
   67.6602   53.8452   13.9589 C   0  0  0  0  0  0  0  0  0  0  0  0
   68.5654   53.5060   14.9384 C   0  0  0  0  0  0  0  0  0  0  0  0
   68.8134   52.1765   15.2052 C   0  0  0  0  0  0  0  0  0  0  0  0
   68.1686   51.1632   14.5060 C   0  0  0  0  0  0  0  0  0  0  0  0
   71.6864   53.9800   14.6386 C   0  0  0  0  0  0  0  0  0  0  0  0
   73.1817   54.1133   14.7561 C   0  0  2  0  0  0  0  0  0  0  0  0
   73.7014   55.2433   13.8633 C   0  0  0  0  0  0  0  0  0  0  0  0
   70.8461   57.4252   15.2678 C   0  0  2  0  0  0  0  0  0  0  0  0
   70.6517   58.3443   16.4532 C   0  0  2  0  0  0  0  0  0  0  0  0
   74.5127   59.7702   19.1465 C   0  0  1  0  0  0  0  0  0  0  0  0
   74.1043   62.0650   19.4193 C   0  0  1  0  0  0  0  0  0  0  0  0
   71.9213   61.8948   18.8937 C   0  0  0  0  0  0  0  0  0  0  0  0
   69.4040   59.1768   16.3560 C   0  0  0  0  0  0  0  0  0  0  0  0
   68.9753   59.5070   17.7411 C   0  0  0  0  0  0  0  0  0  0  0  0
   68.7392   58.4612   18.6061 C   0  0  0  0  0  0  0  0  0  0  0  0
   68.3358   58.7284   19.8955 C   0  0  0  0  0  0  0  0  0  0  0  0
   68.1736   60.0449   20.3027 C   0  0  0  0  0  0  0  0  0  0  0  0
   68.4057   61.1068   19.4485 C   0  0  0  0  0  0  0  0  0  0  0  0
   68.8085   60.8105   18.1646 C   0  0  0  0  0  0  0  0  0  0  0  0
   66.5305   50.4285   12.7321 C   0  0  1  0  0  0  0  0  0  0  0  0
   66.4808   50.9004   11.3023 C   0  0  0  0  0  0  0  0  0  0  0  0
   71.0292   54.9577   15.4086 N   0  0  0  0  0  0  0  0  0  0  0  0
   71.7801   59.1834   16.7026 N   0  0  0  0  0  0  0  0  0  0  0  0
   69.3561   54.3214   17.3044 O   0  0  0  0  0  0  0  0  0  0  0  0
   68.7072   56.0520   15.7682 O   0  0  0  0  0  0  0  0  0  0  0  0
   69.6198   57.1020   14.7056 O   0  0  0  0  0  0  0  0  0  0  0  0
   71.7342   59.3976   18.9779 O   0  0  0  0  0  0  0  0  0  0  0  0
   73.7958   59.1184   18.1297 O   0  0  0  0  0  0  0  0  0  0  0  0
   75.1798   61.9038   18.5740 O   0  0  0  0  0  0  0  0  0  0  0  0
   73.0714   62.6062   18.7030 O   0  0  0  0  0  0  0  0  0  0  0  0
   67.2208   49.2482   12.8323 O   0  0  0  0  0  0  0  0  0  0  0  0
   65.9162   49.9534   10.4525 O   0  0  0  0  0  0  0  0  0  0  0  0
   69.4283   54.7272   15.8361 S   0  0  2  0  0  6  0  0  0  0  0  0
 14  1  1  6
  2 16  1  0
 30  2  1  0
 31  3  1  0
  3 35  2  0
  3 36  1  0
 18  4  1  0
  4 37  1  0
  5  6  1  6
 18  5  1  0
  5 19  1  0
  6 20  1  0
  8  7  2  0
 12  7  1  0
  7 28  1  0
  9  8  1  0
 10  9  2  0
 10 11  1  0
 41 10  1  0
 11 12  2  0
 13 14  1  0
 30 13  1  0
 14 15  1  0
 16 17  1  0
 16 34  1  1
 17 21  1  6
 17 31  1  0
 18 36  1  6
 19 37  1  6
 19 38  1  0
 38 20  1  0
 21 22  1  0
 22 23  2  0
 22 27  1  0
 23 24  1  0
 24 25  2  0
 26 25  1  0
 27 26  2  0
 28 29  1  0
 28 39  1  6
 29 40  1  0
 41 30  1  6
 41 32  2  0
 41 33  2  0
M  END
$$$$
