
     RDKit          3D

 41 44  0  0  0  0  0  0  0  0999 V2000
   73.9101   53.9896   16.4482 C   0  0  0  0  0  0  0  0  0  0  0  0
   72.2419   56.1019   14.9517 C   0  0  0  0  0  0  0  0  0  0  0  0
   72.6134   58.8193   17.7655 C   0  0  0  0  0  0  0  0  0  0  0  0
   75.6872   60.3018   18.7807 C   0  0  0  0  0  0  0  0  0  0  0  0
   74.0144   60.8389   20.3270 C   0  0  1  0  0  0  0  0  0  0  0  0
   72.6535   61.4315   20.2896 C   0  0  0  0  0  0  0  0  0  0  0  0
   67.3664   51.6671   13.3791 C   0  0  0  0  0  0  0  0  0  0  0  0
   68.5087   51.3942   14.1255 C   0  0  0  0  0  0  0  0  0  0  0  0
   69.2887   52.3718   14.7040 C   0  0  0  0  0  0  0  0  0  0  0  0
   68.9209   53.6872   14.5363 C   0  0  0  0  0  0  0  0  0  0  0  0
   67.7942   53.9907   13.8021 C   0  0  0  0  0  0  0  0  0  0  0  0
   67.0153   52.9959   13.2233 C   0  0  0  0  0  0  0  0  0  0  0  0
   72.1015   53.6911   14.7068 C   0  0  0  0  0  0  0  0  0  0  0  0
   73.5737   53.7110   15.0227 C   0  0  2  0  0  0  0  0  0  0  0  0
   74.2334   52.3843   14.6370 C   0  0  0  0  0  0  0  0  0  0  0  0
   71.4924   57.3946   14.9556 C   0  0  2  0  0  0  0  0  0  0  0  0
   70.9173   57.7318   16.3131 C   0  0  2  0  0  0  0  0  0  0  0  0
   74.3129   59.9033   19.1929 C   0  0  1  0  0  0  0  0  0  0  0  0
   74.9566   61.9685   20.1027 C   0  0  1  0  0  0  0  0  0  0  0  0
   72.9014   62.8679   19.9083 C   0  0  0  0  0  0  0  0  0  0  0  0
   69.4201   57.8646   16.3032 C   0  0  0  0  0  0  0  0  0  0  0  0
   68.9288   57.5124   17.6619 C   0  0  0  0  0  0  0  0  0  0  0  0
   68.1498   56.3836   17.7899 C   0  0  0  0  0  0  0  0  0  0  0  0
   67.6725   56.0290   19.0321 C   0  0  0  0  0  0  0  0  0  0  0  0
   67.9833   56.8130   20.1339 C   0  0  0  0  0  0  0  0  0  0  0  0
   68.7634   57.9490   20.0243 C   0  0  0  0  0  0  0  0  0  0  0  0
   69.2275   58.2801   18.7700 C   0  0  0  0  0  0  0  0  0  0  0  0
   66.5624   50.5535   12.7763 C   0  0  1  0  0  0  0  0  0  0  0  0
   66.2945   49.5579   13.8746 C   0  0  0  0  0  0  0  0  0  0  0  0
   71.4963   54.9177   15.0379 N   0  0  0  0  0  0  0  0  0  0  0  0
   71.5064   58.8936   16.8986 N   0  0  0  0  0  0  0  0  0  0  0  0
   69.5301   54.9586   16.7500 O   0  0  0  0  0  0  0  0  0  0  0  0
   69.3348   56.3251   14.7826 O   0  0  0  0  0  0  0  0  0  0  0  0
   70.4931   57.4124   13.9936 O   0  0  0  0  0  0  0  0  0  0  0  0
   72.9733   57.7217   18.2024 O   0  0  0  0  0  0  0  0  0  0  0  0
   73.3486   59.9366   18.1723 O   0  0  0  0  0  0  0  0  0  0  0  0
   75.8239   61.6438   19.0831 O   0  0  0  0  0  0  0  0  0  0  0  0
   74.2394   63.0703   19.7231 O   0  0  0  0  0  0  0  0  0  0  0  0
   65.3893   51.0686   12.2883 O   0  0  0  0  0  0  0  0  0  0  0  0
   66.6420   48.2606   13.5084 O   0  0  0  0  0  0  0  0  0  0  0  0
   69.8390   54.9833   15.2568 S   0  0  2  0  0  6  0  0  0  0  0  0
 14  1  1  1
  2 16  1  0
 30  2  1  0
 31  3  1  0
  3 35  2  0
  3 36  1  0
 18  4  1  0
  4 37  1  0
  5  6  1  6
 18  5  1  0
  5 19  1  0
  6 20  1  0
  8  7  2  0
 12  7  1  0
  7 28  1  0
  9  8  1  0
 10  9  2  0
 10 11  1  0
 41 10  1  0
 11 12  2  0
 13 14  1  0
 30 13  1  0
 14 15  1  0
 16 17  1  0
 16 34  1  6
 17 21  1  6
 17 31  1  0
 18 36  1  6
 19 37  1  6
 19 38  1  0
 38 20  1  0
 21 22  1  0
 22 23  2  0
 22 27  1  0
 23 24  1  0
 24 25  2  0
 26 25  1  0
 27 26  2  0
 28 29  1  0
 28 39  1  1
 29 40  1  0
 41 30  1  1
 41 32  2  0
 41 33  2  0
M  END
$$$$
