
     RDKit          3D

 41 44  0  0  0  0  0  0  0  0999 V2000
   73.1599   54.6208   15.9590 C   0  0  0  0  0  0  0  0  0  0  0  0
   70.3037   56.5526   14.4762 C   0  0  0  0  0  0  0  0  0  0  0  0
   72.9954   58.8309   17.2924 C   0  0  0  0  0  0  0  0  0  0  0  0
   74.5204   61.9648   18.5104 C   0  0  0  0  0  0  0  0  0  0  0  0
   73.7729   60.4589   20.1387 C   0  0  1  0  0  0  0  0  0  0  0  0
   72.5223   59.7154   20.4350 C   0  0  0  0  0  0  0  0  0  0  0  0
   67.1450   51.0267   13.5903 C   0  0  0  0  0  0  0  0  0  0  0  0
   68.3216   50.7662   14.2861 C   0  0  0  0  0  0  0  0  0  0  0  0
   69.0560   51.7404   14.9268 C   0  0  0  0  0  0  0  0  0  0  0  0
   68.6042   53.0394   14.8774 C   0  0  0  0  0  0  0  0  0  0  0  0
   67.4417   53.3303   14.1960 C   0  0  0  0  0  0  0  0  0  0  0  0
   66.7094   52.3391   13.5535 C   0  0  0  0  0  0  0  0  0  0  0  0
   71.5359   54.5107   14.0242 C   0  0  0  0  0  0  0  0  0  0  0  0
   72.9083   54.8900   14.5144 C   0  0  2  0  0  0  0  0  0  0  0  0
   73.9942   54.1718   13.7086 C   0  0  0  0  0  0  0  0  0  0  0  0
   71.2481   57.5457   15.0718 C   0  0  2  0  0  0  0  0  0  0  0  0
   70.8075   58.0240   16.4373 C   0  0  2  0  0  0  0  0  0  0  0  0
   74.1114   60.5429   18.6796 C   0  0  1  0  0  0  0  0  0  0  0  0
   73.5046   61.8732   20.5152 C   0  0  1  0  0  0  0  0  0  0  0  0
   71.5556   60.7952   20.8469 C   0  0  0  0  0  0  0  0  0  0  0  0
   70.1600   59.3801   16.4070 C   0  0  0  0  0  0  0  0  0  0  0  0
   69.5812   59.6318   17.7535 C   0  0  0  0  0  0  0  0  0  0  0  0
   69.2335   58.5390   18.5167 C   0  0  0  0  0  0  0  0  0  0  0  0
   68.6897   58.7333   19.7671 C   0  0  0  0  0  0  0  0  0  0  0  0
   68.5010   60.0248   20.2379 C   0  0  0  0  0  0  0  0  0  0  0  0
   68.8437   61.1330   19.4860 C   0  0  0  0  0  0  0  0  0  0  0  0
   69.3858   60.9094   18.2392 C   0  0  0  0  0  0  0  0  0  0  0  0
   66.3944   49.9178   12.9146 C   0  0  1  0  0  0  0  0  0  0  0  0
   66.0756   48.8927   13.9714 C   0  0  0  0  0  0  0  0  0  0  0  0
   70.5360   55.1953   14.7398 N   0  0  0  0  0  0  0  0  0  0  0  0
   71.8592   58.0067   17.4033 N   0  0  0  0  0  0  0  0  0  0  0  0
   70.2160   53.6891   16.8440 O   0  0  0  0  0  0  0  0  0  0  0  0
   68.4951   55.2876   16.3349 O   0  0  0  0  0  0  0  0  0  0  0  0
   71.4554   58.6277   14.2287 O   0  0  0  0  0  0  0  0  0  0  0  0
   73.9895   58.4205   16.6854 O   0  0  0  0  0  0  0  0  0  0  0  0
   73.0707   60.1154   17.8389 O   0  0  0  0  0  0  0  0  0  0  0  0
   73.8325   62.6963   19.4606 O   0  0  0  0  0  0  0  0  0  0  0  0
   72.1678   62.0138   20.7713 O   0  0  0  0  0  0  0  0  0  0  0  0
   65.2452   50.4295   12.3693 O   0  0  0  0  0  0  0  0  0  0  0  0
   65.3283   47.8309   13.4695 O   0  0  0  0  0  0  0  0  0  0  0  0
   69.4608   54.3274   15.6830 S   0  0  2  0  0  6  0  0  0  0  0  0
 14  1  1  1
  2 16  1  0
 30  2  1  0
 31  3  1  0
  3 35  2  0
  3 36  1  0
 18  4  1  0
  4 37  1  0
  5  6  1  6
 18  5  1  0
  5 19  1  0
  6 20  1  0
  8  7  2  0
 12  7  1  0
  7 28  1  0
  9  8  1  0
 10  9  2  0
 10 11  1  0
 41 10  1  0
 11 12  2  0
 13 14  1  0
 30 13  1  0
 14 15  1  0
 16 17  1  0
 16 34  1  6
 17 21  1  6
 17 31  1  0
 18 36  1  6
 19 37  1  6
 19 38  1  0
 38 20  1  0
 21 22  1  0
 22 23  2  0
 22 27  1  0
 23 24  1  0
 24 25  2  0
 26 25  1  0
 27 26  2  0
 28 29  1  0
 28 39  1  1
 29 40  1  0
 41 30  1  6
 41 32  2  0
 41 33  2  0
M  END
$$$$
