
     RDKit          3D

 41 44  0  0  0  0  0  0  0  0999 V2000
   67.4191   54.4609   13.3664 C   0  0  0  0  0  0  0  0  0  0  0  0
   71.3851   56.4290   14.5053 C   0  0  0  0  0  0  0  0  0  0  0  0
   72.2473   58.6443   17.9872 C   0  0  0  0  0  0  0  0  0  0  0  0
   75.5731   59.9224   18.6435 C   0  0  0  0  0  0  0  0  0  0  0  0
   74.0562   60.4500   20.3460 C   0  0  1  0  0  0  0  0  0  0  0  0
   72.7191   61.0874   20.4472 C   0  0  0  0  0  0  0  0  0  0  0  0
   72.5753   49.8955   14.5006 C   0  0  0  0  0  0  0  0  0  0  0  0
   71.6338   50.1116   15.5023 C   0  0  0  0  0  0  0  0  0  0  0  0
   71.2474   51.3656   15.9230 C   0  0  0  0  0  0  0  0  0  0  0  0
   71.8210   52.4630   15.3226 C   0  0  0  0  0  0  0  0  0  0  0  0
   72.7571   52.2826   14.3269 C   0  0  0  0  0  0  0  0  0  0  0  0
   73.1390   51.0127   13.9111 C   0  0  0  0  0  0  0  0  0  0  0  0
   69.9222   54.7014   13.6296 C   0  0  0  0  0  0  0  0  0  0  0  0
   68.5554   54.8787   14.2363 C   0  0  2  0  0  0  0  0  0  0  0  0
   68.4401   54.1124   15.5568 C   0  0  0  0  0  0  0  0  0  0  0  0
   70.4129   57.5016   14.8753 C   0  0  2  0  0  0  0  0  0  0  0  0
   70.5497   57.9419   16.3157 C   0  0  2  0  0  0  0  0  0  0  0  0
   74.2248   59.5522   19.1560 C   0  0  1  0  0  0  0  0  0  0  0  0
   75.0161   61.5566   20.0852 C   0  0  1  0  0  0  0  0  0  0  0  0
   72.9853   62.5294   20.1009 C   0  0  0  0  0  0  0  0  0  0  0  0
   69.6913   59.1285   16.6542 C   0  0  0  0  0  0  0  0  0  0  0  0
   69.4960   59.1357   18.1284 C   0  0  0  0  0  0  0  0  0  0  0  0
   69.7234   60.3168   18.7999 C   0  0  0  0  0  0  0  0  0  0  0  0
   69.5576   60.3601   20.1664 C   0  0  0  0  0  0  0  0  0  0  0  0
   69.1646   59.2151   20.8445 C   0  0  0  0  0  0  0  0  0  0  0  0
   68.9321   58.0214   20.1873 C   0  0  0  0  0  0  0  0  0  0  0  0
   69.1054   58.0067   18.8205 C   0  0  0  0  0  0  0  0  0  0  0  0
   72.9506   48.5023   14.0911 C   0  0  1  0  0  0  0  0  0  0  0  0
   71.8475   47.9916   13.2012 C   0  0  0  0  0  0  0  0  0  0  0  0
   70.9298   55.1031   14.5262 N   0  0  0  0  0  0  0  0  0  0  0  0
   71.9024   58.1929   16.6989 N   0  0  0  0  0  0  0  0  0  0  0  0
   72.5652   54.6807   16.5126 O   0  0  0  0  0  0  0  0  0  0  0  0
   70.2608   54.0634   16.8043 O   0  0  0  0  0  0  0  0  0  0  0  0
   69.1046   57.1228   14.6120 O   0  0  0  0  0  0  0  0  0  0  0  0
   71.7120   58.1334   18.9760 O   0  0  0  0  0  0  0  0  0  0  0  0
   73.1801   59.6584   18.2233 O   0  0  0  0  0  0  0  0  0  0  0  0
   75.7826   61.2458   18.9838 O   0  0  0  0  0  0  0  0  0  0  0  0
   74.3094   62.6956   19.8102 O   0  0  0  0  0  0  0  0  0  0  0  0
   74.1423   48.5457   13.4145 O   0  0  0  0  0  0  0  0  0  0  0  0
   71.6616   46.6177   13.3253 O   0  0  0  0  0  0  0  0  0  0  0  0
   71.3687   54.0845   15.7786 S   0  0  2  0  0  6  0  0  0  0  0  0
 14  1  1  6
  2 16  1  0
 30  2  1  0
 31  3  1  0
  3 35  2  0
  3 36  1  0
 18  4  1  0
  4 37  1  0
  5  6  1  6
 18  5  1  0
  5 19  1  0
  6 20  1  0
  8  7  2  0
 12  7  1  0
  7 28  1  0
  9  8  1  0
 10  9  2  0
 10 11  1  0
 41 10  1  0
 11 12  2  0
 13 14  1  0
 30 13  1  0
 14 15  1  0
 16 17  1  0
 16 34  1  1
 17 21  1  6
 17 31  1  0
 18 36  1  6
 19 37  1  6
 19 38  1  0
 38 20  1  0
 21 22  1  0
 22 23  2  0
 22 27  1  0
 23 24  1  0
 24 25  2  0
 26 25  1  0
 27 26  2  0
 28 29  1  0
 28 39  1  6
 29 40  1  0
 41 30  1  6
 41 32  2  0
 41 33  2  0
M  END
$$$$
