
     RDKit          3D

 41 44  0  0  0  0  0  0  0  0999 V2000
   73.6281   53.8792   16.5908 C   0  0  0  0  0  0  0  0  0  0  0  0
   70.8208   56.7094   14.6239 C   0  0  0  0  0  0  0  0  0  0  0  0
   72.6851   58.8393   18.5085 C   0  0  0  0  0  0  0  0  0  0  0  0
   75.9996   60.2077   19.0862 C   0  0  0  0  0  0  0  0  0  0  0  0
   74.1274   60.1922   20.4907 C   0  0  1  0  0  0  0  0  0  0  0  0
   72.6522   60.1452   20.3299 C   0  0  0  0  0  0  0  0  0  0  0  0
   67.4212   51.5411   13.2979 C   0  0  0  0  0  0  0  0  0  0  0  0
   68.8109   51.5698   13.3662 C   0  0  0  0  0  0  0  0  0  0  0  0
   69.5154   52.4951   14.1053 C   0  0  0  0  0  0  0  0  0  0  0  0
   68.8102   53.4409   14.8137 C   0  0  0  0  0  0  0  0  0  0  0  0
   67.4325   53.4393   14.7668 C   0  0  0  0  0  0  0  0  0  0  0  0
   66.7328   52.5009   14.0176 C   0  0  0  0  0  0  0  0  0  0  0  0
   72.0725   54.6333   14.7458 C   0  0  0  0  0  0  0  0  0  0  0  0
   73.2334   54.9631   15.6465 C   0  0  2  0  0  0  0  0  0  0  0  0
   74.4698   55.3431   14.8273 C   0  0  0  0  0  0  0  0  0  0  0  0
   71.6347   57.7585   15.3092 C   0  0  2  0  0  0  0  0  0  0  0  0
   71.1619   58.0360   16.7187 C   0  0  2  0  0  0  0  0  0  0  0  0
   74.8825   59.3265   19.5257 C   0  0  1  0  0  0  0  0  0  0  0  0
   74.5346   61.5723   20.1114 C   0  0  1  0  0  0  0  0  0  0  0  0
   72.3167   61.4868   19.7318 C   0  0  0  0  0  0  0  0  0  0  0  0
   69.6892   58.3259   16.8007 C   0  0  0  0  0  0  0  0  0  0  0  0
   69.4102   58.8522   18.1633 C   0  0  0  0  0  0  0  0  0  0  0  0
   69.1100   57.9426   19.1533 C   0  0  0  0  0  0  0  0  0  0  0  0
   68.8408   58.3936   20.4264 C   0  0  0  0  0  0  0  0  0  0  0  0
   68.8763   59.7550   20.6918 C   0  0  0  0  0  0  0  0  0  0  0  0
   69.1755   60.6821   19.7110 C   0  0  0  0  0  0  0  0  0  0  0  0
   69.4407   60.2032   18.4466 C   0  0  0  0  0  0  0  0  0  0  0  0
   66.7172   50.5051   12.4728 C   0  0  1  0  0  0  0  0  0  0  0  0
   65.2458   50.6278   12.7720 C   0  0  0  0  0  0  0  0  0  0  0  0
   70.9366   55.3910   15.0866 N   0  0  0  0  0  0  0  0  0  0  0  0
   71.9004   59.0745   17.3634 N   0  0  0  0  0  0  0  0  0  0  0  0
   70.0842   53.9139   17.0590 O   0  0  0  0  0  0  0  0  0  0  0  0
   68.6538   55.6809   16.2795 O   0  0  0  0  0  0  0  0  0  0  0  0
   71.6771   58.9360   14.5771 O   0  0  0  0  0  0  0  0  0  0  0  0
   72.1336   58.6429   19.5959 O   0  0  0  0  0  0  0  0  0  0  0  0
   74.0828   58.8131   18.4917 O   0  0  0  0  0  0  0  0  0  0  0  0
   75.5431   61.5095   19.1754 O   0  0  0  0  0  0  0  0  0  0  0  0
   73.4621   62.2072   19.5465 O   0  0  0  0  0  0  0  0  0  0  0  0
   66.9673   50.7502   11.1472 O   0  0  0  0  0  0  0  0  0  0  0  0
   64.5694   49.4233   12.6006 O   0  0  0  0  0  0  0  0  0  0  0  0
   69.6247   54.6314   15.7942 S   0  0  2  0  0  6  0  0  0  0  0  0
 14  1  1  6
  2 16  1  0
 30  2  1  0
 31  3  1  0
  3 35  2  0
  3 36  1  0
 18  4  1  0
  4 37  1  0
  5  6  1  6
 18  5  1  0
  5 19  1  0
  6 20  1  0
  8  7  2  0
 12  7  1  0
  7 28  1  0
  9  8  1  0
 10  9  2  0
 10 11  1  0
 41 10  1  0
 11 12  2  0
 13 14  1  0
 30 13  1  0
 14 15  1  0
 16 17  1  0
 16 34  1  6
 17 21  1  6
 17 31  1  0
 18 36  1  6
 19 37  1  6
 19 38  1  0
 38 20  1  0
 21 22  1  0
 22 23  2  0
 22 27  1  0
 23 24  1  0
 24 25  2  0
 26 25  1  0
 27 26  2  0
 28 29  1  0
 28 39  1  6
 29 40  1  0
 41 30  1  6
 41 32  2  0
 41 33  2  0
M  END
$$$$
