
     RDKit          3D

 41 44  0  0  0  0  0  0  0  0999 V2000
   73.4513   54.5375   15.4093 C   0  0  0  0  0  0  0  0  0  0  0  0
   71.4189   56.0877   15.8911 C   0  0  0  0  0  0  0  0  0  0  0  0
   72.5602   58.8112   17.9650 C   0  0  0  0  0  0  0  0  0  0  0  0
   75.5489   60.6592   19.3183 C   0  0  0  0  0  0  0  0  0  0  0  0
   73.4534   60.6466   20.3608 C   0  0  1  0  0  0  0  0  0  0  0  0
   72.0383   60.8334   19.9521 C   0  0  0  0  0  0  0  0  0  0  0  0
   67.5264   51.1015   13.2067 C   0  0  0  0  0  0  0  0  0  0  0  0
   68.4638   50.8116   14.1935 C   0  0  0  0  0  0  0  0  0  0  0  0
   69.0560   51.7727   14.9836 C   0  0  0  0  0  0  0  0  0  0  0  0
   68.7035   53.0886   14.7887 C   0  0  0  0  0  0  0  0  0  0  0  0
   67.7775   53.4088   13.8190 C   0  0  0  0  0  0  0  0  0  0  0  0
   67.1869   52.4305   13.0280 C   0  0  0  0  0  0  0  0  0  0  0  0
   71.3603   54.5815   13.9886 C   0  0  0  0  0  0  0  0  0  0  0  0
   72.8598   54.4541   14.0434 C   0  0  2  0  0  0  0  0  0  0  0  0
   73.3195   53.1363   13.4140 C   0  0  0  0  0  0  0  0  0  0  0  0
   70.8797   57.4469   15.5831 C   0  0  2  0  0  0  0  0  0  0  0  0
   70.4426   58.1960   16.8222 C   0  0  2  0  0  0  0  0  0  0  0  0
   74.2841   59.8752   19.3781 C   0  0  1  0  0  0  0  0  0  0  0  0
   74.0648   62.0030   20.3434 C   0  0  1  0  0  0  0  0  0  0  0  0
   71.9618   62.2947   19.5928 C   0  0  0  0  0  0  0  0  0  0  0  0
   69.0894   58.8344   16.6791 C   0  0  0  0  0  0  0  0  0  0  0  0
   68.6526   59.2695   18.0323 C   0  0  0  0  0  0  0  0  0  0  0  0
   68.6351   60.6213   18.2971 C   0  0  0  0  0  0  0  0  0  0  0  0
   68.2413   61.0613   19.5412 C   0  0  0  0  0  0  0  0  0  0  0  0
   67.8686   60.1377   20.5073 C   0  0  0  0  0  0  0  0  0  0  0  0
   67.8802   58.7777   20.2595 C   0  0  0  0  0  0  0  0  0  0  0  0
   68.2783   58.3655   19.0065 C   0  0  0  0  0  0  0  0  0  0  0  0
   66.9205   50.0054   12.3814 C   0  0  1  0  0  0  0  0  0  0  0  0
   66.4073   48.9632   13.3405 C   0  0  0  0  0  0  0  0  0  0  0  0
   70.8419   54.9941   15.2302 N   0  0  0  0  0  0  0  0  0  0  0  0
   71.3966   59.1661   17.2562 N   0  0  0  0  0  0  0  0  0  0  0  0
   69.5741   53.7886   17.1636 O   0  0  0  0  0  0  0  0  0  0  0  0
   68.3991   55.4912   15.9401 O   0  0  0  0  0  0  0  0  0  0  0  0
   69.8415   57.3921   14.6648 O   0  0  0  0  0  0  0  0  0  0  0  0
   72.6507   57.6853   18.4642 O   0  0  0  0  0  0  0  0  0  0  0  0
   73.6459   59.6738   18.1434 O   0  0  0  0  0  0  0  0  0  0  0  0
   75.2202   61.9733   19.5942 O   0  0  0  0  0  0  0  0  0  0  0  0
   73.1896   62.8718   19.7503 O   0  0  0  0  0  0  0  0  0  0  0  0
   65.8960   50.5281   11.6352 O   0  0  0  0  0  0  0  0  0  0  0  0
   66.1032   47.7631   12.7039 O   0  0  0  0  0  0  0  0  0  0  0  0
   69.3871   54.3632   15.7633 S   0  0  2  0  0  6  0  0  0  0  0  0
 14  1  1  1
  2 16  1  0
 30  2  1  0
 31  3  1  0
  3 35  2  0
  3 36  1  0
 18  4  1  0
  4 37  1  0
  5  6  1  6
 18  5  1  0
  5 19  1  0
  6 20  1  0
  8  7  2  0
 12  7  1  0
  7 28  1  0
  9  8  1  0
 10  9  2  0
 10 11  1  0
 41 10  1  0
 11 12  2  0
 13 14  1  0
 30 13  1  0
 14 15  1  0
 16 17  1  0
 16 34  1  6
 17 21  1  6
 17 31  1  0
 18 36  1  6
 19 37  1  6
 19 38  1  0
 38 20  1  0
 21 22  1  0
 22 23  2  0
 22 27  1  0
 23 24  1  0
 24 25  2  0
 26 25  1  0
 27 26  2  0
 28 29  1  0
 28 39  1  1
 29 40  1  0
 41 30  1  6
 41 32  2  0
 41 33  2  0
M  END
$$$$
