
     RDKit          3D

 20 20  0  0  0  0  0  0  0  0999 V2000
   18.7557   -7.6742   14.1000 C   0  0  0  0  0  0  0  0  0  0  0  0
   18.2521   -6.3209   14.4558 C   0  0  0  0  0  0  0  0  0  0  0  0
   17.0233   -6.0989   14.6917 O   0  0  0  0  0  0  0  0  0  0  0  0
   19.1131   -5.1915   14.5543 N   0  0  0  0  0  0  0  0  0  0  0  0
   18.8024   -4.0582   15.3544 C   0  0  0  0  0  0  0  0  0  0  0  0
   17.7941   -4.0546   16.3007 C   0  0  0  0  0  0  0  0  0  0  0  0
   19.5552   -2.9175   15.1616 C   0  0  0  0  0  0  0  0  0  0  0  0
   19.2843   -1.7922   15.9208 C   0  0  0  0  0  0  0  0  0  0  0  0
   18.2711   -1.8226   16.8564 C   0  0  0  0  0  0  0  0  0  0  0  0
   17.9272   -0.4107   17.8128 Cl  0  0  0  0  0  0  0  0  0  0  0  0
   17.4951   -2.9652   17.0701 C   0  0  0  0  0  0  0  0  0  0  0  0
   16.2131   -2.9596   18.2739 S   0  0  1  0  0  6  0  0  0  0  0  0
   16.0049   -4.4159   18.6710 O   0  0  0  0  0  0  0  0  0  0  0  0
   16.6298   -2.2461   19.5117 O   0  0  0  0  0  0  0  0  0  0  0  0
   14.7409   -2.3985   17.6356 N   0  0  0  0  0  0  0  0  0  0  0  0
   14.6166   -1.0074   17.4808 C   0  0  0  0  0  0  0  0  0  0  0  0
   14.0918   -3.2271   16.7021 C   0  0  0  0  0  0  0  0  0  0  0  0
   13.1066   -2.6004   15.7820 C   0  0  0  0  0  0  0  0  0  0  0  0
   11.9881   -3.3692   15.5234 O   0  0  0  0  0  0  0  0  0  0  0  0
   11.7685   -3.6335   14.1887 C   0  0  0  0  0  0  0  0  0  0  0  0
  1  2  1  6
  2  3  2  0
  2  4  1  0
  4  5  1  0
  5  6  2  0
  5  7  1  0
  6 11  1  0
  7  8  2  0
  8  9  1  0
  9 10  1  0
  9 11  2  0
 11 12  1  0
 12 13  2  0
 12 14  2  0
 12 15  1  6
 16 15  1  6
 17 15  1  1
 17 18  1  0
 18 19  1  6
 20 19  1  6
M  END
$$$$
