
     RDKit          3D

 20 20  0  0  0  0  0  0  0  0999 V2000
   18.7428   -7.4784   13.9015 C   0  0  0  0  0  0  0  0  0  0  0  0
   18.2441   -6.1841   14.4136 C   0  0  0  0  0  0  0  0  0  0  0  0
   17.0197   -6.0934   14.7286 O   0  0  0  0  0  0  0  0  0  0  0  0
   19.1088   -5.0568   14.5549 N   0  0  0  0  0  0  0  0  0  0  0  0
   18.7116   -4.0110   15.4363 C   0  0  0  0  0  0  0  0  0  0  0  0
   17.8250   -4.3099   16.4334 C   0  0  0  0  0  0  0  0  0  0  0  0
   19.1928   -2.7204   15.3111 C   0  0  0  0  0  0  0  0  0  0  0  0
   18.7892   -1.7325   16.1811 C   0  0  0  0  0  0  0  0  0  0  0  0
   17.8831   -2.0522   17.1968 C   0  0  0  0  0  0  0  0  0  0  0  0
   17.4800   -0.7764   18.3114 Cl  0  0  0  0  0  0  0  0  0  0  0  0
   17.3934   -3.3152   17.3391 C   0  0  0  0  0  0  0  0  0  0  0  0
   16.2057   -3.7202   18.5439 S   0  0  1  0  0  6  0  0  0  0  0  0
   16.6277   -5.0044   19.2266 O   0  0  0  0  0  0  0  0  0  0  0  0
   16.3002   -2.6038   19.5939 O   0  0  0  0  0  0  0  0  0  0  0  0
   14.6548   -3.7573   17.9505 N   0  0  0  0  0  0  0  0  0  0  0  0
   13.8325   -4.8666   18.1391 C   0  0  0  0  0  0  0  0  0  0  0  0
   14.0090   -2.5049   17.7102 C   0  0  0  0  0  0  0  0  0  0  0  0
   12.5470   -2.6505   18.0781 C   0  0  0  0  0  0  0  0  0  0  0  0
   11.8236   -1.5116   17.7145 O   0  0  0  0  0  0  0  0  0  0  0  0
   10.5999   -1.8842   17.2087 C   0  0  0  0  0  0  0  0  0  0  0  0
  1  2  1  0
  2  3  2  0
  2  4  1  0
  4  5  1  0
  5  6  2  0
  5  7  1  0
  6 11  1  0
  7  8  2  0
  8  9  1  0
  9 10  1  0
  9 11  2  0
 11 12  1  0
 12 13  2  0
 12 14  2  0
 12 15  1  6
 15 16  1  0
 15 17  1  0
 17 18  1  0
 18 19  1  0
 19 20  1  0
M  END
$$$$
