
     RDKit          3D

 20 20  0  0  0  0  0  0  0  0999 V2000
   18.4669   -7.4974   13.8664 C   0  0  0  0  0  0  0  0  0  0  0  0
   18.0827   -6.1580   14.3607 C   0  0  0  0  0  0  0  0  0  0  0  0
   16.8685   -5.9532   14.6610 O   0  0  0  0  0  0  0  0  0  0  0  0
   19.0448   -5.1123   14.5010 N   0  0  0  0  0  0  0  0  0  0  0  0
   18.7234   -4.0119   15.3460 C   0  0  0  0  0  0  0  0  0  0  0  0
   17.9137   -4.2413   16.4237 C   0  0  0  0  0  0  0  0  0  0  0  0
   19.2022   -2.7364   15.1076 C   0  0  0  0  0  0  0  0  0  0  0  0
   18.8732   -1.6944   15.9451 C   0  0  0  0  0  0  0  0  0  0  0  0
   18.0454   -1.9432   17.0440 C   0  0  0  0  0  0  0  0  0  0  0  0
   17.7374   -0.5992   18.1078 Cl  0  0  0  0  0  0  0  0  0  0  0  0
   17.5595   -3.1899   17.2984 C   0  0  0  0  0  0  0  0  0  0  0  0
   16.4648   -3.5095   18.6122 S   0  0  1  0  0  6  0  0  0  0  0  0
   16.8870   -4.7953   19.2916 O   0  0  0  0  0  0  0  0  0  0  0  0
   16.7007   -2.3739   19.6184 O   0  0  0  0  0  0  0  0  0  0  0  0
   14.8678   -3.4878   18.1561 N   0  0  0  0  0  0  0  0  0  0  0  0
   14.0138   -4.5478   18.4552 C   0  0  0  0  0  0  0  0  0  0  0  0
   14.2633   -2.2130   17.9267 C   0  0  0  0  0  0  0  0  0  0  0  0
   12.7761   -2.3442   18.1814 C   0  0  0  0  0  0  0  0  0  0  0  0
   12.1581   -1.0911   18.1947 O   0  0  0  0  0  0  0  0  0  0  0  0
   10.7952   -1.2497   18.2933 C   0  0  0  0  0  0  0  0  0  0  0  0
  1  2  1  0
  2  3  2  0
  2  4  1  0
  4  5  1  0
  5  6  2  0
  5  7  1  0
  6 11  1  0
  7  8  2  0
  8  9  1  0
  9 10  1  0
  9 11  2  0
 11 12  1  0
 12 13  2  0
 12 14  2  0
 12 15  1  6
 15 16  1  0
 15 17  1  0
 17 18  1  0
 18 19  1  0
 19 20  1  0
M  END
$$$$
