
     RDKit          3D

 20 20  0  0  0  0  0  0  0  0999 V2000
   19.0375   -8.1439   13.7463 C   0  0  0  0  0  0  0  0  0  0  0  0
   18.2147   -7.0340   14.2962 C   0  0  0  0  0  0  0  0  0  0  0  0
   18.3339   -5.8377   13.8845 O   0  0  0  0  0  0  0  0  0  0  0  0
   17.2437   -7.2413   15.3164 N   0  0  0  0  0  0  0  0  0  0  0  0
   16.8686   -6.2240   16.2359 C   0  0  0  0  0  0  0  0  0  0  0  0
   17.4476   -4.9684   16.2514 C   0  0  0  0  0  0  0  0  0  0  0  0
   15.8773   -6.5247   17.1481 C   0  0  0  0  0  0  0  0  0  0  0  0
   15.4833   -5.5614   18.0606 C   0  0  0  0  0  0  0  0  0  0  0  0
   16.0818   -4.3186   18.0487 C   0  0  0  0  0  0  0  0  0  0  0  0
   15.5896   -3.1049   19.1938 Cl  0  0  0  0  0  0  0  0  0  0  0  0
   17.0873   -3.9901   17.1353 C   0  0  0  0  0  0  0  0  0  0  0  0
   17.8229   -2.3929   17.1559 S   0  0  1  0  0  6  0  0  0  0  0  0
   18.1576   -2.1045   18.6142 O   0  0  0  0  0  0  0  0  0  0  0  0
   19.1171   -2.3786   16.4211 O   0  0  0  0  0  0  0  0  0  0  0  0
   16.7423   -1.1858   16.6412 N   0  0  0  0  0  0  0  0  0  0  0  0
   17.1179    0.1425   16.9039 C   0  0  0  0  0  0  0  0  0  0  0  0
   16.0055   -1.4444   15.4709 C   0  0  0  0  0  0  0  0  0  0  0  0
   16.2148   -0.5468   14.3044 C   0  0  0  0  0  0  0  0  0  0  0  0
   17.4061   -0.7419   13.6324 O   0  0  0  0  0  0  0  0  0  0  0  0
   17.4135   -0.2864   12.3316 C   0  0  0  0  0  0  0  0  0  0  0  0
  1  2  1  6
  2  3  2  0
  2  4  1  0
  4  5  1  0
  5  6  2  0
  5  7  1  0
  6 11  1  0
  7  8  2  0
  8  9  1  0
  9 10  1  0
  9 11  2  0
 11 12  1  0
 12 13  2  0
 12 14  2  0
 12 15  1  6
 16 15  1  6
 17 15  1  1
 17 18  1  0
 18 19  1  6
 20 19  1  6
M  END
$$$$
