
     RDKit          3D

 20 20  0  0  0  0  0  0  0  0999 V2000
   18.2951   -8.4274   13.7301 C   0  0  0  0  0  0  0  0  0  0  0  0
   17.9125   -7.1968   14.4721 C   0  0  0  0  0  0  0  0  0  0  0  0
   18.3595   -6.0506   14.1538 O   0  0  0  0  0  0  0  0  0  0  0  0
   17.0232   -7.2253   15.5833 N   0  0  0  0  0  0  0  0  0  0  0  0
   16.8038   -6.0960   16.4187 C   0  0  0  0  0  0  0  0  0  0  0  0
   17.5355   -4.9271   16.3171 C   0  0  0  0  0  0  0  0  0  0  0  0
   15.8082   -6.1921   17.3700 C   0  0  0  0  0  0  0  0  0  0  0  0
   15.5630   -5.1144   18.2033 C   0  0  0  0  0  0  0  0  0  0  0  0
   16.3116   -3.9629   18.0751 C   0  0  0  0  0  0  0  0  0  0  0  0
   16.0069   -2.6060   19.1203 Cl  0  0  0  0  0  0  0  0  0  0  0  0
   17.3248   -3.8413   17.1200 C   0  0  0  0  0  0  0  0  0  0  0  0
   18.2547   -2.3542   16.9915 S   0  0  1  0  0  6  0  0  0  0  0  0
   18.3972   -1.8250   18.4134 O   0  0  0  0  0  0  0  0  0  0  0  0
   19.6365   -2.6150   16.5041 O   0  0  0  0  0  0  0  0  0  0  0  0
   17.4363   -1.1653   16.0936 N   0  0  0  0  0  0  0  0  0  0  0  0
   17.2038   -1.4553   14.7385 C   0  0  0  0  0  0  0  0  0  0  0  0
   16.4784   -0.3944   16.7775 C   0  0  0  0  0  0  0  0  0  0  0  0
   15.9306    0.8046   16.0902 C   0  0  0  0  0  0  0  0  0  0  0  0
   16.8849    1.6730   15.5961 O   0  0  0  0  0  0  0  0  0  0  0  0
   16.5784    2.2280   14.3723 C   0  0  0  0  0  0  0  0  0  0  0  0
  1  2  1  6
  2  3  2  0
  2  4  1  0
  4  5  1  0
  5  6  2  0
  5  7  1  0
  6 11  1  0
  7  8  2  0
  8  9  1  0
  9 10  1  0
  9 11  2  0
 11 12  1  0
 12 13  2  0
 12 14  2  0
 12 15  1  6
 16 15  1  6
 17 15  1  1
 17 18  1  0
 18 19  1  6
 20 19  1  6
M  END
$$$$
