
     RDKit          3D

 20 20  0  0  0  0  0  0  0  0999 V2000
   17.3664   -8.7766   13.7126 C   0  0  0  0  0  0  0  0  0  0  0  0
   17.2065   -7.4869   14.4355 C   0  0  0  0  0  0  0  0  0  0  0  0
   17.9285   -6.4739   14.1759 O   0  0  0  0  0  0  0  0  0  0  0  0
   16.2366   -7.3064   15.4617 N   0  0  0  0  0  0  0  0  0  0  0  0
   16.2344   -6.1763   16.3242 C   0  0  0  0  0  0  0  0  0  0  0  0
   17.1288   -5.1290   16.2001 C   0  0  0  0  0  0  0  0  0  0  0  0
   15.2860   -6.1426   17.3266 C   0  0  0  0  0  0  0  0  0  0  0  0
   15.2505   -5.0595   18.1877 C   0  0  0  0  0  0  0  0  0  0  0  0
   16.1576   -4.0314   18.0359 C   0  0  0  0  0  0  0  0  0  0  0  0
   16.1166   -2.6682   19.1160 Cl  0  0  0  0  0  0  0  0  0  0  0  0
   17.1270   -4.0424   17.0292 C   0  0  0  0  0  0  0  0  0  0  0  0
   18.2640   -2.7100   16.8722 S   0  0  1  0  0  6  0  0  0  0  0  0
   18.5128   -2.2026   18.2873 O   0  0  0  0  0  0  0  0  0  0  0  0
   19.5815   -3.1744   16.3589 O   0  0  0  0  0  0  0  0  0  0  0  0
   17.6122   -1.4162   15.9829 N   0  0  0  0  0  0  0  0  0  0  0  0
   17.4046   -1.6423   14.6117 C   0  0  0  0  0  0  0  0  0  0  0  0
   16.7147   -0.5666   16.6552 C   0  0  0  0  0  0  0  0  0  0  0  0
   16.8547    0.8987   16.4466 C   0  0  0  0  0  0  0  0  0  0  0  0
   17.9102    1.4796   17.1228 O   0  0  0  0  0  0  0  0  0  0  0  0
   18.1621    2.7901   16.7780 C   0  0  0  0  0  0  0  0  0  0  0  0
  1  2  1  6
  2  3  2  0
  2  4  1  0
  4  5  1  0
  5  6  2  0
  5  7  1  0
  6 11  1  0
  7  8  2  0
  8  9  1  0
  9 10  1  0
  9 11  2  0
 11 12  1  0
 12 13  2  0
 12 14  2  0
 12 15  1  6
 16 15  1  6
 17 15  1  1
 17 18  1  0
 18 19  1  6
 20 19  1  6
M  END
$$$$
