
     RDKit          3D

 20 20  0  0  0  0  0  0  0  0999 V2000
   18.8828   -6.7730   12.7679 C   0  0  0  0  0  0  0  0  0  0  0  0
   18.4103   -5.7322   13.7191 C   0  0  0  0  0  0  0  0  0  0  0  0
   17.2057   -5.6825   14.1211 O   0  0  0  0  0  0  0  0  0  0  0  0
   19.2757   -4.7282   14.2383 N   0  0  0  0  0  0  0  0  0  0  0  0
   18.8628   -3.7992   15.2319 C   0  0  0  0  0  0  0  0  0  0  0  0
   17.5369   -3.4878   15.4712 C   0  0  0  0  0  0  0  0  0  0  0  0
   19.8482   -3.1902   15.9825 C   0  0  0  0  0  0  0  0  0  0  0  0
   19.4876   -2.2792   16.9602 C   0  0  0  0  0  0  0  0  0  0  0  0
   18.1555   -1.9913   17.1730 C   0  0  0  0  0  0  0  0  0  0  0  0
   17.6978   -0.8470   18.4008 Cl  0  0  0  0  0  0  0  0  0  0  0  0
   17.1395   -2.5946   16.4264 C   0  0  0  0  0  0  0  0  0  0  0  0
   15.4536   -2.1979   16.7315 S   0  0  1  0  0  6  0  0  0  0  0  0
   15.4665   -1.0933   17.7811 O   0  0  0  0  0  0  0  0  0  0  0  0
   14.8024   -1.6183   15.5253 O   0  0  0  0  0  0  0  0  0  0  0  0
   14.5993   -3.5095   17.3942 N   0  0  0  0  0  0  0  0  0  0  0  0
   14.4774   -4.6501   16.5825 C   0  0  0  0  0  0  0  0  0  0  0  0
   14.6937   -3.6964   18.7854 C   0  0  0  0  0  0  0  0  0  0  0  0
   13.6589   -4.5341   19.4468 C   0  0  0  0  0  0  0  0  0  0  0  0
   12.3584   -4.1176   19.2369 O   0  0  0  0  0  0  0  0  0  0  0  0
   11.8956   -3.1955   20.1508 C   0  0  0  0  0  0  0  0  0  0  0  0
  1  2  1  6
  2  3  2  0
  2  4  1  0
  4  5  1  0
  5  6  2  0
  5  7  1  0
  6 11  1  0
  7  8  2  0
  8  9  1  0
  9 10  1  0
  9 11  2  0
 11 12  1  0
 12 13  2  0
 12 14  2  0
 12 15  1  1
 16 15  1  6
 17 15  1  1
 17 18  1  0
 18 19  1  6
 20 19  1  6
M  END
$$$$
