
     RDKit          3D

 20 20  0  0  0  0  0  0  0  0999 V2000
   18.9933   -7.5677   13.7143 C   0  0  0  0  0  0  0  0  0  0  0  0
   18.2266   -6.3708   14.1515 C   0  0  0  0  0  0  0  0  0  0  0  0
   16.9996   -6.4369   14.4756 O   0  0  0  0  0  0  0  0  0  0  0  0
   18.8177   -5.0784   14.2344 N   0  0  0  0  0  0  0  0  0  0  0  0
   18.4091   -4.1084   15.1899 C   0  0  0  0  0  0  0  0  0  0  0  0
   17.4872   -4.3708   16.1866 C   0  0  0  0  0  0  0  0  0  0  0  0
   18.9714   -2.8510   15.1007 C   0  0  0  0  0  0  0  0  0  0  0  0
   18.6000   -1.8779   16.0124 C   0  0  0  0  0  0  0  0  0  0  0  0
   17.6774   -2.1732   16.9944 C   0  0  0  0  0  0  0  0  0  0  0  0
   17.2077   -0.9533   18.1423 Cl  0  0  0  0  0  0  0  0  0  0  0  0
   17.0941   -3.4384   17.1055 C   0  0  0  0  0  0  0  0  0  0  0  0
   15.9218   -3.7712   18.3735 S   0  0  1  0  0  6  0  0  0  0  0  0
   16.0706   -5.2514   18.7035 O   0  0  0  0  0  0  0  0  0  0  0  0
   16.2454   -3.0315   19.6237 O   0  0  0  0  0  0  0  0  0  0  0  0
   14.3242   -3.5336   17.8439 N   0  0  0  0  0  0  0  0  0  0  0  0
   13.6231   -4.6817   17.4379 C   0  0  0  0  0  0  0  0  0  0  0  0
   13.5956   -2.4971   18.4557 C   0  0  0  0  0  0  0  0  0  0  0  0
   12.1649   -2.7461   18.7741 C   0  0  0  0  0  0  0  0  0  0  0  0
   11.4924   -1.6588   19.2977 O   0  0  0  0  0  0  0  0  0  0  0  0
   10.1430   -1.8580   19.4948 C   0  0  0  0  0  0  0  0  0  0  0  0
  1  2  1  6
  2  3  2  0
  2  4  1  0
  4  5  1  0
  5  6  2  0
  5  7  1  0
  6 11  1  0
  7  8  2  0
  8  9  1  0
  9 10  1  0
  9 11  2  0
 11 12  1  0
 12 13  2  0
 12 14  2  0
 12 15  1  6
 16 15  1  6
 17 15  1  1
 17 18  1  0
 18 19  1  6
 20 19  1  6
M  END
$$$$
