
     RDKit          3D

 20 20  0  0  0  0  0  0  0  0999 V2000
   12.5919   -7.6423   16.0461 C   0  0  0  0  0  0  0  0  0  0  0  0
   13.5258   -6.5303   16.3665 C   0  0  0  0  0  0  0  0  0  0  0  0
   13.9364   -5.7176   15.4800 O   0  0  0  0  0  0  0  0  0  0  0  0
   14.0175   -6.3067   17.6836 N   0  0  0  0  0  0  0  0  0  0  0  0
   14.9562   -5.2833   17.9879 C   0  0  0  0  0  0  0  0  0  0  0  0
   15.1734   -4.1894   17.1704 C   0  0  0  0  0  0  0  0  0  0  0  0
   15.6746   -5.4068   19.1601 C   0  0  0  0  0  0  0  0  0  0  0  0
   16.5987   -4.4315   19.4928 C   0  0  0  0  0  0  0  0  0  0  0  0
   16.7907   -3.3529   18.6545 C   0  0  0  0  0  0  0  0  0  0  0  0
   17.9511   -2.1247   19.0688 Cl  0  0  0  0  0  0  0  0  0  0  0  0
   16.0759   -3.2054   17.4626 C   0  0  0  0  0  0  0  0  0  0  0  0
   16.3528   -1.8138   16.4236 S   0  0  1  0  0  6  0  0  0  0  0  0
   15.1162   -1.6974   15.5409 O   0  0  0  0  0  0  0  0  0  0  0  0
   16.4238   -0.5517   17.2091 O   0  0  0  0  0  0  0  0  0  0  0  0
   17.6851   -2.0421   15.3929 N   0  0  0  0  0  0  0  0  0  0  0  0
   18.9551   -1.8384   15.9587 C   0  0  0  0  0  0  0  0  0  0  0  0
   17.5580   -3.0223   14.3917 C   0  0  0  0  0  0  0  0  0  0  0  0
   18.6605   -4.0079   14.2389 C   0  0  0  0  0  0  0  0  0  0  0  0
   18.3661   -5.2784   14.6947 O   0  0  0  0  0  0  0  0  0  0  0  0
   18.7891   -6.2977   13.8690 C   0  0  0  0  0  0  0  0  0  0  0  0
  1  2  1  6
  2  3  2  0
  2  4  1  0
  4  5  1  0
  5  6  2  0
  5  7  1  0
  6 11  1  0
  7  8  2  0
  8  9  1  0
  9 10  1  0
  9 11  2  0
 11 12  1  0
 12 13  2  0
 12 14  2  0
 12 15  1  6
 16 15  1  6
 17 15  1  1
 17 18  1  0
 18 19  1  6
 20 19  1  6
M  END
$$$$
