
     RDKit          3D

 20 20  0  0  0  0  0  0  0  0999 V2000
   18.4409   -7.7166   13.7968 C   0  0  0  0  0  0  0  0  0  0  0  0
   17.9003   -6.4682   14.3973 C   0  0  0  0  0  0  0  0  0  0  0  0
   16.7436   -6.4174   14.9211 O   0  0  0  0  0  0  0  0  0  0  0  0
   18.6429   -5.2539   14.4229 N   0  0  0  0  0  0  0  0  0  0  0  0
   18.3024   -4.1649   15.2710 C   0  0  0  0  0  0  0  0  0  0  0  0
   17.5983   -4.3175   16.4512 C   0  0  0  0  0  0  0  0  0  0  0  0
   18.7033   -2.9036   14.8789 C   0  0  0  0  0  0  0  0  0  0  0  0
   18.3915   -1.8165   15.6770 C   0  0  0  0  0  0  0  0  0  0  0  0
   17.6877   -2.0039   16.8484 C   0  0  0  0  0  0  0  0  0  0  0  0
   17.2936   -0.6404   17.8545 Cl  0  0  0  0  0  0  0  0  0  0  0  0
   17.2707   -3.2707   17.2668 C   0  0  0  0  0  0  0  0  0  0  0  0
   16.3754   -3.4636   18.7680 S   0  0  1  0  0  6  0  0  0  0  0  0
   16.5922   -4.9080   19.2024 O   0  0  0  0  0  0  0  0  0  0  0  0
   16.9384   -2.6139   19.8524 O   0  0  0  0  0  0  0  0  0  0  0  0
   14.7034   -3.2524   18.5456 N   0  0  0  0  0  0  0  0  0  0  0  0
   14.2736   -1.9508   18.2362 C   0  0  0  0  0  0  0  0  0  0  0  0
   13.9909   -4.3319   17.9919 C   0  0  0  0  0  0  0  0  0  0  0  0
   13.5013   -4.1989   16.5945 C   0  0  0  0  0  0  0  0  0  0  0  0
   13.5267   -5.3690   15.8603 O   0  0  0  0  0  0  0  0  0  0  0  0
   13.2626   -5.2104   14.5169 C   0  0  0  0  0  0  0  0  0  0  0  0
  1  2  1  6
  2  3  2  0
  2  4  1  0
  4  5  1  0
  5  6  2  0
  5  7  1  0
  6 11  1  0
  7  8  2  0
  8  9  1  0
  9 10  1  0
  9 11  2  0
 11 12  1  0
 12 13  2  0
 12 14  2  0
 12 15  1  6
 16 15  1  6
 17 15  1  1
 17 18  1  0
 18 19  1  6
 20 19  1  6
M  END
$$$$
