
     RDKit          3D

 20 20  0  0  0  0  0  0  0  0999 V2000
   18.7887   -7.6599   13.8945 C   0  0  0  0  0  0  0  0  0  0  0  0
   18.1138   -6.4575   14.4515 C   0  0  0  0  0  0  0  0  0  0  0  0
   17.0159   -6.5338   15.0869 O   0  0  0  0  0  0  0  0  0  0  0  0
   18.6539   -5.1483   14.3083 N   0  0  0  0  0  0  0  0  0  0  0  0
   18.3386   -4.0871   15.2003 C   0  0  0  0  0  0  0  0  0  0  0  0
   17.6511   -4.2749   16.3852 C   0  0  0  0  0  0  0  0  0  0  0  0
   18.7474   -2.8167   14.8477 C   0  0  0  0  0  0  0  0  0  0  0  0
   18.4599   -1.7560   15.6893 C   0  0  0  0  0  0  0  0  0  0  0  0
   17.7721   -1.9783   16.8641 C   0  0  0  0  0  0  0  0  0  0  0  0
   17.4087   -0.6481   17.9247 Cl  0  0  0  0  0  0  0  0  0  0  0  0
   17.3477   -3.2549   17.2430 C   0  0  0  0  0  0  0  0  0  0  0  0
   16.4734   -3.4927   18.7503 S   0  0  1  0  0  6  0  0  0  0  0  0
   16.7792   -4.9188   19.1914 O   0  0  0  0  0  0  0  0  0  0  0  0
   16.9898   -2.6042   19.8268 O   0  0  0  0  0  0  0  0  0  0  0  0
   14.7906   -3.3839   18.5359 N   0  0  0  0  0  0  0  0  0  0  0  0
   14.2627   -2.0910   18.3806 C   0  0  0  0  0  0  0  0  0  0  0  0
   14.1644   -4.4396   17.8484 C   0  0  0  0  0  0  0  0  0  0  0  0
   13.1417   -4.0945   16.8260 C   0  0  0  0  0  0  0  0  0  0  0  0
   12.4635   -5.1771   16.2998 O   0  0  0  0  0  0  0  0  0  0  0  0
   12.5495   -5.2984   14.9295 C   0  0  0  0  0  0  0  0  0  0  0  0
  1  2  1  6
  2  3  2  0
  2  4  1  0
  4  5  1  0
  5  6  2  0
  5  7  1  0
  6 11  1  0
  7  8  2  0
  8  9  1  0
  9 10  1  0
  9 11  2  0
 11 12  1  0
 12 13  2  0
 12 14  2  0
 12 15  1  6
 16 15  1  6
 17 15  1  1
 17 18  1  0
 18 19  1  6
 20 19  1  6
M  END
$$$$
