
     RDKit          3D

 20 20  0  0  0  0  0  0  0  0999 V2000
   18.4921   -7.5128   14.1019 C   0  0  0  0  0  0  0  0  0  0  0  0
   18.1446   -6.1215   14.4618 C   0  0  0  0  0  0  0  0  0  0  0  0
   16.9190   -5.8140   14.5608 O   0  0  0  0  0  0  0  0  0  0  0  0
   19.1540   -5.1389   14.6948 N   0  0  0  0  0  0  0  0  0  0  0  0
   18.8309   -4.0264   15.5231 C   0  0  0  0  0  0  0  0  0  0  0  0
   17.9409   -4.2189   16.5432 C   0  0  0  0  0  0  0  0  0  0  0  0
   19.3862   -2.7752   15.3249 C   0  0  0  0  0  0  0  0  0  0  0  0
   19.0531   -1.7207   16.1451 C   0  0  0  0  0  0  0  0  0  0  0  0
   18.1427   -1.9318   17.1849 C   0  0  0  0  0  0  0  0  0  0  0  0
   17.8303   -0.5774   18.2340 Cl  0  0  0  0  0  0  0  0  0  0  0  0
   17.5807   -3.1539   17.3988 C   0  0  0  0  0  0  0  0  0  0  0  0
   16.3865   -3.4231   18.6349 S   0  0  1  0  0  6  0  0  0  0  0  0
   16.7699   -4.6626   19.4160 O   0  0  0  0  0  0  0  0  0  0  0  0
   16.5227   -2.2310   19.5930 O   0  0  0  0  0  0  0  0  0  0  0  0
   14.8323   -3.4560   18.0501 N   0  0  0  0  0  0  0  0  0  0  0  0
   13.9125   -4.4070   18.4882 C   0  0  0  0  0  0  0  0  0  0  0  0
   14.3031   -2.2424   17.5112 C   0  0  0  0  0  0  0  0  0  0  0  0
   12.9955   -1.9451   18.2153 C   0  0  0  0  0  0  0  0  0  0  0  0
   12.6620   -0.5929   18.1017 O   0  0  0  0  0  0  0  0  0  0  0  0
   11.2934   -0.4547   18.0879 C   0  0  0  0  0  0  0  0  0  0  0  0
  1  2  1  0
  2  3  2  0
  2  4  1  0
  4  5  1  0
  5  6  2  0
  5  7  1  0
  6 11  1  0
  7  8  2  0
  8  9  1  0
  9 10  1  0
  9 11  2  0
 11 12  1  0
 12 13  2  0
 12 14  2  0
 12 15  1  6
 15 16  1  0
 15 17  1  0
 17 18  1  0
 18 19  1  0
 19 20  1  0
M  END
$$$$
