
     RDKit          3D

 20 20  0  0  0  0  0  0  0  0999 V2000
   18.2805   -7.8678   13.4307 C   0  0  0  0  0  0  0  0  0  0  0  0
   17.8344   -6.7861   14.3346 C   0  0  0  0  0  0  0  0  0  0  0  0
   18.4649   -5.6868   14.3143 O   0  0  0  0  0  0  0  0  0  0  0  0
   16.7228   -6.9619   15.2134 N   0  0  0  0  0  0  0  0  0  0  0  0
   16.5080   -5.9869   16.2290 C   0  0  0  0  0  0  0  0  0  0  0  0
   17.1859   -4.8027   16.1400 C   0  0  0  0  0  0  0  0  0  0  0  0
   15.6440   -6.2042   17.2870 C   0  0  0  0  0  0  0  0  0  0  0  0
   15.4580   -5.2398   18.2518 C   0  0  0  0  0  0  0  0  0  0  0  0
   16.1567   -4.0332   18.1479 C   0  0  0  0  0  0  0  0  0  0  0  0
   15.8117   -2.8265   19.3552 Cl  0  0  0  0  0  0  0  0  0  0  0  0
   17.0147   -3.7966   17.1169 C   0  0  0  0  0  0  0  0  0  0  0  0
   17.9548   -2.3369   17.0076 S   0  0  1  0  0  6  0  0  0  0  0  0
   18.5540   -2.0447   18.3673 O   0  0  0  0  0  0  0  0  0  0  0  0
   19.1211   -2.6783   16.0691 O   0  0  0  0  0  0  0  0  0  0  0  0
   17.1122   -1.0603   16.3604 N   0  0  0  0  0  0  0  0  0  0  0  0
   17.0679    0.1777   16.9989 C   0  0  0  0  0  0  0  0  0  0  0  0
   16.8752   -1.0715   14.9508 C   0  0  0  0  0  0  0  0  0  0  0  0
   16.1600    0.2119   14.5830 C   0  0  0  0  0  0  0  0  0  0  0  0
   16.0564    0.3474   13.1962 O   0  0  0  0  0  0  0  0  0  0  0  0
   14.7338    0.4848   12.8435 C   0  0  0  0  0  0  0  0  0  0  0  0
  1  2  1  0
  2  3  2  0
  2  4  1  0
  4  5  1  0
  5  6  2  0
  5  7  1  0
  6 11  1  0
  7  8  2  0
  8  9  1  0
  9 10  1  0
  9 11  2  0
 11 12  1  0
 12 13  2  0
 12 14  2  0
 12 15  1  6
 15 16  1  0
 15 17  1  0
 17 18  1  0
 18 19  1  0
 19 20  1  0
M  END
$$$$
