
     RDKit          3D

 20 20  0  0  0  0  0  0  0  0999 V2000
   11.7457   -6.8241   16.0088 C   0  0  0  0  0  0  0  0  0  0  0  0
   12.8755   -5.9052   16.3097 C   0  0  0  0  0  0  0  0  0  0  0  0
   13.9050   -5.8364   15.5679 O   0  0  0  0  0  0  0  0  0  0  0  0
   12.8748   -5.0466   17.4451 N   0  0  0  0  0  0  0  0  0  0  0  0
   13.9783   -4.2140   17.7773 C   0  0  0  0  0  0  0  0  0  0  0  0
   14.8112   -3.6490   16.8291 C   0  0  0  0  0  0  0  0  0  0  0  0
   14.2118   -3.9710   19.1158 C   0  0  0  0  0  0  0  0  0  0  0  0
   15.2765   -3.1653   19.4811 C   0  0  0  0  0  0  0  0  0  0  0  0
   16.0879   -2.6173   18.5095 C   0  0  0  0  0  0  0  0  0  0  0  0
   17.4271   -1.6042   18.9641 Cl  0  0  0  0  0  0  0  0  0  0  0  0
   15.8722   -2.8485   17.1481 C   0  0  0  0  0  0  0  0  0  0  0  0
   16.9319   -2.1293   15.9430 S   0  0  1  0  0  6  0  0  0  0  0  0
   16.0415   -1.7809   14.7565 O   0  0  0  0  0  0  0  0  0  0  0  0
   17.5094   -0.8438   16.4215 O   0  0  0  0  0  0  0  0  0  0  0  0
   18.1028   -3.2283   15.3855 N   0  0  0  0  0  0  0  0  0  0  0  0
   19.2427   -3.3890   16.1913 C   0  0  0  0  0  0  0  0  0  0  0  0
   17.6398   -4.3454   14.6665 C   0  0  0  0  0  0  0  0  0  0  0  0
   18.6068   -5.4373   14.3788 C   0  0  0  0  0  0  0  0  0  0  0  0
   18.5058   -5.9787   13.1117 O   0  0  0  0  0  0  0  0  0  0  0  0
   19.7097   -6.3253   12.5371 C   0  0  0  0  0  0  0  0  0  0  0  0
  1  2  1  6
  2  3  2  0
  2  4  1  0
  4  5  1  0
  5  6  2  0
  5  7  1  0
  6 11  1  0
  7  8  2  0
  8  9  1  0
  9 10  1  0
  9 11  2  0
 11 12  1  0
 12 13  2  0
 12 14  2  0
 12 15  1  6
 16 15  1  6
 17 15  1  1
 17 18  1  0
 18 19  1  6
 20 19  1  6
M  END
$$$$
