
     RDKit          3D

 20 20  0  0  0  0  0  0  0  0999 V2000
   18.2509   -7.7710   13.9582 C   0  0  0  0  0  0  0  0  0  0  0  0
   18.0283   -6.3461   14.2841 C   0  0  0  0  0  0  0  0  0  0  0  0
   16.8426   -5.9584   14.5082 O   0  0  0  0  0  0  0  0  0  0  0  0
   19.1125   -5.4192   14.3481 N   0  0  0  0  0  0  0  0  0  0  0  0
   18.9623   -4.2643   15.1677 C   0  0  0  0  0  0  0  0  0  0  0  0
   18.1297   -4.3450   16.2494 C   0  0  0  0  0  0  0  0  0  0  0  0
   19.6272   -3.0811   14.9013 C   0  0  0  0  0  0  0  0  0  0  0  0
   19.4605   -1.9829   15.7148 C   0  0  0  0  0  0  0  0  0  0  0  0
   18.6071   -2.0796   16.8180 C   0  0  0  0  0  0  0  0  0  0  0  0
   18.5073   -0.6811   17.8509 Cl  0  0  0  0  0  0  0  0  0  0  0  0
   17.9397   -3.2329   17.0998 C   0  0  0  0  0  0  0  0  0  0  0  0
   16.8122   -3.3546   18.4191 S   0  0  1  0  0  6  0  0  0  0  0  0
   16.8742   -4.7597   18.9802 O   0  0  0  0  0  0  0  0  0  0  0  0
   17.3588   -2.4154   19.5039 O   0  0  0  0  0  0  0  0  0  0  0  0
   15.2773   -2.8621   18.0184 N   0  0  0  0  0  0  0  0  0  0  0  0
   14.1560   -3.5880   18.4159 C   0  0  0  0  0  0  0  0  0  0  0  0
   15.0828   -1.4763   17.7272 C   0  0  0  0  0  0  0  0  0  0  0  0
   13.9700   -1.3611   16.7063 C   0  0  0  0  0  0  0  0  0  0  0  0
   14.2706   -0.3923   15.7453 O   0  0  0  0  0  0  0  0  0  0  0  0
   13.2982    0.5807   15.7511 C   0  0  0  0  0  0  0  0  0  0  0  0
  1  2  1  0
  2  3  2  0
  2  4  1  0
  4  5  1  0
  5  6  2  0
  5  7  1  0
  6 11  1  0
  7  8  2  0
  8  9  1  0
  9 10  1  0
  9 11  2  0
 11 12  1  0
 12 13  2  0
 12 14  2  0
 12 15  1  6
 15 16  1  0
 15 17  1  0
 17 18  1  0
 18 19  1  0
 19 20  1  0
M  END
$$$$
