
     RDKit          3D

 20 20  0  0  0  0  0  0  0  0999 V2000
   18.6804   -7.5684   13.6391 C   0  0  0  0  0  0  0  0  0  0  0  0
   18.0812   -6.5115   14.4817 C   0  0  0  0  0  0  0  0  0  0  0  0
   18.2359   -5.3032   14.1315 O   0  0  0  0  0  0  0  0  0  0  0  0
   17.3444   -6.8296   15.6626 N   0  0  0  0  0  0  0  0  0  0  0  0
   16.9559   -5.7616   16.5208 C   0  0  0  0  0  0  0  0  0  0  0  0
   17.7075   -4.6193   16.5098 C   0  0  0  0  0  0  0  0  0  0  0  0
   15.8542   -5.8491   17.3525 C   0  0  0  0  0  0  0  0  0  0  0  0
   15.5051   -4.7973   18.1694 C   0  0  0  0  0  0  0  0  0  0  0  0
   16.2817   -3.6349   18.1473 C   0  0  0  0  0  0  0  0  0  0  0  0
   15.7360   -2.3141   19.1424 Cl  0  0  0  0  0  0  0  0  0  0  0  0
   17.3724   -3.5255   17.3388 C   0  0  0  0  0  0  0  0  0  0  0  0
   18.4001   -2.1219   17.3509 S   0  0  1  0  0  6  0  0  0  0  0  0
   18.6087   -1.6876   18.7866 O   0  0  0  0  0  0  0  0  0  0  0  0
   19.7587   -2.6129   16.8304 O   0  0  0  0  0  0  0  0  0  0  0  0
   17.8617   -0.9055   16.3563 N   0  0  0  0  0  0  0  0  0  0  0  0
   18.7009   -0.3148   15.4134 C   0  0  0  0  0  0  0  0  0  0  0  0
   16.4553   -0.8236   16.1141 C   0  0  0  0  0  0  0  0  0  0  0  0
   16.1627    0.5243   15.4883 C   0  0  0  0  0  0  0  0  0  0  0  0
   14.9285    1.0184   15.9184 O   0  0  0  0  0  0  0  0  0  0  0  0
   14.6578    2.2051   15.2774 C   0  0  0  0  0  0  0  0  0  0  0  0
  1  2  1  0
  2  3  2  0
  2  4  1  0
  4  5  1  0
  5  6  2  0
  5  7  1  0
  6 11  1  0
  7  8  2  0
  8  9  1  0
  9 10  1  0
  9 11  2  0
 11 12  1  0
 12 13  2  0
 12 14  2  0
 12 15  1  6
 15 16  1  0
 15 17  1  0
 17 18  1  0
 18 19  1  0
 19 20  1  0
M  END
$$$$
