
     RDKit          3D

 20 20  0  0  0  0  0  0  0  0999 V2000
   18.2605   -7.5940   14.1512 C   0  0  0  0  0  0  0  0  0  0  0  0
   17.9984   -6.1788   14.4897 C   0  0  0  0  0  0  0  0  0  0  0  0
   16.7969   -5.8144   14.6631 O   0  0  0  0  0  0  0  0  0  0  0  0
   19.0624   -5.2357   14.6209 N   0  0  0  0  0  0  0  0  0  0  0  0
   18.8273   -4.0594   15.3885 C   0  0  0  0  0  0  0  0  0  0  0  0
   18.0685   -4.1690   16.5207 C   0  0  0  0  0  0  0  0  0  0  0  0
   19.3393   -2.8275   15.0231 C   0  0  0  0  0  0  0  0  0  0  0  0
   19.0940   -1.7096   15.7885 C   0  0  0  0  0  0  0  0  0  0  0  0
   18.3176   -1.8362   16.9443 C   0  0  0  0  0  0  0  0  0  0  0  0
   18.1166   -0.4005   17.9091 Cl  0  0  0  0  0  0  0  0  0  0  0  0
   17.8005   -3.0378   17.3236 C   0  0  0  0  0  0  0  0  0  0  0  0
   16.7666   -3.2069   18.7124 S   0  0  1  0  0  6  0  0  0  0  0  0
   17.0315   -4.5540   19.3514 O   0  0  0  0  0  0  0  0  0  0  0  0
   17.2478   -2.1388   19.7052 O   0  0  0  0  0  0  0  0  0  0  0  0
   15.1638   -2.9308   18.3752 N   0  0  0  0  0  0  0  0  0  0  0  0
   14.6710   -1.6386   18.2034 C   0  0  0  0  0  0  0  0  0  0  0  0
   14.4235   -3.9929   17.7692 C   0  0  0  0  0  0  0  0  0  0  0  0
   12.9971   -3.9202   18.2731 C   0  0  0  0  0  0  0  0  0  0  0  0
   12.8822   -4.5053   19.5367 O   0  0  0  0  0  0  0  0  0  0  0  0
   11.5536   -4.6972   19.8374 C   0  0  0  0  0  0  0  0  0  0  0  0
  1  2  1  0
  2  3  2  0
  2  4  1  0
  4  5  1  0
  5  6  2  0
  5  7  1  0
  6 11  1  0
  7  8  2  0
  8  9  1  0
  9 10  1  0
  9 11  2  0
 11 12  1  0
 12 13  2  0
 12 14  2  0
 12 15  1  6
 15 16  1  0
 15 17  1  0
 17 18  1  0
 18 19  1  0
 19 20  1  0
M  END
$$$$
