
     RDKit          3D

 20 20  0  0  0  0  0  0  0  0999 V2000
   18.5266   -7.1229   13.4164 C   0  0  0  0  0  0  0  0  0  0  0  0
   18.1626   -5.8009   13.9697 C   0  0  0  0  0  0  0  0  0  0  0  0
   16.9440   -5.5747   14.2349 O   0  0  0  0  0  0  0  0  0  0  0  0
   19.1487   -4.7954   14.2044 N   0  0  0  0  0  0  0  0  0  0  0  0
   18.9417   -3.8896   15.2838 C   0  0  0  0  0  0  0  0  0  0  0  0
   17.6871   -3.8020   15.8206 C   0  0  0  0  0  0  0  0  0  0  0  0
   19.9621   -3.1083   15.7950 C   0  0  0  0  0  0  0  0  0  0  0  0
   19.7284   -2.2432   16.8403 C   0  0  0  0  0  0  0  0  0  0  0  0
   18.4412   -2.1645   17.3804 C   0  0  0  0  0  0  0  0  0  0  0  0
   18.2352   -1.1130   18.7532 Cl  0  0  0  0  0  0  0  0  0  0  0  0
   17.4196   -2.9218   16.8928 C   0  0  0  0  0  0  0  0  0  0  0  0
   15.7930   -2.7845   17.4942 S   0  0  1  0  0  6  0  0  0  0  0  0
   15.5190   -1.3313   17.8205 O   0  0  0  0  0  0  0  0  0  0  0  0
   14.8920   -3.1537   16.3069 O   0  0  0  0  0  0  0  0  0  0  0  0
   15.4668   -3.8239   18.7481 N   0  0  0  0  0  0  0  0  0  0  0  0
   14.5566   -3.4895   19.7492 C   0  0  0  0  0  0  0  0  0  0  0  0
   15.7125   -5.2156   18.5338 C   0  0  0  0  0  0  0  0  0  0  0  0
   14.3788   -5.9034   18.3284 C   0  0  0  0  0  0  0  0  0  0  0  0
   14.5175   -7.0320   17.5163 O   0  0  0  0  0  0  0  0  0  0  0  0
   13.3386   -7.7408   17.5062 C   0  0  0  0  0  0  0  0  0  0  0  0
  1  2  1  0
  2  3  2  0
  2  4  1  0
  4  5  1  0
  5  6  2  0
  5  7  1  0
  6 11  1  0
  7  8  2  0
  8  9  1  0
  9 10  1  0
  9 11  2  0
 11 12  1  0
 12 13  2  0
 12 14  2  0
 12 15  1  1
 15 16  1  0
 15 17  1  0
 17 18  1  0
 18 19  1  0
 19 20  1  0
M  END
$$$$
