
     RDKit          3D

 20 20  0  0  0  0  0  0  0  0999 V2000
   18.4938   -7.4757   13.9001 C   0  0  0  0  0  0  0  0  0  0  0  0
   18.1146   -6.1147   14.3357 C   0  0  0  0  0  0  0  0  0  0  0  0
   16.8960   -5.8845   14.5974 O   0  0  0  0  0  0  0  0  0  0  0  0
   19.0864   -5.0763   14.4627 N   0  0  0  0  0  0  0  0  0  0  0  0
   18.7494   -3.9314   15.2397 C   0  0  0  0  0  0  0  0  0  0  0  0
   17.7225   -4.0399   16.1362 C   0  0  0  0  0  0  0  0  0  0  0  0
   19.4242   -2.7308   15.1125 C   0  0  0  0  0  0  0  0  0  0  0  0
   19.0737   -1.6429   15.8802 C   0  0  0  0  0  0  0  0  0  0  0  0
   18.0227   -1.7681   16.7937 C   0  0  0  0  0  0  0  0  0  0  0  0
   17.6871   -0.3801   17.7904 Cl  0  0  0  0  0  0  0  0  0  0  0  0
   17.3416   -2.9390   16.9355 C   0  0  0  0  0  0  0  0  0  0  0  0
   15.9801   -3.0972   18.0069 S   0  0  1  0  0  6  0  0  0  0  0  0
   15.9375   -4.5183   18.5283 O   0  0  0  0  0  0  0  0  0  0  0  0
   16.3022   -2.1912   19.2040 O   0  0  0  0  0  0  0  0  0  0  0  0
   14.5502   -2.5905   17.3305 N   0  0  0  0  0  0  0  0  0  0  0  0
   13.5406   -3.4949   17.0063 C   0  0  0  0  0  0  0  0  0  0  0  0
   14.1585   -1.2337   17.5522 C   0  0  0  0  0  0  0  0  0  0  0  0
   12.6881   -1.1063   17.2123 C   0  0  0  0  0  0  0  0  0  0  0  0
   12.1974    0.1504   17.5760 O   0  0  0  0  0  0  0  0  0  0  0  0
   10.8271    0.1632   17.4556 C   0  0  0  0  0  0  0  0  0  0  0  0
  1  2  1  0
  2  3  2  0
  2  4  1  0
  4  5  1  0
  5  6  2  0
  5  7  1  0
  6 11  1  0
  7  8  2  0
  8  9  1  0
  9 10  1  0
  9 11  2  0
 11 12  1  0
 12 13  2  0
 12 14  2  0
 12 15  1  6
 15 16  1  0
 15 17  1  0
 17 18  1  0
 18 19  1  0
 19 20  1  0
M  END
$$$$
