
     RDKit          3D

 20 20  0  0  0  0  0  0  0  0999 V2000
   18.8040   -7.5862   14.2047 C   0  0  0  0  0  0  0  0  0  0  0  0
   18.2687   -6.2092   14.3747 C   0  0  0  0  0  0  0  0  0  0  0  0
   17.0264   -5.9538   14.2959 O   0  0  0  0  0  0  0  0  0  0  0  0
   19.1126   -5.0929   14.6359 N   0  0  0  0  0  0  0  0  0  0  0  0
   18.7351   -4.0333   15.5053 C   0  0  0  0  0  0  0  0  0  0  0  0
   17.7062   -4.1389   16.4231 C   0  0  0  0  0  0  0  0  0  0  0  0
   19.4421   -2.8515   15.4126 C   0  0  0  0  0  0  0  0  0  0  0  0
   19.1056   -1.7954   16.2417 C   0  0  0  0  0  0  0  0  0  0  0  0
   18.0736   -1.9343   17.1463 C   0  0  0  0  0  0  0  0  0  0  0  0
   17.6473   -0.6096   18.1902 Cl  0  0  0  0  0  0  0  0  0  0  0  0
   17.3430   -3.1205   17.2592 C   0  0  0  0  0  0  0  0  0  0  0  0
   16.0347   -3.2538   18.4268 S   0  0  1  0  0  6  0  0  0  0  0  0
   16.0663   -4.6920   18.9290 O   0  0  0  0  0  0  0  0  0  0  0  0
   16.2749   -2.3922   19.6163 O   0  0  0  0  0  0  0  0  0  0  0  0
   14.5129   -3.0058   17.7111 N   0  0  0  0  0  0  0  0  0  0  0  0
   13.7182   -4.1489   17.5207 C   0  0  0  0  0  0  0  0  0  0  0  0
   13.8637   -1.7902   17.9947 C   0  0  0  0  0  0  0  0  0  0  0  0
   13.4440   -0.9416   16.8484 C   0  0  0  0  0  0  0  0  0  0  0  0
   12.9587   -1.6407   15.7600 O   0  0  0  0  0  0  0  0  0  0  0  0
   13.5524   -1.3184   14.5587 C   0  0  0  0  0  0  0  0  0  0  0  0
  1  2  1  6
  2  3  2  0
  2  4  1  0
  4  5  1  0
  5  6  2  0
  5  7  1  0
  6 11  1  0
  7  8  2  0
  8  9  1  0
  9 10  1  0
  9 11  2  0
 11 12  1  0
 12 13  2  0
 12 14  2  0
 12 15  1  6
 16 15  1  6
 17 15  1  1
 17 18  1  0
 18 19  1  6
 20 19  1  6
M  END
$$$$
