
     RDKit          3D

 20 20  0  0  0  0  0  0  0  0999 V2000
   18.4453   -7.6632   14.3629 C   0  0  0  0  0  0  0  0  0  0  0  0
   18.0915   -6.2401   14.5515 C   0  0  0  0  0  0  0  0  0  0  0  0
   16.8647   -5.9220   14.5655 O   0  0  0  0  0  0  0  0  0  0  0  0
   19.0963   -5.2389   14.7150 N   0  0  0  0  0  0  0  0  0  0  0  0
   18.8103   -4.1316   15.5637 C   0  0  0  0  0  0  0  0  0  0  0  0
   17.9919   -4.3380   16.6395 C   0  0  0  0  0  0  0  0  0  0  0  0
   19.3316   -2.8718   15.3308 C   0  0  0  0  0  0  0  0  0  0  0  0
   19.0360   -1.8226   16.1719 C   0  0  0  0  0  0  0  0  0  0  0  0
   18.1988   -2.0480   17.2687 C   0  0  0  0  0  0  0  0  0  0  0  0
   17.9340   -0.6985   18.3372 Cl  0  0  0  0  0  0  0  0  0  0  0  0
   17.6715   -3.2788   17.5177 C   0  0  0  0  0  0  0  0  0  0  0  0
   16.5648   -3.5669   18.8288 S   0  0  1  0  0  6  0  0  0  0  0  0
   16.7547   -4.9871   19.3187 O   0  0  0  0  0  0  0  0  0  0  0  0
   17.0296   -2.6380   19.9596 O   0  0  0  0  0  0  0  0  0  0  0  0
   14.9904   -3.1945   18.4527 N   0  0  0  0  0  0  0  0  0  0  0  0
   14.5902   -1.8786   18.2279 C   0  0  0  0  0  0  0  0  0  0  0  0
   14.1889   -4.2245   17.8697 C   0  0  0  0  0  0  0  0  0  0  0  0
   12.7424   -3.9564   18.2297 C   0  0  0  0  0  0  0  0  0  0  0  0
   11.9800   -5.1241   18.1417 O   0  0  0  0  0  0  0  0  0  0  0  0
   11.5629   -5.4986   19.3979 C   0  0  0  0  0  0  0  0  0  0  0  0
  1  2  1  0
  2  3  2  0
  2  4  1  0
  4  5  1  0
  5  6  2  0
  5  7  1  0
  6 11  1  0
  7  8  2  0
  8  9  1  0
  9 10  1  0
  9 11  2  0
 11 12  1  0
 12 13  2  0
 12 14  2  0
 12 15  1  6
 15 16  1  0
 15 17  1  0
 17 18  1  0
 18 19  1  0
 19 20  1  0
M  END
$$$$
