
     RDKit          3D

 20 20  0  0  0  0  0  0  0  0999 V2000
   18.1582   -7.9366   13.7657 C   0  0  0  0  0  0  0  0  0  0  0  0
   17.8089   -6.7213   14.5319 C   0  0  0  0  0  0  0  0  0  0  0  0
   18.3453   -5.6233   14.1957 O   0  0  0  0  0  0  0  0  0  0  0  0
   16.8919   -6.7690   15.6254 N   0  0  0  0  0  0  0  0  0  0  0  0
   16.8377   -5.6516   16.5066 C   0  0  0  0  0  0  0  0  0  0  0  0
   17.7140   -4.6227   16.2982 C   0  0  0  0  0  0  0  0  0  0  0  0
   15.9349   -5.5818   17.5521 C   0  0  0  0  0  0  0  0  0  0  0  0
   15.9081   -4.4861   18.3853 C   0  0  0  0  0  0  0  0  0  0  0  0
   16.8088   -3.4408   18.1601 C   0  0  0  0  0  0  0  0  0  0  0  0
   16.6645   -2.0504   19.1988 Cl  0  0  0  0  0  0  0  0  0  0  0  0
   17.7087   -3.4873   17.1388 C   0  0  0  0  0  0  0  0  0  0  0  0
   18.8916   -2.2370   16.8860 S   0  0  1  0  0  6  0  0  0  0  0  0
   19.4334   -1.8044   18.2323 O   0  0  0  0  0  0  0  0  0  0  0  0
   20.0458   -2.9198   16.1381 O   0  0  0  0  0  0  0  0  0  0  0  0
   18.3301   -0.9802   15.9565 N   0  0  0  0  0  0  0  0  0  0  0  0
   18.2949   -1.0659   14.5659 C   0  0  0  0  0  0  0  0  0  0  0  0
   17.4334   -0.0524   16.5717 C   0  0  0  0  0  0  0  0  0  0  0  0
   16.4422    0.4100   15.5242 C   0  0  0  0  0  0  0  0  0  0  0  0
   15.7853    1.5727   15.9354 O   0  0  0  0  0  0  0  0  0  0  0  0
   14.7119    1.8130   15.1093 C   0  0  0  0  0  0  0  0  0  0  0  0
  1  2  1  0
  2  3  2  0
  2  4  1  0
  4  5  1  0
  5  6  2  0
  5  7  1  0
  6 11  1  0
  7  8  2  0
  8  9  1  0
  9 10  1  0
  9 11  2  0
 11 12  1  0
 12 13  2  0
 12 14  2  0
 12 15  1  6
 15 16  1  0
 15 17  1  0
 17 18  1  0
 18 19  1  0
 19 20  1  0
M  END
$$$$
