
     RDKit          3D

 20 20  0  0  0  0  0  0  0  0999 V2000
   18.0573   -6.6485   13.2680 C   0  0  0  0  0  0  0  0  0  0  0  0
   17.9442   -5.5910   14.2951 C   0  0  0  0  0  0  0  0  0  0  0  0
   16.9264   -5.5926   15.0506 O   0  0  0  0  0  0  0  0  0  0  0  0
   18.9485   -4.5871   14.4433 N   0  0  0  0  0  0  0  0  0  0  0  0
   18.8533   -3.6993   15.5528 C   0  0  0  0  0  0  0  0  0  0  0  0
   17.6603   -3.6222   16.2166 C   0  0  0  0  0  0  0  0  0  0  0  0
   19.9208   -2.9248   15.9696 C   0  0  0  0  0  0  0  0  0  0  0  0
   19.7955   -2.0772   17.0473 C   0  0  0  0  0  0  0  0  0  0  0  0
   18.5704   -2.0091   17.7175 C   0  0  0  0  0  0  0  0  0  0  0  0
   18.5061   -0.9804   19.1211 Cl  0  0  0  0  0  0  0  0  0  0  0  0
   17.5040   -2.7599   17.3247 C   0  0  0  0  0  0  0  0  0  0  0  0
   15.9475   -2.6348   18.0916 S   0  0  1  0  0  6  0  0  0  0  0  0
   15.9662   -1.4488   19.0330 O   0  0  0  0  0  0  0  0  0  0  0  0
   14.9674   -2.2923   16.9603 O   0  0  0  0  0  0  0  0  0  0  0  0
   15.4533   -4.0493   18.8084 N   0  0  0  0  0  0  0  0  0  0  0  0
   15.0364   -4.0815   20.1379 C   0  0  0  0  0  0  0  0  0  0  0  0
   14.9771   -5.0918   17.9542 C   0  0  0  0  0  0  0  0  0  0  0  0
   13.9585   -5.9048   18.7259 C   0  0  0  0  0  0  0  0  0  0  0  0
   13.7272   -7.1356   18.1063 O   0  0  0  0  0  0  0  0  0  0  0  0
   12.4881   -7.6097   18.4699 C   0  0  0  0  0  0  0  0  0  0  0  0
  1  2  1  0
  2  3  2  0
  2  4  1  0
  4  5  1  0
  5  6  2  0
  5  7  1  0
  6 11  1  0
  7  8  2  0
  8  9  1  0
  9 10  1  0
  9 11  2  0
 11 12  1  0
 12 13  2  0
 12 14  2  0
 12 15  1  1
 15 16  1  0
 15 17  1  0
 17 18  1  0
 18 19  1  0
 19 20  1  0
M  END
$$$$
