
     RDKit          3D

 20 20  0  0  0  0  0  0  0  0999 V2000
   18.4243   -7.9088   14.0958 C   0  0  0  0  0  0  0  0  0  0  0  0
   17.9506   -6.5488   14.4666 C   0  0  0  0  0  0  0  0  0  0  0  0
   16.8429   -6.3587   15.0598 O   0  0  0  0  0  0  0  0  0  0  0  0
   18.7065   -5.3769   14.1809 N   0  0  0  0  0  0  0  0  0  0  0  0
   18.6010   -4.1891   14.9549 C   0  0  0  0  0  0  0  0  0  0  0  0
   18.0790   -4.1650   16.2351 C   0  0  0  0  0  0  0  0  0  0  0  0
   19.0467   -3.0148   14.3823 C   0  0  0  0  0  0  0  0  0  0  0  0
   18.9614   -1.8362   15.1031 C   0  0  0  0  0  0  0  0  0  0  0  0
   18.4352   -1.8475   16.3782 C   0  0  0  0  0  0  0  0  0  0  0  0
   18.3262   -0.3685   17.2877 Cl  0  0  0  0  0  0  0  0  0  0  0  0
   17.9775   -3.0232   16.9795 C   0  0  0  0  0  0  0  0  0  0  0  0
   17.3138   -2.9915   18.6078 S   0  0  1  0  0  6  0  0  0  0  0  0
   17.3792   -4.4270   19.1148 O   0  0  0  0  0  0  0  0  0  0  0  0
   18.1626   -2.1862   19.5276 O   0  0  0  0  0  0  0  0  0  0  0  0
   15.6782   -2.5289   18.6214 N   0  0  0  0  0  0  0  0  0  0  0  0
   15.3953   -1.2202   18.1949 C   0  0  0  0  0  0  0  0  0  0  0  0
   14.7283   -3.5310   18.3514 C   0  0  0  0  0  0  0  0  0  0  0  0
   13.3208   -3.1116   18.1203 C   0  0  0  0  0  0  0  0  0  0  0  0
   12.3795   -3.8361   18.8259 O   0  0  0  0  0  0  0  0  0  0  0  0
   12.0732   -5.0646   18.2811 C   0  0  0  0  0  0  0  0  0  0  0  0
  1  2  1  6
  2  3  2  0
  2  4  1  0
  4  5  1  0
  5  6  2  0
  5  7  1  0
  6 11  1  0
  7  8  2  0
  8  9  1  0
  9 10  1  0
  9 11  2  0
 11 12  1  0
 12 13  2  0
 12 14  2  0
 12 15  1  6
 16 15  1  6
 17 15  1  1
 17 18  1  0
 18 19  1  6
 20 19  1  6
M  END
$$$$
