
     RDKit          3D

 20 20  0  0  0  0  0  0  0  0999 V2000
   18.6800   -7.6010   13.6507 C   0  0  0  0  0  0  0  0  0  0  0  0
   18.1412   -6.3018   14.1336 C   0  0  0  0  0  0  0  0  0  0  0  0
   16.9352   -6.1706   14.5123 O   0  0  0  0  0  0  0  0  0  0  0  0
   18.9407   -5.1260   14.2020 N   0  0  0  0  0  0  0  0  0  0  0  0
   18.6103   -4.0217   15.0342 C   0  0  0  0  0  0  0  0  0  0  0  0
   17.7996   -4.1313   16.1490 C   0  0  0  0  0  0  0  0  0  0  0  0
   19.1343   -2.7905   14.6954 C   0  0  0  0  0  0  0  0  0  0  0  0
   18.8365   -1.6898   15.4802 C   0  0  0  0  0  0  0  0  0  0  0  0
   18.0243   -1.8342   16.5857 C   0  0  0  0  0  0  0  0  0  0  0  0
   17.6475   -0.4535   17.5748 Cl  0  0  0  0  0  0  0  0  0  0  0  0
   17.4818   -3.0699   16.9493 C   0  0  0  0  0  0  0  0  0  0  0  0
   16.4510   -3.2082   18.3673 S   0  0  1  0  0  6  0  0  0  0  0  0
   16.6021   -4.6433   18.8567 O   0  0  0  0  0  0  0  0  0  0  0  0
   16.9284   -2.3379   19.4762 O   0  0  0  0  0  0  0  0  0  0  0  0
   14.8100   -2.9778   17.9883 N   0  0  0  0  0  0  0  0  0  0  0  0
   14.4722   -1.7498   17.3945 C   0  0  0  0  0  0  0  0  0  0  0  0
   14.0747   -4.1170   17.6128 C   0  0  0  0  0  0  0  0  0  0  0  0
   13.2069   -4.0197   16.4096 C   0  0  0  0  0  0  0  0  0  0  0  0
   13.2541   -5.1186   15.5736 O   0  0  0  0  0  0  0  0  0  0  0  0
   13.4144   -4.8183   14.2380 C   0  0  0  0  0  0  0  0  0  0  0  0
  1  2  1  6
  2  3  2  0
  2  4  1  0
  4  5  1  0
  5  6  2  0
  5  7  1  0
  6 11  1  0
  7  8  2  0
  8  9  1  0
  9 10  1  0
  9 11  2  0
 11 12  1  0
 12 13  2  0
 12 14  2  0
 12 15  1  6
 16 15  1  6
 17 15  1  1
 17 18  1  0
 18 19  1  6
 20 19  1  6
M  END
$$$$
