
     RDKit          3D

 20 20  0  0  0  0  0  0  0  0999 V2000
   18.2356   -7.2188   12.8981 C   0  0  0  0  0  0  0  0  0  0  0  0
   17.8640   -6.1808   13.8961 C   0  0  0  0  0  0  0  0  0  0  0  0
   17.5561   -4.9961   13.5545 O   0  0  0  0  0  0  0  0  0  0  0  0
   17.8298   -6.4484   15.2938 N   0  0  0  0  0  0  0  0  0  0  0  0
   17.5097   -5.4531   16.2572 C   0  0  0  0  0  0  0  0  0  0  0  0
   17.2473   -4.1367   15.9254 C   0  0  0  0  0  0  0  0  0  0  0  0
   17.4638   -5.8406   17.5813 C   0  0  0  0  0  0  0  0  0  0  0  0
   17.1557   -4.9015   18.5503 C   0  0  0  0  0  0  0  0  0  0  0  0
   16.8993   -3.5963   18.1849 C   0  0  0  0  0  0  0  0  0  0  0  0
   16.5117   -2.4127   19.3995 Cl  0  0  0  0  0  0  0  0  0  0  0  0
   16.9395   -3.1796   16.8514 C   0  0  0  0  0  0  0  0  0  0  0  0
   16.6057   -1.5050   16.4305 S   0  0  1  0  0  6  0  0  0  0  0  0
   17.3491   -0.6589   17.4568 O   0  0  0  0  0  0  0  0  0  0  0  0
   17.1803   -1.1507   15.1041 O   0  0  0  0  0  0  0  0  0  0  0  0
   14.9541   -1.1286   16.5719 N   0  0  0  0  0  0  0  0  0  0  0  0
   14.5731    0.1672   16.1842 C   0  0  0  0  0  0  0  0  0  0  0  0
   14.0394   -2.1765   16.3608 C   0  0  0  0  0  0  0  0  0  0  0  0
   12.5892   -1.8656   16.4635 C   0  0  0  0  0  0  0  0  0  0  0  0
   11.8319   -2.8422   17.0812 O   0  0  0  0  0  0  0  0  0  0  0  0
   10.9595   -2.3727   18.0394 C   0  0  0  0  0  0  0  0  0  0  0  0
  1  2  1  6
  2  3  2  0
  2  4  1  0
  4  5  1  0
  5  6  2  0
  5  7  1  0
  6 11  1  0
  7  8  2  0
  8  9  1  0
  9 10  1  0
  9 11  2  0
 11 12  1  0
 12 13  2  0
 12 14  2  0
 12 15  1  6
 16 15  1  6
 17 15  1  1
 17 18  1  0
 18 19  1  6
 20 19  1  6
M  END
$$$$
