
     RDKit          3D

 20 20  0  0  0  0  0  0  0  0999 V2000
   19.0832   -7.4393   13.2945 C   0  0  0  0  0  0  0  0  0  0  0  0
   18.1653   -6.6026   14.0965 C   0  0  0  0  0  0  0  0  0  0  0  0
   18.1325   -5.3563   13.8676 O   0  0  0  0  0  0  0  0  0  0  0  0
   17.3313   -7.1708   15.1065 N   0  0  0  0  0  0  0  0  0  0  0  0
   16.8215   -6.3102   16.1202 C   0  0  0  0  0  0  0  0  0  0  0  0
   17.2873   -5.0255   16.1699 C   0  0  0  0  0  0  0  0  0  0  0  0
   15.8814   -6.7345   17.0418 C   0  0  0  0  0  0  0  0  0  0  0  0
   15.4082   -5.8762   18.0088 C   0  0  0  0  0  0  0  0  0  0  0  0
   15.8922   -4.5651   18.0474 C   0  0  0  0  0  0  0  0  0  0  0  0
   15.1904   -3.5103   19.2421 Cl  0  0  0  0  0  0  0  0  0  0  0  0
   16.8196   -4.1245   17.1524 C   0  0  0  0  0  0  0  0  0  0  0  0
   17.4957   -2.5234   17.2283 S   0  0  1  0  0  6  0  0  0  0  0  0
   17.7019   -2.1539   18.6823 O   0  0  0  0  0  0  0  0  0  0  0  0
   18.8896   -2.6444   16.5957 O   0  0  0  0  0  0  0  0  0  0  0  0
   16.6221   -1.4006   16.3709 N   0  0  0  0  0  0  0  0  0  0  0  0
   16.7906   -1.2466   14.9960 C   0  0  0  0  0  0  0  0  0  0  0  0
   15.3761   -0.9703   16.9236 C   0  0  0  0  0  0  0  0  0  0  0  0
   14.7855    0.0731   15.9982 C   0  0  0  0  0  0  0  0  0  0  0  0
   15.0213    1.3624   16.4825 O   0  0  0  0  0  0  0  0  0  0  0  0
   13.8271    1.9508   16.8291 C   0  0  0  0  0  0  0  0  0  0  0  0
  1  2  1  0
  2  3  2  0
  2  4  1  0
  4  5  1  0
  5  6  2  0
  5  7  1  0
  6 11  1  0
  7  8  2  0
  8  9  1  0
  9 10  1  0
  9 11  2  0
 11 12  1  0
 12 13  2  0
 12 14  2  0
 12 15  1  6
 15 16  1  0
 15 17  1  0
 17 18  1  0
 18 19  1  0
 19 20  1  0
M  END
$$$$
