
     RDKit          3D

 20 20  0  0  0  0  0  0  0  0999 V2000
   18.4103   -7.7859   14.2358 C   0  0  0  0  0  0  0  0  0  0  0  0
   17.9143   -6.4074   14.4909 C   0  0  0  0  0  0  0  0  0  0  0  0
   16.7116   -6.1750   14.8291 O   0  0  0  0  0  0  0  0  0  0  0  0
   18.7538   -5.2638   14.3726 N   0  0  0  0  0  0  0  0  0  0  0  0
   18.5514   -4.0820   15.1363 C   0  0  0  0  0  0  0  0  0  0  0  0
   17.5479   -3.9538   16.0790 C   0  0  0  0  0  0  0  0  0  0  0  0
   19.4085   -3.0238   14.9105 C   0  0  0  0  0  0  0  0  0  0  0  0
   19.2449   -1.8550   15.6338 C   0  0  0  0  0  0  0  0  0  0  0  0
   18.2334   -1.7606   16.5668 C   0  0  0  0  0  0  0  0  0  0  0  0
   18.0242   -0.2935   17.4780 Cl  0  0  0  0  0  0  0  0  0  0  0  0
   17.3530   -2.8177   16.8135 C   0  0  0  0  0  0  0  0  0  0  0  0
   16.0772   -2.6538   18.0127 S   0  0  1  0  0  6  0  0  0  0  0  0
   15.7246   -4.0716   18.4457 O   0  0  0  0  0  0  0  0  0  0  0  0
   16.5622   -1.9543   19.2335 O   0  0  0  0  0  0  0  0  0  0  0  0
   14.6687   -1.9651   17.3559 N   0  0  0  0  0  0  0  0  0  0  0  0
   14.0083   -2.7152   16.3681 C   0  0  0  0  0  0  0  0  0  0  0  0
   13.8870   -1.1689   18.2130 C   0  0  0  0  0  0  0  0  0  0  0  0
   12.4743   -0.9119   17.8279 C   0  0  0  0  0  0  0  0  0  0  0  0
   11.7980   -0.0421   18.6615 O   0  0  0  0  0  0  0  0  0  0  0  0
   11.0415    0.9077   18.0094 C   0  0  0  0  0  0  0  0  0  0  0  0
  1  2  1  6
  2  3  2  0
  2  4  1  0
  4  5  1  0
  5  6  2  0
  5  7  1  0
  6 11  1  0
  7  8  2  0
  8  9  1  0
  9 10  1  0
  9 11  2  0
 11 12  1  0
 12 13  2  0
 12 14  2  0
 12 15  1  6
 16 15  1  6
 17 15  1  1
 17 18  1  0
 18 19  1  6
 20 19  1  6
M  END
$$$$
