
     RDKit          3D

 20 20  0  0  0  0  0  0  0  0999 V2000
   18.8049   -7.4853   13.9831 C   0  0  0  0  0  0  0  0  0  0  0  0
   18.3676   -6.1345   14.4253 C   0  0  0  0  0  0  0  0  0  0  0  0
   17.1404   -5.8332   14.5600 O   0  0  0  0  0  0  0  0  0  0  0  0
   19.2942   -5.0962   14.7248 N   0  0  0  0  0  0  0  0  0  0  0  0
   18.9422   -3.9527   15.4927 C   0  0  0  0  0  0  0  0  0  0  0  0
   17.9040   -3.9459   16.4061 C   0  0  0  0  0  0  0  0  0  0  0  0
   19.6849   -2.8049   15.3021 C   0  0  0  0  0  0  0  0  0  0  0  0
   19.3741   -1.6697   16.0305 C   0  0  0  0  0  0  0  0  0  0  0  0
   18.3318   -1.6972   16.9336 C   0  0  0  0  0  0  0  0  0  0  0  0
   17.9378   -0.2726   17.8512 Cl  0  0  0  0  0  0  0  0  0  0  0  0
   17.5653   -2.8467   17.1444 C   0  0  0  0  0  0  0  0  0  0  0  0
   16.2452   -2.8370   18.3063 S   0  0  1  0  0  6  0  0  0  0  0  0
   16.0142   -4.2935   18.6900 O   0  0  0  0  0  0  0  0  0  0  0  0
   16.6268   -2.1318   19.5601 O   0  0  0  0  0  0  0  0  0  0  0  0
   14.7983   -2.2627   17.6235 N   0  0  0  0  0  0  0  0  0  0  0  0
   14.6426   -0.8672   17.5715 C   0  0  0  0  0  0  0  0  0  0  0  0
   14.2315   -3.0292   16.5888 C   0  0  0  0  0  0  0  0  0  0  0  0
   12.7823   -3.3497   16.6739 C   0  0  0  0  0  0  0  0  0  0  0  0
   12.4525   -4.6362   16.2933 O   0  0  0  0  0  0  0  0  0  0  0  0
   12.0143   -4.7562   14.9921 C   0  0  0  0  0  0  0  0  0  0  0  0
  1  2  1  6
  2  3  2  0
  2  4  1  0
  4  5  1  0
  5  6  2  0
  5  7  1  0
  6 11  1  0
  7  8  2  0
  8  9  1  0
  9 10  1  0
  9 11  2  0
 11 12  1  0
 12 13  2  0
 12 14  2  0
 12 15  1  6
 16 15  1  6
 17 15  1  1
 17 18  1  0
 18 19  1  6
 20 19  1  6
M  END
$$$$
