
     RDKit          3D

 20 20  0  0  0  0  0  0  0  0999 V2000
   18.3222   -7.5301   14.2560 C   0  0  0  0  0  0  0  0  0  0  0  0
   18.0935   -6.0882   14.5390 C   0  0  0  0  0  0  0  0  0  0  0  0
   16.9458   -5.5533   14.4313 O   0  0  0  0  0  0  0  0  0  0  0  0
   19.1436   -5.2183   14.9475 N   0  0  0  0  0  0  0  0  0  0  0  0
   18.9035   -3.9947   15.6304 C   0  0  0  0  0  0  0  0  0  0  0  0
   17.7476   -3.7430   16.3463 C   0  0  0  0  0  0  0  0  0  0  0  0
   19.8838   -3.0253   15.5629 C   0  0  0  0  0  0  0  0  0  0  0  0
   19.6885   -1.8197   16.2144 C   0  0  0  0  0  0  0  0  0  0  0  0
   18.5235   -1.6012   16.9198 C   0  0  0  0  0  0  0  0  0  0  0  0
   18.2739   -0.0874   17.7401 Cl  0  0  0  0  0  0  0  0  0  0  0  0
   17.5164   -2.5667   17.0030 C   0  0  0  0  0  0  0  0  0  0  0  0
   16.0467   -2.2455   17.9137 S   0  0  1  0  0  6  0  0  0  0  0  0
   15.7005   -3.5487   18.6235 O   0  0  0  0  0  0  0  0  0  0  0  0
   16.2771   -1.2373   18.9839 O   0  0  0  0  0  0  0  0  0  0  0  0
   14.7375   -1.8641   16.8988 N   0  0  0  0  0  0  0  0  0  0  0  0
   13.4917   -2.4081   17.2547 C   0  0  0  0  0  0  0  0  0  0  0  0
   14.7538   -0.5994   16.2826 C   0  0  0  0  0  0  0  0  0  0  0  0
   13.4518   -0.0027   15.8841 C   0  0  0  0  0  0  0  0  0  0  0  0
   13.5133    1.3304   15.5263 O   0  0  0  0  0  0  0  0  0  0  0  0
   12.8941    1.6344   14.3331 C   0  0  0  0  0  0  0  0  0  0  0  0
  1  2  1  6
  2  3  2  0
  2  4  1  0
  4  5  1  0
  5  6  2  0
  5  7  1  0
  6 11  1  0
  7  8  2  0
  8  9  1  0
  9 10  1  0
  9 11  2  0
 11 12  1  0
 12 13  2  0
 12 14  2  0
 12 15  1  6
 16 15  1  6
 17 15  1  1
 17 18  1  0
 18 19  1  6
 20 19  1  6
M  END
$$$$
