
     RDKit          3D

 20 20  0  0  0  0  0  0  0  0999 V2000
   16.0602   -8.5947   14.0037 C   0  0  0  0  0  0  0  0  0  0  0  0
   16.1585   -7.3969   14.8795 C   0  0  0  0  0  0  0  0  0  0  0  0
   16.3374   -6.2300   14.4091 O   0  0  0  0  0  0  0  0  0  0  0  0
   16.0585   -7.4819   16.2970 N   0  0  0  0  0  0  0  0  0  0  0  0
   16.1708   -6.3448   17.1429 C   0  0  0  0  0  0  0  0  0  0  0  0
   16.1419   -5.0456   16.6706 C   0  0  0  0  0  0  0  0  0  0  0  0
   16.3148   -6.5708   18.4970 C   0  0  0  0  0  0  0  0  0  0  0  0
   16.4274   -5.4902   19.3546 C   0  0  0  0  0  0  0  0  0  0  0  0
   16.3947   -4.2068   18.8502 C   0  0  0  0  0  0  0  0  0  0  0  0
   16.5359   -2.8457   19.9245 Cl  0  0  0  0  0  0  0  0  0  0  0  0
   16.2498   -3.9521   17.4836 C   0  0  0  0  0  0  0  0  0  0  0  0
   16.2131   -2.2994   16.8839 S   0  0  1  0  0  6  0  0  0  0  0  0
   15.3326   -2.3244   15.6405 O   0  0  0  0  0  0  0  0  0  0  0  0
   15.5454   -1.3835   17.8484 O   0  0  0  0  0  0  0  0  0  0  0  0
   17.7511   -1.7623   16.3985 N   0  0  0  0  0  0  0  0  0  0  0  0
   18.1361   -2.0750   15.0838 C   0  0  0  0  0  0  0  0  0  0  0  0
   18.2088   -0.5516   16.9501 C   0  0  0  0  0  0  0  0  0  0  0  0
   18.1977    0.6561   16.0832 C   0  0  0  0  0  0  0  0  0  0  0  0
   16.9535    1.2314   15.9107 O   0  0  0  0  0  0  0  0  0  0  0  0
   16.8949    2.1881   14.9203 C   0  0  0  0  0  0  0  0  0  0  0  0
  1  2  1  6
  2  3  2  0
  2  4  1  0
  4  5  1  0
  5  6  2  0
  5  7  1  0
  6 11  1  0
  7  8  2  0
  8  9  1  0
  9 10  1  0
  9 11  2  0
 11 12  1  0
 12 13  2  0
 12 14  2  0
 12 15  1  6
 16 15  1  6
 17 15  1  1
 17 18  1  0
 18 19  1  6
 20 19  1  6
M  END
$$$$
