
     RDKit          3D

 20 20  0  0  0  0  0  0  0  0999 V2000
   17.3427   -8.0732   14.2605 C   0  0  0  0  0  0  0  0  0  0  0  0
   17.3923   -6.6284   14.5707 C   0  0  0  0  0  0  0  0  0  0  0  0
   16.3277   -6.0593   14.9571 O   0  0  0  0  0  0  0  0  0  0  0  0
   18.6020   -5.8809   14.4426 N   0  0  0  0  0  0  0  0  0  0  0  0
   18.6715   -4.6023   15.0660 C   0  0  0  0  0  0  0  0  0  0  0  0
   17.8960   -4.3801   16.1701 C   0  0  0  0  0  0  0  0  0  0  0  0
   19.4911   -3.5950   14.5901 C   0  0  0  0  0  0  0  0  0  0  0  0
   19.5356   -2.3701   15.2172 C   0  0  0  0  0  0  0  0  0  0  0  0
   18.7384   -2.1569   16.3458 C   0  0  0  0  0  0  0  0  0  0  0  0
   18.9058   -0.6152   17.1381 Cl  0  0  0  0  0  0  0  0  0  0  0  0
   17.9215   -3.1323   16.8320 C   0  0  0  0  0  0  0  0  0  0  0  0
   16.8617   -2.8663   18.1858 S   0  0  1  0  0  6  0  0  0  0  0  0
   16.5329   -4.2050   18.8128 O   0  0  0  0  0  0  0  0  0  0  0  0
   17.7021   -2.0880   19.2084 O   0  0  0  0  0  0  0  0  0  0  0  0
   15.5229   -1.9606   17.8034 N   0  0  0  0  0  0  0  0  0  0  0  0
   15.5453   -0.5688   17.8716 C   0  0  0  0  0  0  0  0  0  0  0  0
   14.5500   -2.5518   16.9390 C   0  0  0  0  0  0  0  0  0  0  0  0
   13.2533   -1.7848   17.0949 C   0  0  0  0  0  0  0  0  0  0  0  0
   12.2288   -2.3775   16.3523 O   0  0  0  0  0  0  0  0  0  0  0  0
   11.1892   -1.4882   16.2085 C   0  0  0  0  0  0  0  0  0  0  0  0
  1  2  1  0
  2  3  2  0
  2  4  1  0
  4  5  1  0
  5  6  2  0
  5  7  1  0
  6 11  1  0
  7  8  2  0
  8  9  1  0
  9 10  1  0
  9 11  2  0
 11 12  1  0
 12 13  2  0
 12 14  2  0
 12 15  1  6
 15 16  1  0
 15 17  1  0
 17 18  1  0
 18 19  1  0
 19 20  1  0
M  END
$$$$
