
     RDKit          3D

 20 20  0  0  0  0  0  0  0  0999 V2000
   17.8787   -7.0870   13.5389 C   0  0  0  0  0  0  0  0  0  0  0  0
   17.7178   -5.8053   14.2584 C   0  0  0  0  0  0  0  0  0  0  0  0
   18.2510   -5.6865   15.4021 O   0  0  0  0  0  0  0  0  0  0  0  0
   16.9829   -4.7207   13.6909 N   0  0  0  0  0  0  0  0  0  0  0  0
   16.9608   -3.4826   14.3944 C   0  0  0  0  0  0  0  0  0  0  0  0
   17.3448   -3.4795   15.7067 C   0  0  0  0  0  0  0  0  0  0  0  0
   16.5668   -2.3011   13.7927 C   0  0  0  0  0  0  0  0  0  0  0  0
   16.5582   -1.1206   14.5013 C   0  0  0  0  0  0  0  0  0  0  0  0
   16.9543   -1.1316   15.8420 C   0  0  0  0  0  0  0  0  0  0  0  0
   16.9993    0.4083   16.6540 Cl  0  0  0  0  0  0  0  0  0  0  0  0
   17.3442   -2.2826   16.4572 C   0  0  0  0  0  0  0  0  0  0  0  0
   17.7653   -2.3369   18.1443 S   0  0  1  0  0  6  0  0  0  0  0  0
   16.8009   -1.4573   18.9120 O   0  0  0  0  0  0  0  0  0  0  0  0
   17.4948   -3.7840   18.5806 O   0  0  0  0  0  0  0  0  0  0  0  0
   19.3632   -1.9879   18.4337 N   0  0  0  0  0  0  0  0  0  0  0  0
   20.3571   -2.9510   18.2695 C   0  0  0  0  0  0  0  0  0  0  0  0
   19.7665   -0.6192   18.3492 C   0  0  0  0  0  0  0  0  0  0  0  0
   21.1534   -0.4990   18.9459 C   0  0  0  0  0  0  0  0  0  0  0  0
   21.2452    0.6201   19.7775 O   0  0  0  0  0  0  0  0  0  0  0  0
   22.2705    1.4308   19.3487 C   0  0  0  0  0  0  0  0  0  0  0  0
  1  2  1  0
  2  3  2  0
  2  4  1  0
  4  5  1  0
  5  6  2  0
  5  7  1  0
  6 11  1  0
  7  8  2  0
  8  9  1  0
  9 10  1  0
  9 11  2  0
 11 12  1  0
 12 13  2  0
 12 14  2  0
 12 15  1  6
 15 16  1  0
 15 17  1  0
 17 18  1  0
 18 19  1  0
 19 20  1  0
M  END
$$$$
