
     RDKit          3D

 20 20  0  0  0  0  0  0  0  0999 V2000
   11.3941   -4.4770   19.7043 C   0  0  0  0  0  0  0  0  0  0  0  0
   12.6660   -3.9900   19.1072 C   0  0  0  0  0  0  0  0  0  0  0  0
   13.6849   -4.7397   18.9860 O   0  0  0  0  0  0  0  0  0  0  0  0
   12.8218   -2.6562   18.6347 N   0  0  0  0  0  0  0  0  0  0  0  0
   14.0834   -2.1178   18.2611 C   0  0  0  0  0  0  0  0  0  0  0  0
   15.1361   -2.8968   17.8172 C   0  0  0  0  0  0  0  0  0  0  0  0
   14.2441   -0.7499   18.3533 C   0  0  0  0  0  0  0  0  0  0  0  0
   15.4576   -0.1862   17.9988 C   0  0  0  0  0  0  0  0  0  0  0  0
   16.4872   -0.9924   17.5599 C   0  0  0  0  0  0  0  0  0  0  0  0
   18.0140   -0.2881   17.1134 Cl  0  0  0  0  0  0  0  0  0  0  0  0
   16.3492   -2.3795   17.4579 C   0  0  0  0  0  0  0  0  0  0  0  0
   17.6886   -3.3693   16.8932 S   0  0  1  0  0  6  0  0  0  0  0  0
   18.9568   -2.6191   17.2817 O   0  0  0  0  0  0  0  0  0  0  0  0
   17.7418   -4.6742   17.6069 O   0  0  0  0  0  0  0  0  0  0  0  0
   17.6972   -3.5259   15.2006 N   0  0  0  0  0  0  0  0  0  0  0  0
   18.7155   -2.8424   14.5149 C   0  0  0  0  0  0  0  0  0  0  0  0
   17.2505   -4.7499   14.6697 C   0  0  0  0  0  0  0  0  0  0  0  0
   18.2413   -5.6061   13.9660 C   0  0  0  0  0  0  0  0  0  0  0  0
   17.7019   -6.4507   13.0149 O   0  0  0  0  0  0  0  0  0  0  0  0
   18.6083   -6.9368   12.0975 C   0  0  0  0  0  0  0  0  0  0  0  0
  1  2  1  6
  2  3  2  0
  2  4  1  0
  4  5  1  0
  5  6  2  0
  5  7  1  0
  6 11  1  0
  7  8  2  0
  8  9  1  0
  9 10  1  0
  9 11  2  0
 11 12  1  0
 12 13  2  0
 12 14  2  0
 12 15  1  6
 16 15  1  6
 17 15  1  1
 17 18  1  0
 18 19  1  6
 20 19  1  6
M  END
$$$$
