
     RDKit          3D

 20 20  0  0  0  0  0  0  0  0999 V2000
   18.0482   -8.6168   13.6141 C   0  0  0  0  0  0  0  0  0  0  0  0
   17.7747   -7.3447   14.3341 C   0  0  0  0  0  0  0  0  0  0  0  0
   18.4335   -6.2831   14.1022 O   0  0  0  0  0  0  0  0  0  0  0  0
   16.7598   -7.2364   15.3264 N   0  0  0  0  0  0  0  0  0  0  0  0
   16.6405   -6.1064   16.1809 C   0  0  0  0  0  0  0  0  0  0  0  0
   17.5385   -5.0549   16.1732 C   0  0  0  0  0  0  0  0  0  0  0  0
   15.5702   -6.0775   17.0520 C   0  0  0  0  0  0  0  0  0  0  0  0
   15.4183   -4.9946   17.9008 C   0  0  0  0  0  0  0  0  0  0  0  0
   16.3325   -3.9623   17.8672 C   0  0  0  0  0  0  0  0  0  0  0  0
   16.1454   -2.5994   18.9322 Cl  0  0  0  0  0  0  0  0  0  0  0  0
   17.4242   -3.9684   16.9945 C   0  0  0  0  0  0  0  0  0  0  0  0
   18.5656   -2.6306   16.9855 S   0  0  1  0  0  6  0  0  0  0  0  0
   18.6092   -2.1075   18.4160 O   0  0  0  0  0  0  0  0  0  0  0  0
   19.9447   -3.0919   16.6688 O   0  0  0  0  0  0  0  0  0  0  0  0
   18.0400   -1.3499   15.9990 N   0  0  0  0  0  0  0  0  0  0  0  0
   18.1642   -1.5379   14.6120 C   0  0  0  0  0  0  0  0  0  0  0  0
   16.9550   -0.5863   16.4671 C   0  0  0  0  0  0  0  0  0  0  0  0
   16.7078    0.7345   15.8310 C   0  0  0  0  0  0  0  0  0  0  0  0
   17.0271    1.8234   16.6191 O   0  0  0  0  0  0  0  0  0  0  0  0
   17.4365    2.9385   15.9201 C   0  0  0  0  0  0  0  0  0  0  0  0
  1  2  1  6
  2  3  2  0
  2  4  1  0
  4  5  1  0
  5  6  2  0
  5  7  1  0
  6 11  1  0
  7  8  2  0
  8  9  1  0
  9 10  1  0
  9 11  2  0
 11 12  1  0
 12 13  2  0
 12 14  2  0
 12 15  1  6
 16 15  1  6
 17 15  1  1
 17 18  1  0
 18 19  1  6
 20 19  1  6
M  END
$$$$
