
     RDKit          3D

 20 20  0  0  0  0  0  0  0  0999 V2000
   18.1176   -6.5786   12.7258 C   0  0  0  0  0  0  0  0  0  0  0  0
   17.9021   -5.6031   13.8157 C   0  0  0  0  0  0  0  0  0  0  0  0
   16.8007   -5.6347   14.4422 O   0  0  0  0  0  0  0  0  0  0  0  0
   18.9009   -4.6442   14.1644 N   0  0  0  0  0  0  0  0  0  0  0  0
   18.7221   -3.8915   15.3600 C   0  0  0  0  0  0  0  0  0  0  0  0
   17.4801   -3.8748   15.9319 C   0  0  0  0  0  0  0  0  0  0  0  0
   19.7571   -3.1877   15.9485 C   0  0  0  0  0  0  0  0  0  0  0  0
   19.5506   -2.4707   17.1056 C   0  0  0  0  0  0  0  0  0  0  0  0
   18.2761   -2.4632   17.6803 C   0  0  0  0  0  0  0  0  0  0  0  0
   18.1054   -1.6055   19.1863 Cl  0  0  0  0  0  0  0  0  0  0  0  0
   17.2404   -3.1464   17.1184 C   0  0  0  0  0  0  0  0  0  0  0  0
   15.6282   -3.0885   17.7694 S   0  0  1  0  0  6  0  0  0  0  0  0
   15.6257   -2.1711   18.9742 O   0  0  0  0  0  0  0  0  0  0  0  0
   14.7806   -2.4061   16.6860 O   0  0  0  0  0  0  0  0  0  0  0  0
   14.9882   -4.5911   18.0723 N   0  0  0  0  0  0  0  0  0  0  0  0
   14.4792   -5.3831   17.0447 C   0  0  0  0  0  0  0  0  0  0  0  0
   15.4149   -5.2641   19.2590 C   0  0  0  0  0  0  0  0  0  0  0  0
   14.6245   -6.5503   19.3811 C   0  0  0  0  0  0  0  0  0  0  0  0
   14.9717   -7.2426   20.5441 O   0  0  0  0  0  0  0  0  0  0  0  0
   14.4285   -8.5060   20.5086 C   0  0  0  0  0  0  0  0  0  0  0  0
  1  2  1  0
  2  3  2  0
  2  4  1  0
  4  5  1  0
  5  6  2  0
  5  7  1  0
  6 11  1  0
  7  8  2  0
  8  9  1  0
  9 10  1  0
  9 11  2  0
 11 12  1  0
 12 13  2  0
 12 14  2  0
 12 15  1  1
 15 16  1  0
 15 17  1  0
 17 18  1  0
 18 19  1  0
 19 20  1  0
M  END
$$$$
