
     RDKit          3D

 20 21  0  0  0  0  0  0  0  0999 V2000
  125.7022  117.5174   30.6516 C   0  0  0  0  0  0  0  0  0  0  0  0
  126.4219  116.4541   30.6295 O   0  0  0  0  0  0  0  0  0  0  0  0
  127.0572  118.2822   28.6652 C   0  0  0  0  0  0  0  0  0  0  0  0
  122.7138  117.6903   33.6988 C   0  0  0  0  0  0  0  0  0  0  0  0
  123.9751  116.5274   35.3023 C   0  0  0  0  0  0  0  0  0  0  0  0
  123.4506  118.1802   31.5254 C   0  0  0  0  0  0  0  0  0  0  0  0
  122.4794  116.3167   35.5771 C   0  0  0  0  0  0  0  0  0  0  0  0
  121.9240  117.5753   34.9540 C   0  0  0  0  0  0  0  0  0  0  0  0
  126.4934  117.9706   27.3067 C   0  0  0  0  0  0  0  0  0  0  0  0
  127.4850  118.1639   26.1893 C   0  0  0  0  0  0  0  0  0  0  0  0
  127.0501  119.2089   25.2577 C   0  0  0  0  0  0  0  0  0  0  0  0
  128.0801  120.7258   23.6472 C   0  0  0  0  0  0  0  0  0  0  0  0
  124.6765  117.5881   31.6657 C   0  0  0  0  0  0  0  0  0  0  0  0
  124.8962  117.0177   32.9293 C   0  0  0  0  0  0  0  0  0  0  0  0
  123.9270  117.0786   33.9055 C   0  0  0  0  0  0  0  0  0  0  0  0
  122.5052  118.2324   32.4969 N   0  0  0  0  0  0  0  0  0  0  0  0
  126.0270  118.4649   29.6708 N   0  0  0  0  0  0  0  0  0  0  0  0
  123.1510  118.7205   30.4352 O   0  0  0  0  0  0  0  0  0  0  0  0
  125.9503  119.1272   24.6798 O   0  0  0  0  0  0  0  0  0  0  0  0
  127.8311  120.3176   24.9825 O   0  0  0  0  0  0  0  0  0  0  0  0
  1  2  2  0
 13  1  1  0
  1 17  1  0
  3  9  1  0
 17  3  1  0
  4  8  1  0
  4 15  2  0
 16  4  1  0
  5  7  1  0
 15  5  1  0
  6 13  1  0
  6 16  1  0
  6 18  2  0
  7  8  1  0
  9 10  1  0
 10 11  1  0
 11 19  2  0
 11 20  1  0
 20 12  1  0
 13 14  2  0
 14 15  1  0
M  END
$$$$
