
     RDKit          3D

 20 21  0  0  0  0  0  0  0  0999 V2000
  138.0963  117.0067   32.7051 C   0  0  0  0  0  0  0  0  0  0  0  0
  138.8535  117.5687   31.8223 O   0  0  0  0  0  0  0  0  0  0  0  0
  139.9839  115.5339   33.1971 C   0  0  0  0  0  0  0  0  0  0  0  0
  134.1120  118.3251   32.9221 C   0  0  0  0  0  0  0  0  0  0  0  0
  133.3478  116.7845   34.4946 C   0  0  0  0  0  0  0  0  0  0  0  0
  136.2665  118.5382   32.0153 C   0  0  0  0  0  0  0  0  0  0  0  0
  132.4793  118.0082   34.5486 C   0  0  0  0  0  0  0  0  0  0  0  0
  132.6660  118.6044   33.1691 C   0  0  0  0  0  0  0  0  0  0  0  0
  140.9418  116.3102   34.0372 C   0  0  0  0  0  0  0  0  0  0  0  0
  142.3662  115.8441   33.8309 C   0  0  0  0  0  0  0  0  0  0  0  0
  143.2513  116.8516   34.4842 C   0  0  0  0  0  0  0  0  0  0  0  0
  145.5670  117.0650   35.2429 C   0  0  0  0  0  0  0  0  0  0  0  0
  136.7213  117.4829   32.7631 C   0  0  0  0  0  0  0  0  0  0  0  0
  135.8089  116.8547   33.6064 C   0  0  0  0  0  0  0  0  0  0  0  0
  134.5119  117.2556   33.7005 C   0  0  0  0  0  0  0  0  0  0  0  0
  134.9643  118.9526   32.0996 N   0  0  0  0  0  0  0  0  0  0  0  0
  138.6173  116.0068   33.5293 N   0  0  0  0  0  0  0  0  0  0  0  0
  137.0107  119.1789   31.2176 O   0  0  0  0  0  0  0  0  0  0  0  0
  142.7928  117.6514   35.3662 O   0  0  0  0  0  0  0  0  0  0  0  0
  144.5986  116.9847   34.1862 O   0  0  0  0  0  0  0  0  0  0  0  0
  1  2  2  0
 13  1  1  0
  1 17  1  0
  9  3  1  1
  3 17  1  6
  8  4  1  1
  4 15  2  0
 16  4  1  0
  7  5  1  1
  5 15  1  6
  6 13  1  0
  6 16  1  0
  6 18  2  0
  7  8  1  0
  9 10  1  0
 10 11  1  6
 11 19  2  0
 11 20  1  0
 12 20  1  6
 13 14  2  0
 14 15  1  0
M  END
$$$$
