
     RDKit          3D

 20 21  0  0  0  0  0  0  0  0999 V2000
  126.7844  117.4499   30.3801 C   0  0  0  0  0  0  0  0  0  0  0  0
  125.9419  118.0883   31.1224 O   0  0  0  0  0  0  0  0  0  0  0  0
  128.4525  119.0898   31.0885 C   0  0  0  0  0  0  0  0  0  0  0  0
  125.2737  114.2273   28.1456 C   0  0  0  0  0  0  0  0  0  0  0  0
  126.9583  112.6885   28.6196 C   0  0  0  0  0  0  0  0  0  0  0  0
  125.0714  116.4446   28.8886 C   0  0  0  0  0  0  0  0  0  0  0  0
  125.7031  111.9441   28.2658 C   0  0  0  0  0  0  0  0  0  0  0  0
  124.9445  112.9566   27.4336 C   0  0  0  0  0  0  0  0  0  0  0  0
  128.9176  120.0816   30.0755 C   0  0  0  0  0  0  0  0  0  0  0  0
  129.4323  121.3448   30.7300 C   0  0  0  0  0  0  0  0  0  0  0  0
  129.9871  122.2019   29.6424 C   0  0  0  0  0  0  0  0  0  0  0  0
  131.8408  123.5324   28.7609 C   0  0  0  0  0  0  0  0  0  0  0  0
  126.2399  116.3479   29.5991 C   0  0  0  0  0  0  0  0  0  0  0  0
  126.9178  115.1326   29.5552 C   0  0  0  0  0  0  0  0  0  0  0  0
  126.4571  114.0695   28.8417 C   0  0  0  0  0  0  0  0  0  0  0  0
  124.5957  115.3833   28.1661 N   0  0  0  0  0  0  0  0  0  0  0  0
  128.1266  117.8359   30.3654 N   0  0  0  0  0  0  0  0  0  0  0  0
  124.3770  117.5018   28.8596 O   0  0  0  0  0  0  0  0  0  0  0  0
  129.2139  122.8462   28.8583 O   0  0  0  0  0  0  0  0  0  0  0  0
  131.3459  122.3539   29.4147 O   0  0  0  0  0  0  0  0  0  0  0  0
  1  2  2  0
 13  1  1  0
  1 17  1  0
  9  3  1  1
  3 17  1  6
  8  4  1  1
  4 15  2  0
 16  4  1  0
  7  5  1  1
  5 15  1  6
  6 13  1  0
  6 16  1  0
  6 18  2  0
  7  8  1  0
  9 10  1  0
 10 11  1  6
 11 19  2  0
 11 20  1  0
 12 20  1  6
 13 14  2  0
 14 15  1  0
M  END
$$$$
