
     RDKit          3D

 20 21  0  0  0  0  0  0  0  0999 V2000
  137.7044  116.3294   32.5713 C   0  0  0  0  0  0  0  0  0  0  0  0
  138.0413  115.6597   31.5194 O   0  0  0  0  0  0  0  0  0  0  0  0
  139.5508  115.2123   33.7188 C   0  0  0  0  0  0  0  0  0  0  0  0
  134.1906  118.6141   32.2646 C   0  0  0  0  0  0  0  0  0  0  0  0
  132.7461  117.1284   33.3305 C   0  0  0  0  0  0  0  0  0  0  0  0
  136.4883  118.3718   31.8506 C   0  0  0  0  0  0  0  0  0  0  0  0
  132.1922  118.5188   33.4516 C   0  0  0  0  0  0  0  0  0  0  0  0
  132.8302  119.2298   32.2765 C   0  0  0  0  0  0  0  0  0  0  0  0
  140.8599  115.9233   33.6362 C   0  0  0  0  0  0  0  0  0  0  0  0
  141.0356  116.8988   34.7792 C   0  0  0  0  0  0  0  0  0  0  0  0
  142.4672  117.3183   34.7752 C   0  0  0  0  0  0  0  0  0  0  0  0
  144.4810  117.7905   36.0811 C   0  0  0  0  0  0  0  0  0  0  0  0
  136.5006  117.1404   32.4533 C   0  0  0  0  0  0  0  0  0  0  0  0
  135.2963  116.6659   32.9660 C   0  0  0  0  0  0  0  0  0  0  0  0
  134.1406  117.3794   32.8833 C   0  0  0  0  0  0  0  0  0  0  0  0
  135.3330  119.1009   31.7602 N   0  0  0  0  0  0  0  0  0  0  0  0
  138.4846  116.2440   33.7266 N   0  0  0  0  0  0  0  0  0  0  0  0
  137.5258  118.8966   31.3517 O   0  0  0  0  0  0  0  0  0  0  0  0
  143.2093  117.1031   33.7600 O   0  0  0  0  0  0  0  0  0  0  0  0
  143.0742  117.9549   35.8465 O   0  0  0  0  0  0  0  0  0  0  0  0
  1  2  2  0
 13  1  1  0
  1 17  1  0
  9  3  1  1
  3 17  1  6
  8  4  1  1
  4 15  2  0
 16  4  1  0
  7  5  1  1
  5 15  1  6
  6 13  1  0
  6 16  1  0
  6 18  2  0
  7  8  1  0
  9 10  1  0
 10 11  1  6
 11 19  2  0
 11 20  1  0
 12 20  1  6
 13 14  2  0
 14 15  1  0
M  END
$$$$
