
     RDKit          3D

 20 21  0  0  0  0  0  0  0  0999 V2000
  136.9527  116.9488   32.4261 C   0  0  0  0  0  0  0  0  0  0  0  0
  136.5812  117.5977   31.3821 O   0  0  0  0  0  0  0  0  0  0  0  0
  139.2860  117.0413   31.4702 C   0  0  0  0  0  0  0  0  0  0  0  0
  133.9142  116.2173   35.3378 C   0  0  0  0  0  0  0  0  0  0  0  0
  132.2102  117.3119   34.1492 C   0  0  0  0  0  0  0  0  0  0  0  0
  136.1326  116.0147   34.6004 C   0  0  0  0  0  0  0  0  0  0  0  0
  131.9024  117.3679   35.6522 C   0  0  0  0  0  0  0  0  0  0  0  0
  132.6472  116.1374   36.1129 C   0  0  0  0  0  0  0  0  0  0  0  0
  140.4288  117.7820   32.1071 C   0  0  0  0  0  0  0  0  0  0  0  0
  141.7055  116.9840   32.1555 C   0  0  0  0  0  0  0  0  0  0  0  0
  142.8344  117.8007   32.6112 C   0  0  0  0  0  0  0  0  0  0  0  0
  145.1357  118.0436   33.3865 C   0  0  0  0  0  0  0  0  0  0  0  0
  135.9425  116.6897   33.4251 C   0  0  0  0  0  0  0  0  0  0  0  0
  134.6289  117.1446   33.2314 C   0  0  0  0  0  0  0  0  0  0  0  0
  133.6560  116.9039   34.1756 C   0  0  0  0  0  0  0  0  0  0  0  0
  135.1637  115.7850   35.5216 N   0  0  0  0  0  0  0  0  0  0  0  0
  138.3062  116.5837   32.4379 N   0  0  0  0  0  0  0  0  0  0  0  0
  137.2701  115.5652   34.8731 O   0  0  0  0  0  0  0  0  0  0  0  0
  142.7548  119.0431   32.6258 O   0  0  0  0  0  0  0  0  0  0  0  0
  144.0228  117.2356   33.0397 O   0  0  0  0  0  0  0  0  0  0  0  0
  1  2  2  0
 13  1  1  0
  1 17  1  0
  3  9  1  0
 17  3  1  0
  4  8  1  0
  4 15  2  0
 16  4  1  0
  5  7  1  0
 15  5  1  0
  6 13  1  0
  6 16  1  0
  6 18  2  0
  7  8  1  0
  9 10  1  0
 10 11  1  0
 11 19  2  0
 11 20  1  0
 20 12  1  0
 13 14  2  0
 14 15  1  0
M  END
$$$$
