
     RDKit          3D

 20 21  0  0  0  0  0  0  0  0999 V2000
  127.4371  117.3328   29.9384 C   0  0  0  0  0  0  0  0  0  0  0  0
  127.0244  117.1570   28.7351 O   0  0  0  0  0  0  0  0  0  0  0  0
  129.7718  117.0192   29.0342 C   0  0  0  0  0  0  0  0  0  0  0  0
  124.4827  118.3153   32.8628 C   0  0  0  0  0  0  0  0  0  0  0  0
  123.9808  116.0892   33.4169 C   0  0  0  0  0  0  0  0  0  0  0  0
  126.0692  118.9626   31.2596 C   0  0  0  0  0  0  0  0  0  0  0  0
  122.7527  116.9714   33.6821 C   0  0  0  0  0  0  0  0  0  0  0  0
  123.4355  118.2975   33.9190 C   0  0  0  0  0  0  0  0  0  0  0  0
  130.1421  118.3432   28.4259 C   0  0  0  0  0  0  0  0  0  0  0  0
  131.5210  118.8127   28.8099 C   0  0  0  0  0  0  0  0  0  0  0  0
  132.5477  118.2451   27.9310 C   0  0  0  0  0  0  0  0  0  0  0  0
  134.8742  117.9476   27.2565 C   0  0  0  0  0  0  0  0  0  0  0  0
  126.4418  117.6896   30.9222 C   0  0  0  0  0  0  0  0  0  0  0  0
  125.7611  116.6866   31.6297 C   0  0  0  0  0  0  0  0  0  0  0  0
  124.8103  117.0129   32.5708 C   0  0  0  0  0  0  0  0  0  0  0  0
  125.1302  119.2688   32.1895 N   0  0  0  0  0  0  0  0  0  0  0  0
  128.8152  117.1485   30.1178 N   0  0  0  0  0  0  0  0  0  0  0  0
  126.6153  119.9342   30.6870 O   0  0  0  0  0  0  0  0  0  0  0  0
  132.2403  117.4411   27.0314 O   0  0  0  0  0  0  0  0  0  0  0  0
  133.8861  118.5725   28.0595 O   0  0  0  0  0  0  0  0  0  0  0  0
  1  2  2  0
 13  1  1  0
  1 17  1  0
  3  9  1  0
 17  3  1  0
  4  8  1  0
  4 15  2  0
 16  4  1  0
  5  7  1  0
 15  5  1  0
  6 13  1  0
  6 16  1  0
  6 18  2  0
  7  8  1  0
  9 10  1  0
 10 11  1  0
 11 19  2  0
 11 20  1  0
 20 12  1  0
 13 14  2  0
 14 15  1  0
M  END
$$$$
