
     RDKit          3D

 20 21  0  0  0  0  0  0  0  0999 V2000
  137.9481  116.7710   32.5518 C   0  0  0  0  0  0  0  0  0  0  0  0
  138.3918  116.3731   31.4058 O   0  0  0  0  0  0  0  0  0  0  0  0
  140.2208  116.4406   33.3882 C   0  0  0  0  0  0  0  0  0  0  0  0
  133.8646  117.7425   32.7558 C   0  0  0  0  0  0  0  0  0  0  0  0
  133.3122  116.4280   34.5990 C   0  0  0  0  0  0  0  0  0  0  0  0
  135.9536  117.9922   31.7150 C   0  0  0  0  0  0  0  0  0  0  0  0
  132.3309  117.5598   34.4954 C   0  0  0  0  0  0  0  0  0  0  0  0
  132.4082  117.9280   33.0285 C   0  0  0  0  0  0  0  0  0  0  0  0
  140.9517  116.5199   34.6865 C   0  0  0  0  0  0  0  0  0  0  0  0
  142.3466  115.9448   34.5751 C   0  0  0  0  0  0  0  0  0  0  0  0
  143.2623  117.0831   34.2730 C   0  0  0  0  0  0  0  0  0  0  0  0
  145.3017  117.9333   33.2234 C   0  0  0  0  0  0  0  0  0  0  0  0
  136.5362  117.1242   32.6020 C   0  0  0  0  0  0  0  0  0  0  0  0
  135.7207  116.5682   33.5840 C   0  0  0  0  0  0  0  0  0  0  0  0
  134.3951  116.8607   33.6782 C   0  0  0  0  0  0  0  0  0  0  0  0
  134.6211  118.2958   31.7977 N   0  0  0  0  0  0  0  0  0  0  0  0
  138.8149  116.8394   33.6448 N   0  0  0  0  0  0  0  0  0  0  0  0
  136.6022  118.5531   30.7847 O   0  0  0  0  0  0  0  0  0  0  0  0
  143.2712  118.1278   35.0052 O   0  0  0  0  0  0  0  0  0  0  0  0
  144.1443  117.0840   33.2037 O   0  0  0  0  0  0  0  0  0  0  0  0
  1  2  2  0
 13  1  1  0
  1 17  1  0
  9  3  1  1
  3 17  1  6
  8  4  1  1
  4 15  2  0
 16  4  1  0
  7  5  1  1
  5 15  1  6
  6 13  1  0
  6 16  1  0
  6 18  2  0
  7  8  1  0
  9 10  1  0
 10 11  1  6
 11 19  2  0
 11 20  1  0
 12 20  1  6
 13 14  2  0
 14 15  1  0
M  END
$$$$
