
     RDKit          3D

 20 21  0  0  0  0  0  0  0  0999 V2000
  138.7056  116.6690   32.8767 C   0  0  0  0  0  0  0  0  0  0  0  0
  138.9937  115.8716   31.9022 O   0  0  0  0  0  0  0  0  0  0  0  0
  140.8939  116.0992   33.8042 C   0  0  0  0  0  0  0  0  0  0  0  0
  134.9140  118.4735   32.7078 C   0  0  0  0  0  0  0  0  0  0  0  0
  133.6856  116.7310   33.6485 C   0  0  0  0  0  0  0  0  0  0  0  0
  137.2228  118.5759   32.2976 C   0  0  0  0  0  0  0  0  0  0  0  0
  132.9484  118.0208   33.8667 C   0  0  0  0  0  0  0  0  0  0  0  0
  133.4827  118.8968   32.7529 C   0  0  0  0  0  0  0  0  0  0  0  0
  141.7592  116.5109   34.9477 C   0  0  0  0  0  0  0  0  0  0  0  0
  143.0677  115.7514   34.9562 C   0  0  0  0  0  0  0  0  0  0  0  0
  143.8199  116.1967   36.1651 C   0  0  0  0  0  0  0  0  0  0  0  0
  145.3233  115.8429   38.0620 C   0  0  0  0  0  0  0  0  0  0  0  0
  137.4028  117.3162   32.8080 C   0  0  0  0  0  0  0  0  0  0  0  0
  136.2746  116.6463   33.2736 C   0  0  0  0  0  0  0  0  0  0  0  0
  135.0326  117.2009   33.2334 C   0  0  0  0  0  0  0  0  0  0  0  0
  135.9792  119.1466   32.2508 N   0  0  0  0  0  0  0  0  0  0  0  0
  139.6259  116.8625   33.9092 N   0  0  0  0  0  0  0  0  0  0  0  0
  138.1790  119.2718   31.8480 O   0  0  0  0  0  0  0  0  0  0  0  0
  143.6780  117.3780   36.6257 O   0  0  0  0  0  0  0  0  0  0  0  0
  144.7018  115.3787   36.8539 O   0  0  0  0  0  0  0  0  0  0  0  0
  1  2  2  0
 13  1  1  0
  1 17  1  0
  9  3  1  1
  3 17  1  6
  8  4  1  1
  4 15  2  0
 16  4  1  0
  7  5  1  1
  5 15  1  6
  6 13  1  0
  6 16  1  0
  6 18  2  0
  7  8  1  0
  9 10  1  0
 10 11  1  6
 11 19  2  0
 11 20  1  0
 12 20  1  6
 13 14  2  0
 14 15  1  0
M  END
$$$$
