
     RDKit          3D

 20 21  0  0  0  0  0  0  0  0999 V2000
  134.9531  116.9949   31.5173 C   0  0  0  0  0  0  0  0  0  0  0  0
  135.2885  117.1228   30.2843 O   0  0  0  0  0  0  0  0  0  0  0  0
  137.3983  116.7317   32.0815 C   0  0  0  0  0  0  0  0  0  0  0  0
  130.8900  117.9319   32.4441 C   0  0  0  0  0  0  0  0  0  0  0  0
  130.2794  118.4465   30.2358 C   0  0  0  0  0  0  0  0  0  0  0  0
  133.0368  117.2566   33.1086 C   0  0  0  0  0  0  0  0  0  0  0  0
  129.3842  119.2266   31.2088 C   0  0  0  0  0  0  0  0  0  0  0  0
  129.4526  118.3130   32.4094 C   0  0  0  0  0  0  0  0  0  0  0  0
  138.2769  116.1472   33.1524 C   0  0  0  0  0  0  0  0  0  0  0  0
  139.6857  115.8806   32.6904 C   0  0  0  0  0  0  0  0  0  0  0  0
  140.0246  114.4577   32.7882 C   0  0  0  0  0  0  0  0  0  0  0  0
  141.6556  112.6430   32.8373 C   0  0  0  0  0  0  0  0  0  0  0  0
  133.5842  117.3072   31.8552 C   0  0  0  0  0  0  0  0  0  0  0  0
  132.6852  117.7036   30.8527 C   0  0  0  0  0  0  0  0  0  0  0  0
  131.3772  118.0034   31.1610 C   0  0  0  0  0  0  0  0  0  0  0  0
  131.7454  117.5551   33.3971 N   0  0  0  0  0  0  0  0  0  0  0  0
  135.9846  116.5640   32.3632 N   0  0  0  0  0  0  0  0  0  0  0  0
  133.7532  116.9142   34.0779 O   0  0  0  0  0  0  0  0  0  0  0  0
  139.1524  113.6147   33.0690 O   0  0  0  0  0  0  0  0  0  0  0  0
  141.3109  113.9937   32.5759 O   0  0  0  0  0  0  0  0  0  0  0  0
  1  2  2  0
 13  1  1  0
  1 17  1  0
  3  9  1  0
 17  3  1  0
  4  8  1  0
  4 15  2  0
 16  4  1  0
  5  7  1  0
 15  5  1  0
  6 13  1  0
  6 16  1  0
  6 18  2  0
  7  8  1  0
  9 10  1  0
 10 11  1  0
 11 19  2  0
 11 20  1  0
 20 12  1  0
 13 14  2  0
 14 15  1  0
M  END
$$$$
