
     RDKit          3D

 20 21  0  0  0  0  0  0  0  0999 V2000
  136.8674  115.2631   33.3984 C   0  0  0  0  0  0  0  0  0  0  0  0
  137.7423  114.6091   32.7089 O   0  0  0  0  0  0  0  0  0  0  0  0
  137.3903  117.1902   31.9890 C   0  0  0  0  0  0  0  0  0  0  0  0
  134.7829  112.9803   36.2451 C   0  0  0  0  0  0  0  0  0  0  0  0
  135.4038  110.8680   35.4817 C   0  0  0  0  0  0  0  0  0  0  0  0
  135.3839  115.0787   35.3820 C   0  0  0  0  0  0  0  0  0  0  0  0
  135.0546  110.7767   36.9393 C   0  0  0  0  0  0  0  0  0  0  0  0
  134.1384  111.9668   37.1325 C   0  0  0  0  0  0  0  0  0  0  0  0
  137.0289  118.6350   31.8986 C   0  0  0  0  0  0  0  0  0  0  0  0
  137.9092  119.3674   30.9099 C   0  0  0  0  0  0  0  0  0  0  0  0
  137.1929  119.3582   29.6014 C   0  0  0  0  0  0  0  0  0  0  0  0
  136.4250  120.4219   27.5367 C   0  0  0  0  0  0  0  0  0  0  0  0
  136.1369  114.4944   34.3965 C   0  0  0  0  0  0  0  0  0  0  0  0
  136.1886  113.1034   34.3693 C   0  0  0  0  0  0  0  0  0  0  0  0
  135.5257  112.3343   35.2752 C   0  0  0  0  0  0  0  0  0  0  0  0
  134.7115  114.3176   36.3003 N   0  0  0  0  0  0  0  0  0  0  0  0
  136.6743  116.6255   33.1593 N   0  0  0  0  0  0  0  0  0  0  0  0
  135.2685  116.3333   35.4979 O   0  0  0  0  0  0  0  0  0  0  0  0
  136.4204  118.3935   29.2851 O   0  0  0  0  0  0  0  0  0  0  0  0
  137.3137  120.3715   28.6633 O   0  0  0  0  0  0  0  0  0  0  0  0
  1  2  2  0
 13  1  1  0
  1 17  1  0
  9  3  1  1
  3 17  1  6
  8  4  1  1
  4 15  2  0
 16  4  1  0
  7  5  1  1
  5 15  1  6
  6 13  1  0
  6 16  1  0
  6 18  2  0
  7  8  1  0
  9 10  1  0
 10 11  1  6
 11 19  2  0
 11 20  1  0
 12 20  1  6
 13 14  2  0
 14 15  1  0
M  END
$$$$
