
     RDKit          3D

 20 21  0  0  0  0  0  0  0  0999 V2000
  137.6717  116.6713   32.9990 C   0  0  0  0  0  0  0  0  0  0  0  0
  137.7286  115.3885   32.9873 O   0  0  0  0  0  0  0  0  0  0  0  0
  139.9802  117.3803   33.7305 C   0  0  0  0  0  0  0  0  0  0  0  0
  133.8109  118.3619   33.6931 C   0  0  0  0  0  0  0  0  0  0  0  0
  132.6213  116.5869   32.7190 C   0  0  0  0  0  0  0  0  0  0  0  0
  136.1496  118.4674   33.8533 C   0  0  0  0  0  0  0  0  0  0  0  0
  131.8005  117.8788   32.6000 C   0  0  0  0  0  0  0  0  0  0  0  0
  132.3529  118.6436   33.7794 C   0  0  0  0  0  0  0  0  0  0  0  0
  141.0393  116.3421   33.4842 C   0  0  0  0  0  0  0  0  0  0  0  0
  142.4393  116.8978   33.5137 C   0  0  0  0  0  0  0  0  0  0  0  0
  143.3816  115.9522   34.1195 C   0  0  0  0  0  0  0  0  0  0  0  0
  145.6941  115.2175   34.3813 C   0  0  0  0  0  0  0  0  0  0  0  0
  136.3774  117.2632   33.2441 C   0  0  0  0  0  0  0  0  0  0  0  0
  135.2105  116.5925   32.8458 C   0  0  0  0  0  0  0  0  0  0  0  0
  133.9702  117.1453   33.0740 C   0  0  0  0  0  0  0  0  0  0  0  0
  134.9209  118.9994   34.0714 N   0  0  0  0  0  0  0  0  0  0  0  0
  138.8961  117.3139   32.7681 N   0  0  0  0  0  0  0  0  0  0  0  0
  137.1236  119.1495   34.2484 O   0  0  0  0  0  0  0  0  0  0  0  0
  142.9936  114.8414   34.5266 O   0  0  0  0  0  0  0  0  0  0  0  0
  144.7258  116.2473   34.2642 O   0  0  0  0  0  0  0  0  0  0  0  0
  1  2  2  0
 13  1  1  0
  1 17  1  0
  3  9  1  0
 17  3  1  0
  4  8  1  0
  4 15  2  0
 16  4  1  0
  5  7  1  0
 15  5  1  0
  6 13  1  0
  6 16  1  0
  6 18  2  0
  7  8  1  0
  9 10  1  0
 10 11  1  0
 11 19  2  0
 11 20  1  0
 20 12  1  0
 13 14  2  0
 14 15  1  0
M  END
$$$$
