
     RDKit          3D

 20 21  0  0  0  0  0  0  0  0999 V2000
  138.6100  117.4885   32.8590 C   0  0  0  0  0  0  0  0  0  0  0  0
  139.4435  118.4397   32.5959 O   0  0  0  0  0  0  0  0  0  0  0  0
  140.4289  116.3118   33.9908 C   0  0  0  0  0  0  0  0  0  0  0  0
  134.5483  118.2395   32.0855 C   0  0  0  0  0  0  0  0  0  0  0  0
  133.7206  116.1313   32.6338 C   0  0  0  0  0  0  0  0  0  0  0  0
  136.7695  118.9959   32.1449 C   0  0  0  0  0  0  0  0  0  0  0  0
  132.6242  117.1440   32.7993 C   0  0  0  0  0  0  0  0  0  0  0  0
  133.0693  118.2626   31.8807 C   0  0  0  0  0  0  0  0  0  0  0  0
  140.6048  115.0396   34.7501 C   0  0  0  0  0  0  0  0  0  0  0  0
  141.9382  114.9981   35.4638 C   0  0  0  0  0  0  0  0  0  0  0  0
  142.8344  114.1190   34.6580 C   0  0  0  0  0  0  0  0  0  0  0  0
  144.3892  112.2306   34.6736 C   0  0  0  0  0  0  0  0  0  0  0  0
  137.2086  117.7738   32.5848 C   0  0  0  0  0  0  0  0  0  0  0  0
  136.2532  116.7779   32.7687 C   0  0  0  0  0  0  0  0  0  0  0  0
  134.9305  116.9872   32.5274 C   0  0  0  0  0  0  0  0  0  0  0  0
  135.4417  119.2209   31.8980 N   0  0  0  0  0  0  0  0  0  0  0  0
  139.0797  116.2784   33.3745 N   0  0  0  0  0  0  0  0  0  0  0  0
  137.5523  119.9695   31.9449 O   0  0  0  0  0  0  0  0  0  0  0  0
  143.3942  114.5522   33.5966 O   0  0  0  0  0  0  0  0  0  0  0  0
  143.1140  112.8046   34.9984 O   0  0  0  0  0  0  0  0  0  0  0  0
  1  2  2  0
 13  1  1  0
  1 17  1  0
  9  3  1  1
  3 17  1  6
  8  4  1  1
  4 15  2  0
 16  4  1  0
  7  5  1  1
  5 15  1  6
  6 13  1  0
  6 16  1  0
  6 18  2  0
  7  8  1  0
  9 10  1  0
 10 11  1  6
 11 19  2  0
 11 20  1  0
 12 20  1  6
 13 14  2  0
 14 15  1  0
M  END
$$$$
