
     RDKit          3D

 20 21  0  0  0  0  0  0  0  0999 V2000
  136.3672  116.6975   32.8775 C   0  0  0  0  0  0  0  0  0  0  0  0
  135.9030  115.4957   32.9714 O   0  0  0  0  0  0  0  0  0  0  0  0
  138.5303  115.7617   33.5248 C   0  0  0  0  0  0  0  0  0  0  0  0
  133.5547  119.6004   31.7274 C   0  0  0  0  0  0  0  0  0  0  0  0
  131.7859  118.1621   31.2445 C   0  0  0  0  0  0  0  0  0  0  0  0
  135.7095  119.0604   32.4852 C   0  0  0  0  0  0  0  0  0  0  0  0
  131.2340  119.5156   31.5885 C   0  0  0  0  0  0  0  0  0  0  0  0
  132.3986  120.4331   31.2798 C   0  0  0  0  0  0  0  0  0  0  0  0
  139.9220  116.2397   33.7718 C   0  0  0  0  0  0  0  0  0  0  0  0
  140.7762  115.1618   34.4022 C   0  0  0  0  0  0  0  0  0  0  0  0
  141.1308  114.2001   33.3184 C   0  0  0  0  0  0  0  0  0  0  0  0
  142.6726  113.4057   31.5934 C   0  0  0  0  0  0  0  0  0  0  0  0
  135.4103  117.7224   32.4844 C   0  0  0  0  0  0  0  0  0  0  0  0
  134.1289  117.3526   32.0848 C   0  0  0  0  0  0  0  0  0  0  0  0
  133.1944  118.2664   31.7059 C   0  0  0  0  0  0  0  0  0  0  0  0
  134.7794  119.9910   32.1066 N   0  0  0  0  0  0  0  0  0  0  0  0
  137.7151  116.9429   33.1484 N   0  0  0  0  0  0  0  0  0  0  0  0
  136.8428  119.5049   32.8299 O   0  0  0  0  0  0  0  0  0  0  0  0
  140.5701  113.0562   33.2494 O   0  0  0  0  0  0  0  0  0  0  0  0
  142.0695  114.4760   32.3364 O   0  0  0  0  0  0  0  0  0  0  0  0
  1  2  2  0
 13  1  1  0
  1 17  1  0
  9  3  1  1
  3 17  1  6
  8  4  1  1
  4 15  2  0
 16  4  1  0
  7  5  1  1
  5 15  1  6
  6 13  1  0
  6 16  1  0
  6 18  2  0
  7  8  1  0
  9 10  1  0
 10 11  1  6
 11 19  2  0
 11 20  1  0
 12 20  1  6
 13 14  2  0
 14 15  1  0
M  END
$$$$
