
     RDKit          3D

 20 21  0  0  0  0  0  0  0  0999 V2000
  136.9254  115.6162   33.3493 C   0  0  0  0  0  0  0  0  0  0  0  0
  136.3760  116.3779   32.4624 O   0  0  0  0  0  0  0  0  0  0  0  0
  138.9648  116.9169   32.9991 C   0  0  0  0  0  0  0  0  0  0  0  0
  134.5130  112.6187   35.0391 C   0  0  0  0  0  0  0  0  0  0  0  0
  135.5055  112.5561   37.1466 C   0  0  0  0  0  0  0  0  0  0  0  0
  135.0660  113.9755   33.2054 C   0  0  0  0  0  0  0  0  0  0  0  0
  134.0930  112.0589   37.2577 C   0  0  0  0  0  0  0  0  0  0  0  0
  133.7994  111.5868   35.8490 C   0  0  0  0  0  0  0  0  0  0  0  0
  140.2655  117.1362   33.6963 C   0  0  0  0  0  0  0  0  0  0  0  0
  141.3580  117.5263   32.7250 C   0  0  0  0  0  0  0  0  0  0  0  0
  142.5967  117.7398   33.5283 C   0  0  0  0  0  0  0  0  0  0  0  0
  145.0031  118.1123   33.7615 C   0  0  0  0  0  0  0  0  0  0  0  0
  136.0755  114.5763   33.9123 C   0  0  0  0  0  0  0  0  0  0  0  0
  136.2778  114.1554   35.2239 C   0  0  0  0  0  0  0  0  0  0  0  0
  135.5155  113.1874   35.8016 C   0  0  0  0  0  0  0  0  0  0  0  0
  134.2911  113.0003   33.7736 N   0  0  0  0  0  0  0  0  0  0  0  0
  138.2589  115.8223   33.7095 N   0  0  0  0  0  0  0  0  0  0  0  0
  134.7969  114.2821   32.0078 O   0  0  0  0  0  0  0  0  0  0  0  0
  142.5319  117.9800   34.7796 O   0  0  0  0  0  0  0  0  0  0  0  0
  143.8710  117.6927   32.9847 O   0  0  0  0  0  0  0  0  0  0  0  0
  1  2  2  0
 13  1  1  0
  1 17  1  0
  9  3  1  1
  3 17  1  6
  8  4  1  1
  4 15  2  0
 16  4  1  0
  7  5  1  1
  5 15  1  6
  6 13  1  0
  6 16  1  0
  6 18  2  0
  7  8  1  0
  9 10  1  0
 10 11  1  6
 11 19  2  0
 11 20  1  0
 12 20  1  6
 13 14  2  0
 14 15  1  0
M  END
$$$$
