
     RDKit          3D

 20 21  0  0  0  0  0  0  0  0999 V2000
  138.7032  116.6392   33.2815 C   0  0  0  0  0  0  0  0  0  0  0  0
  139.2188  116.0890   32.2327 O   0  0  0  0  0  0  0  0  0  0  0  0
  140.7144  115.9282   34.4745 C   0  0  0  0  0  0  0  0  0  0  0  0
  134.9857  118.5079   32.6912 C   0  0  0  0  0  0  0  0  0  0  0  0
  133.8551  116.6918   31.7673 C   0  0  0  0  0  0  0  0  0  0  0  0
  137.2111  118.6195   33.4294 C   0  0  0  0  0  0  0  0  0  0  0  0
  132.8556  117.6222   32.3919 C   0  0  0  0  0  0  0  0  0  0  0  0
  133.5911  118.9459   32.3862 C   0  0  0  0  0  0  0  0  0  0  0  0
  141.2706  115.9936   35.8574 C   0  0  0  0  0  0  0  0  0  0  0  0
  142.6018  115.2814   35.9554 C   0  0  0  0  0  0  0  0  0  0  0  0
  143.6341  116.2159   35.4201 C   0  0  0  0  0  0  0  0  0  0  0  0
  145.9439  116.8336   34.9031 C   0  0  0  0  0  0  0  0  0  0  0  0
  137.4247  117.3090   33.0879 C   0  0  0  0  0  0  0  0  0  0  0  0
  136.3569  116.6094   32.5321 C   0  0  0  0  0  0  0  0  0  0  0  0
  135.1406  117.1839   32.3269 C   0  0  0  0  0  0  0  0  0  0  0  0
  135.9926  119.2107   33.2288 N   0  0  0  0  0  0  0  0  0  0  0  0
  139.3751  116.5659   34.5037 N   0  0  0  0  0  0  0  0  0  0  0  0
  138.1120  119.3459   33.9407 O   0  0  0  0  0  0  0  0  0  0  0  0
  143.3446  117.4306   35.1587 O   0  0  0  0  0  0  0  0  0  0  0  0
  144.9456  115.8387   35.1764 O   0  0  0  0  0  0  0  0  0  0  0  0
  1  2  2  0
 13  1  1  0
  1 17  1  0
  9  3  1  1
  3 17  1  6
  8  4  1  1
  4 15  2  0
 16  4  1  0
  7  5  1  1
  5 15  1  6
  6 13  1  0
  6 16  1  0
  6 18  2  0
  7  8  1  0
  9 10  1  0
 10 11  1  6
 11 19  2  0
 11 20  1  0
 12 20  1  6
 13 14  2  0
 14 15  1  0
M  END
$$$$
