
     RDKit          3D

 20 21  0  0  0  0  0  0  0  0999 V2000
  138.2935  116.1651   33.0851 C   0  0  0  0  0  0  0  0  0  0  0  0
  138.5031  115.3538   32.1020 O   0  0  0  0  0  0  0  0  0  0  0  0
  140.6617  115.9998   33.6664 C   0  0  0  0  0  0  0  0  0  0  0  0
  134.5625  118.0986   33.0417 C   0  0  0  0  0  0  0  0  0  0  0  0
  133.2809  116.3089   32.2770 C   0  0  0  0  0  0  0  0  0  0  0  0
  136.8718  118.1678   33.4561 C   0  0  0  0  0  0  0  0  0  0  0  0
  132.3965  117.2499   33.0433 C   0  0  0  0  0  0  0  0  0  0  0  0
  133.1463  118.5616   32.9411 C   0  0  0  0  0  0  0  0  0  0  0  0
  141.5656  116.9796   34.3365 C   0  0  0  0  0  0  0  0  0  0  0  0
  142.5243  116.2932   35.2845 C   0  0  0  0  0  0  0  0  0  0  0  0
  143.8578  116.2765   34.6160 C   0  0  0  0  0  0  0  0  0  0  0  0
  146.2462  115.7606   34.5009 C   0  0  0  0  0  0  0  0  0  0  0  0
  137.0121  116.8570   33.0796 C   0  0  0  0  0  0  0  0  0  0  0  0
  135.8642  116.1796   32.6772 C   0  0  0  0  0  0  0  0  0  0  0  0
  134.6411  116.7754   32.6509 C   0  0  0  0  0  0  0  0  0  0  0  0
  135.6475  118.7803   33.4347 N   0  0  0  0  0  0  0  0  0  0  0  0
  139.2721  116.3308   34.0676 N   0  0  0  0  0  0  0  0  0  0  0  0
  137.8486  118.8752   33.8384 O   0  0  0  0  0  0  0  0  0  0  0  0
  144.0103  116.7658   33.4477 O   0  0  0  0  0  0  0  0  0  0  0  0
  144.9942  115.7423   35.2032 O   0  0  0  0  0  0  0  0  0  0  0  0
  1  2  2  0
 13  1  1  0
  1 17  1  0
  9  3  1  1
  3 17  1  6
  8  4  1  1
  4 15  2  0
 16  4  1  0
  7  5  1  1
  5 15  1  6
  6 13  1  0
  6 16  1  0
  6 18  2  0
  7  8  1  0
  9 10  1  0
 10 11  1  6
 11 19  2  0
 11 20  1  0
 12 20  1  6
 13 14  2  0
 14 15  1  0
M  END
$$$$
