
     RDKit          3D

 20 21  0  0  0  0  0  0  0  0999 V2000
  137.3242  116.1224   33.4435 C   0  0  0  0  0  0  0  0  0  0  0  0
  137.2461  114.8438   33.3534 O   0  0  0  0  0  0  0  0  0  0  0  0
  139.7289  115.8650   32.7241 C   0  0  0  0  0  0  0  0  0  0  0  0
  133.7488  118.1268   34.6458 C   0  0  0  0  0  0  0  0  0  0  0  0
  132.7626  116.2354   35.6279 C   0  0  0  0  0  0  0  0  0  0  0  0
  135.8563  118.1446   33.6141 C   0  0  0  0  0  0  0  0  0  0  0  0
  131.6637  117.1934   35.1467 C   0  0  0  0  0  0  0  0  0  0  0  0
  132.4200  118.4995   35.2005 C   0  0  0  0  0  0  0  0  0  0  0  0
  139.6613  115.4598   31.2779 C   0  0  0  0  0  0  0  0  0  0  0  0
  140.4082  116.3923   30.3604 C   0  0  0  0  0  0  0  0  0  0  0  0
  141.6604  115.7944   29.8875 C   0  0  0  0  0  0  0  0  0  0  0  0
  143.3315  115.3901   28.1555 C   0  0  0  0  0  0  0  0  0  0  0  0
  136.1241  116.8215   33.8394 C   0  0  0  0  0  0  0  0  0  0  0  0
  135.1042  116.1382   34.5199 C   0  0  0  0  0  0  0  0  0  0  0  0
  133.9552  116.7927   34.9037 C   0  0  0  0  0  0  0  0  0  0  0  0
  134.7190  118.7761   33.9984 N   0  0  0  0  0  0  0  0  0  0  0  0
  138.5846  116.6552   33.1387 N   0  0  0  0  0  0  0  0  0  0  0  0
  136.7013  118.8482   33.0131 O   0  0  0  0  0  0  0  0  0  0  0  0
  142.3361  115.0617   30.6337 O   0  0  0  0  0  0  0  0  0  0  0  0
  142.1412  116.0143   28.6087 O   0  0  0  0  0  0  0  0  0  0  0  0
  1  2  2  0
 13  1  1  0
  1 17  1  0
  3  9  1  0
 17  3  1  0
  4  8  1  0
  4 15  2  0
 16  4  1  0
  5  7  1  0
 15  5  1  0
  6 13  1  0
  6 16  1  0
  6 18  2  0
  7  8  1  0
  9 10  1  0
 10 11  1  0
 11 19  2  0
 11 20  1  0
 20 12  1  0
 13 14  2  0
 14 15  1  0
M  END
$$$$
