
     RDKit          3D

 20 21  0  0  0  0  0  0  0  0999 V2000
  135.1990  116.3213   32.5938 C   0  0  0  0  0  0  0  0  0  0  0  0
  134.8828  115.1252   32.9377 O   0  0  0  0  0  0  0  0  0  0  0  0
  137.6153  115.6478   32.8666 C   0  0  0  0  0  0  0  0  0  0  0  0
  131.9577  119.0870   32.2924 C   0  0  0  0  0  0  0  0  0  0  0  0
  130.3654  117.6576   33.2598 C   0  0  0  0  0  0  0  0  0  0  0  0
  134.2118  118.5316   31.9510 C   0  0  0  0  0  0  0  0  0  0  0  0
  129.6628  118.6361   32.3081 C   0  0  0  0  0  0  0  0  0  0  0  0
  130.6444  119.7832   32.3487 C   0  0  0  0  0  0  0  0  0  0  0  0
  138.3852  114.9868   31.7573 C   0  0  0  0  0  0  0  0  0  0  0  0
  138.6897  113.5356   32.0233 C   0  0  0  0  0  0  0  0  0  0  0  0
  139.7239  113.0272   31.1171 C   0  0  0  0  0  0  0  0  0  0  0  0
  141.2917  111.3003   30.3992 C   0  0  0  0  0  0  0  0  0  0  0  0
  134.1187  117.2730   32.4807 C   0  0  0  0  0  0  0  0  0  0  0  0
  132.8347  116.9370   32.9374 C   0  0  0  0  0  0  0  0  0  0  0  0
  131.7959  117.8353   32.8363 C   0  0  0  0  0  0  0  0  0  0  0  0
  133.1789  119.4060   31.8581 N   0  0  0  0  0  0  0  0  0  0  0  0
  136.5688  116.5256   32.3765 N   0  0  0  0  0  0  0  0  0  0  0  0
  135.3151  118.9331   31.5130 O   0  0  0  0  0  0  0  0  0  0  0  0
  140.1848  113.7468   30.2116 O   0  0  0  0  0  0  0  0  0  0  0  0
  140.2274  111.7428   31.2257 O   0  0  0  0  0  0  0  0  0  0  0  0
  1  2  2  0
 13  1  1  0
  1 17  1  0
  3  9  1  0
 17  3  1  0
  4  8  1  0
  4 15  2  0
 16  4  1  0
  5  7  1  0
 15  5  1  0
  6 13  1  0
  6 16  1  0
  6 18  2  0
  7  8  1  0
  9 10  1  0
 10 11  1  0
 11 19  2  0
 11 20  1  0
 20 12  1  0
 13 14  2  0
 14 15  1  0
M  END
$$$$
