
     RDKit          3D

 20 21  0  0  0  0  0  0  0  0999 V2000
  137.7005  116.6894   33.0978 C   0  0  0  0  0  0  0  0  0  0  0  0
  137.8050  115.7658   32.2118 O   0  0  0  0  0  0  0  0  0  0  0  0
  140.2167  116.5947   33.2605 C   0  0  0  0  0  0  0  0  0  0  0  0
  133.7225  117.9518   34.0077 C   0  0  0  0  0  0  0  0  0  0  0  0
  132.6719  116.1829   32.8757 C   0  0  0  0  0  0  0  0  0  0  0  0
  136.0459  118.2492   34.1477 C   0  0  0  0  0  0  0  0  0  0  0  0
  131.7388  117.4018   32.8976 C   0  0  0  0  0  0  0  0  0  0  0  0
  132.2477  118.0924   34.1405 C   0  0  0  0  0  0  0  0  0  0  0  0
  141.3529  117.2938   33.9537 C   0  0  0  0  0  0  0  0  0  0  0  0
  142.7024  116.7093   33.6276 C   0  0  0  0  0  0  0  0  0  0  0  0
  143.6780  117.7542   33.3030 C   0  0  0  0  0  0  0  0  0  0  0  0
  146.0478  118.2984   33.5126 C   0  0  0  0  0  0  0  0  0  0  0  0
  136.3650  117.1363   33.4177 C   0  0  0  0  0  0  0  0  0  0  0  0
  135.2529  116.4069   32.9691 C   0  0  0  0  0  0  0  0  0  0  0  0
  133.9742  116.8215   33.2676 C   0  0  0  0  0  0  0  0  0  0  0  0
  134.7805  118.6453   34.4339 N   0  0  0  0  0  0  0  0  0  0  0  0
  138.9199  117.1314   33.6296 N   0  0  0  0  0  0  0  0  0  0  0  0
  136.9649  118.9731   34.5967 O   0  0  0  0  0  0  0  0  0  0  0  0
  143.3357  118.9504   33.2555 O   0  0  0  0  0  0  0  0  0  0  0  0
  145.0046  117.4626   33.0383 O   0  0  0  0  0  0  0  0  0  0  0  0
  1  2  2  0
 13  1  1  0
  1 17  1  0
  3  9  1  0
 17  3  1  0
  4  8  1  0
  4 15  2  0
 16  4  1  0
  5  7  1  0
 15  5  1  0
  6 13  1  0
  6 16  1  0
  6 18  2  0
  7  8  1  0
  9 10  1  0
 10 11  1  0
 11 19  2  0
 11 20  1  0
 20 12  1  0
 13 14  2  0
 14 15  1  0
M  END
$$$$
