
     RDKit          3D

 20 21  0  0  0  0  0  0  0  0999 V2000
  137.0141  116.2174   32.6731 C   0  0  0  0  0  0  0  0  0  0  0  0
  137.1458  114.9623   32.9488 O   0  0  0  0  0  0  0  0  0  0  0  0
  139.4545  116.3063   32.5698 C   0  0  0  0  0  0  0  0  0  0  0  0
  133.0875  117.7086   32.5399 C   0  0  0  0  0  0  0  0  0  0  0  0
  133.3255  119.3865   34.1394 C   0  0  0  0  0  0  0  0  0  0  0  0
  134.6993  116.1845   31.7729 C   0  0  0  0  0  0  0  0  0  0  0  0
  132.1999  119.7504   33.2146 C   0  0  0  0  0  0  0  0  0  0  0  0
  131.7719  118.4027   32.6722 C   0  0  0  0  0  0  0  0  0  0  0  0
  140.5189  117.2963   32.2337 C   0  0  0  0  0  0  0  0  0  0  0  0
  141.8947  116.6680   32.2727 C   0  0  0  0  0  0  0  0  0  0  0  0
  142.4620  116.9493   33.6234 C   0  0  0  0  0  0  0  0  0  0  0  0
  143.6494  116.2628   35.6489 C   0  0  0  0  0  0  0  0  0  0  0  0
  135.6477  116.7166   32.6078 C   0  0  0  0  0  0  0  0  0  0  0  0
  135.2623  117.7797   33.4202 C   0  0  0  0  0  0  0  0  0  0  0  0
  133.9996  118.2864   33.4025 C   0  0  0  0  0  0  0  0  0  0  0  0
  133.4249  116.6841   31.7443 N   0  0  0  0  0  0  0  0  0  0  0  0
  138.1491  117.0027   32.4593 N   0  0  0  0  0  0  0  0  0  0  0  0
  134.9426  115.2176   30.9940 O   0  0  0  0  0  0  0  0  0  0  0  0
  142.1084  117.9852   34.2788 O   0  0  0  0  0  0  0  0  0  0  0  0
  143.3882  116.1255   34.2438 O   0  0  0  0  0  0  0  0  0  0  0  0
  1  2  2  0
 13  1  1  0
  1 17  1  0
  9  3  1  1
  3 17  1  6
  8  4  1  1
  4 15  2  0
 16  4  1  0
  7  5  1  1
  5 15  1  6
  6 13  1  0
  6 16  1  0
  6 18  2  0
  7  8  1  0
  9 10  1  0
 10 11  1  6
 11 19  2  0
 11 20  1  0
 12 20  1  6
 13 14  2  0
 14 15  1  0
M  END
$$$$
