
     RDKit          3D

 20 21  0  0  0  0  0  0  0  0999 V2000
  134.6036  116.1109   32.3029 C   0  0  0  0  0  0  0  0  0  0  0  0
  134.2467  115.2660   31.4042 O   0  0  0  0  0  0  0  0  0  0  0  0
  136.2720  114.3716   33.0496 C   0  0  0  0  0  0  0  0  0  0  0  0
  132.4005  119.7691   32.4012 C   0  0  0  0  0  0  0  0  0  0  0  0
  130.5016  118.9050   31.3232 C   0  0  0  0  0  0  0  0  0  0  0  0
  134.3356  118.5325   32.8832 C   0  0  0  0  0  0  0  0  0  0  0  0
  130.6012  120.4129   31.0529 C   0  0  0  0  0  0  0  0  0  0  0  0
  131.3781  120.8421   32.2748 C   0  0  0  0  0  0  0  0  0  0  0  0
  137.7436  114.4304   32.7476 C   0  0  0  0  0  0  0  0  0  0  0  0
  138.6001  114.5911   33.9765 C   0  0  0  0  0  0  0  0  0  0  0  0
  139.5601  113.4916   34.1117 C   0  0  0  0  0  0  0  0  0  0  0  0
  140.2832  111.3742   35.0862 C   0  0  0  0  0  0  0  0  0  0  0  0
  133.8785  117.3590   32.3474 C   0  0  0  0  0  0  0  0  0  0  0  0
  132.5843  117.4401   31.8101 C   0  0  0  0  0  0  0  0  0  0  0  0
  131.8817  118.6238   31.8465 C   0  0  0  0  0  0  0  0  0  0  0  0
  133.6313  119.6915   32.9119 N   0  0  0  0  0  0  0  0  0  0  0  0
  135.6614  115.6862   33.1190 N   0  0  0  0  0  0  0  0  0  0  0  0
  135.4809  118.5708   33.3902 O   0  0  0  0  0  0  0  0  0  0  0  0
  140.6095  113.4783   33.4418 O   0  0  0  0  0  0  0  0  0  0  0  0
  139.3465  112.4336   34.9778 O   0  0  0  0  0  0  0  0  0  0  0  0
  1  2  2  0
 13  1  1  0
  1 17  1  0
  3  9  1  0
 17  3  1  0
  4  8  1  0
  4 15  2  0
 16  4  1  0
  5  7  1  0
 15  5  1  0
  6 13  1  0
  6 16  1  0
  6 18  2  0
  7  8  1  0
  9 10  1  0
 10 11  1  0
 11 19  2  0
 11 20  1  0
 20 12  1  0
 13 14  2  0
 14 15  1  0
M  END
$$$$
