
     RDKit          3D

 20 21  0  0  0  0  0  0  0  0999 V2000
  136.9948  117.4315   32.7106 C   0  0  0  0  0  0  0  0  0  0  0  0
  136.5310  118.2886   31.8744 O   0  0  0  0  0  0  0  0  0  0  0  0
  139.2909  118.1203   31.9229 C   0  0  0  0  0  0  0  0  0  0  0  0
  134.1073  115.5315   35.2203 C   0  0  0  0  0  0  0  0  0  0  0  0
  132.3763  117.0435   34.7383 C   0  0  0  0  0  0  0  0  0  0  0  0
  136.2706  115.6538   34.3194 C   0  0  0  0  0  0  0  0  0  0  0  0
  132.1588  116.4456   36.1355 C   0  0  0  0  0  0  0  0  0  0  0  0
  132.8855  115.1322   35.9688 C   0  0  0  0  0  0  0  0  0  0  0  0
  140.6966  117.5885   31.8880 C   0  0  0  0  0  0  0  0  0  0  0  0
  141.6533  118.4768   31.1363 C   0  0  0  0  0  0  0  0  0  0  0  0
  141.9244  117.9604   29.7913 C   0  0  0  0  0  0  0  0  0  0  0  0
  143.0224  118.0957   27.6160 C   0  0  0  0  0  0  0  0  0  0  0  0
  136.0361  116.7721   33.5660 C   0  0  0  0  0  0  0  0  0  0  0  0
  134.7301  117.2744   33.6769 C   0  0  0  0  0  0  0  0  0  0  0  0
  133.8060  116.6550   34.4883 C   0  0  0  0  0  0  0  0  0  0  0  0
  135.3495  115.0544   35.1147 N   0  0  0  0  0  0  0  0  0  0  0  0
  138.3858  117.2627   32.6656 N   0  0  0  0  0  0  0  0  0  0  0  0
  137.4056  115.1234   34.2940 O   0  0  0  0  0  0  0  0  0  0  0  0
  141.3631  116.9270   29.3825 O   0  0  0  0  0  0  0  0  0  0  0  0
  142.8039  118.5893   28.9277 O   0  0  0  0  0  0  0  0  0  0  0  0
  1  2  2  0
 13  1  1  0
  1 17  1  0
  3  9  1  0
 17  3  1  0
  4  8  1  0
  4 15  2  0
 16  4  1  0
  5  7  1  0
 15  5  1  0
  6 13  1  0
  6 16  1  0
  6 18  2  0
  7  8  1  0
  9 10  1  0
 10 11  1  0
 11 19  2  0
 11 20  1  0
 20 12  1  0
 13 14  2  0
 14 15  1  0
M  END
$$$$
