
     RDKit          3D

 20 21  0  0  0  0  0  0  0  0999 V2000
  138.6061  117.5247   32.9903 C   0  0  0  0  0  0  0  0  0  0  0  0
  139.2948  118.3115   32.2319 O   0  0  0  0  0  0  0  0  0  0  0  0
  140.7361  116.5240   33.6503 C   0  0  0  0  0  0  0  0  0  0  0  0
  134.4409  118.0817   33.0262 C   0  0  0  0  0  0  0  0  0  0  0  0
  133.8302  115.9091   33.6069 C   0  0  0  0  0  0  0  0  0  0  0  0
  136.5960  118.9569   32.7114 C   0  0  0  0  0  0  0  0  0  0  0  0
  132.7388  116.8513   34.0264 C   0  0  0  0  0  0  0  0  0  0  0  0
  132.9504  118.0315   33.1014 C   0  0  0  0  0  0  0  0  0  0  0  0
  141.2275  115.4639   34.5780 C   0  0  0  0  0  0  0  0  0  0  0  0
  142.5544  114.8978   34.1222 C   0  0  0  0  0  0  0  0  0  0  0  0
  143.6153  115.8133   34.6339 C   0  0  0  0  0  0  0  0  0  0  0  0
  144.7056  117.0930   36.4108 C   0  0  0  0  0  0  0  0  0  0  0  0
  137.1664  117.7434   32.9969 C   0  0  0  0  0  0  0  0  0  0  0  0
  136.3101  116.6889   33.3024 C   0  0  0  0  0  0  0  0  0  0  0  0
  134.9573  116.8346   33.3226 C   0  0  0  0  0  0  0  0  0  0  0  0
  135.2365  119.1183   32.7279 N   0  0  0  0  0  0  0  0  0  0  0  0
  139.2551  116.5398   33.7382 N   0  0  0  0  0  0  0  0  0  0  0  0
  137.2810  119.9803   32.4210 O   0  0  0  0  0  0  0  0  0  0  0  0
  144.3656  116.4597   33.8296 O   0  0  0  0  0  0  0  0  0  0  0  0
  143.8527  116.0199   35.9839 O   0  0  0  0  0  0  0  0  0  0  0  0
  1  2  2  0
 13  1  1  0
  1 17  1  0
  9  3  1  1
  3 17  1  6
  8  4  1  1
  4 15  2  0
 16  4  1  0
  7  5  1  1
  5 15  1  6
  6 13  1  0
  6 16  1  0
  6 18  2  0
  7  8  1  0
  9 10  1  0
 10 11  1  6
 11 19  2  0
 11 20  1  0
 12 20  1  6
 13 14  2  0
 14 15  1  0
M  END
$$$$
