
     RDKit          3D

 20 21  0  0  0  0  0  0  0  0999 V2000
  137.0927  116.5288   33.3808 C   0  0  0  0  0  0  0  0  0  0  0  0
  136.9725  115.2715   33.6517 O   0  0  0  0  0  0  0  0  0  0  0  0
  139.4195  116.3249   34.1007 C   0  0  0  0  0  0  0  0  0  0  0  0
  133.6683  118.3326   31.7437 C   0  0  0  0  0  0  0  0  0  0  0  0
  132.0721  116.9591   32.7416 C   0  0  0  0  0  0  0  0  0  0  0  0
  136.0046  118.2451   31.9525 C   0  0  0  0  0  0  0  0  0  0  0  0
  131.4408  118.2811   32.4124 C   0  0  0  0  0  0  0  0  0  0  0  0
  132.3220  118.7962   31.2937 C   0  0  0  0  0  0  0  0  0  0  0  0
  140.5098  116.4452   33.0894 C   0  0  0  0  0  0  0  0  0  0  0  0
  141.4152  117.6206   33.3854 C   0  0  0  0  0  0  0  0  0  0  0  0
  142.6401  117.0715   34.0363 C   0  0  0  0  0  0  0  0  0  0  0  0
  144.7931  117.7084   35.0072 C   0  0  0  0  0  0  0  0  0  0  0  0
  135.9215  117.1717   32.8014 C   0  0  0  0  0  0  0  0  0  0  0  0
  134.6502  116.6930   33.1065 C   0  0  0  0  0  0  0  0  0  0  0  0
  133.5210  117.2530   32.5937 C   0  0  0  0  0  0  0  0  0  0  0  0
  134.8770  118.8188   31.4290 N   0  0  0  0  0  0  0  0  0  0  0  0
  138.2971  117.1833   33.6482 N   0  0  0  0  0  0  0  0  0  0  0  0
  137.1088  118.7586   31.6095 O   0  0  0  0  0  0  0  0  0  0  0  0
  142.5792  116.0324   34.7741 O   0  0  0  0  0  0  0  0  0  0  0  0
  143.8967  117.6376   33.8880 O   0  0  0  0  0  0  0  0  0  0  0  0
  1  2  2  0
 13  1  1  0
  1 17  1  0
  9  3  1  1
  3 17  1  6
  8  4  1  1
  4 15  2  0
 16  4  1  0
  7  5  1  1
  5 15  1  6
  6 13  1  0
  6 16  1  0
  6 18  2  0
  7  8  1  0
  9 10  1  0
 10 11  1  6
 11 19  2  0
 11 20  1  0
 12 20  1  6
 13 14  2  0
 14 15  1  0
M  END
$$$$
