
     RDKit          3D

 20 21  0  0  0  0  0  0  0  0999 V2000
  137.7170  116.2551   33.4950 C   0  0  0  0  0  0  0  0  0  0  0  0
  137.9893  115.2272   34.2284 O   0  0  0  0  0  0  0  0  0  0  0  0
  140.0941  116.3050   32.9288 C   0  0  0  0  0  0  0  0  0  0  0  0
  133.7262  117.5717   33.4661 C   0  0  0  0  0  0  0  0  0  0  0  0
  134.1097  119.7465   32.7222 C   0  0  0  0  0  0  0  0  0  0  0  0
  135.2911  115.8676   33.8621 C   0  0  0  0  0  0  0  0  0  0  0  0
  132.7067  119.3488   32.3642 C   0  0  0  0  0  0  0  0  0  0  0  0
  132.4054  118.2623   33.3752 C   0  0  0  0  0  0  0  0  0  0  0  0
  141.0213  117.1122   32.0833 C   0  0  0  0  0  0  0  0  0  0  0  0
  142.3670  117.2930   32.7506 C   0  0  0  0  0  0  0  0  0  0  0  0
  143.4050  116.9926   31.7222 C   0  0  0  0  0  0  0  0  0  0  0  0
  145.4130  115.8640   30.8989 C   0  0  0  0  0  0  0  0  0  0  0  0
  136.3263  116.6872   33.4927 C   0  0  0  0  0  0  0  0  0  0  0  0
  136.0082  117.9855   33.1035 C   0  0  0  0  0  0  0  0  0  0  0  0
  134.7272  118.4441   33.0830 C   0  0  0  0  0  0  0  0  0  0  0  0
  133.9974  116.3153   33.8464 N   0  0  0  0  0  0  0  0  0  0  0  0
  138.7345  116.8768   32.7679 N   0  0  0  0  0  0  0  0  0  0  0  0
  135.4683  114.6709   34.2326 O   0  0  0  0  0  0  0  0  0  0  0  0
  143.3578  117.5331   30.5675 O   0  0  0  0  0  0  0  0  0  0  0  0
  144.4655  116.1281   31.9447 O   0  0  0  0  0  0  0  0  0  0  0  0
  1  2  2  0
 13  1  1  0
  1 17  1  0
  9  3  1  1
  3 17  1  6
  8  4  1  1
  4 15  2  0
 16  4  1  0
  7  5  1  1
  5 15  1  6
  6 13  1  0
  6 16  1  0
  6 18  2  0
  7  8  1  0
  9 10  1  0
 10 11  1  6
 11 19  2  0
 11 20  1  0
 12 20  1  6
 13 14  2  0
 14 15  1  0
M  END
$$$$
