
     RDKit          3D

 20 21  0  0  0  0  0  0  0  0999 V2000
  135.7308  118.3975   31.8395 C   0  0  0  0  0  0  0  0  0  0  0  0
  136.3854  117.8703   30.8586 O   0  0  0  0  0  0  0  0  0  0  0  0
  136.3913  116.4437   33.1509 C   0  0  0  0  0  0  0  0  0  0  0  0
  133.7716  122.0022   30.9294 C   0  0  0  0  0  0  0  0  0  0  0  0
  134.4649  122.1952   28.7130 C   0  0  0  0  0  0  0  0  0  0  0  0
  134.2787  120.3100   32.4749 C   0  0  0  0  0  0  0  0  0  0  0  0
  133.1805  122.9527   28.8900 C   0  0  0  0  0  0  0  0  0  0  0  0
  133.1799  123.2557   30.3738 C   0  0  0  0  0  0  0  0  0  0  0  0
  135.4164  115.4744   33.7307 C   0  0  0  0  0  0  0  0  0  0  0  0
  136.0762  114.1542   34.0636 C   0  0  0  0  0  0  0  0  0  0  0  0
  136.3494  113.4670   32.7680 C   0  0  0  0  0  0  0  0  0  0  0  0
  137.7777  112.2773   31.1779 C   0  0  0  0  0  0  0  0  0  0  0  0
  135.0416  119.6470   31.5485 C   0  0  0  0  0  0  0  0  0  0  0  0
  135.1476  120.2142   30.2815 C   0  0  0  0  0  0  0  0  0  0  0  0
  134.5268  121.3799   29.9536 C   0  0  0  0  0  0  0  0  0  0  0  0
  133.6484  121.4837   32.1592 N   0  0  0  0  0  0  0  0  0  0  0  0
  135.7185  117.7643   33.0843 N   0  0  0  0  0  0  0  0  0  0  0  0
  134.1158  119.8830   33.6547 O   0  0  0  0  0  0  0  0  0  0  0  0
  135.4181  113.2832   31.9156 O   0  0  0  0  0  0  0  0  0  0  0  0
  137.6020  112.9932   32.4099 O   0  0  0  0  0  0  0  0  0  0  0  0
  1  2  2  0
 13  1  1  0
  1 17  1  0
  9  3  1  1
  3 17  1  6
  8  4  1  1
  4 15  2  0
 16  4  1  0
  7  5  1  1
  5 15  1  6
  6 13  1  0
  6 16  1  0
  6 18  2  0
  7  8  1  0
  9 10  1  0
 10 11  1  6
 11 19  2  0
 11 20  1  0
 12 20  1  6
 13 14  2  0
 14 15  1  0
M  END
$$$$
