
     RDKit          3D

 20 21  0  0  0  0  0  0  0  0999 V2000
  132.7763  116.8550   32.0937 C   0  0  0  0  0  0  0  0  0  0  0  0
  133.1914  116.5946   30.9067 O   0  0  0  0  0  0  0  0  0  0  0  0
  135.1084  116.2818   32.8678 C   0  0  0  0  0  0  0  0  0  0  0  0
  128.7481  118.2451   32.3897 C   0  0  0  0  0  0  0  0  0  0  0  0
  128.3258  118.1721   30.0809 C   0  0  0  0  0  0  0  0  0  0  0  0
  130.7867  117.6525   33.3893 C   0  0  0  0  0  0  0  0  0  0  0  0
  127.4333  119.2390   30.7304 C   0  0  0  0  0  0  0  0  0  0  0  0
  127.3507  118.6855   32.1331 C   0  0  0  0  0  0  0  0  0  0  0  0
  135.2899  114.8184   32.5753 C   0  0  0  0  0  0  0  0  0  0  0  0
  135.5448  114.5269   31.1194 C   0  0  0  0  0  0  0  0  0  0  0  0
  136.9000  114.0120   30.9022 C   0  0  0  0  0  0  0  0  0  0  0  0
  138.6332  113.1160   29.4361 C   0  0  0  0  0  0  0  0  0  0  0  0
  131.4172  117.3270   32.2189 C   0  0  0  0  0  0  0  0  0  0  0  0
  130.6198  117.4865   31.0748 C   0  0  0  0  0  0  0  0  0  0  0  0
  129.3222  117.9350   31.1801 C   0  0  0  0  0  0  0  0  0  0  0  0
  129.5069  118.0934   33.4774 N   0  0  0  0  0  0  0  0  0  0  0  0
  133.7218  116.6378   33.1056 N   0  0  0  0  0  0  0  0  0  0  0  0
  131.4090  117.5465   34.4718 O   0  0  0  0  0  0  0  0  0  0  0  0
  137.6354  113.7317   31.8670 O   0  0  0  0  0  0  0  0  0  0  0  0
  137.4160  113.8171   29.6331 O   0  0  0  0  0  0  0  0  0  0  0  0
  1  2  2  0
 13  1  1  0
  1 17  1  0
  3  9  1  0
 17  3  1  0
  4  8  1  0
  4 15  2  0
 16  4  1  0
  5  7  1  0
 15  5  1  0
  6 13  1  0
  6 16  1  0
  6 18  2  0
  7  8  1  0
  9 10  1  0
 10 11  1  0
 11 19  2  0
 11 20  1  0
 20 12  1  0
 13 14  2  0
 14 15  1  0
M  END
$$$$
