
     RDKit          3D

 20 21  0  0  0  0  0  0  0  0999 V2000
  137.4773  117.0009   33.0771 C   0  0  0  0  0  0  0  0  0  0  0  0
  138.1447  118.0238   33.4739 O   0  0  0  0  0  0  0  0  0  0  0  0
  139.6526  115.7292   33.2102 C   0  0  0  0  0  0  0  0  0  0  0  0
  133.2933  117.6270   32.4875 C   0  0  0  0  0  0  0  0  0  0  0  0
  133.3192  119.8815   33.1438 C   0  0  0  0  0  0  0  0  0  0  0  0
  135.1809  116.2339   32.4361 C   0  0  0  0  0  0  0  0  0  0  0  0
  131.9316  119.2850   33.4185 C   0  0  0  0  0  0  0  0  0  0  0  0
  131.9172  118.1824   32.3865 C   0  0  0  0  0  0  0  0  0  0  0  0
  140.1752  114.3281   33.0559 C   0  0  0  0  0  0  0  0  0  0  0  0
  139.4084  113.3120   33.8614 C   0  0  0  0  0  0  0  0  0  0  0  0
  140.2539  112.1762   34.2412 C   0  0  0  0  0  0  0  0  0  0  0  0
  140.7384  110.2546   35.6656 C   0  0  0  0  0  0  0  0  0  0  0  0
  136.0603  117.1882   32.8709 C   0  0  0  0  0  0  0  0  0  0  0  0
  135.4725  118.4381   33.1206 C   0  0  0  0  0  0  0  0  0  0  0  0
  134.1227  118.6305   32.9275 C   0  0  0  0  0  0  0  0  0  0  0  0
  133.8528  116.4384   32.2504 N   0  0  0  0  0  0  0  0  0  0  0  0
  138.2389  115.8371   32.9010 N   0  0  0  0  0  0  0  0  0  0  0  0
  135.6016  115.0808   32.1837 O   0  0  0  0  0  0  0  0  0  0  0  0
  141.3848  112.0308   33.7412 O   0  0  0  0  0  0  0  0  0  0  0  0
  139.8391  111.2278   35.1596 O   0  0  0  0  0  0  0  0  0  0  0  0
  1  2  2  0
 13  1  1  0
  1 17  1  0
  3  9  1  0
 17  3  1  0
  4  8  1  0
  4 15  2  0
 16  4  1  0
  5  7  1  0
 15  5  1  0
  6 13  1  0
  6 16  1  0
  6 18  2  0
  7  8  1  0
  9 10  1  0
 10 11  1  0
 11 19  2  0
 11 20  1  0
 20 12  1  0
 13 14  2  0
 14 15  1  0
M  END
$$$$
