
     RDKit          3D

 20 21  0  0  0  0  0  0  0  0999 V2000
  136.6334  116.3239   33.6470 C   0  0  0  0  0  0  0  0  0  0  0  0
  136.7778  115.2210   34.2887 O   0  0  0  0  0  0  0  0  0  0  0  0
  139.0535  116.0670   32.9809 C   0  0  0  0  0  0  0  0  0  0  0  0
  132.7481  118.0987   33.6817 C   0  0  0  0  0  0  0  0  0  0  0  0
  132.2524  117.5734   31.4473 C   0  0  0  0  0  0  0  0  0  0  0  0
  134.7582  117.5534   34.7627 C   0  0  0  0  0  0  0  0  0  0  0  0
  131.4734  118.8295   31.8622 C   0  0  0  0  0  0  0  0  0  0  0  0
  131.3861  118.5972   33.3519 C   0  0  0  0  0  0  0  0  0  0  0  0
  140.1200  116.7954   32.2112 C   0  0  0  0  0  0  0  0  0  0  0  0
  141.4829  116.1660   32.3366 C   0  0  0  0  0  0  0  0  0  0  0  0
  141.9218  115.5743   31.0692 C   0  0  0  0  0  0  0  0  0  0  0  0
  143.6700  114.4260   29.8117 C   0  0  0  0  0  0  0  0  0  0  0  0
  135.3235  116.9310   33.6828 C   0  0  0  0  0  0  0  0  0  0  0  0
  134.5087  116.9136   32.5400 C   0  0  0  0  0  0  0  0  0  0  0  0
  133.2575  117.4882   32.5608 C   0  0  0  0  0  0  0  0  0  0  0  0
  133.5235  118.1152   34.7682 N   0  0  0  0  0  0  0  0  0  0  0  0
  137.7893  116.7794   32.9976 N   0  0  0  0  0  0  0  0  0  0  0  0
  135.4013  117.6254   35.8358 O   0  0  0  0  0  0  0  0  0  0  0  0
  141.3817  115.8994   29.9955 O   0  0  0  0  0  0  0  0  0  0  0  0
  142.9417  114.6409   31.0097 O   0  0  0  0  0  0  0  0  0  0  0  0
  1  2  2  0
 13  1  1  0
  1 17  1  0
  3  9  1  0
 17  3  1  0
  4  8  1  0
  4 15  2  0
 16  4  1  0
  5  7  1  0
 15  5  1  0
  6 13  1  0
  6 16  1  0
  6 18  2  0
  7  8  1  0
  9 10  1  0
 10 11  1  0
 11 19  2  0
 11 20  1  0
 20 12  1  0
 13 14  2  0
 14 15  1  0
M  END
$$$$
