
     RDKit          3D

 20 21  0  0  0  0  0  0  0  0999 V2000
  138.2402  114.6110   33.7096 C   0  0  0  0  0  0  0  0  0  0  0  0
  139.3900  114.0281   33.6280 O   0  0  0  0  0  0  0  0  0  0  0  0
  138.7470  115.6055   31.5353 C   0  0  0  0  0  0  0  0  0  0  0  0
  135.9201  113.7455   37.1050 C   0  0  0  0  0  0  0  0  0  0  0  0
  133.9139  113.2804   36.0146 C   0  0  0  0  0  0  0  0  0  0  0  0
  137.9804  114.3671   36.1678 C   0  0  0  0  0  0  0  0  0  0  0  0
  133.9243  112.5735   37.3393 C   0  0  0  0  0  0  0  0  0  0  0  0
  134.9054  113.3996   38.1445 C   0  0  0  0  0  0  0  0  0  0  0  0
  138.1296  116.5726   30.5815 C   0  0  0  0  0  0  0  0  0  0  0  0
  139.1053  116.9895   29.5030 C   0  0  0  0  0  0  0  0  0  0  0  0
  138.7176  116.2591   28.2614 C   0  0  0  0  0  0  0  0  0  0  0  0
  137.3275  116.2261   26.2488 C   0  0  0  0  0  0  0  0  0  0  0  0
  137.4576  114.3149   34.9015 C   0  0  0  0  0  0  0  0  0  0  0  0
  136.1167  113.9619   34.7759 C   0  0  0  0  0  0  0  0  0  0  0  0
  135.3371  113.6759   35.8540 C   0  0  0  0  0  0  0  0  0  0  0  0
  137.2080  114.0820   37.2617 N   0  0  0  0  0  0  0  0  0  0  0  0
  137.8218  115.4648   32.6866 N   0  0  0  0  0  0  0  0  0  0  0  0
  139.1859  114.6766   36.3950 O   0  0  0  0  0  0  0  0  0  0  0  0
  139.5391  115.4752   27.6798 O   0  0  0  0  0  0  0  0  0  0  0  0
  137.4699  116.3784   27.6693 O   0  0  0  0  0  0  0  0  0  0  0  0
  1  2  2  0
 13  1  1  0
  1 17  1  0
  9  3  1  1
  3 17  1  6
  8  4  1  1
  4 15  2  0
 16  4  1  0
  7  5  1  1
  5 15  1  6
  6 13  1  0
  6 16  1  0
  6 18  2  0
  7  8  1  0
  9 10  1  0
 10 11  1  6
 11 19  2  0
 11 20  1  0
 12 20  1  6
 13 14  2  0
 14 15  1  0
M  END
$$$$
