
     RDKit          3D

 20 21  0  0  0  0  0  0  0  0999 V2000
  137.6748  116.6163   33.1941 C   0  0  0  0  0  0  0  0  0  0  0  0
  137.7831  115.7349   32.2665 O   0  0  0  0  0  0  0  0  0  0  0  0
  140.1905  116.5248   33.3654 C   0  0  0  0  0  0  0  0  0  0  0  0
  133.6858  117.6874   34.2836 C   0  0  0  0  0  0  0  0  0  0  0  0
  132.6551  116.0230   32.9868 C   0  0  0  0  0  0  0  0  0  0  0  0
  136.0044  118.0206   34.4232 C   0  0  0  0  0  0  0  0  0  0  0  0
  131.6971  117.2117   33.1484 C   0  0  0  0  0  0  0  0  0  0  0  0
  132.2107  117.7802   34.4499 C   0  0  0  0  0  0  0  0  0  0  0  0
  141.1743  117.5704   32.9192 C   0  0  0  0  0  0  0  0  0  0  0  0
  142.5663  117.0325   32.7135 C   0  0  0  0  0  0  0  0  0  0  0  0
  143.5605  118.1093   32.6790 C   0  0  0  0  0  0  0  0  0  0  0  0
  145.6905  118.9804   33.4913 C   0  0  0  0  0  0  0  0  0  0  0  0
  136.3354  116.9974   33.5766 C   0  0  0  0  0  0  0  0  0  0  0  0
  135.2319  116.2939   33.0690 C   0  0  0  0  0  0  0  0  0  0  0  0
  133.9496  116.6463   33.4261 C   0  0  0  0  0  0  0  0  0  0  0  0
  134.7355  118.3562   34.7659 N   0  0  0  0  0  0  0  0  0  0  0  0
  138.8945  117.0831   33.7038 N   0  0  0  0  0  0  0  0  0  0  0  0
  136.9149  118.7142   34.9333 O   0  0  0  0  0  0  0  0  0  0  0  0
  143.2439  119.2546   32.3070 O   0  0  0  0  0  0  0  0  0  0  0  0
  144.8769  117.9045   33.0530 O   0  0  0  0  0  0  0  0  0  0  0  0
  1  2  2  0
 13  1  1  0
  1 17  1  0
  3  9  1  0
 17  3  1  0
  4  8  1  0
  4 15  2  0
 16  4  1  0
  5  7  1  0
 15  5  1  0
  6 13  1  0
  6 16  1  0
  6 18  2  0
  7  8  1  0
  9 10  1  0
 10 11  1  0
 11 19  2  0
 11 20  1  0
 20 12  1  0
 13 14  2  0
 14 15  1  0
M  END
$$$$
