
     RDKit          3D

 20 21  0  0  0  0  0  0  0  0999 V2000
  137.6411  117.2184   32.8898 C   0  0  0  0  0  0  0  0  0  0  0  0
  138.1661  118.3594   32.5879 O   0  0  0  0  0  0  0  0  0  0  0  0
  139.9263  116.3713   33.0754 C   0  0  0  0  0  0  0  0  0  0  0  0
  133.4451  117.2028   33.1204 C   0  0  0  0  0  0  0  0  0  0  0  0
  133.0887  119.4597   32.6625 C   0  0  0  0  0  0  0  0  0  0  0  0
  135.4825  116.0450   33.2542 C   0  0  0  0  0  0  0  0  0  0  0  0
  131.8588  118.6853   32.2851 C   0  0  0  0  0  0  0  0  0  0  0  0
  131.9722  117.4473   33.1499 C   0  0  0  0  0  0  0  0  0  0  0  0
  140.5534  115.5406   34.1444 C   0  0  0  0  0  0  0  0  0  0  0  0
  140.7906  116.3432   35.4047 C   0  0  0  0  0  0  0  0  0  0  0  0
  142.2329  116.1884   35.7527 C   0  0  0  0  0  0  0  0  0  0  0  0
  144.1512  117.2579   36.8298 C   0  0  0  0  0  0  0  0  0  0  0  0
  136.1877  117.1869   32.9743 C   0  0  0  0  0  0  0  0  0  0  0  0
  135.4593  118.3552   32.7670 C   0  0  0  0  0  0  0  0  0  0  0  0
  134.1006  118.3854   32.8347 C   0  0  0  0  0  0  0  0  0  0  0  0
  134.1153  116.0603   33.3254 N   0  0  0  0  0  0  0  0  0  0  0  0
  138.4656  116.1132   33.1117 N   0  0  0  0  0  0  0  0  0  0  0  0
  136.0444  114.9302   33.4594 O   0  0  0  0  0  0  0  0  0  0  0  0
  143.0164  115.5101   35.0086 O   0  0  0  0  0  0  0  0  0  0  0  0
  142.8068  116.7566   36.8793 O   0  0  0  0  0  0  0  0  0  0  0  0
  1  2  2  0
 13  1  1  0
  1 17  1  0
  9  3  1  1
  3 17  1  6
  8  4  1  1
  4 15  2  0
 16  4  1  0
  7  5  1  1
  5 15  1  6
  6 13  1  0
  6 16  1  0
  6 18  2  0
  7  8  1  0
  9 10  1  0
 10 11  1  6
 11 19  2  0
 11 20  1  0
 12 20  1  6
 13 14  2  0
 14 15  1  0
M  END
$$$$
