
     RDKit          3D

 20 21  0  0  0  0  0  0  0  0999 V2000
  137.3946  118.1007   32.3896 C   0  0  0  0  0  0  0  0  0  0  0  0
  138.5973  118.4030   32.0283 O   0  0  0  0  0  0  0  0  0  0  0  0
  138.3814  116.2229   33.6037 C   0  0  0  0  0  0  0  0  0  0  0  0
  134.3092  120.6111   31.0337 C   0  0  0  0  0  0  0  0  0  0  0  0
  132.5321  119.1372   31.3497 C   0  0  0  0  0  0  0  0  0  0  0  0
  136.5890  120.2630   31.4702 C   0  0  0  0  0  0  0  0  0  0  0  0
  132.0114  120.5450   31.3904 C   0  0  0  0  0  0  0  0  0  0  0  0
  133.0588  121.3053   30.6041 C   0  0  0  0  0  0  0  0  0  0  0  0
  137.9408  115.1616   34.5554 C   0  0  0  0  0  0  0  0  0  0  0  0
  139.1117  114.3482   35.0617 C   0  0  0  0  0  0  0  0  0  0  0  0
  139.0587  113.0307   34.3640 C   0  0  0  0  0  0  0  0  0  0  0  0
  140.2388  110.9644   33.7972 C   0  0  0  0  0  0  0  0  0  0  0  0
  136.3432  118.9899   31.9158 C   0  0  0  0  0  0  0  0  0  0  0  0
  135.0220  118.5508   31.9038 C   0  0  0  0  0  0  0  0  0  0  0  0
  133.9994  119.3373   31.4710 C   0  0  0  0  0  0  0  0  0  0  0  0
  135.5701  121.0656   31.0318 N   0  0  0  0  0  0  0  0  0  0  0  0
  137.1727  116.9763   33.1880 N   0  0  0  0  0  0  0  0  0  0  0  0
  137.7516  120.7611   31.4386 O   0  0  0  0  0  0  0  0  0  0  0  0
  137.9509  112.4179   34.2062 O   0  0  0  0  0  0  0  0  0  0  0  0
  140.1806  112.3978   33.8518 O   0  0  0  0  0  0  0  0  0  0  0  0
  1  2  2  0
 13  1  1  0
  1 17  1  0
  9  3  1  1
  3 17  1  6
  8  4  1  1
  4 15  2  0
 16  4  1  0
  7  5  1  1
  5 15  1  6
  6 13  1  0
  6 16  1  0
  6 18  2  0
  7  8  1  0
  9 10  1  0
 10 11  1  6
 11 19  2  0
 11 20  1  0
 12 20  1  6
 13 14  2  0
 14 15  1  0
M  END
$$$$
