
     RDKit          3D

 20 21  0  0  0  0  0  0  0  0999 V2000
  138.3711  116.9607   33.5051 C   0  0  0  0  0  0  0  0  0  0  0  0
  138.6189  115.8496   32.9109 O   0  0  0  0  0  0  0  0  0  0  0  0
  140.8156  117.5233   33.2323 C   0  0  0  0  0  0  0  0  0  0  0  0
  134.2472  117.7997   34.2369 C   0  0  0  0  0  0  0  0  0  0  0  0
  133.5064  115.6097   33.8253 C   0  0  0  0  0  0  0  0  0  0  0  0
  136.4844  118.4953   34.1034 C   0  0  0  0  0  0  0  0  0  0  0  0
  132.3746  116.5993   33.5145 C   0  0  0  0  0  0  0  0  0  0  0  0
  132.7728  117.7383   34.4227 C   0  0  0  0  0  0  0  0  0  0  0  0
  140.7477  116.8885   31.8711 C   0  0  0  0  0  0  0  0  0  0  0  0
  141.6943  115.7286   31.7045 C   0  0  0  0  0  0  0  0  0  0  0  0
  141.3184  114.8857   30.5655 C   0  0  0  0  0  0  0  0  0  0  0  0
  141.4084  112.6352   29.6258 C   0  0  0  0  0  0  0  0  0  0  0  0
  136.9828  117.2686   33.7568 C   0  0  0  0  0  0  0  0  0  0  0  0
  136.0093  116.2628   33.6534 C   0  0  0  0  0  0  0  0  0  0  0  0
  134.6823  116.5427   33.8913 C   0  0  0  0  0  0  0  0  0  0  0  0
  135.1734  118.7560   34.3350 N   0  0  0  0  0  0  0  0  0  0  0  0
  139.5056  117.7194   33.8251 N   0  0  0  0  0  0  0  0  0  0  0  0
  137.2688  119.4651   34.2231 O   0  0  0  0  0  0  0  0  0  0  0  0
  140.3242  115.1642   29.8698 O   0  0  0  0  0  0  0  0  0  0  0  0
  142.0414  113.7584   30.2171 O   0  0  0  0  0  0  0  0  0  0  0  0
  1  2  2  0
 13  1  1  0
  1 17  1  0
  3  9  1  0
 17  3  1  0
  4  8  1  0
  4 15  2  0
 16  4  1  0
  5  7  1  0
 15  5  1  0
  6 13  1  0
  6 16  1  0
  6 18  2  0
  7  8  1  0
  9 10  1  0
 10 11  1  0
 11 19  2  0
 11 20  1  0
 20 12  1  0
 13 14  2  0
 14 15  1  0
M  END
$$$$
