
     RDKit          3D

 20 21  0  0  0  0  0  0  0  0999 V2000
  136.2270  113.7076   34.7902 C   0  0  0  0  0  0  0  0  0  0  0  0
  135.1364  113.6234   34.1031 O   0  0  0  0  0  0  0  0  0  0  0  0
  137.0177  115.2705   33.0856 C   0  0  0  0  0  0  0  0  0  0  0  0
  136.5130  111.2814   38.2096 C   0  0  0  0  0  0  0  0  0  0  0  0
  138.8349  111.0967   38.2805 C   0  0  0  0  0  0  0  0  0  0  0  0
  135.1886  112.4490   36.6630 C   0  0  0  0  0  0  0  0  0  0  0  0
  138.2862  110.8825   39.6617 C   0  0  0  0  0  0  0  0  0  0  0  0
  136.8674  110.4310   39.3849 C   0  0  0  0  0  0  0  0  0  0  0  0
  137.9990  116.3917   33.0089 C   0  0  0  0  0  0  0  0  0  0  0  0
  137.8488  117.1749   31.7232 C   0  0  0  0  0  0  0  0  0  0  0  0
  139.2168  117.6113   31.3187 C   0  0  0  0  0  0  0  0  0  0  0  0
  140.8741  119.3887   31.0397 C   0  0  0  0  0  0  0  0  0  0  0  0
  136.2997  112.8677   35.9777 C   0  0  0  0  0  0  0  0  0  0  0  0
  137.5407  112.4574   36.4572 C   0  0  0  0  0  0  0  0  0  0  0  0
  137.6691  111.6717   37.5608 C   0  0  0  0  0  0  0  0  0  0  0  0
  135.3024  111.6583   37.7749 N   0  0  0  0  0  0  0  0  0  0  0  0
  137.2439  114.5694   34.3735 N   0  0  0  0  0  0  0  0  0  0  0  0
  134.0139  112.7634   36.3136 O   0  0  0  0  0  0  0  0  0  0  0  0
  139.9132  116.9141   30.5084 O   0  0  0  0  0  0  0  0  0  0  0  0
  139.8102  118.7748   31.7830 O   0  0  0  0  0  0  0  0  0  0  0  0
  1  2  2  0
 13  1  1  0
  1 17  1  0
  9  3  1  1
  3 17  1  6
  8  4  1  1
  4 15  2  0
 16  4  1  0
  7  5  1  1
  5 15  1  6
  6 13  1  0
  6 16  1  0
  6 18  2  0
  7  8  1  0
  9 10  1  0
 10 11  1  6
 11 19  2  0
 11 20  1  0
 12 20  1  6
 13 14  2  0
 14 15  1  0
M  END
$$$$
