
     RDKit          3D

 16 18  0  0  0  0  0  0  0  0999 V2000
    5.3073   10.6507   27.9424 C   0  0  0  0  0  0  0  0  0  0  0  0
    4.2194   11.4425   28.2905 C   0  0  0  0  0  0  0  0  0  0  0  0
    3.9327   12.6996   27.7619 C   0  0  0  0  0  0  0  0  0  0  0  0
    5.8348    9.6915   28.8021 C   0  0  0  0  0  0  0  0  0  0  0  0
    5.5119    9.2823   30.0627 C   0  0  0  0  0  0  0  0  0  0  0  0
    6.2402    8.2733   30.6842 C   0  0  0  0  0  0  0  0  0  0  0  0
    7.2924    7.6853   30.0229 C   0  0  0  0  0  0  0  0  0  0  0  0
    7.6079    8.1089   28.7490 C   0  0  0  0  0  0  0  0  0  0  0  0
    6.8899    9.1133   28.1188 C   0  0  0  0  0  0  0  0  0  0  0  0
    3.4501   10.9774   29.1429 O   0  0  0  0  0  0  0  0  0  0  0  0
    4.3653   13.1792   26.5431 C   0  0  0  0  0  0  0  0  0  0  0  0
    5.0879   12.5515   25.5225 C   0  0  0  0  0  0  0  0  0  0  0  0
    5.8600   11.4186   25.6681 C   0  0  0  0  0  0  0  0  0  0  0  0
    6.0476   10.6223   26.7869 C   0  0  0  0  0  0  0  0  0  0  0  0
    6.9998    9.6868   26.9117 N   0  0  0  0  0  0  0  0  0  0  0  0
    8.9477    7.3651   27.8981 Cl  0  0  0  0  0  0  0  0  0  0  0  0
  1  2  1  0
  1  4  1  0
  1 14  2  0
  2  3  1  0
  2 10  2  0
  3 11  2  0
  4  5  2  0
  4  9  1  0
  5  6  1  0
  6  7  2  0
  7  8  1  0
  8  9  2  0
  8 16  1  0
  9 15  1  0
 11 12  1  0
 12 13  2  0
 13 14  1  0
 14 15  1  0
M  END
$$$$
