
     RDKit          3D

 16 18  0  0  0  0  0  0  0  0999 V2000
    7.4610    7.8434   28.3833 C   0  0  0  0  0  0  0  0  0  0  0  0
    7.3076    7.1757   29.5711 C   0  0  0  0  0  0  0  0  0  0  0  0
    6.6322    7.5464   30.7386 C   0  0  0  0  0  0  0  0  0  0  0  0
    8.3454    7.5072   27.3875 C   0  0  0  0  0  0  0  0  0  0  0  0
    9.2837    6.5122   27.2267 C   0  0  0  0  0  0  0  0  0  0  0  0
   10.0606    6.4018   26.0929 C   0  0  0  0  0  0  0  0  0  0  0  0
    9.9104    7.3061   25.0737 C   0  0  0  0  0  0  0  0  0  0  0  0
    8.9774    8.3237   25.1943 C   0  0  0  0  0  0  0  0  0  0  0  0
    8.2059    8.4208   26.3377 C   0  0  0  0  0  0  0  0  0  0  0  0
    7.8493    6.0668   29.6300 O   0  0  0  0  0  0  0  0  0  0  0  0
    5.7821    8.6183   30.8898 C   0  0  0  0  0  0  0  0  0  0  0  0
    5.3428    9.5171   29.9488 C   0  0  0  0  0  0  0  0  0  0  0  0
    5.7859    9.6397   28.6461 C   0  0  0  0  0  0  0  0  0  0  0  0
    6.7775    8.9607   27.9507 C   0  0  0  0  0  0  0  0  0  0  0  0
    7.2410    9.2827   26.7302 N   0  0  0  0  0  0  0  0  0  0  0  0
    8.7223    9.5197   23.9403 Cl  0  0  0  0  0  0  0  0  0  0  0  0
  1  2  1  0
  1  4  1  0
  1 14  2  0
  2  3  1  0
  2 10  2  0
  3 11  2  0
  4  5  2  0
  4  9  1  0
  5  6  1  0
  6  7  2  0
  7  8  1  0
  8  9  2  0
  8 16  1  0
  9 15  1  0
 11 12  1  0
 12 13  2  0
 13 14  1  0
 14 15  1  0
M  END
$$$$
