
     RDKit          3D

 16 18  0  0  0  0  0  0  0  0999 V2000
    5.4245   10.6741   27.4478 C   0  0  0  0  0  0  0  0  0  0  0  0
    4.3668   11.5685   27.5627 C   0  0  0  0  0  0  0  0  0  0  0  0
    4.2457   12.7706   26.8684 C   0  0  0  0  0  0  0  0  0  0  0  0
    5.7662    9.7909   28.4678 C   0  0  0  0  0  0  0  0  0  0  0  0
    5.2599    9.5534   29.7120 C   0  0  0  0  0  0  0  0  0  0  0  0
    5.8257    8.5801   30.5290 C   0  0  0  0  0  0  0  0  0  0  0  0
    6.9024    7.8533   30.0786 C   0  0  0  0  0  0  0  0  0  0  0  0
    7.4041    8.1040   28.8188 C   0  0  0  0  0  0  0  0  0  0  0  0
    6.8492    9.0710   27.9951 C   0  0  0  0  0  0  0  0  0  0  0  0
    3.4648   11.2559   28.3524 O   0  0  0  0  0  0  0  0  0  0  0  0
    4.8609   13.0758   25.6721 C   0  0  0  0  0  0  0  0  0  0  0  0
    5.6526   12.2885   24.8289 C   0  0  0  0  0  0  0  0  0  0  0  0
    6.3106   11.1339   25.1960 C   0  0  0  0  0  0  0  0  0  0  0  0
    6.2968   10.4639   26.4091 C   0  0  0  0  0  0  0  0  0  0  0  0
    7.1509    9.4912   26.7580 N   0  0  0  0  0  0  0  0  0  0  0  0
    8.7766    7.1824   28.2361 Cl  0  0  0  0  0  0  0  0  0  0  0  0
  1  2  1  0
  1  4  1  0
  1 14  2  0
  2  3  1  0
  2 10  2  0
  3 11  2  0
  4  5  2  0
  4  9  1  0
  5  6  1  0
  6  7  2  0
  7  8  1  0
  8  9  2  0
  8 16  1  0
  9 15  1  0
 11 12  1  0
 12 13  2  0
 13 14  1  0
 14 15  1  0
M  END
$$$$
