
     RDKit          3D

 16 18  0  0  0  0  0  0  0  0999 V2000
    7.4692    8.0617   28.2913 C   0  0  0  0  0  0  0  0  0  0  0  0
    7.1955    7.4632   29.4942 C   0  0  0  0  0  0  0  0  0  0  0  0
    6.4728    7.9320   30.5962 C   0  0  0  0  0  0  0  0  0  0  0  0
    8.3914    7.6222   27.3730 C   0  0  0  0  0  0  0  0  0  0  0  0
    9.2695    6.5628   27.3194 C   0  0  0  0  0  0  0  0  0  0  0  0
   10.1086    6.3486   26.2464 C   0  0  0  0  0  0  0  0  0  0  0  0
   10.0850    7.2105   25.1808 C   0  0  0  0  0  0  0  0  0  0  0  0
    9.2162    8.2901   25.1935 C   0  0  0  0  0  0  0  0  0  0  0  0
    8.3810    8.4912   26.2771 C   0  0  0  0  0  0  0  0  0  0  0  0
    7.6571    6.3261   29.6380 O   0  0  0  0  0  0  0  0  0  0  0  0
    5.6882    9.0620   30.6427 C   0  0  0  0  0  0  0  0  0  0  0  0
    5.3713    9.9406   29.6357 C   0  0  0  0  0  0  0  0  0  0  0  0
    5.9045    9.9717   28.3617 C   0  0  0  0  0  0  0  0  0  0  0  0
    6.8912    9.1982   27.7650 C   0  0  0  0  0  0  0  0  0  0  0  0
    7.4526    9.4308   26.5656 N   0  0  0  0  0  0  0  0  0  0  0  0
    9.1227    9.4382   23.8739 Cl  0  0  0  0  0  0  0  0  0  0  0  0
  1  2  1  0
  1  4  1  0
  1 14  2  0
  2  3  1  0
  2 10  2  0
  3 11  2  0
  4  5  2  0
  4  9  1  0
  5  6  1  0
  6  7  2  0
  7  8  1  0
  8  9  2  0
  8 16  1  0
  9 15  1  0
 11 12  1  0
 12 13  2  0
 13 14  1  0
 14 15  1  0
M  END
$$$$
