
     RDKit          3D

 16 18  0  0  0  0  0  0  0  0999 V2000
    7.9137    7.9877   28.0148 C   0  0  0  0  0  0  0  0  0  0  0  0
    8.6972    6.8967   28.2907 C   0  0  0  0  0  0  0  0  0  0  0  0
    9.5619    6.1699   27.4658 C   0  0  0  0  0  0  0  0  0  0  0  0
    6.9153    8.4774   28.8212 C   0  0  0  0  0  0  0  0  0  0  0  0
    6.3939    8.1096   30.0415 C   0  0  0  0  0  0  0  0  0  0  0  0
    5.3612    8.7965   30.6441 C   0  0  0  0  0  0  0  0  0  0  0  0
    4.8172    9.8906   30.0229 C   0  0  0  0  0  0  0  0  0  0  0  0
    5.3120   10.2953   28.7933 C   0  0  0  0  0  0  0  0  0  0  0  0
    6.3480    9.5959   28.2020 C   0  0  0  0  0  0  0  0  0  0  0  0
    8.6370    6.4808   29.4526 O   0  0  0  0  0  0  0  0  0  0  0  0
    9.9765    6.5195   26.2006 C   0  0  0  0  0  0  0  0  0  0  0  0
    9.7128    7.6622   25.4857 C   0  0  0  0  0  0  0  0  0  0  0  0
    8.8290    8.6687   25.8239 C   0  0  0  0  0  0  0  0  0  0  0  0
    7.9631    8.8003   26.9013 C   0  0  0  0  0  0  0  0  0  0  0  0
    7.0204    9.7491   27.0392 N   0  0  0  0  0  0  0  0  0  0  0  0
    4.6744   11.6812   27.9324 Cl  0  0  0  0  0  0  0  0  0  0  0  0
  1  2  1  0
  1  4  1  0
  1 14  2  0
  2  3  1  0
  2 10  2  0
  3 11  2  0
  4  5  2  0
  4  9  1  0
  5  6  1  0
  6  7  2  0
  7  8  1  0
  8  9  2  0
  8 16  1  0
  9 15  1  0
 11 12  1  0
 12 13  2  0
 13 14  1  0
 14 15  1  0
M  END
$$$$
