
     RDKit          3D

 16 18  0  0  0  0  0  0  0  0999 V2000
    5.4974   10.9029   27.3659 C   0  0  0  0  0  0  0  0  0  0  0  0
    4.4895   11.8320   27.3338 C   0  0  0  0  0  0  0  0  0  0  0  0
    4.2606   12.8908   26.4489 C   0  0  0  0  0  0  0  0  0  0  0  0
    5.7707   10.0580   28.4139 C   0  0  0  0  0  0  0  0  0  0  0  0
    5.2152    9.8528   29.6571 C   0  0  0  0  0  0  0  0  0  0  0  0
    5.7000    8.9108   30.5397 C   0  0  0  0  0  0  0  0  0  0  0  0
    6.7756    8.1376   30.1874 C   0  0  0  0  0  0  0  0  0  0  0  0
    7.3653    8.3113   28.9454 C   0  0  0  0  0  0  0  0  0  0  0  0
    6.8673    9.2602   28.0715 C   0  0  0  0  0  0  0  0  0  0  0  0
    3.6415   11.7255   28.2261 O   0  0  0  0  0  0  0  0  0  0  0  0
    4.9158   13.1240   25.2611 C   0  0  0  0  0  0  0  0  0  0  0  0
    5.8727   12.3641   24.6341 C   0  0  0  0  0  0  0  0  0  0  0  0
    6.5145   11.2512   25.1420 C   0  0  0  0  0  0  0  0  0  0  0  0
    6.4217   10.6284   26.3795 C   0  0  0  0  0  0  0  0  0  0  0  0
    7.2246    9.6467   26.8262 N   0  0  0  0  0  0  0  0  0  0  0  0
    8.7419    7.3659   28.4169 Cl  0  0  0  0  0  0  0  0  0  0  0  0
  1  2  1  0
  1  4  1  0
  1 14  2  0
  2  3  1  0
  2 10  2  0
  3 11  2  0
  4  5  2  0
  4  9  1  0
  5  6  1  0
  6  7  2  0
  7  8  1  0
  8  9  2  0
  8 16  1  0
  9 15  1  0
 11 12  1  0
 12 13  2  0
 13 14  1  0
 14 15  1  0
M  END
$$$$
