
     RDKit          3D

 16 18  0  0  0  0  0  0  0  0999 V2000
    7.9292    7.9887   28.2563 C   0  0  0  0  0  0  0  0  0  0  0  0
    8.6963    6.9113   28.6835 C   0  0  0  0  0  0  0  0  0  0  0  0
    9.3951    6.0369   27.8533 C   0  0  0  0  0  0  0  0  0  0  0  0
    6.8815    8.5032   29.0145 C   0  0  0  0  0  0  0  0  0  0  0  0
    6.3492    8.1720   30.2260 C   0  0  0  0  0  0  0  0  0  0  0  0
    5.2741    8.8875   30.7426 C   0  0  0  0  0  0  0  0  0  0  0  0
    4.7450    9.9353   30.0267 C   0  0  0  0  0  0  0  0  0  0  0  0
    5.2929   10.2591   28.8033 C   0  0  0  0  0  0  0  0  0  0  0  0
    6.3643    9.5539   28.2776 C   0  0  0  0  0  0  0  0  0  0  0  0
    8.7533    6.7267   29.9072 O   0  0  0  0  0  0  0  0  0  0  0  0
    9.8241    6.3123   26.5716 C   0  0  0  0  0  0  0  0  0  0  0  0
    9.7643    7.4948   25.8261 C   0  0  0  0  0  0  0  0  0  0  0  0
    8.9173    8.5545   26.0721 C   0  0  0  0  0  0  0  0  0  0  0  0
    8.0104    8.7317   27.1050 C   0  0  0  0  0  0  0  0  0  0  0  0
    7.0566    9.6733   27.1354 N   0  0  0  0  0  0  0  0  0  0  0  0
    4.6250   11.5933   27.8833 Cl  0  0  0  0  0  0  0  0  0  0  0  0
  1  2  1  0
  1  4  1  0
  1 14  2  0
  2  3  1  0
  2 10  2  0
  3 11  2  0
  4  5  2  0
  4  9  1  0
  5  6  1  0
  6  7  2  0
  7  8  1  0
  8  9  2  0
  8 16  1  0
  9 15  1  0
 11 12  1  0
 12 13  2  0
 13 14  1  0
 14 15  1  0
M  END
$$$$
