
     RDKit          3D

 16 18  0  0  0  0  0  0  0  0999 V2000
    5.5556   10.6207   27.4592 C   0  0  0  0  0  0  0  0  0  0  0  0
    4.5495   11.5522   27.4779 C   0  0  0  0  0  0  0  0  0  0  0  0
    4.3007   12.6348   26.6278 C   0  0  0  0  0  0  0  0  0  0  0  0
    5.8535    9.7476   28.4769 C   0  0  0  0  0  0  0  0  0  0  0  0
    5.3295    9.5102   29.7280 C   0  0  0  0  0  0  0  0  0  0  0  0
    5.8344    8.5440   30.5724 C   0  0  0  0  0  0  0  0  0  0  0  0
    6.8987    7.7785   30.1720 C   0  0  0  0  0  0  0  0  0  0  0  0
    7.4568    7.9843   28.9204 C   0  0  0  0  0  0  0  0  0  0  0  0
    6.9389    8.9572   28.0853 C   0  0  0  0  0  0  0  0  0  0  0  0
    3.7244   11.4234   28.3884 O   0  0  0  0  0  0  0  0  0  0  0  0
    4.9259   12.8985   25.4301 C   0  0  0  0  0  0  0  0  0  0  0  0
    5.8645   12.1538   24.7586 C   0  0  0  0  0  0  0  0  0  0  0  0
    6.5162   11.0265   25.2200 C   0  0  0  0  0  0  0  0  0  0  0  0
    6.4536   10.3710   26.4424 C   0  0  0  0  0  0  0  0  0  0  0  0
    7.2652    9.3762   26.8420 N   0  0  0  0  0  0  0  0  0  0  0  0
    8.8170    7.0509   28.3316 Cl  0  0  0  0  0  0  0  0  0  0  0  0
  1  2  1  0
  1  4  1  0
  1 14  2  0
  2  3  1  0
  2 10  2  0
  3 11  2  0
  4  5  2  0
  4  9  1  0
  5  6  1  0
  6  7  2  0
  7  8  1  0
  8  9  2  0
  8 16  1  0
  9 15  1  0
 11 12  1  0
 12 13  2  0
 13 14  1  0
 14 15  1  0
M  END
$$$$
