
     RDKit          3D

 16 18  0  0  0  0  0  0  0  0999 V2000
    7.4334    7.5921   28.3119 C   0  0  0  0  0  0  0  0  0  0  0  0
    7.1798    6.9877   29.5164 C   0  0  0  0  0  0  0  0  0  0  0  0
    6.4604    7.4439   30.6258 C   0  0  0  0  0  0  0  0  0  0  0  0
    8.3535    7.1679   27.3844 C   0  0  0  0  0  0  0  0  0  0  0  0
    9.2468    6.1219   27.3210 C   0  0  0  0  0  0  0  0  0  0  0  0
   10.0790    5.9219   26.2399 C   0  0  0  0  0  0  0  0  0  0  0  0
   10.0326    6.7850   25.1760 C   0  0  0  0  0  0  0  0  0  0  0  0
    9.1480    7.8515   25.1986 C   0  0  0  0  0  0  0  0  0  0  0  0
    8.3200    8.0384   26.2901 C   0  0  0  0  0  0  0  0  0  0  0  0
    7.6596    5.8575   29.6539 O   0  0  0  0  0  0  0  0  0  0  0  0
    5.6594    8.5620   30.6814 C   0  0  0  0  0  0  0  0  0  0  0  0
    5.3201    9.4373   29.6789 C   0  0  0  0  0  0  0  0  0  0  0  0
    5.8409    9.4784   28.4000 C   0  0  0  0  0  0  0  0  0  0  0  0
    6.8335    8.7207   27.7930 C   0  0  0  0  0  0  0  0  0  0  0  0
    7.3803    8.9635   26.5888 N   0  0  0  0  0  0  0  0  0  0  0  0
    9.0251    9.0001   23.8818 Cl  0  0  0  0  0  0  0  0  0  0  0  0
  1  2  1  0
  1  4  1  0
  1 14  2  0
  2  3  1  0
  2 10  2  0
  3 11  2  0
  4  5  2  0
  4  9  1  0
  5  6  1  0
  6  7  2  0
  7  8  1  0
  8  9  2  0
  8 16  1  0
  9 15  1  0
 11 12  1  0
 12 13  2  0
 13 14  1  0
 14 15  1  0
M  END
$$$$
