
     RDKit          3D

 16 18  0  0  0  0  0  0  0  0999 V2000
    5.5335   10.7845   27.2941 C   0  0  0  0  0  0  0  0  0  0  0  0
    4.5367   11.7260   27.2759 C   0  0  0  0  0  0  0  0  0  0  0  0
    4.3229   12.8029   26.4094 C   0  0  0  0  0  0  0  0  0  0  0  0
    5.7938    9.9180   28.3277 C   0  0  0  0  0  0  0  0  0  0  0  0
    5.2325    9.6974   29.5656 C   0  0  0  0  0  0  0  0  0  0  0  0
    5.7036    8.7343   30.4326 C   0  0  0  0  0  0  0  0  0  0  0  0
    6.7709    7.9546   30.0694 C   0  0  0  0  0  0  0  0  0  0  0  0
    7.3661    8.1433   28.8322 C   0  0  0  0  0  0  0  0  0  0  0  0
    6.8818    9.1134   27.9740 C   0  0  0  0  0  0  0  0  0  0  0  0
    3.6851   11.6138   28.1639 O   0  0  0  0  0  0  0  0  0  0  0  0
    4.9841   13.0493   25.2275 C   0  0  0  0  0  0  0  0  0  0  0  0
    5.9337   12.2892   24.5896 C   0  0  0  0  0  0  0  0  0  0  0  0
    6.5608   11.1599   25.0793 C   0  0  0  0  0  0  0  0  0  0  0  0
    6.4572   10.5165   26.3054 C   0  0  0  0  0  0  0  0  0  0  0  0
    7.2472    9.5175   26.7367 N   0  0  0  0  0  0  0  0  0  0  0  0
    8.7329    7.1911   28.2905 Cl  0  0  0  0  0  0  0  0  0  0  0  0
  1  2  1  0
  1  4  1  0
  1 14  2  0
  2  3  1  0
  2 10  2  0
  3 11  2  0
  4  5  2  0
  4  9  1  0
  5  6  1  0
  6  7  2  0
  7  8  1  0
  8  9  2  0
  8 16  1  0
  9 15  1  0
 11 12  1  0
 12 13  2  0
 13 14  1  0
 14 15  1  0
M  END
$$$$
