
     RDKit          3D

 16 18  0  0  0  0  0  0  0  0999 V2000
    5.6257   10.7476   27.2945 C   0  0  0  0  0  0  0  0  0  0  0  0
    4.6050   11.6632   27.2975 C   0  0  0  0  0  0  0  0  0  0  0  0
    4.3464   12.7352   26.4369 C   0  0  0  0  0  0  0  0  0  0  0  0
    5.9287    9.8872   28.3214 C   0  0  0  0  0  0  0  0  0  0  0  0
    5.3979    9.6510   29.5699 C   0  0  0  0  0  0  0  0  0  0  0  0
    5.9107    8.6994   30.4260 C   0  0  0  0  0  0  0  0  0  0  0  0
    6.9903    7.9478   30.0405 C   0  0  0  0  0  0  0  0  0  0  0  0
    7.5558    8.1529   28.7920 C   0  0  0  0  0  0  0  0  0  0  0  0
    7.0298    9.1111   27.9451 C   0  0  0  0  0  0  0  0  0  0  0  0
    3.7742   11.5283   28.2020 O   0  0  0  0  0  0  0  0  0  0  0  0
    4.9775   12.9996   25.2426 C   0  0  0  0  0  0  0  0  0  0  0  0
    5.9334   12.2648   24.5848 C   0  0  0  0  0  0  0  0  0  0  0  0
    6.5989   11.1516   25.0604 C   0  0  0  0  0  0  0  0  0  0  0  0
    6.5362   10.5045   26.2873 C   0  0  0  0  0  0  0  0  0  0  0  0
    7.3600    9.5257   26.7013 N   0  0  0  0  0  0  0  0  0  0  0  0
    8.9355    7.2367   28.2220 Cl  0  0  0  0  0  0  0  0  0  0  0  0
  1  2  1  0
  1  4  1  0
  1 14  2  0
  2  3  1  0
  2 10  2  0
  3 11  2  0
  4  5  2  0
  4  9  1  0
  5  6  1  0
  6  7  2  0
  7  8  1  0
  8  9  2  0
  8 16  1  0
  9 15  1  0
 11 12  1  0
 12 13  2  0
 13 14  1  0
 14 15  1  0
M  END
$$$$
