
     RDKit          3D

 16 18  0  0  0  0  0  0  0  0999 V2000
    7.1589    8.0560   28.1276 C   0  0  0  0  0  0  0  0  0  0  0  0
    6.9165    7.4345   29.3469 C   0  0  0  0  0  0  0  0  0  0  0  0
    6.3730    8.0490   30.4734 C   0  0  0  0  0  0  0  0  0  0  0  0
    8.1236    7.5952   27.2363 C   0  0  0  0  0  0  0  0  0  0  0  0
    9.0050    6.5545   27.2633 C   0  0  0  0  0  0  0  0  0  0  0  0
    9.8712    6.3369   26.1969 C   0  0  0  0  0  0  0  0  0  0  0  0
    9.8380    7.1768   25.1089 C   0  0  0  0  0  0  0  0  0  0  0  0
    8.9419    8.2250   25.0951 C   0  0  0  0  0  0  0  0  0  0  0  0
    8.0736    8.4525   26.1514 C   0  0  0  0  0  0  0  0  0  0  0  0
    7.2139    6.2342   29.4218 O   0  0  0  0  0  0  0  0  0  0  0  0
    5.5879    9.1831   30.4729 C   0  0  0  0  0  0  0  0  0  0  0  0
    5.0744    9.9342   29.4100 C   0  0  0  0  0  0  0  0  0  0  0  0
    5.5541    9.9247   28.1174 C   0  0  0  0  0  0  0  0  0  0  0  0
    6.5669    9.1582   27.5629 C   0  0  0  0  0  0  0  0  0  0  0  0
    7.1327    9.3828   26.3684 N   0  0  0  0  0  0  0  0  0  0  0  0
    8.8924    9.3011   23.7123 Cl  0  0  0  0  0  0  0  0  0  0  0  0
  1  2  1  0
  1  4  1  0
  1 14  2  0
  2  3  1  0
  2 10  2  0
  3 11  2  0
  4  5  2  0
  4  9  1  0
  5  6  1  0
  6  7  2  0
  7  8  1  0
  8  9  2  0
  8 16  1  0
  9 15  1  0
 11 12  1  0
 12 13  2  0
 13 14  1  0
 14 15  1  0
M  END
$$$$
