
     RDKit          3D

 16 18  0  0  0  0  0  0  0  0999 V2000
    7.8040    8.0067   28.3721 C   0  0  0  0  0  0  0  0  0  0  0  0
    7.5980    7.3350   29.5714 C   0  0  0  0  0  0  0  0  0  0  0  0
    7.0601    7.8941   30.7290 C   0  0  0  0  0  0  0  0  0  0  0  0
    8.7634    7.6026   27.4483 C   0  0  0  0  0  0  0  0  0  0  0  0
    9.6696    6.5833   27.4217 C   0  0  0  0  0  0  0  0  0  0  0  0
   10.5216    6.4263   26.3335 C   0  0  0  0  0  0  0  0  0  0  0  0
   10.4493    7.3047   25.2783 C   0  0  0  0  0  0  0  0  0  0  0  0
    9.5286    8.3306   25.3185 C   0  0  0  0  0  0  0  0  0  0  0  0
    8.6740    8.4978   26.3971 C   0  0  0  0  0  0  0  0  0  0  0  0
    7.9250    6.1403   29.5965 O   0  0  0  0  0  0  0  0  0  0  0  0
    6.2485    9.0081   30.7839 C   0  0  0  0  0  0  0  0  0  0  0  0
    5.6987    9.7851   29.7585 C   0  0  0  0  0  0  0  0  0  0  0  0
    6.1555    9.8349   28.4586 C   0  0  0  0  0  0  0  0  0  0  0  0
    7.1762    9.1142   27.8590 C   0  0  0  0  0  0  0  0  0  0  0  0
    7.7153    9.3964   26.6644 N   0  0  0  0  0  0  0  0  0  0  0  0
    9.4292    9.4555   23.9779 Cl  0  0  0  0  0  0  0  0  0  0  0  0
  1  2  1  0
  1  4  1  0
  1 14  2  0
  2  3  1  0
  2 10  2  0
  3 11  2  0
  4  5  2  0
  4  9  1  0
  5  6  1  0
  6  7  2  0
  7  8  1  0
  8  9  2  0
  8 16  1  0
  9 15  1  0
 11 12  1  0
 12 13  2  0
 13 14  1  0
 14 15  1  0
M  END
$$$$
