
     RDKit          3D

 16 18  0  0  0  0  0  0  0  0999 V2000
    7.6512    8.1484   28.5078 C   0  0  0  0  0  0  0  0  0  0  0  0
    7.4367    7.4943   29.7152 C   0  0  0  0  0  0  0  0  0  0  0  0
    6.9195    8.0781   30.8700 C   0  0  0  0  0  0  0  0  0  0  0  0
    8.5950    7.7119   27.5825 C   0  0  0  0  0  0  0  0  0  0  0  0
    9.4764    6.6710   27.5613 C   0  0  0  0  0  0  0  0  0  0  0  0
   10.3177    6.4823   26.4697 C   0  0  0  0  0  0  0  0  0  0  0  0
   10.2598    7.3512   25.4058 C   0  0  0  0  0  0  0  0  0  0  0  0
    9.3642    8.3992   25.4407 C   0  0  0  0  0  0  0  0  0  0  0  0
    8.5205    8.5980   26.5225 C   0  0  0  0  0  0  0  0  0  0  0  0
    7.7352    6.2924   29.7510 O   0  0  0  0  0  0  0  0  0  0  0  0
    6.1351    9.2117   30.9181 C   0  0  0  0  0  0  0  0  0  0  0  0
    5.5976    9.9910   29.8878 C   0  0  0  0  0  0  0  0  0  0  0  0
    6.0475   10.0164   28.5848 C   0  0  0  0  0  0  0  0  0  0  0  0
    7.0470    9.2653   27.9867 C   0  0  0  0  0  0  0  0  0  0  0  0
    7.5852    9.5221   26.7860 N   0  0  0  0  0  0  0  0  0  0  0  0
    9.2834    9.5122   24.0889 Cl  0  0  0  0  0  0  0  0  0  0  0  0
  1  2  1  0
  1  4  1  0
  1 14  2  0
  2  3  1  0
  2 10  2  0
  3 11  2  0
  4  5  2  0
  4  9  1  0
  5  6  1  0
  6  7  2  0
  7  8  1  0
  8  9  2  0
  8 16  1  0
  9 15  1  0
 11 12  1  0
 12 13  2  0
 13 14  1  0
 14 15  1  0
M  END
$$$$
