
     RDKit          3D

 16 18  0  0  0  0  0  0  0  0999 V2000
    7.4358    7.9549   28.3017 C   0  0  0  0  0  0  0  0  0  0  0  0
    7.2160    7.3177   29.5172 C   0  0  0  0  0  0  0  0  0  0  0  0
    6.6841    7.9150   30.6584 C   0  0  0  0  0  0  0  0  0  0  0  0
    8.3911    7.5119   27.3914 C   0  0  0  0  0  0  0  0  0  0  0  0
    9.2808    6.4779   27.3937 C   0  0  0  0  0  0  0  0  0  0  0  0
   10.1330    6.2793   26.3125 C   0  0  0  0  0  0  0  0  0  0  0  0
   10.0776    7.1313   25.2349 C   0  0  0  0  0  0  0  0  0  0  0  0
    9.1734    8.1725   25.2460 C   0  0  0  0  0  0  0  0  0  0  0  0
    8.3188    8.3811   26.3173 C   0  0  0  0  0  0  0  0  0  0  0  0
    7.5237    6.1190   29.5740 O   0  0  0  0  0  0  0  0  0  0  0  0
    5.8904    9.0429   30.6822 C   0  0  0  0  0  0  0  0  0  0  0  0
    5.3558    9.8019   29.6355 C   0  0  0  0  0  0  0  0  0  0  0  0
    5.8167    9.8109   28.3362 C   0  0  0  0  0  0  0  0  0  0  0  0
    6.8273    9.0588   27.7583 C   0  0  0  0  0  0  0  0  0  0  0  0
    7.3740    9.3015   26.5585 N   0  0  0  0  0  0  0  0  0  0  0  0
    9.0956    9.2639   23.8766 Cl  0  0  0  0  0  0  0  0  0  0  0  0
  1  2  1  0
  1  4  1  0
  1 14  2  0
  2  3  1  0
  2 10  2  0
  3 11  2  0
  4  5  2  0
  4  9  1  0
  5  6  1  0
  6  7  2  0
  7  8  1  0
  8  9  2  0
  8 16  1  0
  9 15  1  0
 11 12  1  0
 12 13  2  0
 13 14  1  0
 14 15  1  0
M  END
$$$$
