
     RDKit          3D

 16 18  0  0  0  0  0  0  0  0999 V2000
    7.8519    7.9443   28.3158 C   0  0  0  0  0  0  0  0  0  0  0  0
    8.6005    6.8492   28.7306 C   0  0  0  0  0  0  0  0  0  0  0  0
    9.2961    5.9809   27.8913 C   0  0  0  0  0  0  0  0  0  0  0  0
    6.8034    8.4588   29.0731 C   0  0  0  0  0  0  0  0  0  0  0  0
    6.2547    8.1126   30.2730 C   0  0  0  0  0  0  0  0  0  0  0  0
    5.1839    8.8328   30.7921 C   0  0  0  0  0  0  0  0  0  0  0  0
    4.6759    9.9004   30.0904 C   0  0  0  0  0  0  0  0  0  0  0  0
    5.2402   10.2392   28.8786 C   0  0  0  0  0  0  0  0  0  0  0  0
    6.3075    9.5295   28.3505 C   0  0  0  0  0  0  0  0  0  0  0  0
    8.6427    6.6415   29.9512 O   0  0  0  0  0  0  0  0  0  0  0  0
    9.7415    6.2740   26.6192 C   0  0  0  0  0  0  0  0  0  0  0  0
    9.7046    7.4706   25.8950 C   0  0  0  0  0  0  0  0  0  0  0  0
    8.8692    8.5368   26.1522 C   0  0  0  0  0  0  0  0  0  0  0  0
    7.9544    8.7071   27.1793 C   0  0  0  0  0  0  0  0  0  0  0  0
    7.0127    9.6606   27.2176 N   0  0  0  0  0  0  0  0  0  0  0  0
    4.5991   11.5987   27.9768 Cl  0  0  0  0  0  0  0  0  0  0  0  0
  1  2  1  0
  1  4  1  0
  1 14  2  0
  2  3  1  0
  2 10  2  0
  3 11  2  0
  4  5  2  0
  4  9  1  0
  5  6  1  0
  6  7  2  0
  7  8  1  0
  8  9  2  0
  8 16  1  0
  9 15  1  0
 11 12  1  0
 12 13  2  0
 13 14  1  0
 14 15  1  0
M  END
$$$$
