
     RDKit          3D

 16 18  0  0  0  0  0  0  0  0999 V2000
    5.4387   10.8234   27.5019 C   0  0  0  0  0  0  0  0  0  0  0  0
    4.4461   11.7667   27.4288 C   0  0  0  0  0  0  0  0  0  0  0  0
    4.2549   12.8126   26.5199 C   0  0  0  0  0  0  0  0  0  0  0  0
    5.6737    9.9938   28.5711 C   0  0  0  0  0  0  0  0  0  0  0  0
    5.0853    9.8193   29.8038 C   0  0  0  0  0  0  0  0  0  0  0  0
    5.5342    8.8863   30.7146 C   0  0  0  0  0  0  0  0  0  0  0  0
    6.6061    8.0910   30.4024 C   0  0  0  0  0  0  0  0  0  0  0  0
    7.2282    8.2335   29.1723 C   0  0  0  0  0  0  0  0  0  0  0  0
    6.7660    9.1737   28.2699 C   0  0  0  0  0  0  0  0  0  0  0  0
    3.5753   11.6889   28.3018 O   0  0  0  0  0  0  0  0  0  0  0  0
    4.9421   13.0145   25.3445 C   0  0  0  0  0  0  0  0  0  0  0  0
    5.9022   12.2293   24.7546 C   0  0  0  0  0  0  0  0  0  0  0  0
    6.5145   11.1164   25.2977 C   0  0  0  0  0  0  0  0  0  0  0  0
    6.3823   10.5175   26.5434 C   0  0  0  0  0  0  0  0  0  0  0  0
    7.1591    9.5323   27.0270 N   0  0  0  0  0  0  0  0  0  0  0  0
    8.6027    7.2585   28.6944 Cl  0  0  0  0  0  0  0  0  0  0  0  0
  1  2  1  0
  1  4  1  0
  1 14  2  0
  2  3  1  0
  2 10  2  0
  3 11  2  0
  4  5  2  0
  4  9  1  0
  5  6  1  0
  6  7  2  0
  7  8  1  0
  8  9  2  0
  8 16  1  0
  9 15  1  0
 11 12  1  0
 12 13  2  0
 13 14  1  0
 14 15  1  0
M  END
$$$$
