
     RDKit          3D

 16 18  0  0  0  0  0  0  0  0999 V2000
    7.4352    8.0556   28.3254 C   0  0  0  0  0  0  0  0  0  0  0  0
    7.2691    7.3695   29.5226 C   0  0  0  0  0  0  0  0  0  0  0  0
    6.7611    7.9121   30.7014 C   0  0  0  0  0  0  0  0  0  0  0  0
    8.3703    7.6688   27.3697 C   0  0  0  0  0  0  0  0  0  0  0  0
    9.2828    6.6569   27.3057 C   0  0  0  0  0  0  0  0  0  0  0  0
   10.1039    6.5180   26.1915 C   0  0  0  0  0  0  0  0  0  0  0  0
    9.9945    7.4071   25.1486 C   0  0  0  0  0  0  0  0  0  0  0  0
    9.0678    8.4254   25.2267 C   0  0  0  0  0  0  0  0  0  0  0  0
    8.2438    8.5745   26.3314 C   0  0  0  0  0  0  0  0  0  0  0  0
    7.6055    6.1772   29.5252 O   0  0  0  0  0  0  0  0  0  0  0  0
    5.9433    9.0191   30.7921 C   0  0  0  0  0  0  0  0  0  0  0  0
    5.3581    9.8029   29.7916 C   0  0  0  0  0  0  0  0  0  0  0  0
    5.7765    9.8701   28.4796 C   0  0  0  0  0  0  0  0  0  0  0  0
    6.7846    9.1637   27.8427 C   0  0  0  0  0  0  0  0  0  0  0  0
    7.2867    9.4628   26.6362 N   0  0  0  0  0  0  0  0  0  0  0  0
    8.9212    9.5638   23.9019 Cl  0  0  0  0  0  0  0  0  0  0  0  0
  1  2  1  0
  1  4  1  0
  1 14  2  0
  2  3  1  0
  2 10  2  0
  3 11  2  0
  4  5  2  0
  4  9  1  0
  5  6  1  0
  6  7  2  0
  7  8  1  0
  8  9  2  0
  8 16  1  0
  9 15  1  0
 11 12  1  0
 12 13  2  0
 13 14  1  0
 14 15  1  0
M  END
$$$$
