
     RDKit          3D

 16 18  0  0  0  0  0  0  0  0999 V2000
    5.3351   10.6346   27.6641 C   0  0  0  0  0  0  0  0  0  0  0  0
    4.3013   11.5315   27.7495 C   0  0  0  0  0  0  0  0  0  0  0  0
    3.9794   12.6235   26.9370 C   0  0  0  0  0  0  0  0  0  0  0  0
    5.7069    9.7497   28.6467 C   0  0  0  0  0  0  0  0  0  0  0  0
    5.2482    9.4675   29.9140 C   0  0  0  0  0  0  0  0  0  0  0  0
    5.8218    8.5003   30.7121 C   0  0  0  0  0  0  0  0  0  0  0  0
    6.8910    7.7797   30.2468 C   0  0  0  0  0  0  0  0  0  0  0  0
    7.3848    8.0316   28.9767 C   0  0  0  0  0  0  0  0  0  0  0  0
    6.7984    9.0048   28.1886 C   0  0  0  0  0  0  0  0  0  0  0  0
    3.5229   11.3552   28.6926 O   0  0  0  0  0  0  0  0  0  0  0  0
    4.5407   12.9342   25.7192 C   0  0  0  0  0  0  0  0  0  0  0  0
    5.4715   12.2363   24.9892 C   0  0  0  0  0  0  0  0  0  0  0  0
    6.1796   11.1214   25.3944 C   0  0  0  0  0  0  0  0  0  0  0  0
    6.1937   10.4374   26.6026 C   0  0  0  0  0  0  0  0  0  0  0  0
    7.0543    9.4617   26.9421 N   0  0  0  0  0  0  0  0  0  0  0  0
    8.7464    7.1572   28.3061 Cl  0  0  0  0  0  0  0  0  0  0  0  0
  1  2  1  0
  1  4  1  0
  1 14  2  0
  2  3  1  0
  2 10  2  0
  3 11  2  0
  4  5  2  0
  4  9  1  0
  5  6  1  0
  6  7  2  0
  7  8  1  0
  8  9  2  0
  8 16  1  0
  9 15  1  0
 11 12  1  0
 12 13  2  0
 13 14  1  0
 14 15  1  0
M  END
$$$$
