
     RDKit          3D

 16 18  0  0  0  0  0  0  0  0999 V2000
    5.1766   10.4875   28.3408 C   0  0  0  0  0  0  0  0  0  0  0  0
    4.1024   11.2592   28.7027 C   0  0  0  0  0  0  0  0  0  0  0  0
    3.5817   12.4188   28.1190 C   0  0  0  0  0  0  0  0  0  0  0  0
    5.7562    9.5129   29.1160 C   0  0  0  0  0  0  0  0  0  0  0  0
    5.5137    9.0115   30.3754 C   0  0  0  0  0  0  0  0  0  0  0  0
    6.2709    8.0014   30.9300 C   0  0  0  0  0  0  0  0  0  0  0  0
    7.3103    7.4604   30.2185 C   0  0  0  0  0  0  0  0  0  0  0  0
    7.5892    7.9357   28.9469 C   0  0  0  0  0  0  0  0  0  0  0  0
    6.8204    8.9491   28.4049 C   0  0  0  0  0  0  0  0  0  0  0  0
    3.4885   10.8771   29.7046 O   0  0  0  0  0  0  0  0  0  0  0  0
    3.9305   12.9511   26.8985 C   0  0  0  0  0  0  0  0  0  0  0  0
    4.7923   12.4565   25.9503 C   0  0  0  0  0  0  0  0  0  0  0  0
    5.6348   11.3693   26.0794 C   0  0  0  0  0  0  0  0  0  0  0  0
    5.8801   10.5262   27.1549 C   0  0  0  0  0  0  0  0  0  0  0  0
    6.8527    9.6001   27.2203 N   0  0  0  0  0  0  0  0  0  0  0  0
    8.8979    7.3005   27.9712 Cl  0  0  0  0  0  0  0  0  0  0  0  0
  1  2  1  0
  1  4  1  0
  1 14  2  0
  2  3  1  0
  2 10  2  0
  3 11  2  0
  4  5  2  0
  4  9  1  0
  5  6  1  0
  6  7  2  0
  7  8  1  0
  8  9  2  0
  8 16  1  0
  9 15  1  0
 11 12  1  0
 12 13  2  0
 13 14  1  0
 14 15  1  0
M  END
$$$$
