
     RDKit          3D

 16 18  0  0  0  0  0  0  0  0999 V2000
    5.4897   10.6559   27.2685 C   0  0  0  0  0  0  0  0  0  0  0  0
    4.4763   11.6028   27.3590 C   0  0  0  0  0  0  0  0  0  0  0  0
    4.4135   12.7913   26.6340 C   0  0  0  0  0  0  0  0  0  0  0  0
    5.7882    9.7835   28.3112 C   0  0  0  0  0  0  0  0  0  0  0  0
    5.2707    9.6025   29.5603 C   0  0  0  0  0  0  0  0  0  0  0  0
    5.7887    8.6243   30.4026 C   0  0  0  0  0  0  0  0  0  0  0  0
    6.8292    7.8352   29.9725 C   0  0  0  0  0  0  0  0  0  0  0  0
    7.3426    8.0291   28.7074 C   0  0  0  0  0  0  0  0  0  0  0  0
    6.8352    9.0004   27.8585 C   0  0  0  0  0  0  0  0  0  0  0  0
    3.5601   11.3544   28.1550 O   0  0  0  0  0  0  0  0  0  0  0  0
    5.0429   13.0358   25.4312 C   0  0  0  0  0  0  0  0  0  0  0  0
    5.7959   12.1899   24.6095 C   0  0  0  0  0  0  0  0  0  0  0  0
    6.3974   11.0147   25.0069 C   0  0  0  0  0  0  0  0  0  0  0  0
    6.3511   10.3773   26.2367 C   0  0  0  0  0  0  0  0  0  0  0  0
    7.1571    9.3738   26.6115 N   0  0  0  0  0  0  0  0  0  0  0  0
    8.6692    7.0279   28.1505 Cl  0  0  0  0  0  0  0  0  0  0  0  0
  1  2  1  0
  1  4  1  0
  1 14  2  0
  2  3  1  0
  2 10  2  0
  3 11  2  0
  4  5  2  0
  4  9  1  0
  5  6  1  0
  6  7  2  0
  7  8  1  0
  8  9  2  0
  8 16  1  0
  9 15  1  0
 11 12  1  0
 12 13  2  0
 13 14  1  0
 14 15  1  0
M  END
$$$$
