
     RDKit          3D

 16 18  0  0  0  0  0  0  0  0999 V2000
    7.6953    9.3730   27.0235 C   0  0  0  0  0  0  0  0  0  0  0  0
    8.7989    8.7315   26.5228 C   0  0  0  0  0  0  0  0  0  0  0  0
    9.3643    8.7649   25.2438 C   0  0  0  0  0  0  0  0  0  0  0  0
    7.0784    9.0858   28.2167 C   0  0  0  0  0  0  0  0  0  0  0  0
    7.3015    8.1717   29.2220 C   0  0  0  0  0  0  0  0  0  0  0  0
    6.5056    8.0958   30.3454 C   0  0  0  0  0  0  0  0  0  0  0  0
    5.4457    8.9532   30.4882 C   0  0  0  0  0  0  0  0  0  0  0  0
    5.1851    9.8890   29.4999 C   0  0  0  0  0  0  0  0  0  0  0  0
    5.9927    9.9525   28.3793 C   0  0  0  0  0  0  0  0  0  0  0  0
    9.3977    8.0042   27.3222 O   0  0  0  0  0  0  0  0  0  0  0  0
    9.0361    9.6288   24.2237 C   0  0  0  0  0  0  0  0  0  0  0  0
    8.1554   10.6827   24.2285 C   0  0  0  0  0  0  0  0  0  0  0  0
    7.2711   11.0222   25.2340 C   0  0  0  0  0  0  0  0  0  0  0  0
    6.9934   10.4132   26.4506 C   0  0  0  0  0  0  0  0  0  0  0  0
    5.9854   10.7381   27.2790 N   0  0  0  0  0  0  0  0  0  0  0  0
    3.8523   11.0209   29.6036 Cl  0  0  0  0  0  0  0  0  0  0  0  0
  1  2  1  0
  1  4  1  0
  1 14  2  0
  2  3  1  0
  2 10  2  0
  3 11  2  0
  4  5  2  0
  4  9  1  0
  5  6  1  0
  6  7  2  0
  7  8  1  0
  8  9  2  0
  8 16  1  0
  9 15  1  0
 11 12  1  0
 12 13  2  0
 13 14  1  0
 14 15  1  0
M  END
$$$$
