
     RDKit          3D

 16 18  0  0  0  0  0  0  0  0999 V2000
    7.6941    7.8205   28.1576 C   0  0  0  0  0  0  0  0  0  0  0  0
    8.4855    6.7634   28.5914 C   0  0  0  0  0  0  0  0  0  0  0  0
    9.1997    5.8968   27.7663 C   0  0  0  0  0  0  0  0  0  0  0  0
    6.6384    8.3194   28.9152 C   0  0  0  0  0  0  0  0  0  0  0  0
    6.1177    7.9877   30.1316 C   0  0  0  0  0  0  0  0  0  0  0  0
    5.0294    8.6848   30.6460 C   0  0  0  0  0  0  0  0  0  0  0  0
    4.4756    9.7147   29.9228 C   0  0  0  0  0  0  0  0  0  0  0  0
    5.0121   10.0392   28.6946 C   0  0  0  0  0  0  0  0  0  0  0  0
    6.0964    9.3522   28.1710 C   0  0  0  0  0  0  0  0  0  0  0  0
    8.5507    6.5910   29.8165 O   0  0  0  0  0  0  0  0  0  0  0  0
    9.6181    6.1698   26.4806 C   0  0  0  0  0  0  0  0  0  0  0  0
    9.5305    7.3441   25.7249 C   0  0  0  0  0  0  0  0  0  0  0  0
    8.6621    8.3878   25.9648 C   0  0  0  0  0  0  0  0  0  0  0  0
    7.7553    8.5548   26.9996 C   0  0  0  0  0  0  0  0  0  0  0  0
    6.7818    9.4762   27.0253 N   0  0  0  0  0  0  0  0  0  0  0  0
    4.3127   11.3507   27.7654 Cl  0  0  0  0  0  0  0  0  0  0  0  0
  1  2  1  0
  1  4  1  0
  1 14  2  0
  2  3  1  0
  2 10  2  0
  3 11  2  0
  4  5  2  0
  4  9  1  0
  5  6  1  0
  6  7  2  0
  7  8  1  0
  8  9  2  0
  8 16  1  0
  9 15  1  0
 11 12  1  0
 12 13  2  0
 13 14  1  0
 14 15  1  0
M  END
$$$$
