
     RDKit          3D

 16 18  0  0  0  0  0  0  0  0999 V2000
    7.3121    7.9897   28.3958 C   0  0  0  0  0  0  0  0  0  0  0  0
    7.1361    7.3231   29.6026 C   0  0  0  0  0  0  0  0  0  0  0  0
    6.6101    7.8822   30.7656 C   0  0  0  0  0  0  0  0  0  0  0  0
    8.2614    7.5932   27.4582 C   0  0  0  0  0  0  0  0  0  0  0  0
    9.1814    6.5866   27.4226 C   0  0  0  0  0  0  0  0  0  0  0  0
   10.0170    6.4345   26.3210 C   0  0  0  0  0  0  0  0  0  0  0  0
    9.9142    7.3048   25.2617 C   0  0  0  0  0  0  0  0  0  0  0  0
    8.9798    8.3178   25.3111 C   0  0  0  0  0  0  0  0  0  0  0  0
    8.1414    8.4801   26.4030 C   0  0  0  0  0  0  0  0  0  0  0  0
    7.4805    6.1334   29.6297 O   0  0  0  0  0  0  0  0  0  0  0  0
    5.7838    8.9849   30.8274 C   0  0  0  0  0  0  0  0  0  0  0  0
    5.2056    9.7473   29.8066 C   0  0  0  0  0  0  0  0  0  0  0  0
    5.6395    9.7950   28.4988 C   0  0  0  0  0  0  0  0  0  0  0  0
    6.6600    9.0848   27.8863 C   0  0  0  0  0  0  0  0  0  0  0  0
    7.1747    9.3668   26.6809 N   0  0  0  0  0  0  0  0  0  0  0  0
    8.8416    9.4323   23.9652 Cl  0  0  0  0  0  0  0  0  0  0  0  0
  1  2  1  0
  1  4  1  0
  1 14  2  0
  2  3  1  0
  2 10  2  0
  3 11  2  0
  4  5  2  0
  4  9  1  0
  5  6  1  0
  6  7  2  0
  7  8  1  0
  8  9  2  0
  8 16  1  0
  9 15  1  0
 11 12  1  0
 12 13  2  0
 13 14  1  0
 14 15  1  0
M  END
$$$$
