
     RDKit          3D

 16 18  0  0  0  0  0  0  0  0999 V2000
    5.4251   10.5600   27.4021 C   0  0  0  0  0  0  0  0  0  0  0  0
    4.3947   11.4915   27.4507 C   0  0  0  0  0  0  0  0  0  0  0  0
    4.3362   12.6713   26.7115 C   0  0  0  0  0  0  0  0  0  0  0  0
    5.7041    9.7031   28.4630 C   0  0  0  0  0  0  0  0  0  0  0  0
    5.1503    9.5266   29.6970 C   0  0  0  0  0  0  0  0  0  0  0  0
    5.6567    8.5654   30.5656 C   0  0  0  0  0  0  0  0  0  0  0  0
    6.7225    7.7887   30.1769 C   0  0  0  0  0  0  0  0  0  0  0  0
    7.2726    7.9780   28.9266 C   0  0  0  0  0  0  0  0  0  0  0  0
    6.7771    8.9324   28.0518 C   0  0  0  0  0  0  0  0  0  0  0  0
    3.4577   11.2365   28.2201 O   0  0  0  0  0  0  0  0  0  0  0  0
    4.9994   12.9137   25.5266 C   0  0  0  0  0  0  0  0  0  0  0  0
    5.7912   12.0717   24.7380 C   0  0  0  0  0  0  0  0  0  0  0  0
    6.3981   10.9104   25.1666 C   0  0  0  0  0  0  0  0  0  0  0  0
    6.3229   10.2848   26.4011 C   0  0  0  0  0  0  0  0  0  0  0  0
    7.1324    9.2982   26.8117 N   0  0  0  0  0  0  0  0  0  0  0  0
    8.6317    6.9925   28.4223 Cl  0  0  0  0  0  0  0  0  0  0  0  0
  1  2  1  0
  1  4  1  0
  1 14  2  0
  2  3  1  0
  2 10  2  0
  3 11  2  0
  4  5  2  0
  4  9  1  0
  5  6  1  0
  6  7  2  0
  7  8  1  0
  8  9  2  0
  8 16  1  0
  9 15  1  0
 11 12  1  0
 12 13  2  0
 13 14  1  0
 14 15  1  0
M  END
$$$$
