
     RDKit          3D

 16 18  0  0  0  0  0  0  0  0999 V2000
    7.5127    8.0439   28.3628 C   0  0  0  0  0  0  0  0  0  0  0  0
    7.2932    7.4246   29.5665 C   0  0  0  0  0  0  0  0  0  0  0  0
    6.5932    7.8612   30.6960 C   0  0  0  0  0  0  0  0  0  0  0  0
    8.4170    7.6400   27.4110 C   0  0  0  0  0  0  0  0  0  0  0  0
    9.3212    6.6056   27.3174 C   0  0  0  0  0  0  0  0  0  0  0  0
   10.1315    6.4263   26.2162 C   0  0  0  0  0  0  0  0  0  0  0  0
   10.0512    7.2991   25.1624 C   0  0  0  0  0  0  0  0  0  0  0  0
    9.1546    8.3545   25.2152 C   0  0  0  0  0  0  0  0  0  0  0  0
    8.3488    8.5206   26.3266 C   0  0  0  0  0  0  0  0  0  0  0  0
    7.7894    6.2990   29.6820 O   0  0  0  0  0  0  0  0  0  0  0  0
    5.7804    8.9688   30.7805 C   0  0  0  0  0  0  0  0  0  0  0  0
    5.4085    9.8497   29.7946 C   0  0  0  0  0  0  0  0  0  0  0  0
    5.9002    9.9097   28.5050 C   0  0  0  0  0  0  0  0  0  0  0  0
    6.8881    9.1701   27.8686 C   0  0  0  0  0  0  0  0  0  0  0  0
    7.4051    9.4313   26.6552 N   0  0  0  0  0  0  0  0  0  0  0  0
    8.9888    9.5143   23.9131 Cl  0  0  0  0  0  0  0  0  0  0  0  0
  1  2  1  0
  1  4  1  0
  1 14  2  0
  2  3  1  0
  2 10  2  0
  3 11  2  0
  4  5  2  0
  4  9  1  0
  5  6  1  0
  6  7  2  0
  7  8  1  0
  8  9  2  0
  8 16  1  0
  9 15  1  0
 11 12  1  0
 12 13  2  0
 13 14  1  0
 14 15  1  0
M  END
$$$$
