
     RDKit          3D

 16 18  0  0  0  0  0  0  0  0999 V2000
    7.5928    8.1175   28.3368 C   0  0  0  0  0  0  0  0  0  0  0  0
    7.3796    7.4585   29.5417 C   0  0  0  0  0  0  0  0  0  0  0  0
    6.8383    8.0308   30.6913 C   0  0  0  0  0  0  0  0  0  0  0  0
    8.5551    7.7013   27.4212 C   0  0  0  0  0  0  0  0  0  0  0  0
    9.4583    6.6792   27.4089 C   0  0  0  0  0  0  0  0  0  0  0  0
   10.3147    6.5086   26.3261 C   0  0  0  0  0  0  0  0  0  0  0  0
   10.2496    7.3766   25.2619 C   0  0  0  0  0  0  0  0  0  0  0  0
    9.3319    8.4056   25.2877 C   0  0  0  0  0  0  0  0  0  0  0  0
    8.4730    8.5862   26.3607 C   0  0  0  0  0  0  0  0  0  0  0  0
    7.7029    6.2632   29.5803 O   0  0  0  0  0  0  0  0  0  0  0  0
    6.0298    9.1477   30.7315 C   0  0  0  0  0  0  0  0  0  0  0  0
    5.4868    9.9160   29.6958 C   0  0  0  0  0  0  0  0  0  0  0  0
    5.9495    9.9514   28.3976 C   0  0  0  0  0  0  0  0  0  0  0  0
    6.9707    9.2217   27.8097 C   0  0  0  0  0  0  0  0  0  0  0  0
    7.5159    9.4902   26.6147 N   0  0  0  0  0  0  0  0  0  0  0  0
    9.2417    9.5172   23.9354 Cl  0  0  0  0  0  0  0  0  0  0  0  0
  1  2  1  0
  1  4  1  0
  1 14  2  0
  2  3  1  0
  2 10  2  0
  3 11  2  0
  4  5  2  0
  4  9  1  0
  5  6  1  0
  6  7  2  0
  7  8  1  0
  8  9  2  0
  8 16  1  0
  9 15  1  0
 11 12  1  0
 12 13  2  0
 13 14  1  0
 14 15  1  0
M  END
$$$$
