
     RDKit          3D

 16 18  0  0  0  0  0  0  0  0999 V2000
    7.2123    8.0893   28.6124 C   0  0  0  0  0  0  0  0  0  0  0  0
    6.9896    7.4982   29.8504 C   0  0  0  0  0  0  0  0  0  0  0  0
    6.4674    8.1414   30.9710 C   0  0  0  0  0  0  0  0  0  0  0  0
    8.1602    7.6042   27.7160 C   0  0  0  0  0  0  0  0  0  0  0  0
    9.0392    6.5618   27.7529 C   0  0  0  0  0  0  0  0  0  0  0  0
    9.8861    6.3158   26.6772 C   0  0  0  0  0  0  0  0  0  0  0  0
    9.8361    7.1293   25.5699 C   0  0  0  0  0  0  0  0  0  0  0  0
    8.9426    8.1795   25.5462 C   0  0  0  0  0  0  0  0  0  0  0  0
    8.0935    8.4351   26.6116 C   0  0  0  0  0  0  0  0  0  0  0  0
    7.2852    6.2992   29.9493 O   0  0  0  0  0  0  0  0  0  0  0  0
    5.6854    9.2776   30.9566 C   0  0  0  0  0  0  0  0  0  0  0  0
    5.1553   10.0042   29.8849 C   0  0  0  0  0  0  0  0  0  0  0  0
    5.6124    9.9620   28.5848 C   0  0  0  0  0  0  0  0  0  0  0  0
    6.6134    9.1793   28.0315 C   0  0  0  0  0  0  0  0  0  0  0  0
    7.1589    9.3733   26.8223 N   0  0  0  0  0  0  0  0  0  0  0  0
    8.8718    9.2221   24.1388 Cl  0  0  0  0  0  0  0  0  0  0  0  0
  1  2  1  0
  1  4  1  0
  1 14  2  0
  2  3  1  0
  2 10  2  0
  3 11  2  0
  4  5  2  0
  4  9  1  0
  5  6  1  0
  6  7  2  0
  7  8  1  0
  8  9  2  0
  8 16  1  0
  9 15  1  0
 11 12  1  0
 12 13  2  0
 13 14  1  0
 14 15  1  0
M  END
$$$$
