
     RDKit          3D

 16 18  0  0  0  0  0  0  0  0999 V2000
    5.4083   10.7617   27.2289 C   0  0  0  0  0  0  0  0  0  0  0  0
    4.4120   11.7038   27.2121 C   0  0  0  0  0  0  0  0  0  0  0  0
    4.1940   12.7770   26.3420 C   0  0  0  0  0  0  0  0  0  0  0  0
    5.6739    9.8997   28.2648 C   0  0  0  0  0  0  0  0  0  0  0  0
    5.1193    9.6848   29.5068 C   0  0  0  0  0  0  0  0  0  0  0  0
    5.5947    8.7252   30.3754 C   0  0  0  0  0  0  0  0  0  0  0  0
    6.6596    7.9434   30.0097 C   0  0  0  0  0  0  0  0  0  0  0  0
    7.2480    8.1263   28.7684 C   0  0  0  0  0  0  0  0  0  0  0  0
    6.7595    9.0929   27.9087 C   0  0  0  0  0  0  0  0  0  0  0  0
    3.5652   11.5960   28.1053 O   0  0  0  0  0  0  0  0  0  0  0  0
    4.8488   13.0178   25.1555 C   0  0  0  0  0  0  0  0  0  0  0  0
    5.7945   12.2544   24.5156 C   0  0  0  0  0  0  0  0  0  0  0  0
    6.4236   11.1269   25.0068 C   0  0  0  0  0  0  0  0  0  0  0  0
    6.3265   10.4889   26.2362 C   0  0  0  0  0  0  0  0  0  0  0  0
    7.1182    9.4914   26.6676 N   0  0  0  0  0  0  0  0  0  0  0  0
    8.6113    7.1710   28.2234 Cl  0  0  0  0  0  0  0  0  0  0  0  0
  1  2  1  0
  1  4  1  0
  1 14  2  0
  2  3  1  0
  2 10  2  0
  3 11  2  0
  4  5  2  0
  4  9  1  0
  5  6  1  0
  6  7  2  0
  7  8  1  0
  8  9  2  0
  8 16  1  0
  9 15  1  0
 11 12  1  0
 12 13  2  0
 13 14  1  0
 14 15  1  0
M  END
$$$$
