
     RDKit          3D

 16 18  0  0  0  0  0  0  0  0999 V2000
    5.5190   10.4966   27.2247 C   0  0  0  0  0  0  0  0  0  0  0  0
    4.5213   11.4635   27.2620 C   0  0  0  0  0  0  0  0  0  0  0  0
    4.5005   12.6332   26.5048 C   0  0  0  0  0  0  0  0  0  0  0  0
    5.7725    9.6472   28.2978 C   0  0  0  0  0  0  0  0  0  0  0  0
    5.2176    9.5088   29.5362 C   0  0  0  0  0  0  0  0  0  0  0  0
    5.6941    8.5443   30.4180 C   0  0  0  0  0  0  0  0  0  0  0  0
    6.7312    7.7256   30.0380 C   0  0  0  0  0  0  0  0  0  0  0  0
    7.2828    7.8766   28.7831 C   0  0  0  0  0  0  0  0  0  0  0  0
    6.8170    8.8339   27.8952 C   0  0  0  0  0  0  0  0  0  0  0  0
    3.5791   11.2527   28.0383 O   0  0  0  0  0  0  0  0  0  0  0  0
    5.1671   12.8343   25.3141 C   0  0  0  0  0  0  0  0  0  0  0  0
    5.9267   11.9536   24.5362 C   0  0  0  0  0  0  0  0  0  0  0  0
    6.4951   10.7789   24.9808 C   0  0  0  0  0  0  0  0  0  0  0  0
    6.4032   10.1754   26.2251 C   0  0  0  0  0  0  0  0  0  0  0  0
    7.1799    9.1681   26.6484 N   0  0  0  0  0  0  0  0  0  0  0  0
    8.6054    6.8375   28.2899 Cl  0  0  0  0  0  0  0  0  0  0  0  0
  1  2  1  0
  1  4  1  0
  1 14  2  0
  2  3  1  0
  2 10  2  0
  3 11  2  0
  4  5  2  0
  4  9  1  0
  5  6  1  0
  6  7  2  0
  7  8  1  0
  8  9  2  0
  8 16  1  0
  9 15  1  0
 11 12  1  0
 12 13  2  0
 13 14  1  0
 14 15  1  0
M  END
$$$$
