
     RDKit          3D

 16 18  0  0  0  0  0  0  0  0999 V2000
    5.4824   10.6531   27.3499 C   0  0  0  0  0  0  0  0  0  0  0  0
    4.4802   11.6156   27.3784 C   0  0  0  0  0  0  0  0  0  0  0  0
    4.4617   12.7858   26.6219 C   0  0  0  0  0  0  0  0  0  0  0  0
    5.7291    9.8038   28.4248 C   0  0  0  0  0  0  0  0  0  0  0  0
    5.1628    9.6620   29.6577 C   0  0  0  0  0  0  0  0  0  0  0  0
    5.6348    8.6988   30.5433 C   0  0  0  0  0  0  0  0  0  0  0  0
    6.6791    7.8849   30.1727 C   0  0  0  0  0  0  0  0  0  0  0  0
    7.2422    8.0394   28.9234 C   0  0  0  0  0  0  0  0  0  0  0  0
    6.7809    8.9953   28.0318 C   0  0  0  0  0  0  0  0  0  0  0  0
    3.5314   11.4001   28.1453 O   0  0  0  0  0  0  0  0  0  0  0  0
    5.1390   12.9908   25.4379 C   0  0  0  0  0  0  0  0  0  0  0  0
    5.9099   12.1141   24.6667 C   0  0  0  0  0  0  0  0  0  0  0  0
    6.4790   10.9414   25.1159 C   0  0  0  0  0  0  0  0  0  0  0  0
    6.3776   10.3365   26.3588 C   0  0  0  0  0  0  0  0  0  0  0  0
    7.1546    9.3322   26.7888 N   0  0  0  0  0  0  0  0  0  0  0  0
    8.5741    7.0063   28.4422 Cl  0  0  0  0  0  0  0  0  0  0  0  0
  1  2  1  0
  1  4  1  0
  1 14  2  0
  2  3  1  0
  2 10  2  0
  3 11  2  0
  4  5  2  0
  4  9  1  0
  5  6  1  0
  6  7  2  0
  7  8  1  0
  8  9  2  0
  8 16  1  0
  9 15  1  0
 11 12  1  0
 12 13  2  0
 13 14  1  0
 14 15  1  0
M  END
$$$$
