
     RDKit          3D

 16 18  0  0  0  0  0  0  0  0999 V2000
    7.9180    8.0679   28.2120 C   0  0  0  0  0  0  0  0  0  0  0  0
    8.7711    7.0126   28.5127 C   0  0  0  0  0  0  0  0  0  0  0  0
    9.4720    6.2492   27.5811 C   0  0  0  0  0  0  0  0  0  0  0  0
    6.8867    8.4564   29.0622 C   0  0  0  0  0  0  0  0  0  0  0  0
    6.4453    8.0021   30.2703 C   0  0  0  0  0  0  0  0  0  0  0  0
    5.3608    8.6071   30.8971 C   0  0  0  0  0  0  0  0  0  0  0  0
    4.7302    9.6696   30.2941 C   0  0  0  0  0  0  0  0  0  0  0  0
    5.1870   10.1183   29.0727 C   0  0  0  0  0  0  0  0  0  0  0  0
    6.2666    9.5242   28.4379 C   0  0  0  0  0  0  0  0  0  0  0  0
    8.9089    6.7410   29.7136 O   0  0  0  0  0  0  0  0  0  0  0  0
    9.8097    6.6465   26.3041 C   0  0  0  0  0  0  0  0  0  0  0  0
    9.6370    7.8753   25.6576 C   0  0  0  0  0  0  0  0  0  0  0  0
    8.7440    8.8575   26.0299 C   0  0  0  0  0  0  0  0  0  0  0  0
    7.8888    8.8987   27.1198 C   0  0  0  0  0  0  0  0  0  0  0  0
    6.8839    9.7727   27.2738 N   0  0  0  0  0  0  0  0  0  0  0  0
    4.3892   11.4724   28.2963 Cl  0  0  0  0  0  0  0  0  0  0  0  0
  1  2  1  0
  1  4  1  0
  1 14  2  0
  2  3  1  0
  2 10  2  0
  3 11  2  0
  4  5  2  0
  4  9  1  0
  5  6  1  0
  6  7  2  0
  7  8  1  0
  8  9  2  0
  8 16  1  0
  9 15  1  0
 11 12  1  0
 12 13  2  0
 13 14  1  0
 14 15  1  0
M  END
$$$$
