
     RDKit          3D

 16 18  0  0  0  0  0  0  0  0999 V2000
    5.2474   10.7746   27.3453 C   0  0  0  0  0  0  0  0  0  0  0  0
    4.2719   11.7382   27.3315 C   0  0  0  0  0  0  0  0  0  0  0  0
    4.0740   12.8152   26.4613 C   0  0  0  0  0  0  0  0  0  0  0  0
    5.4982    9.9078   28.3810 C   0  0  0  0  0  0  0  0  0  0  0  0
    4.9439    9.7063   29.6253 C   0  0  0  0  0  0  0  0  0  0  0  0
    5.4016    8.7372   30.4929 C   0  0  0  0  0  0  0  0  0  0  0  0
    6.4477    7.9320   30.1238 C   0  0  0  0  0  0  0  0  0  0  0  0
    7.0351    8.1009   28.8800 C   0  0  0  0  0  0  0  0  0  0  0  0
    6.5644    9.0772   28.0213 C   0  0  0  0  0  0  0  0  0  0  0  0
    3.4265   11.6497   28.2281 O   0  0  0  0  0  0  0  0  0  0  0  0
    4.7292   13.0406   25.2719 C   0  0  0  0  0  0  0  0  0  0  0  0
    5.6554   12.2561   24.6291 C   0  0  0  0  0  0  0  0  0  0  0  0
    6.2616   11.1155   25.1189 C   0  0  0  0  0  0  0  0  0  0  0  0
    6.1554   10.4809   26.3493 C   0  0  0  0  0  0  0  0  0  0  0  0
    6.9268    9.4667   26.7784 N   0  0  0  0  0  0  0  0  0  0  0  0
    8.3749    7.1154   28.3305 Cl  0  0  0  0  0  0  0  0  0  0  0  0
  1  2  1  0
  1  4  1  0
  1 14  2  0
  2  3  1  0
  2 10  2  0
  3 11  2  0
  4  5  2  0
  4  9  1  0
  5  6  1  0
  6  7  2  0
  7  8  1  0
  8  9  2  0
  8 16  1  0
  9 15  1  0
 11 12  1  0
 12 13  2  0
 13 14  1  0
 14 15  1  0
M  END
$$$$
