
     RDKit          3D

 27 29  0  0  0  0  0  0  0  0999 V2000
   32.0664   11.2191   78.8713 C   0  0  0  0  0  0  0  0  0  0  0  0
   32.4434   10.2781   77.9396 C   0  0  0  0  0  0  0  0  0  0  0  0
   33.7606   10.2362   77.5328 C   0  0  0  0  0  0  0  0  0  0  0  0
   34.6840   11.1202   78.0496 C   0  0  0  0  0  0  0  0  0  0  0  0
   34.2976   12.0639   78.9865 C   0  0  0  0  0  0  0  0  0  0  0  0
   32.9882   12.1129   79.3970 C   0  0  0  0  0  0  0  0  0  0  0  0
   31.4937    9.3389   77.3850 C   0  0  0  0  0  0  0  0  0  0  0  0
   32.5299   13.3202   80.5850 S   0  0  2  0  0  6  0  0  0  0  0  0
   33.3762   13.0072   81.8185 O   0  0  0  0  0  0  0  0  0  0  0  0
   31.1315   13.0460   80.9571 O   0  0  0  0  0  0  0  0  0  0  0  0
   35.2570   13.0287   79.5657 C   0  0  0  0  0  0  0  0  0  0  0  0
   32.9118   14.8523   80.0683 N   0  0  0  0  0  0  0  0  0  0  0  0
   32.2338   15.4833   79.0400 C   0  0  1  0  0  0  0  0  0  0  0  0
   32.0303   16.9567   79.4251 C   0  0  0  0  0  0  0  0  0  0  0  0
   32.9420   17.7693   78.5720 C   0  0  0  0  0  0  0  0  0  0  0  0
   33.8010   16.7485   77.8618 C   0  0  0  0  0  0  0  0  0  0  0  0
   32.8707   15.5973   77.7046 C   0  0  0  0  0  0  0  0  0  0  0  0
   30.3886    8.8059   77.9912 C   0  0  0  0  0  0  0  0  0  0  0  0
   29.8220    8.0064   77.1237 O   0  0  0  0  0  0  0  0  0  0  0  0
   30.4808    7.9897   76.0136 N   0  0  0  0  0  0  0  0  0  0  0  0
   31.5439    8.8099   76.1190 C   0  0  0  0  0  0  0  0  0  0  0  0
   32.5711    9.0958   75.0861 C   0  0  0  0  0  0  0  0  0  0  0  0
   29.9010    9.0572   79.3477 C   0  0  0  0  0  0  0  0  0  0  0  0
   28.5033    8.8304   79.5227 N   0  0  0  0  0  0  0  0  0  0  0  0
   27.9203    9.0609   80.7932 C   0  0  0  0  0  0  0  0  0  0  0  0
   28.5698    9.5179   81.7756 O   0  0  0  0  0  0  0  0  0  0  0  0
   26.4709    8.7750   81.0667 C   0  0  0  0  0  0  0  0  0  0  0  0
  1  2  2  0
  1  6  1  0
  2  3  1  0
  2  7  1  0
  3  4  2  0
  4  5  1  0
  5  6  2  0
 11  5  1  6
  6  8  1  0
  7 18  2  0
  7 21  1  0
  8  9  2  0
  8 10  2  0
  8 12  1  6
 13 12  1  1
 14 13  1  1
 13 17  1  0
 15 14  1  1
 16 15  1  1
 17 16  1  6
 18 19  1  0
 18 23  1  0
 19 20  1  0
 20 21  2  0
 22 21  1  6
 23 24  1  6
 24 25  1  0
 25 26  2  0
 27 25  1  6
M  END
$$$$
