
     RDKit          3D

 27 29  0  0  0  0  0  0  0  0999 V2000
   32.6394   11.4414   79.2098 C   0  0  0  0  0  0  0  0  0  0  0  0
   32.7396   10.4580   78.2577 C   0  0  0  0  0  0  0  0  0  0  0  0
   34.0054    9.9792   77.9817 C   0  0  0  0  0  0  0  0  0  0  0  0
   35.1141   10.4803   78.6455 C   0  0  0  0  0  0  0  0  0  0  0  0
   34.9933   11.4781   79.6084 C   0  0  0  0  0  0  0  0  0  0  0  0
   33.7404   11.9693   79.8990 C   0  0  0  0  0  0  0  0  0  0  0  0
   31.6012    9.9047   77.5354 C   0  0  0  0  0  0  0  0  0  0  0  0
   33.4854   13.2149   81.0972 S   0  0  2  0  0  6  0  0  0  0  0  0
   34.7697   13.9959   81.2391 O   0  0  0  0  0  0  0  0  0  0  0  0
   33.2054   12.6139   82.4501 O   0  0  0  0  0  0  0  0  0  0  0  0
   36.2172   11.9818   80.2825 C   0  0  0  0  0  0  0  0  0  0  0  0
   32.2485   14.3151   80.7206 N   0  0  0  0  0  0  0  0  0  0  0  0
   32.6706   15.2106   79.6846 C   0  0  1  0  0  0  0  0  0  0  0  0
   32.4831   14.6039   78.3019 C   0  0  0  0  0  0  0  0  0  0  0  0
   31.6855   15.5606   77.4796 C   0  0  0  0  0  0  0  0  0  0  0  0
   31.5996   16.8437   78.2376 C   0  0  0  0  0  0  0  0  0  0  0  0
   31.9932   16.5382   79.6639 C   0  0  0  0  0  0  0  0  0  0  0  0
   30.3387    9.8071   78.0293 C   0  0  0  0  0  0  0  0  0  0  0  0
   29.6092    9.2592   77.0882 O   0  0  0  0  0  0  0  0  0  0  0  0
   30.3362    9.0042   76.0270 N   0  0  0  0  0  0  0  0  0  0  0  0
   31.6041    9.3915   76.2528 C   0  0  0  0  0  0  0  0  0  0  0  0
   32.8015    9.3198   75.3763 C   0  0  0  0  0  0  0  0  0  0  0  0
   29.8815   10.2396   79.3747 C   0  0  0  0  0  0  0  0  0  0  0  0
   29.2243    9.1538   80.0739 N   0  0  0  0  0  0  0  0  0  0  0  0
   28.6844    9.3255   81.3766 C   0  0  0  0  0  0  0  0  0  0  0  0
   28.9518   10.4366   81.9497 O   0  0  0  0  0  0  0  0  0  0  0  0
   27.8577    8.2915   82.0500 C   0  0  0  0  0  0  0  0  0  0  0  0
  1  2  2  0
  1  6  1  0
  2  3  1  0
  2  7  1  0
  3  4  2  0
  4  5  1  0
  5  6  2  0
  5 11  1  0
  6  8  1  0
  7 18  2  0
  7 21  1  0
  8  9  2  0
  8 10  2  0
  8 12  1  6
 13 12  1  1
 13 14  1  0
 13 17  1  0
 14 15  1  0
 15 16  1  0
 16 17  1  0
 18 19  1  0
 18 23  1  0
 19 20  1  0
 20 21  2  0
 21 22  1  0
 23 24  1  0
 24 25  1  0
 25 26  2  0
 25 27  1  0
M  END
$$$$
