
     RDKit          3D

 27 29  0  0  0  0  0  0  0  0999 V2000
   32.3177   11.7038   78.2636 C   0  0  0  0  0  0  0  0  0  0  0  0
   32.4330   10.3450   78.1096 C   0  0  0  0  0  0  0  0  0  0  0  0
   33.5641    9.7485   78.6315 C   0  0  0  0  0  0  0  0  0  0  0  0
   34.5299   10.5031   79.2787 C   0  0  0  0  0  0  0  0  0  0  0  0
   34.3962   11.8807   79.4255 C   0  0  0  0  0  0  0  0  0  0  0  0
   33.2760   12.4952   78.9128 C   0  0  0  0  0  0  0  0  0  0  0  0
   31.4431    9.5150   77.4351 C   0  0  0  0  0  0  0  0  0  0  0  0
   33.0136   14.2167   79.0542 S   0  0  2  0  0  6  0  0  0  0  0  0
   31.6737   14.5369   78.4362 O   0  0  0  0  0  0  0  0  0  0  0  0
   34.0384   14.9862   78.2619 O   0  0  0  0  0  0  0  0  0  0  0  0
   35.4665   12.6391   80.1221 C   0  0  0  0  0  0  0  0  0  0  0  0
   33.0023   14.8013   80.6480 N   0  0  0  0  0  0  0  0  0  0  0  0
   32.1923   13.9657   81.4841 C   0  0  1  0  0  0  0  0  0  0  0  0
   32.2223   14.4199   82.9359 C   0  0  0  0  0  0  0  0  0  0  0  0
   30.8137   14.6021   83.3944 C   0  0  0  0  0  0  0  0  0  0  0  0
   29.9204   14.0271   82.3458 C   0  0  0  0  0  0  0  0  0  0  0  0
   30.7562   13.8650   81.0977 C   0  0  0  0  0  0  0  0  0  0  0  0
   30.1528    9.3626   77.8343 C   0  0  0  0  0  0  0  0  0  0  0  0
   29.5898    8.5443   76.9790 O   0  0  0  0  0  0  0  0  0  0  0  0
   30.4484    8.1697   76.0614 N   0  0  0  0  0  0  0  0  0  0  0  0
   31.6367    8.7525   76.2996 C   0  0  0  0  0  0  0  0  0  0  0  0
   32.9213    8.6534   75.5597 C   0  0  0  0  0  0  0  0  0  0  0  0
   29.5119   10.0022   79.0117 C   0  0  0  0  0  0  0  0  0  0  0  0
   29.0038    9.0049   79.9322 N   0  0  0  0  0  0  0  0  0  0  0  0
   28.4401    9.3664   81.1850 C   0  0  0  0  0  0  0  0  0  0  0  0
   28.4717   10.6115   81.4731 O   0  0  0  0  0  0  0  0  0  0  0  0
   27.8453    8.3754   82.1180 C   0  0  0  0  0  0  0  0  0  0  0  0
  1  2  2  0
  1  6  1  0
  2  3  1  0
  2  7  1  0
  3  4  2  0
  4  5  1  0
  5  6  2  0
  5 11  1  0
  6  8  1  0
  7 18  2  0
  7 21  1  0
  8  9  2  0
  8 10  2  0
  8 12  1  1
 13 12  1  6
 13 14  1  0
 13 17  1  0
 14 15  1  0
 15 16  1  0
 16 17  1  0
 18 19  1  0
 18 23  1  0
 19 20  1  0
 20 21  2  0
 21 22  1  0
 23 24  1  0
 24 25  1  0
 25 26  2  0
 25 27  1  0
M  END
$$$$
