
     RDKit          3D

 27 29  0  0  0  0  0  0  0  0999 V2000
   31.7944   11.7737   78.8172 C   0  0  0  0  0  0  0  0  0  0  0  0
   30.9671   10.6768   78.9082 C   0  0  0  0  0  0  0  0  0  0  0  0
   30.0108   10.6461   79.9016 C   0  0  0  0  0  0  0  0  0  0  0  0
   29.8847   11.6949   80.7879 C   0  0  0  0  0  0  0  0  0  0  0  0
   30.7202   12.7949   80.6903 C   0  0  0  0  0  0  0  0  0  0  0  0
   31.6751   12.8337   79.7044 C   0  0  0  0  0  0  0  0  0  0  0  0
   31.0786    9.5660   77.9888 C   0  0  0  0  0  0  0  0  0  0  0  0
   32.7186   14.2410   79.6070 S   0  0  2  0  0  6  0  0  0  0  0  0
   31.8609   15.4078   80.0955 O   0  0  0  0  0  0  0  0  0  0  0  0
   32.9791   14.4833   78.1779 O   0  0  0  0  0  0  0  0  0  0  0  0
   30.6166   13.9401   81.6200 C   0  0  0  0  0  0  0  0  0  0  0  0
   34.0254   14.0961   80.6227 N   0  0  0  0  0  0  0  0  0  0  0  0
   33.9187   14.2166   81.9972 C   0  0  1  0  0  0  0  0  0  0  0  0
   34.4290   12.9174   82.6395 C   0  0  0  0  0  0  0  0  0  0  0  0
   35.7409   13.2216   83.2762 C   0  0  0  0  0  0  0  0  0  0  0  0
   36.0648   14.6247   82.8173 C   0  0  0  0  0  0  0  0  0  0  0  0
   34.7173   15.2470   82.7061 C   0  0  0  0  0  0  0  0  0  0  0  0
   32.0633    9.3349   77.0669 C   0  0  0  0  0  0  0  0  0  0  0  0
   31.7635    8.2171   76.4559 O   0  0  0  0  0  0  0  0  0  0  0  0
   30.6652    7.7199   76.9174 N   0  0  0  0  0  0  0  0  0  0  0  0
   30.1881    8.5260   77.8851 C   0  0  0  0  0  0  0  0  0  0  0  0
   28.9524    8.3427   78.6869 C   0  0  0  0  0  0  0  0  0  0  0  0
   33.2415   10.1566   76.7883 C   0  0  0  0  0  0  0  0  0  0  0  0
   34.4862    9.5035   77.0322 N   0  0  0  0  0  0  0  0  0  0  0  0
   35.2401    9.8601   78.1775 C   0  0  0  0  0  0  0  0  0  0  0  0
   34.8152   10.6580   79.0599 O   0  0  0  0  0  0  0  0  0  0  0  0
   36.6151    9.3087   78.4279 C   0  0  0  0  0  0  0  0  0  0  0  0
  1  2  2  0
  1  6  1  0
  2  3  1  0
  2  7  1  0
  3  4  2  0
  4  5  1  0
  5  6  2  0
 11  5  1  6
  6  8  1  0
  7 18  2  0
  7 21  1  0
  8  9  2  0
  8 10  2  0
  8 12  1  1
 13 12  1  6
 14 13  1  1
 13 17  1  0
 15 14  1  1
 16 15  1  1
 17 16  1  6
 18 19  1  0
 18 23  1  0
 19 20  1  0
 20 21  2  0
 22 21  1  6
 23 24  1  6
 24 25  1  0
 25 26  2  0
 27 25  1  6
M  END
$$$$
