
     RDKit          3D

 27 29  0  0  0  0  0  0  0  0999 V2000
   31.9823   11.7926   79.5081 C   0  0  0  0  0  0  0  0  0  0  0  0
   31.0069   10.8239   79.4310 C   0  0  0  0  0  0  0  0  0  0  0  0
   30.1532   10.6535   80.5008 C   0  0  0  0  0  0  0  0  0  0  0  0
   30.2737   11.4390   81.6276 C   0  0  0  0  0  0  0  0  0  0  0  0
   31.2570   12.4115   81.6982 C   0  0  0  0  0  0  0  0  0  0  0  0
   32.1114   12.5877   80.6377 C   0  0  0  0  0  0  0  0  0  0  0  0
   30.8594    9.9896   78.2588 C   0  0  0  0  0  0  0  0  0  0  0  0
   33.3470   13.8278   80.7577 S   0  0  2  0  0  6  0  0  0  0  0  0
   34.1268   13.7418   79.4462 O   0  0  0  0  0  0  0  0  0  0  0  0
   34.2733   13.4081   81.8231 O   0  0  0  0  0  0  0  0  0  0  0  0
   31.4186   13.2749   82.8877 C   0  0  0  0  0  0  0  0  0  0  0  0
   32.6744   15.3432   80.8636 N   0  0  0  0  0  0  0  0  0  0  0  0
   31.8381   15.8579   79.8885 C   0  0  1  0  0  0  0  0  0  0  0  0
   30.3896   15.7634   80.3919 C   0  0  0  0  0  0  0  0  0  0  0  0
   29.9402   17.1463   80.7157 C   0  0  0  0  0  0  0  0  0  0  0  0
   31.1912   17.9857   80.5948 C   0  0  0  0  0  0  0  0  0  0  0  0
   31.9434   17.2902   79.5150 C   0  0  0  0  0  0  0  0  0  0  0  0
   31.7206    9.8664   77.2024 C   0  0  0  0  0  0  0  0  0  0  0  0
   31.1901    9.0050   76.3721 O   0  0  0  0  0  0  0  0  0  0  0  0
   30.0591    8.5712   76.8185 N   0  0  0  0  0  0  0  0  0  0  0  0
   29.7986    9.1562   78.0033 C   0  0  0  0  0  0  0  0  0  0  0  0
   28.6110    8.9526   78.8704 C   0  0  0  0  0  0  0  0  0  0  0  0
   32.9990   10.5498   77.0032 C   0  0  0  0  0  0  0  0  0  0  0  0
   34.1393    9.7979   77.4151 N   0  0  0  0  0  0  0  0  0  0  0  0
   34.2139    8.4216   77.0873 C   0  0  0  0  0  0  0  0  0  0  0  0
   34.7500    7.5625   77.8425 O   0  0  0  0  0  0  0  0  0  0  0  0
   33.6542    7.8785   75.8031 C   0  0  0  0  0  0  0  0  0  0  0  0
  1  2  2  0
  1  6  1  0
  2  3  1  0
  2  7  1  0
  3  4  2  0
  4  5  1  0
  5  6  2  0
 11  5  1  6
  6  8  1  0
  7 18  2  0
  7 21  1  0
  8  9  2  0
  8 10  2  0
  8 12  1  1
 13 12  1  1
 14 13  1  1
 13 17  1  0
 15 14  1  1
 16 15  1  1
 17 16  1  6
 18 19  1  0
 18 23  1  0
 19 20  1  0
 20 21  2  0
 22 21  1  6
 23 24  1  6
 24 25  1  0
 25 26  2  0
 27 25  1  6
M  END
$$$$
