
     RDKit          3D

 27 29  0  0  0  0  0  0  0  0999 V2000
   33.8410   10.1712   79.3627 C   0  0  0  0  0  0  0  0  0  0  0  0
   32.6593   10.3614   78.6912 C   0  0  0  0  0  0  0  0  0  0  0  0
   32.0218   11.5728   78.8748 C   0  0  0  0  0  0  0  0  0  0  0  0
   32.5647   12.5420   79.7037 C   0  0  0  0  0  0  0  0  0  0  0  0
   33.7645   12.3314   80.3770 C   0  0  0  0  0  0  0  0  0  0  0  0
   34.4166   11.1307   80.2076 C   0  0  0  0  0  0  0  0  0  0  0  0
   32.0531    9.3693   77.8125 C   0  0  0  0  0  0  0  0  0  0  0  0
   35.9313   10.7756   81.0026 S   0  0  2  0  0  6  0  0  0  0  0  0
   36.5129    9.5361   80.3664 O   0  0  0  0  0  0  0  0  0  0  0  0
   35.7135   10.4417   82.4556 O   0  0  0  0  0  0  0  0  0  0  0  0
   34.2951   13.4033   81.2576 C   0  0  0  0  0  0  0  0  0  0  0  0
   37.0931   12.0086   80.8927 N   0  0  0  0  0  0  0  0  0  0  0  0
   37.3893   12.2993   79.5212 C   0  0  1  0  0  0  0  0  0  0  0  0
   37.9997   13.6831   79.3556 C   0  0  0  0  0  0  0  0  0  0  0  0
   39.2793   13.5387   78.6011 C   0  0  0  0  0  0  0  0  0  0  0  0
   39.3397   12.1414   78.0793 C   0  0  0  0  0  0  0  0  0  0  0  0
   38.3097   11.3426   78.8433 C   0  0  0  0  0  0  0  0  0  0  0  0
   30.9208    8.6709   78.0910 C   0  0  0  0  0  0  0  0  0  0  0  0
   30.7036    7.8843   77.0654 O   0  0  0  0  0  0  0  0  0  0  0  0
   31.6324    8.0439   76.1535 N   0  0  0  0  0  0  0  0  0  0  0  0
   32.5123    8.9707   76.5721 C   0  0  0  0  0  0  0  0  0  0  0  0
   33.7320    9.5049   75.9132 C   0  0  0  0  0  0  0  0  0  0  0  0
   30.0949    8.7828   79.3205 C   0  0  0  0  0  0  0  0  0  0  0  0
   29.3655   10.0346   79.3442 N   0  0  0  0  0  0  0  0  0  0  0  0
   28.5312   10.3899   80.4377 C   0  0  0  0  0  0  0  0  0  0  0  0
   28.6219    9.6464   81.4737 O   0  0  0  0  0  0  0  0  0  0  0  0
   27.6037   11.5494   80.4014 C   0  0  0  0  0  0  0  0  0  0  0  0
  1  2  2  0
  1  6  1  0
  2  3  1  0
  2  7  1  0
  3  4  2  0
  4  5  1  0
  5  6  2  0
  5 11  1  0
  6  8  1  0
  7 18  2  0
  7 21  1  0
  8  9  2  0
  8 10  2  0
  8 12  1  1
 13 12  1  1
 13 14  1  0
 13 17  1  0
 14 15  1  0
 15 16  1  0
 16 17  1  0
 18 19  1  0
 18 23  1  0
 19 20  1  0
 20 21  2  0
 21 22  1  0
 23 24  1  0
 24 25  1  0
 25 26  2  0
 25 27  1  0
M  END
$$$$
