
     RDKit          3D

 27 29  0  0  0  0  0  0  0  0999 V2000
   31.5764   11.2758   79.0084 C   0  0  0  0  0  0  0  0  0  0  0  0
   32.0706   10.1742   78.3559 C   0  0  0  0  0  0  0  0  0  0  0  0
   33.4261    9.9345   78.4686 C   0  0  0  0  0  0  0  0  0  0  0  0
   34.2368   10.7786   79.2110 C   0  0  0  0  0  0  0  0  0  0  0  0
   33.7179   11.8917   79.8661 C   0  0  0  0  0  0  0  0  0  0  0  0
   32.3690   12.1488   79.7671 C   0  0  0  0  0  0  0  0  0  0  0  0
   31.2547    9.2626   77.5641 C   0  0  0  0  0  0  0  0  0  0  0  0
   31.6228   13.5153   80.5596 S   0  0  2  0  0  6  0  0  0  0  0  0
   31.6298   13.2535   82.0465 O   0  0  0  0  0  0  0  0  0  0  0  0
   30.1758   13.6469   80.1611 O   0  0  0  0  0  0  0  0  0  0  0  0
   34.6356   12.7650   80.6415 C   0  0  0  0  0  0  0  0  0  0  0  0
   32.4015   14.9998   80.2909 N   0  0  0  0  0  0  0  0  0  0  0  0
   32.1300   15.4775   78.9675 C   0  0  1  0  0  0  0  0  0  0  0  0
   31.7517   16.9512   78.9650 C   0  0  0  0  0  0  0  0  0  0  0  0
   32.6447   17.6579   78.0002 C   0  0  0  0  0  0  0  0  0  0  0  0
   33.3843   16.6181   77.2257 C   0  0  0  0  0  0  0  0  0  0  0  0
   33.2394   15.3196   77.9845 C   0  0  0  0  0  0  0  0  0  0  0  0
   30.0365    8.7868   77.9343 C   0  0  0  0  0  0  0  0  0  0  0  0
   29.6302    8.0024   76.9661 O   0  0  0  0  0  0  0  0  0  0  0  0
   30.5202    7.9537   76.0041 N   0  0  0  0  0  0  0  0  0  0  0  0
   31.5683    8.7314   76.3280 C   0  0  0  0  0  0  0  0  0  0  0  0
   32.8230    9.0124   75.5835 C   0  0  0  0  0  0  0  0  0  0  0  0
   29.3122    9.0995   79.1928 C   0  0  0  0  0  0  0  0  0  0  0  0
   29.8932    8.3918   80.3160 N   0  0  0  0  0  0  0  0  0  0  0  0
   29.5279    8.6928   81.6554 C   0  0  0  0  0  0  0  0  0  0  0  0
   28.6390    9.5999   81.8013 O   0  0  0  0  0  0  0  0  0  0  0  0
   30.1288    8.0082   82.8287 C   0  0  0  0  0  0  0  0  0  0  0  0
  1  2  2  0
  1  6  1  0
  2  3  1  0
  2  7  1  0
  3  4  2  0
  4  5  1  0
  5  6  2  0
  5 11  1  0
  6  8  1  0
  7 18  2  0
  7 21  1  0
  8  9  2  0
  8 10  2  0
  8 12  1  1
 13 12  1  1
 13 14  1  0
 13 17  1  0
 14 15  1  0
 15 16  1  0
 16 17  1  0
 18 19  1  0
 18 23  1  0
 19 20  1  0
 20 21  2  0
 21 22  1  0
 23 24  1  0
 24 25  1  0
 25 26  2  0
 25 27  1  0
M  END
$$$$
