
     RDKit          3D

 27 29  0  0  0  0  0  0  0  0999 V2000
   31.7369   11.6701   78.7935 C   0  0  0  0  0  0  0  0  0  0  0  0
   32.2302   10.7341   77.9193 C   0  0  0  0  0  0  0  0  0  0  0  0
   33.6021   10.5817   77.8723 C   0  0  0  0  0  0  0  0  0  0  0  0
   34.4293   11.3478   78.6784 C   0  0  0  0  0  0  0  0  0  0  0  0
   33.9111   12.2927   79.5592 C   0  0  0  0  0  0  0  0  0  0  0  0
   32.5461   12.4604   79.6221 C   0  0  0  0  0  0  0  0  0  0  0  0
   31.3970    9.9097   77.0534 C   0  0  0  0  0  0  0  0  0  0  0  0
   31.8002   13.6143   80.7013 S   0  0  2  0  0  6  0  0  0  0  0  0
   32.8041   13.9684   81.7721 O   0  0  0  0  0  0  0  0  0  0  0  0
   30.6212   13.0039   81.4135 O   0  0  0  0  0  0  0  0  0  0  0  0
   34.8461   13.0900   80.3937 C   0  0  0  0  0  0  0  0  0  0  0  0
   31.3036   15.0578   79.9587 N   0  0  0  0  0  0  0  0  0  0  0  0
   32.4164   15.7115   79.3359 C   0  0  1  0  0  0  0  0  0  0  0  0
   32.8717   14.9806   78.0816 C   0  0  0  0  0  0  0  0  0  0  0  0
   32.8992   15.9616   76.9570 C   0  0  0  0  0  0  0  0  0  0  0  0
   32.7211   17.3232   77.5423 C   0  0  0  0  0  0  0  0  0  0  0  0
   32.1936   17.1326   78.9451 C   0  0  0  0  0  0  0  0  0  0  0  0
   30.2272    9.3255   77.4249 C   0  0  0  0  0  0  0  0  0  0  0  0
   29.7851    8.6726   76.3779 O   0  0  0  0  0  0  0  0  0  0  0  0
   30.6066    8.8093   75.3650 N   0  0  0  0  0  0  0  0  0  0  0  0
   31.6438    9.5815   75.7344 C   0  0  0  0  0  0  0  0  0  0  0  0
   32.8312   10.0299   74.9622 C   0  0  0  0  0  0  0  0  0  0  0  0
   29.5813    9.4143   78.7595 C   0  0  0  0  0  0  0  0  0  0  0  0
   30.2283    8.5317   79.7094 N   0  0  0  0  0  0  0  0  0  0  0  0
   29.5132    7.4990   80.3729 C   0  0  0  0  0  0  0  0  0  0  0  0
   28.2710    7.7219   80.5764 O   0  0  0  0  0  0  0  0  0  0  0  0
   30.1495    6.2307   80.8117 C   0  0  0  0  0  0  0  0  0  0  0  0
  1  2  2  0
  1  6  1  0
  2  3  1  0
  2  7  1  0
  3  4  2  0
  4  5  1  0
  5  6  2  0
  5 11  1  0
  6  8  1  0
  7 18  2  0
  7 21  1  0
  8  9  2  0
  8 10  2  0
  8 12  1  6
 13 12  1  6
 13 14  1  0
 13 17  1  0
 14 15  1  0
 15 16  1  0
 16 17  1  0
 18 19  1  0
 18 23  1  0
 19 20  1  0
 20 21  2  0
 21 22  1  0
 23 24  1  0
 24 25  1  0
 25 26  2  0
 25 27  1  0
M  END
$$$$
