
     RDKit          3D

 27 29  0  0  0  0  0  0  0  0999 V2000
   31.6817   11.3934   79.1745 C   0  0  0  0  0  0  0  0  0  0  0  0
   32.2521   10.4355   78.3742 C   0  0  0  0  0  0  0  0  0  0  0  0
   33.6307   10.3510   78.3827 C   0  0  0  0  0  0  0  0  0  0  0  0
   34.3891   11.2031   79.1699 C   0  0  0  0  0  0  0  0  0  0  0  0
   33.7931   12.1690   79.9756 C   0  0  0  0  0  0  0  0  0  0  0  0
   32.4201   12.2700   79.9822 C   0  0  0  0  0  0  0  0  0  0  0  0
   31.4928    9.5215   77.5305 C   0  0  0  0  0  0  0  0  0  0  0  0
   31.5794   13.4439   80.9658 S   0  0  2  0  0  6  0  0  0  0  0  0
   31.9631   13.2062   82.4066 O   0  0  0  0  0  0  0  0  0  0  0  0
   30.0880   13.2450   80.8880 O   0  0  0  0  0  0  0  0  0  0  0  0
   34.6565   13.0593   80.7929 C   0  0  0  0  0  0  0  0  0  0  0  0
   31.9358   15.0618   80.5947 N   0  0  0  0  0  0  0  0  0  0  0  0
   31.8679   15.2796   79.1800 C   0  0  1  0  0  0  0  0  0  0  0  0
   31.6430   16.7464   78.8440 C   0  0  0  0  0  0  0  0  0  0  0  0
   32.7077   17.1723   77.8887 C   0  0  0  0  0  0  0  0  0  0  0  0
   33.4228   15.9435   77.4337 C   0  0  0  0  0  0  0  0  0  0  0  0
   33.0614   14.8413   78.4019 C   0  0  0  0  0  0  0  0  0  0  0  0
   30.3118    8.9435   77.8749 C   0  0  0  0  0  0  0  0  0  0  0  0
   29.9514    8.1943   76.8617 O   0  0  0  0  0  0  0  0  0  0  0  0
   30.8353    8.2642   75.8955 N   0  0  0  0  0  0  0  0  0  0  0  0
   31.8318    9.0891   76.2631 C   0  0  0  0  0  0  0  0  0  0  0  0
   33.0593    9.4985   75.5330 C   0  0  0  0  0  0  0  0  0  0  0  0
   29.5778    9.1294   79.1528 C   0  0  0  0  0  0  0  0  0  0  0  0
   30.4209    8.8102   80.2873 N   0  0  0  0  0  0  0  0  0  0  0  0
   30.0105    9.0816   81.6199 C   0  0  0  0  0  0  0  0  0  0  0  0
   28.8515    9.6048   81.7515 O   0  0  0  0  0  0  0  0  0  0  0  0
   30.8594    8.7840   82.8019 C   0  0  0  0  0  0  0  0  0  0  0  0
  1  2  2  0
  1  6  1  0
  2  3  1  0
  2  7  1  0
  3  4  2  0
  4  5  1  0
  5  6  2  0
  5 11  1  0
  6  8  1  0
  7 18  2  0
  7 21  1  0
  8  9  2  0
  8 10  2  0
  8 12  1  6
 13 12  1  1
 13 14  1  0
 13 17  1  0
 14 15  1  0
 15 16  1  0
 16 17  1  0
 18 19  1  0
 18 23  1  0
 19 20  1  0
 20 21  2  0
 21 22  1  0
 23 24  1  0
 24 25  1  0
 25 26  2  0
 25 27  1  0
M  END
$$$$
