
     RDKit          3D

 27 29  0  0  0  0  0  0  0  0999 V2000
   32.5735   11.2854   79.7484 C   0  0  0  0  0  0  0  0  0  0  0  0
   33.8268   11.1583   79.1925 C   0  0  0  0  0  0  0  0  0  0  0  0
   33.9577   10.4859   77.9954 C   0  0  0  0  0  0  0  0  0  0  0  0
   32.8539    9.9506   77.3659 C   0  0  0  0  0  0  0  0  0  0  0  0
   31.5965   10.0823   77.9309 C   0  0  0  0  0  0  0  0  0  0  0  0
   31.4570   10.7500   79.1226 C   0  0  0  0  0  0  0  0  0  0  0  0
   34.9989   11.7134   79.8326 C   0  0  0  0  0  0  0  0  0  0  0  0
   29.8508   10.8999   79.8131 S   0  0  2  0  0  6  0  0  0  0  0  0
   29.9204   12.1267   80.7218 O   0  0  0  0  0  0  0  0  0  0  0  0
   29.6533    9.7370   80.6950 O   0  0  0  0  0  0  0  0  0  0  0  0
   30.3880    9.5239   77.2874 C   0  0  0  0  0  0  0  0  0  0  0  0
   28.7121   11.1879   78.6380 N   0  0  0  0  0  0  0  0  0  0  0  0
   28.5577   12.4244   78.0361 C   0  0  1  0  0  0  0  0  0  0  0  0
   28.7136   12.2481   76.5178 C   0  0  0  0  0  0  0  0  0  0  0  0
   27.3627   12.4080   75.9106 C   0  0  0  0  0  0  0  0  0  0  0  0
   26.4235   12.4651   77.0934 C   0  0  0  0  0  0  0  0  0  0  0  0
   27.2553   13.1289   78.1341 C   0  0  0  0  0  0  0  0  0  0  0  0
   35.0463   12.5818   80.8892 C   0  0  0  0  0  0  0  0  0  0  0  0
   36.3096   12.8167   81.1376 O   0  0  0  0  0  0  0  0  0  0  0  0
   37.0685   12.1654   80.3213 N   0  0  0  0  0  0  0  0  0  0  0  0
   36.2990   11.4529   79.4763 C   0  0  0  0  0  0  0  0  0  0  0  0
   36.7484   10.5618   78.3774 C   0  0  0  0  0  0  0  0  0  0  0  0
   33.9221   13.1593   81.6265 C   0  0  0  0  0  0  0  0  0  0  0  0
   34.2712   14.2577   82.4674 N   0  0  0  0  0  0  0  0  0  0  0  0
   34.2701   14.0788   83.8728 C   0  0  0  0  0  0  0  0  0  0  0  0
   33.8843   13.0130   84.4305 O   0  0  0  0  0  0  0  0  0  0  0  0
   34.7332   15.1562   84.8119 C   0  0  0  0  0  0  0  0  0  0  0  0
  1  2  2  0
  1  6  1  0
  2  3  1  0
  2  7  1  0
  3  4  2  0
  4  5  1  0
  5  6  2  0
 11  5  1  6
  6  8  1  0
  7 18  2  0
  7 21  1  0
  8  9  2  0
  8 10  2  0
  8 12  1  6
 13 12  1  1
 14 13  1  1
 13 17  1  0
 15 14  1  1
 16 15  1  1
 17 16  1  6
 18 19  1  0
 18 23  1  0
 19 20  1  0
 20 21  2  0
 22 21  1  6
 23 24  1  6
 24 25  1  0
 25 26  2  0
 27 25  1  6
M  END
$$$$
