
     RDKit          3D

 27 29  0  0  0  0  0  0  0  0999 V2000
   32.3009   11.5959   79.3307 C   0  0  0  0  0  0  0  0  0  0  0  0
   31.1497   11.1069   78.7551 C   0  0  0  0  0  0  0  0  0  0  0  0
   30.0126   11.8873   78.7765 C   0  0  0  0  0  0  0  0  0  0  0  0
   30.0278   13.1349   79.3634 C   0  0  0  0  0  0  0  0  0  0  0  0
   31.1894   13.6203   79.9403 C   0  0  0  0  0  0  0  0  0  0  0  0
   32.3259   12.8499   79.9237 C   0  0  0  0  0  0  0  0  0  0  0  0
   31.1099    9.8026   78.1315 C   0  0  0  0  0  0  0  0  0  0  0  0
   33.7816   13.4927   80.6632 S   0  0  2  0  0  6  0  0  0  0  0  0
   33.8822   14.9322   80.1599 O   0  0  0  0  0  0  0  0  0  0  0  0
   34.9185   12.7640   80.0755 O   0  0  0  0  0  0  0  0  0  0  0  0
   31.2475   14.9529   80.5786 C   0  0  0  0  0  0  0  0  0  0  0  0
   33.6528   13.5294   82.3192 N   0  0  0  0  0  0  0  0  0  0  0  0
   32.5354   14.0226   82.9697 C   0  0  1  0  0  0  0  0  0  0  0  0
   32.1432   13.0337   84.0783 C   0  0  0  0  0  0  0  0  0  0  0  0
   32.4903   13.6663   85.3816 C   0  0  0  0  0  0  0  0  0  0  0  0
   33.2620   14.9092   85.0022 C   0  0  0  0  0  0  0  0  0  0  0  0
   32.6272   15.3027   83.7147 C   0  0  0  0  0  0  0  0  0  0  0  0
   32.1395    9.1244   77.5377 C   0  0  0  0  0  0  0  0  0  0  0  0
   31.6546    7.9865   77.1100 O   0  0  0  0  0  0  0  0  0  0  0  0
   30.3972    7.8888   77.3857 N   0  0  0  0  0  0  0  0  0  0  0  0
   29.9985    9.0029   78.0289 C   0  0  0  0  0  0  0  0  0  0  0  0
   28.6380    9.3186   78.5319 C   0  0  0  0  0  0  0  0  0  0  0  0
   33.5299    9.5554   77.3897 C   0  0  0  0  0  0  0  0  0  0  0  0
   34.2117    9.7792   78.6228 N   0  0  0  0  0  0  0  0  0  0  0  0
   35.5988   10.0671   78.6024 C   0  0  0  0  0  0  0  0  0  0  0  0
   36.2848   10.0722   77.5417 O   0  0  0  0  0  0  0  0  0  0  0  0
   36.3623   10.3908   79.8552 C   0  0  0  0  0  0  0  0  0  0  0  0
  1  2  2  0
  1  6  1  0
  2  3  1  0
  2  7  1  0
  3  4  2  0
  4  5  1  0
  5  6  2  0
 11  5  1  6
  6  8  1  0
  7 18  2  0
  7 21  1  0
  8  9  2  0
  8 10  2  0
  8 12  1  1
 13 12  1  1
 14 13  1  1
 13 17  1  0
 15 14  1  1
 16 15  1  1
 17 16  1  6
 18 19  1  0
 18 23  1  0
 19 20  1  0
 20 21  2  0
 22 21  1  6
 23 24  1  6
 24 25  1  0
 25 26  2  0
 27 25  1  6
M  END
$$$$
