
     RDKit          3D

 27 29  0  0  0  0  0  0  0  0999 V2000
   33.7496   10.2428   78.9908 C   0  0  0  0  0  0  0  0  0  0  0  0
   32.5662   10.6069   78.3886 C   0  0  0  0  0  0  0  0  0  0  0  0
   32.2531   11.9469   78.2945 C   0  0  0  0  0  0  0  0  0  0  0  0
   33.1094   12.9051   78.7941 C   0  0  0  0  0  0  0  0  0  0  0  0
   34.2981   12.5315   79.3985 C   0  0  0  0  0  0  0  0  0  0  0  0
   34.6176   11.1997   79.4966 C   0  0  0  0  0  0  0  0  0  0  0  0
   31.6532    9.6203   77.8550 C   0  0  0  0  0  0  0  0  0  0  0  0
   36.1306   10.7583   80.2680 S   0  0  2  0  0  6  0  0  0  0  0  0
   36.4887    9.3899   79.6894 O   0  0  0  0  0  0  0  0  0  0  0  0
   35.8375   10.5449   81.6954 O   0  0  0  0  0  0  0  0  0  0  0  0
   35.2438   13.5280   79.9457 C   0  0  0  0  0  0  0  0  0  0  0  0
   37.3435   11.8228   79.8731 N   0  0  0  0  0  0  0  0  0  0  0  0
   38.6526   11.4210   79.6729 C   0  0  1  0  0  0  0  0  0  0  0  0
   39.5358   12.6746   79.5763 C   0  0  0  0  0  0  0  0  0  0  0  0
   40.3398   12.7496   80.8282 C   0  0  0  0  0  0  0  0  0  0  0  0
   39.7632   11.6663   81.7105 C   0  0  0  0  0  0  0  0  0  0  0  0
   39.3457   10.6340   80.7229 C   0  0  0  0  0  0  0  0  0  0  0  0
   30.7264    8.8789   78.5363 C   0  0  0  0  0  0  0  0  0  0  0  0
   30.1235    8.1169   77.6596 O   0  0  0  0  0  0  0  0  0  0  0  0
   30.5949    8.3162   76.4744 N   0  0  0  0  0  0  0  0  0  0  0  0
   31.5610    9.2525   76.5354 C   0  0  0  0  0  0  0  0  0  0  0  0
   32.3716    9.7896   75.4137 C   0  0  0  0  0  0  0  0  0  0  0  0
   30.4355    8.9049   79.9701 C   0  0  0  0  0  0  0  0  0  0  0  0
   29.0547    9.0715   80.2881 N   0  0  0  0  0  0  0  0  0  0  0  0
   28.6397   10.2419   80.9701 C   0  0  0  0  0  0  0  0  0  0  0  0
   29.4496   11.0487   81.5077 O   0  0  0  0  0  0  0  0  0  0  0  0
   27.1899   10.6121   81.1046 C   0  0  0  0  0  0  0  0  0  0  0  0
  1  2  2  0
  1  6  1  0
  2  3  1  0
  2  7  1  0
  3  4  2  0
  4  5  1  0
  5  6  2  0
 11  5  1  6
  6  8  1  0
  7 18  2  0
  7 21  1  0
  8  9  2  0
  8 10  2  0
  8 12  1  1
 13 12  1  1
 14 13  1  1
 13 17  1  0
 15 14  1  1
 16 15  1  1
 17 16  1  6
 18 19  1  0
 18 23  1  0
 19 20  1  0
 20 21  2  0
 22 21  1  6
 23 24  1  6
 24 25  1  0
 25 26  2  0
 27 25  1  6
M  END
$$$$
