
     RDKit          3D

 27 29  0  0  0  0  0  0  0  0999 V2000
   33.3533   10.5693   79.3277 C   0  0  0  0  0  0  0  0  0  0  0  0
   32.7275   10.6001   78.1067 C   0  0  0  0  0  0  0  0  0  0  0  0
   32.8412   11.7646   77.3729 C   0  0  0  0  0  0  0  0  0  0  0  0
   33.5588   12.8446   77.8625 C   0  0  0  0  0  0  0  0  0  0  0  0
   34.1871   12.7955   79.1035 C   0  0  0  0  0  0  0  0  0  0  0  0
   34.0865   11.6438   79.8511 C   0  0  0  0  0  0  0  0  0  0  0  0
   31.9622    9.4890   77.5557 C   0  0  0  0  0  0  0  0  0  0  0  0
   34.8466   11.4822   81.4159 S   0  0  2  0  0  6  0  0  0  0  0  0
   34.1722   10.3466   82.1473 O   0  0  0  0  0  0  0  0  0  0  0  0
   34.6250   12.7146   82.2539 O   0  0  0  0  0  0  0  0  0  0  0  0
   34.9365   13.9859   79.5802 C   0  0  0  0  0  0  0  0  0  0  0  0
   36.5104   11.1489   81.3623 N   0  0  0  0  0  0  0  0  0  0  0  0
   36.9554   11.0284   80.0055 C   0  0  1  0  0  0  0  0  0  0  0  0
   37.6717   12.2844   79.5319 C   0  0  0  0  0  0  0  0  0  0  0  0
   39.0047   11.8834   78.9935 C   0  0  0  0  0  0  0  0  0  0  0  0
   39.0193   10.3944   78.8891 C   0  0  0  0  0  0  0  0  0  0  0  0
   37.8690    9.8844   79.7254 C   0  0  0  0  0  0  0  0  0  0  0  0
   30.9695    8.8281   78.2079 C   0  0  0  0  0  0  0  0  0  0  0  0
   30.5337    7.9027   77.3884 O   0  0  0  0  0  0  0  0  0  0  0  0
   31.1926    7.9390   76.2551 N   0  0  0  0  0  0  0  0  0  0  0  0
   32.1083    8.9225   76.3042 C   0  0  0  0  0  0  0  0  0  0  0  0
   33.0960    9.3678   75.2876 C   0  0  0  0  0  0  0  0  0  0  0  0
   30.4789    9.1062   79.5820 C   0  0  0  0  0  0  0  0  0  0  0  0
   29.1638    9.7140   79.5509 N   0  0  0  0  0  0  0  0  0  0  0  0
   28.5100   10.1356   80.7395 C   0  0  0  0  0  0  0  0  0  0  0  0
   29.1675    9.9778   81.8244 O   0  0  0  0  0  0  0  0  0  0  0  0
   27.1470   10.7260   80.7445 C   0  0  0  0  0  0  0  0  0  0  0  0
  1  2  2  0
  1  6  1  0
  2  3  1  0
  2  7  1  0
  3  4  2  0
  4  5  1  0
  5  6  2  0
  5 11  1  0
  6  8  1  0
  7 18  2  0
  7 21  1  0
  8  9  2  0
  8 10  2  0
  8 12  1  6
 13 12  1  1
 13 14  1  0
 13 17  1  0
 14 15  1  0
 15 16  1  0
 16 17  1  0
 18 19  1  0
 18 23  1  0
 19 20  1  0
 20 21  2  0
 21 22  1  0
 23 24  1  0
 24 25  1  0
 25 26  2  0
 25 27  1  0
M  END
$$$$
