
     RDKit          3D

 27 29  0  0  0  0  0  0  0  0999 V2000
   31.1530   11.1272   80.1351 C   0  0  0  0  0  0  0  0  0  0  0  0
   30.4581   10.1616   79.4418 C   0  0  0  0  0  0  0  0  0  0  0  0
   29.1968    9.8103   79.8753 C   0  0  0  0  0  0  0  0  0  0  0  0
   28.6408   10.4150   80.9828 C   0  0  0  0  0  0  0  0  0  0  0  0
   29.3455   11.3854   81.6751 C   0  0  0  0  0  0  0  0  0  0  0  0
   30.6020   11.7411   81.2506 C   0  0  0  0  0  0  0  0  0  0  0  0
   31.0192    9.5151   78.2760 C   0  0  0  0  0  0  0  0  0  0  0  0
   31.4695   12.9736   82.1491 S   0  0  2  0  0  6  0  0  0  0  0  0
   32.9490   12.6523   81.9400 O   0  0  0  0  0  0  0  0  0  0  0  0
   31.1889   12.7410   83.5760 O   0  0  0  0  0  0  0  0  0  0  0  0
   28.7846   12.0583   82.8664 C   0  0  0  0  0  0  0  0  0  0  0  0
   31.1754   14.4890   81.5350 N   0  0  0  0  0  0  0  0  0  0  0  0
   29.9801   14.8277   80.9252 C   0  0  1  0  0  0  0  0  0  0  0  0
   29.2689   15.8729   81.7983 C   0  0  0  0  0  0  0  0  0  0  0  0
   29.3558   17.1793   81.0876 C   0  0  0  0  0  0  0  0  0  0  0  0
   30.2877   16.9146   79.9276 C   0  0  0  0  0  0  0  0  0  0  0  0
   29.9975   15.4923   79.5986 C   0  0  0  0  0  0  0  0  0  0  0  0
   32.3332    9.2236   78.0288 C   0  0  0  0  0  0  0  0  0  0  0  0
   32.3841    8.6400   76.8585 O   0  0  0  0  0  0  0  0  0  0  0  0
   31.2050    8.5380   76.3428 N   0  0  0  0  0  0  0  0  0  0  0  0
   30.3049    9.0721   77.1904 C   0  0  0  0  0  0  0  0  0  0  0  0
   28.8353    9.1701   77.0046 C   0  0  0  0  0  0  0  0  0  0  0  0
   33.4886    9.4961   78.8842 C   0  0  0  0  0  0  0  0  0  0  0  0
   34.5713   10.1477   78.2219 N   0  0  0  0  0  0  0  0  0  0  0  0
   35.0569   11.3752   78.7363 C   0  0  0  0  0  0  0  0  0  0  0  0
   34.5688   11.9339   79.7588 O   0  0  0  0  0  0  0  0  0  0  0  0
   36.2005   12.1092   78.0955 C   0  0  0  0  0  0  0  0  0  0  0  0
  1  2  2  0
  1  6  1  0
  2  3  1  0
  2  7  1  0
  3  4  2  0
  4  5  1  0
  5  6  2  0
 11  5  1  6
  6  8  1  0
  7 18  2  0
  7 21  1  0
  8  9  2  0
  8 10  2  0
  8 12  1  6
 13 12  1  1
 14 13  1  1
 13 17  1  0
 15 14  1  1
 16 15  1  1
 17 16  1  6
 18 19  1  0
 18 23  1  0
 19 20  1  0
 20 21  2  0
 22 21  1  6
 23 24  1  6
 24 25  1  0
 25 26  2  0
 27 25  1  6
M  END
$$$$
