
     RDKit          3D

 27 29  0  0  0  0  0  0  0  0999 V2000
   32.1220   11.4965   78.6243 C   0  0  0  0  0  0  0  0  0  0  0  0
   32.4325   10.3519   77.9249 C   0  0  0  0  0  0  0  0  0  0  0  0
   33.7383   10.1475   77.5309 C   0  0  0  0  0  0  0  0  0  0  0  0
   34.7159   11.0722   77.8318 C   0  0  0  0  0  0  0  0  0  0  0  0
   34.3962   12.2211   78.5356 C   0  0  0  0  0  0  0  0  0  0  0  0
   33.0986   12.4328   78.9317 C   0  0  0  0  0  0  0  0  0  0  0  0
   31.4251    9.3664   77.5998 C   0  0  0  0  0  0  0  0  0  0  0  0
   32.7254   13.8983   79.8216 S   0  0  2  0  0  6  0  0  0  0  0  0
   31.2965   13.7042   80.3279 O   0  0  0  0  0  0  0  0  0  0  0  0
   32.6756   14.9949   78.8398 O   0  0  0  0  0  0  0  0  0  0  0  0
   35.4151   13.2364   78.8790 C   0  0  0  0  0  0  0  0  0  0  0  0
   33.7231   14.0768   81.1380 N   0  0  0  0  0  0  0  0  0  0  0  0
   33.3820   13.6217   82.3996 C   0  0  1  0  0  0  0  0  0  0  0  0
   34.5115   12.7134   82.9097 C   0  0  0  0  0  0  0  0  0  0  0  0
   35.2288   13.4563   83.9834 C   0  0  0  0  0  0  0  0  0  0  0  0
   34.6420   14.8482   83.9336 C   0  0  0  0  0  0  0  0  0  0  0  0
   33.2374   14.5914   83.5135 C   0  0  0  0  0  0  0  0  0  0  0  0
   30.4176    8.9004   78.4002 C   0  0  0  0  0  0  0  0  0  0  0  0
   29.7460    8.0216   77.7007 O   0  0  0  0  0  0  0  0  0  0  0  0
   30.2480    7.8928   76.5183 N   0  0  0  0  0  0  0  0  0  0  0  0
   31.3077    8.7150   76.3969 C   0  0  0  0  0  0  0  0  0  0  0  0
   32.1824    8.8934   75.2107 C   0  0  0  0  0  0  0  0  0  0  0  0
   30.1165    9.2862   79.7791 C   0  0  0  0  0  0  0  0  0  0  0  0
   28.9716   10.1259   79.9192 N   0  0  0  0  0  0  0  0  0  0  0  0
   28.5781   10.5464   81.2136 C   0  0  0  0  0  0  0  0  0  0  0  0
   29.2686   10.3259   82.2482 O   0  0  0  0  0  0  0  0  0  0  0  0
   27.2965   11.2934   81.4518 C   0  0  0  0  0  0  0  0  0  0  0  0
  1  2  2  0
  1  6  1  0
  2  3  1  0
  2  7  1  0
  3  4  2  0
  4  5  1  0
  5  6  2  0
 11  5  1  6
  6  8  1  0
  7 18  2  0
  7 21  1  0
  8  9  2  0
  8 10  2  0
  8 12  1  1
 13 12  1  6
 14 13  1  1
 13 17  1  0
 15 14  1  1
 16 15  1  1
 17 16  1  6
 18 19  1  0
 18 23  1  0
 19 20  1  0
 20 21  2  0
 22 21  1  6
 23 24  1  6
 24 25  1  0
 25 26  2  0
 27 25  1  6
M  END
$$$$
