
     RDKit          3D

 27 29  0  0  0  0  0  0  0  0999 V2000
   32.0655   11.0409   79.4625 C   0  0  0  0  0  0  0  0  0  0  0  0
   32.3948   10.1723   78.4523 C   0  0  0  0  0  0  0  0  0  0  0  0
   33.7201   10.1338   78.0655 C   0  0  0  0  0  0  0  0  0  0  0  0
   34.6625   10.9431   78.6802 C   0  0  0  0  0  0  0  0  0  0  0  0
   34.3102   11.8184   79.7034 C   0  0  0  0  0  0  0  0  0  0  0  0
   32.9943   11.8722   80.1046 C   0  0  0  0  0  0  0  0  0  0  0  0
   31.4360    9.3060   77.7783 C   0  0  0  0  0  0  0  0  0  0  0  0
   32.4557   12.9317   81.3850 S   0  0  2  0  0  6  0  0  0  0  0  0
   33.6461   13.2538   82.2561 O   0  0  0  0  0  0  0  0  0  0  0  0
   31.4567   12.2390   82.2751 O   0  0  0  0  0  0  0  0  0  0  0  0
   35.3615   12.6667   80.3208 C   0  0  0  0  0  0  0  0  0  0  0  0
   31.7895   14.4002   80.8539 N   0  0  0  0  0  0  0  0  0  0  0  0
   32.7168   15.0979   80.0132 C   0  0  1  0  0  0  0  0  0  0  0  0
   33.0694   14.2934   78.7709 C   0  0  0  0  0  0  0  0  0  0  0  0
   32.8196   15.1517   77.5757 C   0  0  0  0  0  0  0  0  0  0  0  0
   32.5692   16.5404   78.0625 C   0  0  0  0  0  0  0  0  0  0  0  0
   32.2751   16.4410   79.5411 C   0  0  0  0  0  0  0  0  0  0  0  0
   30.2826    8.8441   78.3295 C   0  0  0  0  0  0  0  0  0  0  0  0
   29.7023    8.1021   77.4180 O   0  0  0  0  0  0  0  0  0  0  0  0
   30.4211    8.0672   76.3217 N   0  0  0  0  0  0  0  0  0  0  0  0
   31.5286    8.8107   76.4921 C   0  0  0  0  0  0  0  0  0  0  0  0
   32.6515    9.0900   75.5601 C   0  0  0  0  0  0  0  0  0  0  0  0
   29.7829    9.1290   79.6989 C   0  0  0  0  0  0  0  0  0  0  0  0
   28.5186    9.8358   79.6538 N   0  0  0  0  0  0  0  0  0  0  0  0
   27.5249    9.6486   80.6516 C   0  0  0  0  0  0  0  0  0  0  0  0
   27.8086    8.8070   81.5712 O   0  0  0  0  0  0  0  0  0  0  0  0
   26.2295   10.3754   80.6464 C   0  0  0  0  0  0  0  0  0  0  0  0
  1  2  2  0
  1  6  1  0
  2  3  1  0
  2  7  1  0
  3  4  2  0
  4  5  1  0
  5  6  2  0
  5 11  1  0
  6  8  1  0
  7 18  2  0
  7 21  1  0
  8  9  2  0
  8 10  2  0
  8 12  1  6
 13 12  1  6
 13 14  1  0
 13 17  1  0
 14 15  1  0
 15 16  1  0
 16 17  1  0
 18 19  1  0
 18 23  1  0
 19 20  1  0
 20 21  2  0
 21 22  1  0
 23 24  1  0
 24 25  1  0
 25 26  2  0
 25 27  1  0
M  END
$$$$
