
     RDKit          3D

 27 29  0  0  0  0  0  0  0  0999 V2000
   31.8237   11.3694   78.6794 C   0  0  0  0  0  0  0  0  0  0  0  0
   32.2790   10.3446   77.8881 C   0  0  0  0  0  0  0  0  0  0  0  0
   33.6174   10.0200   77.9911 C   0  0  0  0  0  0  0  0  0  0  0  0
   34.4499   10.7085   78.8595 C   0  0  0  0  0  0  0  0  0  0  0  0
   33.9705   11.7455   79.6545 C   0  0  0  0  0  0  0  0  0  0  0  0
   32.6392   12.0851   79.5676 C   0  0  0  0  0  0  0  0  0  0  0  0
   31.4392    9.5967   76.9612 C   0  0  0  0  0  0  0  0  0  0  0  0
   31.9420   13.3657   80.5300 S   0  0  2  0  0  6  0  0  0  0  0  0
   31.8349   12.8743   81.9536 O   0  0  0  0  0  0  0  0  0  0  0  0
   30.5364   13.6734   80.0830 O   0  0  0  0  0  0  0  0  0  0  0  0
   34.9104   12.4525   80.5616 C   0  0  0  0  0  0  0  0  0  0  0  0
   32.8392   14.8068   80.5451 N   0  0  0  0  0  0  0  0  0  0  0  0
   32.2528   15.7732   79.6644 C   0  0  1  0  0  0  0  0  0  0  0  0
   32.7281   17.1844   79.9766 C   0  0  0  0  0  0  0  0  0  0  0  0
   33.2638   17.7827   78.7185 C   0  0  0  0  0  0  0  0  0  0  0  0
   32.8950   16.8729   77.5940 C   0  0  0  0  0  0  0  0  0  0  0  0
   32.4962   15.5524   78.2104 C   0  0  0  0  0  0  0  0  0  0  0  0
   30.1736    9.1758   77.2234 C   0  0  0  0  0  0  0  0  0  0  0  0
   29.7596    8.5429   76.1530 O   0  0  0  0  0  0  0  0  0  0  0  0
   30.6892    8.5384   75.2280 N   0  0  0  0  0  0  0  0  0  0  0  0
   31.7734    9.1905   75.6838 C   0  0  0  0  0  0  0  0  0  0  0  0
   33.0794    9.4593   75.0285 C   0  0  0  0  0  0  0  0  0  0  0  0
   29.4136    9.3944   78.4807 C   0  0  0  0  0  0  0  0  0  0  0  0
   29.5137    8.2431   79.3550 N   0  0  0  0  0  0  0  0  0  0  0  0
   28.9223    8.2352   80.6466 C   0  0  0  0  0  0  0  0  0  0  0  0
   27.6442    8.2337   80.6754 O   0  0  0  0  0  0  0  0  0  0  0  0
   29.7204    8.2289   81.8993 C   0  0  0  0  0  0  0  0  0  0  0  0
  1  2  2  0
  1  6  1  0
  2  3  1  0
  2  7  1  0
  3  4  2  0
  4  5  1  0
  5  6  2  0
  5 11  1  0
  6  8  1  0
  7 18  2  0
  7 21  1  0
  8  9  2  0
  8 10  2  0
  8 12  1  1
 13 12  1  1
 13 14  1  0
 13 17  1  0
 14 15  1  0
 15 16  1  0
 16 17  1  0
 18 19  1  0
 18 23  1  0
 19 20  1  0
 20 21  2  0
 21 22  1  0
 23 24  1  0
 24 25  1  0
 25 26  2  0
 25 27  1  0
M  END
$$$$
