
     RDKit          3D

 27 29  0  0  0  0  0  0  0  0999 V2000
   32.3567   11.0466   79.4615 C   0  0  0  0  0  0  0  0  0  0  0  0
   33.0348   10.6179   78.3480 C   0  0  0  0  0  0  0  0  0  0  0  0
   34.1734   11.3176   77.9992 C   0  0  0  0  0  0  0  0  0  0  0  0
   34.5982   12.4019   78.7508 C   0  0  0  0  0  0  0  0  0  0  0  0
   33.8974   12.8226   79.8774 C   0  0  0  0  0  0  0  0  0  0  0  0
   32.7597   12.1389   80.2429 C   0  0  0  0  0  0  0  0  0  0  0  0
   32.6223    9.4851   77.5292 C   0  0  0  0  0  0  0  0  0  0  0  0
   31.8174   12.5849   81.6447 S   0  0  2  0  0  6  0  0  0  0  0  0
   32.6108   12.2193   82.8761 O   0  0  0  0  0  0  0  0  0  0  0  0
   30.5406   11.7879   81.7133 O   0  0  0  0  0  0  0  0  0  0  0  0
   34.3958   13.9955   80.6404 C   0  0  0  0  0  0  0  0  0  0  0  0
   31.4374   14.2366   81.7444 N   0  0  0  0  0  0  0  0  0  0  0  0
   30.7777   14.6735   80.5497 C   0  0  1  0  0  0  0  0  0  0  0  0
   29.9049   15.8943   80.8000 C   0  0  0  0  0  0  0  0  0  0  0  0
   30.2957   16.9526   79.8229 C   0  0  0  0  0  0  0  0  0  0  0  0
   31.2037   16.3251   78.8179 C   0  0  0  0  0  0  0  0  0  0  0  0
   31.6720   15.0150   79.4070 C   0  0  0  0  0  0  0  0  0  0  0  0
   31.3373    9.1907   77.1982 C   0  0  0  0  0  0  0  0  0  0  0  0
   31.3785    8.1071   76.4620 O   0  0  0  0  0  0  0  0  0  0  0  0
   32.6149    7.6981   76.3074 N   0  0  0  0  0  0  0  0  0  0  0  0
   33.4441    8.5314   76.9605 C   0  0  0  0  0  0  0  0  0  0  0  0
   34.9236    8.5060   77.0934 C   0  0  0  0  0  0  0  0  0  0  0  0
   30.1265    9.9533   77.5966 C   0  0  0  0  0  0  0  0  0  0  0  0
   29.3722    9.2394   78.6072 N   0  0  0  0  0  0  0  0  0  0  0  0
   28.1013    9.6954   79.0486 C   0  0  0  0  0  0  0  0  0  0  0  0
   27.8185   10.9117   78.7746 O   0  0  0  0  0  0  0  0  0  0  0  0
   27.1445    8.8298   79.7845 C   0  0  0  0  0  0  0  0  0  0  0  0
  1  2  2  0
  1  6  1  0
  2  3  1  0
  2  7  1  0
  3  4  2  0
  4  5  1  0
  5  6  2  0
  5 11  1  0
  6  8  1  0
  7 18  2  0
  7 21  1  0
  8  9  2  0
  8 10  2  0
  8 12  1  6
 13 12  1  1
 13 14  1  0
 13 17  1  0
 14 15  1  0
 15 16  1  0
 16 17  1  0
 18 19  1  0
 18 23  1  0
 19 20  1  0
 20 21  2  0
 21 22  1  0
 23 24  1  0
 24 25  1  0
 25 26  2  0
 25 27  1  0
M  END
$$$$
