
     RDKit          3D

 27 29  0  0  0  0  0  0  0  0999 V2000
   33.7742   10.4891   79.1806 C   0  0  0  0  0  0  0  0  0  0  0  0
   32.4508   10.7710   78.9254 C   0  0  0  0  0  0  0  0  0  0  0  0
   31.9095   11.9342   79.4316 C   0  0  0  0  0  0  0  0  0  0  0  0
   32.6792   12.7998   80.1796 C   0  0  0  0  0  0  0  0  0  0  0  0
   34.0095   12.5098   80.4322 C   0  0  0  0  0  0  0  0  0  0  0  0
   34.5565   11.3538   79.9323 C   0  0  0  0  0  0  0  0  0  0  0  0
   31.6243    9.8799   78.1414 C   0  0  0  0  0  0  0  0  0  0  0  0
   36.2446   11.0144   80.2699 S   0  0  2  0  0  6  0  0  0  0  0  0
   36.4634    9.5761   79.8021 O   0  0  0  0  0  0  0  0  0  0  0  0
   36.3951   11.0050   81.7349 O   0  0  0  0  0  0  0  0  0  0  0  0
   34.8687   13.4121   81.2287 C   0  0  0  0  0  0  0  0  0  0  0  0
   37.2479   12.0048   79.3908 N   0  0  0  0  0  0  0  0  0  0  0  0
   38.4042   12.5528   79.9180 C   0  0  1  0  0  0  0  0  0  0  0  0
   39.2432   13.1200   78.7626 C   0  0  0  0  0  0  0  0  0  0  0  0
   39.1684   14.6055   78.8463 C   0  0  0  0  0  0  0  0  0  0  0  0
   38.1286   14.8699   79.9108 C   0  0  0  0  0  0  0  0  0  0  0  0
   38.3113   13.7167   80.8339 C   0  0  0  0  0  0  0  0  0  0  0  0
   30.3426    9.4773   78.4018 C   0  0  0  0  0  0  0  0  0  0  0  0
   29.9869    8.6747   77.4312 O   0  0  0  0  0  0  0  0  0  0  0  0
   30.9425    8.5359   76.5745 N   0  0  0  0  0  0  0  0  0  0  0  0
   31.9994    9.2715   76.9691 C   0  0  0  0  0  0  0  0  0  0  0  0
   33.3108    9.4084   76.2872 C   0  0  0  0  0  0  0  0  0  0  0  0
   29.4985    9.8507   79.5372 C   0  0  0  0  0  0  0  0  0  0  0  0
   28.2266    9.2050   79.5630 N   0  0  0  0  0  0  0  0  0  0  0  0
   27.4224    9.3103   80.7247 C   0  0  0  0  0  0  0  0  0  0  0  0
   27.8036    9.9013   81.7741 O   0  0  0  0  0  0  0  0  0  0  0  0
   26.0425    8.7200   80.7929 C   0  0  0  0  0  0  0  0  0  0  0  0
  1  2  2  0
  1  6  1  0
  2  3  1  0
  2  7  1  0
  3  4  2  0
  4  5  1  0
  5  6  2  0
 11  5  1  6
  6  8  1  0
  7 18  2  0
  7 21  1  0
  8  9  2  0
  8 10  2  0
  8 12  1  6
 13 12  1  6
 14 13  1  1
 13 17  1  0
 15 14  1  1
 16 15  1  1
 17 16  1  6
 18 19  1  0
 18 23  1  0
 19 20  1  0
 20 21  2  0
 22 21  1  6
 23 24  1  6
 24 25  1  0
 25 26  2  0
 27 25  1  6
M  END
$$$$
