
     RDKit          3D

 27 29  0  0  0  0  0  0  0  0999 V2000
   32.1740   10.7523   79.2097 C   0  0  0  0  0  0  0  0  0  0  0  0
   32.4600    9.8387   78.2264 C   0  0  0  0  0  0  0  0  0  0  0  0
   33.7892    9.6778   77.8874 C   0  0  0  0  0  0  0  0  0  0  0  0
   34.7775   10.4140   78.5217 C   0  0  0  0  0  0  0  0  0  0  0  0
   34.4686   11.3365   79.5171 C   0  0  0  0  0  0  0  0  0  0  0  0
   33.1497   11.5122   79.8705 C   0  0  0  0  0  0  0  0  0  0  0  0
   31.4524    9.0460   77.5334 C   0  0  0  0  0  0  0  0  0  0  0  0
   32.6628   12.6394   81.1133 S   0  0  2  0  0  6  0  0  0  0  0  0
   33.3790   12.2657   82.3889 O   0  0  0  0  0  0  0  0  0  0  0  0
   31.1897   12.5185   81.4054 O   0  0  0  0  0  0  0  0  0  0  0  0
   35.5686   12.1022   80.1572 C   0  0  0  0  0  0  0  0  0  0  0  0
   33.0218   14.2637   80.7741 N   0  0  0  0  0  0  0  0  0  0  0  0
   32.2827   14.7139   79.6320 C   0  0  1  0  0  0  0  0  0  0  0  0
   32.1821   16.2313   79.5859 C   0  0  0  0  0  0  0  0  0  0  0  0
   32.6676   16.6884   78.2506 C   0  0  0  0  0  0  0  0  0  0  0  0
   32.8204   15.4794   77.3886 C   0  0  0  0  0  0  0  0  0  0  0  0
   32.8138   14.2807   78.3083 C   0  0  0  0  0  0  0  0  0  0  0  0
   30.3934    8.4385   78.1308 C   0  0  0  0  0  0  0  0  0  0  0  0
   29.7272    7.8276   77.1817 O   0  0  0  0  0  0  0  0  0  0  0  0
   30.3026    8.0128   76.0179 N   0  0  0  0  0  0  0  0  0  0  0  0
   31.3980    8.7758   76.1797 C   0  0  0  0  0  0  0  0  0  0  0  0
   32.3846    9.2649   75.1822 C   0  0  0  0  0  0  0  0  0  0  0  0
   30.0616    8.4661   79.5783 C   0  0  0  0  0  0  0  0  0  0  0  0
   29.4952    9.7450   79.9571 N   0  0  0  0  0  0  0  0  0  0  0  0
   28.1477    9.8636   80.3909 C   0  0  0  0  0  0  0  0  0  0  0  0
   27.5587    8.7687   80.6889 O   0  0  0  0  0  0  0  0  0  0  0  0
   27.4469   11.1687   80.4989 C   0  0  0  0  0  0  0  0  0  0  0  0
  1  2  2  0
  1  6  1  0
  2  3  1  0
  2  7  1  0
  3  4  2  0
  4  5  1  0
  5  6  2  0
  5 11  1  0
  6  8  1  0
  7 18  2  0
  7 21  1  0
  8  9  2  0
  8 10  2  0
  8 12  1  6
 13 12  1  1
 13 14  1  0
 13 17  1  0
 14 15  1  0
 15 16  1  0
 16 17  1  0
 18 19  1  0
 18 23  1  0
 19 20  1  0
 20 21  2  0
 21 22  1  0
 23 24  1  0
 24 25  1  0
 25 26  2  0
 25 27  1  0
M  END
$$$$
