
     RDKit          3D

 27 29  0  0  0  0  0  0  0  0999 V2000
   32.9326   10.6703   79.3164 C   0  0  0  0  0  0  0  0  0  0  0  0
   32.1934   10.5488   78.1665 C   0  0  0  0  0  0  0  0  0  0  0  0
   31.9971   11.6961   77.4231 C   0  0  0  0  0  0  0  0  0  0  0  0
   32.5295   12.9079   77.8343 C   0  0  0  0  0  0  0  0  0  0  0  0
   33.2768   13.0123   79.0038 C   0  0  0  0  0  0  0  0  0  0  0  0
   33.4848   11.8806   79.7597 C   0  0  0  0  0  0  0  0  0  0  0  0
   31.6146    9.2956   77.6992 C   0  0  0  0  0  0  0  0  0  0  0  0
   34.4156   11.9083   81.2378 S   0  0  2  0  0  6  0  0  0  0  0  0
   35.2581   13.1613   81.2355 O   0  0  0  0  0  0  0  0  0  0  0  0
   35.3797   10.7517   81.2910 O   0  0  0  0  0  0  0  0  0  0  0  0
   33.8168   14.3384   79.3987 C   0  0  0  0  0  0  0  0  0  0  0  0
   33.4860   11.9115   82.6584 N   0  0  0  0  0  0  0  0  0  0  0  0
   32.7987   13.1601   82.8066 C   0  0  1  0  0  0  0  0  0  0  0  0
   31.3186   13.0333   82.4779 C   0  0  0  0  0  0  0  0  0  0  0  0
   30.5391   13.5659   83.6339 C   0  0  0  0  0  0  0  0  0  0  0  0
   31.5004   14.2484   84.5495 C   0  0  0  0  0  0  0  0  0  0  0  0
   32.8843   13.7873   84.1561 C   0  0  0  0  0  0  0  0  0  0  0  0
   30.4785    8.7325   78.1888 C   0  0  0  0  0  0  0  0  0  0  0  0
   30.2914    7.6220   77.5182 O   0  0  0  0  0  0  0  0  0  0  0  0
   31.2428    7.4490   76.6324 N   0  0  0  0  0  0  0  0  0  0  0  0
   32.1074    8.4766   76.7019 C   0  0  0  0  0  0  0  0  0  0  0  0
   33.3415    8.7489   75.9206 C   0  0  0  0  0  0  0  0  0  0  0  0
   29.6206    9.2757   79.2728 C   0  0  0  0  0  0  0  0  0  0  0  0
   29.8819   10.6851   79.4851 N   0  0  0  0  0  0  0  0  0  0  0  0
   29.2837   11.4002   80.5569 C   0  0  0  0  0  0  0  0  0  0  0  0
   28.6027   10.7016   81.3829 O   0  0  0  0  0  0  0  0  0  0  0  0
   29.4277   12.8688   80.7265 C   0  0  0  0  0  0  0  0  0  0  0  0
  1  2  2  0
  1  6  1  0
  2  3  1  0
  2  7  1  0
  3  4  2  0
  4  5  1  0
  5  6  2  0
  5 11  1  0
  6  8  1  0
  7 18  2  0
  7 21  1  0
  8  9  2  0
  8 10  2  0
  8 12  1  1
 13 12  1  1
 13 14  1  0
 13 17  1  0
 14 15  1  0
 15 16  1  0
 16 17  1  0
 18 19  1  0
 18 23  1  0
 19 20  1  0
 20 21  2  0
 21 22  1  0
 23 24  1  0
 24 25  1  0
 25 26  2  0
 25 27  1  0
M  END
$$$$
