
     RDKit          3D

 27 29  0  0  0  0  0  0  0  0999 V2000
   32.3842   11.6785   79.1214 C   0  0  0  0  0  0  0  0  0  0  0  0
   32.6164   10.5503   78.3670 C   0  0  0  0  0  0  0  0  0  0  0  0
   33.8864   10.3281   77.8772 C   0  0  0  0  0  0  0  0  0  0  0  0
   34.9059   11.2191   78.1381 C   0  0  0  0  0  0  0  0  0  0  0  0
   34.6650   12.3517   78.8976 C   0  0  0  0  0  0  0  0  0  0  0  0
   33.4035   12.5809   79.3891 C   0  0  0  0  0  0  0  0  0  0  0  0
   31.5640    9.6001   78.0821 C   0  0  0  0  0  0  0  0  0  0  0  0
   33.1301   14.0249   80.3477 S   0  0  2  0  0  6  0  0  0  0  0  0
   31.6168   14.2371   80.3262 O   0  0  0  0  0  0  0  0  0  0  0  0
   33.7208   15.1509   79.6045 O   0  0  0  0  0  0  0  0  0  0  0  0
   35.7309   13.3308   79.2008 C   0  0  0  0  0  0  0  0  0  0  0  0
   33.6007   13.8013   81.9253 N   0  0  0  0  0  0  0  0  0  0  0  0
   34.9299   13.7436   82.3061 C   0  0  1  0  0  0  0  0  0  0  0  0
   35.1478   14.7348   83.4597 C   0  0  0  0  0  0  0  0  0  0  0  0
   35.3377   13.9357   84.7026 C   0  0  0  0  0  0  0  0  0  0  0  0
   35.0213   12.5169   84.2890 C   0  0  0  0  0  0  0  0  0  0  0  0
   35.4755   12.4849   82.8720 C   0  0  0  0  0  0  0  0  0  0  0  0
   30.3144    9.5402   78.6369 C   0  0  0  0  0  0  0  0  0  0  0  0
   29.6974    8.5257   78.0865 O   0  0  0  0  0  0  0  0  0  0  0  0
   30.4574    7.9363   77.2253 N   0  0  0  0  0  0  0  0  0  0  0  0
   31.6456    8.5688   77.1795 C   0  0  0  0  0  0  0  0  0  0  0  0
   32.8165    8.2327   76.3311 C   0  0  0  0  0  0  0  0  0  0  0  0
   29.7412   10.4231   79.6532 C   0  0  0  0  0  0  0  0  0  0  0  0
   28.3275   10.3061   79.8055 N   0  0  0  0  0  0  0  0  0  0  0  0
   27.7670   10.3536   81.1059 C   0  0  0  0  0  0  0  0  0  0  0  0
   28.4588   10.5359   82.1470 O   0  0  0  0  0  0  0  0  0  0  0  0
   26.2926   10.1887   81.3428 C   0  0  0  0  0  0  0  0  0  0  0  0
  1  2  2  0
  1  6  1  0
  2  3  1  0
  2  7  1  0
  3  4  2  0
  4  5  1  0
  5  6  2  0
 11  5  1  6
  6  8  1  0
  7 18  2  0
  7 21  1  0
  8  9  2  0
  8 10  2  0
  8 12  1  1
 13 12  1  1
 14 13  1  1
 13 17  1  0
 15 14  1  1
 16 15  1  1
 17 16  1  6
 18 19  1  0
 18 23  1  0
 19 20  1  0
 20 21  2  0
 22 21  1  6
 23 24  1  6
 24 25  1  0
 25 26  2  0
 27 25  1  6
M  END
$$$$
