
     RDKit          3D

 27 29  0  0  0  0  0  0  0  0999 V2000
   32.2386   11.2661   78.9085 C   0  0  0  0  0  0  0  0  0  0  0  0
   32.4890   10.2415   78.0304 C   0  0  0  0  0  0  0  0  0  0  0  0
   33.8127    9.9682   77.7467 C   0  0  0  0  0  0  0  0  0  0  0  0
   34.8306   10.7054   78.3311 C   0  0  0  0  0  0  0  0  0  0  0  0
   34.5578   11.7414   79.2196 C   0  0  0  0  0  0  0  0  0  0  0  0
   33.2448   12.0303   79.5165 C   0  0  0  0  0  0  0  0  0  0  0  0
   31.4497    9.4434   77.3927 C   0  0  0  0  0  0  0  0  0  0  0  0
   32.8016   13.3054   80.6255 S   0  0  2  0  0  6  0  0  0  0  0  0
   33.2411   12.8934   82.0100 O   0  0  0  0  0  0  0  0  0  0  0  0
   31.3053   13.4700   80.6893 O   0  0  0  0  0  0  0  0  0  0  0  0
   35.6888   12.5019   79.8100 C   0  0  0  0  0  0  0  0  0  0  0  0
   33.5040   14.8131   80.2858 N   0  0  0  0  0  0  0  0  0  0  0  0
   33.3895   15.1180   78.8904 C   0  0  1  0  0  0  0  0  0  0  0  0
   31.9382   15.2852   78.4654 C   0  0  0  0  0  0  0  0  0  0  0  0
   31.8038   16.6050   77.7816 C   0  0  0  0  0  0  0  0  0  0  0  0
   33.1800   17.1347   77.5498 C   0  0  0  0  0  0  0  0  0  0  0  0
   34.1111   16.3406   78.4359 C   0  0  0  0  0  0  0  0  0  0  0  0
   30.2432    9.1507   77.9460 C   0  0  0  0  0  0  0  0  0  0  0  0
   29.5977    8.4177   77.0721 O   0  0  0  0  0  0  0  0  0  0  0  0
   30.3251    8.2290   75.9974 N   0  0  0  0  0  0  0  0  0  0  0  0
   31.5063    8.8548   76.1442 C   0  0  0  0  0  0  0  0  0  0  0  0
   32.6679    8.9439   75.2221 C   0  0  0  0  0  0  0  0  0  0  0  0
   29.7572    9.5816   79.2819 C   0  0  0  0  0  0  0  0  0  0  0  0
   28.3421    9.8912   79.2447 N   0  0  0  0  0  0  0  0  0  0  0  0
   27.3982    9.1539   80.0086 C   0  0  0  0  0  0  0  0  0  0  0  0
   27.8663    8.5250   81.0183 O   0  0  0  0  0  0  0  0  0  0  0  0
   25.9521    9.1032   79.6730 C   0  0  0  0  0  0  0  0  0  0  0  0
  1  2  2  0
  1  6  1  0
  2  3  1  0
  2  7  1  0
  3  4  2  0
  4  5  1  0
  5  6  2  0
  5 11  1  0
  6  8  1  0
  7 18  2  0
  7 21  1  0
  8  9  2  0
  8 10  2  0
  8 12  1  6
 13 12  1  1
 13 14  1  0
 13 17  1  0
 14 15  1  0
 15 16  1  0
 16 17  1  0
 18 19  1  0
 18 23  1  0
 19 20  1  0
 20 21  2  0
 21 22  1  0
 23 24  1  0
 24 25  1  0
 25 26  2  0
 25 27  1  0
M  END
$$$$
