
     RDKit          3D

 27 29  0  0  0  0  0  0  0  0999 V2000
   32.9733   10.9621   79.3224 C   0  0  0  0  0  0  0  0  0  0  0  0
   31.6675   10.5266   79.2935 C   0  0  0  0  0  0  0  0  0  0  0  0
   30.7795   11.0261   80.2233 C   0  0  0  0  0  0  0  0  0  0  0  0
   31.1914   11.9453   81.1649 C   0  0  0  0  0  0  0  0  0  0  0  0
   32.5063   12.3788   81.1879 C   0  0  0  0  0  0  0  0  0  0  0  0
   33.3971   11.8866   80.2662 C   0  0  0  0  0  0  0  0  0  0  0  0
   31.2114    9.5652   78.3140 C   0  0  0  0  0  0  0  0  0  0  0  0
   35.0562   12.4553   80.3215 S   0  0  2  0  0  6  0  0  0  0  0  0
   35.7703   11.7118   79.1933 O   0  0  0  0  0  0  0  0  0  0  0  0
   35.6369   11.9605   81.5813 O   0  0  0  0  0  0  0  0  0  0  0  0
   32.9874   13.3639   82.1804 C   0  0  0  0  0  0  0  0  0  0  0  0
   35.1476   14.0845   80.0093 N   0  0  0  0  0  0  0  0  0  0  0  0
   34.0800   14.8091   79.5091 C   0  0  1  0  0  0  0  0  0  0  0  0
   34.1331   16.2249   80.1037 C   0  0  0  0  0  0  0  0  0  0  0  0
   34.5493   17.1500   79.0128 C   0  0  0  0  0  0  0  0  0  0  0  0
   34.9294   16.2366   77.8702 C   0  0  0  0  0  0  0  0  0  0  0  0
   34.0016   15.0873   78.0535 C   0  0  0  0  0  0  0  0  0  0  0  0
   30.2828    8.5738   78.4801 C   0  0  0  0  0  0  0  0  0  0  0  0
   30.1811    7.9465   77.3360 O   0  0  0  0  0  0  0  0  0  0  0  0
   30.9726    8.4620   76.4559 N   0  0  0  0  0  0  0  0  0  0  0  0
   31.6471    9.4851   77.0145 C   0  0  0  0  0  0  0  0  0  0  0  0
   32.6593   10.3594   76.3704 C   0  0  0  0  0  0  0  0  0  0  0  0
   29.5271    8.2464   79.6895 C   0  0  0  0  0  0  0  0  0  0  0  0
   28.1159    8.4161   79.5662 N   0  0  0  0  0  0  0  0  0  0  0  0
   27.4552    9.3402   80.4128 C   0  0  0  0  0  0  0  0  0  0  0  0
   28.0348    9.9407   81.3611 O   0  0  0  0  0  0  0  0  0  0  0  0
   26.0009    9.6765   80.2416 C   0  0  0  0  0  0  0  0  0  0  0  0
  1  2  2  0
  1  6  1  0
  2  3  1  0
  2  7  1  0
  3  4  2  0
  4  5  1  0
  5  6  2  0
 11  5  1  6
  6  8  1  0
  7 18  2  0
  7 21  1  0
  8  9  2  0
  8 10  2  0
  8 12  1  6
 13 12  1  6
 14 13  1  1
 13 17  1  0
 15 14  1  1
 16 15  1  1
 17 16  1  6
 18 19  1  0
 18 23  1  0
 19 20  1  0
 20 21  2  0
 22 21  1  6
 23 24  1  6
 24 25  1  0
 25 26  2  0
 27 25  1  6
M  END
$$$$
