
     RDKit          3D

 27 29  0  0  0  0  0  0  0  0999 V2000
   32.6041   11.1262   79.4761 C   0  0  0  0  0  0  0  0  0  0  0  0
   32.7589   10.6088   78.2144 C   0  0  0  0  0  0  0  0  0  0  0  0
   33.3591   11.4215   77.2727 C   0  0  0  0  0  0  0  0  0  0  0  0
   33.7802   12.6999   77.6035 C   0  0  0  0  0  0  0  0  0  0  0  0
   33.6148   13.2082   78.8886 C   0  0  0  0  0  0  0  0  0  0  0  0
   33.0191   12.4144   79.8428 C   0  0  0  0  0  0  0  0  0  0  0  0
   32.3293    9.2721   77.8241 C   0  0  0  0  0  0  0  0  0  0  0  0
   32.7751   12.9593   81.4847 S   0  0  2  0  0  6  0  0  0  0  0  0
   33.8887   13.9192   81.8282 O   0  0  0  0  0  0  0  0  0  0  0  0
   32.8904   11.8139   82.4567 O   0  0  0  0  0  0  0  0  0  0  0  0
   34.0791   14.5878   79.1838 C   0  0  0  0  0  0  0  0  0  0  0  0
   31.3012   13.7580   81.7526 N   0  0  0  0  0  0  0  0  0  0  0  0
   31.1684   14.8777   80.8683 C   0  0  1  0  0  0  0  0  0  0  0  0
   30.1106   14.6338   79.8022 C   0  0  0  0  0  0  0  0  0  0  0  0
   29.1457   15.7720   79.8368 C   0  0  0  0  0  0  0  0  0  0  0  0
   29.7263   16.8285   80.7172 C   0  0  0  0  0  0  0  0  0  0  0  0
   30.8289   16.1758   81.5177 C   0  0  0  0  0  0  0  0  0  0  0  0
   31.0710    8.7822   77.9800 C   0  0  0  0  0  0  0  0  0  0  0  0
   31.0852    7.5571   77.5144 O   0  0  0  0  0  0  0  0  0  0  0  0
   32.2792    7.2425   77.0726 N   0  0  0  0  0  0  0  0  0  0  0  0
   33.1065    8.2889   77.2430 C   0  0  0  0  0  0  0  0  0  0  0  0
   34.5468    8.4395   76.9107 C   0  0  0  0  0  0  0  0  0  0  0  0
   29.9103    9.5012   78.5649 C   0  0  0  0  0  0  0  0  0  0  0  0
   29.0941   10.1000   77.5280 N   0  0  0  0  0  0  0  0  0  0  0  0
   27.9827   10.9278   77.8402 C   0  0  0  0  0  0  0  0  0  0  0  0
   27.7692   11.1301   79.0843 O   0  0  0  0  0  0  0  0  0  0  0  0
   27.1095   11.5316   76.8014 C   0  0  0  0  0  0  0  0  0  0  0  0
  1  2  2  0
  1  6  1  0
  2  3  1  0
  2  7  1  0
  3  4  2  0
  4  5  1  0
  5  6  2  0
  5 11  1  0
  6  8  1  0
  7 18  2  0
  7 21  1  0
  8  9  2  0
  8 10  2  0
  8 12  1  6
 13 12  1  1
 13 14  1  0
 13 17  1  0
 14 15  1  0
 15 16  1  0
 16 17  1  0
 18 19  1  0
 18 23  1  0
 19 20  1  0
 20 21  2  0
 21 22  1  0
 23 24  1  0
 24 25  1  0
 25 26  2  0
 25 27  1  0
M  END
$$$$
