
     RDKit          3D

 27 29  0  0  0  0  0  0  0  0999 V2000
   32.3495   10.9340   79.8479 C   0  0  0  0  0  0  0  0  0  0  0  0
   33.0194   10.0787   79.0094 C   0  0  0  0  0  0  0  0  0  0  0  0
   34.2820   10.4616   78.6013 C   0  0  0  0  0  0  0  0  0  0  0  0
   34.8331   11.6594   79.0286 C   0  0  0  0  0  0  0  0  0  0  0  0
   34.1388   12.5147   79.8792 C   0  0  0  0  0  0  0  0  0  0  0  0
   32.8786   12.1519   80.2983 C   0  0  0  0  0  0  0  0  0  0  0  0
   32.4767    8.8121   78.5350 C   0  0  0  0  0  0  0  0  0  0  0  0
   31.9321   13.1535   81.3722 S   0  0  2  0  0  6  0  0  0  0  0  0
   32.3834   12.8779   82.7864 O   0  0  0  0  0  0  0  0  0  0  0  0
   30.4737   12.7797   81.3143 O   0  0  0  0  0  0  0  0  0  0  0  0
   34.7765   13.7888   80.2989 C   0  0  0  0  0  0  0  0  0  0  0  0
   32.0806   14.8220   81.0965 N   0  0  0  0  0  0  0  0  0  0  0  0
   31.4812   15.1800   79.8451 C   0  0  1  0  0  0  0  0  0  0  0  0
   31.6163   16.6682   79.5588 C   0  0  0  0  0  0  0  0  0  0  0  0
   32.2367   16.8270   78.2106 C   0  0  0  0  0  0  0  0  0  0  0  0
   32.2488   15.4840   77.5590 C   0  0  0  0  0  0  0  0  0  0  0  0
   32.0098   14.4651   78.6487 C   0  0  0  0  0  0  0  0  0  0  0  0
   31.1888    8.6127   78.1490 C   0  0  0  0  0  0  0  0  0  0  0  0
   31.0938    7.3541   77.7955 O   0  0  0  0  0  0  0  0  0  0  0  0
   32.2467    6.7448   77.9351 N   0  0  0  0  0  0  0  0  0  0  0  0
   33.1579    7.6179   78.3995 C   0  0  0  0  0  0  0  0  0  0  0  0
   34.5953    7.4261   78.7228 C   0  0  0  0  0  0  0  0  0  0  0  0
   30.1050    9.6282   78.1331 C   0  0  0  0  0  0  0  0  0  0  0  0
   30.3276   10.6091   77.0899 N   0  0  0  0  0  0  0  0  0  0  0  0
   29.9825   10.3484   75.7368 C   0  0  0  0  0  0  0  0  0  0  0  0
   28.9564    9.6077   75.5550 O   0  0  0  0  0  0  0  0  0  0  0  0
   30.7521   10.8925   74.5887 C   0  0  0  0  0  0  0  0  0  0  0  0
  1  2  2  0
  1  6  1  0
  2  3  1  0
  2  7  1  0
  3  4  2  0
  4  5  1  0
  5  6  2  0
  5 11  1  0
  6  8  1  0
  7 18  2  0
  7 21  1  0
  8  9  2  0
  8 10  2  0
  8 12  1  6
 13 12  1  1
 13 14  1  0
 13 17  1  0
 14 15  1  0
 15 16  1  0
 16 17  1  0
 18 19  1  0
 18 23  1  0
 19 20  1  0
 20 21  2  0
 21 22  1  0
 23 24  1  0
 24 25  1  0
 25 26  2  0
 25 27  1  0
M  END
$$$$
