
     RDKit          3D

 27 29  0  0  0  0  0  0  0  0999 V2000
   33.9137    9.7573   79.1709 C   0  0  0  0  0  0  0  0  0  0  0  0
   32.7637   10.2162   78.5789 C   0  0  0  0  0  0  0  0  0  0  0  0
   32.4306   11.5386   78.7974 C   0  0  0  0  0  0  0  0  0  0  0  0
   33.2326   12.3521   79.5824 C   0  0  0  0  0  0  0  0  0  0  0  0
   34.3957   11.8692   80.1752 C   0  0  0  0  0  0  0  0  0  0  0  0
   34.7463   10.5538   79.9698 C   0  0  0  0  0  0  0  0  0  0  0  0
   31.8917    9.3952   77.7486 C   0  0  0  0  0  0  0  0  0  0  0  0
   36.1907    9.8578   80.6638 S   0  0  2  0  0  6  0  0  0  0  0  0
   35.9159    8.4010   80.9497 O   0  0  0  0  0  0  0  0  0  0  0  0
   36.5135   10.4947   81.9906 O   0  0  0  0  0  0  0  0  0  0  0  0
   35.2125   12.7850   81.0120 C   0  0  0  0  0  0  0  0  0  0  0  0
   37.5636    9.9408   79.6686 N   0  0  0  0  0  0  0  0  0  0  0  0
   37.8622   11.3024   79.3366 C   0  0  1  0  0  0  0  0  0  0  0  0
   38.4303   12.0627   80.5257 C   0  0  0  0  0  0  0  0  0  0  0  0
   39.7201   12.6851   80.1055 C   0  0  0  0  0  0  0  0  0  0  0  0
   39.8287   12.5404   78.6237 C   0  0  0  0  0  0  0  0  0  0  0  0
   38.8178   11.4968   78.2093 C   0  0  0  0  0  0  0  0  0  0  0  0
   30.7226    8.8379   78.1610 C   0  0  0  0  0  0  0  0  0  0  0  0
   30.2394    8.1787   77.1364 O   0  0  0  0  0  0  0  0  0  0  0  0
   31.0343    8.2862   76.0990 N   0  0  0  0  0  0  0  0  0  0  0  0
   32.0951    9.0443   76.4280 C   0  0  0  0  0  0  0  0  0  0  0  0
   33.2682    9.4600   75.6165 C   0  0  0  0  0  0  0  0  0  0  0  0
   30.1163    8.9571   79.5118 C   0  0  0  0  0  0  0  0  0  0  0  0
   29.1481   10.0344   79.5533 N   0  0  0  0  0  0  0  0  0  0  0  0
   28.6327   10.5254   80.7826 C   0  0  0  0  0  0  0  0  0  0  0  0
   29.0724    9.9563   81.8395 O   0  0  0  0  0  0  0  0  0  0  0  0
   27.6434   11.6308   80.8585 C   0  0  0  0  0  0  0  0  0  0  0  0
  1  2  2  0
  1  6  1  0
  2  3  1  0
  2  7  1  0
  3  4  2  0
  4  5  1  0
  5  6  2  0
  5 11  1  0
  6  8  1  0
  7 18  2  0
  7 21  1  0
  8  9  2  0
  8 10  2  0
  8 12  1  6
 13 12  1  1
 13 14  1  0
 13 17  1  0
 14 15  1  0
 15 16  1  0
 16 17  1  0
 18 19  1  0
 18 23  1  0
 19 20  1  0
 20 21  2  0
 21 22  1  0
 23 24  1  0
 24 25  1  0
 25 26  2  0
 25 27  1  0
M  END
$$$$
