
     RDKit          3D

 27 29  0  0  0  0  0  0  0  0999 V2000
   31.9098   11.1406   79.0519 C   0  0  0  0  0  0  0  0  0  0  0  0
   32.2594   10.1762   78.1401 C   0  0  0  0  0  0  0  0  0  0  0  0
   33.6080   10.0002   77.8995 C   0  0  0  0  0  0  0  0  0  0  0  0
   34.5529   10.7715   78.5578 C   0  0  0  0  0  0  0  0  0  0  0  0
   34.1798   11.7453   79.4795 C   0  0  0  0  0  0  0  0  0  0  0  0
   32.8405   11.9368   79.7345 C   0  0  0  0  0  0  0  0  0  0  0  0
   31.2991    9.3453   77.4251 C   0  0  0  0  0  0  0  0  0  0  0  0
   32.2736   13.1279   80.8800 S   0  0  2  0  0  6  0  0  0  0  0  0
   32.8124   12.7596   82.2415 O   0  0  0  0  0  0  0  0  0  0  0  0
   30.7719   13.0931   80.9970 O   0  0  0  0  0  0  0  0  0  0  0  0
   35.2358   12.5466   80.1495 C   0  0  0  0  0  0  0  0  0  0  0  0
   32.7594   14.7194   80.5434 N   0  0  0  0  0  0  0  0  0  0  0  0
   32.1029   15.2071   79.3667 C   0  0  1  0  0  0  0  0  0  0  0  0
   31.9052   16.7149   79.4135 C   0  0  0  0  0  0  0  0  0  0  0  0
   32.4827   17.2977   78.1668 C   0  0  0  0  0  0  0  0  0  0  0  0
   32.7972   16.1670   77.2444 C   0  0  0  0  0  0  0  0  0  0  0  0
   32.7845   14.9056   78.0758 C   0  0  0  0  0  0  0  0  0  0  0  0
   30.1694    8.8188   77.9673 C   0  0  0  0  0  0  0  0  0  0  0  0
   29.5789    8.1378   77.0158 O   0  0  0  0  0  0  0  0  0  0  0  0
   30.2688    8.2025   75.9024 N   0  0  0  0  0  0  0  0  0  0  0  0
   31.3666    8.9530   76.1022 C   0  0  0  0  0  0  0  0  0  0  0  0
   32.4589    9.3264   75.1669 C   0  0  0  0  0  0  0  0  0  0  0  0
   29.7012    8.9867   79.3669 C   0  0  0  0  0  0  0  0  0  0  0  0
   28.5611    9.8790   79.4296 N   0  0  0  0  0  0  0  0  0  0  0  0
   27.9465   10.2163   80.6651 C   0  0  0  0  0  0  0  0  0  0  0  0
   28.5018    9.7397   81.7134 O   0  0  0  0  0  0  0  0  0  0  0  0
   26.7334   11.0685   80.7566 C   0  0  0  0  0  0  0  0  0  0  0  0
  1  2  2  0
  1  6  1  0
  2  3  1  0
  2  7  1  0
  3  4  2  0
  4  5  1  0
  5  6  2  0
  5 11  1  0
  6  8  1  0
  7 18  2  0
  7 21  1  0
  8  9  2  0
  8 10  2  0
  8 12  1  6
 13 12  1  1
 13 14  1  0
 13 17  1  0
 14 15  1  0
 15 16  1  0
 16 17  1  0
 18 19  1  0
 18 23  1  0
 19 20  1  0
 20 21  2  0
 21 22  1  0
 23 24  1  0
 24 25  1  0
 25 26  2  0
 25 27  1  0
M  END
$$$$
