
     RDKit          3D

 27 29  0  0  0  0  0  0  0  0999 V2000
   32.3235   10.9562   78.9732 C   0  0  0  0  0  0  0  0  0  0  0  0
   32.5199    9.9711   78.0382 C   0  0  0  0  0  0  0  0  0  0  0  0
   33.8241    9.7123   77.6644 C   0  0  0  0  0  0  0  0  0  0  0  0
   34.8758   10.4251   78.2184 C   0  0  0  0  0  0  0  0  0  0  0  0
   34.6576   11.4212   79.1657 C   0  0  0  0  0  0  0  0  0  0  0  0
   33.3650   11.6948   79.5527 C   0  0  0  0  0  0  0  0  0  0  0  0
   31.4436    9.1997   77.4296 C   0  0  0  0  0  0  0  0  0  0  0  0
   32.9902   12.9200   80.7404 S   0  0  2  0  0  6  0  0  0  0  0  0
   33.4028   12.3979   82.0957 O   0  0  0  0  0  0  0  0  0  0  0  0
   31.5051   13.1627   80.8160 O   0  0  0  0  0  0  0  0  0  0  0  0
   35.8227   12.1571   79.7199 C   0  0  0  0  0  0  0  0  0  0  0  0
   33.7756   14.4050   80.4959 N   0  0  0  0  0  0  0  0  0  0  0  0
   33.4711   14.9267   79.1965 C   0  0  1  0  0  0  0  0  0  0  0  0
   31.9853   15.2121   79.0357 C   0  0  0  0  0  0  0  0  0  0  0  0
   31.8305   16.6261   78.5838 C   0  0  0  0  0  0  0  0  0  0  0  0
   33.1859   17.1333   78.2179 C   0  0  0  0  0  0  0  0  0  0  0  0
   34.1895   16.1770   78.8187 C   0  0  0  0  0  0  0  0  0  0  0  0
   30.4312    8.6027   78.1125 C   0  0  0  0  0  0  0  0  0  0  0  0
   29.6754    8.0103   77.2205 O   0  0  0  0  0  0  0  0  0  0  0  0
   30.1501    8.1974   76.0124 N   0  0  0  0  0  0  0  0  0  0  0  0
   31.2672    8.9425   76.0838 C   0  0  0  0  0  0  0  0  0  0  0  0
   32.1707    9.4257   75.0079 C   0  0  0  0  0  0  0  0  0  0  0  0
   30.2272    8.6222   79.5836 C   0  0  0  0  0  0  0  0  0  0  0  0
   28.8206    8.7407   79.9114 N   0  0  0  0  0  0  0  0  0  0  0  0
   28.2618    9.9663   80.3627 C   0  0  0  0  0  0  0  0  0  0  0  0
   29.0601   10.9642   80.3985 O   0  0  0  0  0  0  0  0  0  0  0  0
   26.8406   10.1025   80.7724 C   0  0  0  0  0  0  0  0  0  0  0  0
  1  2  2  0
  1  6  1  0
  2  3  1  0
  2  7  1  0
  3  4  2  0
  4  5  1  0
  5  6  2  0
  5 11  1  0
  6  8  1  0
  7 18  2  0
  7 21  1  0
  8  9  2  0
  8 10  2  0
  8 12  1  6
 13 12  1  1
 13 14  1  0
 13 17  1  0
 14 15  1  0
 15 16  1  0
 16 17  1  0
 18 19  1  0
 18 23  1  0
 19 20  1  0
 20 21  2  0
 21 22  1  0
 23 24  1  0
 24 25  1  0
 25 26  2  0
 25 27  1  0
M  END
$$$$
