
     RDKit          3D

 27 29  0  0  0  0  0  0  0  0999 V2000
   30.9809   11.2554   79.6847 C   0  0  0  0  0  0  0  0  0  0  0  0
   31.4351   10.2484   78.8704 C   0  0  0  0  0  0  0  0  0  0  0  0
   32.7981   10.1806   78.6577 C   0  0  0  0  0  0  0  0  0  0  0  0
   33.6548   11.0966   79.2475 C   0  0  0  0  0  0  0  0  0  0  0  0
   33.1761   12.1118   80.0706 C   0  0  0  0  0  0  0  0  0  0  0  0
   31.8207   12.1972   80.2962 C   0  0  0  0  0  0  0  0  0  0  0  0
   30.5697    9.2665   78.2296 C   0  0  0  0  0  0  0  0  0  0  0  0
   31.1248   13.4299   81.3201 S   0  0  2  0  0  6  0  0  0  0  0  0
   31.2420   12.9677   82.7527 O   0  0  0  0  0  0  0  0  0  0  0  0
   29.6517   13.5903   81.0476 O   0  0  0  0  0  0  0  0  0  0  0  0
   34.1404   13.0693   80.6701 C   0  0  0  0  0  0  0  0  0  0  0  0
   31.8716   14.9501   81.2032 N   0  0  0  0  0  0  0  0  0  0  0  0
   31.3586   15.6770   80.0799 C   0  0  1  0  0  0  0  0  0  0  0  0
   31.8859   17.1036   80.0411 C   0  0  0  0  0  0  0  0  0  0  0  0
   32.4893   17.3391   78.6964 C   0  0  0  0  0  0  0  0  0  0  0  0
   32.1177   16.1839   77.8271 C   0  0  0  0  0  0  0  0  0  0  0  0
   31.6400   15.0811   78.7428 C   0  0  0  0  0  0  0  0  0  0  0  0
   30.7336    8.7906   76.9669 C   0  0  0  0  0  0  0  0  0  0  0  0
   29.7616    7.9362   76.7591 O   0  0  0  0  0  0  0  0  0  0  0  0
   28.9917    7.8431   77.8166 N   0  0  0  0  0  0  0  0  0  0  0  0
   29.4549    8.6620   78.7775 C   0  0  0  0  0  0  0  0  0  0  0  0
   28.9439    8.9207   80.1484 C   0  0  0  0  0  0  0  0  0  0  0  0
   31.8077    9.1695   76.0136 C   0  0  0  0  0  0  0  0  0  0  0  0
   31.2850    9.3038   74.6687 N   0  0  0  0  0  0  0  0  0  0  0  0
   32.1311    9.6022   73.5673 C   0  0  0  0  0  0  0  0  0  0  0  0
   33.3394    9.9028   73.8569 O   0  0  0  0  0  0  0  0  0  0  0  0
   31.6618    9.5728   72.1584 C   0  0  0  0  0  0  0  0  0  0  0  0
  1  2  2  0
  1  6  1  0
  2  3  1  0
  2  7  1  0
  3  4  2  0
  4  5  1  0
  5  6  2  0
  5 11  1  0
  6  8  1  0
  7 18  2  0
  7 21  1  0
  8  9  2  0
  8 10  2  0
  8 12  1  1
 13 12  1  1
 13 14  1  0
 13 17  1  0
 14 15  1  0
 15 16  1  0
 16 17  1  0
 18 19  1  0
 18 23  1  0
 19 20  1  0
 20 21  2  0
 21 22  1  0
 23 24  1  0
 24 25  1  0
 25 26  2  0
 25 27  1  0
M  END
$$$$
