
     RDKit          3D

 27 29  0  0  0  0  0  0  0  0999 V2000
   33.6723   11.1705   78.9855 C   0  0  0  0  0  0  0  0  0  0  0  0
   32.3611   11.0427   78.5851 C   0  0  0  0  0  0  0  0  0  0  0  0
   31.5265   12.1363   78.6836 C   0  0  0  0  0  0  0  0  0  0  0  0
   31.9961   13.3365   79.1740 C   0  0  0  0  0  0  0  0  0  0  0  0
   33.3160   13.4577   79.5748 C   0  0  0  0  0  0  0  0  0  0  0  0
   34.1539   12.3739   79.4803 C   0  0  0  0  0  0  0  0  0  0  0  0
   31.8463    9.7951   78.0653 C   0  0  0  0  0  0  0  0  0  0  0  0
   35.8207   12.5591   79.9965 S   0  0  2  0  0  6  0  0  0  0  0  0
   36.3030   13.8480   79.3317 O   0  0  0  0  0  0  0  0  0  0  0  0
   36.5844   11.4603   79.3814 O   0  0  0  0  0  0  0  0  0  0  0  0
   33.8586   14.7270   80.1049 C   0  0  0  0  0  0  0  0  0  0  0  0
   35.9255   12.7535   81.6431 N   0  0  0  0  0  0  0  0  0  0  0  0
   36.7956   13.6528   82.2342 C   0  0  1  0  0  0  0  0  0  0  0  0
   36.0827   15.0082   82.3579 C   0  0  0  0  0  0  0  0  0  0  0  0
   35.7735   15.2179   83.8000 C   0  0  0  0  0  0  0  0  0  0  0  0
   36.1206   13.9004   84.4541 C   0  0  0  0  0  0  0  0  0  0  0  0
   37.2584   13.4181   83.6245 C   0  0  0  0  0  0  0  0  0  0  0  0
   30.9224    8.9644   78.6387 C   0  0  0  0  0  0  0  0  0  0  0  0
   30.7543    7.9547   77.8232 O   0  0  0  0  0  0  0  0  0  0  0  0
   31.4993    8.0791   76.7762 N   0  0  0  0  0  0  0  0  0  0  0  0
   32.2095    9.2193   76.8729 C   0  0  0  0  0  0  0  0  0  0  0  0
   33.1901    9.7592   75.8978 C   0  0  0  0  0  0  0  0  0  0  0  0
   30.2322    9.1373   79.9173 C   0  0  0  0  0  0  0  0  0  0  0  0
   28.9563    8.5030   79.9885 N   0  0  0  0  0  0  0  0  0  0  0  0
   27.7859    9.2884   79.8447 C   0  0  0  0  0  0  0  0  0  0  0  0
   27.8094   10.5483   79.7556 O   0  0  0  0  0  0  0  0  0  0  0  0
   26.4168    8.6723   79.7872 C   0  0  0  0  0  0  0  0  0  0  0  0
  1  2  2  0
  1  6  1  0
  2  3  1  0
  2  7  1  0
  3  4  2  0
  4  5  1  0
  5  6  2  0
 11  5  1  6
  6  8  1  0
  7 18  2  0
  7 21  1  0
  8  9  2  0
  8 10  2  0
  8 12  1  1
 13 12  1  1
 14 13  1  1
 13 17  1  0
 15 14  1  1
 16 15  1  1
 17 16  1  6
 18 19  1  0
 18 23  1  0
 19 20  1  0
 20 21  2  0
 22 21  1  6
 23 24  1  6
 24 25  1  0
 25 26  2  0
 27 25  1  6
M  END
$$$$
