
     RDKit          3D

 27 29  0  0  0  0  0  0  0  0999 V2000
   31.9701   11.5634   79.5263 C   0  0  0  0  0  0  0  0  0  0  0  0
   30.8897   10.7115   79.5802 C   0  0  0  0  0  0  0  0  0  0  0  0
   30.0690   10.7482   80.6881 C   0  0  0  0  0  0  0  0  0  0  0  0
   30.3251   11.6221   81.7234 C   0  0  0  0  0  0  0  0  0  0  0  0
   31.4136   12.4760   81.6624 C   0  0  0  0  0  0  0  0  0  0  0  0
   32.2360   12.4461   80.5632 C   0  0  0  0  0  0  0  0  0  0  0  0
   30.5993    9.7880   78.5057 C   0  0  0  0  0  0  0  0  0  0  0  0
   33.6071   13.5401   80.5157 S   0  0  2  0  0  6  0  0  0  0  0  0
   34.3004   13.2528   79.1844 O   0  0  0  0  0  0  0  0  0  0  0  0
   34.5368   13.1081   81.5730 O   0  0  0  0  0  0  0  0  0  0  0  0
   31.7220   13.4284   82.7507 C   0  0  0  0  0  0  0  0  0  0  0  0
   33.1145   15.1268   80.5130 N   0  0  0  0  0  0  0  0  0  0  0  0
   32.1409   15.6041   79.6532 C   0  0  1  0  0  0  0  0  0  0  0  0
   31.1379   16.4347   80.4687 C   0  0  0  0  0  0  0  0  0  0  0  0
   31.3567   17.8659   80.1178 C   0  0  0  0  0  0  0  0  0  0  0  0
   32.6093   17.8581   79.2721 C   0  0  0  0  0  0  0  0  0  0  0  0
   32.5177   16.5479   78.5718 C   0  0  0  0  0  0  0  0  0  0  0  0
   31.4701    9.2700   77.5858 C   0  0  0  0  0  0  0  0  0  0  0  0
   30.7788    8.4802   76.8040 O   0  0  0  0  0  0  0  0  0  0  0  0
   29.5368    8.4560   77.1554 N   0  0  0  0  0  0  0  0  0  0  0  0
   29.3640    9.2606   78.2215 C   0  0  0  0  0  0  0  0  0  0  0  0
   28.1014    9.5332   78.9532 C   0  0  0  0  0  0  0  0  0  0  0  0
   32.9058    9.5259   77.4666 C   0  0  0  0  0  0  0  0  0  0  0  0
   33.5888    8.6464   76.5748 N   0  0  0  0  0  0  0  0  0  0  0  0
   33.7417    9.0217   75.2172 C   0  0  0  0  0  0  0  0  0  0  0  0
   34.4642    8.3804   74.4032 O   0  0  0  0  0  0  0  0  0  0  0  0
   33.0476   10.2233   74.6414 C   0  0  0  0  0  0  0  0  0  0  0  0
  1  2  2  0
  1  6  1  0
  2  3  1  0
  2  7  1  0
  3  4  2  0
  4  5  1  0
  5  6  2  0
 11  5  1  6
  6  8  1  0
  7 18  2  0
  7 21  1  0
  8  9  2  0
  8 10  2  0
  8 12  1  1
 13 12  1  1
 14 13  1  1
 13 17  1  0
 15 14  1  1
 16 15  1  1
 17 16  1  6
 18 19  1  0
 18 23  1  0
 19 20  1  0
 20 21  2  0
 22 21  1  6
 23 24  1  6
 24 25  1  0
 25 26  2  0
 27 25  1  6
M  END
$$$$
