
     RDKit          3D

 27 29  0  0  0  0  0  0  0  0999 V2000
   32.3162   11.2306   79.3532 C   0  0  0  0  0  0  0  0  0  0  0  0
   32.5728   10.3212   78.3517 C   0  0  0  0  0  0  0  0  0  0  0  0
   33.8252   10.3043   77.7742 C   0  0  0  0  0  0  0  0  0  0  0  0
   34.8033   11.1817   78.1919 C   0  0  0  0  0  0  0  0  0  0  0  0
   34.5381   12.0936   79.1998 C   0  0  0  0  0  0  0  0  0  0  0  0
   33.2939   12.1175   79.7802 C   0  0  0  0  0  0  0  0  0  0  0  0
   31.5639    9.3894   77.8984 C   0  0  0  0  0  0  0  0  0  0  0  0
   32.9889   13.2847   81.0544 S   0  0  2  0  0  6  0  0  0  0  0  0
   33.8418   12.8192   82.2340 O   0  0  0  0  0  0  0  0  0  0  0  0
   31.5838   13.1163   81.4624 O   0  0  0  0  0  0  0  0  0  0  0  0
   35.5597   13.0503   79.6771 C   0  0  0  0  0  0  0  0  0  0  0  0
   33.4951   14.8050   80.6155 N   0  0  0  0  0  0  0  0  0  0  0  0
   32.6464   15.7386   80.0469 C   0  0  1  0  0  0  0  0  0  0  0  0
   33.2164   17.1399   80.3153 C   0  0  0  0  0  0  0  0  0  0  0  0
   33.7448   17.6600   79.0232 C   0  0  0  0  0  0  0  0  0  0  0  0
   33.6628   16.4805   78.0818 C   0  0  0  0  0  0  0  0  0  0  0  0
   32.4590   15.7572   78.5749 C   0  0  0  0  0  0  0  0  0  0  0  0
   30.7362    8.6114   78.6617 C   0  0  0  0  0  0  0  0  0  0  0  0
   29.9858    7.9250   77.8380 O   0  0  0  0  0  0  0  0  0  0  0  0
   30.2719    8.2062   76.6109 N   0  0  0  0  0  0  0  0  0  0  0  0
   31.2586    9.1225   76.5866 C   0  0  0  0  0  0  0  0  0  0  0  0
   31.8980    9.7313   75.3931 C   0  0  0  0  0  0  0  0  0  0  0  0
   30.6725    8.5339   80.1214 C   0  0  0  0  0  0  0  0  0  0  0  0
   29.4387    8.9804   80.6817 N   0  0  0  0  0  0  0  0  0  0  0  0
   28.3350    9.2122   79.8242 C   0  0  0  0  0  0  0  0  0  0  0  0
   28.2659    8.7488   78.6510 O   0  0  0  0  0  0  0  0  0  0  0  0
   27.1536   10.0352   80.2534 C   0  0  0  0  0  0  0  0  0  0  0  0
  1  2  2  0
  1  6  1  0
  2  3  1  0
  2  7  1  0
  3  4  2  0
  4  5  1  0
  5  6  2  0
 11  5  1  6
  6  8  1  0
  7 18  2  0
  7 21  1  0
  8  9  2  0
  8 10  2  0
  8 12  1  6
 13 12  1  6
 14 13  1  1
 13 17  1  0
 15 14  1  1
 16 15  1  1
 17 16  1  6
 18 19  1  0
 18 23  1  0
 19 20  1  0
 20 21  2  0
 22 21  1  6
 23 24  1  6
 24 25  1  0
 25 26  2  0
 27 25  1  6
M  END
$$$$
