
     RDKit          3D

 27 29  0  0  0  0  0  0  0  0999 V2000
   31.9249   11.1502   79.2170 C   0  0  0  0  0  0  0  0  0  0  0  0
   32.2713   10.1367   78.3518 C   0  0  0  0  0  0  0  0  0  0  0  0
   33.6039    9.9451   78.0520 C   0  0  0  0  0  0  0  0  0  0  0  0
   34.5724   10.7535   78.6085 C   0  0  0  0  0  0  0  0  0  0  0  0
   34.2166   11.7709   79.4779 C   0  0  0  0  0  0  0  0  0  0  0  0
   32.8923   11.9688   79.7818 C   0  0  0  0  0  0  0  0  0  0  0  0
   31.2738    9.2743   77.7576 C   0  0  0  0  0  0  0  0  0  0  0  0
   32.4735   13.2663   80.8864 S   0  0  2  0  0  6  0  0  0  0  0  0
   32.9663   12.7989   82.2555 O   0  0  0  0  0  0  0  0  0  0  0  0
   31.0033   13.3064   80.9627 O   0  0  0  0  0  0  0  0  0  0  0  0
   35.2245   12.6587   80.0965 C   0  0  0  0  0  0  0  0  0  0  0  0
   33.2715   14.6711   80.4991 N   0  0  0  0  0  0  0  0  0  0  0  0
   33.3045   15.1797   79.2125 C   0  0  1  0  0  0  0  0  0  0  0  0
   31.8908   15.6533   78.8413 C   0  0  0  0  0  0  0  0  0  0  0  0
   31.9093   17.1428   78.8307 C   0  0  0  0  0  0  0  0  0  0  0  0
   33.2637   17.5057   79.3946 C   0  0  0  0  0  0  0  0  0  0  0  0
   34.1209   16.3844   78.9221 C   0  0  0  0  0  0  0  0  0  0  0  0
   30.1617    8.7431   78.3525 C   0  0  0  0  0  0  0  0  0  0  0  0
   29.5458    8.0271   77.4465 O   0  0  0  0  0  0  0  0  0  0  0  0
   30.1796    8.0620   76.3224 N   0  0  0  0  0  0  0  0  0  0  0  0
   31.2761    8.8322   76.4577 C   0  0  0  0  0  0  0  0  0  0  0  0
   32.2915    9.1495   75.4224 C   0  0  0  0  0  0  0  0  0  0  0  0
   29.7134    8.9187   79.7342 C   0  0  0  0  0  0  0  0  0  0  0  0
   28.4312    9.5307   79.8641 N   0  0  0  0  0  0  0  0  0  0  0  0
   27.9619    9.8830   81.1537 C   0  0  0  0  0  0  0  0  0  0  0  0
   28.6662    9.7713   82.1964 O   0  0  0  0  0  0  0  0  0  0  0  0
   26.5770   10.4210   81.3764 C   0  0  0  0  0  0  0  0  0  0  0  0
  1  2  2  0
  1  6  1  0
  2  3  1  0
  2  7  1  0
  3  4  2  0
  4  5  1  0
  5  6  2  0
 11  5  1  6
  6  8  1  0
  7 18  2  0
  7 21  1  0
  8  9  2  0
  8 10  2  0
  8 12  1  6
 13 12  1  1
 14 13  1  1
 13 17  1  0
 15 14  1  1
 16 15  1  1
 17 16  1  6
 18 19  1  0
 18 23  1  0
 19 20  1  0
 20 21  2  0
 22 21  1  6
 23 24  1  6
 24 25  1  0
 25 26  2  0
 27 25  1  6
M  END
$$$$
