
     RDKit          3D

 25 27  0  0  0  0  0  0  0  0999 V2000
   34.5083   -0.6916   55.4412 C   0  0  0  0  0  0  0  0  0  0  0  0
   35.2166   -1.4282   51.9065 C   0  0  0  0  0  0  0  0  0  0  0  0
   34.7740   -1.2927   48.5799 C   0  0  0  0  0  0  0  0  0  0  0  0
   38.2203   -0.3758   62.2611 C   0  0  2  0  0  0  0  0  0  0  0  0
   35.0180   -1.3733   54.3568 C   0  0  0  0  0  0  0  0  0  0  0  0
   36.1197   -2.1773   54.5624 C   0  0  0  0  0  0  0  0  0  0  0  0
   34.4927   -0.7064   50.7910 C   0  0  0  0  0  0  0  0  0  0  0  0
   35.7837   -2.3559   48.1718 C   0  0  0  0  0  0  0  0  0  0  0  0
   36.8656   -0.8431   61.7743 C   0  0  0  0  0  0  0  0  0  0  0  0
   39.3022   -1.0592   61.5802 N   0  0  0  0  0  4  0  0  0  0  0  0
   38.4790    0.6280   64.3975 O   0  0  0  0  0  0  0  0  0  0  0  0
   35.0500   -0.7799   56.7114 C   0  0  0  0  0  0  0  0  0  0  0  0
   37.0324   -1.3401   60.4220 N   0  0  0  0  0  0  0  0  0  0  0  0
   40.4883   -0.7820   64.9162 O   0  0  0  0  0  0  0  0  0  0  0  0
   40.4101   -0.8133   62.5098 C   0  0  0  0  0  0  0  0  0  0  0  0
   37.9249   -2.1730   59.9637 N   0  0  0  0  0  0  0  0  0  0  0  0
   34.4812   -1.2895   53.0838 O   0  0  0  0  0  0  0  0  0  0  0  0
   39.7817   -1.2585   63.8177 C   0  0  2  0  0  0  0  0  0  0  0  0
   37.7649   -2.3964   58.6622 N   0  0  0  0  0  0  0  0  0  0  0  0
   34.1438   -1.5831   49.7641 O   0  0  0  0  0  0  0  0  0  0  0  0
   38.4040   -0.6126   63.7244 C   0  0  2  0  0  0  0  0  0  0  0  0
   36.6889   -2.2863   55.8359 C   0  0  0  0  0  0  0  0  0  0  0  0
   36.1506   -1.5892   56.8941 C   0  0  0  0  0  0  0  0  0  0  0  0
   36.7139   -1.6758   58.2354 C   0  0  0  0  0  0  0  0  0  0  0  0
   36.2590   -1.0096   59.3660 C   0  0  0  0  0  0  0  0  0  0  0  0
  1  5  2  0
 12  1  1  0
  2  7  1  0
 17  2  1  0
  3  8  1  0
 20  3  1  0
  4  9  1  6
  4 10  1  0
  4 21  1  0
  6  5  1  0
  5 17  1  0
 22  6  2  0
  7 20  1  0
 13  9  1  0
 10 15  1  0
 21 11  1  1
 23 12  2  0
 16 13  1  0
 13 25  1  0
 18 14  1  1
 18 15  1  0
 19 16  2  0
 21 18  1  0
 24 19  1  0
 23 22  1  0
 23 24  1  0
 24 25  2  0
M  CHG  1  10   1
M  END
$$$$
