
     RDKit          3D

 25 27  0  0  0  0  0  0  0  0999 V2000
   47.6623   26.0978   33.7753 C   0  0  0  0  0  0  0  0  0  0  0  0
   46.1987   26.9715   36.9812 C   0  0  0  0  0  0  0  0  0  0  0  0
   49.4514   27.2100   38.5316 C   0  0  0  0  0  0  0  0  0  0  0  0
   47.5320   22.5299   27.3292 C   0  0  2  0  0  0  0  0  0  0  0  0
   46.6252   26.4282   34.6213 C   0  0  0  0  0  0  0  0  0  0  0  0
   45.3728   25.9296   34.3287 C   0  0  0  0  0  0  0  0  0  0  0  0
   47.2917   26.6328   37.9712 C   0  0  0  0  0  0  0  0  0  0  0  0
   49.5857   25.9583   39.3867 C   0  0  0  0  0  0  0  0  0  0  0  0
   47.2869   21.7388   28.5960 C   0  0  0  0  0  0  0  0  0  0  0  0
   46.2924   22.8738   26.6611 N   0  0  0  0  0  4  0  0  0  0  0  0
   49.6141   22.4165   26.1933 O   0  0  0  0  0  0  0  0  0  0  0  0
   47.5002   25.2967   32.6588 C   0  0  0  0  0  0  0  0  0  0  0  0
   46.5508   22.5907   29.5103 N   0  0  0  0  0  0  0  0  0  0  0  0
   48.4876   22.1319   23.9697 O   0  0  0  0  0  0  0  0  0  0  0  0
   46.7828   23.1760   25.3118 C   0  0  0  0  0  0  0  0  0  0  0  0
   45.2798   22.8820   29.5090 N   0  0  0  0  0  0  0  0  0  0  0  0
   46.7803   27.2288   35.7396 O   0  0  0  0  0  0  0  0  0  0  0  0
   47.6114   21.9358   25.0313 C   0  0  2  0  0  0  0  0  0  0  0  0
   44.9631   23.7010   30.5082 N   0  0  0  0  0  0  0  0  0  0  0  0
   48.5370   27.0672   37.5180 O   0  0  0  0  0  0  0  0  0  0  0  0
   48.3647   21.7736   26.3467 C   0  0  2  0  0  0  0  0  0  0  0  0
   45.1787   25.1169   33.2065 C   0  0  0  0  0  0  0  0  0  0  0  0
   46.2403   24.8094   32.3854 C   0  0  0  0  0  0  0  0  0  0  0  0
   46.0796   23.9666   31.2075 C   0  0  0  0  0  0  0  0  0  0  0  0
   47.0805   23.2533   30.5605 C   0  0  0  0  0  0  0  0  0  0  0  0
  1  5  2  0
 12  1  1  0
  2  7  1  0
 17  2  1  0
  3  8  1  0
 20  3  1  0
  4  9  1  1
  4 10  1  0
  4 21  1  0
  6  5  1  0
  5 17  1  0
 22  6  2  0
  7 20  1  0
 13  9  1  0
 10 15  1  0
 21 11  1  6
 23 12  2  0
 16 13  1  0
 13 25  1  0
 18 14  1  6
 18 15  1  0
 19 16  2  0
 21 18  1  0
 24 19  1  0
 23 22  1  0
 23 24  1  0
 24 25  2  0
M  CHG  1  10   1
M  END
$$$$
