
     RDKit          3D

 25 27  0  0  0  0  0  0  0  0999 V2000
   46.8104   26.3162   34.5265 C   0  0  0  0  0  0  0  0  0  0  0  0
   46.7511   27.8016   36.8794 C   0  0  0  0  0  0  0  0  0  0  0  0
   45.0178   29.8692   39.3379 C   0  0  0  0  0  0  0  0  0  0  0  0
   47.4819   23.3886   27.2774 C   0  0  2  0  0  0  0  0  0  0  0  0
   45.6588   26.9914   34.8672 C   0  0  0  0  0  0  0  0  0  0  0  0
   44.5779   26.9365   34.0136 C   0  0  0  0  0  0  0  0  0  0  0  0
   46.5442   28.8242   37.9618 C   0  0  0  0  0  0  0  0  0  0  0  0
   44.3352   31.1216   38.8263 C   0  0  0  0  0  0  0  0  0  0  0  0
   47.3388   22.7364   28.6355 C   0  0  0  0  0  0  0  0  0  0  0  0
   46.2533   23.2253   26.5503 N   0  0  0  0  0  4  0  0  0  0  0  0
   48.8747   23.4688   25.3571 O   0  0  0  0  0  0  0  0  0  0  0  0
   46.8534   25.6060   33.3470 C   0  0  0  0  0  0  0  0  0  0  0  0
   46.5243   23.5391   29.5250 N   0  0  0  0  0  0  0  0  0  0  0  0
   48.3398   20.9061   24.8274 O   0  0  0  0  0  0  0  0  0  0  0  0
   46.4557   22.2407   25.5325 C   0  0  0  0  0  0  0  0  0  0  0  0
   45.2654   23.8543   29.3358 N   0  0  0  0  0  0  0  0  0  0  0  0
   45.6165   27.7082   36.0585 O   0  0  0  0  0  0  0  0  0  0  0  0
   47.7350   21.5048   25.9064 C   0  0  2  0  0  0  0  0  0  0  0  0
   44.8488   24.6017   30.3602 N   0  0  0  0  0  0  0  0  0  0  0  0
   45.2117   28.9343   38.3381 O   0  0  0  0  0  0  0  0  0  0  0  0
   48.5563   22.6818   26.4510 C   0  0  2  0  0  0  0  0  0  0  0  0
   44.6464   26.2184   32.8385 C   0  0  0  0  0  0  0  0  0  0  0  0
   45.7832   25.5321   32.4685 C   0  0  0  0  0  0  0  0  0  0  0  0
   45.8612   24.7704   31.2258 C   0  0  0  0  0  0  0  0  0  0  0  0
   46.9326   24.0925   30.6946 C   0  0  0  0  0  0  0  0  0  0  0  0
  1  5  2  0
 12  1  1  0
  2  7  1  0
  2 17  1  6
  8  3  1  6
  3 20  1  6
  4  9  1  1
 10  4  1  1
  4 21  1  0
  6  5  1  0
  5 17  1  0
 22  6  2  0
  7 20  1  6
  9 13  1  6
 15 10  1  1
 21 11  1  6
 23 12  2  0
 16 13  1  0
 13 25  1  0
 18 14  1  6
 18 15  1  0
 19 16  2  0
 21 18  1  0
 24 19  1  0
 23 22  1  0
 23 24  1  0
 24 25  2  0
M  CHG  1  10   1
M  END
$$$$
