
     RDKit          3D

 25 27  0  0  0  0  0  0  0  0999 V2000
   35.3309   -2.9639   55.1040 C   0  0  0  0  0  0  0  0  0  0  0  0
   36.7275   -2.2905   51.7687 C   0  0  0  0  0  0  0  0  0  0  0  0
   34.0772   -2.7681   49.3056 C   0  0  0  0  0  0  0  0  0  0  0  0
   39.1093   -1.5602   62.2128 C   0  0  2  0  0  0  0  0  0  0  0  0
   36.2005   -2.5297   54.1275 C   0  0  0  0  0  0  0  0  0  0  0  0
   37.3242   -1.8251   54.5026 C   0  0  0  0  0  0  0  0  0  0  0  0
   36.0678   -2.4690   50.4297 C   0  0  0  0  0  0  0  0  0  0  0  0
   33.9492   -1.4995   48.4867 C   0  0  0  0  0  0  0  0  0  0  0  0
   38.7909   -0.5373   61.1440 C   0  0  0  0  0  0  0  0  0  0  0  0
   37.8838   -1.9837   62.8324 N   0  0  0  0  0  4  0  0  0  0  0  0
   40.4719   -1.9400   64.1189 O   0  0  0  0  0  0  0  0  0  0  0  0
   35.6042   -2.6847   56.4249 C   0  0  0  0  0  0  0  0  0  0  0  0
   37.8765   -1.0718   60.1553 N   0  0  0  0  0  0  0  0  0  0  0  0
   39.2519    0.0470   65.4217 O   0  0  0  0  0  0  0  0  0  0  0  0
   37.8079   -1.3979   64.1352 C   0  0  0  0  0  0  0  0  0  0  0  0
   36.6973   -1.5894   60.4029 N   0  0  0  0  0  0  0  0  0  0  0  0
   35.9235   -2.8123   52.7940 O   0  0  0  0  0  0  0  0  0  0  0  0
   38.8346   -0.2738   64.1524 C   0  0  2  0  0  0  0  0  0  0  0  0
   36.1445   -1.9750   59.2508 N   0  0  0  0  0  0  0  0  0  0  0  0
   34.6842   -2.5425   50.5270 O   0  0  0  0  0  0  0  0  0  0  0  0
   39.9480   -0.9327   63.3262 C   0  0  2  0  0  0  0  0  0  0  0  0
   37.5751   -1.5585   55.8320 C   0  0  0  0  0  0  0  0  0  0  0  0
   36.7256   -1.9786   56.8329 C   0  0  0  0  0  0  0  0  0  0  0  0
   36.9862   -1.6993   58.2417 C   0  0  0  0  0  0  0  0  0  0  0  0
   38.0933   -1.1223   58.8169 C   0  0  0  0  0  0  0  0  0  0  0  0
  1  5  2  0
 12  1  1  0
  2  7  1  0
  2 17  1  6
  8  3  1  6
  3 20  1  6
  4  9  1  6
 10  4  1  1
  4 21  1  0
  6  5  1  0
  5 17  1  0
 22  6  2  0
  7 20  1  6
  9 13  1  6
 15 10  1  1
 21 11  1  1
 23 12  2  0
 16 13  1  0
 13 25  1  0
 18 14  1  1
 18 15  1  0
 19 16  2  0
 21 18  1  0
 24 19  1  0
 23 22  1  0
 23 24  1  0
 24 25  2  0
M  CHG  1  10   1
M  END
$$$$
