
     RDKit          3D

 25 27  0  0  0  0  0  0  0  0999 V2000
   35.5627   -2.0554   55.1834 C   0  0  0  0  0  0  0  0  0  0  0  0
   33.5777   -3.6274   53.4528 C   0  0  0  0  0  0  0  0  0  0  0  0
   34.7968   -3.2653   50.2977 C   0  0  0  0  0  0  0  0  0  0  0  0
   38.5388    0.1647   62.5089 C   0  0  2  0  0  0  0  0  0  0  0  0
   34.1870   -2.0837   55.2672 C   0  0  0  0  0  0  0  0  0  0  0  0
   33.6067   -1.6899   56.4550 C   0  0  0  0  0  0  0  0  0  0  0  0
   33.2546   -3.3066   52.0099 C   0  0  0  0  0  0  0  0  0  0  0  0
   36.1797   -3.8551   50.5338 C   0  0  0  0  0  0  0  0  0  0  0  0
   37.2887    0.6036   61.7773 C   0  0  0  0  0  0  0  0  0  0  0  0
   39.1995   -0.9348   61.8339 N   0  0  0  0  0  4  0  0  0  0  0  0
   38.8285    0.6106   64.8231 O   0  0  0  0  0  0  0  0  0  0  0  0
   36.3749   -1.6531   56.2290 C   0  0  0  0  0  0  0  0  0  0  0  0
   37.3140   -0.0046   60.4608 N   0  0  0  0  0  0  0  0  0  0  0  0
   39.5948   -1.7360   65.2711 O   0  0  0  0  0  0  0  0  0  0  0  0
   40.0338   -1.4616   62.9196 C   0  0  0  0  0  0  0  0  0  0  0  0
   38.3419   -0.4183   59.7734 N   0  0  0  0  0  0  0  0  0  0  0  0
   33.3688   -2.4849   54.2255 O   0  0  0  0  0  0  0  0  0  0  0  0
   38.9999   -1.6074   64.0211 C   0  0  2  0  0  0  0  0  0  0  0  0
   37.9754   -0.9240   58.5989 N   0  0  0  0  0  0  0  0  0  0  0  0
   34.3000   -2.6144   51.3993 O   0  0  0  0  0  0  0  0  0  0  0  0
   38.2452   -0.2883   63.9015 C   0  0  2  0  0  0  0  0  0  0  0  0
   34.4026   -1.2782   57.5295 C   0  0  0  0  0  0  0  0  0  0  0  0
   35.7738   -1.2638   57.4067 C   0  0  0  0  0  0  0  0  0  0  0  0
   36.6375   -0.8417   58.5020 C   0  0  0  0  0  0  0  0  0  0  0  0
   36.2317   -0.2549   59.6937 C   0  0  0  0  0  0  0  0  0  0  0  0
  1  5  2  0
 12  1  1  0
  2  7  1  0
 17  2  1  0
  3  8  1  0
 20  3  1  0
  4  9  1  6
  4 10  1  0
  4 21  1  0
  6  5  1  0
  5 17  1  0
 22  6  2  0
  7 20  1  0
 13  9  1  0
 10 15  1  0
 21 11  1  1
 23 12  2  0
 16 13  1  0
 13 25  1  0
 18 14  1  1
 18 15  1  0
 19 16  2  0
 21 18  1  0
 24 19  1  0
 23 22  1  0
 23 24  1  0
 24 25  2  0
M  CHG  1  10   1
M  END
$$$$
