
     RDKit          3D

 25 27  0  0  0  0  0  0  0  0999 V2000
   34.5458   -1.6862   54.7970 C   0  0  0  0  0  0  0  0  0  0  0  0
   33.9777   -1.6657   52.0505 C   0  0  0  0  0  0  0  0  0  0  0  0
   36.0023   -0.4501   49.3069 C   0  0  0  0  0  0  0  0  0  0  0  0
   37.9452   -1.4679   62.3721 C   0  0  2  0  0  0  0  0  0  0  0  0
   35.4763   -2.1584   53.8972 C   0  0  0  0  0  0  0  0  0  0  0  0
   36.7393   -2.4740   54.3502 C   0  0  0  0  0  0  0  0  0  0  0  0
   34.3182   -0.8615   50.8269 C   0  0  0  0  0  0  0  0  0  0  0  0
   35.3198   -0.3697   47.9564 C   0  0  0  0  0  0  0  0  0  0  0  0
   38.4755   -1.9197   61.0288 C   0  0  0  0  0  0  0  0  0  0  0  0
   37.8739   -0.0328   62.3863 N   0  0  0  0  0  4  0  0  0  0  0  0
   38.2768   -1.7031   64.7107 O   0  0  0  0  0  0  0  0  0  0  0  0
   34.8985   -1.5417   56.1206 C   0  0  0  0  0  0  0  0  0  0  0  0
   37.5033   -1.7046   59.9763 N   0  0  0  0  0  0  0  0  0  0  0  0
   40.6843   -0.5636   64.5123 O   0  0  0  0  0  0  0  0  0  0  0  0
   38.9325    0.4661   63.2089 C   0  0  0  0  0  0  0  0  0  0  0  0
   36.3370   -1.1220   60.1180 N   0  0  0  0  0  0  0  0  0  0  0  0
   35.1189   -2.3039   52.5609 O   0  0  0  0  0  0  0  0  0  0  0  0
   39.9100   -0.6880   63.3839 C   0  0  2  0  0  0  0  0  0  0  0  0
   35.7173   -1.1032   58.9358 N   0  0  0  0  0  0  0  0  0  0  0  0
   35.4072   -1.3805   50.1385 O   0  0  0  0  0  0  0  0  0  0  0  0
   38.9143   -1.8514   63.4905 C   0  0  2  0  0  0  0  0  0  0  0  0
   37.0674   -2.3204   55.6805 C   0  0  0  0  0  0  0  0  0  0  0  0
   36.1601   -1.8506   56.6058 C   0  0  0  0  0  0  0  0  0  0  0  0
   36.5020   -1.6859   58.0153 C   0  0  0  0  0  0  0  0  0  0  0  0
   37.6434   -2.0710   58.6774 C   0  0  0  0  0  0  0  0  0  0  0  0
  1  5  2  0
 12  1  1  0
  2  7  1  0
  2 17  1  6
  8  3  1  6
  3 20  1  6
  4  9  1  6
 10  4  1  1
  4 21  1  0
  6  5  1  0
  5 17  1  0
 22  6  2  0
  7 20  1  6
  9 13  1  6
 15 10  1  1
 21 11  1  1
 23 12  2  0
 16 13  1  0
 13 25  1  0
 18 14  1  1
 18 15  1  0
 19 16  2  0
 21 18  1  0
 24 19  1  0
 23 22  1  0
 23 24  1  0
 24 25  2  0
M  CHG  1  10   1
M  END
$$$$
