
     RDKit          3D

 25 27  0  0  0  0  0  0  0  0999 V2000
   38.1045   -3.6889   55.8922 C   0  0  0  0  0  0  0  0  0  0  0  0
   38.1203   -5.3177   53.6361 C   0  0  0  0  0  0  0  0  0  0  0  0
   38.8559   -8.6297   54.3527 C   0  0  0  0  0  0  0  0  0  0  0  0
   37.8981   -0.1393   63.0488 C   0  0  2  0  0  0  0  0  0  0  0  0
   36.9148   -4.2049   55.4269 C   0  0  0  0  0  0  0  0  0  0  0  0
   35.7516   -3.9124   56.1063 C   0  0  0  0  0  0  0  0  0  0  0  0
   38.1372   -6.7597   53.2115 C   0  0  0  0  0  0  0  0  0  0  0  0
   38.2466   -9.9642   54.7326 C   0  0  0  0  0  0  0  0  0  0  0  0
   38.4100    0.1304   61.6505 C   0  0  0  0  0  0  0  0  0  0  0  0
   38.6207    0.6863   63.9768 N   0  0  0  0  0  4  0  0  0  0  0  0
   37.4535   -1.8849   64.5943 O   0  0  0  0  0  0  0  0  0  0  0  0
   38.1027   -2.8970   57.0193 C   0  0  0  0  0  0  0  0  0  0  0  0
   37.6019   -0.5402   60.6523 N   0  0  0  0  0  0  0  0  0  0  0  0
   40.0511   -2.4985   64.6917 O   0  0  0  0  0  0  0  0  0  0  0  0
   39.5355   -0.1401   64.7024 C   0  0  0  0  0  0  0  0  0  0  0  0
   36.2920   -0.5249   60.5905 N   0  0  0  0  0  0  0  0  0  0  0  0
   36.9178   -5.0044   54.2887 O   0  0  0  0  0  0  0  0  0  0  0  0
   39.6443   -1.4395   63.9163 C   0  0  2  0  0  0  0  0  0  0  0  0
   35.9008   -1.2508   59.5408 N   0  0  0  0  0  0  0  0  0  0  0  0
   37.9081   -7.6265   54.2724 O   0  0  0  0  0  0  0  0  0  0  0  0
   38.1861   -1.5835   63.4587 C   0  0  2  0  0  0  0  0  0  0  0  0
   35.7767   -3.1171   57.2323 C   0  0  0  0  0  0  0  0  0  0  0  0
   36.9498   -2.5854   57.7236 C   0  0  0  0  0  0  0  0  0  0  0  0
   36.9821   -1.7428   58.9151 C   0  0  0  0  0  0  0  0  0  0  0  0
   38.0699   -1.2903   59.6232 C   0  0  0  0  0  0  0  0  0  0  0  0
  1  5  2  0
 12  1  1  0
  2  7  1  0
  2 17  1  6
  8  3  1  6
  3 20  1  6
  4  9  1  6
 10  4  1  1
  4 21  1  0
  6  5  1  0
  5 17  1  0
 22  6  2  0
  7 20  1  6
  9 13  1  6
 15 10  1  1
 21 11  1  1
 23 12  2  0
 16 13  1  0
 13 25  1  0
 18 14  1  1
 18 15  1  0
 19 16  2  0
 21 18  1  0
 24 19  1  0
 23 22  1  0
 23 24  1  0
 24 25  2  0
M  CHG  1  10   1
M  END
$$$$
