
     RDKit          3D

 25 27  0  0  0  0  0  0  0  0999 V2000
   44.1048   25.8283   34.2355 C   0  0  0  0  0  0  0  0  0  0  0  0
   44.3721   25.0292   37.8169 C   0  0  0  0  0  0  0  0  0  0  0  0
   45.4840   27.3327   40.0941 C   0  0  0  0  0  0  0  0  0  0  0  0
   46.3907   22.7874   27.3695 C   0  0  2  0  0  0  0  0  0  0  0  0
   44.5520   25.2540   35.4053 C   0  0  0  0  0  0  0  0  0  0  0  0
   45.5534   24.3088   35.3421 C   0  0  0  0  0  0  0  0  0  0  0  0
   44.0451   25.9073   38.9924 C   0  0  0  0  0  0  0  0  0  0  0  0
   46.9716   27.3152   39.8057 C   0  0  0  0  0  0  0  0  0  0  0  0
   46.7164   24.0851   28.0765 C   0  0  0  0  0  0  0  0  0  0  0  0
   47.3267   21.7808   27.7884 N   0  0  0  0  0  4  0  0  0  0  0  0
   45.9946   21.8522   25.2241 O   0  0  0  0  0  0  0  0  0  0  0  0
   44.6663   25.4460   33.0373 C   0  0  0  0  0  0  0  0  0  0  0  0
   46.7259   23.9161   29.5154 N   0  0  0  0  0  0  0  0  0  0  0  0
   48.4972   22.4199   24.4836 O   0  0  0  0  0  0  0  0  0  0  0  0
   48.2447   21.5410   26.7178 C   0  0  0  0  0  0  0  0  0  0  0  0
   47.5176   23.1153   30.1876 N   0  0  0  0  0  0  0  0  0  0  0  0
   43.9842   25.6409   36.6147 O   0  0  0  0  0  0  0  0  0  0  0  0
   48.0962   22.7182   25.7637 C   0  0  2  0  0  0  0  0  0  0  0  0
   47.2395   23.2253   31.4885 N   0  0  0  0  0  0  0  0  0  0  0  0
   44.7287   27.1159   38.9566 O   0  0  0  0  0  0  0  0  0  0  0  0
   46.5796   22.9345   25.8596 C   0  0  2  0  0  0  0  0  0  0  0  0
   46.0991   23.9434   34.1298 C   0  0  0  0  0  0  0  0  0  0  0  0
   45.6743   24.4986   32.9418 C   0  0  0  0  0  0  0  0  0  0  0  0
   46.2484   24.1155   31.6557 C   0  0  0  0  0  0  0  0  0  0  0  0
   45.9186   24.5582   30.3968 C   0  0  0  0  0  0  0  0  0  0  0  0
  1  5  2  0
 12  1  1  0
  2  7  1  0
  2 17  1  6
  8  3  1  6
  3 20  1  6
  4  9  1  1
 10  4  1  1
  4 21  1  0
  6  5  1  0
  5 17  1  0
 22  6  2  0
  7 20  1  6
  9 13  1  6
 15 10  1  1
 21 11  1  6
 23 12  2  0
 16 13  1  0
 13 25  1  0
 18 14  1  6
 18 15  1  0
 19 16  2  0
 21 18  1  0
 24 19  1  0
 23 22  1  0
 23 24  1  0
 24 25  2  0
M  CHG  1  10   1
M  END
$$$$
