
     RDKit          3D

 25 27  0  0  0  0  0  0  0  0999 V2000
   44.2402   26.4671   32.7282 C   0  0  0  0  0  0  0  0  0  0  0  0
   45.2281   27.8475   36.0411 C   0  0  0  0  0  0  0  0  0  0  0  0
   47.7844   29.5824   37.2686 C   0  0  0  0  0  0  0  0  0  0  0  0
   47.0921   22.0668   26.9665 C   0  0  2  0  0  0  0  0  0  0  0  0
   44.8927   26.6294   33.9316 C   0  0  0  0  0  0  0  0  0  0  0  0
   46.0039   25.8481   34.1713 C   0  0  0  0  0  0  0  0  0  0  0  0
   46.3087   28.8367   35.6630 C   0  0  0  0  0  0  0  0  0  0  0  0
   48.9176   30.0656   36.3751 C   0  0  0  0  0  0  0  0  0  0  0  0
   45.8480   22.0966   27.8278 C   0  0  0  0  0  0  0  0  0  0  0  0
   48.1853   22.7993   27.5744 N   0  0  0  0  0  4  0  0  0  0  0  0
   46.9599   21.6624   24.6304 O   0  0  0  0  0  0  0  0  0  0  0  0
   44.6493   25.5638   31.7631 C   0  0  0  0  0  0  0  0  0  0  0  0
   46.2217   22.6378   29.1205 N   0  0  0  0  0  0  0  0  0  0  0  0
   48.5146   23.5646   24.1221 O   0  0  0  0  0  0  0  0  0  0  0  0
   49.0458   23.0258   26.4080 C   0  0  0  0  0  0  0  0  0  0  0  0
   47.2586   22.3490   29.8564 N   0  0  0  0  0  0  0  0  0  0  0  0
   44.4890   27.5309   34.9012 O   0  0  0  0  0  0  0  0  0  0  0  0
   48.0423   23.6073   25.4290 C   0  0  2  0  0  0  0  0  0  0  0  0
   47.2692   23.0508   30.9864 N   0  0  0  0  0  0  0  0  0  0  0  0
   46.5479   29.7436   36.6951 O   0  0  0  0  0  0  0  0  0  0  0  0
   46.8574   22.6672   25.6192 C   0  0  2  0  0  0  0  0  0  0  0  0
   46.4410   24.9262   33.2140 C   0  0  0  0  0  0  0  0  0  0  0  0
   45.7621   24.7933   32.0236 C   0  0  0  0  0  0  0  0  0  0  0  0
   46.1852   23.8450   31.0011 C   0  0  0  0  0  0  0  0  0  0  0  0
   45.5292   23.5708   29.8079 C   0  0  0  0  0  0  0  0  0  0  0  0
  1  5  2  0
 12  1  1  0
  2  7  1  0
 17  2  1  0
  3  8  1  0
 20  3  1  0
  4  9  1  1
  4 10  1  0
  4 21  1  0
  6  5  1  0
  5 17  1  0
 22  6  2  0
  7 20  1  0
 13  9  1  0
 10 15  1  0
 21 11  1  6
 23 12  2  0
 16 13  1  0
 13 25  1  0
 18 14  1  6
 18 15  1  0
 19 16  2  0
 21 18  1  0
 24 19  1  0
 23 22  1  0
 23 24  1  0
 24 25  2  0
M  CHG  1  10   1
M  END
$$$$
