
     RDKit          3D

 25 27  0  0  0  0  0  0  0  0999 V2000
   46.2735   24.9137   35.1388 C   0  0  0  0  0  0  0  0  0  0  0  0
   44.7404   25.7474   37.4986 C   0  0  0  0  0  0  0  0  0  0  0  0
   43.1682   28.3095   38.1759 C   0  0  0  0  0  0  0  0  0  0  0  0
   47.6878   22.5971   27.4608 C   0  0  2  0  0  0  0  0  0  0  0  0
   44.9217   24.6876   35.2873 C   0  0  0  0  0  0  0  0  0  0  0  0
   44.2495   24.0959   34.2382 C   0  0  0  0  0  0  0  0  0  0  0  0
   43.6229   26.0688   38.4667 C   0  0  0  0  0  0  0  0  0  0  0  0
   43.1355   28.6767   39.6525 C   0  0  0  0  0  0  0  0  0  0  0  0
   47.5992   21.7385   28.7041 C   0  0  0  0  0  0  0  0  0  0  0  0
   46.5415   23.4744   27.3296 N   0  0  0  0  0  4  0  0  0  0  0  0
   49.0230   21.9437   25.6091 O   0  0  0  0  0  0  0  0  0  0  0  0
   46.9745   24.5756   33.9947 C   0  0  0  0  0  0  0  0  0  0  0  0
   47.6177   22.6248   29.8520 N   0  0  0  0  0  0  0  0  0  0  0  0
   47.1879   22.4760   23.9833 O   0  0  0  0  0  0  0  0  0  0  0  0
   46.6155   23.8111   25.9036 C   0  0  0  0  0  0  0  0  0  0  0  0
   48.5020   23.5289   30.1698 N   0  0  0  0  0  0  0  0  0  0  0  0
   44.2144   25.0232   36.4287 O   0  0  0  0  0  0  0  0  0  0  0  0
   46.7292   22.4254   25.2948 C   0  0  2  0  0  0  0  0  0  0  0  0
   48.1832   24.1503   31.3019 N   0  0  0  0  0  0  0  0  0  0  0  0
   42.7540   27.0228   37.9376 O   0  0  0  0  0  0  0  0  0  0  0  0
   47.7570   21.7763   26.2148 C   0  0  2  0  0  0  0  0  0  0  0  0
   44.9321   23.7431   33.0689 C   0  0  0  0  0  0  0  0  0  0  0  0
   46.2829   23.9854   32.9588 C   0  0  0  0  0  0  0  0  0  0  0  0
   47.0299   23.6329   31.7582 C   0  0  0  0  0  0  0  0  0  0  0  0
   46.6831   22.6641   30.8253 C   0  0  0  0  0  0  0  0  0  0  0  0
  1  5  2  0
 12  1  1  0
  2  7  1  0
 17  2  1  0
  3  8  1  0
 20  3  1  0
  4  9  1  1
  4 10  1  0
  4 21  1  0
  6  5  1  0
  5 17  1  0
 22  6  2  0
  7 20  1  0
 13  9  1  0
 10 15  1  0
 21 11  1  6
 23 12  2  0
 16 13  1  0
 13 25  1  0
 18 14  1  6
 18 15  1  0
 19 16  2  0
 21 18  1  0
 24 19  1  0
 23 22  1  0
 23 24  1  0
 24 25  2  0
M  CHG  1  10   1
M  END
$$$$
