
     RDKit          3D

 25 27  0  0  0  0  0  0  0  0999 V2000
   36.9169   -2.5217   54.5495 C   0  0  0  0  0  0  0  0  0  0  0  0
   36.1813   -2.8945   51.7241 C   0  0  0  0  0  0  0  0  0  0  0  0
   35.4572   -3.1316   48.5444 C   0  0  0  0  0  0  0  0  0  0  0  0
   38.4498   -0.7187   62.1907 C   0  0  2  0  0  0  0  0  0  0  0  0
   35.6168   -2.5456   54.0918 C   0  0  0  0  0  0  0  0  0  0  0  0
   34.6124   -2.2578   54.9924 C   0  0  0  0  0  0  0  0  0  0  0  0
   35.6420   -2.0652   50.5792 C   0  0  0  0  0  0  0  0  0  0  0  0
   36.1078   -4.5074   48.5474 C   0  0  0  0  0  0  0  0  0  0  0  0
   38.9307   -0.7199   60.7557 C   0  0  0  0  0  0  0  0  0  0  0  0
   37.9978    0.5945   62.6058 N   0  0  0  0  0  4  0  0  0  0  0  0
   39.1769   -2.3727   63.7316 O   0  0  0  0  0  0  0  0  0  0  0  0
   37.2512   -2.2246   55.8589 C   0  0  0  0  0  0  0  0  0  0  0  0
   37.8050   -1.0815   59.9156 N   0  0  0  0  0  0  0  0  0  0  0  0
   39.6385   -0.6523   65.4983 O   0  0  0  0  0  0  0  0  0  0  0  0
   38.0512    0.4542   64.0652 C   0  0  0  0  0  0  0  0  0  0  0  0
   36.5583   -1.2580   60.2545 N   0  0  0  0  0  0  0  0  0  0  0  0
   35.2753   -2.8418   52.7836 O   0  0  0  0  0  0  0  0  0  0  0  0
   39.4601   -0.0813   64.2433 C   0  0  2  0  0  0  0  0  0  0  0  0
   35.8067   -1.5854   59.2070 N   0  0  0  0  0  0  0  0  0  0  0  0
   34.8405   -2.8313   49.7333 O   0  0  0  0  0  0  0  0  0  0  0  0
   39.5224   -1.1349   63.1432 C   0  0  2  0  0  0  0  0  0  0  0  0
   34.9203   -1.9538   56.3229 C   0  0  0  0  0  0  0  0  0  0  0  0
   36.2318   -1.9401   56.7418 C   0  0  0  0  0  0  0  0  0  0  0  0
   36.5939   -1.6284   58.1186 C   0  0  0  0  0  0  0  0  0  0  0  0
   37.8615   -1.3056   58.5855 C   0  0  0  0  0  0  0  0  0  0  0  0
  1  5  2  0
 12  1  1  0
  2  7  1  0
 17  2  1  0
  3  8  1  0
 20  3  1  0
  4  9  1  6
  4 10  1  0
  4 21  1  0
  6  5  1  0
  5 17  1  0
 22  6  2  0
  7 20  1  0
 13  9  1  0
 10 15  1  0
 21 11  1  1
 23 12  2  0
 16 13  1  0
 13 25  1  0
 18 14  1  1
 18 15  1  0
 19 16  2  0
 21 18  1  0
 24 19  1  0
 23 22  1  0
 23 24  1  0
 24 25  2  0
M  CHG  1  10   1
M  END
$$$$
