
     RDKit          3D

 25 27  0  0  0  0  0  0  0  0999 V2000
   36.3882   -1.5582   54.5111 C   0  0  0  0  0  0  0  0  0  0  0  0
   33.1705   -2.5129   53.0051 C   0  0  0  0  0  0  0  0  0  0  0  0
   33.7085   -4.1099   49.7723 C   0  0  0  0  0  0  0  0  0  0  0  0
   38.1575   -0.3896   62.5393 C   0  0  2  0  0  0  0  0  0  0  0  0
   35.0553   -1.8906   54.4049 C   0  0  0  0  0  0  0  0  0  0  0  0
   34.3084   -2.0213   55.5560 C   0  0  0  0  0  0  0  0  0  0  0  0
   32.8967   -2.9534   51.5942 C   0  0  0  0  0  0  0  0  0  0  0  0
   34.3872   -3.0753   48.8975 C   0  0  0  0  0  0  0  0  0  0  0  0
   37.0966   -1.2117   61.8402 C   0  0  0  0  0  0  0  0  0  0  0  0
   39.4353   -0.6786   61.9487 N   0  0  0  0  0  4  0  0  0  0  0  0
   39.0155    0.1579   64.6835 O   0  0  0  0  0  0  0  0  0  0  0  0
   36.9392   -1.3656   55.7587 C   0  0  0  0  0  0  0  0  0  0  0  0
   37.2410   -1.1478   60.4000 N   0  0  0  0  0  0  0  0  0  0  0  0
   39.7610   -2.3785   65.0639 O   0  0  0  0  0  0  0  0  0  0  0  0
   40.1847   -1.4861   62.8612 C   0  0  0  0  0  0  0  0  0  0  0  0
   38.3128   -0.7556   59.7540 N   0  0  0  0  0  0  0  0  0  0  0  0
   34.5000   -2.0849   53.1445 O   0  0  0  0  0  0  0  0  0  0  0  0
   39.1798   -2.0258   63.8697 C   0  0  2  0  0  0  0  0  0  0  0  0
   38.0775   -0.8297   58.4422 N   0  0  0  0  0  0  0  0  0  0  0  0
   33.8589   -3.8352   51.1188 O   0  0  0  0  0  0  0  0  0  0  0  0
   38.2722   -0.7956   64.0085 C   0  0  2  0  0  0  0  0  0  0  0  0
   34.8838   -1.8231   56.7932 C   0  0  0  0  0  0  0  0  0  0  0  0
   36.2140   -1.4898   56.9338 C   0  0  0  0  0  0  0  0  0  0  0  0
   36.8283   -1.2789   58.2410 C   0  0  0  0  0  0  0  0  0  0  0  0
   36.2919   -1.4828   59.4901 C   0  0  0  0  0  0  0  0  0  0  0  0
  1  5  2  0
 12  1  1  0
  2  7  1  0
  2 17  1  6
  8  3  1  6
  3 20  1  6
  4  9  1  6
 10  4  1  1
  4 21  1  0
  6  5  1  0
  5 17  1  0
 22  6  2  0
  7 20  1  6
  9 13  1  6
 15 10  1  1
 21 11  1  1
 23 12  2  0
 16 13  1  0
 13 25  1  0
 18 14  1  1
 18 15  1  0
 19 16  2  0
 21 18  1  0
 24 19  1  0
 23 22  1  0
 23 24  1  0
 24 25  2  0
M  CHG  1  10   1
M  END
$$$$
