
     RDKit          3D

 25 27  0  0  0  0  0  0  0  0999 V2000
   35.1488   -2.4897   55.0985 C   0  0  0  0  0  0  0  0  0  0  0  0
   35.0003   -3.4340   52.4845 C   0  0  0  0  0  0  0  0  0  0  0  0
   36.3078   -6.4047   50.8220 C   0  0  0  0  0  0  0  0  0  0  0  0
   37.6741   -0.9988   62.7560 C   0  0  2  0  0  0  0  0  0  0  0  0
   36.3117   -2.6782   54.3840 C   0  0  0  0  0  0  0  0  0  0  0  0
   37.5188   -2.4213   54.9979 C   0  0  0  0  0  0  0  0  0  0  0  0
   35.1571   -4.5053   51.4417 C   0  0  0  0  0  0  0  0  0  0  0  0
   37.5508   -6.3702   49.9560 C   0  0  0  0  0  0  0  0  0  0  0  0
   37.9033   -0.1499   61.5245 C   0  0  0  0  0  0  0  0  0  0  0  0
   37.9145   -0.1985   63.9250 N   0  0  0  0  0  4  0  0  0  0  0  0
   38.2694   -3.0627   63.7660 O   0  0  0  0  0  0  0  0  0  0  0  0
   35.2203   -2.0512   56.4023 C   0  0  0  0  0  0  0  0  0  0  0  0
   37.0907   -0.5998   60.4126 N   0  0  0  0  0  0  0  0  0  0  0  0
   40.8135   -2.2709   63.9504 O   0  0  0  0  0  0  0  0  0  0  0  0
   39.1592   -0.6019   64.5031 C   0  0  0  0  0  0  0  0  0  0  0  0
   35.7854   -0.7268   60.4195 N   0  0  0  0  0  0  0  0  0  0  0  0
   36.2382   -3.1210   53.0675 O   0  0  0  0  0  0  0  0  0  0  0  0
   39.8814   -1.4054   63.4303 C   0  0  2  0  0  0  0  0  0  0  0  0
   35.3878   -1.1638   59.2226 N   0  0  0  0  0  0  0  0  0  0  0  0
   36.2461   -5.3308   51.6904 O   0  0  0  0  0  0  0  0  0  0  0  0
   38.6843   -2.1445   62.8163 C   0  0  2  0  0  0  0  0  0  0  0  0
   37.5634   -1.9832   56.3045 C   0  0  0  0  0  0  0  0  0  0  0  0
   36.4188   -1.7846   57.0465 C   0  0  0  0  0  0  0  0  0  0  0  0
   36.4601   -1.3209   58.4300 C   0  0  0  0  0  0  0  0  0  0  0  0
   37.5491   -0.9613   59.1878 C   0  0  0  0  0  0  0  0  0  0  0  0
  1  5  2  0
 12  1  1  0
  2  7  1  0
  2 17  1  6
  8  3  1  6
  3 20  1  6
  4  9  1  6
 10  4  1  1
  4 21  1  0
  6  5  1  0
  5 17  1  0
 22  6  2  0
  7 20  1  6
  9 13  1  6
 15 10  1  1
 21 11  1  1
 23 12  2  0
 16 13  1  0
 13 25  1  0
 18 14  1  1
 18 15  1  0
 19 16  2  0
 21 18  1  0
 24 19  1  0
 23 22  1  0
 23 24  1  0
 24 25  2  0
M  CHG  1  10   1
M  END
$$$$
