
     RDKit          3D

 25 27  0  0  0  0  0  0  0  0999 V2000
   45.7486   26.3440   33.5486 C   0  0  0  0  0  0  0  0  0  0  0  0
   46.3220   26.2757   37.0586 C   0  0  0  0  0  0  0  0  0  0  0  0
   45.1967   26.7951   39.5733 C   0  0  0  0  0  0  0  0  0  0  0  0
   46.8590   22.4335   26.7512 C   0  0  2  0  0  0  0  0  0  0  0  0
   46.5594   26.0433   34.6223 C   0  0  0  0  0  0  0  0  0  0  0  0
   47.3821   24.9411   34.5181 C   0  0  0  0  0  0  0  0  0  0  0  0
   44.8385   26.3913   37.3327 C   0  0  0  0  0  0  0  0  0  0  0  0
   44.7959   25.3780   39.9573 C   0  0  0  0  0  0  0  0  0  0  0  0
   45.8266   23.2105   27.5393 C   0  0  0  0  0  0  0  0  0  0  0  0
   48.1371   22.3911   27.4336 N   0  0  0  0  0  4  0  0  0  0  0  0
   46.6459   22.1369   24.4049 O   0  0  0  0  0  0  0  0  0  0  0  0
   45.7268   25.5948   32.3856 C   0  0  0  0  0  0  0  0  0  0  0  0
   46.1988   23.1404   28.9393 N   0  0  0  0  0  0  0  0  0  0  0  0
   49.0500   22.7421   24.0194 O   0  0  0  0  0  0  0  0  0  0  0  0
   49.0296   22.0413   26.3229 C   0  0  0  0  0  0  0  0  0  0  0  0
   46.7138   22.1391   29.5969 N   0  0  0  0  0  0  0  0  0  0  0  0
   46.5862   26.7883   35.7884 O   0  0  0  0  0  0  0  0  0  0  0  0
   48.6210   23.0827   25.2973 C   0  0  2  0  0  0  0  0  0  0  0  0
   46.9229   22.4464   30.8741 N   0  0  0  0  0  0  0  0  0  0  0  0
   44.5887   27.2269   38.4210 O   0  0  0  0  0  0  0  0  0  0  0  0
   47.1012   23.0284   25.4027 C   0  0  2  0  0  0  0  0  0  0  0  0
   47.3816   24.1646   33.3542 C   0  0  0  0  0  0  0  0  0  0  0  0
   46.5570   24.4977   32.3031 C   0  0  0  0  0  0  0  0  0  0  0  0
   46.5270   23.7150   31.0742 C   0  0  0  0  0  0  0  0  0  0  0  0
   46.0690   24.1425   29.8346 C   0  0  0  0  0  0  0  0  0  0  0  0
  1  5  2  0
 12  1  1  0
  2  7  1  0
 17  2  1  0
  3  8  1  0
 20  3  1  0
  4  9  1  1
  4 10  1  0
  4 21  1  0
  6  5  1  0
  5 17  1  0
 22  6  2  0
  7 20  1  0
 13  9  1  0
 10 15  1  0
 21 11  1  6
 23 12  2  0
 16 13  1  0
 13 25  1  0
 18 14  1  6
 18 15  1  0
 19 16  2  0
 21 18  1  0
 24 19  1  0
 23 22  1  0
 23 24  1  0
 24 25  2  0
M  CHG  1  10   1
M  END
$$$$
