
     RDKit          3D

 25 27  0  0  0  0  0  0  0  0999 V2000
   36.8699   -2.2784   54.5908 C   0  0  0  0  0  0  0  0  0  0  0  0
   36.5086   -2.1305   51.8237 C   0  0  0  0  0  0  0  0  0  0  0  0
   34.5055   -0.6423   49.1663 C   0  0  0  0  0  0  0  0  0  0  0  0
   37.8250   -1.3349   62.5936 C   0  0  2  0  0  0  0  0  0  0  0  0
   35.6314   -1.9540   54.0817 C   0  0  0  0  0  0  0  0  0  0  0  0
   34.6293   -1.5858   54.9535 C   0  0  0  0  0  0  0  0  0  0  0  0
   36.1669   -1.5590   50.4760 C   0  0  0  0  0  0  0  0  0  0  0  0
   33.6174   -1.6833   48.5152 C   0  0  0  0  0  0  0  0  0  0  0  0
   38.1731   -2.1681   61.3793 C   0  0  0  0  0  0  0  0  0  0  0  0
   38.1482    0.0391   62.3241 N   0  0  0  0  0  4  0  0  0  0  0  0
   38.1469   -1.1890   64.9407 O   0  0  0  0  0  0  0  0  0  0  0  0
   37.0756   -2.2271   55.9518 C   0  0  0  0  0  0  0  0  0  0  0  0
   37.2365   -1.9437   60.2970 N   0  0  0  0  0  0  0  0  0  0  0  0
   40.7672   -0.8117   64.5862 O   0  0  0  0  0  0  0  0  0  0  0  0
   39.3260    0.3811   63.0605 C   0  0  0  0  0  0  0  0  0  0  0  0
   36.0063   -1.5081   60.4263 N   0  0  0  0  0  0  0  0  0  0  0  0
   35.4250   -2.0061   52.7071 O   0  0  0  0  0  0  0  0  0  0  0  0
   39.9562   -0.9385   63.4841 C   0  0  2  0  0  0  0  0  0  0  0  0
   35.4482   -1.4257   59.2166 N   0  0  0  0  0  0  0  0  0  0  0  0
   34.8918   -1.0092   50.4420 O   0  0  0  0  0  0  0  0  0  0  0  0
   38.6845   -1.7416   63.7905 C   0  0  2  0  0  0  0  0  0  0  0  0
   34.8607   -1.5424   56.3120 C   0  0  0  0  0  0  0  0  0  0  0  0
   36.0879   -1.8608   56.8533 C   0  0  0  0  0  0  0  0  0  0  0  0
   36.3384   -1.8166   58.2906 C   0  0  0  0  0  0  0  0  0  0  0  0
   37.4816   -2.1480   58.9782 C   0  0  0  0  0  0  0  0  0  0  0  0
  1  5  2  0
 12  1  1  0
  2  7  1  0
  2 17  1  6
  8  3  1  6
  3 20  1  6
  4  9  1  6
 10  4  1  1
  4 21  1  0
  6  5  1  0
  5 17  1  0
 22  6  2  0
  7 20  1  6
  9 13  1  6
 15 10  1  1
 21 11  1  1
 23 12  2  0
 16 13  1  0
 13 25  1  0
 18 14  1  1
 18 15  1  0
 19 16  2  0
 21 18  1  0
 24 19  1  0
 23 22  1  0
 23 24  1  0
 24 25  2  0
M  CHG  1  10   1
M  END
$$$$
