
     RDKit          3D

 25 27  0  0  0  0  0  0  0  0999 V2000
   37.9449   -3.3730   55.4926 C   0  0  0  0  0  0  0  0  0  0  0  0
   37.8037   -4.7628   53.0860 C   0  0  0  0  0  0  0  0  0  0  0  0
   36.3125   -7.0212   50.8257 C   0  0  0  0  0  0  0  0  0  0  0  0
   38.2488   -0.4166   62.8090 C   0  0  2  0  0  0  0  0  0  0  0  0
   36.7115   -3.6220   54.9311 C   0  0  0  0  0  0  0  0  0  0  0  0
   35.5825   -3.1634   55.5752 C   0  0  0  0  0  0  0  0  0  0  0  0
   37.4939   -5.2425   51.6954 C   0  0  0  0  0  0  0  0  0  0  0  0
   36.0483   -8.2869   51.6160 C   0  0  0  0  0  0  0  0  0  0  0  0
   38.6232    0.0944   61.4347 C   0  0  0  0  0  0  0  0  0  0  0  0
   38.9015    0.3927   63.8009 N   0  0  0  0  0  4  0  0  0  0  0  0
   38.1670   -2.3828   64.1363 O   0  0  0  0  0  0  0  0  0  0  0  0
   38.0193   -2.6755   56.6780 C   0  0  0  0  0  0  0  0  0  0  0  0
   37.7507   -0.4471   60.4127 N   0  0  0  0  0  0  0  0  0  0  0  0
   40.8274   -2.5968   64.0331 O   0  0  0  0  0  0  0  0  0  0  0  0
   39.9731   -0.3643   64.3709 C   0  0  0  0  0  0  0  0  0  0  0  0
   36.4423   -0.3591   60.3969 N   0  0  0  0  0  0  0  0  0  0  0  0
   36.6377   -4.3265   53.7341 O   0  0  0  0  0  0  0  0  0  0  0  0
   40.2198   -1.5276   63.4201 C   0  0  2  0  0  0  0  0  0  0  0  0
   35.9814   -0.9728   59.3048 N   0  0  0  0  0  0  0  0  0  0  0  0
   36.2677   -5.8904   51.6199 O   0  0  0  0  0  0  0  0  0  0  0  0
   38.7718   -1.8381   63.0161 C   0  0  2  0  0  0  0  0  0  0  0  0
   35.6839   -2.4674   56.7611 C   0  0  0  0  0  0  0  0  0  0  0  0
   36.9022   -2.2018   57.3489 C   0  0  0  0  0  0  0  0  0  0  0  0
   37.0155   -1.4655   58.6041 C   0  0  0  0  0  0  0  0  0  0  0  0
   38.1467   -1.1309   59.3098 C   0  0  0  0  0  0  0  0  0  0  0  0
  1  5  2  0
 12  1  1  0
  2  7  1  0
  2 17  1  6
  8  3  1  6
  3 20  1  6
  4  9  1  6
 10  4  1  1
  4 21  1  0
  6  5  1  0
  5 17  1  0
 22  6  2  0
  7 20  1  6
  9 13  1  6
 15 10  1  1
 21 11  1  1
 23 12  2  0
 16 13  1  0
 13 25  1  0
 18 14  1  1
 18 15  1  0
 19 16  2  0
 21 18  1  0
 24 19  1  0
 23 22  1  0
 23 24  1  0
 24 25  2  0
M  CHG  1  10   1
M  END
$$$$
