
     RDKit          3D

 25 27  0  0  0  0  0  0  0  0999 V2000
   47.2236   25.0492   35.2843 C   0  0  0  0  0  0  0  0  0  0  0  0
   44.3167   25.4413   37.5017 C   0  0  0  0  0  0  0  0  0  0  0  0
   43.6687   28.6658   39.0182 C   0  0  0  0  0  0  0  0  0  0  0  0
   47.0163   22.2291   27.5644 C   0  0  2  0  0  0  0  0  0  0  0  0
   45.9168   25.0333   35.7206 C   0  0  0  0  0  0  0  0  0  0  0  0
   44.9171   24.7432   34.8171 C   0  0  0  0  0  0  0  0  0  0  0  0
   44.2219   26.4677   38.5959 C   0  0  0  0  0  0  0  0  0  0  0  0
   44.7378   29.5812   39.5798 C   0  0  0  0  0  0  0  0  0  0  0  0
   46.2639   23.3977   28.1631 C   0  0  0  0  0  0  0  0  0  0  0  0
   48.4258   22.4382   27.7500 N   0  0  0  0  0  4  0  0  0  0  0  0
   47.2356   20.9374   25.5852 O   0  0  0  0  0  0  0  0  0  0  0  0
   47.4979   24.7762   33.9624 C   0  0  0  0  0  0  0  0  0  0  0  0
   46.7536   23.7197   29.4881 N   0  0  0  0  0  0  0  0  0  0  0  0
   48.1301   23.0743   24.2560 O   0  0  0  0  0  0  0  0  0  0  0  0
   49.0013   22.7959   26.4901 C   0  0  0  0  0  0  0  0  0  0  0  0
   48.0120   23.8741   29.8233 N   0  0  0  0  0  0  0  0  0  0  0  0
   45.6410   25.3091   37.0558 O   0  0  0  0  0  0  0  0  0  0  0  0
   47.8374   23.1947   25.5932 C   0  0  2  0  0  0  0  0  0  0  0  0
   48.0798   24.1638   31.1246 N   0  0  0  0  0  0  0  0  0  0  0  0
   44.1803   27.7654   38.1023 O   0  0  0  0  0  0  0  0  0  0  0  0
   46.7965   22.1644   26.0530 C   0  0  2  0  0  0  0  0  0  0  0  0
   45.2181   24.4733   33.4989 C   0  0  0  0  0  0  0  0  0  0  0  0
   46.5145   24.4811   33.0305 C   0  0  0  0  0  0  0  0  0  0  0  0
   46.8389   24.1962   31.6362 C   0  0  0  0  0  0  0  0  0  0  0  0
   45.9899   23.9129   30.5928 C   0  0  0  0  0  0  0  0  0  0  0  0
  1  5  2  0
 12  1  1  0
  2  7  1  0
  2 17  1  6
  8  3  1  6
  3 20  1  6
  4  9  1  6
 10  4  1  1
  4 21  1  0
  6  5  1  0
  5 17  1  0
 22  6  2  0
  7 20  1  6
  9 13  1  6
 15 10  1  1
 21 11  1  6
 23 12  2  0
 16 13  1  0
 13 25  1  0
 18 14  1  6
 18 15  1  0
 19 16  2  0
 21 18  1  0
 24 19  1  0
 23 22  1  0
 23 24  1  0
 24 25  2  0
M  CHG  1  10   1
M  END
$$$$
