
     RDKit          3D

 25 27  0  0  0  0  0  0  0  0999 V2000
   47.7292   25.1063   34.0187 C   0  0  0  0  0  0  0  0  0  0  0  0
   48.0120   26.4130   36.6634 C   0  0  0  0  0  0  0  0  0  0  0  0
   44.6897   26.4350   37.9975 C   0  0  0  0  0  0  0  0  0  0  0  0
   47.2108   21.5378   27.4652 C   0  0  2  0  0  0  0  0  0  0  0  0
   47.1328   26.2986   34.3699 C   0  0  0  0  0  0  0  0  0  0  0  0
   46.1870   26.8217   33.5129 C   0  0  0  0  0  0  0  0  0  0  0  0
   46.9828   26.3809   37.7720 C   0  0  0  0  0  0  0  0  0  0  0  0
   44.8780   26.3046   39.5020 C   0  0  0  0  0  0  0  0  0  0  0  0
   46.2424   21.3251   28.6087 C   0  0  0  0  0  0  0  0  0  0  0  0
   48.5421   21.8594   27.9400 N   0  0  0  0  0  4  0  0  0  0  0  0
   46.4421   22.1320   25.2985 O   0  0  0  0  0  0  0  0  0  0  0  0
   47.4216   24.4217   32.8562 C   0  0  0  0  0  0  0  0  0  0  0  0
   46.0541   22.6030   29.2682 N   0  0  0  0  0  0  0  0  0  0  0  0
   48.1776   23.9302   25.0779 O   0  0  0  0  0  0  0  0  0  0  0  0
   49.1241   22.4634   26.7363 C   0  0  0  0  0  0  0  0  0  0  0  0
   45.4124   23.6545   28.8405 N   0  0  0  0  0  0  0  0  0  0  0  0
   47.4356   26.9885   35.5309 O   0  0  0  0  0  0  0  0  0  0  0  0
   48.0520   23.4794   26.3871 C   0  0  2  0  0  0  0  0  0  0  0  0
   45.4528   24.6473   29.7248 N   0  0  0  0  0  0  0  0  0  0  0  0
   45.7855   26.9707   37.3679 O   0  0  0  0  0  0  0  0  0  0  0  0
   46.7840   22.6525   26.5673 C   0  0  2  0  0  0  0  0  0  0  0  0
   45.8555   26.1517   32.3302 C   0  0  0  0  0  0  0  0  0  0  0  0
   46.4736   24.9626   32.0144 C   0  0  0  0  0  0  0  0  0  0  0  0
   46.1564   24.2342   30.7927 C   0  0  0  0  0  0  0  0  0  0  0  0
   46.5319   22.9324   30.4871 C   0  0  0  0  0  0  0  0  0  0  0  0
  1  5  2  0
 12  1  1  0
  2  7  1  0
 17  2  1  0
  3  8  1  0
 20  3  1  0
  4  9  1  1
  4 10  1  0
  4 21  1  0
  6  5  1  0
  5 17  1  0
 22  6  2  0
  7 20  1  0
 13  9  1  0
 10 15  1  0
 21 11  1  6
 23 12  2  0
 16 13  1  0
 13 25  1  0
 18 14  1  6
 18 15  1  0
 19 16  2  0
 21 18  1  0
 24 19  1  0
 23 22  1  0
 23 24  1  0
 24 25  2  0
M  CHG  1  10   1
M  END
$$$$
