
     RDKit          3D

 25 27  0  0  0  0  0  0  0  0999 V2000
   34.2099   -2.2850   55.5890 C   0  0  0  0  0  0  0  0  0  0  0  0
   35.1285   -4.7576   53.0231 C   0  0  0  0  0  0  0  0  0  0  0  0
   32.4018   -4.9410   50.6179 C   0  0  0  0  0  0  0  0  0  0  0  0
   38.4853   -1.4652   62.4253 C   0  0  2  0  0  0  0  0  0  0  0  0
   34.9418   -3.2272   54.8998 C   0  0  0  0  0  0  0  0  0  0  0  0
   36.1872   -3.5796   55.3740 C   0  0  0  0  0  0  0  0  0  0  0  0
   34.3528   -5.2085   51.8170 C   0  0  0  0  0  0  0  0  0  0  0  0
   30.9454   -4.7809   51.0046 C   0  0  0  0  0  0  0  0  0  0  0  0
   38.8485   -0.7890   61.1211 C   0  0  0  0  0  0  0  0  0  0  0  0
   37.6228   -0.5955   63.1767 N   0  0  0  0  0  4  0  0  0  0  0  0
   39.4235   -2.5473   64.3181 O   0  0  0  0  0  0  0  0  0  0  0  0
   34.7378   -1.7210   56.7294 C   0  0  0  0  0  0  0  0  0  0  0  0
   37.7619   -0.8633   60.1657 N   0  0  0  0  0  0  0  0  0  0  0  0
   40.6430   -0.2841   65.0426 O   0  0  0  0  0  0  0  0  0  0  0  0
   38.3714   -0.0411   64.2623 C   0  0  0  0  0  0  0  0  0  0  0  0
   36.6591   -0.1546   60.2028 N   0  0  0  0  0  0  0  0  0  0  0  0
   34.4077   -3.7960   53.7483 O   0  0  0  0  0  0  0  0  0  0  0  0
   39.8375   -0.2812   63.9292 C   0  0  2  0  0  0  0  0  0  0  0  0
   35.8935   -0.4925   59.1630 N   0  0  0  0  0  0  0  0  0  0  0  0
   33.2552   -4.3971   51.5598 O   0  0  0  0  0  0  0  0  0  0  0  0
   39.7292   -1.6723   63.2894 C   0  0  2  0  0  0  0  0  0  0  0  0
   36.6932   -3.0002   56.5182 C   0  0  0  0  0  0  0  0  0  0  0  0
   35.9867   -2.0549   57.2306 C   0  0  0  0  0  0  0  0  0  0  0  0
   36.5175   -1.4382   58.4425 C   0  0  0  0  0  0  0  0  0  0  0  0
   37.7112   -1.6768   59.0810 C   0  0  0  0  0  0  0  0  0  0  0  0
  1  5  2  0
 12  1  1  0
  2  7  1  0
  2 17  1  6
  8  3  1  6
  3 20  1  6
  4  9  1  6
 10  4  1  1
  4 21  1  0
  6  5  1  0
  5 17  1  0
 22  6  2  0
  7 20  1  6
  9 13  1  6
 15 10  1  1
 21 11  1  1
 23 12  2  0
 16 13  1  0
 13 25  1  0
 18 14  1  1
 18 15  1  0
 19 16  2  0
 21 18  1  0
 24 19  1  0
 23 22  1  0
 23 24  1  0
 24 25  2  0
M  CHG  1  10   1
M  END
$$$$
