
     RDKit          3D

 25 27  0  0  0  0  0  0  0  0999 V2000
   36.3093   -3.3245   54.9860 C   0  0  0  0  0  0  0  0  0  0  0  0
   34.9284   -3.6693   52.5902 C   0  0  0  0  0  0  0  0  0  0  0  0
   31.7823   -2.9924   50.8969 C   0  0  0  0  0  0  0  0  0  0  0  0
   38.1101   -0.3659   62.3530 C   0  0  2  0  0  0  0  0  0  0  0  0
   35.7072   -2.2375   54.3909 C   0  0  0  0  0  0  0  0  0  0  0  0
   35.7421   -1.0207   55.0376 C   0  0  0  0  0  0  0  0  0  0  0  0
   33.9176   -3.6394   51.4779 C   0  0  0  0  0  0  0  0  0  0  0  0
   31.6706   -1.8834   49.8703 C   0  0  0  0  0  0  0  0  0  0  0  0
   38.9572   -0.1915   61.1112 C   0  0  0  0  0  0  0  0  0  0  0  0
   38.4998    0.6182   63.3249 N   0  0  0  0  0  4  0  0  0  0  0  0
   37.3901   -1.9795   63.9379 O   0  0  0  0  0  0  0  0  0  0  0  0
   36.9284   -3.1698   56.2067 C   0  0  0  0  0  0  0  0  0  0  0  0
   38.5232   -1.0728   60.0462 N   0  0  0  0  0  0  0  0  0  0  0  0
   39.9032   -2.3184   64.7764 O   0  0  0  0  0  0  0  0  0  0  0  0
   39.2422   -0.0344   64.3590 C   0  0  0  0  0  0  0  0  0  0  0  0
   38.6943   -2.3725   60.0097 N   0  0  0  0  0  0  0  0  0  0  0  0
   35.0824   -2.3950   53.1582 O   0  0  0  0  0  0  0  0  0  0  0  0
   39.6464   -1.3902   63.7963 C   0  0  2  0  0  0  0  0  0  0  0  0
   38.1659   -2.8459   58.8791 N   0  0  0  0  0  0  0  0  0  0  0  0
   32.8461   -2.8014   51.7589 O   0  0  0  0  0  0  0  0  0  0  0  0
   38.3770   -1.7247   63.0006 C   0  0  2  0  0  0  0  0  0  0  0  0
   36.3684   -0.8921   56.2592 C   0  0  0  0  0  0  0  0  0  0  0  0
   36.9799   -1.9595   56.8812 C   0  0  0  0  0  0  0  0  0  0  0  0
   37.6444   -1.8289   58.1743 C   0  0  0  0  0  0  0  0  0  0  0  0
   37.8714   -0.6953   58.9178 C   0  0  0  0  0  0  0  0  0  0  0  0
  1  5  2  0
 12  1  1  0
  2  7  1  0
  2 17  1  6
  8  3  1  6
  3 20  1  6
  4  9  1  6
 10  4  1  1
  4 21  1  0
  6  5  1  0
  5 17  1  0
 22  6  2  0
  7 20  1  6
  9 13  1  6
 15 10  1  1
 21 11  1  1
 23 12  2  0
 16 13  1  0
 13 25  1  0
 18 14  1  1
 18 15  1  0
 19 16  2  0
 21 18  1  0
 24 19  1  0
 23 22  1  0
 23 24  1  0
 24 25  2  0
M  CHG  1  10   1
M  END
$$$$
