
     RDKit          3D

 25 27  0  0  0  0  0  0  0  0999 V2000
   47.6568   26.7392   33.6193 C   0  0  0  0  0  0  0  0  0  0  0  0
   47.5998   28.6658   35.6288 C   0  0  0  0  0  0  0  0  0  0  0  0
   48.6834   29.1534   38.7278 C   0  0  0  0  0  0  0  0  0  0  0  0
   47.3355   21.9454   27.1842 C   0  0  2  0  0  0  0  0  0  0  0  0
   46.4857   26.9561   34.3119 C   0  0  0  0  0  0  0  0  0  0  0  0
   45.3595   26.2467   33.9534 C   0  0  0  0  0  0  0  0  0  0  0  0
   47.3794   29.5019   36.8586 C   0  0  0  0  0  0  0  0  0  0  0  0
   49.5934   30.0424   37.9045 C   0  0  0  0  0  0  0  0  0  0  0  0
   48.0654   22.1100   28.4996 C   0  0  0  0  0  0  0  0  0  0  0  0
   48.1493   21.1639   26.2943 N   0  0  0  0  0  4  0  0  0  0  0  0
   46.2282   23.1612   25.4725 O   0  0  0  0  0  0  0  0  0  0  0  0
   47.6738   25.8233   32.5906 C   0  0  0  0  0  0  0  0  0  0  0  0
   47.2503   22.8071   29.4737 N   0  0  0  0  0  0  0  0  0  0  0  0
   48.5096   24.3947   24.8341 O   0  0  0  0  0  0  0  0  0  0  0  0
   48.6954   22.0329   25.2978 C   0  0  0  0  0  0  0  0  0  0  0  0
   45.9547   22.6726   29.6255 N   0  0  0  0  0  0  0  0  0  0  0  0
   46.4698   27.8812   35.3504 O   0  0  0  0  0  0  0  0  0  0  0  0
   48.5190   23.4483   25.8303 C   0  0  2  0  0  0  0  0  0  0  0  0
   45.5509   23.4703   30.6166 N   0  0  0  0  0  0  0  0  0  0  0  0
   47.5512   28.7757   38.0301 O   0  0  0  0  0  0  0  0  0  0  0  0
   47.1459   23.2993   26.5002 C   0  0  2  0  0  0  0  0  0  0  0  0
   45.4027   25.3353   32.9197 C   0  0  0  0  0  0  0  0  0  0  0  0
   46.5580   25.0950   32.2071 C   0  0  0  0  0  0  0  0  0  0  0  0
   46.6094   24.1314   31.1120 C   0  0  0  0  0  0  0  0  0  0  0  0
   47.6961   23.7094   30.3836 C   0  0  0  0  0  0  0  0  0  0  0  0
  1  5  2  0
 12  1  1  0
  2  7  1  0
  2 17  1  6
  8  3  1  6
  3 20  1  6
  4  9  1  1
 10  4  1  1
  4 21  1  0
  6  5  1  0
  5 17  1  0
 22  6  2  0
  7 20  1  6
  9 13  1  6
 15 10  1  1
 21 11  1  6
 23 12  2  0
 16 13  1  0
 13 25  1  0
 18 14  1  6
 18 15  1  0
 19 16  2  0
 21 18  1  0
 24 19  1  0
 23 22  1  0
 23 24  1  0
 24 25  2  0
M  CHG  1  10   1
M  END
$$$$
