
     RDKit          3D

 25 27  0  0  0  0  0  0  0  0999 V2000
   35.9630   -2.9197   55.5072 C   0  0  0  0  0  0  0  0  0  0  0  0
   35.4758   -3.3820   52.6152 C   0  0  0  0  0  0  0  0  0  0  0  0
   35.5190   -3.4583   49.3840 C   0  0  0  0  0  0  0  0  0  0  0  0
   37.6806   -1.0306   62.7095 C   0  0  2  0  0  0  0  0  0  0  0  0
   35.6718   -1.9316   54.5910 C   0  0  0  0  0  0  0  0  0  0  0  0
   35.3755   -0.6739   55.0739 C   0  0  0  0  0  0  0  0  0  0  0  0
   36.4689   -3.5259   51.4828 C   0  0  0  0  0  0  0  0  0  0  0  0
   36.6621   -2.6723   48.7581 C   0  0  0  0  0  0  0  0  0  0  0  0
   36.6536   -2.0141   62.1912 C   0  0  0  0  0  0  0  0  0  0  0  0
   38.3210   -0.3030   61.6318 N   0  0  0  0  0  4  0  0  0  0  0  0
   38.6850   -1.3129   64.8426 O   0  0  0  0  0  0  0  0  0  0  0  0
   35.9700   -2.7040   56.8740 C   0  0  0  0  0  0  0  0  0  0  0  0
   36.1226   -1.4817   60.9510 N   0  0  0  0  0  0  0  0  0  0  0  0
   40.9759   -0.8658   63.9226 O   0  0  0  0  0  0  0  0  0  0  0  0
   39.5290    0.1823   62.3084 C   0  0  0  0  0  0  0  0  0  0  0  0
   35.3501   -0.4465   60.7726 N   0  0  0  0  0  0  0  0  0  0  0  0
   35.6630   -2.1404   53.2228 O   0  0  0  0  0  0  0  0  0  0  0  0
   40.0449   -1.1080   62.9188 C   0  0  2  0  0  0  0  0  0  0  0  0
   35.0662   -0.2619   59.4862 N   0  0  0  0  0  0  0  0  0  0  0  0
   35.9272   -4.2549   50.4245 O   0  0  0  0  0  0  0  0  0  0  0  0
   38.7627   -1.7055   63.4870 C   0  0  2  0  0  0  0  0  0  0  0  0
   35.3749   -0.4261   56.4509 C   0  0  0  0  0  0  0  0  0  0  0  0
   35.6710   -1.4398   57.3344 C   0  0  0  0  0  0  0  0  0  0  0  0
   35.6810   -1.2225   58.7753 C   0  0  0  0  0  0  0  0  0  0  0  0
   36.3487   -1.9901   59.7209 C   0  0  0  0  0  0  0  0  0  0  0  0
  1  5  2  0
 12  1  1  0
  2  7  1  0
 17  2  1  0
  3  8  1  0
 20  3  1  0
  4  9  1  6
  4 10  1  0
  4 21  1  0
  6  5  1  0
  5 17  1  0
 22  6  2  0
  7 20  1  0
 13  9  1  0
 10 15  1  0
 21 11  1  1
 23 12  2  0
 16 13  1  0
 13 25  1  0
 18 14  1  1
 18 15  1  0
 19 16  2  0
 21 18  1  0
 24 19  1  0
 23 22  1  0
 23 24  1  0
 24 25  2  0
M  CHG  1  10   1
M  END
$$$$
