
     RDKit          3D

 25 27  0  0  0  0  0  0  0  0999 V2000
   47.6037   26.9420   33.6822 C   0  0  0  0  0  0  0  0  0  0  0  0
   48.9802   28.7110   35.4050 C   0  0  0  0  0  0  0  0  0  0  0  0
   50.9639   29.5773   37.7978 C   0  0  0  0  0  0  0  0  0  0  0  0
   46.3777   22.3200   26.9970 C   0  0  2  0  0  0  0  0  0  0  0  0
   48.8829   26.6593   34.1090 C   0  0  0  0  0  0  0  0  0  0  0  0
   49.5757   25.6341   33.5015 C   0  0  0  0  0  0  0  0  0  0  0  0
   50.1323   29.6454   35.6485 C   0  0  0  0  0  0  0  0  0  0  0  0
   51.2070   31.0706   37.8844 C   0  0  0  0  0  0  0  0  0  0  0  0
   46.8290   21.8840   28.3740 C   0  0  0  0  0  0  0  0  0  0  0  0
   46.4578   21.1976   26.1033 N   0  0  0  0  0  4  0  0  0  0  0  0
   46.7323   23.9681   25.3260 O   0  0  0  0  0  0  0  0  0  0  0  0
   47.0511   26.1972   32.6638 C   0  0  0  0  0  0  0  0  0  0  0  0
   46.6908   22.9549   29.3401 N   0  0  0  0  0  0  0  0  0  0  0  0
   49.2414   23.1197   24.9819 O   0  0  0  0  0  0  0  0  0  0  0  0
   47.5802   21.3866   25.2368 C   0  0  0  0  0  0  0  0  0  0  0  0
   45.6293   23.7074   29.5033 N   0  0  0  0  0  0  0  0  0  0  0  0
   49.4399   27.4122   35.1374 O   0  0  0  0  0  0  0  0  0  0  0  0
   48.4345   22.4682   25.8836 C   0  0  2  0  0  0  0  0  0  0  0  0
   45.8675   24.5837   30.4816 N   0  0  0  0  0  0  0  0  0  0  0  0
   51.0820   29.1029   36.5047 O   0  0  0  0  0  0  0  0  0  0  0  0
   47.3246   23.3774   26.4294 C   0  0  2  0  0  0  0  0  0  0  0  0
   48.9999   24.9033   32.4840 C   0  0  0  0  0  0  0  0  0  0  0  0
   47.7226   25.1606   32.0338 C   0  0  0  0  0  0  0  0  0  0  0  0
   47.1082   24.3901   30.9570 C   0  0  0  0  0  0  0  0  0  0  0  0
   47.6362   23.3502   30.2294 C   0  0  0  0  0  0  0  0  0  0  0  0
  1  5  2  0
 12  1  1  0
  2  7  1  0
  2 17  1  6
  8  3  1  6
  3 20  1  6
  4  9  1  1
 10  4  1  1
  4 21  1  0
  6  5  1  0
  5 17  1  0
 22  6  2  0
  7 20  1  6
  9 13  1  6
 15 10  1  1
 21 11  1  6
 23 12  2  0
 16 13  1  0
 13 25  1  0
 18 14  1  6
 18 15  1  0
 19 16  2  0
 21 18  1  0
 24 19  1  0
 23 22  1  0
 23 24  1  0
 24 25  2  0
M  CHG  1  10   1
M  END
$$$$
