
     RDKit          3D

 25 27  0  0  0  0  0  0  0  0999 V2000
   45.8482   26.1800   34.7787 C   0  0  0  0  0  0  0  0  0  0  0  0
   46.0625   27.0445   37.4452 C   0  0  0  0  0  0  0  0  0  0  0  0
   47.5537   29.9062   38.9647 C   0  0  0  0  0  0  0  0  0  0  0  0
   47.6783   23.2801   27.4214 C   0  0  2  0  0  0  0  0  0  0  0  0
   47.0566   26.1082   35.4367 C   0  0  0  0  0  0  0  0  0  0  0  0
   48.0995   25.4319   34.8410 C   0  0  0  0  0  0  0  0  0  0  0  0
   46.4403   27.9190   38.6081 C   0  0  0  0  0  0  0  0  0  0  0  0
   47.9215   29.8387   40.4332 C   0  0  0  0  0  0  0  0  0  0  0  0
   47.4532   22.4178   28.6444 C   0  0  0  0  0  0  0  0  0  0  0  0
   46.4280   23.4489   26.7336 N   0  0  0  0  0  4  0  0  0  0  0  0
   49.0348   23.4965   25.4857 O   0  0  0  0  0  0  0  0  0  0  0  0
   45.7123   25.5773   33.5477 C   0  0  0  0  0  0  0  0  0  0  0  0
   46.8549   23.1763   29.7242 N   0  0  0  0  0  0  0  0  0  0  0  0
   48.0830   21.1925   24.5268 O   0  0  0  0  0  0  0  0  0  0  0  0
   46.4517   22.6510   25.5466 C   0  0  0  0  0  0  0  0  0  0  0  0
   45.6140   23.5982   29.7683 N   0  0  0  0  0  0  0  0  0  0  0  0
   47.1926   26.7173   36.6798 O   0  0  0  0  0  0  0  0  0  0  0  0
   47.6007   21.6676   25.7226 C   0  0  2  0  0  0  0  0  0  0  0  0
   45.4232   24.2594   30.9121 N   0  0  0  0  0  0  0  0  0  0  0  0
   47.5865   28.6633   38.3602 O   0  0  0  0  0  0  0  0  0  0  0  0
   48.6105   22.5798   26.4328 C   0  0  2  0  0  0  0  0  0  0  0  0
   47.9377   24.8369   33.6077 C   0  0  0  0  0  0  0  0  0  0  0  0
   46.7423   24.8904   32.9234 C   0  0  0  0  0  0  0  0  0  0  0  0
   46.5655   24.2624   31.6176 C   0  0  0  0  0  0  0  0  0  0  0  0
   47.4816   23.5711   30.8609 C   0  0  0  0  0  0  0  0  0  0  0  0
  1  5  2  0
 12  1  1  0
  2  7  1  0
  2 17  1  6
  8  3  1  6
  3 20  1  6
  4  9  1  1
 10  4  1  1
  4 21  1  0
  6  5  1  0
  5 17  1  0
 22  6  2  0
  7 20  1  6
  9 13  1  6
 15 10  1  1
 21 11  1  6
 23 12  2  0
 16 13  1  0
 13 25  1  0
 18 14  1  6
 18 15  1  0
 19 16  2  0
 21 18  1  0
 24 19  1  0
 23 22  1  0
 23 24  1  0
 24 25  2  0
M  CHG  1  10   1
M  END
$$$$
