
     RDKit          3D

 25 27  0  0  0  0  0  0  0  0999 V2000
   37.5495   -3.1711   55.1656 C   0  0  0  0  0  0  0  0  0  0  0  0
   36.9942   -4.3421   52.5337 C   0  0  0  0  0  0  0  0  0  0  0  0
   36.4591   -7.4018   51.2025 C   0  0  0  0  0  0  0  0  0  0  0  0
   38.7738   -1.4443   62.4024 C   0  0  2  0  0  0  0  0  0  0  0  0
   36.3999   -2.9180   54.4481 C   0  0  0  0  0  0  0  0  0  0  0  0
   35.4441   -2.1104   55.0286 C   0  0  0  0  0  0  0  0  0  0  0  0
   36.4891   -5.7428   52.8021 C   0  0  0  0  0  0  0  0  0  0  0  0
   36.0129   -8.6670   51.9210 C   0  0  0  0  0  0  0  0  0  0  0  0
   39.1552   -0.5937   61.2101 C   0  0  0  0  0  0  0  0  0  0  0  0
   37.5544   -0.9753   63.0302 N   0  0  0  0  0  4  0  0  0  0  0  0
   40.3946   -2.7413   63.5554 O   0  0  0  0  0  0  0  0  0  0  0  0
   37.7807   -2.6546   56.4283 C   0  0  0  0  0  0  0  0  0  0  0  0
   38.1167   -0.7489   60.2097 N   0  0  0  0  0  0  0  0  0  0  0  0
   39.5625   -1.9592   65.7892 O   0  0  0  0  0  0  0  0  0  0  0  0
   37.6647   -1.6069   64.3497 C   0  0  0  0  0  0  0  0  0  0  0  0
   36.8731   -0.3597   60.2582 N   0  0  0  0  0  0  0  0  0  0  0  0
   36.1622   -3.4312   53.1849 O   0  0  0  0  0  0  0  0  0  0  0  0
   39.0684   -1.1860   64.7447 C   0  0  2  0  0  0  0  0  0  0  0  0
   36.2155   -0.6785   59.1468 N   0  0  0  0  0  0  0  0  0  0  0  0
   35.8462   -6.2717   51.6833 O   0  0  0  0  0  0  0  0  0  0  0  0
   39.8352   -1.4473   63.4532 C   0  0  2  0  0  0  0  0  0  0  0  0
   35.6503   -1.5739   56.3042 C   0  0  0  0  0  0  0  0  0  0  0  0
   36.8122   -1.8501   56.9893 C   0  0  0  0  0  0  0  0  0  0  0  0
   37.0649   -1.3109   58.3193 C   0  0  0  0  0  0  0  0  0  0  0  0
   38.2697   -1.3478   59.0095 C   0  0  0  0  0  0  0  0  0  0  0  0
  1  5  2  0
 12  1  1  0
  2  7  1  0
 17  2  1  0
  3  8  1  0
 20  3  1  0
  4  9  1  6
  4 10  1  0
  4 21  1  0
  6  5  1  0
  5 17  1  0
 22  6  2  0
  7 20  1  0
 13  9  1  0
 10 15  1  0
 21 11  1  1
 23 12  2  0
 16 13  1  0
 13 25  1  0
 18 14  1  1
 18 15  1  0
 19 16  2  0
 21 18  1  0
 24 19  1  0
 23 22  1  0
 23 24  1  0
 24 25  2  0
M  CHG  1  10   1
M  END
$$$$
