
     RDKit          3D

 25 27  0  0  0  0  0  0  0  0999 V2000
   33.8370   -1.4942   56.2029 C   0  0  0  0  0  0  0  0  0  0  0  0
   33.8439   -0.9856   52.5588 C   0  0  0  0  0  0  0  0  0  0  0  0
   31.9659   -3.8926   51.4003 C   0  0  0  0  0  0  0  0  0  0  0  0
   38.2234   -0.7216   62.3230 C   0  0  2  0  0  0  0  0  0  0  0  0
   34.3068   -1.3191   54.9196 C   0  0  0  0  0  0  0  0  0  0  0  0
   35.6680   -1.2539   54.7124 C   0  0  0  0  0  0  0  0  0  0  0  0
   33.2355   -1.9794   51.6091 C   0  0  0  0  0  0  0  0  0  0  0  0
   30.4678   -4.0571   51.5582 C   0  0  0  0  0  0  0  0  0  0  0  0
   38.1044   -2.0526   61.6130 C   0  0  0  0  0  0  0  0  0  0  0  0
   39.4790   -0.1170   61.9723 N   0  0  0  0  0  4  0  0  0  0  0  0
   38.0662    0.3014   64.4591 O   0  0  0  0  0  0  0  0  0  0  0  0
   34.7344   -1.5992   57.2425 C   0  0  0  0  0  0  0  0  0  0  0  0
   37.9363   -1.8776   60.1847 N   0  0  0  0  0  0  0  0  0  0  0  0
   40.1556   -1.1197   65.3245 O   0  0  0  0  0  0  0  0  0  0  0  0
   40.3600   -0.2168   63.0949 C   0  0  0  0  0  0  0  0  0  0  0  0
   38.9041   -1.7396   59.3105 N   0  0  0  0  0  0  0  0  0  0  0  0
   33.3995   -1.2131   53.8705 O   0  0  0  0  0  0  0  0  0  0  0  0
   39.7478   -1.2598   64.0198 C   0  0  2  0  0  0  0  0  0  0  0  0
   38.3712   -1.6018   58.0945 N   0  0  0  0  0  0  0  0  0  0  0  0
   32.4813   -2.9444   52.2643 O   0  0  0  0  0  0  0  0  0  0  0  0
   38.2617   -0.9207   63.8382 C   0  0  2  0  0  0  0  0  0  0  0  0
   36.5456   -1.3618   55.7703 C   0  0  0  0  0  0  0  0  0  0  0  0
   36.1082   -1.5374   57.0657 C   0  0  0  0  0  0  0  0  0  0  0  0
   37.0328   -1.6523   58.1893 C   0  0  0  0  0  0  0  0  0  0  0  0
   36.7526   -1.8284   59.5235 C   0  0  0  0  0  0  0  0  0  0  0  0
  1  5  2  0
 12  1  1  0
  2  7  1  0
  2 17  1  6
  8  3  1  6
  3 20  1  6
  4  9  1  6
 10  4  1  1
  4 21  1  0
  6  5  1  0
  5 17  1  0
 22  6  2  0
  7 20  1  6
  9 13  1  6
 15 10  1  1
 21 11  1  1
 23 12  2  0
 16 13  1  0
 13 25  1  0
 18 14  1  1
 18 15  1  0
 19 16  2  0
 21 18  1  0
 24 19  1  0
 23 22  1  0
 23 24  1  0
 24 25  2  0
M  CHG  1  10   1
M  END
$$$$
