
     RDKit          3D

 25 27  0  0  0  0  0  0  0  0999 V2000
   35.4111   -1.0028   54.7368 C   0  0  0  0  0  0  0  0  0  0  0  0
   36.0147   -3.6886   52.2958 C   0  0  0  0  0  0  0  0  0  0  0  0
   35.6870   -2.4651   48.9098 C   0  0  0  0  0  0  0  0  0  0  0  0
   38.4738   -1.6787   62.2276 C   0  0  2  0  0  0  0  0  0  0  0  0
   35.9042   -2.1642   54.1833 C   0  0  0  0  0  0  0  0  0  0  0  0
   36.8060   -2.9152   54.9063 C   0  0  0  0  0  0  0  0  0  0  0  0
   36.4398   -3.3820   50.8868 C   0  0  0  0  0  0  0  0  0  0  0  0
   36.8645   -1.6926   48.3502 C   0  0  0  0  0  0  0  0  0  0  0  0
   39.1047   -0.8745   61.1118 C   0  0  0  0  0  0  0  0  0  0  0  0
   37.5478   -0.8415   62.9394 N   0  0  0  0  0  4  0  0  0  0  0  0
   38.9910   -3.0720   64.0784 O   0  0  0  0  0  0  0  0  0  0  0  0
   35.8292   -0.6222   55.9928 C   0  0  0  0  0  0  0  0  0  0  0  0
   38.1871   -0.6936   60.0053 N   0  0  0  0  0  0  0  0  0  0  0  0
   40.2018   -1.0345   65.3099 O   0  0  0  0  0  0  0  0  0  0  0  0
   38.1248   -0.4980   64.2024 C   0  0  0  0  0  0  0  0  0  0  0  0
   37.2214    0.1919   59.9476 N   0  0  0  0  0  0  0  0  0  0  0  0
   35.4812   -2.5475   52.9149 O   0  0  0  0  0  0  0  0  0  0  0  0
   39.6088   -0.8190   64.0891 C   0  0  2  0  0  0  0  0  0  0  0  0
   36.5873    0.0637   58.7800 N   0  0  0  0  0  0  0  0  0  0  0  0
   35.6389   -2.4164   50.2906 O   0  0  0  0  0  0  0  0  0  0  0  0
   39.5289   -2.1017   63.2498 C   0  0  2  0  0  0  0  0  0  0  0  0
   37.2088   -2.5124   56.1620 C   0  0  0  0  0  0  0  0  0  0  0  0
   36.7346   -1.3562   56.7439 C   0  0  0  0  0  0  0  0  0  0  0  0
   37.1575   -0.9250   58.0727 C   0  0  0  0  0  0  0  0  0  0  0  0
   38.1796   -1.4103   58.8533 C   0  0  0  0  0  0  0  0  0  0  0  0
  1  5  2  0
 12  1  1  0
  2  7  1  0
  2 17  1  6
  8  3  1  6
  3 20  1  6
  4  9  1  6
 10  4  1  1
  4 21  1  0
  6  5  1  0
  5 17  1  0
 22  6  2  0
  7 20  1  6
  9 13  1  6
 15 10  1  1
 21 11  1  1
 23 12  2  0
 16 13  1  0
 13 25  1  0
 18 14  1  1
 18 15  1  0
 19 16  2  0
 21 18  1  0
 24 19  1  0
 23 22  1  0
 23 24  1  0
 24 25  2  0
M  CHG  1  10   1
M  END
$$$$
