
     RDKit          3D

 25 27  0  0  0  0  0  0  0  0999 V2000
   35.3636   -3.0727   55.0103 C   0  0  0  0  0  0  0  0  0  0  0  0
   37.0711   -5.3003   52.5896 C   0  0  0  0  0  0  0  0  0  0  0  0
   37.0979   -8.8822   52.9570 C   0  0  0  0  0  0  0  0  0  0  0  0
   38.4750   -0.8293   62.2238 C   0  0  2  0  0  0  0  0  0  0  0  0
   36.3817   -3.7107   54.3343 C   0  0  0  0  0  0  0  0  0  0  0  0
   37.6324   -3.7210   54.9160 C   0  0  0  0  0  0  0  0  0  0  0  0
   36.4694   -6.6689   52.8221 C   0  0  0  0  0  0  0  0  0  0  0  0
   36.4420   -9.0383   51.5925 C   0  0  0  0  0  0  0  0  0  0  0  0
   38.9702   -0.5008   60.8319 C   0  0  0  0  0  0  0  0  0  0  0  0
   37.7744    0.2888   62.8237 N   0  0  0  0  0  4  0  0  0  0  0  0
   39.4792   -2.5544   63.5100 O   0  0  0  0  0  0  0  0  0  0  0  0
   35.5429   -2.4501   56.2329 C   0  0  0  0  0  0  0  0  0  0  0  0
   37.9538   -0.9315   59.8912 N   0  0  0  0  0  0  0  0  0  0  0  0
   39.5760   -1.0993   65.5514 O   0  0  0  0  0  0  0  0  0  0  0  0
   37.8301   -0.0817   64.2422 C   0  0  0  0  0  0  0  0  0  0  0  0
   36.6583   -0.8125   59.9794 N   0  0  0  0  0  0  0  0  0  0  0  0
   36.2094   -4.3353   53.1113 O   0  0  0  0  0  0  0  0  0  0  0  0
   39.3122   -0.3691   64.3980 C   0  0  2  0  0  0  0  0  0  0  0  0
   36.0448   -1.3287   58.9180 N   0  0  0  0  0  0  0  0  0  0  0  0
   37.4368   -7.5825   53.2396 O   0  0  0  0  0  0  0  0  0  0  0  0
   39.5918   -1.1932   63.1464 C   0  0  2  0  0  0  0  0  0  0  0  0
   37.8437   -3.0998   56.1517 C   0  0  0  0  0  0  0  0  0  0  0  0
   36.8008   -2.4727   56.7959 C   0  0  0  0  0  0  0  0  0  0  0  0
   36.9797   -1.8144   58.0837 C   0  0  0  0  0  0  0  0  0  0  0  0
   38.1884   -1.5543   58.7166 C   0  0  0  0  0  0  0  0  0  0  0  0
  1  5  2  0
 12  1  1  0
  2  7  1  0
 17  2  1  0
  3  8  1  0
 20  3  1  0
  4  9  1  6
  4 10  1  0
  4 21  1  0
  6  5  1  0
  5 17  1  0
 22  6  2  0
  7 20  1  0
 13  9  1  0
 10 15  1  0
 21 11  1  1
 23 12  2  0
 16 13  1  0
 13 25  1  0
 18 14  1  1
 18 15  1  0
 19 16  2  0
 21 18  1  0
 24 19  1  0
 23 22  1  0
 23 24  1  0
 24 25  2  0
M  CHG  1  10   1
M  END
$$$$
