
     RDKit          3D

 22 25  0  0  0  0  0  0  0  0999 V2000
   25.3946   56.6525   84.8204 O   0  0  0  0  0  0  0  0  0  0  0  0
   24.0007   55.5121   86.3662 C   0  0  2  0  0  0  0  0  0  0  0  0
   19.7719   54.9570   88.1044 O   0  0  0  0  0  0  0  0  0  0  0  0
   25.2207   56.2215   85.9859 C   0  0  0  0  0  0  0  0  0  0  0  0
   30.7676   54.8447   87.4213 C   0  0  0  0  0  0  0  0  0  0  0  0
   26.2407   56.4352   86.9463 N   0  0  0  0  0  0  0  0  0  0  0  0
   27.5953   56.8231   86.5453 C   0  0  0  0  0  0  0  0  0  0  0  0
   28.4644   55.5973   86.5601 C   0  0  2  0  0  0  0  0  0  0  0  0
   28.1895   54.5114   87.5460 C   0  0  0  0  0  0  0  0  0  0  0  0
   29.3924   55.4435   87.6938 C   0  0  1  0  0  0  0  0  0  0  0  0
   22.2591   54.9435   90.1619 C   0  0  0  0  0  0  0  0  0  0  0  0
   22.8277   55.6404   85.3680 C   0  0  0  0  0  0  0  0  0  0  0  0
   19.5675   56.3160   88.1638 C   0  0  0  0  0  0  0  0  0  0  0  0
   20.8201   54.8076   87.1689 C   0  0  0  0  0  0  0  0  0  0  0  0
   21.2292   57.5246   89.5191 C   0  0  0  0  0  0  0  0  0  0  0  0
   22.7392   56.2463   86.6851 C   0  0  1  0  0  0  0  0  0  0  0  0
   20.9735   56.8837   88.2139 C   0  0  1  0  0  0  0  0  0  0  0  0
   21.8382   55.7768   87.7967 C   0  0  1  0  0  0  0  0  0  0  0  0
   22.5419   55.0382   88.7754 N   0  0  0  0  0  0  0  0  0  0  0  0
   22.6809   53.9599   90.8843 N   0  0  0  0  0  0  0  0  0  0  0  0
   21.2776   56.2734   90.8598 S   0  0  0  0  0  0  0  0  0  0  0  0
   23.1567   54.0682   91.7839 H   0  0  0  0  0  0  0  0  0  0  0  0
  4  1  2  0
  2  4  1  6
 12  2  1  0
 16  2  1  0
  3 13  1  0
 14  3  1  0
  4  6  1  0
 10  5  1  6
  6  7  1  0
  8  7  1  1
  8  9  1  0
  8 10  1  0
 10  9  1  0
 11 19  1  0
 11 20  2  0
 21 11  1  0
 16 12  1  6
 17 13  1  1
 18 14  1  6
 17 15  1  0
 15 21  1  0
 16 18  1  0
 17 18  1  0
 18 19  1  0
 20 22  1  0
M  END
$$$$
