
     RDKit          3D

 22 25  0  0  0  0  0  0  0  0999 V2000
   25.3764   56.8643   85.6207 O   0  0  0  0  0  0  0  0  0  0  0  0
   23.7611   55.1764   86.0393 C   0  0  2  0  0  0  0  0  0  0  0  0
   19.8655   54.6278   88.1156 O   0  0  0  0  0  0  0  0  0  0  0  0
   25.0937   55.6425   85.6605 C   0  0  0  0  0  0  0  0  0  0  0  0
   30.1934   54.1898   88.1004 C   0  0  0  0  0  0  0  0  0  0  0  0
   26.1012   54.7029   85.3277 N   0  0  0  0  0  0  0  0  0  0  0  0
   27.5226   55.0272   85.4716 C   0  0  0  0  0  0  0  0  0  0  0  0
   28.0552   54.3039   86.6763 C   0  0  2  0  0  0  0  0  0  0  0  0
   27.6528   54.7517   88.0417 C   0  0  0  0  0  0  0  0  0  0  0  0
   29.0577   55.0071   87.4951 C   0  0  1  0  0  0  0  0  0  0  0  0
   22.3711   54.4609   90.1439 C   0  0  0  0  0  0  0  0  0  0  0  0
   22.5879   55.9157   85.3567 C   0  0  0  0  0  0  0  0  0  0  0  0
   19.6519   55.9753   88.2909 C   0  0  0  0  0  0  0  0  0  0  0  0
   20.9063   54.5659   87.1621 C   0  0  0  0  0  0  0  0  0  0  0  0
   21.3170   57.0787   89.7292 C   0  0  0  0  0  0  0  0  0  0  0  0
   22.8107   56.0553   86.7852 C   0  0  1  0  0  0  0  0  0  0  0  0
   21.0542   56.5479   88.3769 C   0  0  1  0  0  0  0  0  0  0  0  0
   21.9230   55.4869   87.8607 C   0  0  1  0  0  0  0  0  0  0  0  0
   22.6407   54.6741   88.7680 N   0  0  0  0  0  0  0  0  0  0  0  0
   22.8063   53.4234   90.7774 N   0  0  0  0  0  0  0  0  0  0  0  0
   21.3864   55.7196   90.9594 S   0  0  0  0  0  0  0  0  0  0  0  0
   23.1367   53.4363   91.7459 H   0  0  0  0  0  0  0  0  0  0  0  0
  4  1  2  0
  2  4  1  6
 12  2  1  0
 16  2  1  0
  3 13  1  0
 14  3  1  0
  4  6  1  0
 10  5  1  1
  6  7  1  0
  8  7  1  6
  8  9  1  0
  8 10  1  0
 10  9  1  0
 11 19  1  0
 11 20  2  0
 21 11  1  0
 16 12  1  6
 17 13  1  1
 18 14  1  6
 17 15  1  0
 15 21  1  0
 16 18  1  0
 17 18  1  0
 18 19  1  0
 20 22  1  0
M  END
$$$$
