
     RDKit          3D

 22 25  0  0  0  0  0  0  0  0999 V2000
   24.7000   56.8525   85.4899 O   0  0  0  0  0  0  0  0  0  0  0  0
   23.8711   55.4017   87.1756 C   0  0  2  0  0  0  0  0  0  0  0  0
   19.3349   55.0120   88.6476 O   0  0  0  0  0  0  0  0  0  0  0  0
   24.8907   56.2642   86.5817 C   0  0  0  0  0  0  0  0  0  0  0  0
   30.4295   55.5941   88.1427 C   0  0  0  0  0  0  0  0  0  0  0  0
   26.1300   56.4501   87.2437 N   0  0  0  0  0  0  0  0  0  0  0  0
   27.2622   57.0948   86.5739 C   0  0  0  0  0  0  0  0  0  0  0  0
   28.4365   56.1583   86.6186 C   0  0  2  0  0  0  0  0  0  0  0  0
   28.2326   54.7409   87.0385 C   0  0  0  0  0  0  0  0  0  0  0  0
   28.9260   55.7552   87.9484 C   0  0  1  0  0  0  0  0  0  0  0  0
   21.8588   54.7136   90.6378 C   0  0  0  0  0  0  0  0  0  0  0  0
   22.9190   54.7194   86.1671 C   0  0  0  0  0  0  0  0  0  0  0  0
   19.3497   56.3874   88.6319 C   0  0  0  0  0  0  0  0  0  0  0  0
   20.3133   54.6469   87.6960 C   0  0  0  0  0  0  0  0  0  0  0  0
   21.2272   57.3871   89.8704 C   0  0  0  0  0  0  0  0  0  0  0  0
   22.4173   55.7327   87.0789 C   0  0  1  0  0  0  0  0  0  0  0  0
   20.8284   56.7254   88.6123 C   0  0  1  0  0  0  0  0  0  0  0  0
   21.4927   55.4739   88.2390 C   0  0  1  0  0  0  0  0  0  0  0  0
   22.1046   54.6867   89.2413 N   0  0  0  0  0  0  0  0  0  0  0  0
   22.1449   53.7159   91.4059 N   0  0  0  0  0  0  0  0  0  0  0  0
   21.1242   56.2188   91.2809 S   0  0  0  0  0  0  0  0  0  0  0  0
   22.5797   53.8049   92.3281 H   0  0  0  0  0  0  0  0  0  0  0  0
  4  1  2  0
  2  4  1  6
 12  2  1  0
 16  2  1  0
  3 13  1  0
 14  3  1  0
  4  6  1  0
 10  5  1  6
  6  7  1  0
  8  7  1  1
  8  9  1  0
  8 10  1  0
 10  9  1  0
 11 19  1  0
 11 20  2  0
 21 11  1  0
 16 12  1  6
 17 13  1  1
 18 14  1  6
 17 15  1  0
 15 21  1  0
 16 18  1  0
 17 18  1  0
 18 19  1  0
 20 22  1  0
M  END
$$$$
