
     RDKit          3D

 22 25  0  0  0  0  0  0  0  0999 V2000
   25.6879   54.2172   87.0905 O   0  0  0  0  0  0  0  0  0  0  0  0
   23.5093   54.9665   86.5198 C   0  0  2  0  0  0  0  0  0  0  0  0
   19.6374   55.1346   88.2199 O   0  0  0  0  0  0  0  0  0  0  0  0
   24.9382   54.7934   86.2656 C   0  0  0  0  0  0  0  0  0  0  0  0
   27.6627   57.9532   86.9898 C   0  0  0  0  0  0  0  0  0  0  0  0
   25.5048   55.2831   85.0624 N   0  0  0  0  0  0  0  0  0  0  0  0
   26.8884   54.9758   84.6917 C   0  0  0  0  0  0  0  0  0  0  0  0
   27.7866   56.0094   85.3106 C   0  0  2  0  0  0  0  0  0  0  0  0
   28.6851   55.6242   86.4381 C   0  0  0  0  0  0  0  0  0  0  0  0
   27.4389   56.4812   86.6622 C   0  0  1  0  0  0  0  0  0  0  0  0
   21.5802   54.6369   90.7492 C   0  0  0  0  0  0  0  0  0  0  0  0
   22.9405   56.3564   86.1542 C   0  0  0  0  0  0  0  0  0  0  0  0
   19.6471   56.5063   88.3224 C   0  0  0  0  0  0  0  0  0  0  0  0
   20.8263   54.8339   87.5181 C   0  0  0  0  0  0  0  0  0  0  0  0
   21.1458   57.3734   90.0719 C   0  0  0  0  0  0  0  0  0  0  0  0
   23.0112   55.9352   87.5425 C   0  0  1  0  0  0  0  0  0  0  0  0
   21.0810   56.8227   88.7035 C   0  0  1  0  0  0  0  0  0  0  0  0
   21.8257   55.5961   88.4071 C   0  0  1  0  0  0  0  0  0  0  0  0
   22.1701   54.7206   89.4623 N   0  0  0  0  0  0  0  0  0  0  0  0
   21.6697   53.5757   91.4793 N   0  0  0  0  0  0  0  0  0  0  0  0
   20.6979   56.0953   91.3093 S   0  0  0  0  0  0  0  0  0  0  0  0
   22.0855   53.5528   92.4141 H   0  0  0  0  0  0  0  0  0  0  0  0
  4  1  2  0
  2  4  1  1
 12  2  1  0
 16  2  1  0
  3 13  1  0
 14  3  1  0
  4  6  1  0
 10  5  1  6
  6  7  1  0
  8  7  1  1
  8  9  1  0
  8 10  1  0
 10  9  1  0
 11 19  1  0
 11 20  2  0
 21 11  1  0
 16 12  1  6
 17 13  1  1
 18 14  1  6
 17 15  1  0
 15 21  1  0
 16 18  1  0
 17 18  1  0
 18 19  1  0
 20 22  1  0
M  END
$$$$
