
     RDKit          3D

 22 25  0  0  0  0  0  0  0  0999 V2000
   24.7559   56.7469   85.4156 O   0  0  0  0  0  0  0  0  0  0  0  0
   23.7442   55.0432   86.7223 C   0  0  2  0  0  0  0  0  0  0  0  0
   19.6379   55.5405   89.0550 O   0  0  0  0  0  0  0  0  0  0  0  0
   24.8693   55.6492   86.0128 C   0  0  0  0  0  0  0  0  0  0  0  0
   27.8639   56.8778   88.9828 C   0  0  0  0  0  0  0  0  0  0  0  0
   26.1250   54.9924   85.9903 N   0  0  0  0  0  0  0  0  0  0  0  0
   27.3050   55.6253   85.3961 C   0  0  0  0  0  0  0  0  0  0  0  0
   27.9704   56.4698   86.4460 C   0  0  2  0  0  0  0  0  0  0  0  0
   29.3080   56.0704   86.9737 C   0  0  0  0  0  0  0  0  0  0  0  0
   28.0374   55.9187   87.8105 C   0  0  1  0  0  0  0  0  0  0  0  0
   22.3698   54.6934   90.5512 C   0  0  0  0  0  0  0  0  0  0  0  0
   22.4627   54.8516   85.8798 C   0  0  0  0  0  0  0  0  0  0  0  0
   19.8990   56.8909   89.0724 C   0  0  0  0  0  0  0  0  0  0  0  0
   20.3551   55.0660   87.9341 C   0  0  0  0  0  0  0  0  0  0  0  0
   22.1115   57.4757   89.9788 C   0  0  0  0  0  0  0  0  0  0  0  0
   22.4832   55.8028   86.9773 C   0  0  1  0  0  0  0  0  0  0  0  0
   21.3888   56.9670   88.7962 C   0  0  1  0  0  0  0  0  0  0  0  0
   21.7406   55.6425   88.2776 C   0  0  1  0  0  0  0  0  0  0  0  0
   22.3627   54.7045   89.1331 N   0  0  0  0  0  0  0  0  0  0  0  0
   22.5980   53.6187   91.2295 N   0  0  0  0  0  0  0  0  0  0  0  0
   22.0424   56.2640   91.3544 S   0  0  0  0  0  0  0  0  0  0  0  0
   23.0458   53.6022   92.1496 H   0  0  0  0  0  0  0  0  0  0  0  0
  4  1  2  0
  2  4  1  6
 12  2  1  0
 16  2  1  0
  3 13  1  0
 14  3  1  0
  4  6  1  0
 10  5  1  1
  6  7  1  0
  8  7  1  6
  8  9  1  0
  8 10  1  0
 10  9  1  0
 11 19  1  0
 11 20  2  0
 21 11  1  0
 16 12  1  6
 17 13  1  1
 18 14  1  6
 17 15  1  0
 15 21  1  0
 16 18  1  0
 17 18  1  0
 18 19  1  0
 20 22  1  0
M  END
$$$$
