
     RDKit          3D

 22 25  0  0  0  0  0  0  0  0999 V2000
   24.6481   57.2895   85.5722 O   0  0  0  0  0  0  0  0  0  0  0  0
   23.4544   55.4104   86.3951 C   0  0  2  0  0  0  0  0  0  0  0  0
   19.3557   55.5113   88.6843 O   0  0  0  0  0  0  0  0  0  0  0  0
   24.6109   56.0513   85.7721 C   0  0  0  0  0  0  0  0  0  0  0  0
   29.6594   56.3706   87.8497 C   0  0  0  0  0  0  0  0  0  0  0  0
   25.7246   55.2680   85.3791 N   0  0  0  0  0  0  0  0  0  0  0  0
   27.0256   55.8803   85.0987 C   0  0  0  0  0  0  0  0  0  0  0  0
   28.0072   55.4044   86.1322 C   0  0  2  0  0  0  0  0  0  0  0  0
   27.5119   54.9516   87.4650 C   0  0  0  0  0  0  0  0  0  0  0  0
   28.2437   56.2827   87.2911 C   0  0  1  0  0  0  0  0  0  0  0  0
   22.1151   54.9851   90.2742 C   0  0  0  0  0  0  0  0  0  0  0  0
   22.1772   55.3715   85.5256 C   0  0  0  0  0  0  0  0  0  0  0  0
   19.4403   56.8833   88.7371 C   0  0  0  0  0  0  0  0  0  0  0  0
   20.1700   55.1588   87.5847 C   0  0  0  0  0  0  0  0  0  0  0  0
   21.5232   57.7243   89.7433 C   0  0  0  0  0  0  0  0  0  0  0  0
   22.2204   56.1837   86.7290 C   0  0  1  0  0  0  0  0  0  0  0  0
   20.9173   57.1555   88.5231 C   0  0  1  0  0  0  0  0  0  0  0  0
   21.4558   55.8993   87.9949 C   0  0  1  0  0  0  0  0  0  0  0  0
   22.1604   55.0286   88.8574 N   0  0  0  0  0  0  0  0  0  0  0  0
   22.4537   53.9326   90.9413 N   0  0  0  0  0  0  0  0  0  0  0  0
   21.5584   56.4816   91.0923 S   0  0  0  0  0  0  0  0  0  0  0  0
   23.1067   53.9352   91.7292 H   0  0  0  0  0  0  0  0  0  0  0  0
  4  1  2  0
  2  4  1  6
 12  2  1  0
 16  2  1  0
  3 13  1  0
 14  3  1  0
  4  6  1  0
 10  5  1  1
  6  7  1  0
  8  7  1  6
  8  9  1  0
  8 10  1  0
 10  9  1  0
 11 19  1  0
 11 20  2  0
 21 11  1  0
 16 12  1  6
 17 13  1  1
 18 14  1  6
 17 15  1  0
 15 21  1  0
 16 18  1  0
 17 18  1  0
 18 19  1  0
 20 22  1  0
M  END
$$$$
