
     RDKit          3D

 22 25  0  0  0  0  0  0  0  0999 V2000
   25.4448   57.6451   86.1262 O   0  0  0  0  0  0  0  0  0  0  0  0
   24.4374   55.5948   86.7701 C   0  0  2  0  0  0  0  0  0  0  0  0
   19.9677   55.2916   88.3344 O   0  0  0  0  0  0  0  0  0  0  0  0
   25.5327   56.3977   86.2297 C   0  0  0  0  0  0  0  0  0  0  0  0
   29.0628   54.8989   88.8538 C   0  0  0  0  0  0  0  0  0  0  0  0
   26.7292   55.7657   85.8083 N   0  0  0  0  0  0  0  0  0  0  0  0
   27.9513   56.5353   85.5626 C   0  0  0  0  0  0  0  0  0  0  0  0
   28.8894   56.3181   86.7163 C   0  0  2  0  0  0  0  0  0  0  0  0
   30.0968   55.4607   86.5324 C   0  0  0  0  0  0  0  0  0  0  0  0
   28.8902   54.9842   87.3415 C   0  0  1  0  0  0  0  0  0  0  0  0
   22.4970   55.0874   90.3295 C   0  0  0  0  0  0  0  0  0  0  0  0
   23.3884   55.1322   85.7335 C   0  0  0  0  0  0  0  0  0  0  0  0
   19.9406   56.6666   88.3068 C   0  0  0  0  0  0  0  0  0  0  0  0
   20.9578   54.9482   87.3869 C   0  0  0  0  0  0  0  0  0  0  0  0
   21.7853   57.7338   89.5383 C   0  0  0  0  0  0  0  0  0  0  0  0
   23.0287   56.0923   86.7624 C   0  0  1  0  0  0  0  0  0  0  0  0
   21.4084   57.0494   88.2856 C   0  0  1  0  0  0  0  0  0  0  0  0
   22.1109   55.8154   87.9239 C   0  0  1  0  0  0  0  0  0  0  0  0
   22.7452   55.0559   88.9336 N   0  0  0  0  0  0  0  0  0  0  0  0
   22.8125   54.1056   91.1065 N   0  0  0  0  0  0  0  0  0  0  0  0
   21.7162   56.5751   90.9589 S   0  0  0  0  0  0  0  0  0  0  0  0
   23.2483   54.2155   92.0259 H   0  0  0  0  0  0  0  0  0  0  0  0
  4  1  2  0
  2  4  1  6
 12  2  1  0
 16  2  1  0
  3 13  1  0
 14  3  1  0
  4  6  1  0
 10  5  1  1
  6  7  1  0
  8  7  1  6
  8  9  1  0
  8 10  1  0
 10  9  1  0
 11 19  1  0
 11 20  2  0
 21 11  1  0
 16 12  1  6
 17 13  1  1
 18 14  1  6
 17 15  1  0
 15 21  1  0
 16 18  1  0
 17 18  1  0
 18 19  1  0
 20 22  1  0
M  END
$$$$
