
     RDKit          3D

 22 25  0  0  0  0  0  0  0  0999 V2000
   21.0174   56.4925   85.5169 O   0  0  0  0  0  0  0  0  0  0  0  0
   20.4653   55.3853   87.5423 C   0  0  2  0  0  0  0  0  0  0  0  0
   19.2017   55.8070   91.7515 O   0  0  0  0  0  0  0  0  0  0  0  0
   21.1676   55.4967   86.2654 C   0  0  0  0  0  0  0  0  0  0  0  0
   26.6724   56.0480   86.2175 C   0  0  0  0  0  0  0  0  0  0  0  0
   22.0429   54.4625   85.8493 N   0  0  0  0  0  0  0  0  0  0  0  0
   23.3126   54.2165   86.5374 C   0  0  0  0  0  0  0  0  0  0  0  0
   24.1808   55.4330   86.3816 C   0  0  2  0  0  0  0  0  0  0  0  0
   24.3555   56.0452   85.0319 C   0  0  0  0  0  0  0  0  0  0  0  0
   25.4769   55.2530   85.7048 C   0  0  1  0  0  0  0  0  0  0  0  0
   22.4030   55.4589   91.5277 C   0  0  0  0  0  0  0  0  0  0  0  0
   19.2505   56.3263   87.7083 C   0  0  0  0  0  0  0  0  0  0  0  0
   19.2236   57.1823   91.7328 C   0  0  0  0  0  0  0  0  0  0  0  0
   19.2806   55.4434   90.3885 C   0  0  0  0  0  0  0  0  0  0  0  0
   21.4615   58.1479   91.3896 C   0  0  0  0  0  0  0  0  0  0  0  0
   20.4404   56.5152   88.5195 C   0  0  1  0  0  0  0  0  0  0  0  0
   20.3104   57.5055   90.7249 C   0  0  1  0  0  0  0  0  0  0  0  0
   20.5317   56.2518   89.9994 C   0  0  1  0  0  0  0  0  0  0  0  0
   21.6460   55.4464   90.3285 N   0  0  0  0  0  0  0  0  0  0  0  0
   23.1155   54.4493   91.9019 N   0  0  0  0  0  0  0  0  0  0  0  0
   22.3151   56.9638   92.5007 S   0  0  0  0  0  0  0  0  0  0  0  0
   24.1261   54.3727   91.7595 H   0  0  0  0  0  0  0  0  0  0  0  0
  4  1  2  0
  2  4  1  6
 12  2  1  0
 16  2  1  0
  3 13  1  0
 14  3  1  0
  4  6  1  0
 10  5  1  1
  6  7  1  0
  8  7  1  6
  8  9  1  0
  8 10  1  0
 10  9  1  0
 11 19  1  0
 11 20  2  0
 21 11  1  0
 16 12  1  1
 17 13  1  1
 18 14  1  1
 17 15  1  0
 15 21  1  0
 16 18  1  0
 17 18  1  0
 18 19  1  0
 20 22  1  0
M  END
$$$$
