
     RDKit          3D

 22 25  0  0  0  0  0  0  0  0999 V2000
   24.1574   57.5040   86.3226 O   0  0  0  0  0  0  0  0  0  0  0  0
   23.7614   55.7597   87.8825 C   0  0  2  0  0  0  0  0  0  0  0  0
   19.0221   55.3082   88.6457 O   0  0  0  0  0  0  0  0  0  0  0  0
   24.6210   56.5733   87.0250 C   0  0  0  0  0  0  0  0  0  0  0  0
   26.0457   55.9696   82.3632 C   0  0  0  0  0  0  0  0  0  0  0  0
   26.0138   56.3164   86.9754 N   0  0  0  0  0  0  0  0  0  0  0  0
   26.5659   55.2762   86.1040 C   0  0  0  0  0  0  0  0  0  0  0  0
   26.9154   55.8999   84.7823 C   0  0  2  0  0  0  0  0  0  0  0  0
   26.5601   57.3261   84.5240 C   0  0  0  0  0  0  0  0  0  0  0  0
   25.8054   56.1773   83.8542 C   0  0  1  0  0  0  0  0  0  0  0  0
   21.1812   54.7376   90.9763 C   0  0  0  0  0  0  0  0  0  0  0  0
   23.3552   54.3891   87.2948 C   0  0  0  0  0  0  0  0  0  0  0  0
   19.2676   56.6599   88.5756 C   0  0  0  0  0  0  0  0  0  0  0  0
   20.0410   54.7323   87.8543 C   0  0  0  0  0  0  0  0  0  0  0  0
   21.1087   57.4237   90.0197 C   0  0  0  0  0  0  0  0  0  0  0  0
   22.3586   55.4276   87.4901 C   0  0  1  0  0  0  0  0  0  0  0  0
   20.7719   56.7559   88.7468 C   0  0  1  0  0  0  0  0  0  0  0  0
   21.2612   55.3934   88.5208 C   0  0  1  0  0  0  0  0  0  0  0  0
   21.5982   54.5836   89.6296 N   0  0  0  0  0  0  0  0  0  0  0  0
   21.1952   53.7576   91.8170 N   0  0  0  0  0  0  0  0  0  0  0  0
   20.6305   56.3783   91.4493 S   0  0  0  0  0  0  0  0  0  0  0  0
   21.5339   53.8294   92.7801 H   0  0  0  0  0  0  0  0  0  0  0  0
  4  1  2  0
  2  4  1  6
 12  2  1  0
 16  2  1  0
  3 13  1  0
 14  3  1  0
  4  6  1  0
 10  5  1  6
  6  7  1  0
  8  7  1  1
  8  9  1  0
  8 10  1  0
 10  9  1  0
 11 19  1  0
 11 20  2  0
 21 11  1  0
 16 12  1  1
 17 13  1  1
 18 14  1  6
 17 15  1  0
 15 21  1  0
 16 18  1  0
 17 18  1  0
 18 19  1  0
 20 22  1  0
M  END
$$$$
