
     RDKit          3D

 22 25  0  0  0  0  0  0  0  0999 V2000
   25.4299   56.8897   85.1411 O   0  0  0  0  0  0  0  0  0  0  0  0
   24.2324   55.4692   86.6180 C   0  0  2  0  0  0  0  0  0  0  0  0
   19.9635   54.2237   87.9971 O   0  0  0  0  0  0  0  0  0  0  0  0
   25.2951   56.4198   86.2967 C   0  0  0  0  0  0  0  0  0  0  0  0
   28.7737   53.3616   86.6323 C   0  0  0  0  0  0  0  0  0  0  0  0
   26.2028   56.8301   87.3048 N   0  0  0  0  0  0  0  0  0  0  0  0
   27.6289   57.0063   87.0198 C   0  0  0  0  0  0  0  0  0  0  0  0
   28.3563   55.7637   87.4499 C   0  0  2  0  0  0  0  0  0  0  0  0
   29.8299   55.6620   87.2373 C   0  0  0  0  0  0  0  0  0  0  0  0
   28.8398   54.8648   86.3876 C   0  0  1  0  0  0  0  0  0  0  0  0
   22.3204   54.4955   90.1859 C   0  0  0  0  0  0  0  0  0  0  0  0
   23.1798   55.2597   85.5057 C   0  0  0  0  0  0  0  0  0  0  0  0
   19.5827   55.5441   88.0584 C   0  0  0  0  0  0  0  0  0  0  0  0
   21.0698   54.2254   87.1183 C   0  0  0  0  0  0  0  0  0  0  0  0
   21.0013   56.9333   89.5131 C   0  0  0  0  0  0  0  0  0  0  0  0
   22.8100   55.9061   86.7528 C   0  0  1  0  0  0  0  0  0  0  0  0
   20.8992   56.2865   88.1899 C   0  0  1  0  0  0  0  0  0  0  0  0
   21.9201   55.3067   87.8094 C   0  0  1  0  0  0  0  0  0  0  0  0
   22.6608   54.6485   88.8177 N   0  0  0  0  0  0  0  0  0  0  0  0
   22.8270   53.5623   90.9206 N   0  0  0  0  0  0  0  0  0  0  0  0
   21.1404   55.6768   90.8424 S   0  0  0  0  0  0  0  0  0  0  0  0
   23.4809   53.7264   91.6906 H   0  0  0  0  0  0  0  0  0  0  0  0
  4  1  2  0
  2  4  1  6
 12  2  1  0
 16  2  1  0
  3 13  1  0
 14  3  1  0
  4  6  1  0
 10  5  1  1
  6  7  1  0
  8  7  1  6
  8  9  1  0
  8 10  1  0
 10  9  1  0
 11 19  1  0
 11 20  2  0
 21 11  1  0
 16 12  1  6
 17 13  1  1
 18 14  1  6
 17 15  1  0
 15 21  1  0
 16 18  1  0
 17 18  1  0
 18 19  1  0
 20 22  1  0
M  END
$$$$
