
     RDKit          3D

 22 25  0  0  0  0  0  0  0  0999 V2000
   25.4489   57.7080   84.9896 O   0  0  0  0  0  0  0  0  0  0  0  0
   24.3567   56.0312   86.2658 C   0  0  2  0  0  0  0  0  0  0  0  0
   20.5306   54.3401   87.9676 O   0  0  0  0  0  0  0  0  0  0  0  0
   25.4606   56.9479   85.9879 C   0  0  0  0  0  0  0  0  0  0  0  0
   28.6936   52.7943   86.6737 C   0  0  0  0  0  0  0  0  0  0  0  0
   26.5782   56.9904   86.8585 N   0  0  0  0  0  0  0  0  0  0  0  0
   27.9026   56.5433   86.4200 C   0  0  0  0  0  0  0  0  0  0  0  0
   28.2457   55.2799   87.1577 C   0  0  2  0  0  0  0  0  0  0  0  0
   29.6549   55.0353   87.5836 C   0  0  0  0  0  0  0  0  0  0  0  0
   29.0208   54.2626   86.4266 C   0  0  1  0  0  0  0  0  0  0  0  0
   22.8704   54.8370   90.1351 C   0  0  0  0  0  0  0  0  0  0  0  0
   23.1060   56.2205   85.3777 C   0  0  0  0  0  0  0  0  0  0  0  0
   19.9512   55.5780   88.1226 C   0  0  0  0  0  0  0  0  0  0  0  0
   21.6010   54.5709   87.0748 C   0  0  0  0  0  0  0  0  0  0  0  0
   21.1728   57.0764   89.6461 C   0  0  0  0  0  0  0  0  0  0  0  0
   23.0499   56.5231   86.7972 C   0  0  1  0  0  0  0  0  0  0  0  0
   21.1394   56.5073   88.2843 C   0  0  1  0  0  0  0  0  0  0  0  0
   22.2902   55.7256   87.8243 C   0  0  1  0  0  0  0  0  0  0  0  0
   23.1489   55.1284   88.7754 N   0  0  0  0  0  0  0  0  0  0  0  0
   23.5338   53.9497   90.7983 N   0  0  0  0  0  0  0  0  0  0  0  0
   21.5381   55.7749   90.8863 S   0  0  0  0  0  0  0  0  0  0  0  0
   24.1293   54.1586   91.6039 H   0  0  0  0  0  0  0  0  0  0  0  0
  4  1  2  0
  2  4  1  6
 12  2  1  0
 16  2  1  0
  3 13  1  0
 14  3  1  0
  4  6  1  0
 10  5  1  1
  6  7  1  0
  8  7  1  6
  8  9  1  0
  8 10  1  0
 10  9  1  0
 11 19  1  0
 11 20  2  0
 21 11  1  0
 16 12  1  6
 17 13  1  1
 18 14  1  6
 17 15  1  0
 15 21  1  0
 16 18  1  0
 17 18  1  0
 18 19  1  0
 20 22  1  0
M  END
$$$$
