
     RDKit          3D

 22 25  0  0  0  0  0  0  0  0999 V2000
   25.2398   56.6071   85.0797 O   0  0  0  0  0  0  0  0  0  0  0  0
   24.0781   55.5989   86.8872 C   0  0  2  0  0  0  0  0  0  0  0  0
   19.6121   55.1964   88.4979 O   0  0  0  0  0  0  0  0  0  0  0  0
   25.1222   56.4493   86.3189 C   0  0  0  0  0  0  0  0  0  0  0  0
   29.9354   56.4757   85.2221 C   0  0  0  0  0  0  0  0  0  0  0  0
   26.0312   57.1182   87.1762 N   0  0  0  0  0  0  0  0  0  0  0  0
   27.1241   56.4002   87.8367 C   0  0  0  0  0  0  0  0  0  0  0  0
   28.0040   55.7969   86.7784 C   0  0  2  0  0  0  0  0  0  0  0  0
   29.1621   54.9460   87.1806 C   0  0  0  0  0  0  0  0  0  0  0  0
   29.3578   56.3581   86.6280 C   0  0  1  0  0  0  0  0  0  0  0  0
   22.1840   54.9245   90.4295 C   0  0  0  0  0  0  0  0  0  0  0  0
   23.0513   55.0508   85.8703 C   0  0  0  0  0  0  0  0  0  0  0  0
   19.5948   56.5718   88.5050 C   0  0  0  0  0  0  0  0  0  0  0  0
   20.5781   54.8698   87.5199 C   0  0  0  0  0  0  0  0  0  0  0  0
   21.4748   57.5948   89.7206 C   0  0  0  0  0  0  0  0  0  0  0  0
   22.6430   56.0146   86.8774 C   0  0  1  0  0  0  0  0  0  0  0  0
   21.0647   56.9446   88.4602 C   0  0  1  0  0  0  0  0  0  0  0  0
   21.7495   55.7152   88.0521 C   0  0  1  0  0  0  0  0  0  0  0  0
   22.4005   54.9262   89.0280 N   0  0  0  0  0  0  0  0  0  0  0  0
   22.5093   53.9214   91.1746 N   0  0  0  0  0  0  0  0  0  0  0  0
   21.4288   56.4015   91.1131 S   0  0  0  0  0  0  0  0  0  0  0  0
   22.7298   53.9917   92.1715 H   0  0  0  0  0  0  0  0  0  0  0  0
  4  1  2  0
  2  4  1  6
 12  2  1  0
 16  2  1  0
  3 13  1  0
 14  3  1  0
  4  6  1  0
 10  5  1  6
  6  7  1  0
  8  7  1  1
  8  9  1  0
  8 10  1  0
 10  9  1  0
 11 19  1  0
 11 20  2  0
 21 11  1  0
 16 12  1  6
 17 13  1  1
 18 14  1  6
 17 15  1  0
 15 21  1  0
 16 18  1  0
 17 18  1  0
 18 19  1  0
 20 22  1  0
M  END
$$$$
