
     RDKit          3D

 22 25  0  0  0  0  0  0  0  0999 V2000
   25.5306   57.5326   86.5523 O   0  0  0  0  0  0  0  0  0  0  0  0
   24.4867   55.4706   87.0923 C   0  0  2  0  0  0  0  0  0  0  0  0
   19.7917   55.0614   88.1495 O   0  0  0  0  0  0  0  0  0  0  0  0
   25.3845   56.3116   86.3030 C   0  0  0  0  0  0  0  0  0  0  0  0
   28.9192   57.3333   87.8412 C   0  0  0  0  0  0  0  0  0  0  0  0
   26.1143   55.7479   85.2268 N   0  0  0  0  0  0  0  0  0  0  0  0
   27.2346   54.8338   85.4622 C   0  0  0  0  0  0  0  0  0  0  0  0
   28.3958   55.6306   85.9865 C   0  0  2  0  0  0  0  0  0  0  0  0
   29.4055   54.9703   86.8647 C   0  0  0  0  0  0  0  0  0  0  0  0
   28.3885   55.9674   87.4206 C   0  0  1  0  0  0  0  0  0  0  0  0
   22.1307   54.6981   90.3442 C   0  0  0  0  0  0  0  0  0  0  0  0
   23.8734   54.2716   86.3339 C   0  0  0  0  0  0  0  0  0  0  0  0
   19.9398   56.4240   88.0328 C   0  0  0  0  0  0  0  0  0  0  0  0
   20.7940   54.5331   87.3055 C   0  0  0  0  0  0  0  0  0  0  0  0
   21.8144   57.3468   89.3340 C   0  0  0  0  0  0  0  0  0  0  0  0
   23.0307   55.3703   86.7728 C   0  0  1  0  0  0  0  0  0  0  0  0
   21.4421   56.6240   88.1017 C   0  0  1  0  0  0  0  0  0  0  0  0
   22.0071   55.2912   87.8746 C   0  0  1  0  0  0  0  0  0  0  0  0
   22.4692   54.5358   88.9765 N   0  0  0  0  0  0  0  0  0  0  0  0
   22.2654   53.7443   91.2040 N   0  0  0  0  0  0  0  0  0  0  0  0
   21.5016   56.3109   90.8154 S   0  0  0  0  0  0  0  0  0  0  0  0
   22.9180   53.7668   91.9920 H   0  0  0  0  0  0  0  0  0  0  0  0
  4  1  2  0
  2  4  1  6
 12  2  1  0
 16  2  1  0
  3 13  1  0
 14  3  1  0
  4  6  1  0
 10  5  1  6
  6  7  1  0
  8  7  1  1
  8  9  1  0
  8 10  1  0
 10  9  1  0
 11 19  1  0
 11 20  2  0
 21 11  1  0
 16 12  1  6
 17 13  1  1
 18 14  1  6
 17 15  1  0
 15 21  1  0
 16 18  1  0
 17 18  1  0
 18 19  1  0
 20 22  1  0
M  END
$$$$
