
     RDKit          3D

 22 25  0  0  0  0  0  0  0  0999 V2000
   24.4031   56.8302   85.6413 O   0  0  0  0  0  0  0  0  0  0  0  0
   23.1152   55.1568   86.7250 C   0  0  2  0  0  0  0  0  0  0  0  0
   19.2372   55.4819   89.2690 O   0  0  0  0  0  0  0  0  0  0  0  0
   24.3305   55.6596   86.0873 C   0  0  0  0  0  0  0  0  0  0  0  0
   29.7852   56.4882   87.2692 C   0  0  0  0  0  0  0  0  0  0  0  0
   25.4623   54.8158   85.9626 N   0  0  0  0  0  0  0  0  0  0  0  0
   26.4174   54.6552   87.0617 C   0  0  0  0  0  0  0  0  0  0  0  0
   27.2925   55.8757   87.1128 C   0  0  2  0  0  0  0  0  0  0  0  0
   27.6055   56.6108   85.8524 C   0  0  0  0  0  0  0  0  0  0  0  0
   28.6531   55.7522   86.5616 C   0  0  1  0  0  0  0  0  0  0  0  0
   22.0222   54.7517   90.7285 C   0  0  0  0  0  0  0  0  0  0  0  0
   21.8049   55.4373   85.9549 C   0  0  0  0  0  0  0  0  0  0  0  0
   19.3958   56.8445   89.3708 C   0  0  0  0  0  0  0  0  0  0  0  0
   19.9904   55.1326   88.1258 C   0  0  0  0  0  0  0  0  0  0  0  0
   21.5561   57.5368   90.3260 C   0  0  0  0  0  0  0  0  0  0  0  0
   22.0588   56.0846   87.2301 C   0  0  1  0  0  0  0  0  0  0  0  0
   20.8762   57.0491   89.1096 C   0  0  1  0  0  0  0  0  0  0  0  0
   21.3278   55.7892   88.5132 C   0  0  1  0  0  0  0  0  0  0  0  0
   22.0170   54.8496   89.3137 N   0  0  0  0  0  0  0  0  0  0  0  0
   22.3294   53.6574   91.3411 N   0  0  0  0  0  0  0  0  0  0  0  0
   21.5758   56.2408   91.6242 S   0  0  0  0  0  0  0  0  0  0  0  0
   23.2421   53.4709   91.7647 H   0  0  0  0  0  0  0  0  0  0  0  0
  4  1  2  0
  2  4  1  6
 12  2  1  0
 16  2  1  0
  3 13  1  0
 14  3  1  0
  4  6  1  0
 10  5  1  1
  6  7  1  0
  8  7  1  6
  8  9  1  0
  8 10  1  0
 10  9  1  0
 11 19  1  0
 11 20  2  0
 21 11  1  0
 16 12  1  6
 17 13  1  1
 18 14  1  6
 17 15  1  0
 15 21  1  0
 16 18  1  0
 17 18  1  0
 18 19  1  0
 20 22  1  0
M  END
$$$$
