
     RDKit          3D

 22 25  0  0  0  0  0  0  0  0999 V2000
   25.3540   57.4220   86.1626 O   0  0  0  0  0  0  0  0  0  0  0  0
   24.2913   55.3648   86.6840 C   0  0  2  0  0  0  0  0  0  0  0  0
   19.8184   55.1260   88.3005 O   0  0  0  0  0  0  0  0  0  0  0  0
   25.3630   56.1689   86.0998 C   0  0  0  0  0  0  0  0  0  0  0  0
   29.9587   54.0842   88.3638 C   0  0  0  0  0  0  0  0  0  0  0  0
   26.4451   55.5314   85.4432 N   0  0  0  0  0  0  0  0  0  0  0  0
   27.8337   55.8993   85.7304 C   0  0  0  0  0  0  0  0  0  0  0  0
   28.1655   55.4493   87.1252 C   0  0  2  0  0  0  0  0  0  0  0  0
   28.8136   56.4031   88.0724 C   0  0  0  0  0  0  0  0  0  0  0  0
   29.5886   55.2436   87.4458 C   0  0  1  0  0  0  0  0  0  0  0  0
   22.3798   54.8420   90.2443 C   0  0  0  0  0  0  0  0  0  0  0  0
   23.2462   54.8321   85.6776 C   0  0  0  0  0  0  0  0  0  0  0  0
   19.8346   56.5012   88.2720 C   0  0  0  0  0  0  0  0  0  0  0  0
   20.7777   54.7507   87.3335 C   0  0  0  0  0  0  0  0  0  0  0  0
   21.7370   57.5094   89.4648 C   0  0  0  0  0  0  0  0  0  0  0  0
   22.8709   55.8279   86.6661 C   0  0  1  0  0  0  0  0  0  0  0  0
   21.3132   56.8368   88.2207 C   0  0  1  0  0  0  0  0  0  0  0  0
   21.9685   55.5810   87.8462 C   0  0  1  0  0  0  0  0  0  0  0  0
   22.5986   54.8020   88.8436 N   0  0  0  0  0  0  0  0  0  0  0  0
   22.6795   53.8510   91.0158 N   0  0  0  0  0  0  0  0  0  0  0  0
   21.6597   56.3541   90.8877 S   0  0  0  0  0  0  0  0  0  0  0  0
   23.3491   53.9038   91.7879 H   0  0  0  0  0  0  0  0  0  0  0  0
  4  1  2  0
  2  4  1  6
 12  2  1  0
 16  2  1  0
  3 13  1  0
 14  3  1  0
  4  6  1  0
 10  5  1  1
  6  7  1  0
  8  7  1  6
  8  9  1  0
  8 10  1  0
 10  9  1  0
 11 19  1  0
 11 20  2  0
 21 11  1  0
 16 12  1  6
 17 13  1  1
 18 14  1  6
 17 15  1  0
 15 21  1  0
 16 18  1  0
 17 18  1  0
 18 19  1  0
 20 22  1  0
M  END
$$$$
