
     RDKit          3D

 22 25  0  0  0  0  0  0  0  0999 V2000
   24.4659   56.7057   84.5233 O   0  0  0  0  0  0  0  0  0  0  0  0
   22.8139   55.6450   85.8572 C   0  0  2  0  0  0  0  0  0  0  0  0
   19.4942   55.1716   88.4834 O   0  0  0  0  0  0  0  0  0  0  0  0
   24.1403   55.7359   85.2498 C   0  0  0  0  0  0  0  0  0  0  0  0
   27.9752   56.9149   87.5080 C   0  0  0  0  0  0  0  0  0  0  0  0
   25.0922   54.7110   85.4782 N   0  0  0  0  0  0  0  0  0  0  0  0
   26.3881   54.7091   84.7949 C   0  0  0  0  0  0  0  0  0  0  0  0
   27.4516   55.0719   85.7927 C   0  0  2  0  0  0  0  0  0  0  0  0
   27.4803   54.3895   87.1194 C   0  0  0  0  0  0  0  0  0  0  0  0
   27.0307   55.8436   86.9748 C   0  0  1  0  0  0  0  0  0  0  0  0
   22.1022   54.7633   90.3411 C   0  0  0  0  0  0  0  0  0  0  0  0
   21.9473   56.9191   85.7364 C   0  0  0  0  0  0  0  0  0  0  0  0
   19.3746   56.5196   88.7298 C   0  0  0  0  0  0  0  0  0  0  0  0
   20.4700   55.0937   87.4646 C   0  0  0  0  0  0  0  0  0  0  0  0
   21.1876   57.4549   90.1071 C   0  0  0  0  0  0  0  0  0  0  0  0
   22.4360   56.4851   87.0335 C   0  0  1  0  0  0  0  0  0  0  0  0
   20.8119   57.0044   88.7522 C   0  0  1  0  0  0  0  0  0  0  0  0
   21.5815   55.9197   88.1371 C   0  0  1  0  0  0  0  0  0  0  0  0
   22.3011   55.0247   88.9615 N   0  0  0  0  0  0  0  0  0  0  0  0
   22.5103   53.6735   90.9006 N   0  0  0  0  0  0  0  0  0  0  0  0
   21.2473   56.0378   91.2706 S   0  0  0  0  0  0  0  0  0  0  0  0
   23.3689   53.5954   91.4519 H   0  0  0  0  0  0  0  0  0  0  0  0
  4  1  2  0
  2  4  1  6
 12  2  1  0
 16  2  1  0
  3 13  1  0
 14  3  1  0
  4  6  1  0
 10  5  1  1
  6  7  1  0
  8  7  1  6
  8  9  1  0
  8 10  1  0
 10  9  1  0
 11 19  1  0
 11 20  2  0
 21 11  1  0
 16 12  1  6
 17 13  1  1
 18 14  1  6
 17 15  1  0
 15 21  1  0
 16 18  1  0
 17 18  1  0
 18 19  1  0
 20 22  1  0
M  END
$$$$
