
     RDKit          3D

 22 25  0  0  0  0  0  0  0  0999 V2000
   25.0529   57.0778   85.0791 O   0  0  0  0  0  0  0  0  0  0  0  0
   24.1128   55.7395   86.7992 C   0  0  2  0  0  0  0  0  0  0  0  0
   19.6319   55.0906   88.3332 O   0  0  0  0  0  0  0  0  0  0  0  0
   25.1020   56.6744   86.2663 C   0  0  0  0  0  0  0  0  0  0  0  0
   28.6917   53.9228   87.5126 C   0  0  0  0  0  0  0  0  0  0  0  0
   26.1476   57.1454   87.0990 N   0  0  0  0  0  0  0  0  0  0  0  0
   27.4775   57.4389   86.5594 C   0  0  0  0  0  0  0  0  0  0  0  0
   28.4540   56.4565   87.1421 C   0  0  2  0  0  0  0  0  0  0  0  0
   29.6475   56.0444   86.3468 C   0  0  0  0  0  0  0  0  0  0  0  0
   28.4665   55.0993   86.5695 C   0  0  1  0  0  0  0  0  0  0  0  0
   22.2079   54.7240   90.2436 C   0  0  0  0  0  0  0  0  0  0  0  0
   23.1459   55.1392   85.7534 C   0  0  0  0  0  0  0  0  0  0  0  0
   19.5978   56.4623   88.4307 C   0  0  0  0  0  0  0  0  0  0  0  0
   20.6013   54.8408   87.3362 C   0  0  0  0  0  0  0  0  0  0  0  0
   21.4658   57.4262   89.7114 C   0  0  0  0  0  0  0  0  0  0  0  0
   22.6518   56.0505   86.7709 C   0  0  1  0  0  0  0  0  0  0  0  0
   21.0630   56.8552   88.4108 C   0  0  1  0  0  0  0  0  0  0  0  0
   21.7626   55.6637   87.9231 C   0  0  1  0  0  0  0  0  0  0  0  0
   22.4237   54.8204   88.8452 N   0  0  0  0  0  0  0  0  0  0  0  0
   22.5459   53.6782   90.9213 N   0  0  0  0  0  0  0  0  0  0  0  0
   21.4351   56.1435   91.0225 S   0  0  0  0  0  0  0  0  0  0  0  0
   23.2660   53.6707   91.6484 H   0  0  0  0  0  0  0  0  0  0  0  0
  4  1  2  0
  2  4  1  6
 12  2  1  0
 16  2  1  0
  3 13  1  0
 14  3  1  0
  4  6  1  0
 10  5  1  1
  6  7  1  0
  8  7  1  6
  8  9  1  0
  8 10  1  0
 10  9  1  0
 11 19  1  0
 11 20  2  0
 21 11  1  0
 16 12  1  6
 17 13  1  1
 18 14  1  6
 17 15  1  0
 15 21  1  0
 16 18  1  0
 17 18  1  0
 18 19  1  0
 20 22  1  0
M  END
$$$$
