
     RDKit          3D

 22 25  0  0  0  0  0  0  0  0999 V2000
   25.7944   56.3619   84.9225 O   0  0  0  0  0  0  0  0  0  0  0  0
   24.1860   55.5522   86.4686 C   0  0  2  0  0  0  0  0  0  0  0  0
   20.0148   54.8744   88.2622 O   0  0  0  0  0  0  0  0  0  0  0  0
   25.4086   56.2698   86.1129 C   0  0  0  0  0  0  0  0  0  0  0  0
   29.1884   53.6233   86.5968 C   0  0  0  0  0  0  0  0  0  0  0  0
   26.1875   56.8816   87.1266 N   0  0  0  0  0  0  0  0  0  0  0  0
   27.6234   57.1121   86.9491 C   0  0  0  0  0  0  0  0  0  0  0  0
   28.3638   55.9045   87.4508 C   0  0  2  0  0  0  0  0  0  0  0  0
   29.8512   55.9470   87.5637 C   0  0  0  0  0  0  0  0  0  0  0  0
   29.1525   55.1419   86.4676 C   0  0  1  0  0  0  0  0  0  0  0  0
   22.5297   54.7761   90.2834 C   0  0  0  0  0  0  0  0  0  0  0  0
   22.9900   55.7798   85.5165 C   0  0  0  0  0  0  0  0  0  0  0  0
   19.7952   56.2252   88.4009 C   0  0  0  0  0  0  0  0  0  0  0  0
   21.0519   54.7912   87.3063 C   0  0  0  0  0  0  0  0  0  0  0  0
   21.4607   57.3762   89.8009 C   0  0  0  0  0  0  0  0  0  0  0  0
   22.9471   56.2789   86.8799 C   0  0  1  0  0  0  0  0  0  0  0  0
   21.1949   56.8067   88.4650 C   0  0  1  0  0  0  0  0  0  0  0  0
   22.0669   55.7361   87.9747 C   0  0  1  0  0  0  0  0  0  0  0  0
   22.7924   54.9524   88.9010 N   0  0  0  0  0  0  0  0  0  0  0  0
   22.9728   53.7587   90.9435 N   0  0  0  0  0  0  0  0  0  0  0  0
   21.5421   56.0521   91.0680 S   0  0  0  0  0  0  0  0  0  0  0  0
   22.6335   53.4793   91.8677 H   0  0  0  0  0  0  0  0  0  0  0  0
  4  1  2  0
  2  4  1  6
 12  2  1  0
 16  2  1  0
  3 13  1  0
 14  3  1  0
  4  6  1  0
 10  5  1  1
  6  7  1  0
  8  7  1  6
  8  9  1  0
  8 10  1  0
 10  9  1  0
 11 19  1  0
 11 20  2  0
 21 11  1  0
 16 12  1  6
 17 13  1  1
 18 14  1  6
 17 15  1  0
 15 21  1  0
 16 18  1  0
 17 18  1  0
 18 19  1  0
 20 22  1  0
M  END
$$$$
