
     RDKit          3D

 22 25  0  0  0  0  0  0  0  0999 V2000
   24.8660   57.3753   85.3966 O   0  0  0  0  0  0  0  0  0  0  0  0
   23.8132   55.4084   86.2067 C   0  0  2  0  0  0  0  0  0  0  0  0
   19.5849   55.2349   88.2730 O   0  0  0  0  0  0  0  0  0  0  0  0
   24.9319   56.1419   85.6177 C   0  0  0  0  0  0  0  0  0  0  0  0
   29.9438   55.7415   88.1109 C   0  0  0  0  0  0  0  0  0  0  0  0
   26.1264   55.4566   85.2831 N   0  0  0  0  0  0  0  0  0  0  0  0
   27.4172   56.1486   85.2480 C   0  0  0  0  0  0  0  0  0  0  0  0
   28.3924   55.3778   86.0925 C   0  0  2  0  0  0  0  0  0  0  0  0
   27.8835   54.4672   87.1596 C   0  0  0  0  0  0  0  0  0  0  0  0
   28.5507   55.8015   87.4945 C   0  0  1  0  0  0  0  0  0  0  0  0
   22.2945   54.9189   89.9985 C   0  0  0  0  0  0  0  0  0  0  0  0
   22.5994   55.2006   85.2729 C   0  0  0  0  0  0  0  0  0  0  0  0
   19.5776   56.6101   88.3018 C   0  0  0  0  0  0  0  0  0  0  0  0
   20.4713   54.9178   87.2195 C   0  0  0  0  0  0  0  0  0  0  0  0
   21.5518   57.6037   89.3854 C   0  0  0  0  0  0  0  0  0  0  0  0
   22.4891   56.0604   86.4383 C   0  0  1  0  0  0  0  0  0  0  0  0
   21.0423   56.9752   88.1504 C   0  0  1  0  0  0  0  0  0  0  0  0
   21.6856   55.7483   87.6731 C   0  0  1  0  0  0  0  0  0  0  0  0
   22.4037   54.9408   88.5847 N   0  0  0  0  0  0  0  0  0  0  0  0
   22.6689   53.9027   90.7017 N   0  0  0  0  0  0  0  0  0  0  0  0
   21.6038   56.3895   90.7596 S   0  0  0  0  0  0  0  0  0  0  0  0
   23.2854   53.9614   91.5164 H   0  0  0  0  0  0  0  0  0  0  0  0
  4  1  2  0
  2  4  1  6
 12  2  1  0
 16  2  1  0
  3 13  1  0
 14  3  1  0
  4  6  1  0
 10  5  1  1
  6  7  1  0
  8  7  1  6
  8  9  1  0
  8 10  1  0
 10  9  1  0
 11 19  1  0
 11 20  2  0
 21 11  1  0
 16 12  1  6
 17 13  1  1
 18 14  1  6
 17 15  1  0
 15 21  1  0
 16 18  1  0
 17 18  1  0
 18 19  1  0
 20 22  1  0
M  END
$$$$
