
     RDKit          3D

 23 26  0  0  0  0  0  0  0  0999 V2000
   34.7704   -1.8582   35.2819 C   0  0  0  0  0  0  0  0  0  0  0  0
   32.9075   -1.8758   36.5810 C   0  0  0  0  0  0  0  0  0  0  0  0
   30.8476   -1.4840   37.8678 C   0  0  0  0  0  0  0  0  0  0  0  0
   27.6690   -0.1011   35.4504 C   0  0  0  0  0  0  0  0  0  0  0  0
   28.2723    0.7590   36.3417 C   0  0  0  0  0  0  0  0  0  0  0  0
   28.5958    2.3450   37.9260 C   0  0  0  0  0  0  0  0  0  0  0  0
   29.3141    0.3200   37.1388 C   0  0  0  0  0  0  0  0  0  0  0  0
   35.0170   -0.5922   35.7401 C   0  0  0  0  0  0  0  0  0  0  0  0
   36.0971    0.3587   35.4580 C   0  0  0  0  0  0  0  0  0  0  0  0
   36.9405    0.5097   34.4031 C   0  0  0  0  0  0  0  0  0  0  0  0
   37.7844    1.5612   34.6230 C   0  0  0  0  0  0  0  0  0  0  0  0
   38.0761    3.1900   36.4923 C   0  0  0  0  0  0  0  0  0  0  0  0
   37.4382    2.0482   35.8336 N   0  0  0  0  0  0  0  0  0  0  0  0
   36.4397    1.3366   36.3276 N   0  0  0  0  0  0  0  0  0  0  0  0
   33.6651   -0.3645   36.8027 S   0  0  0  0  0  0  0  0  0  0  0  0
   33.7120   -2.4674   35.7212 N   0  0  0  0  0  0  0  0  0  0  0  0
   35.7162   -2.5188   34.2907 C   0  0  0  0  0  0  0  0  0  0  0  0
   31.7032   -2.3939   37.1701 N   0  0  0  0  0  0  0  0  0  0  0  0
   29.7435   -0.9838   37.0346 C   0  0  0  0  0  0  0  0  0  0  0  0
   29.1198   -1.8167   36.1350 C   0  0  0  0  0  0  0  0  0  0  0  0
   28.0281    2.1145   36.6378 O   0  0  0  0  0  0  0  0  0  0  0  0
   29.6893    1.4173   37.9096 O   0  0  0  0  0  0  0  0  0  0  0  0
   28.0813   -1.4301   35.3206 C   0  0  0  0  0  0  0  0  0  0  0  0
  1  8  2  0
 16  1  1  0
  1 17  1  0
  2 15  1  0
  2 16  2  0
 18  2  1  0
  3 18  1  0
 19  3  1  0
  5  4  2  0
  4 23  1  0
  7  5  1  0
  5 21  1  0
 21  6  1  0
  6 22  1  0
 19  7  2  0
  7 22  1  0
  8  9  1  0
 15  8  1  0
  9 10  1  0
  9 14  2  0
 10 11  2  0
 11 13  1  0
 13 12  1  0
 14 13  1  0
 19 20  1  0
 20 23  2  0
M  END
$$$$
