
     RDKit          3D

 23 26  0  0  0  0  0  0  0  0999 V2000
   35.4403   -2.3158   35.4582 C   0  0  0  0  0  0  0  0  0  0  0  0
   33.5332   -1.7053   36.4657 C   0  0  0  0  0  0  0  0  0  0  0  0
   31.4405   -0.4857   36.4249 C   0  0  0  0  0  0  0  0  0  0  0  0
   27.2956   -1.2718   35.9148 C   0  0  0  0  0  0  0  0  0  0  0  0
   27.7154   -0.1293   36.5672 C   0  0  0  0  0  0  0  0  0  0  0  0
   27.8927    1.7559   37.7870 C   0  0  0  0  0  0  0  0  0  0  0  0
   29.0682    0.0912   36.7090 C   0  0  0  0  0  0  0  0  0  0  0  0
   35.9624   -1.0999   35.5823 C   0  0  0  0  0  0  0  0  0  0  0  0
   37.2517   -0.4671   35.2024 C   0  0  0  0  0  0  0  0  0  0  0  0
   37.8245   -0.3827   33.9648 C   0  0  0  0  0  0  0  0  0  0  0  0
   39.0305    0.2960   34.0695 C   0  0  0  0  0  0  0  0  0  0  0  0
   40.2474    1.3157   36.0032 C   0  0  0  0  0  0  0  0  0  0  0  0
   39.1502    0.6015   35.3759 N   0  0  0  0  0  0  0  0  0  0  0  0
   38.1020    0.1533   36.0500 N   0  0  0  0  0  0  0  0  0  0  0  0
   34.6556   -0.1538   36.4265 S   0  0  0  0  0  0  0  0  0  0  0  0
   34.2103   -2.4629   35.9515 N   0  0  0  0  0  0  0  0  0  0  0  0
   36.1920   -3.4527   34.8081 C   0  0  0  0  0  0  0  0  0  0  0  0
   32.2205   -1.4750   37.0943 N   0  0  0  0  0  0  0  0  0  0  0  0
   30.0326   -0.7795   36.2286 C   0  0  0  0  0  0  0  0  0  0  0  0
   29.5970   -1.9101   35.5826 C   0  0  0  0  0  0  0  0  0  0  0  0
   26.9740    0.9122   37.1491 O   0  0  0  0  0  0  0  0  0  0  0  0
   29.1889    1.2873   37.3887 O   0  0  0  0  0  0  0  0  0  0  0  0
   28.2233   -2.1508   35.4294 C   0  0  0  0  0  0  0  0  0  0  0  0
  1  8  2  0
 16  1  1  0
 17  1  1  6
  2 15  1  0
  2 16  2  0
 18  2  1  0
  3 18  1  1
 19  3  1  0
  5  4  2  0
  4 23  1  0
  7  5  1  0
  5 21  1  0
  6 21  1  1
  6 22  1  0
 19  7  2  0
  7 22  1  0
  8  9  1  0
 15  8  1  0
  9 10  1  0
  9 14  2  0
 10 11  2  0
 11 13  1  0
 12 13  1  6
 14 13  1  0
 19 20  1  0
 20 23  2  0
M  END
$$$$
