
     RDKit          3D

 23 26  0  0  0  0  0  0  0  0999 V2000
   34.8267   -1.3973   35.3071 C   0  0  0  0  0  0  0  0  0  0  0  0
   32.9940   -1.1776   36.5791 C   0  0  0  0  0  0  0  0  0  0  0  0
   30.6816   -1.8934   36.6729 C   0  0  0  0  0  0  0  0  0  0  0  0
   27.4460    0.4885   35.2889 C   0  0  0  0  0  0  0  0  0  0  0  0
   28.4150    1.0335   36.1082 C   0  0  0  0  0  0  0  0  0  0  0  0
   29.6402    2.3139   37.4985 C   0  0  0  0  0  0  0  0  0  0  0  0
   29.4500    0.2291   36.5327 C   0  0  0  0  0  0  0  0  0  0  0  0
   35.3443   -0.2582   35.7553 C   0  0  0  0  0  0  0  0  0  0  0  0
   36.5953    0.5002   35.4963 C   0  0  0  0  0  0  0  0  0  0  0  0
   37.3531    0.5263   34.3597 C   0  0  0  0  0  0  0  0  0  0  0  0
   38.4360    1.3716   34.5570 C   0  0  0  0  0  0  0  0  0  0  0  0
   39.1833    2.7546   36.5034 C   0  0  0  0  0  0  0  0  0  0  0  0
   38.2985    1.8320   35.8153 N   0  0  0  0  0  0  0  0  0  0  0  0
   37.2125    1.3206   36.3750 N   0  0  0  0  0  0  0  0  0  0  0  0
   34.0947    0.3497   36.9318 S   0  0  0  0  0  0  0  0  0  0  0  0
   33.6385   -1.7246   35.8160 N   0  0  0  0  0  0  0  0  0  0  0  0
   35.5392   -2.2630   34.2957 C   0  0  0  0  0  0  0  0  0  0  0  0
   31.7296   -1.1880   37.3357 N   0  0  0  0  0  0  0  0  0  0  0  0
   29.5679   -1.1048   36.1780 C   0  0  0  0  0  0  0  0  0  0  0  0
   28.5957   -1.6297   35.3628 C   0  0  0  0  0  0  0  0  0  0  0  0
   28.5484    2.3344   36.6209 O   0  0  0  0  0  0  0  0  0  0  0  0
   30.2517    1.0277   37.3244 O   0  0  0  0  0  0  0  0  0  0  0  0
   27.5345   -0.8252   34.9214 C   0  0  0  0  0  0  0  0  0  0  0  0
  1  8  2  0
 16  1  1  0
 17  1  1  6
  2 15  1  0
  2 16  2  0
 18  2  1  0
  3 18  1  1
 19  3  1  0
  5  4  2  0
  4 23  1  0
  7  5  1  0
  5 21  1  0
  6 21  1  1
  6 22  1  0
 19  7  2  0
  7 22  1  0
  8  9  1  0
 15  8  1  0
  9 10  1  0
  9 14  2  0
 10 11  2  0
 11 13  1  0
 12 13  1  6
 14 13  1  0
 19 20  1  0
 20 23  2  0
M  END
$$$$
