
     RDKit          3D

 23 26  0  0  0  0  0  0  0  0999 V2000
   34.9265   -0.1976   36.7133 C   0  0  0  0  0  0  0  0  0  0  0  0
   33.0805   -1.4516   36.5005 C   0  0  0  0  0  0  0  0  0  0  0  0
   30.9227   -1.7877   37.5489 C   0  0  0  0  0  0  0  0  0  0  0  0
   28.5968    1.6642   36.6928 C   0  0  0  0  0  0  0  0  0  0  0  0
   28.1699    0.4151   36.2869 C   0  0  0  0  0  0  0  0  0  0  0  0
   27.1404   -1.3403   35.3215 C   0  0  0  0  0  0  0  0  0  0  0  0
   28.9507   -0.6798   36.5870 C   0  0  0  0  0  0  0  0  0  0  0  0
   35.3895   -0.5755   35.5261 C   0  0  0  0  0  0  0  0  0  0  0  0
   36.6062   -0.2734   34.7291 C   0  0  0  0  0  0  0  0  0  0  0  0
   37.3442    0.8763   34.7081 C   0  0  0  0  0  0  0  0  0  0  0  0
   38.3992    0.7208   33.8198 C   0  0  0  0  0  0  0  0  0  0  0  0
   39.1248   -1.1721   32.3535 C   0  0  0  0  0  0  0  0  0  0  0  0
   38.2642   -0.5258   33.3277 N   0  0  0  0  0  0  0  0  0  0  0  0
   37.2067   -1.1179   33.8616 N   0  0  0  0  0  0  0  0  0  0  0  0
   34.1076   -1.7095   34.9046 S   0  0  0  0  0  0  0  0  0  0  0  0
   33.7525   -0.7243   37.0631 N   0  0  0  0  0  0  0  0  0  0  0  0
   35.6767    0.7665   37.6008 C   0  0  0  0  0  0  0  0  0  0  0  0
   31.8234   -2.2196   36.5304 N   0  0  0  0  0  0  0  0  0  0  0  0
   30.1481   -0.5903   37.2780 C   0  0  0  0  0  0  0  0  0  0  0  0
   30.5568    0.6592   37.6739 C   0  0  0  0  0  0  0  0  0  0  0  0
   27.0178    0.0309   35.5811 O   0  0  0  0  0  0  0  0  0  0  0  0
   28.2875   -1.7735   36.0665 O   0  0  0  0  0  0  0  0  0  0  0  0
   29.7744    1.7851   37.3765 C   0  0  0  0  0  0  0  0  0  0  0  0
  1  8  2  0
 16  1  1  0
 17  1  1  6
  2 15  1  0
  2 16  2  0
 18  2  1  0
  3 18  1  1
 19  3  1  0
  5  4  2  0
  4 23  1  0
  7  5  1  0
  5 21  1  0
  6 21  1  1
  6 22  1  0
 19  7  2  0
  7 22  1  0
  8  9  1  0
 15  8  1  0
  9 10  1  0
  9 14  2  0
 10 11  2  0
 11 13  1  0
 12 13  1  6
 14 13  1  0
 19 20  1  0
 20 23  2  0
M  END
$$$$
