
     RDKit          3D

 23 26  0  0  0  0  0  0  0  0999 V2000
   35.1144   -1.5181   36.0223 C   0  0  0  0  0  0  0  0  0  0  0  0
   32.9436   -1.8419   36.6061 C   0  0  0  0  0  0  0  0  0  0  0  0
   30.5432   -2.3215   36.3594 C   0  0  0  0  0  0  0  0  0  0  0  0
   28.5562    1.1080   37.8256 C   0  0  0  0  0  0  0  0  0  0  0  0
   28.1373    0.5281   36.6481 C   0  0  0  0  0  0  0  0  0  0  0  0
   27.4212    0.2469   34.5178 C   0  0  0  0  0  0  0  0  0  0  0  0
   28.7782   -0.5950   36.1568 C   0  0  0  0  0  0  0  0  0  0  0  0
   34.8071   -0.2022   35.8041 C   0  0  0  0  0  0  0  0  0  0  0  0
   35.6223    0.9339   35.3624 C   0  0  0  0  0  0  0  0  0  0  0  0
   35.3861    2.2710   35.3040 C   0  0  0  0  0  0  0  0  0  0  0  0
   36.4804    2.9201   34.8068 C   0  0  0  0  0  0  0  0  0  0  0  0
   38.7290    2.1761   34.0179 C   0  0  0  0  0  0  0  0  0  0  0  0
   37.3886    1.9515   34.5633 N   0  0  0  0  0  0  0  0  0  0  0  0
   36.8808    0.7761   34.8921 N   0  0  0  0  0  0  0  0  0  0  0  0
   33.1186   -0.1950   36.2009 S   0  0  0  0  0  0  0  0  0  0  0  0
   34.1630   -2.3057   36.4208 N   0  0  0  0  0  0  0  0  0  0  0  0
   36.5307   -2.0273   35.8023 C   0  0  0  0  0  0  0  0  0  0  0  0
   31.7778   -2.5610   37.0415 N   0  0  0  0  0  0  0  0  0  0  0  0
   29.8385   -1.1289   36.8538 C   0  0  0  0  0  0  0  0  0  0  0  0
   30.2316   -0.5259   38.0259 C   0  0  0  0  0  0  0  0  0  0  0  0
   27.0991    0.8707   35.7597 O   0  0  0  0  0  0  0  0  0  0  0  0
   28.1188   -0.9200   34.9742 O   0  0  0  0  0  0  0  0  0  0  0  0
   29.6289    0.5904   38.5568 C   0  0  0  0  0  0  0  0  0  0  0  0
  1  8  2  0
 16  1  1  0
  1 17  1  0
  2 15  1  0
  2 16  2  0
 18  2  1  0
  3 18  1  0
 19  3  1  0
  5  4  2  0
  4 23  1  0
  7  5  1  0
  5 21  1  0
 21  6  1  0
  6 22  1  0
 19  7  2  0
  7 22  1  0
  8  9  1  0
 15  8  1  0
  9 10  1  0
  9 14  2  0
 10 11  2  0
 11 13  1  0
 13 12  1  0
 14 13  1  0
 19 20  1  0
 20 23  2  0
M  END
$$$$
