
     RDKit          3D

 23 26  0  0  0  0  0  0  0  0999 V2000
   35.7742    0.4692   35.9703 C   0  0  0  0  0  0  0  0  0  0  0  0
   33.6629   -0.2100   36.4596 C   0  0  0  0  0  0  0  0  0  0  0  0
   31.4662   -1.2641   36.7997 C   0  0  0  0  0  0  0  0  0  0  0  0
   27.4559   -0.5376   35.6821 C   0  0  0  0  0  0  0  0  0  0  0  0
   28.1505    0.4184   36.3904 C   0  0  0  0  0  0  0  0  0  0  0  0
   28.6843    2.0198   37.9006 C   0  0  0  0  0  0  0  0  0  0  0  0
   29.4639    0.1942   36.7624 C   0  0  0  0  0  0  0  0  0  0  0  0
   36.1028   -0.8477   35.7926 C   0  0  0  0  0  0  0  0  0  0  0  0
   37.3622   -1.5018   35.4234 C   0  0  0  0  0  0  0  0  0  0  0  0
   38.4733   -1.0639   34.7748 C   0  0  0  0  0  0  0  0  0  0  0  0
   39.3876   -2.0738   34.6746 C   0  0  0  0  0  0  0  0  0  0  0  0
   39.4259   -4.4588   35.4113 C   0  0  0  0  0  0  0  0  0  0  0  0
   38.8113   -3.1365   35.2755 N   0  0  0  0  0  0  0  0  0  0  0  0
   37.6128   -2.7979   35.7186 N   0  0  0  0  0  0  0  0  0  0  0  0
   34.5800   -1.6081   36.1262 S   0  0  0  0  0  0  0  0  0  0  0  0
   34.5514    0.7503   36.3019 N   0  0  0  0  0  0  0  0  0  0  0  0
   36.8188    1.5583   35.7802 C   0  0  0  0  0  0  0  0  0  0  0  0
   32.2771   -0.0857   36.8201 N   0  0  0  0  0  0  0  0  0  0  0  0
   30.0716   -0.9924   36.4192 C   0  0  0  0  0  0  0  0  0  0  0  0
   29.3502   -1.9259   35.7119 C   0  0  0  0  0  0  0  0  0  0  0  0
   27.7685    1.6915   36.8572 O   0  0  0  0  0  0  0  0  0  0  0  0
   29.8625    1.3367   37.4513 O   0  0  0  0  0  0  0  0  0  0  0  0
   28.0441   -1.7521   35.3184 C   0  0  0  0  0  0  0  0  0  0  0  0
  1  8  2  0
 16  1  1  0
  1 17  1  0
  2 15  1  0
  2 16  2  0
 18  2  1  0
  3 18  1  0
 19  3  1  0
  5  4  2  0
  4 23  1  0
  7  5  1  0
  5 21  1  0
 21  6  1  0
  6 22  1  0
 19  7  2  0
  7 22  1  0
  8  9  1  0
 15  8  1  0
  9 10  1  0
  9 14  2  0
 10 11  2  0
 11 13  1  0
 13 12  1  0
 14 13  1  0
 19 20  1  0
 20 23  2  0
M  END
$$$$
