
     RDKit          3D

 23 26  0  0  0  0  0  0  0  0999 V2000
   34.3441    0.3983   36.4393 C   0  0  0  0  0  0  0  0  0  0  0  0
   32.8670   -1.3175   36.2585 C   0  0  0  0  0  0  0  0  0  0  0  0
   30.7001   -1.6207   37.3833 C   0  0  0  0  0  0  0  0  0  0  0  0
   28.1643    1.5777   36.2882 C   0  0  0  0  0  0  0  0  0  0  0  0
   27.7546    0.2793   36.0771 C   0  0  0  0  0  0  0  0  0  0  0  0
   26.8773   -1.5769   35.1206 C   0  0  0  0  0  0  0  0  0  0  0  0
   28.5742   -0.7773   36.4311 C   0  0  0  0  0  0  0  0  0  0  0  0
   35.3096   -0.4495   35.9675 C   0  0  0  0  0  0  0  0  0  0  0  0
   36.7386   -0.2555   35.7016 C   0  0  0  0  0  0  0  0  0  0  0  0
   37.5244    0.8520   35.6464 C   0  0  0  0  0  0  0  0  0  0  0  0
   38.8122    0.5005   35.3567 C   0  0  0  0  0  0  0  0  0  0  0  0
   39.9624   -1.6731   34.9266 C   0  0  0  0  0  0  0  0  0  0  0  0
   38.7956   -0.8441   35.2364 N   0  0  0  0  0  0  0  0  0  0  0  0
   37.5686   -1.2914   35.4406 N   0  0  0  0  0  0  0  0  0  0  0  0
   34.3842   -1.8990   35.7420 S   0  0  0  0  0  0  0  0  0  0  0  0
   33.1398   -0.0668   36.5717 N   0  0  0  0  0  0  0  0  0  0  0  0
   34.6854    1.8380   36.7919 C   0  0  0  0  0  0  0  0  0  0  0  0
   31.6027   -1.9964   36.3389 N   0  0  0  0  0  0  0  0  0  0  0  0
   29.8031   -0.5211   36.9962 C   0  0  0  0  0  0  0  0  0  0  0  0
   30.1820    0.7864   37.1934 C   0  0  0  0  0  0  0  0  0  0  0  0
   26.5685   -0.2446   35.5264 O   0  0  0  0  0  0  0  0  0  0  0  0
   27.8731   -1.9309   36.0900 O   0  0  0  0  0  0  0  0  0  0  0  0
   29.4055    1.8712   36.8597 C   0  0  0  0  0  0  0  0  0  0  0  0
  1  8  2  0
 16  1  1  0
  1 17  1  0
  2 15  1  0
  2 16  2  0
 18  2  1  0
  3 18  1  0
 19  3  1  0
  5  4  2  0
  4 23  1  0
  7  5  1  0
  5 21  1  0
 21  6  1  0
  6 22  1  0
 19  7  2  0
  7 22  1  0
  8  9  1  0
 15  8  1  0
  9 10  1  0
  9 14  2  0
 10 11  2  0
 11 13  1  0
 13 12  1  0
 14 13  1  0
 19 20  1  0
 20 23  2  0
M  END
$$$$
