
     RDKit          3D

 23 26  0  0  0  0  0  0  0  0999 V2000
   34.9363    0.7465   35.5488 C   0  0  0  0  0  0  0  0  0  0  0  0
   33.5639   -0.8664   36.2838 C   0  0  0  0  0  0  0  0  0  0  0  0
   31.3084   -1.6986   35.9866 C   0  0  0  0  0  0  0  0  0  0  0  0
   28.4972    1.2585   37.1740 C   0  0  0  0  0  0  0  0  0  0  0  0
   28.1433    0.2836   36.2622 C   0  0  0  0  0  0  0  0  0  0  0  0
   27.1536   -0.9841   34.6852 C   0  0  0  0  0  0  0  0  0  0  0  0
   29.0824   -0.6596   35.9057 C   0  0  0  0  0  0  0  0  0  0  0  0
   36.0213    0.0473   35.8657 C   0  0  0  0  0  0  0  0  0  0  0  0
   37.4854    0.2762   35.7612 C   0  0  0  0  0  0  0  0  0  0  0  0
   38.1486    1.2049   35.0098 C   0  0  0  0  0  0  0  0  0  0  0  0
   39.5136    1.0639   35.2172 C   0  0  0  0  0  0  0  0  0  0  0  0
   40.8685   -0.4934   36.6308 C   0  0  0  0  0  0  0  0  0  0  0  0
   39.6335    0.0470   36.0922 N   0  0  0  0  0  0  0  0  0  0  0  0
   38.4383   -0.4221   36.4173 N   0  0  0  0  0  0  0  0  0  0  0  0
   35.3513   -1.4940   36.5664 S   0  0  0  0  0  0  0  0  0  0  0  0
   33.7739    0.1525   35.8202 N   0  0  0  0  0  0  0  0  0  0  0  0
   35.0164    2.1167   34.9193 C   0  0  0  0  0  0  0  0  0  0  0  0
   32.5238   -1.8123   36.7249 N   0  0  0  0  0  0  0  0  0  0  0  0
   30.3695   -0.6790   36.4176 C   0  0  0  0  0  0  0  0  0  0  0  0
   30.7037    0.2977   37.3229 C   0  0  0  0  0  0  0  0  0  0  0  0
   26.9302    0.0625   35.5894 O   0  0  0  0  0  0  0  0  0  0  0  0
   28.4594   -1.4909   34.9957 O   0  0  0  0  0  0  0  0  0  0  0  0
   29.7601    1.2662   37.6971 C   0  0  0  0  0  0  0  0  0  0  0  0
  1  8  2  0
 16  1  1  0
 17  1  1  6
  2 15  1  0
  2 16  2  0
 18  2  1  0
  3 18  1  1
 19  3  1  0
  5  4  2  0
  4 23  1  0
  7  5  1  0
  5 21  1  0
  6 21  1  1
  6 22  1  0
 19  7  2  0
  7 22  1  0
  8  9  1  0
 15  8  1  0
  9 10  1  0
  9 14  2  0
 10 11  2  0
 11 13  1  0
 12 13  1  6
 14 13  1  0
 19 20  1  0
 20 23  2  0
M  END
$$$$
