
     RDKit          3D

 23 26  0  0  0  0  0  0  0  0999 V2000
   35.2897   -1.7184   35.2434 C   0  0  0  0  0  0  0  0  0  0  0  0
   33.2389   -1.9850   36.1084 C   0  0  0  0  0  0  0  0  0  0  0  0
   31.2036   -1.2145   37.1727 C   0  0  0  0  0  0  0  0  0  0  0  0
   27.6318    0.1485   35.3175 C   0  0  0  0  0  0  0  0  0  0  0  0
   28.2903    0.9433   36.2350 C   0  0  0  0  0  0  0  0  0  0  0  0
   28.9086    2.5126   37.7279 C   0  0  0  0  0  0  0  0  0  0  0  0
   29.4474    0.4668   36.8117 C   0  0  0  0  0  0  0  0  0  0  0  0
   35.4120   -0.5002   35.7605 C   0  0  0  0  0  0  0  0  0  0  0  0
   36.4666    0.5461   35.7446 C   0  0  0  0  0  0  0  0  0  0  0  0
   37.1143    1.1157   36.8043 C   0  0  0  0  0  0  0  0  0  0  0  0
   38.0255    2.0486   36.3295 C   0  0  0  0  0  0  0  0  0  0  0  0
   38.6371    2.8113   34.0265 C   0  0  0  0  0  0  0  0  0  0  0  0
   37.8983    2.0143   34.9890 N   0  0  0  0  0  0  0  0  0  0  0  0
   36.9788    1.1282   34.6378 N   0  0  0  0  0  0  0  0  0  0  0  0
   33.8391   -0.2462   36.6420 S   0  0  0  0  0  0  0  0  0  0  0  0
   34.1388   -2.3382   35.5064 N   0  0  0  0  0  0  0  0  0  0  0  0
   36.3822   -2.3574   34.4199 C   0  0  0  0  0  0  0  0  0  0  0  0
   31.8881   -2.3227   36.5908 N   0  0  0  0  0  0  0  0  0  0  0  0
   29.9856   -0.7752   36.5167 C   0  0  0  0  0  0  0  0  0  0  0  0
   29.3176   -1.5517   35.6023 C   0  0  0  0  0  0  0  0  0  0  0  0
   27.9797    2.2248   36.7193 O   0  0  0  0  0  0  0  0  0  0  0  0
   29.8785    1.4567   37.6727 O   0  0  0  0  0  0  0  0  0  0  0  0
   28.1378   -1.0824   35.0055 C   0  0  0  0  0  0  0  0  0  0  0  0
  1  8  2  0
 16  1  1  0
 17  1  1  6
  2 15  1  0
  2 16  2  0
 18  2  1  0
  3 18  1  1
 19  3  1  0
  5  4  2  0
  4 23  1  0
  7  5  1  0
  5 21  1  0
  6 21  1  1
  6 22  1  0
 19  7  2  0
  7 22  1  0
  8  9  1  0
 15  8  1  0
  9 10  1  0
  9 14  2  0
 10 11  2  0
 11 13  1  0
 12 13  1  6
 14 13  1  0
 19 20  1  0
 20 23  2  0
M  END
$$$$
