
     RDKit          3D

 23 26  0  0  0  0  0  0  0  0999 V2000
   34.9196   -1.6256   35.0453 C   0  0  0  0  0  0  0  0  0  0  0  0
   32.9641   -1.9776   36.0831 C   0  0  0  0  0  0  0  0  0  0  0  0
   30.9234   -1.2410   37.1608 C   0  0  0  0  0  0  0  0  0  0  0  0
   27.3528   -0.1001   35.1590 C   0  0  0  0  0  0  0  0  0  0  0  0
   27.9545    0.7576   36.0588 C   0  0  0  0  0  0  0  0  0  0  0  0
   28.4700    2.4105   37.4995 C   0  0  0  0  0  0  0  0  0  0  0  0
   29.1132    0.3520   36.6845 C   0  0  0  0  0  0  0  0  0  0  0  0
   35.1602   -0.5239   35.7488 C   0  0  0  0  0  0  0  0  0  0  0  0
   36.2594    0.4745   35.7928 C   0  0  0  0  0  0  0  0  0  0  0  0
   36.2090    1.7759   36.2061 C   0  0  0  0  0  0  0  0  0  0  0  0
   37.4705    2.3403   36.0793 C   0  0  0  0  0  0  0  0  0  0  0  0
   39.6639    1.4430   35.2770 C   0  0  0  0  0  0  0  0  0  0  0  0
   38.2488    1.3563   35.5891 N   0  0  0  0  0  0  0  0  0  0  0  0
   37.5385    0.2515   35.4181 N   0  0  0  0  0  0  0  0  0  0  0  0
   33.7078   -0.3821   36.8378 S   0  0  0  0  0  0  0  0  0  0  0  0
   33.7737   -2.2457   35.3284 N   0  0  0  0  0  0  0  0  0  0  0  0
   35.8816   -2.1412   34.0019 C   0  0  0  0  0  0  0  0  0  0  0  0
   31.6582   -2.3534   36.6530 N   0  0  0  0  0  0  0  0  0  0  0  0
   29.7074   -0.8783   36.4560 C   0  0  0  0  0  0  0  0  0  0  0  0
   29.0955   -1.7180   35.5583 C   0  0  0  0  0  0  0  0  0  0  0  0
   27.5810    2.0443   36.4805 O   0  0  0  0  0  0  0  0  0  0  0  0
   29.4816    1.3931   37.5137 O   0  0  0  0  0  0  0  0  0  0  0  0
   27.9150   -1.3215   34.9122 C   0  0  0  0  0  0  0  0  0  0  0  0
  1  8  2  0
 16  1  1  0
 17  1  1  6
  2 15  1  0
  2 16  2  0
 18  2  1  0
  3 18  1  1
 19  3  1  0
  5  4  2  0
  4 23  1  0
  7  5  1  0
  5 21  1  0
  6 21  1  1
  6 22  1  0
 19  7  2  0
  7 22  1  0
  8  9  1  0
 15  8  1  0
  9 10  1  0
  9 14  2  0
 10 11  2  0
 11 13  1  0
 12 13  1  6
 14 13  1  0
 19 20  1  0
 20 23  2  0
M  END
$$$$
