
     RDKit          3D

 23 26  0  0  0  0  0  0  0  0999 V2000
   35.7225   -1.9023   36.1715 C   0  0  0  0  0  0  0  0  0  0  0  0
   33.5440   -1.7011   36.6600 C   0  0  0  0  0  0  0  0  0  0  0  0
   31.3564   -0.7515   36.2345 C   0  0  0  0  0  0  0  0  0  0  0  0
   27.1244   -0.8275   36.6114 C   0  0  0  0  0  0  0  0  0  0  0  0
   27.8366    0.3047   36.9549 C   0  0  0  0  0  0  0  0  0  0  0  0
   28.5425    2.2903   37.7502 C   0  0  0  0  0  0  0  0  0  0  0  0
   29.2073    0.2907   36.8148 C   0  0  0  0  0  0  0  0  0  0  0  0
   35.9503   -0.6118   36.3930 C   0  0  0  0  0  0  0  0  0  0  0  0
   37.1446    0.2695   36.3302 C   0  0  0  0  0  0  0  0  0  0  0  0
   38.4637   -0.0818   36.3904 C   0  0  0  0  0  0  0  0  0  0  0  0
   39.2419    1.0630   36.2918 C   0  0  0  0  0  0  0  0  0  0  0  0
   38.6785    3.4880   36.0430 C   0  0  0  0  0  0  0  0  0  0  0  0
   38.3631    2.0772   36.1754 N   0  0  0  0  0  0  0  0  0  0  0  0
   37.1225    1.6141   36.1973 N   0  0  0  0  0  0  0  0  0  0  0  0
   34.3165    0.0396   36.8643 S   0  0  0  0  0  0  0  0  0  0  0  0
   34.4617   -2.2988   36.3476 N   0  0  0  0  0  0  0  0  0  0  0  0
   36.8185   -2.8538   35.7549 C   0  0  0  0  0  0  0  0  0  0  0  0
   32.0976   -1.7471   36.9377 N   0  0  0  0  0  0  0  0  0  0  0  0
   29.9101   -0.8069   36.3453 C   0  0  0  0  0  0  0  0  0  0  0  0
   29.1857   -1.9236   36.0085 C   0  0  0  0  0  0  0  0  0  0  0  0
   27.3961    1.5425   37.4516 O   0  0  0  0  0  0  0  0  0  0  0  0
   29.6440    1.5344   37.2268 O   0  0  0  0  0  0  0  0  0  0  0  0
   27.7894   -1.9271   36.1451 C   0  0  0  0  0  0  0  0  0  0  0  0
  1  8  2  0
 16  1  1  0
 17  1  1  6
  2 15  1  0
  2 16  2  0
 18  2  1  0
  3 18  1  1
 19  3  1  0
  5  4  2  0
  4 23  1  0
  7  5  1  0
  5 21  1  0
  6 21  1  1
  6 22  1  0
 19  7  2  0
  7 22  1  0
  8  9  1  0
 15  8  1  0
  9 10  1  0
  9 14  2  0
 10 11  2  0
 11 13  1  0
 12 13  1  6
 14 13  1  0
 19 20  1  0
 20 23  2  0
M  END
$$$$
