
     RDKit          3D

 23 26  0  0  0  0  0  0  0  0999 V2000
   35.0263   -2.0768   35.1139 C   0  0  0  0  0  0  0  0  0  0  0  0
   33.1231   -2.0215   36.3520 C   0  0  0  0  0  0  0  0  0  0  0  0
   31.0556   -1.5576   37.6021 C   0  0  0  0  0  0  0  0  0  0  0  0
   27.9381   -0.0504   35.1794 C   0  0  0  0  0  0  0  0  0  0  0  0
   28.5178    0.7623   36.1290 C   0  0  0  0  0  0  0  0  0  0  0  0
   28.7996    2.2643   37.8008 C   0  0  0  0  0  0  0  0  0  0  0  0
   29.5395    0.2823   36.9286 C   0  0  0  0  0  0  0  0  0  0  0  0
   35.3057   -0.8202   35.5792 C   0  0  0  0  0  0  0  0  0  0  0  0
   36.4297    0.0885   35.3317 C   0  0  0  0  0  0  0  0  0  0  0  0
   37.3734    0.1435   34.3553 C   0  0  0  0  0  0  0  0  0  0  0  0
   38.2165    1.1954   34.5754 C   0  0  0  0  0  0  0  0  0  0  0  0
   38.3660    2.9603   36.3347 C   0  0  0  0  0  0  0  0  0  0  0  0
   37.7677    1.7808   35.7061 N   0  0  0  0  0  0  0  0  0  0  0  0
   36.7102    1.1257   36.1535 N   0  0  0  0  0  0  0  0  0  0  0  0
   33.9298   -0.5397   36.5974 S   0  0  0  0  0  0  0  0  0  0  0  0
   33.9319   -2.6447   35.5189 N   0  0  0  0  0  0  0  0  0  0  0  0
   35.9779   -2.7744   34.1541 C   0  0  0  0  0  0  0  0  0  0  0  0
   31.8815   -2.4927   36.9020 N   0  0  0  0  0  0  0  0  0  0  0  0
   29.9725   -1.0146   36.7681 C   0  0  0  0  0  0  0  0  0  0  0  0
   29.3726   -1.7997   35.8111 C   0  0  0  0  0  0  0  0  0  0  0  0
   28.2649    2.1008   36.4884 O   0  0  0  0  0  0  0  0  0  0  0  0
   29.8940    1.3381   37.7643 O   0  0  0  0  0  0  0  0  0  0  0  0
   28.3548   -1.3711   34.9917 C   0  0  0  0  0  0  0  0  0  0  0  0
  1  8  2  0
 16  1  1  0
  1 17  1  0
  2 15  1  0
  2 16  2  0
 18  2  1  0
  3 18  1  0
 19  3  1  0
  5  4  2  0
  4 23  1  0
  7  5  1  0
  5 21  1  0
 21  6  1  0
  6 22  1  0
 19  7  2  0
  7 22  1  0
  8  9  1  0
 15  8  1  0
  9 10  1  0
  9 14  2  0
 10 11  2  0
 11 13  1  0
 13 12  1  0
 14 13  1  0
 19 20  1  0
 20 23  2  0
M  END
$$$$
