
     RDKit          3D

 23 26  0  0  0  0  0  0  0  0999 V2000
   35.1640   -1.4175   36.2507 C   0  0  0  0  0  0  0  0  0  0  0  0
   32.9627   -1.4045   36.8095 C   0  0  0  0  0  0  0  0  0  0  0  0
   30.7191   -2.2922   36.3291 C   0  0  0  0  0  0  0  0  0  0  0  0
   27.8875    0.7475   35.5531 C   0  0  0  0  0  0  0  0  0  0  0  0
   28.7153    0.8501   36.6497 C   0  0  0  0  0  0  0  0  0  0  0  0
   29.4749    1.2176   38.7517 C   0  0  0  0  0  0  0  0  0  0  0  0
   29.6470   -0.1372   36.9156 C   0  0  0  0  0  0  0  0  0  0  0  0
   35.0260   -0.1070   35.8802 C   0  0  0  0  0  0  0  0  0  0  0  0
   35.9820    0.8633   35.3370 C   0  0  0  0  0  0  0  0  0  0  0  0
   37.2699    0.7532   34.9173 C   0  0  0  0  0  0  0  0  0  0  0  0
   37.7313    1.9669   34.4933 C   0  0  0  0  0  0  0  0  0  0  0  0
   36.7279    4.2478   34.3413 C   0  0  0  0  0  0  0  0  0  0  0  0
   36.6984    2.8195   34.6630 N   0  0  0  0  0  0  0  0  0  0  0  0
   35.6632    2.1663   35.1622 N   0  0  0  0  0  0  0  0  0  0  0  0
   33.3468    0.1520   36.2293 S   0  0  0  0  0  0  0  0  0  0  0  0
   34.1170   -2.0323   36.7087 N   0  0  0  0  0  0  0  0  0  0  0  0
   36.5083   -2.1180   36.1257 C   0  0  0  0  0  0  0  0  0  0  0  0
   31.7110   -1.9215   37.2910 N   0  0  0  0  0  0  0  0  0  0  0  0
   29.7406   -1.2237   36.0754 C   0  0  0  0  0  0  0  0  0  0  0  0
   28.8995   -1.2958   34.9895 C   0  0  0  0  0  0  0  0  0  0  0  0
   28.8207    1.8396   37.6470 O   0  0  0  0  0  0  0  0  0  0  0  0
   30.3072    0.2671   38.0729 O   0  0  0  0  0  0  0  0  0  0  0  0
   27.9575   -0.3424   34.6812 C   0  0  0  0  0  0  0  0  0  0  0  0
  1  8  2  0
 16  1  1  0
  1 17  1  0
  2 15  1  0
  2 16  2  0
 18  2  1  0
  3 18  1  0
 19  3  1  0
  5  4  2  0
  4 23  1  0
  7  5  1  0
  5 21  1  0
 21  6  1  0
  6 22  1  0
 19  7  2  0
  7 22  1  0
  8  9  1  0
 15  8  1  0
  9 10  1  0
  9 14  2  0
 10 11  2  0
 11 13  1  0
 13 12  1  0
 14 13  1  0
 19 20  1  0
 20 23  2  0
M  END
$$$$
