
     RDKit          3D

 23 26  0  0  0  0  0  0  0  0999 V2000
   35.0096   -1.2800   35.4543 C   0  0  0  0  0  0  0  0  0  0  0  0
   33.0976   -1.2687   36.6245 C   0  0  0  0  0  0  0  0  0  0  0  0
   30.7952   -2.0071   36.4755 C   0  0  0  0  0  0  0  0  0  0  0  0
   27.3469    0.3744   35.7713 C   0  0  0  0  0  0  0  0  0  0  0  0
   28.4464    0.9088   36.4137 C   0  0  0  0  0  0  0  0  0  0  0  0
   29.8983    2.1668   37.5898 C   0  0  0  0  0  0  0  0  0  0  0  0
   29.5464    0.1050   36.6199 C   0  0  0  0  0  0  0  0  0  0  0  0
   35.4223   -0.1444   36.0081 C   0  0  0  0  0  0  0  0  0  0  0  0
   36.6312    0.7091   35.8767 C   0  0  0  0  0  0  0  0  0  0  0  0
   37.1383    1.2964   34.7521 C   0  0  0  0  0  0  0  0  0  0  0  0
   38.2817    2.0071   35.0891 C   0  0  0  0  0  0  0  0  0  0  0  0
   39.4868    2.3668   37.2520 C   0  0  0  0  0  0  0  0  0  0  0  0
   38.4315    1.8249   36.4152 N   0  0  0  0  0  0  0  0  0  0  0  0
   37.4590    1.0589   36.8859 N   0  0  0  0  0  0  0  0  0  0  0  0
   34.0699    0.2974   37.1445 S   0  0  0  0  0  0  0  0  0  0  0  0
   33.8198   -1.7180   35.8672 N   0  0  0  0  0  0  0  0  0  0  0  0
   35.8352   -2.0246   34.4326 C   0  0  0  0  0  0  0  0  0  0  0  0
   31.7963   -1.4136   37.3005 N   0  0  0  0  0  0  0  0  0  0  0  0
   29.6051   -1.2182   36.2140 C   0  0  0  0  0  0  0  0  0  0  0  0
   28.5030   -1.7327   35.5769 C   0  0  0  0  0  0  0  0  0  0  0  0
   28.6640    2.1978   36.9278 O   0  0  0  0  0  0  0  0  0  0  0  0
   30.4750    0.8919   37.2724 O   0  0  0  0  0  0  0  0  0  0  0  0
   27.3741   -0.9287   35.3589 C   0  0  0  0  0  0  0  0  0  0  0  0
  1  8  2  0
 16  1  1  0
 17  1  1  6
  2 15  1  0
  2 16  2  0
 18  2  1  0
  3 18  1  1
 19  3  1  0
  5  4  2  0
  4 23  1  0
  7  5  1  0
  5 21  1  0
  6 21  1  1
  6 22  1  0
 19  7  2  0
  7 22  1  0
  8  9  1  0
 15  8  1  0
  9 10  1  0
  9 14  2  0
 10 11  2  0
 11 13  1  0
 12 13  1  6
 14 13  1  0
 19 20  1  0
 20 23  2  0
M  END
$$$$
