
     RDKit          3D

 23 26  0  0  0  0  0  0  0  0999 V2000
   34.9819   -1.7967   35.2194 C   0  0  0  0  0  0  0  0  0  0  0  0
   33.0718   -1.5259   36.4178 C   0  0  0  0  0  0  0  0  0  0  0  0
   31.0140   -0.8358   37.5760 C   0  0  0  0  0  0  0  0  0  0  0  0
   27.7637    0.2899   35.1208 C   0  0  0  0  0  0  0  0  0  0  0  0
   28.1944    1.1410   36.1150 C   0  0  0  0  0  0  0  0  0  0  0  0
   28.2117    2.6007   37.8468 C   0  0  0  0  0  0  0  0  0  0  0  0
   29.2574    0.7856   36.9258 C   0  0  0  0  0  0  0  0  0  0  0  0
   35.3280   -0.5217   35.5778 C   0  0  0  0  0  0  0  0  0  0  0  0
   36.5049    0.2971   35.2699 C   0  0  0  0  0  0  0  0  0  0  0  0
   36.9912    1.4494   35.8014 C   0  0  0  0  0  0  0  0  0  0  0  0
   38.1356    1.8193   35.1537 C   0  0  0  0  0  0  0  0  0  0  0  0
   39.4557    0.8462   33.2715 C   0  0  0  0  0  0  0  0  0  0  0  0
   38.3372    0.8688   34.2164 N   0  0  0  0  0  0  0  0  0  0  0  0
   37.3722   -0.0320   34.2853 N   0  0  0  0  0  0  0  0  0  0  0  0
   33.9595   -0.0760   36.5459 S   0  0  0  0  0  0  0  0  0  0  0  0
   33.8525   -2.2643   35.6550 N   0  0  0  0  0  0  0  0  0  0  0  0
   35.9023   -2.6282   34.3391 C   0  0  0  0  0  0  0  0  0  0  0  0
   31.7994   -1.8764   36.9870 N   0  0  0  0  0  0  0  0  0  0  0  0
   29.8817   -0.4259   36.7314 C   0  0  0  0  0  0  0  0  0  0  0  0
   29.4271   -1.2523   35.7303 C   0  0  0  0  0  0  0  0  0  0  0  0
   27.7374    2.4123   36.5147 O   0  0  0  0  0  0  0  0  0  0  0  0
   29.4320    1.8483   37.8085 O   0  0  0  0  0  0  0  0  0  0  0  0
   28.3760   -0.9464   34.8979 C   0  0  0  0  0  0  0  0  0  0  0  0
  1  8  2  0
 16  1  1  0
  1 17  1  0
  2 15  1  0
  2 16  2  0
 18  2  1  0
  3 18  1  0
 19  3  1  0
  5  4  2  0
  4 23  1  0
  7  5  1  0
  5 21  1  0
 21  6  1  0
  6 22  1  0
 19  7  2  0
  7 22  1  0
  8  9  1  0
 15  8  1  0
  9 10  1  0
  9 14  2  0
 10 11  2  0
 11 13  1  0
 13 12  1  0
 14 13  1  0
 19 20  1  0
 20 23  2  0
M  END
$$$$
