
     RDKit          3D

 23 26  0  0  0  0  0  0  0  0999 V2000
   34.9587   -1.6283   35.5521 C   0  0  0  0  0  0  0  0  0  0  0  0
   32.8981   -1.7658   36.4974 C   0  0  0  0  0  0  0  0  0  0  0  0
   30.7165   -1.5654   37.6168 C   0  0  0  0  0  0  0  0  0  0  0  0
   27.3841   -0.1870   35.4135 C   0  0  0  0  0  0  0  0  0  0  0  0
   28.0323    0.6689   36.2769 C   0  0  0  0  0  0  0  0  0  0  0  0
   28.4366    2.2397   37.8579 C   0  0  0  0  0  0  0  0  0  0  0  0
   29.1247    0.2313   37.0041 C   0  0  0  0  0  0  0  0  0  0  0  0
   35.1025   -0.4118   36.1628 C   0  0  0  0  0  0  0  0  0  0  0  0
   36.2010    0.5596   36.1645 C   0  0  0  0  0  0  0  0  0  0  0  0
   36.4426    1.6773   36.8990 C   0  0  0  0  0  0  0  0  0  0  0  0
   37.6226    2.2471   36.5131 C   0  0  0  0  0  0  0  0  0  0  0  0
   39.3493    1.6732   34.8038 C   0  0  0  0  0  0  0  0  0  0  0  0
   38.0956    1.4541   35.5283 N   0  0  0  0  0  0  0  0  0  0  0  0
   37.2544    0.4554   35.3221 N   0  0  0  0  0  0  0  0  0  0  0  0
   33.5827   -0.2836   36.9888 S   0  0  0  0  0  0  0  0  0  0  0  0
   33.8491   -2.2746   35.7402 N   0  0  0  0  0  0  0  0  0  0  0  0
   36.0728   -2.1935   34.6844 C   0  0  0  0  0  0  0  0  0  0  0  0
   31.6174   -2.3353   36.8153 N   0  0  0  0  0  0  0  0  0  0  0  0
   29.5592   -1.0668   36.8582 C   0  0  0  0  0  0  0  0  0  0  0  0
   28.8899   -1.8956   35.9880 C   0  0  0  0  0  0  0  0  0  0  0  0
   27.7937    2.0183   36.6037 O   0  0  0  0  0  0  0  0  0  0  0  0
   29.5357    1.3233   37.7639 O   0  0  0  0  0  0  0  0  0  0  0  0
   27.8003   -1.5102   35.2428 C   0  0  0  0  0  0  0  0  0  0  0  0
  1  8  2  0
 16  1  1  0
  1 17  1  0
  2 15  1  0
  2 16  2  0
 18  2  1  0
  3 18  1  0
 19  3  1  0
  5  4  2  0
  4 23  1  0
  7  5  1  0
  5 21  1  0
 21  6  1  0
  6 22  1  0
 19  7  2  0
  7 22  1  0
  8  9  1  0
 15  8  1  0
  9 10  1  0
  9 14  2  0
 10 11  2  0
 11 13  1  0
 13 12  1  0
 14 13  1  0
 19 20  1  0
 20 23  2  0
M  END
$$$$
