
     RDKit          3D

 23 26  0  0  0  0  0  0  0  0999 V2000
   34.3618   -1.5378   35.5658 C   0  0  0  0  0  0  0  0  0  0  0  0
   32.7620   -0.8992   37.0460 C   0  0  0  0  0  0  0  0  0  0  0  0
   30.4816   -1.7752   37.3376 C   0  0  0  0  0  0  0  0  0  0  0  0
   27.6233    0.5408   35.2578 C   0  0  0  0  0  0  0  0  0  0  0  0
   28.3074    1.0930   36.3186 C   0  0  0  0  0  0  0  0  0  0  0  0
   28.7907    2.2388   38.2117 C   0  0  0  0  0  0  0  0  0  0  0  0
   29.2461    0.3467   37.0080 C   0  0  0  0  0  0  0  0  0  0  0  0
   34.9532   -0.3180   35.7556 C   0  0  0  0  0  0  0  0  0  0  0  0
   36.1638    0.2829   35.1864 C   0  0  0  0  0  0  0  0  0  0  0  0
   36.9759   -0.0769   34.1579 C   0  0  0  0  0  0  0  0  0  0  0  0
   37.9912    0.8268   34.0226 C   0  0  0  0  0  0  0  0  0  0  0  0
   38.6273    2.9157   35.2327 C   0  0  0  0  0  0  0  0  0  0  0  0
   37.7816    1.7451   34.9897 N   0  0  0  0  0  0  0  0  0  0  0  0
   36.7000    1.4232   35.6783 N   0  0  0  0  0  0  0  0  0  0  0  0
   33.8645    0.3935   36.9032 S   0  0  0  0  0  0  0  0  0  0  0  0
   33.2729   -1.7934   36.2238 N   0  0  0  0  0  0  0  0  0  0  0  0
   34.9733   -2.5526   34.6119 C   0  0  0  0  0  0  0  0  0  0  0  0
   31.5757   -1.0092   37.8501 N   0  0  0  0  0  0  0  0  0  0  0  0
   29.4913   -0.9530   36.6258 C   0  0  0  0  0  0  0  0  0  0  0  0
   28.7911   -1.4741   35.5627 C   0  0  0  0  0  0  0  0  0  0  0  0
   28.2453    2.3745   36.9005 O   0  0  0  0  0  0  0  0  0  0  0  0
   29.7425    1.1869   38.0012 O   0  0  0  0  0  0  0  0  0  0  0  0
   27.8490   -0.7752   34.8450 C   0  0  0  0  0  0  0  0  0  0  0  0
  1  8  2  0
 16  1  1  0
  1 17  1  0
  2 15  1  0
  2 16  2  0
 18  2  1  0
  3 18  1  0
 19  3  1  0
  5  4  2  0
  4 23  1  0
  7  5  1  0
  5 21  1  0
 21  6  1  0
  6 22  1  0
 19  7  2  0
  7 22  1  0
  8  9  1  0
 15  8  1  0
  9 10  1  0
  9 14  2  0
 10 11  2  0
 11 13  1  0
 13 12  1  0
 14 13  1  0
 19 20  1  0
 20 23  2  0
M  END
$$$$
