
     RDKit          3D

 23 26  0  0  0  0  0  0  0  0999 V2000
   34.8730   -2.0329   35.1670 C   0  0  0  0  0  0  0  0  0  0  0  0
   33.0432   -2.2290   36.4469 C   0  0  0  0  0  0  0  0  0  0  0  0
   31.1123   -1.3402   37.6089 C   0  0  0  0  0  0  0  0  0  0  0  0
   27.7370   -0.1035   35.3427 C   0  0  0  0  0  0  0  0  0  0  0  0
   28.2445    0.7063   36.3396 C   0  0  0  0  0  0  0  0  0  0  0  0
   28.6090    2.2808   37.9086 C   0  0  0  0  0  0  0  0  0  0  0  0
   29.3424    0.2710   37.0494 C   0  0  0  0  0  0  0  0  0  0  0  0
   35.1801   -0.8490   35.6872 C   0  0  0  0  0  0  0  0  0  0  0  0
   36.2706    0.1383   35.4791 C   0  0  0  0  0  0  0  0  0  0  0  0
   36.3716    1.4088   35.9713 C   0  0  0  0  0  0  0  0  0  0  0  0
   37.5584    1.9738   35.5259 C   0  0  0  0  0  0  0  0  0  0  0  0
   39.4104    1.1212   34.0758 C   0  0  0  0  0  0  0  0  0  0  0  0
   38.1408    1.0211   34.7726 N   0  0  0  0  0  0  0  0  0  0  0  0
   37.3844   -0.0656   34.7415 N   0  0  0  0  0  0  0  0  0  0  0  0
   33.8525   -0.5525   36.8975 S   0  0  0  0  0  0  0  0  0  0  0  0
   33.7687   -2.6013   35.6520 N   0  0  0  0  0  0  0  0  0  0  0  0
   35.7208   -2.6901   34.1042 C   0  0  0  0  0  0  0  0  0  0  0  0
   31.8089   -2.5157   37.1990 N   0  0  0  0  0  0  0  0  0  0  0  0
   29.9652   -0.9436   36.8127 C   0  0  0  0  0  0  0  0  0  0  0  0
   29.4472   -1.7355   35.8179 C   0  0  0  0  0  0  0  0  0  0  0  0
   27.8228    1.9674   36.7922 O   0  0  0  0  0  0  0  0  0  0  0  0
   29.6228    1.2670   37.9640 O   0  0  0  0  0  0  0  0  0  0  0  0
   28.3295   -1.3083   35.0853 C   0  0  0  0  0  0  0  0  0  0  0  0
  1  8  2  0
 16  1  1  0
 17  1  1  6
  2 15  1  0
  2 16  2  0
 18  2  1  0
  3 18  1  1
 19  3  1  0
  5  4  2  0
  4 23  1  0
  7  5  1  0
  5 21  1  0
  6 21  1  1
  6 22  1  0
 19  7  2  0
  7 22  1  0
  8  9  1  0
 15  8  1  0
  9 10  1  0
  9 14  2  0
 10 11  2  0
 11 13  1  0
 12 13  1  6
 14 13  1  0
 19 20  1  0
 20 23  2  0
M  END
$$$$
