
     RDKit          3D

 23 26  0  0  0  0  0  0  0  0999 V2000
   35.0432   -1.8680   34.9504 C   0  0  0  0  0  0  0  0  0  0  0  0
   33.3249   -2.0007   36.3839 C   0  0  0  0  0  0  0  0  0  0  0  0
   31.3352   -1.0824   37.4166 C   0  0  0  0  0  0  0  0  0  0  0  0
   27.7790   -0.7357   35.1164 C   0  0  0  0  0  0  0  0  0  0  0  0
   28.2040    0.3124   35.9088 C   0  0  0  0  0  0  0  0  0  0  0  0
   28.4046    2.2023   37.1177 C   0  0  0  0  0  0  0  0  0  0  0  0
   29.3643    0.1620   36.6367 C   0  0  0  0  0  0  0  0  0  0  0  0
   35.4609   -0.7173   35.4682 C   0  0  0  0  0  0  0  0  0  0  0  0
   36.5825    0.2152   35.1861 C   0  0  0  0  0  0  0  0  0  0  0  0
   37.0653    0.6214   33.9741 C   0  0  0  0  0  0  0  0  0  0  0  0
   38.1207    1.4991   34.1785 C   0  0  0  0  0  0  0  0  0  0  0  0
   39.2123    2.3973   36.2428 C   0  0  0  0  0  0  0  0  0  0  0  0
   38.2442    1.5958   35.5163 N   0  0  0  0  0  0  0  0  0  0  0  0
   37.3378    0.8394   36.1167 N   0  0  0  0  0  0  0  0  0  0  0  0
   34.2635   -0.3835   36.7987 S   0  0  0  0  0  0  0  0  0  0  0  0
   33.9556   -2.3893   35.5190 N   0  0  0  0  0  0  0  0  0  0  0  0
   35.7559   -2.5401   33.8013 C   0  0  0  0  0  0  0  0  0  0  0  0
   32.1474   -2.2413   37.2365 N   0  0  0  0  0  0  0  0  0  0  0  0
   30.1290   -0.9929   36.6141 C   0  0  0  0  0  0  0  0  0  0  0  0
   29.6913   -2.0245   35.8207 C   0  0  0  0  0  0  0  0  0  0  0  0
   27.6379    1.5798   36.1240 O   0  0  0  0  0  0  0  0  0  0  0  0
   29.5387    1.3478   37.3228 O   0  0  0  0  0  0  0  0  0  0  0  0
   28.5120   -1.8888   35.0730 C   0  0  0  0  0  0  0  0  0  0  0  0
  1  8  2  0
 16  1  1  0
 17  1  1  6
  2 15  1  0
  2 16  2  0
 18  2  1  0
  3 18  1  1
 19  3  1  0
  5  4  2  0
  4 23  1  0
  7  5  1  0
  5 21  1  0
  6 21  1  1
  6 22  1  0
 19  7  2  0
  7 22  1  0
  8  9  1  0
 15  8  1  0
  9 10  1  0
  9 14  2  0
 10 11  2  0
 11 13  1  0
 12 13  1  6
 14 13  1  0
 19 20  1  0
 20 23  2  0
M  END
$$$$
