
     RDKit          3D

 23 26  0  0  0  0  0  0  0  0999 V2000
   38.2316   -1.3768   35.7117 C   0  0  0  0  0  0  0  0  0  0  0  0
   36.1391   -1.4434   34.9105 C   0  0  0  0  0  0  0  0  0  0  0  0
   33.8933   -0.5859   34.6117 C   0  0  0  0  0  0  0  0  0  0  0  0
   31.1676   -0.9264   37.8540 C   0  0  0  0  0  0  0  0  0  0  0  0
   31.2115    0.2270   37.0957 C   0  0  0  0  0  0  0  0  0  0  0  0
   31.0015    2.3090   36.2622 C   0  0  0  0  0  0  0  0  0  0  0  0
   32.1068    0.2968   36.0506 C   0  0  0  0  0  0  0  0  0  0  0  0
   38.2025   -0.0540   35.8380 C   0  0  0  0  0  0  0  0  0  0  0  0
   39.1628    0.9771   36.3086 C   0  0  0  0  0  0  0  0  0  0  0  0
   39.3421    2.2480   35.8399 C   0  0  0  0  0  0  0  0  0  0  0  0
   40.3464    2.8636   36.5737 C   0  0  0  0  0  0  0  0  0  0  0  0
   41.7832    2.0941   38.4719 C   0  0  0  0  0  0  0  0  0  0  0  0
   40.7461    1.9391   37.4680 N   0  0  0  0  0  0  0  0  0  0  0  0
   40.0501    0.8226   37.3161 N   0  0  0  0  0  0  0  0  0  0  0  0
   36.5381    0.3981   35.2541 S   0  0  0  0  0  0  0  0  0  0  0  0
   37.1176   -1.9299   35.2314 N   0  0  0  0  0  0  0  0  0  0  0  0
   39.4419   -2.1958   36.0922 C   0  0  0  0  0  0  0  0  0  0  0  0
   34.7889   -1.6686   34.3650 N   0  0  0  0  0  0  0  0  0  0  0  0
   32.9692   -0.7359   35.7211 C   0  0  0  0  0  0  0  0  0  0  0  0
   32.9116   -1.8750   36.4856 C   0  0  0  0  0  0  0  0  0  0  0  0
   30.4683    1.4144   37.1994 O   0  0  0  0  0  0  0  0  0  0  0  0
   31.9309    1.5431   35.4823 O   0  0  0  0  0  0  0  0  0  0  0  0
   32.0063   -1.9632   37.5538 C   0  0  0  0  0  0  0  0  0  0  0  0
  1  8  2  0
 16  1  1  0
 17  1  1  6
  2 15  1  0
  2 16  2  0
 18  2  1  0
  3 18  1  1
 19  3  1  0
  5  4  2  0
  4 23  1  0
  7  5  1  0
  5 21  1  0
  6 21  1  1
  6 22  1  0
 19  7  2  0
  7 22  1  0
  8  9  1  0
 15  8  1  0
  9 10  1  0
  9 14  2  0
 10 11  2  0
 11 13  1  0
 12 13  1  6
 14 13  1  0
 19 20  1  0
 20 23  2  0
M  END
$$$$
