
     RDKit          3D

 23 26  0  0  0  0  0  0  0  0999 V2000
   34.9640   -2.0721   35.4486 C   0  0  0  0  0  0  0  0  0  0  0  0
   32.9550   -1.9874   36.5045 C   0  0  0  0  0  0  0  0  0  0  0  0
   30.8560   -1.5455   37.7093 C   0  0  0  0  0  0  0  0  0  0  0  0
   27.5575   -0.1346   35.4757 C   0  0  0  0  0  0  0  0  0  0  0  0
   28.1791    0.7020   36.3769 C   0  0  0  0  0  0  0  0  0  0  0  0
   28.5347    2.2303   38.0103 C   0  0  0  0  0  0  0  0  0  0  0  0
   29.2601    0.2536   37.1143 C   0  0  0  0  0  0  0  0  0  0  0  0
   35.1902   -0.7943   35.8842 C   0  0  0  0  0  0  0  0  0  0  0  0
   36.3253    0.1161   35.7022 C   0  0  0  0  0  0  0  0  0  0  0  0
   37.6401   -0.0925   35.4289 C   0  0  0  0  0  0  0  0  0  0  0  0
   38.3004    1.1012   35.3580 C   0  0  0  0  0  0  0  0  0  0  0  0
   37.6074    3.4853   35.6188 C   0  0  0  0  0  0  0  0  0  0  0  0
   37.3613    2.0420   35.5937 N   0  0  0  0  0  0  0  0  0  0  0  0
   36.1925    1.4589   35.7973 N   0  0  0  0  0  0  0  0  0  0  0  0
   33.7248   -0.4877   36.7599 S   0  0  0  0  0  0  0  0  0  0  0  0
   33.8414   -2.6351   35.7757 N   0  0  0  0  0  0  0  0  0  0  0  0
   36.0047   -2.7979   34.6098 C   0  0  0  0  0  0  0  0  0  0  0  0
   31.6719   -2.4494   36.9583 N   0  0  0  0  0  0  0  0  0  0  0  0
   29.7101   -1.0358   36.9408 C   0  0  0  0  0  0  0  0  0  0  0  0
   29.0674   -1.8452   36.0332 C   0  0  0  0  0  0  0  0  0  0  0  0
   27.9206    2.0392   36.7369 O   0  0  0  0  0  0  0  0  0  0  0  0
   29.6444    1.3270   37.9137 O   0  0  0  0  0  0  0  0  0  0  0  0
   27.9900   -1.4485   35.2762 C   0  0  0  0  0  0  0  0  0  0  0  0
  1  8  2  0
 16  1  1  0
  1 17  1  0
  2 15  1  0
  2 16  2  0
 18  2  1  0
  3 18  1  0
 19  3  1  0
  5  4  2  0
  4 23  1  0
  7  5  1  0
  5 21  1  0
 21  6  1  0
  6 22  1  0
 19  7  2  0
  7 22  1  0
  8  9  1  0
 15  8  1  0
  9 10  1  0
  9 14  2  0
 10 11  2  0
 11 13  1  0
 13 12  1  0
 14 13  1  0
 19 20  1  0
 20 23  2  0
M  END
$$$$
