
     RDKit          3D

 23 26  0  0  0  0  0  0  0  0999 V2000
   35.8238   -0.9055   36.1934 C   0  0  0  0  0  0  0  0  0  0  0  0
   33.8151   -0.3311   37.0060 C   0  0  0  0  0  0  0  0  0  0  0  0
   31.4895   -1.0027   36.9142 C   0  0  0  0  0  0  0  0  0  0  0  0
   27.4418    0.2762   36.7185 C   0  0  0  0  0  0  0  0  0  0  0  0
   27.8385   -0.8873   36.0892 C   0  0  0  0  0  0  0  0  0  0  0  0
   28.0165   -2.7382   34.8180 C   0  0  0  0  0  0  0  0  0  0  0  0
   29.1592   -1.2698   36.1793 C   0  0  0  0  0  0  0  0  0  0  0  0
   36.2834    0.3376   36.2929 C   0  0  0  0  0  0  0  0  0  0  0  0
   37.5733    1.0078   35.9858 C   0  0  0  0  0  0  0  0  0  0  0  0
   38.8218    0.4570   35.9176 C   0  0  0  0  0  0  0  0  0  0  0  0
   39.7377    1.4497   35.5990 C   0  0  0  0  0  0  0  0  0  0  0  0
   39.5065    3.9024   35.1622 C   0  0  0  0  0  0  0  0  0  0  0  0
   39.0095    2.5771   35.4850 N   0  0  0  0  0  0  0  0  0  0  0  0
   37.7299    2.3219   35.7123 N   0  0  0  0  0  0  0  0  0  0  0  0
   34.8725    1.2656   36.9737 S   0  0  0  0  0  0  0  0  0  0  0  0
   34.5637   -1.0827   36.5916 N   0  0  0  0  0  0  0  0  0  0  0  0
   36.6736   -2.0391   35.6708 C   0  0  0  0  0  0  0  0  0  0  0  0
   32.4458   -0.1285   37.5111 N   0  0  0  0  0  0  0  0  0  0  0  0
   30.1134   -0.5425   36.8718 C   0  0  0  0  0  0  0  0  0  0  0  0
   29.7010    0.6114   37.4913 C   0  0  0  0  0  0  0  0  0  0  0  0
   27.1007   -1.8084   35.3275 O   0  0  0  0  0  0  0  0  0  0  0  0
   29.2629   -2.4483   35.4669 O   0  0  0  0  0  0  0  0  0  0  0  0
   28.3602    1.0161   37.4097 C   0  0  0  0  0  0  0  0  0  0  0  0
  1  8  2  0
 16  1  1  0
 17  1  1  6
  2 15  1  0
  2 16  2  0
 18  2  1  0
  3 18  1  1
 19  3  1  0
  5  4  2  0
  4 23  1  0
  7  5  1  0
  5 21  1  0
  6 21  1  1
  6 22  1  0
 19  7  2  0
  7 22  1  0
  8  9  1  0
 15  8  1  0
  9 10  1  0
  9 14  2  0
 10 11  2  0
 11 13  1  0
 12 13  1  6
 14 13  1  0
 19 20  1  0
 20 23  2  0
M  END
$$$$
