
     RDKit          3D

 23 26  0  0  0  0  0  0  0  0999 V2000
   34.6306   -1.1510   34.6036 C   0  0  0  0  0  0  0  0  0  0  0  0
   32.9141   -1.5488   36.0366 C   0  0  0  0  0  0  0  0  0  0  0  0
   30.8376   -1.3272   37.3372 C   0  0  0  0  0  0  0  0  0  0  0  0
   27.5883    0.3037   35.1826 C   0  0  0  0  0  0  0  0  0  0  0  0
   28.3366    1.1156   36.0067 C   0  0  0  0  0  0  0  0  0  0  0  0
   28.9280    2.6790   37.5351 C   0  0  0  0  0  0  0  0  0  0  0  0
   29.4031    0.5953   36.7175 C   0  0  0  0  0  0  0  0  0  0  0  0
   35.1457   -0.2936   35.5381 C   0  0  0  0  0  0  0  0  0  0  0  0
   36.3556    0.5351   35.5457 C   0  0  0  0  0  0  0  0  0  0  0  0
   37.0536    1.1570   34.5594 C   0  0  0  0  0  0  0  0  0  0  0  0
   38.1281    1.8148   35.0872 C   0  0  0  0  0  0  0  0  0  0  0  0
   39.0283    2.0919   37.3992 C   0  0  0  0  0  0  0  0  0  0  0  0
   38.0709    1.5813   36.4157 N   0  0  0  0  0  0  0  0  0  0  0  0
   37.0219    0.8241   36.6869 N   0  0  0  0  0  0  0  0  0  0  0  0
   33.9548   -0.4292   36.7918 S   0  0  0  0  0  0  0  0  0  0  0  0
   33.5188   -1.7585   34.8847 N   0  0  0  0  0  0  0  0  0  0  0  0
   35.3498   -1.3763   33.2825 C   0  0  0  0  0  0  0  0  0  0  0  0
   31.6890   -2.1296   36.5138 N   0  0  0  0  0  0  0  0  0  0  0  0
   29.7111   -0.7409   36.5950 C   0  0  0  0  0  0  0  0  0  0  0  0
   28.9442   -1.5240   35.7640 C   0  0  0  0  0  0  0  0  0  0  0  0
   28.2333    2.4888   36.3037 O   0  0  0  0  0  0  0  0  0  0  0  0
   29.9344    1.6619   37.4378 O   0  0  0  0  0  0  0  0  0  0  0  0
   27.8750   -1.0563   35.0364 C   0  0  0  0  0  0  0  0  0  0  0  0
  1  8  2  0
 16  1  1  0
  1 17  1  0
  2 15  1  0
  2 16  2  0
 18  2  1  0
  3 18  1  0
 19  3  1  0
  5  4  2  0
  4 23  1  0
  7  5  1  0
  5 21  1  0
 21  6  1  0
  6 22  1  0
 19  7  2  0
  7 22  1  0
  8  9  1  0
 15  8  1  0
  9 10  1  0
  9 14  2  0
 10 11  2  0
 11 13  1  0
 13 12  1  0
 14 13  1  0
 19 20  1  0
 20 23  2  0
M  END
$$$$
