
     RDKit          3D

 23 26  0  0  0  0  0  0  0  0999 V2000
   35.7637   -1.9277   35.8787 C   0  0  0  0  0  0  0  0  0  0  0  0
   33.7101   -1.3885   36.5978 C   0  0  0  0  0  0  0  0  0  0  0  0
   31.5553   -0.3670   36.1715 C   0  0  0  0  0  0  0  0  0  0  0  0
   27.3225   -0.6947   36.3571 C   0  0  0  0  0  0  0  0  0  0  0  0
   27.9506    0.4746   36.7385 C   0  0  0  0  0  0  0  0  0  0  0  0
   28.5018    2.4917   37.5755 C   0  0  0  0  0  0  0  0  0  0  0  0
   29.3246    0.5423   36.6602 C   0  0  0  0  0  0  0  0  0  0  0  0
   36.2020   -0.6806   36.0171 C   0  0  0  0  0  0  0  0  0  0  0  0
   37.4969    0.0091   35.7833 C   0  0  0  0  0  0  0  0  0  0  0  0
   38.4333   -0.2451   34.8214 C   0  0  0  0  0  0  0  0  0  0  0  0
   39.4889    0.6434   34.9713 C   0  0  0  0  0  0  0  0  0  0  0  0
   39.9364    2.4975   36.5905 C   0  0  0  0  0  0  0  0  0  0  0  0
   39.1557    1.4111   36.0267 N   0  0  0  0  0  0  0  0  0  0  0  0
   37.9796    1.0410   36.5103 N   0  0  0  0  0  0  0  0  0  0  0  0
   34.7474    0.2211   36.6389 S   0  0  0  0  0  0  0  0  0  0  0  0
   34.4877   -2.1253   36.2113 N   0  0  0  0  0  0  0  0  0  0  0  0
   36.6525   -3.0437   35.3842 C   0  0  0  0  0  0  0  0  0  0  0  0
   32.3150   -1.2093   37.0368 N   0  0  0  0  0  0  0  0  0  0  0  0
   30.1113   -0.5082   36.2168 C   0  0  0  0  0  0  0  0  0  0  0  0
   29.4698   -1.6628   35.8416 C   0  0  0  0  0  0  0  0  0  0  0  0
   27.4160    1.6803   37.2216 O   0  0  0  0  0  0  0  0  0  0  0  0
   29.6683    1.8061   37.0982 O   0  0  0  0  0  0  0  0  0  0  0  0
   28.0715   -1.7494   35.9151 C   0  0  0  0  0  0  0  0  0  0  0  0
  1  8  2  0
 16  1  1  0
 17  1  1  6
  2 15  1  0
  2 16  2  0
 18  2  1  0
  3 18  1  1
 19  3  1  0
  5  4  2  0
  4 23  1  0
  7  5  1  0
  5 21  1  0
  6 21  1  1
  6 22  1  0
 19  7  2  0
  7 22  1  0
  8  9  1  0
 15  8  1  0
  9 10  1  0
  9 14  2  0
 10 11  2  0
 11 13  1  0
 12 13  1  6
 14 13  1  0
 19 20  1  0
 20 23  2  0
M  END
$$$$
