
     RDKit          3D

 23 26  0  0  0  0  0  0  0  0999 V2000
   35.2497   -0.0097   36.2022 C   0  0  0  0  0  0  0  0  0  0  0  0
   33.1771   -0.8229   36.6507 C   0  0  0  0  0  0  0  0  0  0  0  0
   30.9153   -1.7892   36.7080 C   0  0  0  0  0  0  0  0  0  0  0  0
   27.4206    0.1018   35.2690 C   0  0  0  0  0  0  0  0  0  0  0  0
   28.2713    0.7879   36.1080 C   0  0  0  0  0  0  0  0  0  0  0  0
   29.0595    2.1035   37.7747 C   0  0  0  0  0  0  0  0  0  0  0  0
   29.4190    0.1814   36.5862 C   0  0  0  0  0  0  0  0  0  0  0  0
   35.4256   -1.0674   35.3512 C   0  0  0  0  0  0  0  0  0  0  0  0
   36.5526   -1.4632   34.5006 C   0  0  0  0  0  0  0  0  0  0  0  0
   37.5765   -0.7653   33.9425 C   0  0  0  0  0  0  0  0  0  0  0  0
   38.3786   -1.6035   33.2215 C   0  0  0  0  0  0  0  0  0  0  0  0
   38.3430   -4.0536   32.7436 C   0  0  0  0  0  0  0  0  0  0  0  0
   37.8229   -2.8270   33.3514 N   0  0  0  0  0  0  0  0  0  0  0  0
   36.7424   -2.7439   34.1084 N   0  0  0  0  0  0  0  0  0  0  0  0
   33.9028   -1.8791   35.5261 S   0  0  0  0  0  0  0  0  0  0  0  0
   34.1189    0.0807   36.8324 N   0  0  0  0  0  0  0  0  0  0  0  0
   36.3526    1.0203   36.3924 C   0  0  0  0  0  0  0  0  0  0  0  0
   31.8752   -0.8814   37.2569 N   0  0  0  0  0  0  0  0  0  0  0  0
   29.7045   -1.1137   36.2171 C   0  0  0  0  0  0  0  0  0  0  0  0
   28.8345   -1.7706   35.3782 C   0  0  0  0  0  0  0  0  0  0  0  0
   28.2114    2.0959   36.6277 O   0  0  0  0  0  0  0  0  0  0  0  0
   30.0418    1.1316   37.3912 O   0  0  0  0  0  0  0  0  0  0  0  0
   27.6819   -1.2136   34.8757 C   0  0  0  0  0  0  0  0  0  0  0  0
  1  8  2  0
 16  1  1  0
  1 17  1  0
  2 15  1  0
  2 16  2  0
 18  2  1  0
  3 18  1  0
 19  3  1  0
  5  4  2  0
  4 23  1  0
  7  5  1  0
  5 21  1  0
 21  6  1  0
  6 22  1  0
 19  7  2  0
  7 22  1  0
  8  9  1  0
 15  8  1  0
  9 10  1  0
  9 14  2  0
 10 11  2  0
 11 13  1  0
 13 12  1  0
 14 13  1  0
 19 20  1  0
 20 23  2  0
M  END
$$$$
