
     RDKit          3D

 23 26  0  0  0  0  0  0  0  0999 V2000
   34.4216   -0.0644   36.2881 C   0  0  0  0  0  0  0  0  0  0  0  0
   32.8109   -1.6231   36.3200 C   0  0  0  0  0  0  0  0  0  0  0  0
   30.5887   -1.9834   37.2146 C   0  0  0  0  0  0  0  0  0  0  0  0
   27.6653    0.2788   35.1185 C   0  0  0  0  0  0  0  0  0  0  0  0
   28.4557    0.8776   36.0798 C   0  0  0  0  0  0  0  0  0  0  0  0
   29.3837    2.2423   37.6126 C   0  0  0  0  0  0  0  0  0  0  0  0
   29.3947    0.1106   36.7345 C   0  0  0  0  0  0  0  0  0  0  0  0
   35.1775   -0.7800   35.4616 C   0  0  0  0  0  0  0  0  0  0  0  0
   36.5051   -0.5898   34.8227 C   0  0  0  0  0  0  0  0  0  0  0  0
   36.7951   -0.4319   33.4969 C   0  0  0  0  0  0  0  0  0  0  0  0
   38.1670   -0.2837   33.3481 C   0  0  0  0  0  0  0  0  0  0  0  0
   40.0634   -0.2610   34.9799 C   0  0  0  0  0  0  0  0  0  0  0  0
   38.6666   -0.3583   34.5968 N   0  0  0  0  0  0  0  0  0  0  0  0
   37.6892   -0.5389   35.4721 N   0  0  0  0  0  0  0  0  0  0  0  0
   34.1932   -2.2840   35.1706 S   0  0  0  0  0  0  0  0  0  0  0  0
   33.2597   -0.6229   36.6285 N   0  0  0  0  0  0  0  0  0  0  0  0
   34.8484    1.2904   36.8006 C   0  0  0  0  0  0  0  0  0  0  0  0
   31.6656   -2.5393   36.4619 N   0  0  0  0  0  0  0  0  0  0  0  0
   29.5862   -1.2369   36.4765 C   0  0  0  0  0  0  0  0  0  0  0  0
   28.7917   -1.8154   35.5177 C   0  0  0  0  0  0  0  0  0  0  0  0
   28.4806    2.2037   36.5423 O   0  0  0  0  0  0  0  0  0  0  0  0
   30.0248    0.9587   37.6238 O   0  0  0  0  0  0  0  0  0  0  0  0
   27.8302   -1.0496   34.8414 C   0  0  0  0  0  0  0  0  0  0  0  0
  1  8  2  0
 16  1  1  0
 17  1  1  6
  2 15  1  0
  2 16  2  0
 18  2  1  0
  3 18  1  1
 19  3  1  0
  5  4  2  0
  4 23  1  0
  7  5  1  0
  5 21  1  0
  6 21  1  1
  6 22  1  0
 19  7  2  0
  7 22  1  0
  8  9  1  0
 15  8  1  0
  9 10  1  0
  9 14  2  0
 10 11  2  0
 11 13  1  0
 12 13  1  6
 14 13  1  0
 19 20  1  0
 20 23  2  0
M  END
$$$$
