
     RDKit          3D

 23 26  0  0  0  0  0  0  0  0999 V2000
   35.0505   -1.9783   35.0252 C   0  0  0  0  0  0  0  0  0  0  0  0
   33.2698   -1.9500   36.3867 C   0  0  0  0  0  0  0  0  0  0  0  0
   31.3459   -0.8697   37.3866 C   0  0  0  0  0  0  0  0  0  0  0  0
   27.5917   -0.4191   35.4472 C   0  0  0  0  0  0  0  0  0  0  0  0
   28.0430    0.5431   36.3292 C   0  0  0  0  0  0  0  0  0  0  0  0
   28.2743    2.2770   37.7482 C   0  0  0  0  0  0  0  0  0  0  0  0
   29.2673    0.3619   36.9348 C   0  0  0  0  0  0  0  0  0  0  0  0
   35.4450   -0.7727   35.4220 C   0  0  0  0  0  0  0  0  0  0  0  0
   36.5784    0.1256   35.0822 C   0  0  0  0  0  0  0  0  0  0  0  0
   37.8918   -0.1988   34.8911 C   0  0  0  0  0  0  0  0  0  0  0  0
   38.6033    0.9537   34.5885 C   0  0  0  0  0  0  0  0  0  0  0  0
   37.9361    3.3536   34.3533 C   0  0  0  0  0  0  0  0  0  0  0  0
   37.6919    1.9453   34.6074 N   0  0  0  0  0  0  0  0  0  0  0  0
   36.4937    1.4618   34.8984 N   0  0  0  0  0  0  0  0  0  0  0  0
   34.1895   -0.2906   36.6495 S   0  0  0  0  0  0  0  0  0  0  0  0
   33.9384   -2.4345   35.6024 N   0  0  0  0  0  0  0  0  0  0  0  0
   35.8136   -2.7774   33.9961 C   0  0  0  0  0  0  0  0  0  0  0  0
   32.0554   -2.0945   37.2086 N   0  0  0  0  0  0  0  0  0  0  0  0
   30.0717   -0.7419   36.7032 C   0  0  0  0  0  0  0  0  0  0  0  0
   29.6071   -1.6882   35.8234 C   0  0  0  0  0  0  0  0  0  0  0  0
   27.4488    1.7445   36.7493 O   0  0  0  0  0  0  0  0  0  0  0  0
   29.4545    1.4611   37.7496 O   0  0  0  0  0  0  0  0  0  0  0  0
   28.3626   -1.5201   35.1979 C   0  0  0  0  0  0  0  0  0  0  0  0
  1  8  2  0
 16  1  1  0
 17  1  1  6
  2 15  1  0
  2 16  2  0
 18  2  1  0
  3 18  1  1
 19  3  1  0
  5  4  2  0
  4 23  1  0
  7  5  1  0
  5 21  1  0
  6 21  1  1
  6 22  1  0
 19  7  2  0
  7 22  1  0
  8  9  1  0
 15  8  1  0
  9 10  1  0
  9 14  2  0
 10 11  2  0
 11 13  1  0
 12 13  1  6
 14 13  1  0
 19 20  1  0
 20 23  2  0
M  END
$$$$
