
     RDKit          3D

 23 26  0  0  0  0  0  0  0  0999 V2000
   34.4989    0.2272   36.9105 C   0  0  0  0  0  0  0  0  0  0  0  0
   32.8341   -1.3056   37.1027 C   0  0  0  0  0  0  0  0  0  0  0  0
   30.6565   -2.3729   36.6884 C   0  0  0  0  0  0  0  0  0  0  0  0
   27.0016   -0.2682   36.9549 C   0  0  0  0  0  0  0  0  0  0  0  0
   28.0493    0.2719   36.2415 C   0  0  0  0  0  0  0  0  0  0  0  0
   29.5609    1.7366   35.4051 C   0  0  0  0  0  0  0  0  0  0  0  0
   29.2511   -0.4063   36.1455 C   0  0  0  0  0  0  0  0  0  0  0  0
   35.0165   -0.5361   35.8990 C   0  0  0  0  0  0  0  0  0  0  0  0
   36.2017   -0.3667   35.0521 C   0  0  0  0  0  0  0  0  0  0  0  0
   37.0092    0.6964   34.7980 C   0  0  0  0  0  0  0  0  0  0  0  0
   37.9944    0.3392   33.9217 C   0  0  0  0  0  0  0  0  0  0  0  0
   38.5836   -1.7818   32.7442 C   0  0  0  0  0  0  0  0  0  0  0  0
   37.7710   -0.9635   33.6467 N   0  0  0  0  0  0  0  0  0  0  0  0
   36.7102   -1.3812   34.3158 N   0  0  0  0  0  0  0  0  0  0  0  0
   33.8649   -1.8322   35.8510 S   0  0  0  0  0  0  0  0  0  0  0  0
   33.4121   -0.1856   37.4873 N   0  0  0  0  0  0  0  0  0  0  0  0
   35.1851    1.5170   37.3337 C   0  0  0  0  0  0  0  0  0  0  0  0
   31.6372   -1.9095   37.6212 N   0  0  0  0  0  0  0  0  0  0  0  0
   29.3922   -1.6256   36.7689 C   0  0  0  0  0  0  0  0  0  0  0  0
   28.3269   -2.1367   37.4731 C   0  0  0  0  0  0  0  0  0  0  0  0
   28.1628    1.4793   35.5247 O   0  0  0  0  0  0  0  0  0  0  0  0
   30.0799    0.4002   35.3699 O   0  0  0  0  0  0  0  0  0  0  0  0
   27.1127   -1.5035   37.5989 C   0  0  0  0  0  0  0  0  0  0  0  0
  1  8  2  0
 16  1  1  0
  1 17  1  0
  2 15  1  0
  2 16  2  0
 18  2  1  0
  3 18  1  0
 19  3  1  0
  5  4  2  0
  4 23  1  0
  7  5  1  0
  5 21  1  0
 21  6  1  0
  6 22  1  0
 19  7  2  0
  7 22  1  0
  8  9  1  0
 15  8  1  0
  9 10  1  0
  9 14  2  0
 10 11  2  0
 11 13  1  0
 13 12  1  0
 14 13  1  0
 19 20  1  0
 20 23  2  0
M  END
$$$$
