
     RDKit          3D

 23 26  0  0  0  0  0  0  0  0999 V2000
   35.6455   -1.3986   36.4859 C   0  0  0  0  0  0  0  0  0  0  0  0
   33.5388   -0.7962   36.0123 C   0  0  0  0  0  0  0  0  0  0  0  0
   31.2418   -1.3553   36.5411 C   0  0  0  0  0  0  0  0  0  0  0  0
   27.0837   -0.5381   36.2254 C   0  0  0  0  0  0  0  0  0  0  0  0
   27.9464    0.4128   36.7341 C   0  0  0  0  0  0  0  0  0  0  0  0
   28.9035    2.1929   37.7284 C   0  0  0  0  0  0  0  0  0  0  0  0
   29.2882    0.1106   36.8167 C   0  0  0  0  0  0  0  0  0  0  0  0
   36.0973   -0.1593   36.3228 C   0  0  0  0  0  0  0  0  0  0  0  0
   37.4277    0.4945   36.4209 C   0  0  0  0  0  0  0  0  0  0  0  0
   37.7403    1.8140   36.2529 C   0  0  0  0  0  0  0  0  0  0  0  0
   39.1054    1.9828   36.4376 C   0  0  0  0  0  0  0  0  0  0  0  0
   40.9585    0.3932   36.9845 C   0  0  0  0  0  0  0  0  0  0  0  0
   39.5784    0.7518   36.7122 N   0  0  0  0  0  0  0  0  0  0  0  0
   38.5915   -0.1314   36.7038 N   0  0  0  0  0  0  0  0  0  0  0  0
   34.6055    0.7896   35.8875 S   0  0  0  0  0  0  0  0  0  0  0  0
   34.3357   -1.5592   36.2949 N   0  0  0  0  0  0  0  0  0  0  0  0
   36.5534   -2.5434   36.8669 C   0  0  0  0  0  0  0  0  0  0  0  0
   32.1113   -0.5784   35.7191 N   0  0  0  0  0  0  0  0  0  0  0  0
   29.8177   -1.1045   36.4140 C   0  0  0  0  0  0  0  0  0  0  0  0
   28.9453   -2.0378   35.9108 C   0  0  0  0  0  0  0  0  0  0  0  0
   27.6941    1.7091   37.2127 O   0  0  0  0  0  0  0  0  0  0  0  0
   29.8969    1.2279   37.3537 O   0  0  0  0  0  0  0  0  0  0  0  0
   27.5758   -1.7471   35.8197 C   0  0  0  0  0  0  0  0  0  0  0  0
  1  8  2  0
 16  1  1  0
 17  1  1  6
  2 15  1  0
  2 16  2  0
 18  2  1  0
  3 18  1  1
 19  3  1  0
  5  4  2  0
  4 23  1  0
  7  5  1  0
  5 21  1  0
  6 21  1  1
  6 22  1  0
 19  7  2  0
  7 22  1  0
  8  9  1  0
 15  8  1  0
  9 10  1  0
  9 14  2  0
 10 11  2  0
 11 13  1  0
 12 13  1  6
 14 13  1  0
 19 20  1  0
 20 23  2  0
M  END
$$$$
