
     RDKit          3D

 23 26  0  0  0  0  0  0  0  0999 V2000
   34.8584    0.6391   35.9478 C   0  0  0  0  0  0  0  0  0  0  0  0
   33.4807   -0.9349   36.7538 C   0  0  0  0  0  0  0  0  0  0  0  0
   31.2813   -1.9204   36.5098 C   0  0  0  0  0  0  0  0  0  0  0  0
   28.3043    1.0792   36.9547 C   0  0  0  0  0  0  0  0  0  0  0  0
   28.0870   -0.0040   36.1261 C   0  0  0  0  0  0  0  0  0  0  0  0
   27.3324   -1.4719   34.5934 C   0  0  0  0  0  0  0  0  0  0  0  0
   29.0755   -0.9571   36.0117 C   0  0  0  0  0  0  0  0  0  0  0  0
   35.8302   -0.2413   35.7306 C   0  0  0  0  0  0  0  0  0  0  0  0
   37.2117   -0.1678   35.1892 C   0  0  0  0  0  0  0  0  0  0  0  0
   38.3604   -0.6842   35.7190 C   0  0  0  0  0  0  0  0  0  0  0  0
   39.4227   -0.3804   34.8792 C   0  0  0  0  0  0  0  0  0  0  0  0
   39.5794    0.8659   32.7154 C   0  0  0  0  0  0  0  0  0  0  0  0
   38.8794    0.3156   33.8620 N   0  0  0  0  0  0  0  0  0  0  0  0
   37.5733    0.4441   34.0398 N   0  0  0  0  0  0  0  0  0  0  0  0
   35.1125   -1.8207   36.2836 S   0  0  0  0  0  0  0  0  0  0  0  0
   33.7374    0.1368   36.4662 N   0  0  0  0  0  0  0  0  0  0  0  0
   35.0130    2.1057   35.6235 C   0  0  0  0  0  0  0  0  0  0  0  0
   32.4558   -1.8327   37.3148 N   0  0  0  0  0  0  0  0  0  0  0  0
   30.2820   -0.8828   36.6885 C   0  0  0  0  0  0  0  0  0  0  0  0
   30.4807    0.2009   37.5079 C   0  0  0  0  0  0  0  0  0  0  0  0
   26.9781   -0.3338   35.3294 O   0  0  0  0  0  0  0  0  0  0  0  0
   28.5898   -1.9046   35.1322 O   0  0  0  0  0  0  0  0  0  0  0  0
   29.4851    1.1810   37.6361 C   0  0  0  0  0  0  0  0  0  0  0  0
  1  8  2  0
 16  1  1  0
 17  1  1  6
  2 15  1  0
  2 16  2  0
 18  2  1  0
  3 18  1  1
 19  3  1  0
  5  4  2  0
  4 23  1  0
  7  5  1  0
  5 21  1  0
  6 21  1  1
  6 22  1  0
 19  7  2  0
  7 22  1  0
  8  9  1  0
 15  8  1  0
  9 10  1  0
  9 14  2  0
 10 11  2  0
 11 13  1  0
 12 13  1  6
 14 13  1  0
 19 20  1  0
 20 23  2  0
M  END
$$$$
