
     RDKit          3D

 23 26  0  0  0  0  0  0  0  0999 V2000
   34.5256    0.4523   36.1836 C   0  0  0  0  0  0  0  0  0  0  0  0
   32.8009   -0.9128   36.7494 C   0  0  0  0  0  0  0  0  0  0  0  0
   30.5832   -1.8978   36.3443 C   0  0  0  0  0  0  0  0  0  0  0  0
   27.2155    0.4902   35.4414 C   0  0  0  0  0  0  0  0  0  0  0  0
   28.1609    0.9525   36.3306 C   0  0  0  0  0  0  0  0  0  0  0  0
   29.1374    1.8987   38.1421 C   0  0  0  0  0  0  0  0  0  0  0  0
   29.2683    0.1816   36.6351 C   0  0  0  0  0  0  0  0  0  0  0  0
   35.2079   -0.6621   35.7757 C   0  0  0  0  0  0  0  0  0  0  0  0
   36.5447   -0.8355   35.1984 C   0  0  0  0  0  0  0  0  0  0  0  0
   37.5584   -1.7010   35.4635 C   0  0  0  0  0  0  0  0  0  0  0  0
   38.6177   -1.4509   34.6380 C   0  0  0  0  0  0  0  0  0  0  0  0
   39.0469    0.2049   32.8196 C   0  0  0  0  0  0  0  0  0  0  0  0
   38.2290   -0.4152   33.8642 N   0  0  0  0  0  0  0  0  0  0  0  0
   37.0023   -0.0512   34.1958 N   0  0  0  0  0  0  0  0  0  0  0  0
   34.0426   -1.8990   36.1229 S   0  0  0  0  0  0  0  0  0  0  0  0
   33.3305    0.2907   36.6630 N   0  0  0  0  0  0  0  0  0  0  0  0
   35.1596    1.8303   36.0714 C   0  0  0  0  0  0  0  0  0  0  0  0
   31.5028   -1.2770   37.2475 N   0  0  0  0  0  0  0  0  0  0  0  0
   29.4185   -1.0518   36.0424 C   0  0  0  0  0  0  0  0  0  0  0  0
   28.4566   -1.4838   35.1591 C   0  0  0  0  0  0  0  0  0  0  0  0
   28.2428    2.1546   37.0607 O   0  0  0  0  0  0  0  0  0  0  0  0
   30.0096    0.9278   37.5476 O   0  0  0  0  0  0  0  0  0  0  0  0
   27.3387   -0.7570   34.8228 C   0  0  0  0  0  0  0  0  0  0  0  0
  1  8  2  0
 16  1  1  0
  1 17  1  0
  2 15  1  0
  2 16  2  0
 18  2  1  0
  3 18  1  0
 19  3  1  0
  5  4  2  0
  4 23  1  0
  7  5  1  0
  5 21  1  0
 21  6  1  0
  6 22  1  0
 19  7  2  0
  7 22  1  0
  8  9  1  0
 15  8  1  0
  9 10  1  0
  9 14  2  0
 10 11  2  0
 11 13  1  0
 13 12  1  0
 14 13  1  0
 19 20  1  0
 20 23  2  0
M  END
$$$$
