
     RDKit          3D

 23 26  0  0  0  0  0  0  0  0999 V2000
   35.6451   -0.9053   36.1178 C   0  0  0  0  0  0  0  0  0  0  0  0
   33.6828    0.0645   36.6017 C   0  0  0  0  0  0  0  0  0  0  0  0
   31.4441   -0.5188   37.3202 C   0  0  0  0  0  0  0  0  0  0  0  0
   27.3914   -0.2288   36.0755 C   0  0  0  0  0  0  0  0  0  0  0  0
   28.2496   -1.1193   35.4608 C   0  0  0  0  0  0  0  0  0  0  0  0
   29.2652   -2.5915   34.0916 C   0  0  0  0  0  0  0  0  0  0  0  0
   29.5553   -1.1859   35.8959 C   0  0  0  0  0  0  0  0  0  0  0  0
   36.2648    0.2663   36.0178 C   0  0  0  0  0  0  0  0  0  0  0  0
   37.6539    0.6967   35.7141 C   0  0  0  0  0  0  0  0  0  0  0  0
   38.7421   -0.0807   35.4339 C   0  0  0  0  0  0  0  0  0  0  0  0
   39.8389    0.7397   35.2105 C   0  0  0  0  0  0  0  0  0  0  0  0
   40.1399    3.2234   35.2346 C   0  0  0  0  0  0  0  0  0  0  0  0
   39.3765    1.9954   35.3646 N   0  0  0  0  0  0  0  0  0  0  0  0
   38.0861    1.9760   35.6621 N   0  0  0  0  0  0  0  0  0  0  0  0
   34.9515    1.4794   36.3627 S   0  0  0  0  0  0  0  0  0  0  0  0
   34.3473   -0.8418   36.4172 N   0  0  0  0  0  0  0  0  0  0  0  0
   36.3642   -2.2170   35.9121 C   0  0  0  0  0  0  0  0  0  0  0  0
   32.3224    0.5320   36.9208 N   0  0  0  0  0  0  0  0  0  0  0  0
   30.0530   -0.4007   36.9229 C   0  0  0  0  0  0  0  0  0  0  0  0
   29.1857    0.4788   37.5225 C   0  0  0  0  0  0  0  0  0  0  0  0
   28.0246   -2.0238   34.4099 O   0  0  0  0  0  0  0  0  0  0  0  0
   30.1682   -2.1443   35.1130 O   0  0  0  0  0  0  0  0  0  0  0  0
   27.8528    0.5600   37.0921 C   0  0  0  0  0  0  0  0  0  0  0  0
  1  8  2  0
 16  1  1  0
 17  1  1  6
  2 15  1  0
  2 16  2  0
 18  2  1  0
  3 18  1  1
 19  3  1  0
  5  4  2  0
  4 23  1  0
  7  5  1  0
  5 21  1  0
  6 21  1  1
  6 22  1  0
 19  7  2  0
  7 22  1  0
  8  9  1  0
 15  8  1  0
  9 10  1  0
  9 14  2  0
 10 11  2  0
 11 13  1  0
 12 13  1  6
 14 13  1  0
 19 20  1  0
 20 23  2  0
M  END
$$$$
