
     RDKit          3D

 23 26  0  0  0  0  0  0  0  0999 V2000
   35.2847   -1.9081   35.6186 C   0  0  0  0  0  0  0  0  0  0  0  0
   33.1427   -2.2799   36.1650 C   0  0  0  0  0  0  0  0  0  0  0  0
   31.0496   -1.7504   37.2636 C   0  0  0  0  0  0  0  0  0  0  0  0
   27.7520    0.2617   35.4929 C   0  0  0  0  0  0  0  0  0  0  0  0
   28.6285    0.9439   36.3136 C   0  0  0  0  0  0  0  0  0  0  0  0
   29.6745    2.4241   37.6509 C   0  0  0  0  0  0  0  0  0  0  0  0
   29.6875    0.2565   36.8657 C   0  0  0  0  0  0  0  0  0  0  0  0
   35.1915   -0.6125   35.9003 C   0  0  0  0  0  0  0  0  0  0  0  0
   36.1261    0.5415   35.8559 C   0  0  0  0  0  0  0  0  0  0  0  0
   36.4681    1.3970   36.8648 C   0  0  0  0  0  0  0  0  0  0  0  0
   37.3759    2.3283   36.3803 C   0  0  0  0  0  0  0  0  0  0  0  0
   38.4158    2.6818   34.1324 C   0  0  0  0  0  0  0  0  0  0  0  0
   37.5545    2.0050   35.0850 N   0  0  0  0  0  0  0  0  0  0  0  0
   36.8187    0.9498   34.7697 N   0  0  0  0  0  0  0  0  0  0  0  0
   33.4642   -0.4119   36.4404 S   0  0  0  0  0  0  0  0  0  0  0  0
   34.1690   -2.6147   35.8024 N   0  0  0  0  0  0  0  0  0  0  0  0
   36.5681   -2.5359   35.1300 C   0  0  0  0  0  0  0  0  0  0  0  0
   31.7636   -2.6985   36.4722 N   0  0  0  0  0  0  0  0  0  0  0  0
   29.9179   -1.0904   36.6385 C   0  0  0  0  0  0  0  0  0  0  0  0
   29.0365   -1.7525   35.8199 C   0  0  0  0  0  0  0  0  0  0  0  0
   28.6407    2.2900   36.7149 O   0  0  0  0  0  0  0  0  0  0  0  0
   30.3819    1.1761   37.6269 O   0  0  0  0  0  0  0  0  0  0  0  0
   27.9525   -1.0684   35.2495 C   0  0  0  0  0  0  0  0  0  0  0  0
  1  8  2  0
 16  1  1  0
 17  1  1  6
  2 15  1  0
  2 16  2  0
 18  2  1  0
  3 18  1  1
 19  3  1  0
  5  4  2  0
  4 23  1  0
  7  5  1  0
  5 21  1  0
  6 21  1  1
  6 22  1  0
 19  7  2  0
  7 22  1  0
  8  9  1  0
 15  8  1  0
  9 10  1  0
  9 14  2  0
 10 11  2  0
 11 13  1  0
 12 13  1  6
 14 13  1  0
 19 20  1  0
 20 23  2  0
M  END
$$$$
