
     RDKit          3D

 23 26  0  0  0  0  0  0  0  0999 V2000
   35.3700   -0.2895   36.2068 C   0  0  0  0  0  0  0  0  0  0  0  0
   33.2015   -0.7358   36.7134 C   0  0  0  0  0  0  0  0  0  0  0  0
   30.9339   -1.5930   37.1324 C   0  0  0  0  0  0  0  0  0  0  0  0
   27.4980    0.0565   35.3067 C   0  0  0  0  0  0  0  0  0  0  0  0
   28.1910    0.7904   36.2445 C   0  0  0  0  0  0  0  0  0  0  0  0
   28.6783    2.1342   38.0014 C   0  0  0  0  0  0  0  0  0  0  0  0
   29.3176    0.2631   36.8497 C   0  0  0  0  0  0  0  0  0  0  0  0
   35.2750   -1.2188   35.2062 C   0  0  0  0  0  0  0  0  0  0  0  0
   36.2465   -1.6952   34.2164 C   0  0  0  0  0  0  0  0  0  0  0  0
   37.1830   -1.0602   33.4637 C   0  0  0  0  0  0  0  0  0  0  0  0
   37.8456   -1.9613   32.6796 C   0  0  0  0  0  0  0  0  0  0  0  0
   37.6887   -4.4329   32.3650 C   0  0  0  0  0  0  0  0  0  0  0  0
   37.2941   -3.1589   32.9697 N   0  0  0  0  0  0  0  0  0  0  0  0
   36.3478   -3.0013   33.8792 N   0  0  0  0  0  0  0  0  0  0  0  0
   33.6287   -1.7306   35.3963 S   0  0  0  0  0  0  0  0  0  0  0  0
   34.3191   -0.0745   36.9373 N   0  0  0  0  0  0  0  0  0  0  0  0
   36.6717    0.4610   36.4429 C   0  0  0  0  0  0  0  0  0  0  0  0
   31.9513   -0.6275   37.4142 N   0  0  0  0  0  0  0  0  0  0  0  0
   29.7410   -1.0014   36.5076 C   0  0  0  0  0  0  0  0  0  0  0  0
   29.0266   -1.7075   35.5679 C   0  0  0  0  0  0  0  0  0  0  0  0
   27.9725    2.0820   36.7627 O   0  0  0  0  0  0  0  0  0  0  0  0
   29.7690    1.2439   37.7290 O   0  0  0  0  0  0  0  0  0  0  0  0
   27.9017   -1.2295   34.9375 C   0  0  0  0  0  0  0  0  0  0  0  0
  1  8  2  0
 16  1  1  0
  1 17  1  0
  2 15  1  0
  2 16  2  0
 18  2  1  0
  3 18  1  0
 19  3  1  0
  5  4  2  0
  4 23  1  0
  7  5  1  0
  5 21  1  0
 21  6  1  0
  6 22  1  0
 19  7  2  0
  7 22  1  0
  8  9  1  0
 15  8  1  0
  9 10  1  0
  9 14  2  0
 10 11  2  0
 11 13  1  0
 13 12  1  0
 14 13  1  0
 19 20  1  0
 20 23  2  0
M  END
$$$$
