
     RDKit          3D

 23 26  0  0  0  0  0  0  0  0999 V2000
   35.0220   -1.8164   35.5638 C   0  0  0  0  0  0  0  0  0  0  0  0
   32.9099   -1.8293   36.3988 C   0  0  0  0  0  0  0  0  0  0  0  0
   30.7891   -1.6149   37.6272 C   0  0  0  0  0  0  0  0  0  0  0  0
   27.4504    0.1332   35.7150 C   0  0  0  0  0  0  0  0  0  0  0  0
   28.2403    0.8995   36.5439 C   0  0  0  0  0  0  0  0  0  0  0  0
   28.9101    2.3801   38.1216 C   0  0  0  0  0  0  0  0  0  0  0  0
   29.3365    0.3405   37.1759 C   0  0  0  0  0  0  0  0  0  0  0  0
   35.1343   -0.5252   36.0041 C   0  0  0  0  0  0  0  0  0  0  0  0
   36.2340    0.4422   35.9320 C   0  0  0  0  0  0  0  0  0  0  0  0
   37.5537    0.3175   35.6325 C   0  0  0  0  0  0  0  0  0  0  0  0
   38.1693    1.5347   35.7061 C   0  0  0  0  0  0  0  0  0  0  0  0
   37.3910    3.8420   36.2567 C   0  0  0  0  0  0  0  0  0  0  0  0
   37.1979    2.4042   36.0566 N   0  0  0  0  0  0  0  0  0  0  0  0
   36.0527    1.7576   36.1901 N   0  0  0  0  0  0  0  0  0  0  0  0
   33.5698   -0.2893   36.7149 S   0  0  0  0  0  0  0  0  0  0  0  0
   33.9013   -2.4351   35.7770 N   0  0  0  0  0  0  0  0  0  0  0  0
   36.1824   -2.4928   34.8501 C   0  0  0  0  0  0  0  0  0  0  0  0
   31.6111   -2.3547   36.7196 N   0  0  0  0  0  0  0  0  0  0  0  0
   29.6320   -0.9882   36.9701 C   0  0  0  0  0  0  0  0  0  0  0  0
   28.8233   -1.7253   36.1366 C   0  0  0  0  0  0  0  0  0  0  0  0
   28.1576    2.2557   36.9161 O   0  0  0  0  0  0  0  0  0  0  0  0
   29.9059    1.3671   37.9247 O   0  0  0  0  0  0  0  0  0  0  0  0
   27.7235   -1.2180   35.4853 C   0  0  0  0  0  0  0  0  0  0  0  0
  1  8  2  0
 16  1  1  0
  1 17  1  0
  2 15  1  0
  2 16  2  0
 18  2  1  0
  3 18  1  0
 19  3  1  0
  5  4  2  0
  4 23  1  0
  7  5  1  0
  5 21  1  0
 21  6  1  0
  6 22  1  0
 19  7  2  0
  7 22  1  0
  8  9  1  0
 15  8  1  0
  9 10  1  0
  9 14  2  0
 10 11  2  0
 11 13  1  0
 13 12  1  0
 14 13  1  0
 19 20  1  0
 20 23  2  0
M  END
$$$$
