
     RDKit          3D

 23 26  0  0  0  0  0  0  0  0999 V2000
   35.4915   -0.7393   36.6185 C   0  0  0  0  0  0  0  0  0  0  0  0
   33.3556   -1.1761   37.1402 C   0  0  0  0  0  0  0  0  0  0  0  0
   31.1701   -2.1270   36.7065 C   0  0  0  0  0  0  0  0  0  0  0  0
   27.6500   -0.0194   35.6000 C   0  0  0  0  0  0  0  0  0  0  0  0
   28.4641    0.4597   36.6074 C   0  0  0  0  0  0  0  0  0  0  0  0
   29.3720    1.5482   38.3579 C   0  0  0  0  0  0  0  0  0  0  0  0
   29.5986   -0.2509   36.9341 C   0  0  0  0  0  0  0  0  0  0  0  0
   35.2259   -0.7021   35.3167 C   0  0  0  0  0  0  0  0  0  0  0  0
   36.0278   -0.4699   34.0879 C   0  0  0  0  0  0  0  0  0  0  0  0
   35.9818   -1.1482   32.9027 C   0  0  0  0  0  0  0  0  0  0  0  0
   36.9045   -0.5929   32.0273 C   0  0  0  0  0  0  0  0  0  0  0  0
   38.5238    1.3027   32.2380 C   0  0  0  0  0  0  0  0  0  0  0  0
   37.4839    0.4095   32.7157 N   0  0  0  0  0  0  0  0  0  0  0  0
   36.9696    0.4869   33.9337 N   0  0  0  0  0  0  0  0  0  0  0  0
   33.4372   -1.0319   35.2321 S   0  0  0  0  0  0  0  0  0  0  0  0
   34.4465   -0.9888   37.4082 N   0  0  0  0  0  0  0  0  0  0  0  0
   36.8804   -0.5088   37.1642 C   0  0  0  0  0  0  0  0  0  0  0  0
   32.0084   -1.4733   37.6580 N   0  0  0  0  0  0  0  0  0  0  0  0
   29.9649   -1.4271   36.3006 C   0  0  0  0  0  0  0  0  0  0  0  0
   29.1438   -1.8884   35.3015 C   0  0  0  0  0  0  0  0  0  0  0  0
   28.3421    1.6060   37.4099 O   0  0  0  0  0  0  0  0  0  0  0  0
   30.2058    0.4518   37.9562 O   0  0  0  0  0  0  0  0  0  0  0  0
   27.9845   -1.1778   34.9559 C   0  0  0  0  0  0  0  0  0  0  0  0
  1  8  2  0
 16  1  1  0
 17  1  1  6
  2 15  1  0
  2 16  2  0
 18  2  1  0
  3 18  1  1
 19  3  1  0
  5  4  2  0
  4 23  1  0
  7  5  1  0
  5 21  1  0
  6 21  1  1
  6 22  1  0
 19  7  2  0
  7 22  1  0
  8  9  1  0
 15  8  1  0
  9 10  1  0
  9 14  2  0
 10 11  2  0
 11 13  1  0
 12 13  1  6
 14 13  1  0
 19 20  1  0
 20 23  2  0
M  END
$$$$
