
     RDKit          3D

 23 26  0  0  0  0  0  0  0  0999 V2000
   34.8039   -1.5648   35.3483 C   0  0  0  0  0  0  0  0  0  0  0  0
   32.7997   -1.7091   36.4068 C   0  0  0  0  0  0  0  0  0  0  0  0
   30.6588   -1.4989   37.6006 C   0  0  0  0  0  0  0  0  0  0  0  0
   27.4446    0.0186   35.3146 C   0  0  0  0  0  0  0  0  0  0  0  0
   28.0791    0.8348   36.2254 C   0  0  0  0  0  0  0  0  0  0  0  0
   28.4591    2.3516   37.8639 C   0  0  0  0  0  0  0  0  0  0  0  0
   29.1329    0.3514   36.9800 C   0  0  0  0  0  0  0  0  0  0  0  0
   34.9450   -0.3169   35.8930 C   0  0  0  0  0  0  0  0  0  0  0  0
   36.0144    0.6812   35.7911 C   0  0  0  0  0  0  0  0  0  0  0  0
   36.0334    2.0314   35.9451 C   0  0  0  0  0  0  0  0  0  0  0  0
   37.2964    2.5098   35.7406 C   0  0  0  0  0  0  0  0  0  0  0  0
   39.4818    1.4486   35.1658 C   0  0  0  0  0  0  0  0  0  0  0  0
   38.0472    1.4238   35.4589 N   0  0  0  0  0  0  0  0  0  0  0  0
   37.2885    0.3417   35.4889 N   0  0  0  0  0  0  0  0  0  0  0  0
   33.4669   -0.1880   36.7914 S   0  0  0  0  0  0  0  0  0  0  0  0
   33.7241   -2.2293   35.6249 N   0  0  0  0  0  0  0  0  0  0  0  0
   35.8871   -2.1424   34.4502 C   0  0  0  0  0  0  0  0  0  0  0  0
   31.5535   -2.2953   36.8183 N   0  0  0  0  0  0  0  0  0  0  0  0
   29.5428   -0.9523   36.8139 C   0  0  0  0  0  0  0  0  0  0  0  0
   28.8881   -1.7406   35.8963 C   0  0  0  0  0  0  0  0  0  0  0  0
   27.8593    2.1801   36.5810 O   0  0  0  0  0  0  0  0  0  0  0  0
   29.5397    1.4121   37.7851 O   0  0  0  0  0  0  0  0  0  0  0  0
   27.8366   -1.3090   35.1223 C   0  0  0  0  0  0  0  0  0  0  0  0
  1  8  2  0
 16  1  1  0
  1 17  1  0
  2 15  1  0
  2 16  2  0
 18  2  1  0
  3 18  1  0
 19  3  1  0
  5  4  2  0
  4 23  1  0
  7  5  1  0
  5 21  1  0
 21  6  1  0
  6 22  1  0
 19  7  2  0
  7 22  1  0
  8  9  1  0
 15  8  1  0
  9 10  1  0
  9 14  2  0
 10 11  2  0
 11 13  1  0
 13 12  1  0
 14 13  1  0
 19 20  1  0
 20 23  2  0
M  END
$$$$
