
     RDKit          3D

 40 44  0  0  0  0  0  0  0  0999 V2000
   36.1958   -4.1583   18.4638 C   0  0  0  0  0  0  0  0  0  0  0  0
   36.7608   -4.6641   19.5889 C   0  0  0  0  0  0  0  0  0  0  0  0
   37.1347   -3.9112   20.6999 C   0  0  0  0  0  0  0  0  0  0  0  0
   35.3801   -5.3815   16.1707 C   0  0  1  0  0  0  0  0  0  0  0  0
   36.3095   -5.1470   14.9946 C   0  0  0  0  0  0  0  0  0  0  0  0
   35.8178   -4.9672   13.7028 C   0  0  0  0  0  0  0  0  0  0  0  0
   36.6481   -4.7710   12.6201 C   0  0  0  0  0  0  0  0  0  0  0  0
   38.0059   -4.7565   12.8520 C   0  0  0  0  0  0  0  0  0  0  0  0
   38.5040   -4.9347   14.1331 C   0  0  0  0  0  0  0  0  0  0  0  0
   37.6604   -5.1340   15.2294 C   0  0  0  0  0  0  0  0  0  0  0  0
   34.8427   -6.7344   16.1569 C   0  0  0  0  0  0  0  0  0  0  0  0
   33.5267   -7.0428   16.0781 C   0  0  0  0  0  0  0  0  0  0  0  0
   33.0870   -8.3827   16.0670 C   0  0  0  0  0  0  0  0  0  0  0  0
   34.0049   -9.3989   16.1365 C   0  0  0  0  0  0  0  0  0  0  0  0
   35.3509   -9.0697   16.2169 C   0  0  0  0  0  0  0  0  0  0  0  0
   34.5092   -4.3986   11.8848 C   0  0  1  0  0  0  0  0  0  0  0  0
   36.9302   -2.5780   20.6797 C   0  0  0  0  0  0  0  0  0  0  0  0
   36.3589   -1.9857   19.5685 C   0  0  0  0  0  0  0  0  0  0  0  0
   35.9964   -2.7308   18.4870 C   0  0  0  0  0  0  0  0  0  0  0  0
   35.4242   -2.1091   17.3767 N   0  0  0  0  0  0  0  0  0  0  0  0
   37.3700   -1.5547   22.0541 S   0  0  1  0  0  6  0  0  0  0  0  0
   38.2569   -2.3660   22.9637 O   0  0  0  0  0  0  0  0  0  0  0  0
   38.0708   -0.3256   21.5597 O   0  0  0  0  0  0  0  0  0  0  0  0
   35.9347   -1.2135   22.9235 N   0  0  0  0  0  0  0  0  0  0  0  0
   35.6985   -7.7951   16.2233 N   0  0  0  0  0  0  0  0  0  0  0  0
   32.3129   -5.8239   15.9758 Cl  0  0  0  0  0  0  0  0  0  0  0  0
   35.7889   -4.7683   17.3202 N   0  0  0  0  0  0  0  0  0  0  0  0
   34.5240   -4.9375   13.1908 O   0  0  0  0  0  0  0  0  0  0  0  0
   35.8539   -4.6272   11.4861 O   0  0  0  0  0  0  0  0  0  0  0  0
   33.6014   -5.0221   11.0564 F   0  0  0  0  0  0  0  0  0  0  0  0
   34.3334   -3.0136   11.8897 F   0  0  0  0  0  0  0  0  0  0  0  0
   34.6545   -0.9400   17.4128 C   0  0  0  0  0  0  0  0  0  0  0  0
   34.0669   -0.3020   16.4054 N   0  0  0  0  0  0  0  0  0  0  0  0
   33.3493    0.8098   16.4530 C   0  0  0  0  0  0  0  0  0  0  0  0
   33.1856    1.3764   17.6671 N   0  0  0  0  0  0  0  0  0  0  0  0
   33.7342    0.8150   18.7409 C   0  0  0  0  0  0  0  0  0  0  0  0
   34.4533   -0.3157   18.6314 N   0  0  0  0  0  0  0  0  0  0  0  0
   33.5425    1.4332   19.9820 O   0  0  0  0  0  0  0  0  0  0  0  0
   33.9766    0.7658   21.1446 C   0  0  0  0  0  0  0  0  0  0  0  0
   32.7604    1.4218   15.3140 N   0  0  0  0  0  0  0  0  0  0  0  0
  1  2  2  0
  1 19  1  0
 27  1  1  0
  2  3  1  0
  3 17  2  0
  4  5  1  0
  4 11  1  0
  4 27  1  1
  5  6  2  0
  5 10  1  0
  6  7  1  0
  6 28  1  0
  7  8  2  0
  7 29  1  0
  8  9  1  0
  9 10  2  0
 11 12  2  0
 11 25  1  0
 12 13  1  0
 12 26  1  0
 13 14  2  0
 14 15  1  0
 15 25  2  0
 28 16  1  0
 16 29  1  0
 16 30  1  6
 16 31  1  0
 17 18  1  0
 17 21  1  0
 18 19  2  0
 19 20  1  0
 20 32  1  0
 21 22  2  0
 21 23  2  0
 21 24  1  1
 32 33  2  0
 32 37  1  0
 33 34  1  0
 34 35  2  0
 34 40  1  0
 35 36  1  0
 36 37  2  0
 36 38  1  0
 39 38  1  6
M  END
$$$$
