
     RDKit          3D

 40 44  0  0  0  0  0  0  0  0999 V2000
   35.9977   -3.4218   19.2636 C   0  0  0  0  0  0  0  0  0  0  0  0
   35.7888   -4.4603   20.1867 C   0  0  0  0  0  0  0  0  0  0  0  0
   35.6510   -4.2076   21.5317 C   0  0  0  0  0  0  0  0  0  0  0  0
   36.0287   -5.0506   17.4032 C   0  0  1  0  0  0  0  0  0  0  0  0
   34.9788   -5.2596   16.3770 C   0  0  0  0  0  0  0  0  0  0  0  0
   34.4331   -6.5487   16.3309 C   0  0  0  0  0  0  0  0  0  0  0  0
   33.4561   -6.9192   15.4349 C   0  0  0  0  0  0  0  0  0  0  0  0
   32.9962   -5.9586   14.5371 C   0  0  0  0  0  0  0  0  0  0  0  0
   33.5182   -4.6831   14.5637 C   0  0  0  0  0  0  0  0  0  0  0  0
   34.5122   -4.3416   15.4898 C   0  0  0  0  0  0  0  0  0  0  0  0
   37.2997   -5.5826   16.7988 C   0  0  0  0  0  0  0  0  0  0  0  0
   37.8349   -6.7774   17.2356 C   0  0  0  0  0  0  0  0  0  0  0  0
   39.0042   -7.3082   16.7392 C   0  0  0  0  0  0  0  0  0  0  0  0
   39.6592   -6.5969   15.7572 C   0  0  0  0  0  0  0  0  0  0  0  0
   39.1236   -5.4180   15.3315 C   0  0  0  0  0  0  0  0  0  0  0  0
   33.5105   -8.5360   16.9790 C   0  0  1  0  0  0  0  0  0  0  0  0
   35.7159   -2.9178   22.0015 C   0  0  0  0  0  0  0  0  0  0  0  0
   35.9175   -1.9224   21.1013 C   0  0  0  0  0  0  0  0  0  0  0  0
   36.0641   -2.1253   19.7223 C   0  0  0  0  0  0  0  0  0  0  0  0
   36.2674   -1.0138   18.8710 N   0  0  0  0  0  0  0  0  0  0  0  0
   35.5348   -2.6511   23.7203 S   0  0  1  0  0  6  0  0  0  0  0  0
   36.4101   -3.6427   24.4592 O   0  0  0  0  0  0  0  0  0  0  0  0
   36.0555   -1.2796   24.0973 O   0  0  0  0  0  0  0  0  0  0  0  0
   33.9136   -2.8282   24.2385 N   0  0  0  0  0  0  0  0  0  0  0  0
   37.9812   -4.9328   15.8400 N   0  0  0  0  0  0  0  0  0  0  0  0
   37.0066   -7.6864   18.4783 Cl  0  0  0  0  0  0  0  0  0  0  0  0
   36.1249   -3.7174   17.8801 N   0  0  0  0  0  0  0  0  0  0  0  0
   34.6774   -7.7145   17.0833 O   0  0  0  0  0  0  0  0  0  0  0  0
   33.1125   -8.2663   15.6301 O   0  0  0  0  0  0  0  0  0  0  0  0
   33.7611   -9.8533   17.2075 F   0  0  0  0  0  0  0  0  0  0  0  0
   32.5149   -8.0077   17.7868 F   0  0  0  0  0  0  0  0  0  0  0  0
   35.6010    0.2230   19.0412 C   0  0  0  0  0  0  0  0  0  0  0  0
   35.8992    1.2572   18.2541 N   0  0  0  0  0  0  0  0  0  0  0  0
   35.2759    2.4627   18.3938 C   0  0  0  0  0  0  0  0  0  0  0  0
   34.3430    2.5701   19.3618 N   0  0  0  0  0  0  0  0  0  0  0  0
   34.0173    1.5533   20.1711 C   0  0  0  0  0  0  0  0  0  0  0  0
   34.6709    0.3706   19.9881 N   0  0  0  0  0  0  0  0  0  0  0  0
   33.0672    1.6298   21.1721 O   0  0  0  0  0  0  0  0  0  0  0  0
   32.8402    0.5035   21.9926 C   0  0  0  0  0  0  0  0  0  0  0  0
   35.5690    3.5811   17.5723 N   0  0  0  0  0  0  0  0  0  0  0  0
  1  2  2  0
  1 19  1  0
 27  1  1  0
  2  3  1  0
  3 17  2  0
  4  5  1  0
  4 11  1  0
  4 27  1  6
  5  6  2  0
  5 10  1  0
  6  7  1  0
  6 28  1  0
  7  8  2  0
  7 29  1  0
  8  9  1  0
  9 10  2  0
 11 12  2  0
 11 25  1  0
 12 13  1  0
 12 26  1  0
 13 14  2  0
 14 15  1  0
 15 25  2  0
 28 16  1  0
 16 29  1  0
 16 30  1  6
 16 31  1  0
 17 18  1  0
 17 21  1  0
 18 19  2  0
 19 20  1  0
 20 32  1  0
 21 22  2  0
 21 23  2  0
 21 24  1  1
 32 33  2  0
 32 37  1  0
 33 34  1  0
 34 35  2  0
 34 40  1  0
 35 36  1  0
 36 37  2  0
 36 38  1  0
 38 39  1  0
M  END
$$$$
