
     RDKit          3D

 40 44  0  0  0  0  0  0  0  0999 V2000
   35.2303   -1.1006   18.1538 C   0  0  0  0  0  0  0  0  0  0  0  0
   35.1804   -0.0983   17.2408 C   0  0  0  0  0  0  0  0  0  0  0  0
   34.9999    1.2490   17.5464 C   0  0  0  0  0  0  0  0  0  0  0  0
   35.5641   -3.7859   17.8405 C   0  0  1  0  0  0  0  0  0  0  0  0
   35.1947   -4.5907   19.0725 C   0  0  0  0  0  0  0  0  0  0  0  0
   35.9487   -5.6913   19.4762 C   0  0  0  0  0  0  0  0  0  0  0  0
   35.6176   -6.4444   20.5822 C   0  0  0  0  0  0  0  0  0  0  0  0
   34.4982   -6.0740   21.2942 C   0  0  0  0  0  0  0  0  0  0  0  0
   33.7420   -4.9812   20.9002 C   0  0  0  0  0  0  0  0  0  0  0  0
   34.0792   -4.2191   19.7783 C   0  0  0  0  0  0  0  0  0  0  0  0
   35.1813   -4.4825   16.6210 C   0  0  0  0  0  0  0  0  0  0  0  0
   36.0418   -5.1176   15.7908 C   0  0  0  0  0  0  0  0  0  0  0  0
   35.5889   -5.7734   14.6273 C   0  0  0  0  0  0  0  0  0  0  0  0
   34.2516   -5.7726   14.3246 C   0  0  0  0  0  0  0  0  0  0  0  0
   33.3797   -5.1181   15.1836 C   0  0  0  0  0  0  0  0  0  0  0  0
   37.6810   -7.1639   19.8901 C   0  0  1  0  0  0  0  0  0  0  0  0
   34.8619    1.6089   18.8391 C   0  0  0  0  0  0  0  0  0  0  0  0
   34.9011    0.6455   19.8301 C   0  0  0  0  0  0  0  0  0  0  0  0
   35.0785   -0.6696   19.5210 C   0  0  0  0  0  0  0  0  0  0  0  0
   35.1117   -1.6230   20.5391 N   0  0  0  0  0  0  0  0  0  0  0  0
   34.6373    3.2996   19.3086 S   0  0  1  0  0  6  0  0  0  0  0  0
   35.0831    3.4400   20.7416 O   0  0  0  0  0  0  0  0  0  0  0  0
   35.4353    4.1829   18.3979 O   0  0  0  0  0  0  0  0  0  0  0  0
   32.9569    3.6271   19.2696 N   0  0  0  0  0  0  0  0  0  0  0  0
   33.8667   -4.5221   16.2575 N   0  0  0  0  0  0  0  0  0  0  0  0
   37.7347   -5.1738   16.1076 Cl  0  0  0  0  0  0  0  0  0  0  0  0
   35.3969   -2.4397   17.9976 N   0  0  0  0  0  0  0  0  0  0  0  0
   37.0989   -6.2777   18.9564 O   0  0  0  0  0  0  0  0  0  0  0  0
   36.5602   -7.4603   20.7120 O   0  0  0  0  0  0  0  0  0  0  0  0
   38.2148   -8.2900   19.3018 F   0  0  0  0  0  0  0  0  0  0  0  0
   38.6104   -6.5245   20.7128 F   0  0  0  0  0  0  0  0  0  0  0  0
   35.0215   -1.3460   21.9086 C   0  0  0  0  0  0  0  0  0  0  0  0
   34.8104   -0.1778   22.5068 N   0  0  0  0  0  0  0  0  0  0  0  0
   34.7374    0.0714   23.8052 C   0  0  0  0  0  0  0  0  0  0  0  0
   34.8946   -0.9808   24.6360 N   0  0  0  0  0  0  0  0  0  0  0  0
   35.1108   -2.1944   24.1365 C   0  0  0  0  0  0  0  0  0  0  0  0
   35.1749   -2.3871   22.8074 N   0  0  0  0  0  0  0  0  0  0  0  0
   35.2696   -3.2596   25.0305 O   0  0  0  0  0  0  0  0  0  0  0  0
   35.5208   -4.5458   24.5127 C   0  0  0  0  0  0  0  0  0  0  0  0
   34.5101    1.3626   24.3525 N   0  0  0  0  0  0  0  0  0  0  0  0
  1  2  2  0
  1 19  1  0
 27  1  1  0
  2  3  1  0
  3 17  2  0
  4  5  1  0
  4 11  1  0
  4 27  1  1
  5  6  2  0
  5 10  1  0
  6  7  1  0
  6 28  1  0
  7  8  2  0
  7 29  1  0
  8  9  1  0
  9 10  2  0
 11 12  2  0
 11 25  1  0
 12 13  1  0
 12 26  1  0
 13 14  2  0
 14 15  1  0
 15 25  2  0
 28 16  1  0
 16 29  1  0
 16 30  1  6
 16 31  1  0
 17 18  1  0
 17 21  1  0
 18 19  2  0
 19 20  1  0
 20 32  1  0
 21 22  2  0
 21 23  2  0
 21 24  1  1
 32 33  2  0
 32 37  1  0
 33 34  1  0
 34 35  2  0
 34 40  1  0
 35 36  1  0
 36 37  2  0
 36 38  1  0
 39 38  1  6
M  END
$$$$
