
     RDKit          3D

 40 44  0  0  0  0  0  0  0  0999 V2000
   36.9618   -6.9350   12.5019 C   0  0  0  0  0  0  0  0  0  0  0  0
   37.7360   -8.0925   12.3144 C   0  0  0  0  0  0  0  0  0  0  0  0
   38.5797   -8.5579   13.2959 C   0  0  0  0  0  0  0  0  0  0  0  0
   35.8560   -7.2797   10.3171 C   0  0  1  0  0  0  0  0  0  0  0  0
   34.4247   -7.4272    9.9585 C   0  0  0  0  0  0  0  0  0  0  0  0
   34.0294   -8.7182    9.5861 C   0  0  0  0  0  0  0  0  0  0  0  0
   32.7417   -9.0316    9.2145 C   0  0  0  0  0  0  0  0  0  0  0  0
   31.7960   -8.0088    9.2127 C   0  0  0  0  0  0  0  0  0  0  0  0
   32.1616   -6.7302    9.5756 C   0  0  0  0  0  0  0  0  0  0  0  0
   33.4821   -6.4479    9.9480 C   0  0  0  0  0  0  0  0  0  0  0  0
   36.5370   -6.7759    9.0735 C   0  0  0  0  0  0  0  0  0  0  0  0
   36.8942   -7.6517    8.0685 C   0  0  0  0  0  0  0  0  0  0  0  0
   37.5373   -7.2583    6.9164 C   0  0  0  0  0  0  0  0  0  0  0  0
   37.8308   -5.9190    6.7773 C   0  0  0  0  0  0  0  0  0  0  0  0
   37.4742   -5.0610    7.7747 C   0  0  0  0  0  0  0  0  0  0  0  0
   33.7606  -10.9872    9.5866 C   0  0  1  0  0  0  0  0  0  0  0  0
   38.6806   -7.8901   14.4926 C   0  0  0  0  0  0  0  0  0  0  0  0
   37.9280   -6.7737   14.6634 C   0  0  0  0  0  0  0  0  0  0  0  0
   37.0541   -6.2575   13.6969 C   0  0  0  0  0  0  0  0  0  0  0  0
   36.3128   -5.0864   13.9806 N   0  0  0  0  0  0  0  0  0  0  0  0
   39.7680   -8.5236   15.7069 S   0  0  1  0  0  6  0  0  0  0  0  0
   39.8809  -10.0230   15.5211 O   0  0  0  0  0  0  0  0  0  0  0  0
   41.1646   -7.9754   15.4995 O   0  0  0  0  0  0  0  0  0  0  0  0
   39.2336   -8.1871   17.2973 N   0  0  0  0  0  0  0  0  0  0  0  0
   36.8482   -5.4825    8.8835 N   0  0  0  0  0  0  0  0  0  0  0  0
   36.5211   -9.3513    8.2372 Cl  0  0  0  0  0  0  0  0  0  0  0  0
   36.0925   -6.4883   11.4710 N   0  0  0  0  0  0  0  0  0  0  0  0
   34.7281   -9.9375    9.4874 O   0  0  0  0  0  0  0  0  0  0  0  0
   32.6527  -10.3965    8.8981 O   0  0  0  0  0  0  0  0  0  0  0  0
   34.1770  -12.1538    9.0243 F   0  0  0  0  0  0  0  0  0  0  0  0
   33.3680  -11.1133   10.9105 F   0  0  0  0  0  0  0  0  0  0  0  0
   36.2468   -4.5058   15.2696 C   0  0  0  0  0  0  0  0  0  0  0  0
   35.7718   -3.2694   15.4227 N   0  0  0  0  0  0  0  0  0  0  0  0
   35.6966   -2.6813   16.6514 C   0  0  0  0  0  0  0  0  0  0  0  0
   36.1227   -3.4001   17.7101 N   0  0  0  0  0  0  0  0  0  0  0  0
   36.6058   -4.6443   17.5947 C   0  0  0  0  0  0  0  0  0  0  0  0
   36.6587   -5.1843   16.3437 N   0  0  0  0  0  0  0  0  0  0  0  0
   37.0505   -5.4074   18.6579 O   0  0  0  0  0  0  0  0  0  0  0  0
   37.4333   -6.7472   18.4305 C   0  0  0  0  0  0  0  0  0  0  0  0
   35.1954   -1.3692   16.8480 N   0  0  0  0  0  0  0  0  0  0  0  0
  1  2  2  0
  1 19  1  0
 27  1  1  0
  2  3  1  0
  3 17  2  0
  4  5  1  0
  4 11  1  0
  4 27  1  1
  5  6  2  0
  5 10  1  0
  6  7  1  0
  6 28  1  0
  7  8  2  0
  7 29  1  0
  8  9  1  0
  9 10  2  0
 11 12  2  0
 11 25  1  0
 12 13  1  0
 12 26  1  0
 13 14  2  0
 14 15  1  0
 15 25  2  0
 28 16  1  0
 16 29  1  0
 16 30  1  6
 16 31  1  0
 17 18  1  0
 17 21  1  0
 18 19  2  0
 19 20  1  0
 20 32  1  0
 21 22  2  0
 21 23  2  0
 21 24  1  1
 32 33  2  0
 32 37  1  0
 33 34  1  0
 34 35  2  0
 34 40  1  0
 35 36  1  0
 36 37  2  0
 36 38  1  0
 38 39  1  0
M  END
$$$$
