
     RDKit          3D

 40 44  0  0  0  0  0  0  0  0999 V2000
   34.2667   -8.9214   13.5048 C   0  0  0  0  0  0  0  0  0  0  0  0
   33.9838   -8.8215   14.8280 C   0  0  0  0  0  0  0  0  0  0  0  0
   34.8797   -8.3888   15.8033 C   0  0  0  0  0  0  0  0  0  0  0  0
   32.7292   -9.7295   11.4064 C   0  0  1  0  0  0  0  0  0  0  0  0
   33.4238   -9.6071   10.0631 C   0  0  0  0  0  0  0  0  0  0  0  0
   33.1132   -8.5797    9.1739 C   0  0  0  0  0  0  0  0  0  0  0  0
   33.7213   -8.4636    7.9423 C   0  0  0  0  0  0  0  0  0  0  0  0
   34.6645   -9.4091    7.6049 C   0  0  0  0  0  0  0  0  0  0  0  0
   34.9797  -10.4346    8.4826 C   0  0  0  0  0  0  0  0  0  0  0  0
   34.3616  -10.5507    9.7307 C   0  0  0  0  0  0  0  0  0  0  0  0
   31.8965  -10.9222   11.4630 C   0  0  0  0  0  0  0  0  0  0  0  0
   30.5596  -10.9427   11.2502 C   0  0  0  0  0  0  0  0  0  0  0  0
   29.8242  -12.1439   11.3206 C   0  0  0  0  0  0  0  0  0  0  0  0
   30.4694  -13.3189   11.6093 C   0  0  0  0  0  0  0  0  0  0  0  0
   31.8400  -13.2847   11.8252 C   0  0  0  0  0  0  0  0  0  0  0  0
   32.4939   -6.5527    8.2527 C   0  0  1  0  0  0  0  0  0  0  0  0
   36.1273   -8.0377   15.4294 C   0  0  0  0  0  0  0  0  0  0  0  0
   36.4937   -8.1120   14.0982 C   0  0  0  0  0  0  0  0  0  0  0  0
   35.6102   -8.5361   13.1517 C   0  0  0  0  0  0  0  0  0  0  0  0
   36.0051   -8.6049   11.8153 N   0  0  0  0  0  0  0  0  0  0  0  0
   37.3197   -7.4706   16.6067 S   0  0  1  0  0  6  0  0  0  0  0  0
   36.6277   -7.3574   17.9410 O   0  0  0  0  0  0  0  0  0  0  0  0
   38.4654   -8.4352   16.6641 O   0  0  0  0  0  0  0  0  0  0  0  0
   37.7874   -5.8889   16.1463 N   0  0  0  0  0  0  0  0  0  0  0  0
   32.4716  -12.1270   11.7453 N   0  0  0  0  0  0  0  0  0  0  0  0
   29.6784   -9.5111   10.8711 Cl  0  0  0  0  0  0  0  0  0  0  0  0
   33.4999   -9.3245   12.4584 N   0  0  0  0  0  0  0  0  0  0  0  0
   32.2211   -7.5143    9.2513 O   0  0  0  0  0  0  0  0  0  0  0  0
   33.1947   -7.3447    7.3034 O   0  0  0  0  0  0  0  0  0  0  0  0
   31.3532   -5.9864    7.7261 F   0  0  0  0  0  0  0  0  0  0  0  0
   33.3948   -5.5804    8.6913 F   0  0  0  0  0  0  0  0  0  0  0  0
   37.2189   -8.1277   11.3061 C   0  0  0  0  0  0  0  0  0  0  0  0
   37.7193   -8.2711   10.0829 N   0  0  0  0  0  0  0  0  0  0  0  0
   38.8748   -7.8223    9.6174 C   0  0  0  0  0  0  0  0  0  0  0  0
   39.6509   -7.1323   10.4797 N   0  0  0  0  0  0  0  0  0  0  0  0
   39.2402   -6.9332   11.7291 C   0  0  0  0  0  0  0  0  0  0  0  0
   38.0554   -7.4131   12.1458 N   0  0  0  0  0  0  0  0  0  0  0  0
   40.0737   -6.2137   12.5932 O   0  0  0  0  0  0  0  0  0  0  0  0
   39.8545   -6.3111   13.9817 C   0  0  0  0  0  0  0  0  0  0  0  0
   39.3272   -8.0301    8.2867 N   0  0  0  0  0  0  0  0  0  0  0  0
  1  2  2  0
  1 19  1  0
 27  1  1  0
  2  3  1  0
  3 17  2  0
  4  5  1  0
  4 11  1  0
  4 27  1  1
  5  6  2  0
  5 10  1  0
  6  7  1  0
  6 28  1  0
  7  8  2  0
  7 29  1  0
  8  9  1  0
  9 10  2  0
 11 12  2  0
 11 25  1  0
 12 13  1  0
 12 26  1  0
 13 14  2  0
 14 15  1  0
 15 25  2  0
 28 16  1  0
 16 29  1  0
 16 30  1  6
 16 31  1  0
 17 18  1  0
 17 21  1  0
 18 19  2  0
 19 20  1  0
 20 32  1  0
 21 22  2  0
 21 23  2  0
 21 24  1  6
 32 33  2  0
 32 37  1  0
 33 34  1  0
 34 35  2  0
 34 40  1  0
 35 36  1  0
 36 37  2  0
 36 38  1  0
 39 38  1  6
M  END
$$$$
