
     RDKit          3D

 40 44  0  0  0  0  0  0  0  0999 V2000
   33.6147   -9.1135   12.8627 C   0  0  0  0  0  0  0  0  0  0  0  0
   32.3595   -9.4184   13.2778 C   0  0  0  0  0  0  0  0  0  0  0  0
   31.9376   -9.4175   14.6056 C   0  0  0  0  0  0  0  0  0  0  0  0
   34.7009   -9.0395   10.3658 C   0  0  1  0  0  0  0  0  0  0  0  0
   33.8239   -8.3411    9.3435 C   0  0  0  0  0  0  0  0  0  0  0  0
   33.6920   -8.8275    8.0439 C   0  0  0  0  0  0  0  0  0  0  0  0
   32.9140   -8.1960    7.0973 C   0  0  0  0  0  0  0  0  0  0  0  0
   32.2556   -7.0470    7.4762 C   0  0  0  0  0  0  0  0  0  0  0  0
   32.3810   -6.5556    8.7662 C   0  0  0  0  0  0  0  0  0  0  0  0
   33.1707   -7.1972    9.7243 C   0  0  0  0  0  0  0  0  0  0  0  0
   36.1096   -8.7531   10.1360 C   0  0  0  0  0  0  0  0  0  0  0  0
   36.9934   -9.6156    9.5812 C   0  0  0  0  0  0  0  0  0  0  0  0
   38.3443   -9.2590    9.3895 C   0  0  0  0  0  0  0  0  0  0  0  0
   38.7786   -8.0152    9.7697 C   0  0  0  0  0  0  0  0  0  0  0  0
   37.8628   -7.1401   10.3371 C   0  0  0  0  0  0  0  0  0  0  0  0
   33.5522  -10.2029    6.1920 C   0  0  1  0  0  0  0  0  0  0  0  0
   32.8246   -9.0929   15.5687 C   0  0  0  0  0  0  0  0  0  0  0  0
   34.1248   -8.7697   15.2268 C   0  0  0  0  0  0  0  0  0  0  0  0
   34.5276   -8.7731   13.9253 C   0  0  0  0  0  0  0  0  0  0  0  0
   35.8459   -8.4459   13.6063 N   0  0  0  0  0  0  0  0  0  0  0  0
   32.3639   -9.0609   17.2764 S   0  0  1  0  0  6  0  0  0  0  0  0
   32.1730   -7.6191   17.6722 O   0  0  0  0  0  0  0  0  0  0  0  0
   31.1067   -9.8533   17.4713 O   0  0  0  0  0  0  0  0  0  0  0  0
   33.6897   -9.6597   18.1797 N   0  0  0  0  0  0  0  0  0  0  0  0
   36.6111   -7.5345   10.4900 N   0  0  0  0  0  0  0  0  0  0  0  0
   36.5235  -11.1917    9.0668 Cl  0  0  0  0  0  0  0  0  0  0  0  0
   34.1564   -9.0767   11.6175 N   0  0  0  0  0  0  0  0  0  0  0  0
   34.2311   -9.9388    7.4026 O   0  0  0  0  0  0  0  0  0  0  0  0
   32.9937   -8.9259    5.9148 O   0  0  0  0  0  0  0  0  0  0  0  0
   34.3911  -10.6393    5.1895 F   0  0  0  0  0  0  0  0  0  0  0  0
   32.4732  -11.0702    6.3729 F   0  0  0  0  0  0  0  0  0  0  0  0
   36.6211   -7.4832   14.2641 C   0  0  0  0  0  0  0  0  0  0  0  0
   37.8576   -7.0821   13.9861 N   0  0  0  0  0  0  0  0  0  0  0  0
   38.5832   -6.1765   14.6238 C   0  0  0  0  0  0  0  0  0  0  0  0
   38.0098   -5.5784   15.6894 N   0  0  0  0  0  0  0  0  0  0  0  0
   36.7732   -5.9097   16.0507 C   0  0  0  0  0  0  0  0  0  0  0  0
   36.0838   -6.8374   15.3639 N   0  0  0  0  0  0  0  0  0  0  0  0
   36.2138   -5.2677   17.1616 O   0  0  0  0  0  0  0  0  0  0  0  0
   34.9149   -5.6308   17.5698 C   0  0  0  0  0  0  0  0  0  0  0  0
   39.9057   -5.8153   14.2509 N   0  0  0  0  0  0  0  0  0  0  0  0
  1  2  2  0
  1 19  1  0
 27  1  1  0
  2  3  1  0
  3 17  2  0
  4  5  1  0
  4 11  1  0
  4 27  1  1
  5  6  2  0
  5 10  1  0
  6  7  1  0
  6 28  1  0
  7  8  2  0
  7 29  1  0
  8  9  1  0
  9 10  2  0
 11 12  2  0
 11 25  1  0
 12 13  1  0
 12 26  1  0
 13 14  2  0
 14 15  1  0
 15 25  2  0
 28 16  1  0
 16 29  1  0
 16 30  1  6
 16 31  1  0
 17 18  1  0
 17 21  1  0
 18 19  2  0
 19 20  1  0
 20 32  1  0
 21 22  2  0
 21 23  2  0
 21 24  1  1
 32 33  2  0
 32 37  1  0
 33 34  1  0
 34 35  2  0
 34 40  1  0
 35 36  1  0
 36 37  2  0
 36 38  1  0
 39 38  1  6
M  END
$$$$
