
     RDKit          3D

 40 44  0  0  0  0  0  0  0  0999 V2000
   35.9326   -7.6245   13.0507 C   0  0  0  0  0  0  0  0  0  0  0  0
   34.7015   -8.0539   13.5743 C   0  0  0  0  0  0  0  0  0  0  0  0
   34.4760   -8.1011   14.9304 C   0  0  0  0  0  0  0  0  0  0  0  0
   35.1653   -8.1177   10.7522 C   0  0  1  0  0  0  0  0  0  0  0  0
   34.6612   -7.1574    9.7409 C   0  0  0  0  0  0  0  0  0  0  0  0
   33.5481   -7.5874    9.0076 C   0  0  0  0  0  0  0  0  0  0  0  0
   32.9573   -6.8272    8.0240 C   0  0  0  0  0  0  0  0  0  0  0  0
   33.5003   -5.5731    7.7542 C   0  0  0  0  0  0  0  0  0  0  0  0
   34.5957   -5.1284    8.4631 C   0  0  0  0  0  0  0  0  0  0  0  0
   35.1712   -5.9297    9.4575 C   0  0  0  0  0  0  0  0  0  0  0  0
   35.6472   -9.3120    9.9742 C   0  0  0  0  0  0  0  0  0  0  0  0
   34.8708  -10.4498    9.8878 C   0  0  0  0  0  0  0  0  0  0  0  0
   35.2622  -11.5823    9.2100 C   0  0  0  0  0  0  0  0  0  0  0  0
   36.4943  -11.5604    8.5928 C   0  0  0  0  0  0  0  0  0  0  0  0
   37.2545  -10.4326    8.6830 C   0  0  0  0  0  0  0  0  0  0  0  0
   31.5026   -8.4618    8.4859 C   0  0  1  0  0  0  0  0  0  0  0  0
   35.4641   -7.7235   15.8076 C   0  0  0  0  0  0  0  0  0  0  0  0
   36.6491   -7.3100   15.2912 C   0  0  0  0  0  0  0  0  0  0  0  0
   36.9302   -7.2434   13.9197 C   0  0  0  0  0  0  0  0  0  0  0  0
   38.2004   -6.7935   13.4887 N   0  0  0  0  0  0  0  0  0  0  0  0
   35.1262   -7.8025   17.5216 S   0  0  1  0  0  6  0  0  0  0  0  0
   35.7806   -6.6160   18.1994 O   0  0  0  0  0  0  0  0  0  0  0  0
   33.6399   -7.6531   17.7719 O   0  0  0  0  0  0  0  0  0  0  0  0
   35.7002   -9.2499   18.2314 N   0  0  0  0  0  0  0  0  0  0  0  0
   36.8384   -9.3478    9.3532 N   0  0  0  0  0  0  0  0  0  0  0  0
   33.3051  -10.4824   10.6652 Cl  0  0  0  0  0  0  0  0  0  0  0  0
   36.1278   -7.5778   11.6445 N   0  0  0  0  0  0  0  0  0  0  0  0
   32.7852   -8.7714    9.0398 O   0  0  0  0  0  0  0  0  0  0  0  0
   31.8691   -7.5206    7.4708 O   0  0  0  0  0  0  0  0  0  0  0  0
   30.8550   -9.5519    7.9934 F   0  0  0  0  0  0  0  0  0  0  0  0
   30.7680   -7.7507    9.4227 F   0  0  0  0  0  0  0  0  0  0  0  0
   39.3702   -6.9086   14.2768 C   0  0  0  0  0  0  0  0  0  0  0  0
   39.3553   -7.6370   15.3935 N   0  0  0  0  0  0  0  0  0  0  0  0
   40.4657   -7.7664   16.1755 C   0  0  0  0  0  0  0  0  0  0  0  0
   41.5839   -7.1274   15.7754 N   0  0  0  0  0  0  0  0  0  0  0  0
   41.6364   -6.3871   14.6600 C   0  0  0  0  0  0  0  0  0  0  0  0
   40.4981   -6.2914   13.9153 N   0  0  0  0  0  0  0  0  0  0  0  0
   42.7648   -5.7198   14.2220 O   0  0  0  0  0  0  0  0  0  0  0  0
   42.6679   -4.8664   13.1014 C   0  0  0  0  0  0  0  0  0  0  0  0
   40.4830   -8.5345   17.3676 N   0  0  0  0  0  0  0  0  0  0  0  0
  1  2  2  0
  1 19  1  0
 27  1  1  0
  2  3  1  0
  3 17  2  0
  4  5  1  0
  4 11  1  0
  4 27  1  6
  5  6  2  0
  5 10  1  0
  6  7  1  0
  6 28  1  0
  7  8  2  0
  7 29  1  0
  8  9  1  0
  9 10  2  0
 11 12  2  0
 11 25  1  0
 12 13  1  0
 12 26  1  0
 13 14  2  0
 14 15  1  0
 15 25  2  0
 28 16  1  0
 16 29  1  0
 16 30  1  6
 16 31  1  0
 17 18  1  0
 17 21  1  0
 18 19  2  0
 19 20  1  0
 20 32  1  0
 21 22  2  0
 21 23  2  0
 21 24  1  1
 32 33  2  0
 32 37  1  0
 33 34  1  0
 34 35  2  0
 34 40  1  0
 35 36  1  0
 36 37  2  0
 36 38  1  0
 38 39  1  0
M  END
$$$$
