
     RDKit          3D

 40 44  0  0  0  0  0  0  0  0999 V2000
   35.0377   -7.9415   13.5919 C   0  0  0  0  0  0  0  0  0  0  0  0
   33.9186   -8.7870   13.6749 C   0  0  0  0  0  0  0  0  0  0  0  0
   33.3683   -9.1316   14.8874 C   0  0  0  0  0  0  0  0  0  0  0  0
   35.0264   -8.1294   11.1261 C   0  0  1  0  0  0  0  0  0  0  0  0
   34.3535   -7.1291   10.2626 C   0  0  0  0  0  0  0  0  0  0  0  0
   33.3338   -7.6318    9.4446 C   0  0  0  0  0  0  0  0  0  0  0  0
   32.6118   -6.8458    8.5755 C   0  0  0  0  0  0  0  0  0  0  0  0
   32.9185   -5.4883    8.5153 C   0  0  0  0  0  0  0  0  0  0  0  0
   33.9181   -4.9707    9.3110 C   0  0  0  0  0  0  0  0  0  0  0  0
   34.6325   -5.8011   10.1841 C   0  0  0  0  0  0  0  0  0  0  0  0
   36.0295   -8.8202   10.2427 C   0  0  0  0  0  0  0  0  0  0  0  0
   35.7320  -10.0389    9.6673 C   0  0  0  0  0  0  0  0  0  0  0  0
   36.6122  -10.7319    8.8670 C   0  0  0  0  0  0  0  0  0  0  0  0
   37.8476  -10.1646    8.6402 C   0  0  0  0  0  0  0  0  0  0  0  0
   38.1330   -8.9607    9.2122 C   0  0  0  0  0  0  0  0  0  0  0  0
   31.4779   -8.7659    8.7443 C   0  0  1  0  0  0  0  0  0  0  0  0
   33.9108   -8.6479   16.0537 C   0  0  0  0  0  0  0  0  0  0  0  0
   34.9911   -7.8317   15.9620 C   0  0  0  0  0  0  0  0  0  0  0  0
   35.5898   -7.4502   14.7535 C   0  0  0  0  0  0  0  0  0  0  0  0
   36.7132   -6.5904   14.7719 N   0  0  0  0  0  0  0  0  0  0  0  0
   33.1734   -9.1167   17.5685 S   0  0  1  0  0  6  0  0  0  0  0  0
   33.6292   -8.1553   18.6471 O   0  0  0  0  0  0  0  0  0  0  0  0
   31.6684   -8.9656   17.4897 O   0  0  0  0  0  0  0  0  0  0  0  0
   33.5816  -10.7152   18.0230 N   0  0  0  0  0  0  0  0  0  0  0  0
   37.2483   -8.3154    9.9868 N   0  0  0  0  0  0  0  0  0  0  0  0
   34.1651  -10.7618    9.9479 Cl  0  0  0  0  0  0  0  0  0  0  0  0
   35.5740   -7.5972   12.3223 N   0  0  0  0  0  0  0  0  0  0  0  0
   32.7973   -8.9234    9.2754 O   0  0  0  0  0  0  0  0  0  0  0  0
   31.6648   -7.6279    7.8955 O   0  0  0  0  0  0  0  0  0  0  0  0
   31.0361   -9.8640    8.0741 F   0  0  0  0  0  0  0  0  0  0  0  0
   30.6303   -8.3525    9.7610 F   0  0  0  0  0  0  0  0  0  0  0  0
   37.0088   -5.7270   15.8535 C   0  0  0  0  0  0  0  0  0  0  0  0
   38.0617   -4.9113   15.7897 N   0  0  0  0  0  0  0  0  0  0  0  0
   38.3740   -4.0684   16.8159 C   0  0  0  0  0  0  0  0  0  0  0  0
   37.5750   -4.0908   17.9021 N   0  0  0  0  0  0  0  0  0  0  0  0
   36.5091   -4.8964   18.0018 C   0  0  0  0  0  0  0  0  0  0  0  0
   36.2423   -5.7187   16.9472 N   0  0  0  0  0  0  0  0  0  0  0  0
   35.6707   -4.9444   19.0996 O   0  0  0  0  0  0  0  0  0  0  0  0
   34.4841   -5.7059   19.0262 C   0  0  0  0  0  0  0  0  0  0  0  0
   39.4854   -3.1881   16.7785 N   0  0  0  0  0  0  0  0  0  0  0  0
  1  2  2  0
  1 19  1  0
 27  1  1  0
  2  3  1  0
  3 17  2  0
  4  5  1  0
  4 11  1  0
  4 27  1  1
  5  6  2  0
  5 10  1  0
  6  7  1  0
  6 28  1  0
  7  8  2  0
  7 29  1  0
  8  9  1  0
  9 10  2  0
 11 12  2  0
 11 25  1  0
 12 13  1  0
 12 26  1  0
 13 14  2  0
 14 15  1  0
 15 25  2  0
 28 16  1  0
 16 29  1  0
 16 30  1  6
 16 31  1  0
 17 18  1  0
 17 21  1  0
 18 19  2  0
 19 20  1  0
 20 32  1  0
 21 22  2  0
 21 23  2  0
 21 24  1  1
 32 33  2  0
 32 37  1  0
 33 34  1  0
 34 35  2  0
 34 40  1  0
 35 36  1  0
 36 37  2  0
 36 38  1  0
 38 39  1  0
M  END
$$$$
