
     RDKit          3D

 40 44  0  0  0  0  0  0  0  0999 V2000
   34.6281   -2.6161   17.3225 C   0  0  0  0  0  0  0  0  0  0  0  0
   33.3365   -2.7976   16.7999 C   0  0  0  0  0  0  0  0  0  0  0  0
   32.3500   -1.8566   16.9824 C   0  0  0  0  0  0  0  0  0  0  0  0
   35.3074   -4.8488   16.5046 C   0  0  1  0  0  0  0  0  0  0  0  0
   35.6624   -4.9438   15.0680 C   0  0  0  0  0  0  0  0  0  0  0  0
   37.0316   -5.0531   14.7942 C   0  0  0  0  0  0  0  0  0  0  0  0
   37.5376   -5.1419   13.5173 C   0  0  0  0  0  0  0  0  0  0  0  0
   36.6362   -5.1213   12.4555 C   0  0  0  0  0  0  0  0  0  0  0  0
   35.2838   -5.0145   12.7003 C   0  0  0  0  0  0  0  0  0  0  0  0
   34.8046   -4.9260   14.0137 C   0  0  0  0  0  0  0  0  0  0  0  0
   35.9564   -6.0357   17.1633 C   0  0  0  0  0  0  0  0  0  0  0  0
   35.2673   -7.2239   17.2980 C   0  0  0  0  0  0  0  0  0  0  0  0
   35.7958   -8.3391   17.9083 C   0  0  0  0  0  0  0  0  0  0  0  0
   37.0785   -8.2456   18.4036 C   0  0  0  0  0  0  0  0  0  0  0  0
   37.7518   -7.0684   18.2661 C   0  0  0  0  0  0  0  0  0  0  0  0
   39.2106   -5.7356   14.8774 C   0  0  1  0  0  0  0  0  0  0  0  0
   32.6148   -0.7075   17.6880 C   0  0  0  0  0  0  0  0  0  0  0  0
   33.8657   -0.5421   18.1879 C   0  0  0  0  0  0  0  0  0  0  0  0
   34.9055   -1.4686   18.0309 C   0  0  0  0  0  0  0  0  0  0  0  0
   36.1752   -1.1944   18.5916 N   0  0  0  0  0  0  0  0  0  0  0  0
   31.3258    0.4566   17.8914 S   0  0  1  0  0  6  0  0  0  0  0  0
   31.7941    1.7958   17.3596 O   0  0  0  0  0  0  0  0  0  0  0  0
   30.1306    0.0711   17.0446 O   0  0  0  0  0  0  0  0  0  0  0  0
   30.8568    0.6280   19.5281 N   0  0  0  0  0  0  0  0  0  0  0  0
   37.2027   -6.0026   17.6647 N   0  0  0  0  0  0  0  0  0  0  0  0
   33.6413   -7.3502   16.6682 Cl  0  0  0  0  0  0  0  0  0  0  0  0
   35.6261   -3.6035   17.1059 N   0  0  0  0  0  0  0  0  0  0  0  0
   38.1687   -5.1004   15.6247 O   0  0  0  0  0  0  0  0  0  0  0  0
   38.9374   -5.2400   13.5620 O   0  0  0  0  0  0  0  0  0  0  0  0
   40.4570   -5.4164   15.3190 F   0  0  0  0  0  0  0  0  0  0  0  0
   38.9651   -7.0996   14.8333 F   0  0  0  0  0  0  0  0  0  0  0  0
   36.4035   -0.1454   19.5136 C   0  0  0  0  0  0  0  0  0  0  0  0
   35.7666    1.0177   19.3744 N   0  0  0  0  0  0  0  0  0  0  0  0
   35.9660    2.0487   20.2454 C   0  0  0  0  0  0  0  0  0  0  0  0
   36.8351    1.8469   21.2567 N   0  0  0  0  0  0  0  0  0  0  0  0
   37.4929    0.6924   21.4282 C   0  0  0  0  0  0  0  0  0  0  0  0
   37.2564   -0.3049   20.5289 N   0  0  0  0  0  0  0  0  0  0  0  0
   38.3895    0.4531   22.4525 O   0  0  0  0  0  0  0  0  0  0  0  0
   38.9824   -0.8235   22.5636 C   0  0  0  0  0  0  0  0  0  0  0  0
   35.3035    3.2970   20.1260 N   0  0  0  0  0  0  0  0  0  0  0  0
  1  2  2  0
  1 19  1  0
 27  1  1  0
  2  3  1  0
  3 17  2  0
  4  5  1  0
  4 11  1  0
  4 27  1  1
  5  6  2  0
  5 10  1  0
  6  7  1  0
  6 28  1  0
  7  8  2  0
  7 29  1  0
  8  9  1  0
  9 10  2  0
 11 12  2  0
 11 25  1  0
 12 13  1  0
 12 26  1  0
 13 14  2  0
 14 15  1  0
 15 25  2  0
 28 16  1  0
 16 29  1  0
 16 30  1  1
 16 31  1  0
 17 18  1  0
 17 21  1  0
 18 19  2  0
 19 20  1  0
 20 32  1  0
 21 22  2  0
 21 23  2  0
 21 24  1  1
 32 33  2  0
 32 37  1  0
 33 34  1  0
 34 35  2  0
 34 40  1  0
 35 36  1  0
 36 37  2  0
 36 38  1  0
 38 39  1  0
M  END
$$$$
