
     RDKit          3D

 40 44  0  0  0  0  0  0  0  0999 V2000
   33.2991   -2.4580   20.3820 C   0  0  0  0  0  0  0  0  0  0  0  0
   32.1035   -2.8190   20.9120 C   0  0  0  0  0  0  0  0  0  0  0  0
   31.1079   -1.9294   21.3103 C   0  0  0  0  0  0  0  0  0  0  0  0
   35.4027   -3.9649   19.5311 C   0  0  1  0  0  0  0  0  0  0  0  0
   35.3617   -4.2807   18.0477 C   0  0  0  0  0  0  0  0  0  0  0  0
   35.0556   -5.5589   17.5836 C   0  0  0  0  0  0  0  0  0  0  0  0
   35.0313   -5.8679   16.2405 C   0  0  0  0  0  0  0  0  0  0  0  0
   35.3235   -4.8595   15.3487 C   0  0  0  0  0  0  0  0  0  0  0  0
   35.6294   -3.5855   15.8008 C   0  0  0  0  0  0  0  0  0  0  0  0
   35.6538   -3.2744   17.1631 C   0  0  0  0  0  0  0  0  0  0  0  0
   36.7661   -3.7268   19.9823 C   0  0  0  0  0  0  0  0  0  0  0  0
   37.5030   -4.5988   20.7102 C   0  0  0  0  0  0  0  0  0  0  0  0
   38.8215   -4.2926   21.1060 C   0  0  0  0  0  0  0  0  0  0  0  0
   39.3752   -3.0899   20.7497 C   0  0  0  0  0  0  0  0  0  0  0  0
   38.6097   -2.2048   20.0034 C   0  0  0  0  0  0  0  0  0  0  0  0
   34.1797   -7.6846   17.3489 C   0  0  1  0  0  0  0  0  0  0  0  0
   31.3251   -0.6057   21.1689 C   0  0  0  0  0  0  0  0  0  0  0  0
   32.5197   -0.1569   20.6365 C   0  0  0  0  0  0  0  0  0  0  0  0
   33.4871   -1.0348   20.2496 C   0  0  0  0  0  0  0  0  0  0  0  0
   34.6851   -0.5568   19.7178 N   0  0  0  0  0  0  0  0  0  0  0  0
   30.1073    0.5865   21.6434 S   0  0  1  0  0  6  0  0  0  0  0  0
   30.0039    1.6018   20.5342 O   0  0  0  0  0  0  0  0  0  0  0  0
   28.7971   -0.1021   21.8793 O   0  0  0  0  0  0  0  0  0  0  0  0
   30.6999    1.4079   23.0242 N   0  0  0  0  0  0  0  0  0  0  0  0
   37.3805   -2.5507   19.6642 N   0  0  0  0  0  0  0  0  0  0  0  0
   36.8833   -6.1344   21.1872 Cl  0  0  0  0  0  0  0  0  0  0  0  0
   34.3482   -3.2094   19.9577 N   0  0  0  0  0  0  0  0  0  0  0  0
   34.7299   -6.7399   18.2439 O   0  0  0  0  0  0  0  0  0  0  0  0
   34.6955   -7.2125   16.1117 O   0  0  0  0  0  0  0  0  0  0  0  0
   34.5715   -8.9769   17.6237 F   0  0  0  0  0  0  0  0  0  0  0  0
   32.7906   -7.5769   17.2595 F   0  0  0  0  0  0  0  0  0  0  0  0
   34.9375    0.7740   19.3630 C   0  0  0  0  0  0  0  0  0  0  0  0
   36.0045    1.2825   18.7549 N   0  0  0  0  0  0  0  0  0  0  0  0
   36.2343    2.5465   18.4341 C   0  0  0  0  0  0  0  0  0  0  0  0
   35.2759    3.4400   18.7581 N   0  0  0  0  0  0  0  0  0  0  0  0
   34.1675    3.0319   19.3698 C   0  0  0  0  0  0  0  0  0  0  0  0
   33.9890    1.7337   19.6707 N   0  0  0  0  0  0  0  0  0  0  0  0
   33.1975    3.9888   19.6901 O   0  0  0  0  0  0  0  0  0  0  0  0
   32.1564    3.6290   20.5687 C   0  0  0  0  0  0  0  0  0  0  0  0
   37.4146    2.9967   17.7837 N   0  0  0  0  0  0  0  0  0  0  0  0
  1  2  2  0
  1 19  1  0
 27  1  1  0
  2  3  1  0
  3 17  2  0
  4  5  1  0
  4 11  1  0
  4 27  1  6
  5  6  2  0
  5 10  1  0
  6  7  1  0
  6 28  1  0
  7  8  2  0
  7 29  1  0
  8  9  1  0
  9 10  2  0
 11 12  2  0
 11 25  1  0
 12 13  1  0
 12 26  1  0
 13 14  2  0
 14 15  1  0
 15 25  2  0
 28 16  1  0
 16 29  1  0
 16 30  1  1
 16 31  1  0
 17 18  1  0
 17 21  1  0
 18 19  2  0
 19 20  1  0
 20 32  1  0
 21 22  2  0
 21 23  2  0
 21 24  1  1
 32 33  2  0
 32 37  1  0
 33 34  1  0
 34 35  2  0
 34 40  1  0
 35 36  1  0
 36 37  2  0
 36 38  1  0
 39 38  1  6
M  END
$$$$
