
     RDKit          3D

 40 44  0  0  0  0  0  0  0  0999 V2000
   36.4546   -7.2868   13.3803 C   0  0  0  0  0  0  0  0  0  0  0  0
   37.0484   -8.5272   13.6685 C   0  0  0  0  0  0  0  0  0  0  0  0
   37.8427   -8.7017   14.7777 C   0  0  0  0  0  0  0  0  0  0  0  0
   35.4802   -8.2055   11.3013 C   0  0  1  0  0  0  0  0  0  0  0  0
   34.0834   -8.4417   10.8629 C   0  0  0  0  0  0  0  0  0  0  0  0
   33.4424   -7.3402   10.2821 C   0  0  0  0  0  0  0  0  0  0  0  0
   32.1437   -7.3803    9.8281 C   0  0  0  0  0  0  0  0  0  0  0  0
   31.4441   -8.5778    9.9575 C   0  0  0  0  0  0  0  0  0  0  0  0
   32.0541   -9.6755   10.5259 C   0  0  0  0  0  0  0  0  0  0  0  0
   33.3780   -9.5980   10.9772 C   0  0  0  0  0  0  0  0  0  0  0  0
   36.2798   -8.0363   10.0381 C   0  0  0  0  0  0  0  0  0  0  0  0
   36.6872   -9.1393    9.3155 C   0  0  0  0  0  0  0  0  0  0  0  0
   37.4375   -9.0539    8.1643 C   0  0  0  0  0  0  0  0  0  0  0  0
   37.7900   -7.7954    7.7267 C   0  0  0  0  0  0  0  0  0  0  0  0
   37.3834   -6.7115    8.4463 C   0  0  0  0  0  0  0  0  0  0  0  0
   33.0315   -5.5165    8.9683 C   0  0  1  0  0  0  0  0  0  0  0  0
   38.0716   -7.6520   15.6345 C   0  0  0  0  0  0  0  0  0  0  0  0
   37.4928   -6.4586   15.3469 C   0  0  0  0  0  0  0  0  0  0  0  0
   36.6763   -6.2276   14.2314 C   0  0  0  0  0  0  0  0  0  0  0  0
   36.1197   -4.9429   14.0279 N   0  0  0  0  0  0  0  0  0  0  0  0
   39.0891   -7.9268   17.0299 S   0  0  1  0  0  6  0  0  0  0  0  0
   39.9257   -9.1656   16.7829 O   0  0  0  0  0  0  0  0  0  0  0  0
   40.0749   -6.7888   17.1943 O   0  0  0  0  0  0  0  0  0  0  0  0
   38.1815   -8.1316   18.4661 N   0  0  0  0  0  0  0  0  0  0  0  0
   36.6526   -6.8352    9.5642 N   0  0  0  0  0  0  0  0  0  0  0  0
   36.2398  -10.7382    9.8632 Cl  0  0  0  0  0  0  0  0  0  0  0  0
   35.6309   -7.1445   12.2317 N   0  0  0  0  0  0  0  0  0  0  0  0
   33.8655   -6.0232   10.0149 O   0  0  0  0  0  0  0  0  0  0  0  0
   31.7814   -6.1307    9.3005 O   0  0  0  0  0  0  0  0  0  0  0  0
   32.9684   -4.1579    8.9445 F   0  0  0  0  0  0  0  0  0  0  0  0
   33.4287   -6.0791    7.7646 F   0  0  0  0  0  0  0  0  0  0  0  0
   35.7560   -4.0804   15.0893 C   0  0  0  0  0  0  0  0  0  0  0  0
   35.2268   -2.8847   14.8280 N   0  0  0  0  0  0  0  0  0  0  0  0
   34.8673   -2.0300   15.8287 C   0  0  0  0  0  0  0  0  0  0  0  0
   35.0679   -2.4409   17.0974 N   0  0  0  0  0  0  0  0  0  0  0  0
   35.5969   -3.6345   17.3980 C   0  0  0  0  0  0  0  0  0  0  0  0
   35.9383   -4.4498   16.3597 N   0  0  0  0  0  0  0  0  0  0  0  0
   35.8158   -4.0859   18.6860 O   0  0  0  0  0  0  0  0  0  0  0  0
   36.3024   -5.3966   18.8822 C   0  0  0  0  0  0  0  0  0  0  0  0
   34.3011   -0.7528   15.5843 N   0  0  0  0  0  0  0  0  0  0  0  0
  1  2  2  0
  1 19  1  0
 27  1  1  0
  2  3  1  0
  3 17  2  0
  4  5  1  0
  4 11  1  0
  4 27  1  1
  5  6  2  0
  5 10  1  0
  6  7  1  0
  6 28  1  0
  7  8  2  0
  7 29  1  0
  8  9  1  0
  9 10  2  0
 11 12  2  0
 11 25  1  0
 12 13  1  0
 12 26  1  0
 13 14  2  0
 14 15  1  0
 15 25  2  0
 28 16  1  0
 16 29  1  0
 16 30  1  6
 16 31  1  0
 17 18  1  0
 17 21  1  0
 18 19  2  0
 19 20  1  0
 20 32  1  0
 21 22  2  0
 21 23  2  0
 21 24  1  1
 32 33  2  0
 32 37  1  0
 33 34  1  0
 34 35  2  0
 34 40  1  0
 35 36  1  0
 36 37  2  0
 36 38  1  0
 38 39  1  0
M  END
$$$$
