
     RDKit          3D

 40 44  0  0  0  0  0  0  0  0999 V2000
   35.8965   -5.8980   14.1091 C   0  0  0  0  0  0  0  0  0  0  0  0
   34.5832   -5.6886   13.6556 C   0  0  0  0  0  0  0  0  0  0  0  0
   33.7215   -4.8456   14.3179 C   0  0  0  0  0  0  0  0  0  0  0  0
   36.3248   -7.4430   12.2263 C   0  0  1  0  0  0  0  0  0  0  0  0
   35.2756   -8.4630   12.4665 C   0  0  0  0  0  0  0  0  0  0  0  0
   34.8943   -9.2076   11.3432 C   0  0  0  0  0  0  0  0  0  0  0  0
   33.9292  -10.1881   11.3841 C   0  0  0  0  0  0  0  0  0  0  0  0
   33.3097  -10.4431   12.6054 C   0  0  0  0  0  0  0  0  0  0  0  0
   33.6685   -9.7230   13.7248 C   0  0  0  0  0  0  0  0  0  0  0  0
   34.6552   -8.7320   13.6457 C   0  0  0  0  0  0  0  0  0  0  0  0
   35.7738   -6.5362   11.1595 C   0  0  0  0  0  0  0  0  0  0  0  0
   36.5287   -6.2274   10.0462 C   0  0  0  0  0  0  0  0  0  0  0  0
   36.0917   -5.3889    9.0455 C   0  0  0  0  0  0  0  0  0  0  0  0
   34.8348   -4.8397    9.1794 C   0  0  0  0  0  0  0  0  0  0  0  0
   34.0960   -5.1501   10.2821 C   0  0  0  0  0  0  0  0  0  0  0  0
   35.0008  -10.4699    9.4416 C   0  0  1  0  0  0  0  0  0  0  0  0
   34.1362   -4.1848   15.4491 C   0  0  0  0  0  0  0  0  0  0  0  0
   35.4067   -4.3939   15.8781 C   0  0  0  0  0  0  0  0  0  0  0  0
   36.3237   -5.2412   15.2412 C   0  0  0  0  0  0  0  0  0  0  0  0
   37.6271   -5.3844   15.7724 N   0  0  0  0  0  0  0  0  0  0  0  0
   33.0015   -3.1248   16.2536 S   0  0  1  0  0  6  0  0  0  0  0  0
   31.5961   -3.6138   15.9684 O   0  0  0  0  0  0  0  0  0  0  0  0
   33.1729   -3.2138   17.7558 O   0  0  0  0  0  0  0  0  0  0  0  0
   33.1527   -1.4998   15.7391 N   0  0  0  0  0  0  0  0  0  0  0  0
   34.5566   -5.9720   11.2367 N   0  0  0  0  0  0  0  0  0  0  0  0
   38.1223   -6.9240    9.8685 Cl  0  0  0  0  0  0  0  0  0  0  0  0
   36.7635   -6.7672   13.3946 N   0  0  0  0  0  0  0  0  0  0  0  0
   35.3193   -9.1915   10.0001 O   0  0  0  0  0  0  0  0  0  0  0  0
   33.7667  -10.7544   10.1098 O   0  0  0  0  0  0  0  0  0  0  0  0
   34.8806  -10.4472    8.0868 F   0  0  0  0  0  0  0  0  0  0  0  0
   35.9143  -11.4039    9.9065 F   0  0  0  0  0  0  0  0  0  0  0  0
   38.0320   -4.8010   16.9965 C   0  0  0  0  0  0  0  0  0  0  0  0
   39.2870   -4.9449   17.4232 N   0  0  0  0  0  0  0  0  0  0  0  0
   39.7078   -4.3961   18.5992 C   0  0  0  0  0  0  0  0  0  0  0  0
   38.8034   -3.6998   19.3174 N   0  0  0  0  0  0  0  0  0  0  0  0
   37.5344   -3.5344   18.9207 C   0  0  0  0  0  0  0  0  0  0  0  0
   37.1668   -4.1037   17.7375 N   0  0  0  0  0  0  0  0  0  0  0  0
   36.5832   -2.8276   19.6322 O   0  0  0  0  0  0  0  0  0  0  0  0
   35.5937   -3.5354   20.3488 C   0  0  0  0  0  0  0  0  0  0  0  0
   41.0354   -4.5296   19.0799 N   0  0  0  0  0  0  0  0  0  0  0  0
  1  2  2  0
  1 19  1  0
 27  1  1  0
  2  3  1  0
  3 17  2  0
  4  5  1  0
  4 11  1  0
  4 27  1  1
  5  6  2  0
  5 10  1  0
  6  7  1  0
  6 28  1  0
  7  8  2  0
  7 29  1  0
  8  9  1  0
  9 10  2  0
 11 12  2  0
 11 25  1  0
 12 13  1  0
 12 26  1  0
 13 14  2  0
 14 15  1  0
 15 25  2  0
 28 16  1  0
 16 29  1  0
 16 30  1  6
 16 31  1  0
 17 18  1  0
 17 21  1  0
 18 19  2  0
 19 20  1  0
 20 32  1  0
 21 22  2  0
 21 23  2  0
 21 24  1  6
 32 33  2  0
 32 37  1  0
 33 34  1  0
 34 35  2  0
 34 40  1  0
 35 36  1  0
 36 37  2  0
 36 38  1  0
 38 39  1  0
M  END
$$$$
