
     RDKit          3D

 40 44  0  0  0  0  0  0  0  0999 V2000
   35.4647   -3.7853   16.5538 C   0  0  0  0  0  0  0  0  0  0  0  0
   34.2824   -3.4119   15.8928 C   0  0  0  0  0  0  0  0  0  0  0  0
   33.4787   -2.4050   16.3744 C   0  0  0  0  0  0  0  0  0  0  0  0
   35.7208   -5.8502   15.2175 C   0  0  1  0  0  0  0  0  0  0  0  0
   36.5736   -6.2640   14.0771 C   0  0  0  0  0  0  0  0  0  0  0  0
   35.9590   -6.2152   12.8196 C   0  0  0  0  0  0  0  0  0  0  0  0
   36.6005   -6.5728   11.6555 C   0  0  0  0  0  0  0  0  0  0  0  0
   37.9229   -7.0014   11.7447 C   0  0  0  0  0  0  0  0  0  0  0  0
   38.5489   -7.0577   12.9715 C   0  0  0  0  0  0  0  0  0  0  0  0
   37.8644   -6.6860   14.1358 C   0  0  0  0  0  0  0  0  0  0  0  0
   35.4012   -7.1155   15.9664 C   0  0  0  0  0  0  0  0  0  0  0  0
   34.1456   -7.6817   15.8784 C   0  0  0  0  0  0  0  0  0  0  0  0
   33.7832   -8.8255   16.5537 C   0  0  0  0  0  0  0  0  0  0  0  0
   34.7352   -9.4210   17.3528 C   0  0  0  0  0  0  0  0  0  0  0  0
   35.9726   -8.8552   17.4338 C   0  0  0  0  0  0  0  0  0  0  0  0
   34.7566   -5.4773   11.0222 C   0  0  1  0  0  0  0  0  0  0  0  0
   33.8234   -1.7380   17.5254 C   0  0  0  0  0  0  0  0  0  0  0  0
   34.9675   -2.1063   18.1555 C   0  0  0  0  0  0  0  0  0  0  0  0
   35.8208   -3.1241   17.7077 C   0  0  0  0  0  0  0  0  0  0  0  0
   36.9927   -3.4253   18.4409 N   0  0  0  0  0  0  0  0  0  0  0  0
   32.7669   -0.4662   18.0950 S   0  0  1  0  0  6  0  0  0  0  0  0
   33.0135    0.7767   17.2644 O   0  0  0  0  0  0  0  0  0  0  0  0
   31.3184   -0.8403   17.8585 O   0  0  0  0  0  0  0  0  0  0  0  0
   33.0188   -0.1035   19.7483 N   0  0  0  0  0  0  0  0  0  0  0  0
   36.2883   -7.7392   16.7601 N   0  0  0  0  0  0  0  0  0  0  0  0
   32.9349   -6.9333   14.8631 Cl  0  0  0  0  0  0  0  0  0  0  0  0
   36.2771   -4.8225   16.0227 N   0  0  0  0  0  0  0  0  0  0  0  0
   34.6670   -5.8367   12.4044 O   0  0  0  0  0  0  0  0  0  0  0  0
   35.7323   -6.4195   10.5630 O   0  0  0  0  0  0  0  0  0  0  0  0
   33.5695   -5.5764   10.3653 F   0  0  0  0  0  0  0  0  0  0  0  0
   35.3499   -4.2282   10.9198 F   0  0  0  0  0  0  0  0  0  0  0  0
   37.3217   -2.7974   19.6657 C   0  0  0  0  0  0  0  0  0  0  0  0
   38.5328   -2.9635   20.1982 N   0  0  0  0  0  0  0  0  0  0  0  0
   38.8802   -2.3730   21.3780 C   0  0  0  0  0  0  0  0  0  0  0  0
   37.9491   -1.6119   21.9885 N   0  0  0  0  0  0  0  0  0  0  0  0
   36.7227   -1.4224   21.4837 C   0  0  0  0  0  0  0  0  0  0  0  0
   36.4281   -2.0356   20.3019 N   0  0  0  0  0  0  0  0  0  0  0  0
   35.7460   -0.6497   22.0832 O   0  0  0  0  0  0  0  0  0  0  0  0
   34.4713   -0.5639   21.4821 C   0  0  0  0  0  0  0  0  0  0  0  0
   40.1597   -2.5285   21.9697 N   0  0  0  0  0  0  0  0  0  0  0  0
  1  2  2  0
  1 19  1  0
 27  1  1  0
  2  3  1  0
  3 17  2  0
  4  5  1  0
  4 11  1  0
  4 27  1  1
  5  6  2  0
  5 10  1  0
  6  7  1  0
  6 28  1  0
  7  8  2  0
  7 29  1  0
  8  9  1  0
  9 10  2  0
 11 12  2  0
 11 25  1  0
 12 13  1  0
 12 26  1  0
 13 14  2  0
 14 15  1  0
 15 25  2  0
 28 16  1  0
 16 29  1  0
 16 30  1  6
 16 31  1  0
 17 18  1  0
 17 21  1  0
 18 19  2  0
 19 20  1  0
 20 32  1  0
 21 22  2  0
 21 23  2  0
 21 24  1  1
 32 33  2  0
 32 37  1  0
 33 34  1  0
 34 35  2  0
 34 40  1  0
 35 36  1  0
 36 37  2  0
 36 38  1  0
 38 39  1  0
M  END
$$$$
