
     RDKit          3D

 40 44  0  0  0  0  0  0  0  0999 V2000
   36.1844   -8.8193   12.7805 C   0  0  0  0  0  0  0  0  0  0  0  0
   36.7183   -9.8351   13.5042 C   0  0  0  0  0  0  0  0  0  0  0  0
   37.6352   -9.6778   14.5414 C   0  0  0  0  0  0  0  0  0  0  0  0
   34.3986   -8.8388   10.7237 C   0  0  1  0  0  0  0  0  0  0  0  0
   35.0481   -8.9560    9.3575 C   0  0  0  0  0  0  0  0  0  0  0  0
   34.4897   -8.3529    8.2318 C   0  0  0  0  0  0  0  0  0  0  0  0
   35.0565   -8.4639    6.9801 C   0  0  0  0  0  0  0  0  0  0  0  0
   36.2140   -9.2019    6.8673 C   0  0  0  0  0  0  0  0  0  0  0  0
   36.7765   -9.8055    7.9811 C   0  0  0  0  0  0  0  0  0  0  0  0
   36.2000   -9.6921    9.2492 C   0  0  0  0  0  0  0  0  0  0  0  0
   33.1513   -9.5873   10.7807 C   0  0  0  0  0  0  0  0  0  0  0  0
   31.9244   -9.0641   10.5482 C   0  0  0  0  0  0  0  0  0  0  0  0
   30.7622   -9.8598   10.6205 C   0  0  0  0  0  0  0  0  0  0  0  0
   30.8692  -11.1909   10.9314 C   0  0  0  0  0  0  0  0  0  0  0  0
   32.1325  -11.7152   11.1674 C   0  0  0  0  0  0  0  0  0  0  0  0
   33.3755   -6.9152    6.8062 C   0  0  1  0  0  0  0  0  0  0  0  0
   38.0378   -8.4328   14.8692 C   0  0  0  0  0  0  0  0  0  0  0  0
   37.5396   -7.3437   14.1781 C   0  0  0  0  0  0  0  0  0  0  0  0
   36.6429   -7.5079   13.1655 C   0  0  0  0  0  0  0  0  0  0  0  0
   36.1571   -6.3930   12.4816 N   0  0  0  0  0  0  0  0  0  0  0  0
   39.1927   -8.1499   16.1790 S   0  0  1  0  0  6  0  0  0  0  0  0
   38.6013   -7.1081   17.0938 O   0  0  0  0  0  0  0  0  0  0  0  0
   39.4501   -9.4348   16.9064 O   0  0  0  0  0  0  0  0  0  0  0  0
   40.6026   -7.4690   15.4856 N   0  0  0  0  0  0  0  0  0  0  0  0
   33.1822  -10.9172   11.0844 N   0  0  0  0  0  0  0  0  0  0  0  0
   31.7074   -7.4038   10.1405 Cl  0  0  0  0  0  0  0  0  0  0  0  0
   35.2939   -8.8290   11.7547 N   0  0  0  0  0  0  0  0  0  0  0  0
   33.3525   -7.5696    8.0582 O   0  0  0  0  0  0  0  0  0  0  0  0
   34.2639   -7.7551    6.0818 O   0  0  0  0  0  0  0  0  0  0  0  0
   32.1313   -6.8343    6.2191 F   0  0  0  0  0  0  0  0  0  0  0  0
   33.9919   -5.6645    6.8781 F   0  0  0  0  0  0  0  0  0  0  0  0
   36.1625   -5.0805   12.9692 C   0  0  0  0  0  0  0  0  0  0  0  0
   35.7725   -3.9666   12.3577 N   0  0  0  0  0  0  0  0  0  0  0  0
   35.7926   -2.7289   12.8281 C   0  0  0  0  0  0  0  0  0  0  0  0
   36.2644   -2.5626   14.0818 N   0  0  0  0  0  0  0  0  0  0  0  0
   36.6801   -3.6158   14.7797 C   0  0  0  0  0  0  0  0  0  0  0  0
   36.6357   -4.8505   14.2493 N   0  0  0  0  0  0  0  0  0  0  0  0
   37.1634   -3.4022   16.0759 O   0  0  0  0  0  0  0  0  0  0  0  0
   37.1915   -2.0865   16.5792 C   0  0  0  0  0  0  0  0  0  0  0  0
   35.3547   -1.5948   12.0929 N   0  0  0  0  0  0  0  0  0  0  0  0
  1  2  2  0
  1 19  1  0
 27  1  1  0
  2  3  1  0
  3 17  2  0
  4  5  1  0
  4 11  1  0
  4 27  1  1
  5  6  2  0
  5 10  1  0
  6  7  1  0
  6 28  1  0
  7  8  2  0
  7 29  1  0
  8  9  1  0
  9 10  2  0
 11 12  2  0
 11 25  1  0
 12 13  1  0
 12 26  1  0
 13 14  2  0
 14 15  1  0
 15 25  2  0
 28 16  1  0
 16 29  1  0
 16 30  1  6
 16 31  1  0
 17 18  1  0
 17 21  1  0
 18 19  2  0
 19 20  1  0
 20 32  1  0
 21 22  2  0
 21 23  2  0
 21 24  1  6
 32 33  2  0
 32 37  1  0
 33 34  1  0
 34 35  2  0
 34 40  1  0
 35 36  1  0
 36 37  2  0
 36 38  1  0
 39 38  1  6
M  END
$$$$
