
     RDKit          3D

 40 44  0  0  0  0  0  0  0  0999 V2000
   34.8219   -8.7372   12.5655 C   0  0  0  0  0  0  0  0  0  0  0  0
   33.5040   -9.1154   12.8722 C   0  0  0  0  0  0  0  0  0  0  0  0
   33.0685   -9.2072   14.1737 C   0  0  0  0  0  0  0  0  0  0  0  0
   34.3669   -9.0133   10.1505 C   0  0  1  0  0  0  0  0  0  0  0  0
   34.7499   -8.4692    8.8253 C   0  0  0  0  0  0  0  0  0  0  0  0
   33.7471   -7.7557    8.1569 C   0  0  0  0  0  0  0  0  0  0  0  0
   33.9277   -7.1909    6.9148 C   0  0  0  0  0  0  0  0  0  0  0  0
   35.1703   -7.3424    6.3037 C   0  0  0  0  0  0  0  0  0  0  0  0
   36.1728   -8.0406    6.9423 C   0  0  0  0  0  0  0  0  0  0  0  0
   35.9529   -8.6022    8.2066 C   0  0  0  0  0  0  0  0  0  0  0  0
   34.2311  -10.4991    9.9563 C   0  0  0  0  0  0  0  0  0  0  0  0
   32.9900  -11.0668    9.7510 C   0  0  0  0  0  0  0  0  0  0  0  0
   32.7954  -12.4199    9.5874 C   0  0  0  0  0  0  0  0  0  0  0  0
   33.9075  -13.2327    9.6338 C   0  0  0  0  0  0  0  0  0  0  0  0
   35.1294  -12.6637    9.8369 C   0  0  0  0  0  0  0  0  0  0  0  0
   32.0533   -6.2830    7.7293 C   0  0  1  0  0  0  0  0  0  0  0  0
   33.9264   -8.9262   15.2097 C   0  0  0  0  0  0  0  0  0  0  0  0
   35.1970   -8.5614   14.9021 C   0  0  0  0  0  0  0  0  0  0  0  0
   35.6907   -8.4528   13.5949 C   0  0  0  0  0  0  0  0  0  0  0  0
   37.0340   -8.0604   13.3866 N   0  0  0  0  0  0  0  0  0  0  0  0
   33.3228   -9.0583   16.8456 S   0  0  1  0  0  6  0  0  0  0  0  0
   32.4758  -10.3101   16.9498 O   0  0  0  0  0  0  0  0  0  0  0  0
   34.4699   -9.2539   17.8152 O   0  0  0  0  0  0  0  0  0  0  0  0
   32.3884   -7.7004   17.3055 N   0  0  0  0  0  0  0  0  0  0  0  0
   35.2789  -11.3398    9.9922 N   0  0  0  0  0  0  0  0  0  0  0  0
   31.5759  -10.0407    9.6870 Cl  0  0  0  0  0  0  0  0  0  0  0  0
   35.2353   -8.6420   11.2097 N   0  0  0  0  0  0  0  0  0  0  0  0
   32.4184   -7.4339    8.4972 O   0  0  0  0  0  0  0  0  0  0  0  0
   32.7502   -6.5448    6.5061 O   0  0  0  0  0  0  0  0  0  0  0  0
   30.7095   -6.1563    7.5605 F   0  0  0  0  0  0  0  0  0  0  0  0
   32.6554   -5.1633    8.2831 F   0  0  0  0  0  0  0  0  0  0  0  0
   37.8123   -7.4113   14.3742 C   0  0  0  0  0  0  0  0  0  0  0  0
   39.0219   -6.9400   14.0696 N   0  0  0  0  0  0  0  0  0  0  0  0
   39.7971   -6.3109   14.9993 C   0  0  0  0  0  0  0  0  0  0  0  0
   39.2926   -6.1828   16.2434 N   0  0  0  0  0  0  0  0  0  0  0  0
   38.0821   -6.6435   16.5861 C   0  0  0  0  0  0  0  0  0  0  0  0
   37.3490   -7.2641   15.6182 N   0  0  0  0  0  0  0  0  0  0  0  0
   37.5359   -6.5290   17.8506 O   0  0  0  0  0  0  0  0  0  0  0  0
   36.1357   -6.6219   18.0062 C   0  0  0  0  0  0  0  0  0  0  0  0
   41.0865   -5.7975   14.7069 N   0  0  0  0  0  0  0  0  0  0  0  0
  1  2  2  0
  1 19  1  0
 27  1  1  0
  2  3  1  0
  3 17  2  0
  4  5  1  0
  4 11  1  0
  4 27  1  1
  5  6  2  0
  5 10  1  0
  6  7  1  0
  6 28  1  0
  7  8  2  0
  7 29  1  0
  8  9  1  0
  9 10  2  0
 11 12  2  0
 11 25  1  0
 12 13  1  0
 12 26  1  0
 13 14  2  0
 14 15  1  0
 15 25  2  0
 28 16  1  0
 16 29  1  0
 16 30  1  6
 16 31  1  0
 17 18  1  0
 17 21  1  0
 18 19  2  0
 19 20  1  0
 20 32  1  0
 21 22  2  0
 21 23  2  0
 21 24  1  1
 32 33  2  0
 32 37  1  0
 33 34  1  0
 34 35  2  0
 34 40  1  0
 35 36  1  0
 36 37  2  0
 36 38  1  0
 38 39  1  0
M  END
$$$$
