
     RDKit          3D

 40 44  0  0  0  0  0  0  0  0999 V2000
   33.2816   -2.7964   20.2304 C   0  0  0  0  0  0  0  0  0  0  0  0
   32.0758   -3.1162   20.7638 C   0  0  0  0  0  0  0  0  0  0  0  0
   31.0715   -2.1998   21.0684 C   0  0  0  0  0  0  0  0  0  0  0  0
   35.4035   -4.3621   19.5476 C   0  0  1  0  0  0  0  0  0  0  0  0
   35.4705   -4.6802   18.0656 C   0  0  0  0  0  0  0  0  0  0  0  0
   35.0752   -5.9210   17.5687 C   0  0  0  0  0  0  0  0  0  0  0  0
   35.1461   -6.2333   16.2280 C   0  0  0  0  0  0  0  0  0  0  0  0
   35.6280   -5.2671   15.3727 C   0  0  0  0  0  0  0  0  0  0  0  0
   36.0238   -4.0303   15.8576 C   0  0  0  0  0  0  0  0  0  0  0  0
   35.9514   -3.7159   17.2175 C   0  0  0  0  0  0  0  0  0  0  0  0
   36.7332   -4.1601   20.1044 C   0  0  0  0  0  0  0  0  0  0  0  0
   37.4013   -5.0647   20.8584 C   0  0  0  0  0  0  0  0  0  0  0  0
   38.6914   -4.7923   21.3588 C   0  0  0  0  0  0  0  0  0  0  0  0
   39.2878   -3.5896   21.0797 C   0  0  0  0  0  0  0  0  0  0  0  0
   38.5927   -2.6708   20.3056 C   0  0  0  0  0  0  0  0  0  0  0  0
   34.0036   -7.9423   17.2420 C   0  0  1  0  0  0  0  0  0  0  0  0
   31.2903   -0.8914   20.8242 C   0  0  0  0  0  0  0  0  0  0  0  0
   32.4951   -0.4843   20.2813 C   0  0  0  0  0  0  0  0  0  0  0  0
   33.4709   -1.3883   19.9866 C   0  0  0  0  0  0  0  0  0  0  0  0
   34.6790   -0.9519   19.4419 N   0  0  0  0  0  0  0  0  0  0  0  0
   30.0620    0.3322   21.1756 S   0  0  1  0  0  6  0  0  0  0  0  0
   29.2092   -0.1862   22.3051 O   0  0  0  0  0  0  0  0  0  0  0  0
   30.7305    1.6227   21.5419 O   0  0  0  0  0  0  0  0  0  0  0  0
   29.0514    0.4590   19.7989 N   0  0  0  0  0  0  0  0  0  0  0  0
   37.3869   -2.9861   19.8671 N   0  0  0  0  0  0  0  0  0  0  0  0
   36.7253   -6.6024   21.2432 Cl  0  0  0  0  0  0  0  0  0  0  0  0
   34.3398   -3.5771   19.8898 N   0  0  0  0  0  0  0  0  0  0  0  0
   34.5638   -7.0567   18.1897 O   0  0  0  0  0  0  0  0  0  0  0  0
   34.6824   -7.5351   16.0618 O   0  0  0  0  0  0  0  0  0  0  0  0
   34.2271   -9.2675   17.5471 F   0  0  0  0  0  0  0  0  0  0  0  0
   32.6488   -7.6875   17.0210 F   0  0  0  0  0  0  0  0  0  0  0  0
   34.9790    0.3718   19.0983 C   0  0  0  0  0  0  0  0  0  0  0  0
   36.1327    0.8780   18.6743 N   0  0  0  0  0  0  0  0  0  0  0  0
   36.4050    2.1357   18.3620 C   0  0  0  0  0  0  0  0  0  0  0  0
   35.3966    3.0246   18.4843 N   0  0  0  0  0  0  0  0  0  0  0  0
   34.2007    2.6183   18.9015 C   0  0  0  0  0  0  0  0  0  0  0  0
   33.9827    1.3266   19.2043 N   0  0  0  0  0  0  0  0  0  0  0  0
   33.1810    3.5704   19.0162 O   0  0  0  0  0  0  0  0  0  0  0  0
   32.0780    3.2839   19.8448 C   0  0  0  0  0  0  0  0  0  0  0  0
   37.6781    2.5839   17.9182 N   0  0  0  0  0  0  0  0  0  0  0  0
  1  2  2  0
  1 19  1  0
 27  1  1  0
  2  3  1  0
  3 17  2  0
  4  5  1  0
  4 11  1  0
  4 27  1  6
  5  6  2  0
  5 10  1  0
  6  7  1  0
  6 28  1  0
  7  8  2  0
  7 29  1  0
  8  9  1  0
  9 10  2  0
 11 12  2  0
 11 25  1  0
 12 13  1  0
 12 26  1  0
 13 14  2  0
 14 15  1  0
 15 25  2  0
 28 16  1  0
 16 29  1  0
 16 30  1  1
 16 31  1  0
 17 18  1  0
 17 21  1  0
 18 19  2  0
 19 20  1  0
 20 32  1  0
 21 22  2  0
 21 23  2  0
 21 24  1  6
 32 33  2  0
 32 37  1  0
 33 34  1  0
 34 35  2  0
 34 40  1  0
 35 36  1  0
 36 37  2  0
 36 38  1  0
 39 38  1  6
M  END
$$$$
