
     RDKit          3D

 40 44  0  0  0  0  0  0  0  0999 V2000
   34.7116   -2.4282   17.3151 C   0  0  0  0  0  0  0  0  0  0  0  0
   33.5046   -2.7334   16.6639 C   0  0  0  0  0  0  0  0  0  0  0  0
   32.4666   -1.8322   16.6178 C   0  0  0  0  0  0  0  0  0  0  0  0
   35.5929   -4.6793   16.7944 C   0  0  1  0  0  0  0  0  0  0  0  0
   36.6611   -5.1013   15.8563 C   0  0  0  0  0  0  0  0  0  0  0  0
   36.3321   -5.0217   14.4973 C   0  0  0  0  0  0  0  0  0  0  0  0
   37.2004   -5.3818   13.4919 C   0  0  0  0  0  0  0  0  0  0  0  0
   38.4627   -5.8455   13.8551 C   0  0  0  0  0  0  0  0  0  0  0  0
   38.8092   -5.9324   15.1865 C   0  0  0  0  0  0  0  0  0  0  0  0
   37.8992   -5.5571   16.1832 C   0  0  0  0  0  0  0  0  0  0  0  0
   35.5052   -5.7694   17.8279 C   0  0  0  0  0  0  0  0  0  0  0  0
   34.6621   -6.8456   17.6390 C   0  0  0  0  0  0  0  0  0  0  0  0
   34.5203   -7.8643   18.5542 C   0  0  0  0  0  0  0  0  0  0  0  0
   35.2656   -7.7887   19.7109 C   0  0  0  0  0  0  0  0  0  0  0  0
   36.0959   -6.7224   19.8892 C   0  0  0  0  0  0  0  0  0  0  0  0
   35.5607   -4.2317   12.4969 C   0  0  1  0  0  0  0  0  0  0  0  0
   32.5945   -0.6014   17.2155 C   0  0  0  0  0  0  0  0  0  0  0  0
   33.7647   -0.3168   17.8412 C   0  0  0  0  0  0  0  0  0  0  0  0
   34.8518   -1.1981   17.9174 C   0  0  0  0  0  0  0  0  0  0  0  0
   36.0287   -0.7980   18.5931 N   0  0  0  0  0  0  0  0  0  0  0  0
   31.2451    0.5074   17.1281 S   0  0  1  0  0  6  0  0  0  0  0  0
   31.7305    1.8155   16.5375 O   0  0  0  0  0  0  0  0  0  0  0  0
   30.1964   -0.0151   16.1682 O   0  0  0  0  0  0  0  0  0  0  0  0
   30.5450    0.8017   18.6616 N   0  0  0  0  0  0  0  0  0  0  0  0
   36.2070   -5.7485   18.9737 N   0  0  0  0  0  0  0  0  0  0  0  0
   33.7170   -6.9494   16.1719 Cl  0  0  0  0  0  0  0  0  0  0  0  0
   35.7673   -3.3786   17.3343 N   0  0  0  0  0  0  0  0  0  0  0  0
   35.1683   -4.6051   13.8214 O   0  0  0  0  0  0  0  0  0  0  0  0
   36.5907   -5.1932   12.2414 O   0  0  0  0  0  0  0  0  0  0  0  0
   34.5405   -4.2923   11.5993 F   0  0  0  0  0  0  0  0  0  0  0  0
   36.1903   -2.9972   12.5456 F   0  0  0  0  0  0  0  0  0  0  0  0
   36.1215    0.3989   19.3424 C   0  0  0  0  0  0  0  0  0  0  0  0
   35.0712    1.2157   19.4310 N   0  0  0  0  0  0  0  0  0  0  0  0
   35.1292    2.3772   20.1442 C   0  0  0  0  0  0  0  0  0  0  0  0
   36.2933    2.6700   20.7590 N   0  0  0  0  0  0  0  0  0  0  0  0
   37.3689    1.8741   20.6923 C   0  0  0  0  0  0  0  0  0  0  0  0
   37.2564    0.7254   19.9662 N   0  0  0  0  0  0  0  0  0  0  0  0
   38.5758    2.1444   21.3095 O   0  0  0  0  0  0  0  0  0  0  0  0
   38.7468    3.3774   21.9757 C   0  0  0  0  0  0  0  0  0  0  0  0
   34.0302    3.2662   20.2591 N   0  0  0  0  0  0  0  0  0  0  0  0
  1  2  2  0
  1 19  1  0
 27  1  1  0
  2  3  1  0
  3 17  2  0
  4  5  1  0
  4 11  1  0
  4 27  1  1
  5  6  2  0
  5 10  1  0
  6  7  1  0
  6 28  1  0
  7  8  2  0
  7 29  1  0
  8  9  1  0
  9 10  2  0
 11 12  2  0
 11 25  1  0
 12 13  1  0
 12 26  1  0
 13 14  2  0
 14 15  1  0
 15 25  2  0
 28 16  1  0
 16 29  1  0
 16 30  1  6
 16 31  1  0
 17 18  1  0
 17 21  1  0
 18 19  2  0
 19 20  1  0
 20 32  1  0
 21 22  2  0
 21 23  2  0
 21 24  1  1
 32 33  2  0
 32 37  1  0
 33 34  1  0
 34 35  2  0
 34 40  1  0
 35 36  1  0
 36 37  2  0
 36 38  1  0
 38 39  1  0
M  END
$$$$
