
     RDKit          3D

 40 44  0  0  0  0  0  0  0  0999 V2000
   36.1985   -6.0780   15.2101 C   0  0  0  0  0  0  0  0  0  0  0  0
   35.7514   -7.3911   15.4337 C   0  0  0  0  0  0  0  0  0  0  0  0
   35.3207   -7.8008   16.6741 C   0  0  0  0  0  0  0  0  0  0  0  0
   36.6219   -6.6027   12.8309 C   0  0  1  0  0  0  0  0  0  0  0  0
   36.0645   -6.0583   11.5692 C   0  0  0  0  0  0  0  0  0  0  0  0
   35.2201   -6.9245   10.8634 C   0  0  0  0  0  0  0  0  0  0  0  0
   34.6242   -6.5855    9.6698 C   0  0  0  0  0  0  0  0  0  0  0  0
   34.8801   -5.3190    9.1495 C   0  0  0  0  0  0  0  0  0  0  0  0
   35.7079   -4.4491    9.8265 C   0  0  0  0  0  0  0  0  0  0  0  0
   36.2975   -4.8285   11.0392 C   0  0  0  0  0  0  0  0  0  0  0  0
   37.9803   -7.1436   12.4754 C   0  0  0  0  0  0  0  0  0  0  0  0
   38.1478   -8.4849   12.1973 C   0  0  0  0  0  0  0  0  0  0  0  0
   39.3659   -9.0459   11.8859 C   0  0  0  0  0  0  0  0  0  0  0  0
   40.4617   -8.2106   11.8552 C   0  0  0  0  0  0  0  0  0  0  0  0
   40.2872   -6.8872   12.1311 C   0  0  0  0  0  0  0  0  0  0  0  0
   33.5587   -8.4178   10.3831 C   0  0  1  0  0  0  0  0  0  0  0  0
   35.3202   -6.9209   17.7296 C   0  0  0  0  0  0  0  0  0  0  0  0
   35.7537   -5.6550   17.5025 C   0  0  0  0  0  0  0  0  0  0  0  0
   36.2024   -5.1871   16.2598 C   0  0  0  0  0  0  0  0  0  0  0  0
   36.6303   -3.8446   16.1326 N   0  0  0  0  0  0  0  0  0  0  0  0
   34.7632   -7.4923   19.2856 S   0  0  1  0  0  6  0  0  0  0  0  0
   35.4644   -8.7977   19.6016 O   0  0  0  0  0  0  0  0  0  0  0  0
   35.1747   -6.5275   20.3783 O   0  0  0  0  0  0  0  0  0  0  0  0
   33.0696   -7.7343   19.3212 N   0  0  0  0  0  0  0  0  0  0  0  0
   39.0834   -6.3773   12.4306 N   0  0  0  0  0  0  0  0  0  0  0  0
   36.7609   -9.5489   12.2306 Cl  0  0  0  0  0  0  0  0  0  0  0  0
   36.6262   -5.6854   13.9137 N   0  0  0  0  0  0  0  0  0  0  0  0
   34.7742   -8.2368   11.1163 O   0  0  0  0  0  0  0  0  0  0  0  0
   33.8396   -7.6531    9.2055 O   0  0  0  0  0  0  0  0  0  0  0  0
   33.2829   -9.7231   10.1179 F   0  0  0  0  0  0  0  0  0  0  0  0
   32.5344   -7.7518   11.0391 F   0  0  0  0  0  0  0  0  0  0  0  0
   36.1388   -2.7957   16.9456 C   0  0  0  0  0  0  0  0  0  0  0  0
   36.5471   -1.5430   16.7405 N   0  0  0  0  0  0  0  0  0  0  0  0
   36.0932   -0.5103   17.5077 C   0  0  0  0  0  0  0  0  0  0  0  0
   35.2125   -0.8047   18.4857 N   0  0  0  0  0  0  0  0  0  0  0  0
   34.7799   -2.0506   18.7212 C   0  0  0  0  0  0  0  0  0  0  0  0
   35.2654   -3.0452   17.9247 N   0  0  0  0  0  0  0  0  0  0  0  0
   33.8790   -2.3862   19.7142 O   0  0  0  0  0  0  0  0  0  0  0  0
   33.3769   -3.7046   19.7708 C   0  0  0  0  0  0  0  0  0  0  0  0
   36.5066    0.8325   17.3144 N   0  0  0  0  0  0  0  0  0  0  0  0
  1  2  2  0
  1 19  1  0
 27  1  1  0
  2  3  1  0
  3 17  2  0
  4  5  1  0
  4 11  1  0
  4 27  1  1
  5  6  2  0
  5 10  1  0
  6  7  1  0
  6 28  1  0
  7  8  2  0
  7 29  1  0
  8  9  1  0
  9 10  2  0
 11 12  2  0
 11 25  1  0
 12 13  1  0
 12 26  1  0
 13 14  2  0
 14 15  1  0
 15 25  2  0
 28 16  1  0
 16 29  1  0
 16 30  1  6
 16 31  1  0
 17 18  1  0
 17 21  1  0
 18 19  2  0
 19 20  1  0
 20 32  1  0
 21 22  2  0
 21 23  2  0
 21 24  1  6
 32 33  2  0
 32 37  1  0
 33 34  1  0
 34 35  2  0
 34 40  1  0
 35 36  1  0
 36 37  2  0
 36 38  1  0
 38 39  1  0
M  END
$$$$
