
     RDKit          3D

 40 44  0  0  0  0  0  0  0  0999 V2000
   36.0485   -3.8818   17.8706 C   0  0  0  0  0  0  0  0  0  0  0  0
   36.8964   -4.1811   18.8865 C   0  0  0  0  0  0  0  0  0  0  0  0
   37.1759   -3.3428   19.9637 C   0  0  0  0  0  0  0  0  0  0  0  0
   35.3284   -5.3111   15.6664 C   0  0  1  0  0  0  0  0  0  0  0  0
   36.0972   -4.9265   14.4162 C   0  0  0  0  0  0  0  0  0  0  0  0
   35.5232   -5.0238   13.1497 C   0  0  0  0  0  0  0  0  0  0  0  0
   36.2127   -4.6957   12.0021 C   0  0  0  0  0  0  0  0  0  0  0  0
   37.5119   -4.2596   12.1413 C   0  0  0  0  0  0  0  0  0  0  0  0
   38.0912   -4.1598   13.3966 C   0  0  0  0  0  0  0  0  0  0  0  0
   37.3904   -4.4934   14.5589 C   0  0  0  0  0  0  0  0  0  0  0  0
   35.0806   -6.7448   15.7131 C   0  0  0  0  0  0  0  0  0  0  0  0
   33.8538   -7.3170   15.7382 C   0  0  0  0  0  0  0  0  0  0  0  0
   33.6989   -8.7181   15.7801 C   0  0  0  0  0  0  0  0  0  0  0  0
   34.8085   -9.5236   15.7953 C   0  0  0  0  0  0  0  0  0  0  0  0
   36.0604   -8.9249   15.7692 C   0  0  0  0  0  0  0  0  0  0  0  0
   34.0330   -5.0425   11.3835 C   0  0  1  0  0  0  0  0  0  0  0  0
   36.5711   -2.1386   20.0235 C   0  0  0  0  0  0  0  0  0  0  0  0
   35.6927   -1.7589   19.0254 C   0  0  0  0  0  0  0  0  0  0  0  0
   35.4257   -2.5860   17.9762 C   0  0  0  0  0  0  0  0  0  0  0  0
   34.5375   -2.1785   16.9804 N   0  0  0  0  0  0  0  0  0  0  0  0
   36.8674   -1.0213   21.3626 S   0  0  1  0  0  6  0  0  0  0  0  0
   37.8197   -1.6938   22.3180 O   0  0  0  0  0  0  0  0  0  0  0  0
   37.4381    0.2585   20.8306 O   0  0  0  0  0  0  0  0  0  0  0  0
   35.3858   -0.8088   22.1947 N   0  0  0  0  0  0  0  0  0  0  0  0
   36.1385   -7.6065   15.7305 N   0  0  0  0  0  0  0  0  0  0  0  0
   32.4114   -6.3745   15.7097 Cl  0  0  0  0  0  0  0  0  0  0  0  0
   35.6893   -4.5945   16.7713 N   0  0  0  0  0  0  0  0  0  0  0  0
   34.2606   -5.4258   12.7242 O   0  0  0  0  0  0  0  0  0  0  0  0
   35.3674   -4.9014   10.9156 O   0  0  0  0  0  0  0  0  0  0  0  0
   33.3214   -5.9820   10.6693 F   0  0  0  0  0  0  0  0  0  0  0  0
   33.4506   -3.7770   11.2902 F   0  0  0  0  0  0  0  0  0  0  0  0
   33.8964   -0.9348   16.9292 C   0  0  0  0  0  0  0  0  0  0  0  0
   33.1339   -0.4335   15.9626 N   0  0  0  0  0  0  0  0  0  0  0  0
   32.5412    0.7500   15.9233 C   0  0  0  0  0  0  0  0  0  0  0  0
   32.7249    1.5576   16.9891 N   0  0  0  0  0  0  0  0  0  0  0  0
   33.4721    1.1488   18.0107 C   0  0  0  0  0  0  0  0  0  0  0  0
   34.0496   -0.0653   17.9949 N   0  0  0  0  0  0  0  0  0  0  0  0
   33.6394    2.0155   19.0971 O   0  0  0  0  0  0  0  0  0  0  0  0
   34.3843    1.5720   20.2079 C   0  0  0  0  0  0  0  0  0  0  0  0
   31.7432    1.2006   14.8377 N   0  0  0  0  0  0  0  0  0  0  0  0
  1  2  2  0
  1 19  1  0
 27  1  1  0
  2  3  1  0
  3 17  2  0
  4  5  1  0
  4 11  1  0
  4 27  1  1
  5  6  2  0
  5 10  1  0
  6  7  1  0
  6 28  1  0
  7  8  2  0
  7 29  1  0
  8  9  1  0
  9 10  2  0
 11 12  2  0
 11 25  1  0
 12 13  1  0
 12 26  1  0
 13 14  2  0
 14 15  1  0
 15 25  2  0
 28 16  1  0
 16 29  1  0
 16 30  1  6
 16 31  1  0
 17 18  1  0
 17 21  1  0
 18 19  2  0
 19 20  1  0
 20 32  1  0
 21 22  2  0
 21 23  2  0
 21 24  1  1
 32 33  2  0
 32 37  1  0
 33 34  1  0
 34 35  2  0
 34 40  1  0
 35 36  1  0
 36 37  2  0
 36 38  1  0
 39 38  1  6
M  END
$$$$
