
     RDKit          3D

 40 44  0  0  0  0  0  0  0  0999 V2000
   36.1397   -6.0726   14.8327 C   0  0  0  0  0  0  0  0  0  0  0  0
   35.9183   -7.4188   15.1689 C   0  0  0  0  0  0  0  0  0  0  0  0
   35.9276   -7.8422   16.4775 C   0  0  0  0  0  0  0  0  0  0  0  0
   35.9204   -6.6118   12.4292 C   0  0  1  0  0  0  0  0  0  0  0  0
   35.2575   -6.0639   11.2212 C   0  0  0  0  0  0  0  0  0  0  0  0
   34.4634   -6.9714   10.5089 C   0  0  0  0  0  0  0  0  0  0  0  0
   33.7841   -6.6347    9.3602 C   0  0  0  0  0  0  0  0  0  0  0  0
   33.8991   -5.3271    8.8939 C   0  0  0  0  0  0  0  0  0  0  0  0
   34.6749   -4.4161    9.5783 C   0  0  0  0  0  0  0  0  0  0  0  0
   35.3526   -4.7946   10.7444 C   0  0  0  0  0  0  0  0  0  0  0  0
   37.1887   -7.2569   11.9400 C   0  0  0  0  0  0  0  0  0  0  0  0
   37.2384   -8.6172   11.7124 C   0  0  0  0  0  0  0  0  0  0  0  0
   38.3720   -9.2711   11.2850 C   0  0  0  0  0  0  0  0  0  0  0  0
   39.5043   -8.5129   11.0792 C   0  0  0  0  0  0  0  0  0  0  0  0
   39.4463   -7.1701   11.3062 C   0  0  0  0  0  0  0  0  0  0  0  0
   32.9242   -8.5892   10.0247 C   0  0  1  0  0  0  0  0  0  0  0  0
   36.1562   -6.9436   17.4918 C   0  0  0  0  0  0  0  0  0  0  0  0
   36.3684   -5.6459   17.1559 C   0  0  0  0  0  0  0  0  0  0  0  0
   36.3696   -5.1629   15.8402 C   0  0  0  0  0  0  0  0  0  0  0  0
   36.5988   -3.7873   15.6019 N   0  0  0  0  0  0  0  0  0  0  0  0
   36.1578   -7.5336   19.1380 S   0  0  1  0  0  6  0  0  0  0  0  0
   36.7241   -8.9388   19.1483 O   0  0  0  0  0  0  0  0  0  0  0  0
   37.0940   -6.7047   19.9927 O   0  0  0  0  0  0  0  0  0  0  0  0
   34.5907   -7.5478   19.8251 N   0  0  0  0  0  0  0  0  0  0  0  0
   38.3222   -6.5685   11.7228 N   0  0  0  0  0  0  0  0  0  0  0  0
   35.8042   -9.5839   11.9678 Cl  0  0  0  0  0  0  0  0  0  0  0  0
   36.1125   -5.6678   13.4713 N   0  0  0  0  0  0  0  0  0  0  0  0
   34.1510   -8.3298   10.7140 O   0  0  0  0  0  0  0  0  0  0  0  0
   33.0790   -7.7480    8.8762 O   0  0  0  0  0  0  0  0  0  0  0  0
   32.7562   -9.9009    9.7060 F   0  0  0  0  0  0  0  0  0  0  0  0
   31.8753   -8.0526   10.7560 F   0  0  0  0  0  0  0  0  0  0  0  0
   35.9839   -2.7588   16.3547 C   0  0  0  0  0  0  0  0  0  0  0  0
   36.2806   -1.4820   16.1101 N   0  0  0  0  0  0  0  0  0  0  0  0
   35.7062   -0.4679   16.8191 C   0  0  0  0  0  0  0  0  0  0  0  0
   34.8234   -0.8060   17.7809 N   0  0  0  0  0  0  0  0  0  0  0  0
   34.5009   -2.0772   18.0549 C   0  0  0  0  0  0  0  0  0  0  0  0
   35.1042   -3.0516   17.3160 N   0  0  0  0  0  0  0  0  0  0  0  0
   33.6013   -2.4577   19.0329 O   0  0  0  0  0  0  0  0  0  0  0  0
   33.2439   -3.8188   19.1468 C   0  0  0  0  0  0  0  0  0  0  0  0
   35.9992    0.8995   16.5825 N   0  0  0  0  0  0  0  0  0  0  0  0
  1  2  2  0
  1 19  1  0
 27  1  1  0
  2  3  1  0
  3 17  2  0
  4  5  1  0
  4 11  1  0
  4 27  1  1
  5  6  2  0
  5 10  1  0
  6  7  1  0
  6 28  1  0
  7  8  2  0
  7 29  1  0
  8  9  1  0
  9 10  2  0
 11 12  2  0
 11 25  1  0
 12 13  1  0
 12 26  1  0
 13 14  2  0
 14 15  1  0
 15 25  2  0
 28 16  1  0
 16 29  1  0
 16 30  1  6
 16 31  1  0
 17 18  1  0
 17 21  1  0
 18 19  2  0
 19 20  1  0
 20 32  1  0
 21 22  2  0
 21 23  2  0
 21 24  1  1
 32 33  2  0
 32 37  1  0
 33 34  1  0
 34 35  2  0
 34 40  1  0
 35 36  1  0
 36 37  2  0
 36 38  1  0
 38 39  1  0
M  END
$$$$
