
     RDKit          3D

 40 44  0  0  0  0  0  0  0  0999 V2000
   34.6604   -8.5034   13.6502 C   0  0  0  0  0  0  0  0  0  0  0  0
   34.1546   -8.6245   14.9034 C   0  0  0  0  0  0  0  0  0  0  0  0
   34.7631   -8.1373   16.0581 C   0  0  0  0  0  0  0  0  0  0  0  0
   33.6988   -9.3519   11.2470 C   0  0  1  0  0  0  0  0  0  0  0  0
   34.4577   -8.7920   10.0584 C   0  0  0  0  0  0  0  0  0  0  0  0
   33.8358   -7.9723    9.1181 C   0  0  0  0  0  0  0  0  0  0  0  0
   34.5051   -7.4696    8.0230 C   0  0  0  0  0  0  0  0  0  0  0  0
   35.8332   -7.8049    7.8779 C   0  0  0  0  0  0  0  0  0  0  0  0
   36.4600   -8.6197    8.8076 C   0  0  0  0  0  0  0  0  0  0  0  0
   35.7795   -9.1287    9.9172 C   0  0  0  0  0  0  0  0  0  0  0  0
   33.2922  -10.7297   11.0118 C   0  0  0  0  0  0  0  0  0  0  0  0
   32.0330  -11.1229   10.7071 C   0  0  0  0  0  0  0  0  0  0  0  0
   31.7212  -12.4811   10.4904 C   0  0  0  0  0  0  0  0  0  0  0  0
   32.7080  -13.4281   10.5880 C   0  0  0  0  0  0  0  0  0  0  0  0
   33.9947  -13.0122   10.9009 C   0  0  0  0  0  0  0  0  0  0  0  0
   32.4628   -6.4303    8.0800 C   0  0  1  0  0  0  0  0  0  0  0  0
   35.9436   -7.4939   15.9483 C   0  0  0  0  0  0  0  0  0  0  0  0
   36.5253   -7.3298   14.7047 C   0  0  0  0  0  0  0  0  0  0  0  0
   35.9222   -7.8096   13.5812 C   0  0  0  0  0  0  0  0  0  0  0  0
   36.5308   -7.6335   12.3381 N   0  0  0  0  0  0  0  0  0  0  0  0
   36.7747   -6.8395   17.3662 S   0  0  1  0  0  6  0  0  0  0  0  0
   37.8690   -5.9268   16.8748 O   0  0  0  0  0  0  0  0  0  0  0  0
   35.7932   -6.1035   18.2271 O   0  0  0  0  0  0  0  0  0  0  0  0
   37.5333   -8.1480   18.1693 N   0  0  0  0  0  0  0  0  0  0  0  0
   34.2222  -11.7249   11.0925 N   0  0  0  0  0  0  0  0  0  0  0  0
   30.7407   -9.9932   10.5547 Cl  0  0  0  0  0  0  0  0  0  0  0  0
   34.1808   -8.9266   12.4518 N   0  0  0  0  0  0  0  0  0  0  0  0
   32.5360   -7.4854    9.0167 O   0  0  0  0  0  0  0  0  0  0  0  0
   33.6115   -6.6968    7.2869 O   0  0  0  0  0  0  0  0  0  0  0  0
   31.2988   -6.4461    7.3425 F   0  0  0  0  0  0  0  0  0  0  0  0
   32.6782   -5.1849    8.6732 F   0  0  0  0  0  0  0  0  0  0  0  0
   37.8208   -7.1286   12.1345 C   0  0  0  0  0  0  0  0  0  0  0  0
   38.3358   -6.5867   11.0353 N   0  0  0  0  0  0  0  0  0  0  0  0
   39.5623   -6.1219   10.8538 C   0  0  0  0  0  0  0  0  0  0  0  0
   40.4046   -6.2013   11.9056 N   0  0  0  0  0  0  0  0  0  0  0  0
   39.9857   -6.7277   13.0530 C   0  0  0  0  0  0  0  0  0  0  0  0
   38.7272   -7.1839   13.1788 N   0  0  0  0  0  0  0  0  0  0  0  0
   40.8891   -6.7932   14.1202 O   0  0  0  0  0  0  0  0  0  0  0  0
   40.4164   -7.2035   15.3825 C   0  0  0  0  0  0  0  0  0  0  0  0
   40.0239   -5.5600    9.6332 N   0  0  0  0  0  0  0  0  0  0  0  0
  1  2  2  0
  1 19  1  0
 27  1  1  0
  2  3  1  0
  3 17  2  0
  4  5  1  0
  4 11  1  0
  4 27  1  1
  5  6  2  0
  5 10  1  0
  6  7  1  0
  6 28  1  0
  7  8  2  0
  7 29  1  0
  8  9  1  0
  9 10  2  0
 11 12  2  0
 11 25  1  0
 12 13  1  0
 12 26  1  0
 13 14  2  0
 14 15  1  0
 15 25  2  0
 28 16  1  0
 16 29  1  0
 16 30  1  6
 16 31  1  0
 17 18  1  0
 17 21  1  0
 18 19  2  0
 19 20  1  0
 20 32  1  0
 21 22  2  0
 21 23  2  0
 21 24  1  1
 32 33  2  0
 32 37  1  0
 33 34  1  0
 34 35  2  0
 34 40  1  0
 35 36  1  0
 36 37  2  0
 36 38  1  0
 39 38  1  6
M  END
$$$$
