
     RDKit          3D

 40 44  0  0  0  0  0  0  0  0999 V2000
   36.1492   -8.2352   11.9899 C   0  0  0  0  0  0  0  0  0  0  0  0
   37.4118   -8.0668   11.5227 C   0  0  0  0  0  0  0  0  0  0  0  0
   38.4925   -7.6326   12.2874 C   0  0  0  0  0  0  0  0  0  0  0  0
   33.8756   -9.0565   10.7345 C   0  0  1  0  0  0  0  0  0  0  0  0
   34.1043   -9.5217    9.3086 C   0  0  0  0  0  0  0  0  0  0  0  0
   33.4574   -8.9163    8.2326 C   0  0  0  0  0  0  0  0  0  0  0  0
   33.6396   -9.3375    6.9328 C   0  0  0  0  0  0  0  0  0  0  0  0
   34.4959  -10.3950    6.7191 C   0  0  0  0  0  0  0  0  0  0  0  0
   35.1435  -11.0035    7.7829 C   0  0  0  0  0  0  0  0  0  0  0  0
   34.9571  -10.5751    9.1001 C   0  0  0  0  0  0  0  0  0  0  0  0
   32.8675   -9.8693   11.3993 C   0  0  0  0  0  0  0  0  0  0  0  0
   31.5326   -9.6528   11.3328 C   0  0  0  0  0  0  0  0  0  0  0  0
   30.6195  -10.4910   12.0056 C   0  0  0  0  0  0  0  0  0  0  0  0
   31.0854  -11.5487   12.7433 C   0  0  0  0  0  0  0  0  0  0  0  0
   32.4558  -11.7600   12.8034 C   0  0  0  0  0  0  0  0  0  0  0  0
   32.4354   -7.3897    6.8305 C   0  0  1  0  0  0  0  0  0  0  0  0
   38.2942   -7.3521   13.5919 C   0  0  0  0  0  0  0  0  0  0  0  0
   37.0349   -7.4983   14.1439 C   0  0  0  0  0  0  0  0  0  0  0  0
   35.9844   -7.9239   13.3878 C   0  0  0  0  0  0  0  0  0  0  0  0
   34.7228   -8.0607   13.9678 N   0  0  0  0  0  0  0  0  0  0  0  0
   39.6169   -6.8037   14.6306 S   0  0  1  0  0  6  0  0  0  0  0  0
   40.7506   -6.3691   13.7373 O   0  0  0  0  0  0  0  0  0  0  0  0
   39.1399   -5.6777   15.4971 O   0  0  0  0  0  0  0  0  0  0  0  0
   40.1688   -8.1580   15.5215 N   0  0  0  0  0  0  0  0  0  0  0  0
   33.2591  -10.9388   12.1508 N   0  0  0  0  0  0  0  0  0  0  0  0
   30.8680   -8.3526   10.4177 Cl  0  0  0  0  0  0  0  0  0  0  0  0
   35.0154   -8.6448   11.3638 N   0  0  0  0  0  0  0  0  0  0  0  0
   32.5593   -7.8556    8.1585 O   0  0  0  0  0  0  0  0  0  0  0  0
   32.8597   -8.5354    6.1046 O   0  0  0  0  0  0  0  0  0  0  0  0
   31.1493   -7.0111    6.5115 F   0  0  0  0  0  0  0  0  0  0  0  0
   33.3551   -6.3804    6.5395 F   0  0  0  0  0  0  0  0  0  0  0  0
   34.4568   -8.0220   15.3419 C   0  0  0  0  0  0  0  0  0  0  0  0
   33.2812   -8.0633   15.9610 N   0  0  0  0  0  0  0  0  0  0  0  0
   33.0438   -8.0157   17.2628 C   0  0  0  0  0  0  0  0  0  0  0  0
   34.1181   -7.9127   18.0734 N   0  0  0  0  0  0  0  0  0  0  0  0
   35.3408   -7.8640   17.5520 C   0  0  0  0  0  0  0  0  0  0  0  0
   35.5208   -7.9167   16.2207 N   0  0  0  0  0  0  0  0  0  0  0  0
   36.4292   -7.7562   18.4256 O   0  0  0  0  0  0  0  0  0  0  0  0
   36.5505   -8.6900   19.4737 C   0  0  0  0  0  0  0  0  0  0  0  0
   31.7434   -8.0636   17.8330 N   0  0  0  0  0  0  0  0  0  0  0  0
  1  2  2  0
  1 19  1  0
 27  1  1  0
  2  3  1  0
  3 17  2  0
  4  5  1  0
  4 11  1  0
  4 27  1  1
  5  6  2  0
  5 10  1  0
  6  7  1  0
  6 28  1  0
  7  8  2  0
  7 29  1  0
  8  9  1  0
  9 10  2  0
 11 12  2  0
 11 25  1  0
 12 13  1  0
 12 26  1  0
 13 14  2  0
 14 15  1  0
 15 25  2  0
 28 16  1  0
 16 29  1  0
 16 30  1  6
 16 31  1  0
 17 18  1  0
 17 21  1  0
 18 19  2  0
 19 20  1  0
 20 32  1  0
 21 22  2  0
 21 23  2  0
 21 24  1  1
 32 33  2  0
 32 37  1  0
 33 34  1  0
 34 35  2  0
 34 40  1  0
 35 36  1  0
 36 37  2  0
 36 38  1  0
 39 38  1  6
M  END
$$$$
