
     RDKit          3D

 40 44  0  0  0  0  0  0  0  0999 V2000
   35.7703   -6.3273   11.0154 C   0  0  0  0  0  0  0  0  0  0  0  0
   35.5962   -6.2345    9.6242 C   0  0  0  0  0  0  0  0  0  0  0  0
   36.3164   -5.3381    8.8694 C   0  0  0  0  0  0  0  0  0  0  0  0
   34.1168   -8.1630   11.1236 C   0  0  1  0  0  0  0  0  0  0  0  0
   34.7715   -9.2632   10.3752 C   0  0  0  0  0  0  0  0  0  0  0  0
   34.2266   -9.5388    9.1149 C   0  0  0  0  0  0  0  0  0  0  0  0
   34.7049  -10.5319    8.2906 C   0  0  0  0  0  0  0  0  0  0  0  0
   35.7818  -11.2917    8.7416 C   0  0  0  0  0  0  0  0  0  0  0  0
   36.3349  -11.0387    9.9786 C   0  0  0  0  0  0  0  0  0  0  0  0
   35.8216  -10.0194   10.7911 C   0  0  0  0  0  0  0  0  0  0  0  0
   33.1422   -8.8293   12.0563 C   0  0  0  0  0  0  0  0  0  0  0  0
   31.7917   -8.8310   11.7717 C   0  0  0  0  0  0  0  0  0  0  0  0
   30.8469   -9.4043   12.5927 C   0  0  0  0  0  0  0  0  0  0  0  0
   31.2906  -10.0017   13.7528 C   0  0  0  0  0  0  0  0  0  0  0  0
   32.6260   -9.9955   14.0261 C   0  0  0  0  0  0  0  0  0  0  0  0
   33.3875   -9.2587    7.0081 C   0  0  1  0  0  0  0  0  0  0  0  0
   37.2309   -4.5075    9.4713 C   0  0  0  0  0  0  0  0  0  0  0  0
   37.3914   -4.6058   10.8153 C   0  0  0  0  0  0  0  0  0  0  0  0
   36.6838   -5.5005   11.6297 C   0  0  0  0  0  0  0  0  0  0  0  0
   36.9319   -5.5224   13.0224 N   0  0  0  0  0  0  0  0  0  0  0  0
   38.1201   -3.3860    8.4663 S   0  0  1  0  0  6  0  0  0  0  0  0
   37.1932   -2.8615    7.3887 O   0  0  0  0  0  0  0  0  0  0  0  0
   38.5410   -2.1759    9.2741 O   0  0  0  0  0  0  0  0  0  0  0  0
   39.4874   -4.1108    7.7360 N   0  0  0  0  0  0  0  0  0  0  0  0
   33.5168   -9.4262   13.2006 N   0  0  0  0  0  0  0  0  0  0  0  0
   31.2231   -8.0784   10.2997 Cl  0  0  0  0  0  0  0  0  0  0  0  0
   35.0175   -7.2720   11.7630 N   0  0  0  0  0  0  0  0  0  0  0  0
   33.1626   -8.9659    8.3906 O   0  0  0  0  0  0  0  0  0  0  0  0
   33.9600  -10.5680    7.1011 O   0  0  0  0  0  0  0  0  0  0  0  0
   32.2505   -9.2259    6.2621 F   0  0  0  0  0  0  0  0  0  0  0  0
   34.3934   -8.4319    6.5312 F   0  0  0  0  0  0  0  0  0  0  0  0
   37.1349   -6.7170   13.7533 C   0  0  0  0  0  0  0  0  0  0  0  0
   36.6631   -7.8741   13.2881 N   0  0  0  0  0  0  0  0  0  0  0  0
   36.8409   -9.0425   13.9697 C   0  0  0  0  0  0  0  0  0  0  0  0
   37.5145   -8.9835   15.1366 N   0  0  0  0  0  0  0  0  0  0  0  0
   38.0027   -7.8398   15.6351 C   0  0  0  0  0  0  0  0  0  0  0  0
   37.7968   -6.7013   14.9133 N   0  0  0  0  0  0  0  0  0  0  0  0
   38.6965   -7.7445   16.8267 O   0  0  0  0  0  0  0  0  0  0  0  0
   39.6607   -8.7265   17.1418 C   0  0  0  0  0  0  0  0  0  0  0  0
   36.3531  -10.2892   13.5015 N   0  0  0  0  0  0  0  0  0  0  0  0
  1  2  2  0
  1 19  1  0
 27  1  1  0
  2  3  1  0
  3 17  2  0
  4  5  1  0
  4 11  1  0
  4 27  1  1
  5  6  2  0
  5 10  1  0
  6  7  1  0
  6 28  1  0
  7  8  2  0
  7 29  1  0
  8  9  1  0
  9 10  2  0
 11 12  2  0
 11 25  1  0
 12 13  1  0
 12 26  1  0
 13 14  2  0
 14 15  1  0
 15 25  2  0
 28 16  1  0
 16 29  1  0
 16 30  1  6
 16 31  1  0
 17 18  1  0
 17 21  1  0
 18 19  2  0
 19 20  1  0
 20 32  1  0
 21 22  2  0
 21 23  2  0
 21 24  1  6
 32 33  2  0
 32 37  1  0
 33 34  1  0
 34 35  2  0
 34 40  1  0
 35 36  1  0
 36 37  2  0
 36 38  1  0
 38 39  1  0
M  END
$$$$
