
     RDKit          3D

 40 44  0  0  0  0  0  0  0  0999 V2000
   35.4361   -8.5874   12.0413 C   0  0  0  0  0  0  0  0  0  0  0  0
   34.4941   -9.1885   12.8931 C   0  0  0  0  0  0  0  0  0  0  0  0
   34.5634   -9.0386   14.2586 C   0  0  0  0  0  0  0  0  0  0  0  0
   34.1478   -9.2774   10.0464 C   0  0  1  0  0  0  0  0  0  0  0  0
   33.6809   -8.5386    8.8485 C   0  0  0  0  0  0  0  0  0  0  0  0
   32.2942   -8.3677    8.7516 C   0  0  0  0  0  0  0  0  0  0  0  0
   31.6894   -7.7146    7.7019 C   0  0  0  0  0  0  0  0  0  0  0  0
   32.5048   -7.2036    6.6946 C   0  0  0  0  0  0  0  0  0  0  0  0
   33.8724   -7.3595    6.7684 C   0  0  0  0  0  0  0  0  0  0  0  0
   34.4534   -8.0304    7.8522 C   0  0  0  0  0  0  0  0  0  0  0  0
   34.2570  -10.7162    9.6199 C   0  0  0  0  0  0  0  0  0  0  0  0
   33.2471  -11.6105    9.9117 C   0  0  0  0  0  0  0  0  0  0  0  0
   33.2947  -12.9428    9.5683 C   0  0  0  0  0  0  0  0  0  0  0  0
   34.4149  -13.3878    8.8999 C   0  0  0  0  0  0  0  0  0  0  0  0
   35.4074  -12.4979    8.6156 C   0  0  0  0  0  0  0  0  0  0  0  0
   30.1268   -7.8875    9.2923 C   0  0  1  0  0  0  0  0  0  0  0  0
   35.5682   -8.2881   14.8202 C   0  0  0  0  0  0  0  0  0  0  0  0
   36.4723   -7.7116   13.9883 C   0  0  0  0  0  0  0  0  0  0  0  0
   36.4473   -7.8327   12.5922 C   0  0  0  0  0  0  0  0  0  0  0  0
   37.4390   -7.1861   11.8177 N   0  0  0  0  0  0  0  0  0  0  0  0
   35.6110   -8.1294   16.5612 S   0  0  1  0  0  6  0  0  0  0  0  0
   34.9069   -9.3229   17.1738 O   0  0  0  0  0  0  0  0  0  0  0  0
   37.0397   -8.1920   17.0600 O   0  0  0  0  0  0  0  0  0  0  0  0
   34.8615   -6.6891   17.1015 N   0  0  0  0  0  0  0  0  0  0  0  0
   35.3246  -11.2061    8.9670 N   0  0  0  0  0  0  0  0  0  0  0  0
   31.8218  -11.0513   10.7558 Cl  0  0  0  0  0  0  0  0  0  0  0  0
   35.3284   -8.7539   10.6347 N   0  0  0  0  0  0  0  0  0  0  0  0
   31.2257   -8.7565    9.5835 O   0  0  0  0  0  0  0  0  0  0  0  0
   30.2972   -7.7030    7.8825 O   0  0  0  0  0  0  0  0  0  0  0  0
   28.9197   -8.4236    9.6176 F   0  0  0  0  0  0  0  0  0  0  0  0
   30.3647   -6.6513    9.8737 F   0  0  0  0  0  0  0  0  0  0  0  0
   38.1551   -6.0517   12.2685 C   0  0  0  0  0  0  0  0  0  0  0  0
   37.9612   -5.5854   13.5025 N   0  0  0  0  0  0  0  0  0  0  0  0
   38.6347   -4.4934   13.9662 C   0  0  0  0  0  0  0  0  0  0  0  0
   39.5075   -3.9003   13.1265 N   0  0  0  0  0  0  0  0  0  0  0  0
   39.7283   -4.3403   11.8804 C   0  0  0  0  0  0  0  0  0  0  0  0
   39.0286   -5.4356   11.4678 N   0  0  0  0  0  0  0  0  0  0  0  0
   40.6146   -3.7563   10.9952 O   0  0  0  0  0  0  0  0  0  0  0  0
   40.7727   -4.3173    9.7092 C   0  0  0  0  0  0  0  0  0  0  0  0
   38.4523   -3.9737   15.2732 N   0  0  0  0  0  0  0  0  0  0  0  0
  1  2  2  0
  1 19  1  0
 27  1  1  0
  2  3  1  0
  3 17  2  0
  4  5  1  0
  4 11  1  0
  4 27  1  6
  5  6  2  0
  5 10  1  0
  6  7  1  0
  6 28  1  0
  7  8  2  0
  7 29  1  0
  8  9  1  0
  9 10  2  0
 11 12  2  0
 11 25  1  0
 12 13  1  0
 12 26  1  0
 13 14  2  0
 14 15  1  0
 15 25  2  0
 28 16  1  0
 16 29  1  0
 16 30  1  6
 16 31  1  0
 17 18  1  0
 17 21  1  0
 18 19  2  0
 19 20  1  0
 20 32  1  0
 21 22  2  0
 21 23  2  0
 21 24  1  6
 32 33  2  0
 32 37  1  0
 33 34  1  0
 34 35  2  0
 34 40  1  0
 35 36  1  0
 36 37  2  0
 36 38  1  0
 38 39  1  0
M  END
$$$$
