
     RDKit          3D

 40 44  0  0  0  0  0  0  0  0999 V2000
   34.2237   -2.1156   17.8435 C   0  0  0  0  0  0  0  0  0  0  0  0
   33.0893   -1.4517   17.5072 C   0  0  0  0  0  0  0  0  0  0  0  0
   32.8537   -0.1011   17.7556 C   0  0  0  0  0  0  0  0  0  0  0  0
   34.9409   -4.7192   17.4875 C   0  0  1  0  0  0  0  0  0  0  0  0
   35.3111   -5.0559   16.0552 C   0  0  0  0  0  0  0  0  0  0  0  0
   34.5951   -5.9997   15.3208 C   0  0  0  0  0  0  0  0  0  0  0  0
   34.9283   -6.3308   14.0249 C   0  0  0  0  0  0  0  0  0  0  0  0
   36.0105   -5.6916   13.4614 C   0  0  0  0  0  0  0  0  0  0  0  0
   36.7288   -4.7518   14.1840 C   0  0  0  0  0  0  0  0  0  0  0  0
   36.3894   -4.4178   15.4980 C   0  0  0  0  0  0  0  0  0  0  0  0
   35.7888   -5.4310   18.4328 C   0  0  0  0  0  0  0  0  0  0  0  0
   35.3943   -6.4876   19.1818 C   0  0  0  0  0  0  0  0  0  0  0  0
   36.2805   -7.1254   20.0744 C   0  0  0  0  0  0  0  0  0  0  0  0
   37.5693   -6.6722   20.1910 C   0  0  0  0  0  0  0  0  0  0  0  0
   37.9616   -5.5885   19.4177 C   0  0  0  0  0  0  0  0  0  0  0  0
   32.9180   -7.3402   14.4657 C   0  0  1  0  0  0  0  0  0  0  0  0
   33.8091    0.6216   18.3755 C   0  0  0  0  0  0  0  0  0  0  0  0
   34.9948    0.0173   18.7509 C   0  0  0  0  0  0  0  0  0  0  0  0
   35.2159   -1.3041   18.5033 C   0  0  0  0  0  0  0  0  0  0  0  0
   36.4196   -1.8912   18.8945 N   0  0  0  0  0  0  0  0  0  0  0  0
   33.5889    2.3430   18.7188 S   0  0  1  0  0  6  0  0  0  0  0  0
   34.8798    3.0454   18.3841 O   0  0  0  0  0  0  0  0  0  0  0  0
   32.4489    2.8747   17.9038 O   0  0  0  0  0  0  0  0  0  0  0  0
   33.3499    2.5060   20.4066 N   0  0  0  0  0  0  0  0  0  0  0  0
   37.0836   -5.0345   18.6004 N   0  0  0  0  0  0  0  0  0  0  0  0
   33.7956   -7.1235   19.0841 Cl  0  0  0  0  0  0  0  0  0  0  0  0
   34.5813   -3.4140   17.6660 N   0  0  0  0  0  0  0  0  0  0  0  0
   33.4863   -6.7812   15.6322 O   0  0  0  0  0  0  0  0  0  0  0  0
   34.0277   -7.2940   13.5792 O   0  0  0  0  0  0  0  0  0  0  0  0
   32.4503   -8.6223   14.6571 F   0  0  0  0  0  0  0  0  0  0  0  0
   31.9394   -6.5140   13.9099 F   0  0  0  0  0  0  0  0  0  0  0  0
   36.8740   -2.0000   20.2144 C   0  0  0  0  0  0  0  0  0  0  0  0
   38.0804   -2.3483   20.6505 N   0  0  0  0  0  0  0  0  0  0  0  0
   38.4937   -2.4568   21.9039 C   0  0  0  0  0  0  0  0  0  0  0  0
   37.5898   -2.1829   22.8681 N   0  0  0  0  0  0  0  0  0  0  0  0
   36.3527   -1.8244   22.5357 C   0  0  0  0  0  0  0  0  0  0  0  0
   35.9898   -1.7308   21.2445 N   0  0  0  0  0  0  0  0  0  0  0  0
   35.4442   -1.5494   23.5644 O   0  0  0  0  0  0  0  0  0  0  0  0
   34.0649   -1.6364   23.2900 C   0  0  0  0  0  0  0  0  0  0  0  0
   39.8106   -2.8416   22.2731 N   0  0  0  0  0  0  0  0  0  0  0  0
  1  2  2  0
  1 19  1  0
 27  1  1  0
  2  3  1  0
  3 17  2  0
  4  5  1  0
  4 11  1  0
  4 27  1  6
  5  6  2  0
  5 10  1  0
  6  7  1  0
  6 28  1  0
  7  8  2  0
  7 29  1  0
  8  9  1  0
  9 10  2  0
 11 12  2  0
 11 25  1  0
 12 13  1  0
 12 26  1  0
 13 14  2  0
 14 15  1  0
 15 25  2  0
 28 16  1  0
 16 29  1  0
 16 30  1  1
 16 31  1  0
 17 18  1  0
 17 21  1  0
 18 19  2  0
 19 20  1  0
 20 32  1  0
 21 22  2  0
 21 23  2  0
 21 24  1  1
 32 33  2  0
 32 37  1  0
 33 34  1  0
 34 35  2  0
 34 40  1  0
 35 36  1  0
 36 37  2  0
 36 38  1  0
 39 38  1  6
M  END
$$$$
