
     RDKit          3D

 40 44  0  0  0  0  0  0  0  0999 V2000
   36.5383   -7.5193   12.2731 C   0  0  0  0  0  0  0  0  0  0  0  0
   37.4212   -8.5084   11.8078 C   0  0  0  0  0  0  0  0  0  0  0  0
   38.6469   -8.7110   12.3980 C   0  0  0  0  0  0  0  0  0  0  0  0
   34.9327   -8.0648   10.4732 C   0  0  1  0  0  0  0  0  0  0  0  0
   33.7525   -8.9504   10.6209 C   0  0  0  0  0  0  0  0  0  0  0  0
   33.9530  -10.2848   10.2458 C   0  0  0  0  0  0  0  0  0  0  0  0
   32.9639  -11.2398   10.3098 C   0  0  0  0  0  0  0  0  0  0  0  0
   31.7088  -10.8492   10.7709 C   0  0  0  0  0  0  0  0  0  0  0  0
   31.4877   -9.5412   11.1459 C   0  0  0  0  0  0  0  0  0  0  0  0
   32.5185   -8.5959   11.0672 C   0  0  0  0  0  0  0  0  0  0  0  0
   34.6427   -7.1965    9.2791 C   0  0  0  0  0  0  0  0  0  0  0  0
   34.9927   -7.6125    8.0106 C   0  0  0  0  0  0  0  0  0  0  0  0
   34.7743   -6.8574    6.8803 C   0  0  0  0  0  0  0  0  0  0  0  0
   34.1748   -5.6271    7.0432 C   0  0  0  0  0  0  0  0  0  0  0  0
   33.8322   -5.2242    8.2995 C   0  0  0  0  0  0  0  0  0  0  0  0
   34.8789  -12.3641   10.0457 C   0  0  1  0  0  0  0  0  0  0  0  0
   39.0337   -7.9393   13.4672 C   0  0  0  0  0  0  0  0  0  0  0  0
   38.1733   -6.9872   13.9088 C   0  0  0  0  0  0  0  0  0  0  0  0
   36.9146   -6.7401   13.3439 C   0  0  0  0  0  0  0  0  0  0  0  0
   36.0940   -5.7229   13.8858 N   0  0  0  0  0  0  0  0  0  0  0  0
   40.6022   -8.2373   14.1809 S   0  0  1  0  0  6  0  0  0  0  0  0
   41.6566   -8.1208   13.0992 O   0  0  0  0  0  0  0  0  0  0  0  0
   40.9310   -7.1621   15.1958 O   0  0  0  0  0  0  0  0  0  0  0  0
   40.7026   -9.7833   14.9077 N   0  0  0  0  0  0  0  0  0  0  0  0
   34.0615   -5.9887    9.3774 N   0  0  0  0  0  0  0  0  0  0  0  0
   35.7498   -9.1738    7.7970 Cl  0  0  0  0  0  0  0  0  0  0  0  0
   35.2754   -7.3444   11.6468 N   0  0  0  0  0  0  0  0  0  0  0  0
   35.0761  -10.9775    9.7522 O   0  0  0  0  0  0  0  0  0  0  0  0
   33.4622  -12.4765    9.8702 O   0  0  0  0  0  0  0  0  0  0  0  0
   35.5846  -13.1902    9.2272 F   0  0  0  0  0  0  0  0  0  0  0  0
   35.1174  -12.5764   11.3952 F   0  0  0  0  0  0  0  0  0  0  0  0
   36.0053   -5.4574   15.2730 C   0  0  0  0  0  0  0  0  0  0  0  0
   36.6183   -6.2561   16.1473 N   0  0  0  0  0  0  0  0  0  0  0  0
   36.5507   -6.0280   17.4906 C   0  0  0  0  0  0  0  0  0  0  0  0
   35.8377   -4.9602   17.9034 N   0  0  0  0  0  0  0  0  0  0  0  0
   35.2087   -4.1362   17.0546 C   0  0  0  0  0  0  0  0  0  0  0  0
   35.3091   -4.4101   15.7226 N   0  0  0  0  0  0  0  0  0  0  0  0
   34.4704   -3.0345   17.4440 O   0  0  0  0  0  0  0  0  0  0  0  0
   33.8092   -2.2669   16.4606 C   0  0  0  0  0  0  0  0  0  0  0  0
   37.1921   -6.8572   18.4459 N   0  0  0  0  0  0  0  0  0  0  0  0
  1  2  2  0
  1 19  1  0
 27  1  1  0
  2  3  1  0
  3 17  2  0
  4  5  1  0
  4 11  1  0
  4 27  1  1
  5  6  2  0
  5 10  1  0
  6  7  1  0
  6 28  1  0
  7  8  2  0
  7 29  1  0
  8  9  1  0
  9 10  2  0
 11 12  2  0
 11 25  1  0
 12 13  1  0
 12 26  1  0
 13 14  2  0
 14 15  1  0
 15 25  2  0
 28 16  1  0
 16 29  1  0
 16 30  1  6
 16 31  1  0
 17 18  1  0
 17 21  1  0
 18 19  2  0
 19 20  1  0
 20 32  1  0
 21 22  2  0
 21 23  2  0
 21 24  1  1
 32 33  2  0
 32 37  1  0
 33 34  1  0
 34 35  2  0
 34 40  1  0
 35 36  1  0
 36 37  2  0
 36 38  1  0
 38 39  1  0
M  END
$$$$
