
     RDKit          3D

 40 44  0  0  0  0  0  0  0  0999 V2000
   34.9073   -3.0953   20.7054 C   0  0  0  0  0  0  0  0  0  0  0  0
   34.7754   -3.5643   21.9717 C   0  0  0  0  0  0  0  0  0  0  0  0
   34.8036   -2.7757   23.1199 C   0  0  0  0  0  0  0  0  0  0  0  0
   34.8948   -4.3931   18.3105 C   0  0  1  0  0  0  0  0  0  0  0  0
   34.5488   -3.4963   17.1365 C   0  0  0  0  0  0  0  0  0  0  0  0
   33.4425   -3.7504   16.3276 C   0  0  0  0  0  0  0  0  0  0  0  0
   33.1236   -2.9568   15.2466 C   0  0  0  0  0  0  0  0  0  0  0  0
   33.9437   -1.8827   14.9799 C   0  0  0  0  0  0  0  0  0  0  0  0
   35.0463   -1.6224   15.7785 C   0  0  0  0  0  0  0  0  0  0  0  0
   35.3680   -2.4285   16.8739 C   0  0  0  0  0  0  0  0  0  0  0  0
   35.9116   -5.3693   17.9469 C   0  0  0  0  0  0  0  0  0  0  0  0
   35.7531   -6.7122   18.0136 C   0  0  0  0  0  0  0  0  0  0  0  0
   36.7893   -7.5924   17.6389 C   0  0  0  0  0  0  0  0  0  0  0  0
   37.9840   -7.0852   17.1967 C   0  0  0  0  0  0  0  0  0  0  0  0
   38.1340   -5.7069   17.1328 C   0  0  0  0  0  0  0  0  0  0  0  0
   31.3671   -4.3991   15.5448 C   0  0  1  0  0  0  0  0  0  0  0  0
   34.9738   -1.4440   22.9892 C   0  0  0  0  0  0  0  0  0  0  0  0
   35.1161   -0.8882   21.7311 C   0  0  0  0  0  0  0  0  0  0  0  0
   35.0868   -1.6679   20.6142 C   0  0  0  0  0  0  0  0  0  0  0  0
   35.2354   -1.0833   19.3561 N   0  0  0  0  0  0  0  0  0  0  0  0
   35.0126   -0.3747   24.3979 S   0  0  1  0  0  6  0  0  0  0  0  0
   33.7719    0.4804   24.3580 O   0  0  0  0  0  0  0  0  0  0  0  0
   35.0710   -1.1968   25.6497 O   0  0  0  0  0  0  0  0  0  0  0  0
   36.3533    0.6745   24.2126 N   0  0  0  0  0  0  0  0  0  0  0  0
   37.1253   -4.9359   17.4984 N   0  0  0  0  0  0  0  0  0  0  0  0
   34.2788   -7.4272   18.5474 Cl  0  0  0  0  0  0  0  0  0  0  0  0
   34.9009   -3.7425   19.5111 N   0  0  0  0  0  0  0  0  0  0  0  0
   32.4666   -4.7420   16.3631 O   0  0  0  0  0  0  0  0  0  0  0  0
   31.9753   -3.4740   14.6538 O   0  0  0  0  0  0  0  0  0  0  0  0
   30.8263   -5.4837   14.8889 F   0  0  0  0  0  0  0  0  0  0  0  0
   30.3934   -3.6844   16.2451 F   0  0  0  0  0  0  0  0  0  0  0  0
   35.0775    0.2792   19.0746 C   0  0  0  0  0  0  0  0  0  0  0  0
   35.3925    0.9390   17.9644 N   0  0  0  0  0  0  0  0  0  0  0  0
   35.2465    2.2313   17.7155 C   0  0  0  0  0  0  0  0  0  0  0  0
   34.7134    2.9840   18.7010 N   0  0  0  0  0  0  0  0  0  0  0  0
   34.3638    2.4183   19.8530 C   0  0  0  0  0  0  0  0  0  0  0  0
   34.5356    1.0993   20.0488 N   0  0  0  0  0  0  0  0  0  0  0  0
   33.8152    3.2324   20.8507 O   0  0  0  0  0  0  0  0  0  0  0  0
   33.3115    2.6255   22.0182 C   0  0  0  0  0  0  0  0  0  0  0  0
   35.6182    2.8491   16.4912 N   0  0  0  0  0  0  0  0  0  0  0  0
  1  2  2  0
  1 19  1  0
 27  1  1  0
  2  3  1  0
  3 17  2  0
  4  5  1  0
  4 11  1  0
  4 27  1  1
  5  6  2  0
  5 10  1  0
  6  7  1  0
  6 28  1  0
  7  8  2  0
  7 29  1  0
  8  9  1  0
  9 10  2  0
 11 12  2  0
 11 25  1  0
 12 13  1  0
 12 26  1  0
 13 14  2  0
 14 15  1  0
 15 25  2  0
 28 16  1  0
 16 29  1  0
 16 30  1  6
 16 31  1  0
 17 18  1  0
 17 21  1  0
 18 19  2  0
 19 20  1  0
 20 32  1  0
 21 22  2  0
 21 23  2  0
 21 24  1  6
 32 33  2  0
 32 37  1  0
 33 34  1  0
 34 35  2  0
 34 40  1  0
 35 36  1  0
 36 37  2  0
 36 38  1  0
 39 38  1  6
M  END
$$$$
