
     RDKit          3D

 40 44  0  0  0  0  0  0  0  0999 V2000
   33.3571   -2.5400   20.4808 C   0  0  0  0  0  0  0  0  0  0  0  0
   32.2131   -2.8923   21.1195 C   0  0  0  0  0  0  0  0  0  0  0  0
   31.2215   -2.0020   21.5259 C   0  0  0  0  0  0  0  0  0  0  0  0
   35.4404   -4.0502   19.5867 C   0  0  1  0  0  0  0  0  0  0  0  0
   35.5036   -4.1616   18.0748 C   0  0  0  0  0  0  0  0  0  0  0  0
   35.3415   -5.3854   17.4276 C   0  0  0  0  0  0  0  0  0  0  0  0
   35.4137   -5.5079   16.0565 C   0  0  0  0  0  0  0  0  0  0  0  0
   35.6553   -4.3654   15.3259 C   0  0  0  0  0  0  0  0  0  0  0  0
   35.8181   -3.1441   15.9608 C   0  0  0  0  0  0  0  0  0  0  0  0
   35.7450   -3.0221   17.3511 C   0  0  0  0  0  0  0  0  0  0  0  0
   36.7732   -3.9614   20.1653 C   0  0  0  0  0  0  0  0  0  0  0  0
   37.3541   -4.9238   20.9199 C   0  0  0  0  0  0  0  0  0  0  0  0
   38.6540   -4.7612   21.4421 C   0  0  0  0  0  0  0  0  0  0  0  0
   39.3499   -3.6082   21.1842 C   0  0  0  0  0  0  0  0  0  0  0  0
   38.7434   -2.6294   20.4094 C   0  0  0  0  0  0  0  0  0  0  0  0
   34.6802   -7.5256   16.8597 C   0  0  1  0  0  0  0  0  0  0  0  0
   31.3881   -0.6867   21.2776 C   0  0  0  0  0  0  0  0  0  0  0  0
   32.5283   -0.2471   20.6305 C   0  0  0  0  0  0  0  0  0  0  0  0
   33.4922   -1.1257   20.2367 C   0  0  0  0  0  0  0  0  0  0  0  0
   34.6349   -0.6568   19.5878 N   0  0  0  0  0  0  0  0  0  0  0  0
   30.1711    0.5052   21.7549 S   0  0  1  0  0  6  0  0  0  0  0  0
   29.4535    0.9519   20.5069 O   0  0  0  0  0  0  0  0  0  0  0  0
   29.2246   -0.1118   22.7397 O   0  0  0  0  0  0  0  0  0  0  0  0
   31.0002    1.8694   22.3746 N   0  0  0  0  0  0  0  0  0  0  0  0
   37.5231   -2.8421   19.9497 N   0  0  0  0  0  0  0  0  0  0  0  0
   36.5503   -6.4052   21.2788 Cl  0  0  0  0  0  0  0  0  0  0  0  0
   34.3961   -3.2931   20.0350 N   0  0  0  0  0  0  0  0  0  0  0  0
   35.0944   -6.6693   17.9043 O   0  0  0  0  0  0  0  0  0  0  0  0
   35.2114   -6.8459   15.7304 O   0  0  0  0  0  0  0  0  0  0  0  0
   35.1762   -8.8053   16.9850 F   0  0  0  0  0  0  0  0  0  0  0  0
   33.2933   -7.5258   16.6987 F   0  0  0  0  0  0  0  0  0  0  0  0
   34.9394    0.6909   19.3610 C   0  0  0  0  0  0  0  0  0  0  0  0
   35.9761    1.2091   18.7101 N   0  0  0  0  0  0  0  0  0  0  0  0
   36.2571    2.4879   18.5117 C   0  0  0  0  0  0  0  0  0  0  0  0
   35.3934    3.3874   19.0281 N   0  0  0  0  0  0  0  0  0  0  0  0
   34.3225    2.9706   19.6980 C   0  0  0  0  0  0  0  0  0  0  0  0
   34.0885    1.6576   19.8677 N   0  0  0  0  0  0  0  0  0  0  0  0
   33.4511    3.9342   20.2189 O   0  0  0  0  0  0  0  0  0  0  0  0
   32.2232    3.5111   20.7653 C   0  0  0  0  0  0  0  0  0  0  0  0
   37.3985    2.9471   17.8011 N   0  0  0  0  0  0  0  0  0  0  0  0
  1  2  2  0
  1 19  1  0
 27  1  1  0
  2  3  1  0
  3 17  2  0
  4  5  1  0
  4 11  1  0
  4 27  1  6
  5  6  2  0
  5 10  1  0
  6  7  1  0
  6 28  1  0
  7  8  2  0
  7 29  1  0
  8  9  1  0
  9 10  2  0
 11 12  2  0
 11 25  1  0
 12 13  1  0
 12 26  1  0
 13 14  2  0
 14 15  1  0
 15 25  2  0
 28 16  1  0
 16 29  1  0
 16 30  1  1
 16 31  1  0
 17 18  1  0
 17 21  1  0
 18 19  2  0
 19 20  1  0
 20 32  1  0
 21 22  2  0
 21 23  2  0
 21 24  1  1
 32 33  2  0
 32 37  1  0
 33 34  1  0
 34 35  2  0
 34 40  1  0
 35 36  1  0
 36 37  2  0
 36 38  1  0
 39 38  1  6
M  END
$$$$
