
     RDKit          3D

 40 44  0  0  0  0  0  0  0  0999 V2000
   37.1409   -8.7903   12.1044 C   0  0  0  0  0  0  0  0  0  0  0  0
   38.1960   -9.6355   12.2200 C   0  0  0  0  0  0  0  0  0  0  0  0
   39.3675   -9.3555   12.9204 C   0  0  0  0  0  0  0  0  0  0  0  0
   34.7603   -9.0732   10.8111 C   0  0  1  0  0  0  0  0  0  0  0  0
   34.8960   -9.1563    9.3022 C   0  0  0  0  0  0  0  0  0  0  0  0
   34.2286   -8.2674    8.4612 C   0  0  0  0  0  0  0  0  0  0  0  0
   34.3261   -8.3395    7.0881 C   0  0  0  0  0  0  0  0  0  0  0  0
   35.1171   -9.3338    6.5561 C   0  0  0  0  0  0  0  0  0  0  0  0
   35.7844  -10.2225    7.3846 C   0  0  0  0  0  0  0  0  0  0  0  0
   35.6839  -10.1479    8.7765 C   0  0  0  0  0  0  0  0  0  0  0  0
   33.7094   -9.9562   11.2957 C   0  0  0  0  0  0  0  0  0  0  0  0
   32.3898   -9.6534   11.3084 C   0  0  0  0  0  0  0  0  0  0  0  0
   31.4322  -10.5682   11.7930 C   0  0  0  0  0  0  0  0  0  0  0  0
   31.8381  -11.7912   12.2618 C   0  0  0  0  0  0  0  0  0  0  0  0
   33.1934  -12.0896   12.2434 C   0  0  0  0  0  0  0  0  0  0  0  0
   33.2172   -6.3915    7.5675 C   0  0  1  0  0  0  0  0  0  0  0  0
   39.4857   -8.1621   13.5378 C   0  0  0  0  0  0  0  0  0  0  0  0
   38.4534   -7.2448   13.4667 C   0  0  0  0  0  0  0  0  0  0  0  0
   37.3116   -7.5281   12.7796 C   0  0  0  0  0  0  0  0  0  0  0  0
   36.2854   -6.5846   12.7205 N   0  0  0  0  0  0  0  0  0  0  0  0
   40.9379   -7.7352   14.4534 S   0  0  1  0  0  6  0  0  0  0  0  0
   42.1216   -8.3396   13.7425 O   0  0  0  0  0  0  0  0  0  0  0  0
   41.0548   -6.2435   14.5407 O   0  0  0  0  0  0  0  0  0  0  0  0
   40.8261   -8.4973   15.9828 N   0  0  0  0  0  0  0  0  0  0  0  0
   34.0405  -11.1893   11.7769 N   0  0  0  0  0  0  0  0  0  0  0  0
   31.7991   -8.1429   10.7259 Cl  0  0  0  0  0  0  0  0  0  0  0  0
   35.9538   -8.9313   11.4594 N   0  0  0  0  0  0  0  0  0  0  0  0
   33.3821   -7.1932    8.7191 O   0  0  0  0  0  0  0  0  0  0  0  0
   33.5479   -7.3212    6.5449 O   0  0  0  0  0  0  0  0  0  0  0  0
   31.9376   -5.8971    7.4356 F   0  0  0  0  0  0  0  0  0  0  0  0
   34.1710   -5.3745    7.4941 F   0  0  0  0  0  0  0  0  0  0  0  0
   35.9350   -5.7064   13.7531 C   0  0  0  0  0  0  0  0  0  0  0  0
   35.0367   -4.7266   13.7401 N   0  0  0  0  0  0  0  0  0  0  0  0
   34.7224   -3.8963   14.7225 C   0  0  0  0  0  0  0  0  0  0  0  0
   35.3876   -4.0521   15.8866 N   0  0  0  0  0  0  0  0  0  0  0  0
   36.3078   -5.0054   16.0028 C   0  0  0  0  0  0  0  0  0  0  0  0
   36.5849   -5.8201   14.9697 N   0  0  0  0  0  0  0  0  0  0  0  0
   36.9765   -5.1346   17.2256 O   0  0  0  0  0  0  0  0  0  0  0  0
   37.8545   -6.2219   17.4050 C   0  0  0  0  0  0  0  0  0  0  0  0
   33.7442   -2.8719   14.6114 N   0  0  0  0  0  0  0  0  0  0  0  0
  1  2  2  0
  1 19  1  0
 27  1  1  0
  2  3  1  0
  3 17  2  0
  4  5  1  0
  4 11  1  0
  4 27  1  1
  5  6  2  0
  5 10  1  0
  6  7  1  0
  6 28  1  0
  7  8  2  0
  7 29  1  0
  8  9  1  0
  9 10  2  0
 11 12  2  0
 11 25  1  0
 12 13  1  0
 12 26  1  0
 13 14  2  0
 14 15  1  0
 15 25  2  0
 28 16  1  0
 16 29  1  0
 16 30  1  6
 16 31  1  0
 17 18  1  0
 17 21  1  0
 18 19  2  0
 19 20  1  0
 20 32  1  0
 21 22  2  0
 21 23  2  0
 21 24  1  1
 32 33  2  0
 32 37  1  0
 33 34  1  0
 34 35  2  0
 34 40  1  0
 35 36  1  0
 36 37  2  0
 36 38  1  0
 39 38  1  6
M  END
$$$$
