
     RDKit          3D

 40 44  0  0  0  0  0  0  0  0999 V2000
   34.8803   -8.1827   11.2074 C   0  0  0  0  0  0  0  0  0  0  0  0
   34.0966   -7.6116   10.1906 C   0  0  0  0  0  0  0  0  0  0  0  0
   34.5420   -6.5335    9.4616 C   0  0  0  0  0  0  0  0  0  0  0  0
   33.1557   -9.9108   11.6006 C   0  0  1  0  0  0  0  0  0  0  0  0
   33.2511  -10.9654   10.5624 C   0  0  0  0  0  0  0  0  0  0  0  0
   32.2797  -10.9055    9.5553 C   0  0  0  0  0  0  0  0  0  0  0  0
   32.2146  -11.8097    8.5197 C   0  0  0  0  0  0  0  0  0  0  0  0
   33.1648  -12.8276    8.4818 C   0  0  0  0  0  0  0  0  0  0  0  0
   34.1307  -12.9069    9.4621 C   0  0  0  0  0  0  0  0  0  0  0  0
   34.1662  -11.9686   10.5017 C   0  0  0  0  0  0  0  0  0  0  0  0
   32.4495  -10.5496   12.7656 C   0  0  0  0  0  0  0  0  0  0  0  0
   31.0802  -10.4399   12.8985 C   0  0  0  0  0  0  0  0  0  0  0  0
   30.3771  -10.9827   13.9504 C   0  0  0  0  0  0  0  0  0  0  0  0
   31.0933  -11.6665   14.9089 C   0  0  0  0  0  0  0  0  0  0  0  0
   32.4453  -11.7701   14.7697 C   0  0  0  0  0  0  0  0  0  0  0  0
   30.8989  -10.1034    7.9210 C   0  0  1  0  0  0  0  0  0  0  0  0
   35.7776   -5.9900    9.7186 C   0  0  0  0  0  0  0  0  0  0  0  0
   36.5265   -6.5496   10.7024 C   0  0  0  0  0  0  0  0  0  0  0  0
   36.1203   -7.6470   11.4739 C   0  0  0  0  0  0  0  0  0  0  0  0
   36.9827   -8.1544   12.4742 N   0  0  0  0  0  0  0  0  0  0  0  0
   36.2962   -4.6201    8.7633 S   0  0  1  0  0  6  0  0  0  0  0  0
   36.5398   -5.0851    7.3421 O   0  0  0  0  0  0  0  0  0  0  0  0
   35.1890   -3.5901    8.6768 O   0  0  0  0  0  0  0  0  0  0  0  0
   37.7222   -3.9012    9.3780 N   0  0  0  0  0  0  0  0  0  0  0  0
   33.0954  -11.2272   13.7297 N   0  0  0  0  0  0  0  0  0  0  0  0
   30.1655   -9.5772   11.6838 Cl  0  0  0  0  0  0  0  0  0  0  0  0
   34.3939   -9.3025   11.9335 N   0  0  0  0  0  0  0  0  0  0  0  0
   31.2086  -10.0222    9.3157 O   0  0  0  0  0  0  0  0  0  0  0  0
   31.1403  -11.4929    7.6733 O   0  0  0  0  0  0  0  0  0  0  0  0
   29.6248   -9.7239    7.6327 F   0  0  0  0  0  0  0  0  0  0  0  0
   31.8641   -9.4116    7.2050 F   0  0  0  0  0  0  0  0  0  0  0  0
   37.4963   -7.3613   13.5278 C   0  0  0  0  0  0  0  0  0  0  0  0
   37.1876   -6.0663   13.6018 N   0  0  0  0  0  0  0  0  0  0  0  0
   37.6677   -5.2749   14.6040 C   0  0  0  0  0  0  0  0  0  0  0  0
   38.4697   -5.8535   15.5210 N   0  0  0  0  0  0  0  0  0  0  0  0
   38.8014   -7.1508   15.4788 C   0  0  0  0  0  0  0  0  0  0  0  0
   38.2939   -7.8961   14.4559 N   0  0  0  0  0  0  0  0  0  0  0  0
   39.6202   -7.7744   16.4014 O   0  0  0  0  0  0  0  0  0  0  0  0
   39.8719   -9.1578   16.2737 C   0  0  0  0  0  0  0  0  0  0  0  0
   37.3571   -3.8953   14.7118 N   0  0  0  0  0  0  0  0  0  0  0  0
  1  2  2  0
  1 19  1  0
 27  1  1  0
  2  3  1  0
  3 17  2  0
  4  5  1  0
  4 11  1  0
  4 27  1  1
  5  6  2  0
  5 10  1  0
  6  7  1  0
  6 28  1  0
  7  8  2  0
  7 29  1  0
  8  9  1  0
  9 10  2  0
 11 12  2  0
 11 25  1  0
 12 13  1  0
 12 26  1  0
 13 14  2  0
 14 15  1  0
 15 25  2  0
 28 16  1  0
 16 29  1  0
 16 30  1  1
 16 31  1  0
 17 18  1  0
 17 21  1  0
 18 19  2  0
 19 20  1  0
 20 32  1  0
 21 22  2  0
 21 23  2  0
 21 24  1  1
 32 33  2  0
 32 37  1  0
 33 34  1  0
 34 35  2  0
 34 40  1  0
 35 36  1  0
 36 37  2  0
 36 38  1  0
 38 39  1  0
M  END
$$$$
