
     RDKit          3D

 40 44  0  0  0  0  0  0  0  0999 V2000
   36.0789   -6.5579   15.4370 C   0  0  0  0  0  0  0  0  0  0  0  0
   35.7083   -7.9117   15.4996 C   0  0  0  0  0  0  0  0  0  0  0  0
   34.9349   -8.3969   16.5283 C   0  0  0  0  0  0  0  0  0  0  0  0
   37.1012   -6.8960   13.2108 C   0  0  1  0  0  0  0  0  0  0  0  0
   36.6719   -6.2829   11.9307 C   0  0  0  0  0  0  0  0  0  0  0  0
   35.8916   -7.1019   11.1050 C   0  0  0  0  0  0  0  0  0  0  0  0
   35.4157   -6.6967    9.8787 C   0  0  0  0  0  0  0  0  0  0  0  0
   35.7312   -5.4097    9.4494 C   0  0  0  0  0  0  0  0  0  0  0  0
   36.4978   -4.5853   10.2450 C   0  0  0  0  0  0  0  0  0  0  0  0
   36.9652   -5.0317   11.4877 C   0  0  0  0  0  0  0  0  0  0  0  0
   38.5409   -7.2859   13.0125 C   0  0  0  0  0  0  0  0  0  0  0  0
   38.8716   -8.5725   12.6385 C   0  0  0  0  0  0  0  0  0  0  0  0
   40.1688   -8.9982   12.4609 C   0  0  0  0  0  0  0  0  0  0  0  0
   41.1743   -8.0795   12.6714 C   0  0  0  0  0  0  0  0  0  0  0  0
   40.8387   -6.8109   13.0403 C   0  0  0  0  0  0  0  0  0  0  0  0
   34.2710   -8.5474   10.3943 C   0  0  1  0  0  0  0  0  0  0  0  0
   34.5055   -7.5543   17.5253 C   0  0  0  0  0  0  0  0  0  0  0  0
   34.8688   -6.2485   17.4548 C   0  0  0  0  0  0  0  0  0  0  0  0
   35.6544   -5.7038   16.4299 C   0  0  0  0  0  0  0  0  0  0  0  0
   35.9725   -4.3254   16.4520 N   0  0  0  0  0  0  0  0  0  0  0  0
   33.5248   -8.2216   18.8102 S   0  0  1  0  0  6  0  0  0  0  0  0
   33.7778   -9.7134   18.8878 O   0  0  0  0  0  0  0  0  0  0  0  0
   33.9576   -7.6592   20.1483 O   0  0  0  0  0  0  0  0  0  0  0  0
   31.8545   -7.9408   18.5661 N   0  0  0  0  0  0  0  0  0  0  0  0
   39.5620   -6.4334   13.2036 N   0  0  0  0  0  0  0  0  0  0  0  0
   37.6004   -9.7415   12.3661 Cl  0  0  0  0  0  0  0  0  0  0  0  0
   36.8696   -6.0882   14.3544 N   0  0  0  0  0  0  0  0  0  0  0  0
   35.4121   -8.4189   11.2481 O   0  0  0  0  0  0  0  0  0  0  0  0
   34.6700   -7.7295    9.2887 O   0  0  0  0  0  0  0  0  0  0  0  0
   34.0106   -9.8343   10.0389 F   0  0  0  0  0  0  0  0  0  0  0  0
   33.1944   -7.9008   10.9824 F   0  0  0  0  0  0  0  0  0  0  0  0
   36.2710   -3.6193   17.6415 C   0  0  0  0  0  0  0  0  0  0  0  0
   36.5397   -2.3140   17.5949 N   0  0  0  0  0  0  0  0  0  0  0  0
   36.8325   -1.6055   18.7234 C   0  0  0  0  0  0  0  0  0  0  0  0
   36.8404   -2.2771   19.8929 N   0  0  0  0  0  0  0  0  0  0  0  0
   36.5756   -3.5877   19.9783 C   0  0  0  0  0  0  0  0  0  0  0  0
   36.2890   -4.2475   18.8199 N   0  0  0  0  0  0  0  0  0  0  0  0
   36.5754   -4.3056   21.1595 O   0  0  0  0  0  0  0  0  0  0  0  0
   35.6888   -3.9306   22.1923 C   0  0  0  0  0  0  0  0  0  0  0  0
   37.1212   -0.2170   18.7079 N   0  0  0  0  0  0  0  0  0  0  0  0
  1  2  2  0
  1 19  1  0
 27  1  1  0
  2  3  1  0
  3 17  2  0
  4  5  1  0
  4 11  1  0
  4 27  1  1
  5  6  2  0
  5 10  1  0
  6  7  1  0
  6 28  1  0
  7  8  2  0
  7 29  1  0
  8  9  1  0
  9 10  2  0
 11 12  2  0
 11 25  1  0
 12 13  1  0
 12 26  1  0
 13 14  2  0
 14 15  1  0
 15 25  2  0
 28 16  1  0
 16 29  1  0
 16 30  1  6
 16 31  1  0
 17 18  1  0
 17 21  1  0
 18 19  2  0
 19 20  1  0
 20 32  1  0
 21 22  2  0
 21 23  2  0
 21 24  1  6
 32 33  2  0
 32 37  1  0
 33 34  1  0
 34 35  2  0
 34 40  1  0
 35 36  1  0
 36 37  2  0
 36 38  1  0
 38 39  1  0
M  END
$$$$
