
     RDKit          3D

 40 44  0  0  0  0  0  0  0  0999 V2000
   34.7177   -8.7447   13.8046 C   0  0  0  0  0  0  0  0  0  0  0  0
   34.0884   -9.1986   14.9176 C   0  0  0  0  0  0  0  0  0  0  0  0
   34.5921   -9.1010   16.2129 C   0  0  0  0  0  0  0  0  0  0  0  0
   33.9764   -8.8059   11.1842 C   0  0  1  0  0  0  0  0  0  0  0  0
   34.0377   -7.4507   10.5047 C   0  0  0  0  0  0  0  0  0  0  0  0
   33.5310   -7.2563    9.2208 C   0  0  0  0  0  0  0  0  0  0  0  0
   33.5943   -6.0368    8.5815 C   0  0  0  0  0  0  0  0  0  0  0  0
   34.1838   -4.9918    9.2582 C   0  0  0  0  0  0  0  0  0  0  0  0
   34.6907   -5.1755   10.5351 C   0  0  0  0  0  0  0  0  0  0  0  0
   34.6259   -6.4131   11.1814 C   0  0  0  0  0  0  0  0  0  0  0  0
   34.3924   -9.8684   10.2803 C   0  0  0  0  0  0  0  0  0  0  0  0
   33.5794  -10.8403    9.8034 C   0  0  0  0  0  0  0  0  0  0  0  0
   34.0610  -11.8344    8.9266 C   0  0  0  0  0  0  0  0  0  0  0  0
   35.3777  -11.8225    8.5445 C   0  0  0  0  0  0  0  0  0  0  0  0
   36.2009  -10.8210    9.0402 C   0  0  0  0  0  0  0  0  0  0  0  0
   32.2717   -7.3899    7.2877 C   0  0  1  0  0  0  0  0  0  0  0  0
   35.7930   -8.5160   16.4005 C   0  0  0  0  0  0  0  0  0  0  0  0
   36.4979   -8.0276   15.3159 C   0  0  0  0  0  0  0  0  0  0  0  0
   35.9967   -8.1276   14.0529 C   0  0  0  0  0  0  0  0  0  0  0  0
   36.7287   -7.6294   12.9747 N   0  0  0  0  0  0  0  0  0  0  0  0
   36.4963   -8.3468   18.0148 S   0  0  1  0  0  6  0  0  0  0  0  0
   35.6699   -9.1767   18.9636 O   0  0  0  0  0  0  0  0  0  0  0  0
   37.9239   -8.8025   17.9898 O   0  0  0  0  0  0  0  0  0  0  0  0
   36.3149   -6.7110   18.4878 N   0  0  0  0  0  0  0  0  0  0  0  0
   35.6892   -9.9187    9.8585 N   0  0  0  0  0  0  0  0  0  0  0  0
   31.9107  -10.9172   10.2269 Cl  0  0  0  0  0  0  0  0  0  0  0  0
   34.3482   -8.7752   12.4978 N   0  0  0  0  0  0  0  0  0  0  0  0
   32.8996   -8.1145    8.3254 O   0  0  0  0  0  0  0  0  0  0  0  0
   33.0077   -6.1749    7.3268 O   0  0  0  0  0  0  0  0  0  0  0  0
   32.3584   -8.0186    6.0644 F   0  0  0  0  0  0  0  0  0  0  0  0
   30.9526   -7.0577    7.6022 F   0  0  0  0  0  0  0  0  0  0  0  0
   37.4787   -6.4471   12.9848 C   0  0  0  0  0  0  0  0  0  0  0  0
   38.1950   -5.9104   12.0019 N   0  0  0  0  0  0  0  0  0  0  0  0
   38.9084   -4.7952   12.0287 C   0  0  0  0  0  0  0  0  0  0  0  0
   38.9190   -4.1079   13.1904 N   0  0  0  0  0  0  0  0  0  0  0  0
   38.2330   -4.5612   14.2360 C   0  0  0  0  0  0  0  0  0  0  0  0
   37.5255   -5.7012   14.1496 N   0  0  0  0  0  0  0  0  0  0  0  0
   38.2697   -3.8207   15.4232 O   0  0  0  0  0  0  0  0  0  0  0  0
   37.4963   -4.2572   16.5171 C   0  0  0  0  0  0  0  0  0  0  0  0
   39.6481   -4.3012   10.9208 N   0  0  0  0  0  0  0  0  0  0  0  0
  1  2  2  0
  1 19  1  0
 27  1  1  0
  2  3  1  0
  3 17  2  0
  4  5  1  0
  4 11  1  0
  4 27  1  1
  5  6  2  0
  5 10  1  0
  6  7  1  0
  6 28  1  0
  7  8  2  0
  7 29  1  0
  8  9  1  0
  9 10  2  0
 11 12  2  0
 11 25  1  0
 12 13  1  0
 12 26  1  0
 13 14  2  0
 14 15  1  0
 15 25  2  0
 28 16  1  0
 16 29  1  0
 16 30  1  6
 16 31  1  0
 17 18  1  0
 17 21  1  0
 18 19  2  0
 19 20  1  0
 20 32  1  0
 21 22  2  0
 21 23  2  0
 21 24  1  1
 32 33  2  0
 32 37  1  0
 33 34  1  0
 34 35  2  0
 34 40  1  0
 35 36  1  0
 36 37  2  0
 36 38  1  0
 39 38  1  6
M  END
$$$$
