
     RDKit          3D

 23 24  0  0  0  0  0  0  0  0999 V2000
   -7.5853  -33.5229  -15.2403 C   0  0  1  0  0  0  0  0  0  0  0  0
   -7.9389  -34.7204  -14.4095 C   0  0  1  0  0  0  0  0  0  0  0  0
   -6.8617  -35.7699  -14.3917 C   0  0  2  0  0  0  0  0  0  0  0  0
   -6.4398  -36.0921  -15.8073 C   0  0  1  0  0  0  0  0  0  0  0  0
   -6.1606  -34.8186  -16.5279 C   0  0  1  0  0  0  0  0  0  0  0  0
   -5.8824  -35.1617  -17.9834 C   0  0  0  0  0  0  0  0  0  0  0  0
   -6.6684  -32.6585  -14.6490 O   0  0  0  0  0  0  0  0  0  0  0  0
   -8.3154  -34.4366  -13.1301 O   0  0  0  0  0  0  0  0  0  0  0  0
   -7.4365  -36.9361  -13.8690 O   0  0  0  0  0  0  0  0  0  0  0  0
   -5.2487  -36.8127  -15.7272 O   0  0  0  0  0  0  0  0  0  0  0  0
   -7.1943  -33.9008  -16.5201 O   0  0  0  0  0  0  0  0  0  0  0  0
   -6.3296  -34.0699  -18.7425 O   0  0  0  0  0  0  0  0  0  0  0  0
   -7.3456  -29.0333  -15.7426 C   0  0  1  0  0  0  0  0  0  0  0  0
   -8.3078  -29.4126  -14.6229 C   0  0  1  0  0  0  0  0  0  0  0  0
   -7.6108  -30.5515  -13.8666 C   0  0  2  0  0  0  0  0  0  0  0  0
   -6.9089  -31.3470  -14.9261 C   0  0  1  0  0  0  0  0  0  0  0  0
   -5.6566  -30.5444  -15.2284 C   0  0  1  0  0  0  0  0  0  0  0  0
   -4.8274  -31.1282  -16.3233 C   0  0  0  0  0  0  0  0  0  0  0  0
   -7.5057  -27.6353  -15.9060 O   0  0  0  0  0  0  0  0  0  0  0  0
   -8.6107  -28.3562  -13.7992 O   0  0  0  0  0  0  0  0  0  0  0  0
   -8.4494  -31.2333  -13.0431 O   0  0  0  0  0  0  0  0  0  0  0  0
   -6.0353  -29.2460  -15.4339 O   0  0  0  0  0  0  0  0  0  0  0  0
   -5.4662  -30.7712  -17.5351 O   0  0  0  0  0  0  0  0  0  0  0  0
  1  2  1  0
  1  7  1  1
  1 11  1  0
  2  3  1  0
  2  8  1  1
  3  4  1  0
  3  9  1  6
  5  4  1  0
  4 10  1  1
  5  6  1  6
 11  5  1  0
  6 12  1  0
 16  7  1  1
 13 14  1  0
 13 19  1  1
 22 13  1  0
 15 14  1  0
 14 20  1  1
 16 15  1  0
 15 21  1  6
 17 16  1  0
 17 18  1  6
 17 22  1  0
 23 18  1  0
M  END
$$$$
