
     RDKit          3D

 23 24  0  0  0  0  0  0  0  0999 V2000
   -7.8257  -34.0044  -15.4409 C   0  0  1  0  0  0  0  0  0  0  0  0
   -8.2582  -34.8702  -14.2951 C   0  0  1  0  0  0  0  0  0  0  0  0
   -7.2004  -35.8445  -13.8547 C   0  0  2  0  0  0  0  0  0  0  0  0
   -6.6769  -36.6051  -15.0518 C   0  0  1  0  0  0  0  0  0  0  0  0
   -6.3259  -35.6324  -16.1240 C   0  0  1  0  0  0  0  0  0  0  0  0
   -5.9429  -36.4275  -17.3629 C   0  0  0  0  0  0  0  0  0  0  0  0
   -6.9441  -32.9843  -15.0949 O   0  0  0  0  0  0  0  0  0  0  0  0
   -8.7265  -34.1897  -13.2104 O   0  0  0  0  0  0  0  0  0  0  0  0
   -7.8296  -36.7835  -13.0264 O   0  0  0  0  0  0  0  0  0  0  0  0
   -5.5056  -37.2468  -14.6509 O   0  0  0  0  0  0  0  0  0  0  0  0
   -7.3441  -34.7738  -16.4942 O   0  0  0  0  0  0  0  0  0  0  0  0
   -6.6315  -35.8457  -18.4381 O   0  0  0  0  0  0  0  0  0  0  0  0
   -7.8824  -29.7847  -17.0130 C   0  0  1  0  0  0  0  0  0  0  0  0
   -8.4526  -29.7143  -15.6011 C   0  0  1  0  0  0  0  0  0  0  0  0
   -7.5692  -30.6515  -14.7668 C   0  0  2  0  0  0  0  0  0  0  0  0
   -7.2423  -31.7926  -15.6830 C   0  0  1  0  0  0  0  0  0  0  0  0
   -6.1365  -31.2538  -16.5720 C   0  0  1  0  0  0  0  0  0  0  0  0
   -5.6972  -32.2177  -17.6231 C   0  0  0  0  0  0  0  0  0  0  0  0
   -8.0677  -28.4864  -17.5485 O   0  0  0  0  0  0  0  0  0  0  0  0
   -8.4704  -28.4373  -15.0961 O   0  0  0  0  0  0  0  0  0  0  0  0
   -8.1180  -30.9685  -13.5649 O   0  0  0  0  0  0  0  0  0  0  0  0
   -6.5440  -30.0387  -17.0508 O   0  0  0  0  0  0  0  0  0  0  0  0
   -4.9013  -31.4771  -18.5298 O   0  0  0  0  0  0  0  0  0  0  0  0
  1  2  1  0
  1  7  1  1
  1 11  1  0
  2  3  1  0
  2  8  1  1
  3  4  1  0
  3  9  1  1
  5  4  1  0
  4 10  1  1
  5  6  1  6
 11  5  1  0
  6 12  1  0
 16  7  1  1
 13 14  1  0
 13 19  1  1
 22 13  1  0
 15 14  1  0
 14 20  1  1
 16 15  1  0
 15 21  1  1
 17 16  1  0
 17 18  1  6
 17 22  1  0
 23 18  1  0
M  END
$$$$
