
     RDKit          3D

 23 24  0  0  0  0  0  0  0  0999 V2000
   -7.6510  -33.9399  -15.7224 C   0  0  1  0  0  0  0  0  0  0  0  0
   -8.3520  -35.2523  -15.5331 C   0  0  1  0  0  0  0  0  0  0  0  0
   -7.4109  -36.3959  -15.2713 C   0  0  2  0  0  0  0  0  0  0  0  0
   -6.3233  -36.4124  -16.3214 C   0  0  1  0  0  0  0  0  0  0  0  0
   -5.7439  -35.0449  -16.4356 C   0  0  1  0  0  0  0  0  0  0  0  0
   -4.7594  -35.0546  -17.5951 C   0  0  0  0  0  0  0  0  0  0  0  0
   -7.1781  -33.3616  -14.5479 O   0  0  0  0  0  0  0  0  0  0  0  0
   -9.3306  -35.2450  -14.5838 O   0  0  0  0  0  0  0  0  0  0  0  0
   -8.1470  -37.5766  -15.4374 O   0  0  0  0  0  0  0  0  0  0  0  0
   -5.3224  -37.2683  -15.8630 O   0  0  0  0  0  0  0  0  0  0  0  0
   -6.6577  -34.0394  -16.6904 O   0  0  0  0  0  0  0  0  0  0  0  0
   -5.5176  -34.8802  -18.7627 O   0  0  0  0  0  0  0  0  0  0  0  0
   -7.0060  -29.5448  -14.9941 C   0  0  1  0  0  0  0  0  0  0  0  0
   -8.2584  -29.9063  -14.2039 C   0  0  1  0  0  0  0  0  0  0  0  0
   -7.9493  -31.2679  -13.5672 C   0  0  2  0  0  0  0  0  0  0  0  0
   -7.1404  -32.0010  -14.5950 C   0  0  1  0  0  0  0  0  0  0  0  0
   -5.7447  -31.4211  -14.4561 C   0  0  1  0  0  0  0  0  0  0  0  0
   -4.7731  -31.9687  -15.4477 C   0  0  0  0  0  0  0  0  0  0  0  0
   -6.9058  -28.1351  -14.8979 O   0  0  0  0  0  0  0  0  0  0  0  0
   -8.5877  -28.9604  -13.2641 O   0  0  0  0  0  0  0  0  0  0  0  0
   -9.0573  -31.8976  -13.0961 O   0  0  0  0  0  0  0  0  0  0  0  0
   -5.8589  -30.0578  -14.4667 O   0  0  0  0  0  0  0  0  0  0  0  0
   -4.7678  -31.0635  -16.5361 O   0  0  0  0  0  0  0  0  0  0  0  0
  1  2  1  0
  1  7  1  1
  1 11  1  0
  2  3  1  0
  2  8  1  1
  3  4  1  0
  3  9  1  6
  5  4  1  0
  4 10  1  1
  5  6  1  6
 11  5  1  0
  6 12  1  0
 16  7  1  1
 13 14  1  0
 13 19  1  1
 22 13  1  0
 15 14  1  0
 14 20  1  1
 16 15  1  0
 15 21  1  6
 17 16  1  0
 17 18  1  6
 17 22  1  0
 23 18  1  0
M  END
$$$$
