
     RDKit          3D

 23 24  0  0  0  0  0  0  0  0999 V2000
   -6.6639  -32.2080  -14.5917 C   0  0  1  0  0  0  0  0  0  0  0  0
   -6.6966  -31.7467  -13.1576 C   0  0  1  0  0  0  0  0  0  0  0  0
   -7.1267  -30.2816  -13.1468 C   0  0  2  0  0  0  0  0  0  0  0  0
   -8.4616  -30.2238  -13.8311 C   0  0  1  0  0  0  0  0  0  0  0  0
   -8.4703  -30.8740  -15.1750 C   0  0  1  0  0  0  0  0  0  0  0  0
   -7.9734  -29.8408  -16.1836 C   0  0  0  0  0  0  0  0  0  0  0  0
   -6.3681  -33.5914  -14.5445 O   0  0  0  0  0  0  0  0  0  0  0  0
   -7.6492  -32.4388  -12.4158 O   0  0  0  0  0  0  0  0  0  0  0  0
   -6.1795  -29.4642  -13.7302 O   0  0  0  0  0  0  0  0  0  0  0  0
   -9.4212  -30.8096  -12.9904 O   0  0  0  0  0  0  0  0  0  0  0  0
   -7.8403  -32.0693  -15.2607 O   0  0  0  0  0  0  0  0  0  0  0  0
   -8.3234  -28.5875  -15.6287 O   0  0  0  0  0  0  0  0  0  0  0  0
   -6.8017  -35.5766  -17.9278 C   0  0  1  0  0  0  0  0  0  0  0  0
   -5.3926  -35.6938  -17.3836 C   0  0  1  0  0  0  0  0  0  0  0  0
   -5.1494  -34.6218  -16.3418 C   0  0  2  0  0  0  0  0  0  0  0  0
   -6.5092  -34.1955  -15.7722 C   0  0  1  0  0  0  0  0  0  0  0  0
   -7.3412  -35.4615  -15.7027 C   0  0  1  0  0  0  0  0  0  0  0  0
   -8.5089  -35.3151  -14.7622 C   0  0  0  0  0  0  0  0  0  0  0  0
   -6.9640  -36.4936  -18.9603 O   0  0  0  0  0  0  0  0  0  0  0  0
   -5.1389  -36.9726  -16.8913 O   0  0  0  0  0  0  0  0  0  0  0  0
   -4.5184  -33.5326  -16.8967 O   0  0  0  0  0  0  0  0  0  0  0  0
   -7.7540  -35.8099  -16.9649 O   0  0  0  0  0  0  0  0  0  0  0  0
   -9.6696  -34.9448  -15.4228 O   0  0  0  0  0  0  0  0  0  0  0  0
  1  2  1  0
  1  7  1  1
  1 11  1  0
  2  3  1  0
  2  8  1  1
  3  4  1  0
  3  9  1  6
  5  4  1  0
  4 10  1  1
  5  6  1  0
  5 11  1  1
  6 12  1  6
 16  7  1  1
 13 14  1  0
 13 19  1  6
 22 13  1  0
 15 14  1  0
 14 20  1  1
 16 15  1  0
 15 21  1  6
 17 16  1  0
 18 17  1  0
 17 22  1  6
 18 23  1  6
M  END
$$$$
