
     RDKit          3D

 23 24  0  0  0  0  0  0  0  0999 V2000
   -7.7071  -33.8682  -15.7497 C   0  0  1  0  0  0  0  0  0  0  0  0
   -8.3824  -35.0947  -15.2119 C   0  0  1  0  0  0  0  0  0  0  0  0
   -7.4283  -36.2225  -14.9298 C   0  0  2  0  0  0  0  0  0  0  0  0
   -6.5557  -36.4676  -16.1398 C   0  0  1  0  0  0  0  0  0  0  0  0
   -5.9849  -35.1683  -16.5926 C   0  0  1  0  0  0  0  0  0  0  0  0
   -5.2340  -35.4200  -17.8912 C   0  0  0  0  0  0  0  0  0  0  0  0
   -7.0143  -33.1248  -14.7985 O   0  0  0  0  0  0  0  0  0  0  0  0
   -9.1669  -34.8809  -14.1174 O   0  0  0  0  0  0  0  0  0  0  0  0
   -8.2021  -37.3773  -14.7525 O   0  0  0  0  0  0  0  0  0  0  0  0
   -5.5014  -37.2820  -15.7281 O   0  0  0  0  0  0  0  0  0  0  0  0
   -6.9133  -34.1766  -16.8489 O   0  0  0  0  0  0  0  0  0  0  0  0
   -6.1089  -35.0715  -18.9312 O   0  0  0  0  0  0  0  0  0  0  0  0
   -7.0855  -29.4110  -15.7984 C   0  0  1  0  0  0  0  0  0  0  0  0
   -8.1053  -29.6574  -14.6924 C   0  0  1  0  0  0  0  0  0  0  0  0
   -7.6083  -30.9133  -13.9640 C   0  0  2  0  0  0  0  0  0  0  0  0
   -7.0365  -31.7850  -15.0417 C   0  0  1  0  0  0  0  0  0  0  0  0
   -5.6683  -31.1891  -15.3183 C   0  0  1  0  0  0  0  0  0  0  0  0
   -4.9364  -31.8717  -16.4253 C   0  0  0  0  0  0  0  0  0  0  0  0
   -7.0154  -28.0019  -15.9252 O   0  0  0  0  0  0  0  0  0  0  0  0
   -8.2391  -28.5871  -13.8422 O   0  0  0  0  0  0  0  0  0  0  0  0
   -8.5528  -31.4706  -13.1618 O   0  0  0  0  0  0  0  0  0  0  0  0
   -5.8297  -29.8415  -15.4908 O   0  0  0  0  0  0  0  0  0  0  0  0
   -4.2116  -30.8609  -17.1012 O   0  0  0  0  0  0  0  0  0  0  0  0
  1  2  1  0
  1  7  1  1
  1 11  1  0
  2  3  1  0
  2  8  1  1
  3  4  1  0
  3  9  1  6
  5  4  1  0
  4 10  1  1
  5  6  1  6
 11  5  1  0
  6 12  1  0
 16  7  1  1
 13 14  1  0
 13 19  1  1
 22 13  1  0
 15 14  1  0
 14 20  1  1
 16 15  1  0
 15 21  1  6
 17 16  1  0
 17 18  1  6
 17 22  1  0
 23 18  1  0
M  END
$$$$
