
     RDKit          3D

 23 24  0  0  0  0  0  0  0  0999 V2000
   -7.7910  -33.9805  -15.6919 C   0  0  1  0  0  0  0  0  0  0  0  0
   -8.4156  -35.3159  -15.4165 C   0  0  1  0  0  0  0  0  0  0  0  0
   -7.4163  -36.3696  -15.0252 C   0  0  2  0  0  0  0  0  0  0  0  0
   -6.2880  -36.4013  -16.0309 C   0  0  1  0  0  0  0  0  0  0  0  0
   -5.7911  -35.0128  -16.2406 C   0  0  1  0  0  0  0  0  0  0  0  0
   -4.7616  -35.0536  -17.3596 C   0  0  0  0  0  0  0  0  0  0  0  0
   -7.4035  -33.2771  -14.5549 O   0  0  0  0  0  0  0  0  0  0  0  0
   -9.4306  -35.2945  -14.5063 O   0  0  0  0  0  0  0  0  0  0  0  0
   -8.0697  -37.6059  -15.1160 O   0  0  0  0  0  0  0  0  0  0  0  0
   -5.2550  -37.1487  -15.4663 O   0  0  0  0  0  0  0  0  0  0  0  0
   -6.7548  -34.0941  -16.6122 O   0  0  0  0  0  0  0  0  0  0  0  0
   -5.4635  -34.8363  -18.5548 O   0  0  0  0  0  0  0  0  0  0  0  0
   -7.6515  -29.5125  -15.3047 C   0  0  1  0  0  0  0  0  0  0  0  0
   -8.2803  -29.8008  -13.9463 C   0  0  1  0  0  0  0  0  0  0  0  0
   -7.6251  -31.1049  -13.4722 C   0  0  2  0  0  0  0  0  0  0  0  0
   -7.4528  -31.9256  -14.7151 C   0  0  1  0  0  0  0  0  0  0  0  0
   -6.2202  -31.3417  -15.3811 C   0  0  1  0  0  0  0  0  0  0  0  0
   -5.8983  -31.9751  -16.6934 C   0  0  0  0  0  0  0  0  0  0  0  0
   -7.5741  -28.1000  -15.3806 O   0  0  0  0  0  0  0  0  0  0  0  0
   -8.1015  -28.7775  -13.0479 O   0  0  0  0  0  0  0  0  0  0  0  0
   -8.2891  -31.6880  -12.4401 O   0  0  0  0  0  0  0  0  0  0  0  0
   -6.3790  -29.9837  -15.4300 O   0  0  0  0  0  0  0  0  0  0  0  0
   -4.9639  -31.1200  -17.3256 O   0  0  0  0  0  0  0  0  0  0  0  0
  1  2  1  0
  1  7  1  1
  1 11  1  0
  2  3  1  0
  2  8  1  1
  3  4  1  0
  3  9  1  6
  5  4  1  0
  4 10  1  1
  5  6  1  6
 11  5  1  0
  6 12  1  0
 16  7  1  1
 13 14  1  0
 13 19  1  1
 22 13  1  0
 15 14  1  0
 14 20  1  1
 16 15  1  0
 15 21  1  1
 17 16  1  0
 17 18  1  6
 17 22  1  0
 23 18  1  0
M  END
$$$$
