
     RDKit          3D

 23 24  0  0  0  0  0  0  0  0999 V2000
   -7.7595  -33.4271  -14.8942 C   0  0  1  0  0  0  0  0  0  0  0  0
   -8.0949  -34.7352  -14.2256 C   0  0  1  0  0  0  0  0  0  0  0  0
   -7.7799  -35.8587  -15.2106 C   0  0  2  0  0  0  0  0  0  0  0  0
   -6.3290  -35.7174  -15.5691 C   0  0  1  0  0  0  0  0  0  0  0  0
   -5.9618  -34.3477  -16.0360 C   0  0  1  0  0  0  0  0  0  0  0  0
   -6.2779  -34.2755  -17.5282 C   0  0  0  0  0  0  0  0  0  0  0  0
   -7.9634  -32.4290  -13.9115 O   0  0  0  0  0  0  0  0  0  0  0  0
   -7.2975  -34.9611  -13.1076 O   0  0  0  0  0  0  0  0  0  0  0  0
   -8.6175  -35.8296  -16.3075 O   0  0  0  0  0  0  0  0  0  0  0  0
   -5.5553  -36.0867  -14.4575 O   0  0  0  0  0  0  0  0  0  0  0  0
   -6.4714  -33.3190  -15.3183 O   0  0  0  0  0  0  0  0  0  0  0  0
   -5.2969  -33.4125  -18.0704 O   0  0  0  0  0  0  0  0  0  0  0  0
   -7.4016  -28.7281  -15.1618 C   0  0  1  0  0  0  0  0  0  0  0  0
   -8.4112  -28.7935  -14.0340 C   0  0  1  0  0  0  0  0  0  0  0  0
   -8.9003  -30.2162  -13.8593 C   0  0  2  0  0  0  0  0  0  0  0  0
   -7.8296  -31.1595  -14.4240 C   0  0  1  0  0  0  0  0  0  0  0  0
   -6.4971  -30.5289  -14.0689 C   0  0  1  0  0  0  0  0  0  0  0  0
   -5.3686  -31.5246  -14.1368 C   0  0  0  0  0  0  0  0  0  0  0  0
   -7.0539  -27.3995  -15.3791 O   0  0  0  0  0  0  0  0  0  0  0  0
   -7.8933  -28.2668  -12.8524 O   0  0  0  0  0  0  0  0  0  0  0  0
  -10.0876  -30.4122  -14.5260 O   0  0  0  0  0  0  0  0  0  0  0  0
   -6.2657  -29.4515  -14.8880 O   0  0  0  0  0  0  0  0  0  0  0  0
   -4.1562  -30.9220  -14.4332 O   0  0  0  0  0  0  0  0  0  0  0  0
  1  2  1  0
  1  7  1  1
  1 11  1  0
  2  3  1  0
  2  8  1  1
  3  4  1  0
  3  9  1  6
  5  4  1  0
  4 10  1  1
  5  6  1  0
  5 11  1  1
  6 12  1  6
 16  7  1  1
 13 14  1  0
 13 19  1  1
 22 13  1  0
 15 14  1  0
 14 20  1  1
 16 15  1  0
 15 21  1  6
 17 16  1  0
 18 17  1  0
 17 22  1  6
 18 23  1  6
M  END
$$$$
