
     RDKit          3D

 23 24  0  0  0  0  0  0  0  0999 V2000
   -7.1279  -33.2001  -14.6433 C   0  0  1  0  0  0  0  0  0  0  0  0
   -7.8930  -32.1146  -13.9462 C   0  0  1  0  0  0  0  0  0  0  0  0
   -7.0954  -30.8536  -13.7568 C   0  0  2  0  0  0  0  0  0  0  0  0
   -5.7613  -31.1835  -13.1267 C   0  0  1  0  0  0  0  0  0  0  0  0
   -5.1321  -32.2986  -13.8880 C   0  0  1  0  0  0  0  0  0  0  0  0
   -3.8667  -32.7072  -13.1495 C   0  0  0  0  0  0  0  0  0  0  0  0
   -6.9805  -33.0152  -16.0150 O   0  0  0  0  0  0  0  0  0  0  0  0
   -9.0949  -31.8091  -14.5128 O   0  0  0  0  0  0  0  0  0  0  0  0
   -7.7922  -30.0650  -12.8315 O   0  0  0  0  0  0  0  0  0  0  0  0
   -4.9519  -30.0564  -13.2644 O   0  0  0  0  0  0  0  0  0  0  0  0
   -5.9095  -33.4345  -14.0155 O   0  0  0  0  0  0  0  0  0  0  0  0
   -3.6172  -34.0437  -13.4960 O   0  0  0  0  0  0  0  0  0  0  0  0
   -6.9768  -36.4242  -17.7967 C   0  0  1  0  0  0  0  0  0  0  0  0
   -8.4055  -35.8999  -17.7095 C   0  0  1  0  0  0  0  0  0  0  0  0
   -8.2644  -34.3778  -17.5754 C   0  0  2  0  0  0  0  0  0  0  0  0
   -7.0463  -34.1756  -16.7248 C   0  0  1  0  0  0  0  0  0  0  0  0
   -5.8848  -34.3762  -17.6810 C   0  0  1  0  0  0  0  0  0  0  0  0
   -4.5497  -34.2858  -17.0203 C   0  0  0  0  0  0  0  0  0  0  0  0
   -7.0485  -37.5415  -18.6646 O   0  0  0  0  0  0  0  0  0  0  0  0
   -9.1704  -36.2533  -18.7941 O   0  0  0  0  0  0  0  0  0  0  0  0
   -9.4084  -33.7730  -17.1610 O   0  0  0  0  0  0  0  0  0  0  0  0
   -6.1038  -35.5430  -18.3609 O   0  0  0  0  0  0  0  0  0  0  0  0
   -3.5995  -34.6700  -17.9968 O   0  0  0  0  0  0  0  0  0  0  0  0
  1  2  1  0
  1  7  1  6
  1 11  1  0
  2  3  1  0
  2  8  1  6
  3  4  1  0
  3  9  1  1
  5  4  1  0
  4 10  1  6
  5  6  1  1
 11  5  1  0
  6 12  1  0
 16  7  1  6
 13 14  1  0
 13 19  1  6
 22 13  1  0
 15 14  1  0
 14 20  1  6
 16 15  1  0
 15 21  1  1
 17 16  1  0
 17 18  1  1
 17 22  1  0
 23 18  1  0
M  END
$$$$
