
     RDKit          3D

 23 24  0  0  0  0  0  0  0  0999 V2000
   -7.6920  -32.3821  -14.5020 C   0  0  1  0  0  0  0  0  0  0  0  0
   -8.3740  -31.0564  -14.2828 C   0  0  1  0  0  0  0  0  0  0  0  0
   -7.9469  -30.5308  -12.9143 C   0  0  2  0  0  0  0  0  0  0  0  0
   -6.4484  -30.4429  -12.9398 C   0  0  1  0  0  0  0  0  0  0  0  0
   -5.7848  -31.7113  -13.3637 C   0  0  1  0  0  0  0  0  0  0  0  0
   -5.6543  -32.5930  -12.1238 C   0  0  0  0  0  0  0  0  0  0  0  0
   -8.0298  -32.7758  -15.8190 O   0  0  0  0  0  0  0  0  0  0  0  0
   -7.9624  -30.1058  -15.2122 O   0  0  0  0  0  0  0  0  0  0  0  0
   -8.4290  -31.3185  -11.8884 O   0  0  0  0  0  0  0  0  0  0  0  0
   -6.0765  -29.3830  -13.7819 O   0  0  0  0  0  0  0  0  0  0  0  0
   -6.3342  -32.3421  -14.4283 O   0  0  0  0  0  0  0  0  0  0  0  0
   -4.6711  -33.5537  -12.4578 O   0  0  0  0  0  0  0  0  0  0  0  0
   -6.2286  -36.0460  -17.0985 C   0  0  1  0  0  0  0  0  0  0  0  0
   -7.6098  -35.8918  -17.7020 C   0  0  1  0  0  0  0  0  0  0  0  0
   -8.4133  -34.8853  -16.9051 C   0  0  2  0  0  0  0  0  0  0  0  0
   -7.4284  -33.9596  -16.1782 C   0  0  1  0  0  0  0  0  0  0  0  0
   -6.2723  -33.7543  -17.1377 C   0  0  1  0  0  0  0  0  0  0  0  0
   -5.4580  -32.5373  -16.7836 C   0  0  0  0  0  0  0  0  0  0  0  0
   -5.5514  -37.0551  -17.7741 O   0  0  0  0  0  0  0  0  0  0  0  0
   -7.5434  -35.5597  -19.0538 O   0  0  0  0  0  0  0  0  0  0  0  0
   -9.2182  -35.5175  -15.9860 O   0  0  0  0  0  0  0  0  0  0  0  0
   -5.4954  -34.8860  -17.1701 O   0  0  0  0  0  0  0  0  0  0  0  0
   -4.0986  -32.8064  -16.7586 O   0  0  0  0  0  0  0  0  0  0  0  0
  1  2  1  0
  1  7  1  6
  1 11  1  0
  2  3  1  0
  2  8  1  6
  3  4  1  0
  3  9  1  1
  5  4  1  0
  4 10  1  6
  5  6  1  0
  5 11  1  6
  6 12  1  6
 16  7  1  6
 13 14  1  0
 13 19  1  6
 22 13  1  0
 15 14  1  0
 14 20  1  6
 16 15  1  0
 15 21  1  1
 17 16  1  0
 18 17  1  0
 17 22  1  1
 18 23  1  6
M  END
$$$$
