
     RDKit          3D

 23 24  0  0  0  0  0  0  0  0999 V2000
   -7.7138  -32.3314  -14.5822 C   0  0  1  0  0  0  0  0  0  0  0  0
   -8.3426  -31.0032  -14.2491 C   0  0  1  0  0  0  0  0  0  0  0  0
   -7.9679  -30.6555  -12.8102 C   0  0  2  0  0  0  0  0  0  0  0  0
   -6.4679  -30.6463  -12.7503 C   0  0  1  0  0  0  0  0  0  0  0  0
   -5.8433  -31.8942  -13.2811 C   0  0  1  0  0  0  0  0  0  0  0  0
   -5.8247  -32.9130  -12.1438 C   0  0  0  0  0  0  0  0  0  0  0  0
   -7.9959  -32.5585  -15.9506 O   0  0  0  0  0  0  0  0  0  0  0  0
   -7.8345  -29.9794  -15.0431 O   0  0  0  0  0  0  0  0  0  0  0  0
   -8.5439  -31.5245  -11.9054 O   0  0  0  0  0  0  0  0  0  0  0  0
   -5.9991  -29.5216  -13.4475 O   0  0  0  0  0  0  0  0  0  0  0  0
   -6.3618  -32.3731  -14.4364 O   0  0  0  0  0  0  0  0  0  0  0  0
   -4.8015  -33.8278  -12.4866 O   0  0  0  0  0  0  0  0  0  0  0  0
   -5.9810  -35.5020  -17.6395 C   0  0  1  0  0  0  0  0  0  0  0  0
   -7.4381  -35.5072  -18.0546 C   0  0  1  0  0  0  0  0  0  0  0  0
   -8.2499  -34.6517  -17.1043 C   0  0  2  0  0  0  0  0  0  0  0  0
   -7.3025  -33.6353  -16.4527 C   0  0  1  0  0  0  0  0  0  0  0  0
   -6.3187  -33.2369  -17.5356 C   0  0  1  0  0  0  0  0  0  0  0  0
   -5.6252  -31.9387  -17.2143 C   0  0  0  0  0  0  0  0  0  0  0  0
   -5.2770  -36.3819  -18.4540 O   0  0  0  0  0  0  0  0  0  0  0  0
   -7.5935  -35.1113  -19.3816 O   0  0  0  0  0  0  0  0  0  0  0  0
   -8.8398  -35.4243  -16.1309 O   0  0  0  0  0  0  0  0  0  0  0  0
   -5.4162  -34.2526  -17.7329 O   0  0  0  0  0  0  0  0  0  0  0  0
   -4.3233  -32.1343  -16.7810 O   0  0  0  0  0  0  0  0  0  0  0  0
  1  2  1  0
  1  7  1  6
  1 11  1  0
  2  3  1  0
  2  8  1  6
  3  4  1  0
  3  9  1  1
  5  4  1  0
  4 10  1  6
  5  6  1  0
  5 11  1  6
  6 12  1  6
 16  7  1  6
 13 14  1  0
 13 19  1  6
 22 13  1  0
 15 14  1  0
 14 20  1  6
 16 15  1  0
 15 21  1  1
 17 16  1  0
 18 17  1  0
 17 22  1  1
 18 23  1  6
M  END
$$$$
