
     RDKit          3D

 23 24  0  0  0  0  0  0  0  0999 V2000
   -7.7102  -33.8985  -15.5168 C   0  0  1  0  0  0  0  0  0  0  0  0
   -8.0691  -35.1744  -14.8150 C   0  0  1  0  0  0  0  0  0  0  0  0
   -6.9259  -36.1482  -14.7318 C   0  0  2  0  0  0  0  0  0  0  0  0
   -6.3158  -36.3372  -16.1021 C   0  0  1  0  0  0  0  0  0  0  0  0
   -6.0495  -34.9987  -16.6991 C   0  0  1  0  0  0  0  0  0  0  0  0
   -5.5753  -35.2153  -18.1281 C   0  0  0  0  0  0  0  0  0  0  0  0
   -6.9375  -33.0203  -14.7623 O   0  0  0  0  0  0  0  0  0  0  0  0
   -8.6151  -35.0106  -13.5764 O   0  0  0  0  0  0  0  0  0  0  0  0
   -7.4695  -37.3852  -14.3604 O   0  0  0  0  0  0  0  0  0  0  0  0
   -5.0919  -36.9807  -15.9219 O   0  0  0  0  0  0  0  0  0  0  0  0
   -7.1427  -34.1549  -16.7601 O   0  0  0  0  0  0  0  0  0  0  0  0
   -6.7295  -35.3306  -18.9175 O   0  0  0  0  0  0  0  0  0  0  0  0
   -7.5976  -29.4086  -15.9096 C   0  0  1  0  0  0  0  0  0  0  0  0
   -8.5090  -29.7411  -14.7338 C   0  0  1  0  0  0  0  0  0  0  0  0
   -7.7972  -30.8761  -13.9856 C   0  0  2  0  0  0  0  0  0  0  0  0
   -7.1658  -31.7110  -15.0592 C   0  0  1  0  0  0  0  0  0  0  0  0
   -5.9149  -30.9423  -15.4438 C   0  0  1  0  0  0  0  0  0  0  0  0
   -5.1541  -31.5691  -16.5643 C   0  0  0  0  0  0  0  0  0  0  0  0
   -7.7381  -28.0118  -16.0991 O   0  0  0  0  0  0  0  0  0  0  0  0
   -8.7488  -28.6593  -13.9223 O   0  0  0  0  0  0  0  0  0  0  0  0
   -8.6062  -31.5205  -13.1045 O   0  0  0  0  0  0  0  0  0  0  0  0
   -6.2778  -29.6414  -15.6620 O   0  0  0  0  0  0  0  0  0  0  0  0
   -5.7470  -31.0933  -17.7584 O   0  0  0  0  0  0  0  0  0  0  0  0
  1  2  1  0
  1  7  1  1
  1 11  1  0
  2  3  1  0
  2  8  1  1
  3  4  1  0
  3  9  1  6
  5  4  1  0
  4 10  1  1
  5  6  1  6
 11  5  1  0
  6 12  1  0
 16  7  1  1
 13 14  1  0
 13 19  1  1
 22 13  1  0
 15 14  1  0
 14 20  1  1
 16 15  1  0
 15 21  1  6
 17 16  1  0
 17 18  1  6
 17 22  1  0
 23 18  1  0
M  END
$$$$
