
     RDKit          3D

 23 24  0  0  0  0  0  0  0  0999 V2000
   -7.4937  -32.2355  -15.8683 C   0  0  1  0  0  0  0  0  0  0  0  0
   -7.4868  -31.1106  -14.8657 C   0  0  1  0  0  0  0  0  0  0  0  0
   -8.1140  -31.6307  -13.5743 C   0  0  2  0  0  0  0  0  0  0  0  0
   -7.3005  -32.8203  -13.1539 C   0  0  1  0  0  0  0  0  0  0  0  0
   -7.1372  -33.8407  -14.2314 C   0  0  1  0  0  0  0  0  0  0  0  0
   -8.3689  -34.7426  -14.1946 C   0  0  0  0  0  0  0  0  0  0  0  0
   -6.8089  -31.7426  -17.0047 O   0  0  0  0  0  0  0  0  0  0  0  0
   -6.1916  -30.7188  -14.5406 O   0  0  0  0  0  0  0  0  0  0  0  0
   -9.4551  -31.9165  -13.7336 O   0  0  0  0  0  0  0  0  0  0  0  0
   -6.0495  -32.3704  -12.7030 O   0  0  0  0  0  0  0  0  0  0  0  0
   -6.8464  -33.3617  -15.4639 O   0  0  0  0  0  0  0  0  0  0  0  0
   -7.9925  -35.9078  -14.9030 O   0  0  0  0  0  0  0  0  0  0  0  0
   -5.5297  -34.6188  -19.3852 C   0  0  1  0  0  0  0  0  0  0  0  0
   -5.1012  -33.2508  -19.8755 C   0  0  1  0  0  0  0  0  0  0  0  0
   -5.9259  -32.1765  -19.1977 C   0  0  2  0  0  0  0  0  0  0  0  0
   -6.4552  -32.7473  -17.8751 C   0  0  1  0  0  0  0  0  0  0  0  0
   -5.3424  -33.6212  -17.3297 C   0  0  1  0  0  0  0  0  0  0  0  0
   -5.5054  -33.8828  -15.8551 C   0  0  0  0  0  0  0  0  0  0  0  0
   -4.8414  -35.5909  -20.1026 O   0  0  0  0  0  0  0  0  0  0  0  0
   -3.7329  -33.0507  -19.7026 O   0  0  0  0  0  0  0  0  0  0  0  0
   -6.9820  -31.7945  -19.9922 O   0  0  0  0  0  0  0  0  0  0  0  0
   -5.2859  -34.7924  -18.0440 O   0  0  0  0  0  0  0  0  0  0  0  0
   -5.1766  -35.1856  -15.5153 O   0  0  0  0  0  0  0  0  0  0  0  0
  1  2  1  0
  1  7  1  6
  1 11  1  0
  2  3  1  0
  2  8  1  1
  3  4  1  0
  3  9  1  6
  5  4  1  0
  4 10  1  6
  5  6  1  0
  5 11  1  6
  6 12  1  6
 16  7  1  1
 13 14  1  0
 13 19  1  6
 22 13  1  0
 15 14  1  0
 14 20  1  1
 16 15  1  0
 15 21  1  6
 17 16  1  0
 18 17  1  0
 17 22  1  6
 18 23  1  6
M  END
$$$$
