
     RDKit          3D

 23 24  0  0  0  0  0  0  0  0999 V2000
   -7.8242  -32.4197  -14.4042 C   0  0  1  0  0  0  0  0  0  0  0  0
   -8.7454  -31.2664  -14.1009 C   0  0  1  0  0  0  0  0  0  0  0  0
   -7.9508  -30.2269  -13.3139 C   0  0  2  0  0  0  0  0  0  0  0  0
   -6.7745  -29.8526  -14.1684 C   0  0  1  0  0  0  0  0  0  0  0  0
   -5.9831  -31.0276  -14.6395 C   0  0  1  0  0  0  0  0  0  0  0  0
   -4.9927  -31.3826  -13.5328 C   0  0  0  0  0  0  0  0  0  0  0  0
   -8.5690  -33.3024  -15.2225 O   0  0  0  0  0  0  0  0  0  0  0  0
   -9.1755  -30.6318  -15.2625 O   0  0  0  0  0  0  0  0  0  0  0  0
   -7.5909  -30.6930  -12.0654 O   0  0  0  0  0  0  0  0  0  0  0  0
   -7.2351  -29.0958  -15.2573 O   0  0  0  0  0  0  0  0  0  0  0  0
   -6.6996  -32.0835  -15.0919 O   0  0  0  0  0  0  0  0  0  0  0  0
   -4.0391  -32.2260  -14.1496 O   0  0  0  0  0  0  0  0  0  0  0  0
   -6.3915  -35.7445  -17.4296 C   0  0  1  0  0  0  0  0  0  0  0  0
   -7.7563  -36.3278  -17.1248 C   0  0  1  0  0  0  0  0  0  0  0  0
   -8.3935  -35.5791  -15.9729 C   0  0  2  0  0  0  0  0  0  0  0  0
   -7.7626  -34.1816  -15.9074 C   0  0  1  0  0  0  0  0  0  0  0  0
   -7.5409  -33.7626  -17.3478 C   0  0  1  0  0  0  0  0  0  0  0  0
   -7.3638  -32.2722  -17.4782 C   0  0  0  0  0  0  0  0  0  0  0  0
   -5.7796  -36.5174  -18.4100 O   0  0  0  0  0  0  0  0  0  0  0  0
   -8.5701  -36.3437  -18.2559 O   0  0  0  0  0  0  0  0  0  0  0  0
   -8.1831  -36.2377  -14.7835 O   0  0  0  0  0  0  0  0  0  0  0  0
   -6.4656  -34.4428  -17.8639 O   0  0  0  0  0  0  0  0  0  0  0  0
   -6.1311  -31.9368  -18.0156 O   0  0  0  0  0  0  0  0  0  0  0  0
  1  2  1  0
  1  7  1  6
  1 11  1  0
  2  3  1  0
  2  8  1  6
  3  4  1  0
  3  9  1  1
  5  4  1  0
  4 10  1  6
  5  6  1  0
  5 11  1  1
  6 12  1  6
 16  7  1  6
 13 14  1  0
 13 19  1  6
 22 13  1  0
 15 14  1  0
 14 20  1  6
 16 15  1  0
 15 21  1  1
 17 16  1  0
 18 17  1  0
 17 22  1  1
 18 23  1  6
M  END
$$$$
