
     RDKit          3D

 23 24  0  0  0  0  0  0  0  0999 V2000
   -7.0348  -33.0976  -14.5088 C   0  0  1  0  0  0  0  0  0  0  0  0
   -7.8637  -32.3922  -13.4667 C   0  0  1  0  0  0  0  0  0  0  0  0
   -7.2219  -31.0327  -13.1994 C   0  0  2  0  0  0  0  0  0  0  0  0
   -7.1725  -30.3175  -14.5184 C   0  0  1  0  0  0  0  0  0  0  0  0
   -6.5306  -31.1156  -15.6046 C   0  0  1  0  0  0  0  0  0  0  0  0
   -5.0227  -30.9004  -15.4971 C   0  0  0  0  0  0  0  0  0  0  0  0
   -7.7245  -34.2985  -14.8013 O   0  0  0  0  0  0  0  0  0  0  0  0
   -9.1525  -32.1326  -13.9231 O   0  0  0  0  0  0  0  0  0  0  0  0
   -5.9843  -31.1580  -12.6009 O   0  0  0  0  0  0  0  0  0  0  0  0
   -8.4791  -29.9511  -14.8780 O   0  0  0  0  0  0  0  0  0  0  0  0
   -6.8936  -32.4178  -15.6788 O   0  0  0  0  0  0  0  0  0  0  0  0
   -4.5678  -31.9161  -14.6238 O   0  0  0  0  0  0  0  0  0  0  0  0
   -6.4853  -35.5977  -18.3159 C   0  0  1  0  0  0  0  0  0  0  0  0
   -7.3215  -34.3408  -18.4438 C   0  0  1  0  0  0  0  0  0  0  0  0
   -8.1019  -34.1063  -17.1673 C   0  0  2  0  0  0  0  0  0  0  0  0
   -7.3673  -34.8188  -16.0236 C   0  0  1  0  0  0  0  0  0  0  0  0
   -5.8890  -34.6495  -16.3157 C   0  0  1  0  0  0  0  0  0  0  0  0
   -5.0445  -34.8782  -15.0894 C   0  0  0  0  0  0  0  0  0  0  0  0
   -5.8687  -35.8551  -19.5353 O   0  0  0  0  0  0  0  0  0  0  0  0
   -6.5411  -33.2402  -18.7926 O   0  0  0  0  0  0  0  0  0  0  0  0
   -9.3805  -34.6024  -17.2757 O   0  0  0  0  0  0  0  0  0  0  0  0
   -5.5240  -35.4878  -17.3400 O   0  0  0  0  0  0  0  0  0  0  0  0
   -4.9792  -36.2182  -14.7414 O   0  0  0  0  0  0  0  0  0  0  0  0
  1  2  1  0
  1  7  1  6
  1 11  1  0
  2  3  1  0
  2  8  1  6
  3  4  1  0
  3  9  1  6
  5  4  1  0
  4 10  1  6
  5  6  1  0
  5 11  1  1
  6 12  1  6
 16  7  1  1
 13 14  1  0
 13 19  1  6
 22 13  1  0
 15 14  1  0
 14 20  1  1
 16 15  1  0
 15 21  1  6
 17 16  1  0
 18 17  1  0
 17 22  1  6
 18 23  1  6
M  END
$$$$
