
     RDKit          3D

 23 24  0  0  0  0  0  0  0  0999 V2000
   -6.5886  -33.2046  -14.6999 C   0  0  1  0  0  0  0  0  0  0  0  0
   -6.6439  -32.6550  -13.2979 C   0  0  1  0  0  0  0  0  0  0  0  0
   -7.0438  -33.7946  -12.3637 C   0  0  2  0  0  0  0  0  0  0  0  0
   -6.0203  -34.8772  -12.5488 C   0  0  1  0  0  0  0  0  0  0  0  0
   -5.8215  -35.2708  -13.9752 C   0  0  1  0  0  0  0  0  0  0  0  0
   -6.8922  -36.3050  -14.3153 C   0  0  0  0  0  0  0  0  0  0  0  0
   -6.1114  -32.1464  -15.5098 O   0  0  0  0  0  0  0  0  0  0  0  0
   -5.3952  -32.2169  -12.8672 O   0  0  0  0  0  0  0  0  0  0  0  0
   -8.3359  -34.2208  -12.5975 O   0  0  0  0  0  0  0  0  0  0  0  0
   -4.8103  -34.4513  -11.9785 O   0  0  0  0  0  0  0  0  0  0  0  0
   -5.7397  -34.2546  -14.8660 O   0  0  0  0  0  0  0  0  0  0  0  0
   -6.3797  -37.0124  -15.4280 O   0  0  0  0  0  0  0  0  0  0  0  0
   -7.6863  -31.8637  -19.1175 C   0  0  1  0  0  0  0  0  0  0  0  0
   -7.9947  -30.6448  -18.2721 C   0  0  1  0  0  0  0  0  0  0  0  0
   -7.7409  -30.9509  -16.8108 C   0  0  2  0  0  0  0  0  0  0  0  0
   -6.7350  -32.1075  -16.7353 C   0  0  1  0  0  0  0  0  0  0  0  0
   -5.7602  -31.8798  -17.8743 C   0  0  1  0  0  0  0  0  0  0  0  0
   -4.4742  -32.6380  -17.6730 C   0  0  0  0  0  0  0  0  0  0  0  0
   -8.0345  -31.5971  -20.4370 O   0  0  0  0  0  0  0  0  0  0  0  0
   -7.2839  -29.5276  -18.7064 O   0  0  0  0  0  0  0  0  0  0  0  0
   -8.9069  -31.3099  -16.1751 O   0  0  0  0  0  0  0  0  0  0  0  0
   -6.3582  -32.2130  -19.0645 O   0  0  0  0  0  0  0  0  0  0  0  0
   -4.4908  -33.8729  -18.3021 O   0  0  0  0  0  0  0  0  0  0  0  0
  1  2  1  0
  1  7  1  6
  1 11  1  0
  2  3  1  0
  2  8  1  1
  3  4  1  0
  3  9  1  6
  5  4  1  0
  4 10  1  6
  5  6  1  0
  5 11  1  6
  6 12  1  6
 16  7  1  1
 13 14  1  0
 13 19  1  6
 22 13  1  0
 15 14  1  0
 14 20  1  6
 16 15  1  0
 15 21  1  6
 17 16  1  0
 18 17  1  0
 17 22  1  6
 18 23  1  6
M  END
$$$$
