
     RDKit          3D

 23 24  0  0  0  0  0  0  0  0999 V2000
   -7.2712  -33.9597  -14.9261 C   0  0  1  0  0  0  0  0  0  0  0  0
   -6.6063  -35.1003  -14.1997 C   0  0  1  0  0  0  0  0  0  0  0  0
   -6.6050  -36.3108  -15.1304 C   0  0  2  0  0  0  0  0  0  0  0  0
   -5.8863  -35.8882  -16.3789 C   0  0  1  0  0  0  0  0  0  0  0  0
   -6.4244  -34.6315  -16.9791 C   0  0  1  0  0  0  0  0  0  0  0  0
   -7.6087  -35.0193  -17.8614 C   0  0  0  0  0  0  0  0  0  0  0  0
   -7.1524  -32.8375  -14.0717 O   0  0  0  0  0  0  0  0  0  0  0  0
   -5.2720  -34.8230  -13.9177 O   0  0  0  0  0  0  0  0  0  0  0  0
   -7.8824  -36.7769  -15.3684 O   0  0  0  0  0  0  0  0  0  0  0  0
   -4.5204  -35.7523  -16.0848 O   0  0  0  0  0  0  0  0  0  0  0  0
   -6.6936  -33.6271  -16.1121 O   0  0  0  0  0  0  0  0  0  0  0  0
   -7.3092  -36.3210  -18.3274 O   0  0  0  0  0  0  0  0  0  0  0  0
   -8.6717  -29.5329  -15.6036 C   0  0  1  0  0  0  0  0  0  0  0  0
   -8.2148  -29.3314  -14.1732 C   0  0  1  0  0  0  0  0  0  0  0  0
   -8.0250  -30.6730  -13.4967 C   0  0  2  0  0  0  0  0  0  0  0  0
   -7.7735  -31.7235  -14.5869 C   0  0  1  0  0  0  0  0  0  0  0  0
   -6.9348  -31.0287  -15.6420 C   0  0  1  0  0  0  0  0  0  0  0  0
   -6.2256  -32.0138  -16.5342 C   0  0  0  0  0  0  0  0  0  0  0  0
   -8.9491  -28.2925  -16.1674 O   0  0  0  0  0  0  0  0  0  0  0  0
   -7.0675  -28.5431  -14.1088 O   0  0  0  0  0  0  0  0  0  0  0  0
   -9.1410  -31.0184  -12.7703 O   0  0  0  0  0  0  0  0  0  0  0  0
   -7.7262  -30.1733  -16.3681 O   0  0  0  0  0  0  0  0  0  0  0  0
   -6.0584  -31.5279  -17.8214 O   0  0  0  0  0  0  0  0  0  0  0  0
  1  2  1  0
  1  7  1  1
  1 11  1  0
  2  3  1  0
  2  8  1  6
  3  4  1  0
  3  9  1  6
  5  4  1  0
  4 10  1  1
  5  6  1  0
  5 11  1  1
  6 12  1  6
 16  7  1  1
 13 14  1  0
 13 19  1  6
 22 13  1  0
 15 14  1  0
 14 20  1  6
 16 15  1  0
 15 21  1  6
 17 16  1  0
 18 17  1  0
 17 22  1  6
 18 23  1  6
M  END
$$$$
