
     RDKit          3D

 23 24  0  0  0  0  0  0  0  0999 V2000
   -7.8297  -33.5505  -15.3714 C   0  0  1  0  0  0  0  0  0  0  0  0
   -8.5304  -34.8744  -15.2063 C   0  0  1  0  0  0  0  0  0  0  0  0
   -7.6855  -35.9409  -15.8992 C   0  0  2  0  0  0  0  0  0  0  0  0
   -6.3280  -35.8915  -15.2600 C   0  0  1  0  0  0  0  0  0  0  0  0
   -5.7279  -34.5246  -15.2419 C   0  0  1  0  0  0  0  0  0  0  0  0
   -5.0382  -34.3126  -16.5877 C   0  0  0  0  0  0  0  0  0  0  0  0
   -8.5886  -32.6175  -14.6251 O   0  0  0  0  0  0  0  0  0  0  0  0
   -8.6132  -35.2497  -13.8688 O   0  0  0  0  0  0  0  0  0  0  0  0
   -7.6505  -35.7595  -17.2672 O   0  0  0  0  0  0  0  0  0  0  0  0
   -6.4274  -36.4069  -13.9580 O   0  0  0  0  0  0  0  0  0  0  0  0
   -6.5585  -33.5158  -14.8879 O   0  0  0  0  0  0  0  0  0  0  0  0
   -3.9659  -35.2353  -16.6005 O   0  0  0  0  0  0  0  0  0  0  0  0
   -6.6933  -29.2123  -14.0021 C   0  0  1  0  0  0  0  0  0  0  0  0
   -8.1025  -29.1814  -13.4466 C   0  0  1  0  0  0  0  0  0  0  0  0
   -8.9188  -30.3089  -14.0433 C   0  0  2  0  0  0  0  0  0  0  0  0
   -7.9490  -31.4058  -14.5034 C   0  0  1  0  0  0  0  0  0  0  0  0
   -6.8418  -31.4367  -13.4677 C   0  0  1  0  0  0  0  0  0  0  0  0
   -6.0699  -32.7298  -13.5092 C   0  0  0  0  0  0  0  0  0  0  0  0
   -5.9982  -28.1044  -13.5302 O   0  0  0  0  0  0  0  0  0  0  0  0
   -8.1041  -29.2113  -12.0534 O   0  0  0  0  0  0  0  0  0  0  0  0
   -9.6578  -29.8655  -15.1155 O   0  0  0  0  0  0  0  0  0  0  0  0
   -6.0165  -30.3537  -13.6449 O   0  0  0  0  0  0  0  0  0  0  0  0
   -4.8037  -32.5663  -14.0486 O   0  0  0  0  0  0  0  0  0  0  0  0
  1  2  1  0
  1  7  1  1
  1 11  1  0
  2  3  1  0
  2  8  1  1
  3  4  1  0
  3  9  1  6
  5  4  1  0
  4 10  1  1
  5  6  1  0
  5 11  1  6
  6 12  1  6
 16  7  1  1
 13 14  1  0
 13 19  1  1
 22 13  1  0
 15 14  1  0
 14 20  1  1
 16 15  1  0
 15 21  1  6
 17 16  1  0
 18 17  1  0
 17 22  1  6
 18 23  1  6
M  END
$$$$
