
     RDKit          3D

 23 24  0  0  0  0  0  0  0  0999 V2000
   -7.7677  -33.0903  -14.7336 C   0  0  1  0  0  0  0  0  0  0  0  0
   -8.0236  -31.6622  -14.3268 C   0  0  1  0  0  0  0  0  0  0  0  0
   -7.3157  -31.4205  -12.9957 C   0  0  2  0  0  0  0  0  0  0  0  0
   -5.8650  -31.7344  -13.2208 C   0  0  1  0  0  0  0  0  0  0  0  0
   -5.6337  -33.0808  -13.8231 C   0  0  1  0  0  0  0  0  0  0  0  0
   -5.6158  -34.0935  -12.6804 C   0  0  0  0  0  0  0  0  0  0  0  0
   -8.3477  -33.2351  -16.0166 O   0  0  0  0  0  0  0  0  0  0  0  0
   -7.4702  -30.7619  -15.2325 O   0  0  0  0  0  0  0  0  0  0  0  0
   -7.8800  -32.1563  -11.9731 O   0  0  0  0  0  0  0  0  0  0  0  0
   -5.3093  -30.7283  -14.0268 O   0  0  0  0  0  0  0  0  0  0  0  0
   -6.4533  -33.4231  -14.8449 O   0  0  0  0  0  0  0  0  0  0  0  0
   -4.7672  -35.1343  -13.1250 O   0  0  0  0  0  0  0  0  0  0  0  0
   -6.1187  -35.5500  -18.3076 C   0  0  1  0  0  0  0  0  0  0  0  0
   -6.8607  -34.5054  -19.1162 C   0  0  1  0  0  0  0  0  0  0  0  0
   -7.9881  -33.9183  -18.2928 C   0  0  2  0  0  0  0  0  0  0  0  0
   -7.6438  -34.1112  -16.8097 C   0  0  1  0  0  0  0  0  0  0  0  0
   -6.1444  -33.9099  -16.7060 C   0  0  1  0  0  0  0  0  0  0  0  0
   -5.7141  -33.6124  -15.2933 C   0  0  0  0  0  0  0  0  0  0  0  0
   -5.1651  -36.1546  -19.1189 O   0  0  0  0  0  0  0  0  0  0  0  0
   -5.9971  -33.5246  -19.6002 O   0  0  0  0  0  0  0  0  0  0  0  0
   -9.1799  -34.5442  -18.5761 O   0  0  0  0  0  0  0  0  0  0  0  0
   -5.4970  -35.0127  -17.2061 O   0  0  0  0  0  0  0  0  0  0  0  0
   -4.4460  -34.0997  -15.0189 O   0  0  0  0  0  0  0  0  0  0  0  0
  1  2  1  0
  1  7  1  6
  1 11  1  0
  2  3  1  0
  2  8  1  6
  3  4  1  0
  3  9  1  1
  5  4  1  0
  4 10  1  6
  5  6  1  0
  5 11  1  6
  6 12  1  6
 16  7  1  1
 13 14  1  0
 13 19  1  6
 22 13  1  0
 15 14  1  0
 14 20  1  1
 16 15  1  0
 15 21  1  6
 17 16  1  0
 18 17  1  0
 17 22  1  1
 18 23  1  6
M  END
$$$$
