
     RDKit          3D

 23 24  0  0  0  0  0  0  0  0999 V2000
   -6.1839  -33.3196  -16.3025 C   0  0  1  0  0  0  0  0  0  0  0  0
   -7.1524  -33.9444  -17.2733 C   0  0  1  0  0  0  0  0  0  0  0  0
   -7.0421  -35.4609  -17.1341 C   0  0  2  0  0  0  0  0  0  0  0  0
   -7.3362  -35.7800  -15.6969 C   0  0  1  0  0  0  0  0  0  0  0  0
   -6.5096  -34.9961  -14.7320 C   0  0  1  0  0  0  0  0  0  0  0  0
   -5.1834  -35.7342  -14.5642 C   0  0  0  0  0  0  0  0  0  0  0  0
   -6.3986  -31.9233  -16.3893 O   0  0  0  0  0  0  0  0  0  0  0  0
   -8.4704  -33.6190  -16.9669 O   0  0  0  0  0  0  0  0  0  0  0  0
   -5.8129  -35.9271  -17.5552 O   0  0  0  0  0  0  0  0  0  0  0  0
   -8.7044  -35.5703  -15.4628 O   0  0  0  0  0  0  0  0  0  0  0  0
   -6.3711  -33.6769  -15.0032 O   0  0  0  0  0  0  0  0  0  0  0  0
   -5.0501  -35.9384  -13.1708 O   0  0  0  0  0  0  0  0  0  0  0  0
   -7.0893  -30.5634  -12.7493 C   0  0  1  0  0  0  0  0  0  0  0  0
   -8.3618  -31.0314  -13.4258 C   0  0  1  0  0  0  0  0  0  0  0  0
   -8.1382  -31.1570  -14.9183 C   0  0  2  0  0  0  0  0  0  0  0  0
   -6.6356  -31.3561  -15.1587 C   0  0  1  0  0  0  0  0  0  0  0  0
   -6.1480  -32.2260  -14.0164 C   0  0  1  0  0  0  0  0  0  0  0  0
   -4.8316  -32.8855  -14.3350 C   0  0  0  0  0  0  0  0  0  0  0  0
   -7.3494  -30.3456  -11.4009 O   0  0  0  0  0  0  0  0  0  0  0  0
   -8.8345  -32.2156  -12.8634 O   0  0  0  0  0  0  0  0  0  0  0  0
   -8.5659  -30.0266  -15.5753 O   0  0  0  0  0  0  0  0  0  0  0  0
   -6.0688  -31.4759  -12.8690 O   0  0  0  0  0  0  0  0  0  0  0  0
   -3.7520  -32.0664  -14.0445 O   0  0  0  0  0  0  0  0  0  0  0  0
  1  2  1  0
  1  7  1  1
  1 11  1  0
  2  3  1  0
  2  8  1  1
  3  4  1  0
  3  9  1  1
  5  4  1  0
  4 10  1  1
  5  6  1  0
  5 11  1  6
  6 12  1  6
 16  7  1  6
 13 14  1  0
 13 19  1  1
 22 13  1  0
 15 14  1  0
 14 20  1  1
 16 15  1  0
 15 21  1  6
 17 16  1  0
 18 17  1  0
 17 22  1  1
 18 23  1  6
M  END
$$$$
