
     RDKit          3D

 23 24  0  0  0  0  0  0  0  0999 V2000
   -6.5420  -33.7728  -14.9328 C   0  0  1  0  0  0  0  0  0  0  0  0
   -6.5667  -33.6487  -13.4313 C   0  0  1  0  0  0  0  0  0  0  0  0
   -6.8751  -35.0276  -12.8525 C   0  0  2  0  0  0  0  0  0  0  0  0
   -5.8103  -35.9533  -13.3652 C   0  0  1  0  0  0  0  0  0  0  0  0
   -5.6506  -35.9132  -14.8491 C   0  0  1  0  0  0  0  0  0  0  0  0
   -6.6846  -36.8665  -15.4440 C   0  0  0  0  0  0  0  0  0  0  0  0
   -6.1476  -32.5028  -15.4177 O   0  0  0  0  0  0  0  0  0  0  0  0
   -5.3236  -33.2816  -12.9246 O   0  0  0  0  0  0  0  0  0  0  0  0
   -8.1541  -35.4416  -13.1660 O   0  0  0  0  0  0  0  0  0  0  0  0
   -4.5997  -35.6399  -12.7273 O   0  0  0  0  0  0  0  0  0  0  0  0
   -5.6522  -34.6827  -15.4136 O   0  0  0  0  0  0  0  0  0  0  0  0
   -5.9500  -38.0135  -15.8261 O   0  0  0  0  0  0  0  0  0  0  0  0
   -7.8152  -31.3540  -18.8052 C   0  0  1  0  0  0  0  0  0  0  0  0
   -7.9631  -30.3054  -17.7216 C   0  0  1  0  0  0  0  0  0  0  0  0
   -7.6895  -30.9210  -16.3652 C   0  0  2  0  0  0  0  0  0  0  0  0
   -6.8082  -32.1598  -16.5745 C   0  0  1  0  0  0  0  0  0  0  0  0
   -5.8573  -31.8026  -17.7004 C   0  0  1  0  0  0  0  0  0  0  0  0
   -4.6513  -32.7051  -17.7245 C   0  0  0  0  0  0  0  0  0  0  0  0
   -8.1817  -30.7965  -20.0251 O   0  0  0  0  0  0  0  0  0  0  0  0
   -7.1555  -29.1970  -17.9686 O   0  0  0  0  0  0  0  0  0  0  0  0
   -8.8626  -31.2871  -15.7469 O   0  0  0  0  0  0  0  0  0  0  0  0
   -6.5301  -31.8320  -18.8969 O   0  0  0  0  0  0  0  0  0  0  0  0
   -4.8382  -33.8064  -18.5449 O   0  0  0  0  0  0  0  0  0  0  0  0
  1  2  1  0
  1  7  1  6
  1 11  1  0
  2  3  1  0
  2  8  1  1
  3  4  1  0
  3  9  1  6
  5  4  1  0
  4 10  1  1
  5  6  1  0
  5 11  1  6
  6 12  1  6
 16  7  1  1
 13 14  1  0
 13 19  1  6
 22 13  1  0
 15 14  1  0
 14 20  1  6
 16 15  1  0
 15 21  1  6
 17 16  1  0
 18 17  1  0
 17 22  1  6
 18 23  1  6
M  END
$$$$
