
     RDKit          3D

 23 24  0  0  0  0  0  0  0  0999 V2000
   -6.9286  -32.0838  -14.2865 C   0  0  1  0  0  0  0  0  0  0  0  0
   -6.7681  -31.6335  -12.8574 C   0  0  1  0  0  0  0  0  0  0  0  0
   -6.9268  -30.1152  -12.8243 C   0  0  2  0  0  0  0  0  0  0  0  0
   -8.2782  -29.8147  -13.4048 C   0  0  1  0  0  0  0  0  0  0  0  0
   -8.5062  -30.4439  -14.7394 C   0  0  1  0  0  0  0  0  0  0  0  0
   -7.9110  -29.5098  -15.7906 C   0  0  0  0  0  0  0  0  0  0  0  0
   -6.8825  -33.4981  -14.2521 O   0  0  0  0  0  0  0  0  0  0  0  0
   -7.7696  -32.1487  -12.0399 O   0  0  0  0  0  0  0  0  0  0  0  0
   -5.8961  -29.4768  -13.4844 O   0  0  0  0  0  0  0  0  0  0  0  0
   -9.2599  -30.2247  -12.4889 O   0  0  0  0  0  0  0  0  0  0  0  0
   -8.1089  -31.7322  -14.8644 O   0  0  0  0  0  0  0  0  0  0  0  0
   -8.2820  -30.0723  -17.0344 O   0  0  0  0  0  0  0  0  0  0  0  0
   -6.3401  -35.3203  -17.7105 C   0  0  1  0  0  0  0  0  0  0  0  0
   -5.0881  -35.3482  -16.8577 C   0  0  1  0  0  0  0  0  0  0  0  0
   -5.1928  -34.3195  -15.7511 C   0  0  2  0  0  0  0  0  0  0  0  0
   -6.6811  -34.0423  -15.4992 C   0  0  1  0  0  0  0  0  0  0  0  0
   -7.3824  -35.3760  -15.6694 C   0  0  1  0  0  0  0  0  0  0  0  0
   -8.7427  -35.3818  -15.0220 C   0  0  0  0  0  0  0  0  0  0  0  0
   -6.1740  -36.1886  -18.7838 O   0  0  0  0  0  0  0  0  0  0  0  0
   -4.8331  -36.6265  -16.3648 O   0  0  0  0  0  0  0  0  0  0  0  0
   -4.5584  -33.1514  -16.1056 O   0  0  0  0  0  0  0  0  0  0  0  0
   -7.4607  -35.6869  -17.0045 O   0  0  0  0  0  0  0  0  0  0  0  0
   -9.7493  -35.0535  -15.9164 O   0  0  0  0  0  0  0  0  0  0  0  0
  1  2  1  0
  1  7  1  1
  1 11  1  0
  2  3  1  0
  2  8  1  1
  3  4  1  0
  3  9  1  6
  5  4  1  0
  4 10  1  1
  5  6  1  0
  5 11  1  1
  6 12  1  6
 16  7  1  1
 13 14  1  0
 13 19  1  6
 22 13  1  0
 15 14  1  0
 14 20  1  1
 16 15  1  0
 15 21  1  6
 17 16  1  0
 18 17  1  0
 17 22  1  6
 18 23  1  6
M  END
$$$$
