
     RDKit          3D

 23 24  0  0  0  0  0  0  0  0999 V2000
   -7.3522  -32.9534  -14.2483 C   0  0  1  0  0  0  0  0  0  0  0  0
   -8.1468  -32.0390  -13.3641 C   0  0  1  0  0  0  0  0  0  0  0  0
   -7.8527  -30.5828  -13.5985 C   0  0  2  0  0  0  0  0  0  0  0  0
   -6.3593  -30.3509  -13.5586 C   0  0  1  0  0  0  0  0  0  0  0  0
   -5.6938  -31.3477  -14.4432 C   0  0  1  0  0  0  0  0  0  0  0  0
   -4.1908  -31.1883  -14.2716 C   0  0  0  0  0  0  0  0  0  0  0  0
   -7.7956  -33.0135  -15.5664 O   0  0  0  0  0  0  0  0  0  0  0  0
   -9.4949  -32.2399  -13.3996 O   0  0  0  0  0  0  0  0  0  0  0  0
   -8.3974  -29.8771  -12.5173 O   0  0  0  0  0  0  0  0  0  0  0  0
   -6.1262  -29.0816  -14.0869 O   0  0  0  0  0  0  0  0  0  0  0  0
   -5.9934  -32.6690  -14.1684 O   0  0  0  0  0  0  0  0  0  0  0  0
   -3.9526  -31.1196  -12.8907 O   0  0  0  0  0  0  0  0  0  0  0  0
   -6.4377  -36.1713  -17.2929 C   0  0  1  0  0  0  0  0  0  0  0  0
   -7.6609  -36.5360  -16.4597 C   0  0  1  0  0  0  0  0  0  0  0  0
   -8.4583  -35.2314  -16.3293 C   0  0  2  0  0  0  0  0  0  0  0  0
   -7.4216  -34.1548  -16.2086 C   0  0  1  0  0  0  0  0  0  0  0  0
   -6.9483  -33.9299  -17.6330 C   0  0  1  0  0  0  0  0  0  0  0  0
   -5.8473  -32.9283  -17.7415 C   0  0  0  0  0  0  0  0  0  0  0  0
   -6.1624  -37.3264  -18.0654 O   0  0  0  0  0  0  0  0  0  0  0  0
   -8.4077  -37.5428  -17.0209 O   0  0  0  0  0  0  0  0  0  0  0  0
   -9.4047  -35.2826  -15.3557 O   0  0  0  0  0  0  0  0  0  0  0  0
   -6.6578  -35.1534  -18.1719 O   0  0  0  0  0  0  0  0  0  0  0  0
   -4.6391  -33.6654  -17.7105 O   0  0  0  0  0  0  0  0  0  0  0  0
  1  2  1  0
  1  7  1  6
  1 11  1  0
  2  3  1  0
  2  8  1  6
  3  4  1  0
  3  9  1  1
  5  4  1  0
  4 10  1  6
  5  6  1  1
 11  5  1  0
  6 12  1  0
 16  7  1  6
 13 14  1  0
 13 19  1  6
 22 13  1  0
 15 14  1  0
 14 20  1  6
 16 15  1  0
 15 21  1  1
 17 16  1  0
 17 18  1  1
 17 22  1  0
 23 18  1  0
M  END
$$$$
