
     RDKit          3D

 23 24  0  0  0  0  0  0  0  0999 V2000
   -7.3357  -32.9804  -15.6705 C   0  0  1  0  0  0  0  0  0  0  0  0
   -8.2779  -32.6924  -14.5396 C   0  0  1  0  0  0  0  0  0  0  0  0
   -8.1360  -33.6514  -13.3897 C   0  0  2  0  0  0  0  0  0  0  0  0
   -8.1877  -35.0730  -13.9014 C   0  0  1  0  0  0  0  0  0  0  0  0
   -7.2403  -35.2083  -15.0429 C   0  0  1  0  0  0  0  0  0  0  0  0
   -7.4189  -36.6001  -15.6302 C   0  0  0  0  0  0  0  0  0  0  0  0
   -6.0173  -32.6000  -15.4367 O   0  0  0  0  0  0  0  0  0  0  0  0
   -8.2322  -31.4131  -14.0703 O   0  0  0  0  0  0  0  0  0  0  0  0
   -9.2609  -33.4779  -12.5723 O   0  0  0  0  0  0  0  0  0  0  0  0
   -7.7409  -35.8978  -12.8696 O   0  0  0  0  0  0  0  0  0  0  0  0
   -7.4310  -34.3076  -16.0742 O   0  0  0  0  0  0  0  0  0  0  0  0
   -7.4389  -36.4445  -17.0244 O   0  0  0  0  0  0  0  0  0  0  0  0
   -4.2267  -31.8729  -18.7626 C   0  0  1  0  0  0  0  0  0  0  0  0
   -5.0419  -30.6530  -18.3491 C   0  0  1  0  0  0  0  0  0  0  0  0
   -5.1972  -30.7741  -16.8273 C   0  0  2  0  0  0  0  0  0  0  0  0
   -5.3511  -32.2432  -16.5697 C   0  0  1  0  0  0  0  0  0  0  0  0
   -3.9360  -32.7866  -16.6457 C   0  0  1  0  0  0  0  0  0  0  0  0
   -3.8595  -34.2681  -16.4834 C   0  0  0  0  0  0  0  0  0  0  0  0
   -3.4292  -31.4308  -19.8467 O   0  0  0  0  0  0  0  0  0  0  0  0
   -4.4514  -29.4681  -18.7145 O   0  0  0  0  0  0  0  0  0  0  0  0
   -6.1622  -29.9597  -16.3255 O   0  0  0  0  0  0  0  0  0  0  0  0
   -3.3705  -32.3119  -17.7975 O   0  0  0  0  0  0  0  0  0  0  0  0
   -3.3062  -34.7688  -17.6863 O   0  0  0  0  0  0  0  0  0  0  0  0
  1  2  1  0
  1  7  1  1
  1 11  1  0
  2  3  1  0
  2  8  1  1
  3  4  1  0
  3  9  1  1
  5  4  1  0
  4 10  1  1
  5  6  1  6
 11  5  1  0
  6 12  1  0
 16  7  1  1
 13 14  1  0
 13 19  1  6
 22 13  1  0
 15 14  1  0
 14 20  1  1
 16 15  1  0
 15 21  1  6
 17 16  1  0
 17 18  1  6
 17 22  1  0
 23 18  1  0
M  END
$$$$
