
     RDKit          3D

 23 24  0  0  0  0  0  0  0  0999 V2000
   -6.4765  -33.9637  -14.2034 C   0  0  1  0  0  0  0  0  0  0  0  0
   -5.3657  -34.8748  -13.7727 C   0  0  1  0  0  0  0  0  0  0  0  0
   -4.5066  -35.3446  -14.9143 C   0  0  2  0  0  0  0  0  0  0  0  0
   -5.3806  -35.8997  -16.0159 C   0  0  1  0  0  0  0  0  0  0  0  0
   -6.4606  -34.9181  -16.3142 C   0  0  1  0  0  0  0  0  0  0  0  0
   -7.4066  -35.5611  -17.3168 C   0  0  0  0  0  0  0  0  0  0  0  0
   -6.0747  -32.6677  -14.5140 O   0  0  0  0  0  0  0  0  0  0  0  0
   -4.5708  -34.3774  -12.7829 O   0  0  0  0  0  0  0  0  0  0  0  0
   -3.7385  -36.4137  -14.4342 O   0  0  0  0  0  0  0  0  0  0  0  0
   -4.5819  -36.0211  -17.1525 O   0  0  0  0  0  0  0  0  0  0  0  0
   -7.2239  -34.5364  -15.2266 O   0  0  0  0  0  0  0  0  0  0  0  0
   -7.7660  -36.8077  -16.7826 O   0  0  0  0  0  0  0  0  0  0  0  0
   -9.1918  -30.4165  -14.6245 C   0  0  1  0  0  0  0  0  0  0  0  0
   -8.0961  -29.7253  -13.8211 C   0  0  1  0  0  0  0  0  0  0  0  0
   -6.7839  -30.3439  -14.3214 C   0  0  2  0  0  0  0  0  0  0  0  0
   -7.1093  -31.7846  -14.5802 C   0  0  1  0  0  0  0  0  0  0  0  0
   -7.8203  -31.7724  -15.9211 C   0  0  1  0  0  0  0  0  0  0  0  0
   -8.3022  -33.1183  -16.3495 C   0  0  0  0  0  0  0  0  0  0  0  0
  -10.1892  -29.4280  -14.8107 O   0  0  0  0  0  0  0  0  0  0  0  0
   -8.1101  -28.3595  -13.9651 O   0  0  0  0  0  0  0  0  0  0  0  0
   -5.7310  -30.0914  -13.5005 O   0  0  0  0  0  0  0  0  0  0  0  0
   -8.7932  -30.8122  -15.8662 O   0  0  0  0  0  0  0  0  0  0  0  0
   -9.4168  -32.8886  -17.1915 O   0  0  0  0  0  0  0  0  0  0  0  0
  1  2  1  0
  1  7  1  6
  1 11  1  0
  2  3  1  0
  2  8  1  1
  3  4  1  0
  3  9  1  1
  5  4  1  0
  4 10  1  6
  5  6  1  6
 11  5  1  0
  6 12  1  0
 16  7  1  6
 13 14  1  0
 13 19  1  6
 22 13  1  0
 15 14  1  0
 14 20  1  6
 16 15  1  0
 15 21  1  1
 17 16  1  0
 17 18  1  1
 17 22  1  0
 23 18  1  0
M  END
$$$$
