
     RDKit          3D

 23 24  0  0  0  0  0  0  0  0999 V2000
   -7.8520  -33.6186  -15.3464 C   0  0  1  0  0  0  0  0  0  0  0  0
   -8.2645  -34.8881  -14.6627 C   0  0  1  0  0  0  0  0  0  0  0  0
   -7.1457  -35.8855  -14.5371 C   0  0  2  0  0  0  0  0  0  0  0  0
   -6.4862  -36.0845  -15.8828 C   0  0  1  0  0  0  0  0  0  0  0  0
   -6.1690  -34.7507  -16.4653 C   0  0  1  0  0  0  0  0  0  0  0  0
   -5.6434  -34.9744  -17.8751 C   0  0  0  0  0  0  0  0  0  0  0  0
   -7.0918  -32.7580  -14.5597 O   0  0  0  0  0  0  0  0  0  0  0  0
   -8.8554  -34.7153  -13.4461 O   0  0  0  0  0  0  0  0  0  0  0  0
   -7.7289  -37.1117  -14.1907 O   0  0  0  0  0  0  0  0  0  0  0  0
   -5.2838  -36.7535  -15.6563 O   0  0  0  0  0  0  0  0  0  0  0  0
   -7.2414  -33.8844  -16.5671 O   0  0  0  0  0  0  0  0  0  0  0  0
   -6.6945  -34.6539  -18.7475 O   0  0  0  0  0  0  0  0  0  0  0  0
   -7.8506  -29.1248  -15.5698 C   0  0  1  0  0  0  0  0  0  0  0  0
   -8.5643  -29.4463  -14.2618 C   0  0  1  0  0  0  0  0  0  0  0  0
   -7.7649  -30.6017  -13.6446 C   0  0  2  0  0  0  0  0  0  0  0  0
   -7.3365  -31.4419  -14.8103 C   0  0  1  0  0  0  0  0  0  0  0  0
   -6.1487  -30.6972  -15.3918 C   0  0  1  0  0  0  0  0  0  0  0  0
   -5.5958  -31.3318  -16.6242 C   0  0  0  0  0  0  0  0  0  0  0  0
   -7.9892  -27.7239  -15.7284 O   0  0  0  0  0  0  0  0  0  0  0  0
   -8.6438  -28.3657  -13.4179 O   0  0  0  0  0  0  0  0  0  0  0  0
   -8.4327  -31.2352  -12.6452 O   0  0  0  0  0  0  0  0  0  0  0  0
   -6.5136  -29.3873  -15.5427 O   0  0  0  0  0  0  0  0  0  0  0  0
   -5.7851  -30.3955  -17.6690 O   0  0  0  0  0  0  0  0  0  0  0  0
  1  2  1  0
  1  7  1  1
  1 11  1  0
  2  3  1  0
  2  8  1  1
  3  4  1  0
  3  9  1  6
  5  4  1  0
  4 10  1  1
  5  6  1  6
 11  5  1  0
  6 12  1  0
 16  7  1  1
 13 14  1  0
 13 19  1  1
 22 13  1  0
 15 14  1  0
 14 20  1  1
 16 15  1  0
 15 21  1  1
 17 16  1  0
 17 18  1  6
 17 22  1  0
 23 18  1  0
M  END
$$$$
