
     RDKit          3D

 23 24  0  0  0  0  0  0  0  0999 V2000
   -7.5135  -33.9519  -16.4329 C   0  0  1  0  0  0  0  0  0  0  0  0
   -8.6851  -34.8894  -16.5714 C   0  0  1  0  0  0  0  0  0  0  0  0
   -8.1384  -36.3125  -16.6575 C   0  0  2  0  0  0  0  0  0  0  0  0
   -7.3299  -36.5350  -15.4123 C   0  0  1  0  0  0  0  0  0  0  0  0
   -6.3031  -35.4781  -15.1724 C   0  0  1  0  0  0  0  0  0  0  0  0
   -5.0620  -35.8585  -15.9767 C   0  0  0  0  0  0  0  0  0  0  0  0
   -8.0707  -32.6640  -16.2483 O   0  0  0  0  0  0  0  0  0  0  0  0
   -9.5078  -34.8544  -15.4495 O   0  0  0  0  0  0  0  0  0  0  0  0
   -7.4190  -36.5168  -17.8179 O   0  0  0  0  0  0  0  0  0  0  0  0
   -8.2070  -36.6314  -14.3205 O   0  0  0  0  0  0  0  0  0  0  0  0
   -6.7092  -34.2009  -15.3643 O   0  0  0  0  0  0  0  0  0  0  0  0
   -4.0894  -36.2051  -15.0097 O   0  0  0  0  0  0  0  0  0  0  0  0
   -6.2997  -30.8733  -13.2097 C   0  0  1  0  0  0  0  0  0  0  0  0
   -7.8088  -30.7708  -13.1210 C   0  0  1  0  0  0  0  0  0  0  0  0
   -8.4290  -31.0934  -14.4645 C   0  0  2  0  0  0  0  0  0  0  0  0
   -7.4367  -31.9613  -15.2500 C   0  0  1  0  0  0  0  0  0  0  0  0
   -6.7849  -32.8701  -14.2260 C   0  0  1  0  0  0  0  0  0  0  0  0
   -6.1417  -34.0709  -14.8694 C   0  0  0  0  0  0  0  0  0  0  0  0
   -5.7482  -30.4629  -12.0011 O   0  0  0  0  0  0  0  0  0  0  0  0
   -8.3171  -31.5727  -12.1010 O   0  0  0  0  0  0  0  0  0  0  0  0
   -8.6968  -29.9431  -15.1700 O   0  0  0  0  0  0  0  0  0  0  0  0
   -5.8789  -32.1522  -13.4850 O   0  0  0  0  0  0  0  0  0  0  0  0
   -4.7580  -33.9930  -14.8567 O   0  0  0  0  0  0  0  0  0  0  0  0
  1  2  1  0
  1  7  1  1
  1 11  1  0
  2  3  1  0
  2  8  1  1
  3  4  1  0
  3  9  1  6
  5  4  1  0
  4 10  1  1
  5  6  1  0
  5 11  1  6
  6 12  1  6
 16  7  1  6
 13 14  1  0
 13 19  1  1
 22 13  1  0
 15 14  1  0
 14 20  1  1
 16 15  1  0
 15 21  1  6
 17 16  1  0
 18 17  1  0
 17 22  1  6
 18 23  1  6
M  END
$$$$
