
     RDKit          3D

 23 24  0  0  0  0  0  0  0  0999 V2000
   -7.5562  -33.7085  -15.6404 C   0  0  1  0  0  0  0  0  0  0  0  0
   -8.2831  -33.2892  -14.3973 C   0  0  1  0  0  0  0  0  0  0  0  0
   -7.6161  -33.7572  -13.1330 C   0  0  2  0  0  0  0  0  0  0  0  0
   -7.3337  -35.2397  -13.2237 C   0  0  1  0  0  0  0  0  0  0  0  0
   -6.6511  -35.5213  -14.5174 C   0  0  1  0  0  0  0  0  0  0  0  0
   -6.5114  -37.0303  -14.6482 C   0  0  0  0  0  0  0  0  0  0  0  0
   -6.4005  -32.9804  -15.9086 O   0  0  0  0  0  0  0  0  0  0  0  0
   -8.5362  -31.9525  -14.3074 O   0  0  0  0  0  0  0  0  0  0  0  0
   -8.5430  -33.5880  -12.0958 O   0  0  0  0  0  0  0  0  0  0  0  0
   -6.4496  -35.5535  -12.1921 O   0  0  0  0  0  0  0  0  0  0  0  0
   -7.3207  -35.0789  -15.6431 O   0  0  0  0  0  0  0  0  0  0  0  0
   -6.8785  -37.3517  -15.9637 O   0  0  0  0  0  0  0  0  0  0  0  0
   -5.8275  -32.7896  -19.7075 C   0  0  1  0  0  0  0  0  0  0  0  0
   -6.6980  -31.6183  -19.2671 C   0  0  1  0  0  0  0  0  0  0  0  0
   -6.3766  -31.4192  -17.7799 C   0  0  2  0  0  0  0  0  0  0  0  0
   -6.1728  -32.8029  -17.2395 C   0  0  1  0  0  0  0  0  0  0  0  0
   -4.7665  -33.1715  -17.6755 C   0  0  1  0  0  0  0  0  0  0  0  0
   -4.3722  -34.5599  -17.2961 C   0  0  0  0  0  0  0  0  0  0  0  0
   -5.4783  -32.5026  -21.0500 O   0  0  0  0  0  0  0  0  0  0  0  0
   -6.4709  -30.4796  -20.0007 O   0  0  0  0  0  0  0  0  0  0  0  0
   -7.2865  -30.6392  -17.1398 O   0  0  0  0  0  0  0  0  0  0  0  0
   -4.6607  -32.8965  -19.0115 O   0  0  0  0  0  0  0  0  0  0  0  0
   -3.0269  -34.7146  -17.7087 O   0  0  0  0  0  0  0  0  0  0  0  0
  1  2  1  0
  1  7  1  1
  1 11  1  0
  2  3  1  0
  2  8  1  1
  3  4  1  0
  3  9  1  1
  5  4  1  0
  4 10  1  1
  5  6  1  6
 11  5  1  0
  6 12  1  0
 16  7  1  1
 13 14  1  0
 13 19  1  6
 22 13  1  0
 15 14  1  0
 14 20  1  6
 16 15  1  0
 15 21  1  1
 17 16  1  0
 17 18  1  6
 17 22  1  0
 23 18  1  0
M  END
$$$$
