
     RDKit          3D

 23 24  0  0  0  0  0  0  0  0999 V2000
   -8.0253  -34.2277  -15.6463 C   0  0  1  0  0  0  0  0  0  0  0  0
   -8.2990  -33.3977  -14.4188 C   0  0  1  0  0  0  0  0  0  0  0  0
   -7.7012  -34.1268  -13.2178 C   0  0  2  0  0  0  0  0  0  0  0  0
   -6.2402  -34.3073  -13.5121 C   0  0  1  0  0  0  0  0  0  0  0  0
   -5.9739  -34.9464  -14.8348 C   0  0  1  0  0  0  0  0  0  0  0  0
   -6.0612  -36.4579  -14.6357 C   0  0  0  0  0  0  0  0  0  0  0  0
   -8.4987  -33.4646  -16.7405 O   0  0  0  0  0  0  0  0  0  0  0  0
   -7.6633  -32.1613  -14.4811 O   0  0  0  0  0  0  0  0  0  0  0  0
   -8.3558  -35.3146  -12.9603 O   0  0  0  0  0  0  0  0  0  0  0  0
   -5.6093  -33.0559  -13.4299 O   0  0  0  0  0  0  0  0  0  0  0  0
   -6.7097  -34.4882  -15.8749 O   0  0  0  0  0  0  0  0  0  0  0  0
   -5.5350  -37.0162  -15.8242 O   0  0  0  0  0  0  0  0  0  0  0  0
   -5.4136  -31.6175  -18.3673 C   0  0  1  0  0  0  0  0  0  0  0  0
   -5.9860  -30.8367  -17.2018 C   0  0  1  0  0  0  0  0  0  0  0  0
   -7.3738  -31.3445  -16.8705 C   0  0  2  0  0  0  0  0  0  0  0  0
   -7.4858  -32.7880  -17.3795 C   0  0  1  0  0  0  0  0  0  0  0  0
   -6.1269  -33.4160  -17.1375 C   0  0  1  0  0  0  0  0  0  0  0  0
   -6.1936  -34.9209  -17.1495 C   0  0  0  0  0  0  0  0  0  0  0  0
   -4.1914  -31.0603  -18.7265 O   0  0  0  0  0  0  0  0  0  0  0  0
   -5.1366  -30.8696  -16.0975 O   0  0  0  0  0  0  0  0  0  0  0  0
   -8.3370  -30.5666  -17.4703 O   0  0  0  0  0  0  0  0  0  0  0  0
   -5.2315  -32.9459  -18.0663 O   0  0  0  0  0  0  0  0  0  0  0  0
   -5.9872  -35.4438  -18.4163 O   0  0  0  0  0  0  0  0  0  0  0  0
  1  2  1  0
  1  7  1  6
  1 11  1  0
  2  3  1  0
  2  8  1  6
  3  4  1  0
  3  9  1  6
  5  4  1  0
  4 10  1  6
  5  6  1  0
  5 11  1  6
  6 12  1  6
 16  7  1  1
 13 14  1  0
 13 19  1  1
 22 13  1  0
 15 14  1  0
 14 20  1  1
 16 15  1  0
 15 21  1  6
 17 16  1  0
 18 17  1  0
 17 22  1  6
 18 23  1  6
M  END
$$$$
