
     RDKit          3D

 23 24  0  0  0  0  0  0  0  0999 V2000
   -6.8980  -32.8999  -14.4652 C   0  0  1  0  0  0  0  0  0  0  0  0
   -7.6700  -32.2261  -13.3604 C   0  0  1  0  0  0  0  0  0  0  0  0
   -7.1486  -30.7970  -13.2292 C   0  0  2  0  0  0  0  0  0  0  0  0
   -7.3287  -30.1521  -14.5728 C   0  0  1  0  0  0  0  0  0  0  0  0
   -6.7368  -30.9391  -15.6950 C   0  0  1  0  0  0  0  0  0  0  0  0
   -5.2578  -30.5689  -15.7799 C   0  0  0  0  0  0  0  0  0  0  0  0
   -7.4864  -34.1777  -14.6222 O   0  0  0  0  0  0  0  0  0  0  0  0
   -9.0233  -32.1214  -13.6676 O   0  0  0  0  0  0  0  0  0  0  0  0
   -5.8436  -30.7657  -12.7804 O   0  0  0  0  0  0  0  0  0  0  0  0
   -8.6996  -29.9378  -14.7863 O   0  0  0  0  0  0  0  0  0  0  0  0
   -6.9664  -32.2731  -15.6707 O   0  0  0  0  0  0  0  0  0  0  0  0
   -5.2069  -29.4563  -16.6522 O   0  0  0  0  0  0  0  0  0  0  0  0
   -5.6894  -36.6080  -17.1599 C   0  0  1  0  0  0  0  0  0  0  0  0
   -5.8819  -37.2540  -15.8029 C   0  0  1  0  0  0  0  0  0  0  0  0
   -6.1871  -36.1948  -14.7643 C   0  0  2  0  0  0  0  0  0  0  0  0
   -6.7743  -34.9753  -15.4876 C   0  0  1  0  0  0  0  0  0  0  0  0
   -7.6367  -35.5343  -16.6027 C   0  0  1  0  0  0  0  0  0  0  0  0
   -8.6285  -34.5192  -17.1082 C   0  0  0  0  0  0  0  0  0  0  0  0
   -5.2984  -37.5823  -18.0716 O   0  0  0  0  0  0  0  0  0  0  0  0
   -6.8579  -38.2477  -15.8431 O   0  0  0  0  0  0  0  0  0  0  0  0
   -5.0466  -35.8270  -14.0888 O   0  0  0  0  0  0  0  0  0  0  0  0
   -6.8342  -35.9993  -17.6151 O   0  0  0  0  0  0  0  0  0  0  0  0
   -8.0737  -33.6717  -18.0541 O   0  0  0  0  0  0  0  0  0  0  0  0
  1  2  1  0
  1  7  1  6
  1 11  1  0
  2  3  1  0
  2  8  1  6
  3  4  1  0
  3  9  1  6
  5  4  1  0
  4 10  1  6
  5  6  1  0
  5 11  1  1
  6 12  1  6
 16  7  1  1
 13 14  1  0
 13 19  1  6
 22 13  1  0
 15 14  1  0
 14 20  1  6
 16 15  1  0
 15 21  1  6
 17 16  1  0
 18 17  1  0
 17 22  1  6
 18 23  1  6
M  END
$$$$
