
     RDKit          3D

 23 24  0  0  0  0  0  0  0  0999 V2000
   -7.5639  -33.7878  -15.4702 C   0  0  1  0  0  0  0  0  0  0  0  0
   -8.4687  -34.9807  -15.6402 C   0  0  1  0  0  0  0  0  0  0  0  0
   -7.7232  -36.0186  -16.4759 C   0  0  2  0  0  0  0  0  0  0  0  0
   -6.4509  -36.3248  -15.7401 C   0  0  1  0  0  0  0  0  0  0  0  0
   -5.6583  -35.1090  -15.3901 C   0  0  1  0  0  0  0  0  0  0  0  0
   -4.8029  -34.7580  -16.6054 C   0  0  0  0  0  0  0  0  0  0  0  0
   -8.2508  -32.9038  -14.6041 O   0  0  0  0  0  0  0  0  0  0  0  0
   -8.7512  -35.5904  -14.4215 O   0  0  0  0  0  0  0  0  0  0  0  0
   -7.5133  -35.5823  -17.7687 O   0  0  0  0  0  0  0  0  0  0  0  0
   -6.7669  -37.0599  -14.5866 O   0  0  0  0  0  0  0  0  0  0  0  0
   -6.3618  -34.0632  -14.8957 O   0  0  0  0  0  0  0  0  0  0  0  0
   -3.6761  -34.0836  -16.0793 O   0  0  0  0  0  0  0  0  0  0  0  0
   -6.6750  -29.2975  -14.3093 C   0  0  1  0  0  0  0  0  0  0  0  0
   -8.1792  -29.2703  -14.1301 C   0  0  1  0  0  0  0  0  0  0  0  0
   -8.7846  -30.5606  -14.6422 C   0  0  2  0  0  0  0  0  0  0  0  0
   -7.6984  -31.6440  -14.6020 C   0  0  1  0  0  0  0  0  0  0  0  0
   -6.8888  -31.3685  -13.3498 C   0  0  1  0  0  0  0  0  0  0  0  0
   -6.0942  -32.5735  -12.9184 C   0  0  0  0  0  0  0  0  0  0  0  0
   -6.1545  -28.0622  -13.9400 O   0  0  0  0  0  0  0  0  0  0  0  0
   -8.5324  -29.0126  -12.8070 O   0  0  0  0  0  0  0  0  0  0  0  0
   -9.2409  -30.4108  -15.9313 O   0  0  0  0  0  0  0  0  0  0  0  0
   -6.0776  -30.2804  -13.5572 O   0  0  0  0  0  0  0  0  0  0  0  0
   -5.2193  -32.2804  -11.8842 O   0  0  0  0  0  0  0  0  0  0  0  0
  1  2  1  0
  1  7  1  1
  1 11  1  0
  2  3  1  0
  2  8  1  1
  3  4  1  0
  3  9  1  6
  5  4  1  0
  4 10  1  1
  5  6  1  0
  5 11  1  6
  6 12  1  6
 16  7  1  1
 13 14  1  0
 13 19  1  1
 22 13  1  0
 15 14  1  0
 14 20  1  1
 16 15  1  0
 15 21  1  6
 17 16  1  0
 18 17  1  0
 17 22  1  6
 18 23  1  6
M  END
$$$$
