
     RDKit          3D

 23 24  0  0  0  0  0  0  0  0999 V2000
   -7.3031  -33.9132  -15.8888 C   0  0  1  0  0  0  0  0  0  0  0  0
   -8.2396  -35.0173  -16.2805 C   0  0  1  0  0  0  0  0  0  0  0  0
   -7.8026  -36.3694  -15.7880 C   0  0  2  0  0  0  0  0  0  0  0  0
   -6.3588  -36.6086  -16.1674 C   0  0  1  0  0  0  0  0  0  0  0  0
   -5.5519  -35.4243  -15.7609 C   0  0  1  0  0  0  0  0  0  0  0  0
   -4.1377  -35.6264  -16.2833 C   0  0  0  0  0  0  0  0  0  0  0  0
   -7.3928  -33.5238  -14.5554 O   0  0  0  0  0  0  0  0  0  0  0  0
   -9.5425  -34.8096  -15.9364 O   0  0  0  0  0  0  0  0  0  0  0  0
   -8.5626  -37.3215  -16.4806 O   0  0  0  0  0  0  0  0  0  0  0  0
   -5.9164  -37.7061  -15.4297 O   0  0  0  0  0  0  0  0  0  0  0  0
   -5.9961  -34.2128  -16.2570 O   0  0  0  0  0  0  0  0  0  0  0  0
   -4.2192  -35.5769  -17.6831 O   0  0  0  0  0  0  0  0  0  0  0  0
   -6.5666  -29.7782  -14.2651 C   0  0  1  0  0  0  0  0  0  0  0  0
   -8.0794  -29.9651  -14.2580 C   0  0  1  0  0  0  0  0  0  0  0  0
   -8.3015  -31.4030  -13.7702 C   0  0  2  0  0  0  0  0  0  0  0  0
   -7.1754  -32.1926  -14.3676 C   0  0  1  0  0  0  0  0  0  0  0  0
   -5.9877  -31.8853  -13.4740 C   0  0  1  0  0  0  0  0  0  0  0  0
   -4.7194  -32.5248  -13.9317 C   0  0  0  0  0  0  0  0  0  0  0  0
   -6.3631  -28.4205  -13.9161 O   0  0  0  0  0  0  0  0  0  0  0  0
   -8.7266  -29.0469  -13.4680 O   0  0  0  0  0  0  0  0  0  0  0  0
   -9.5605  -31.8556  -14.0072 O   0  0  0  0  0  0  0  0  0  0  0  0
   -5.9181  -30.5267  -13.3288 O   0  0  0  0  0  0  0  0  0  0  0  0
   -3.9957  -31.5196  -14.6171 O   0  0  0  0  0  0  0  0  0  0  0  0
  1  2  1  0
  1  7  1  1
  1 11  1  0
  2  3  1  0
  2  8  1  1
  3  4  1  0
  3  9  1  6
  5  4  1  0
  4 10  1  1
  5  6  1  6
 11  5  1  0
  6 12  1  0
 16  7  1  1
 13 14  1  0
 13 19  1  1
 22 13  1  0
 15 14  1  0
 14 20  1  1
 16 15  1  0
 15 21  1  6
 17 16  1  0
 17 18  1  6
 17 22  1  0
 23 18  1  0
M  END
$$$$
