
     RDKit          3D

 23 24  0  0  0  0  0  0  0  0999 V2000
   -7.2508  -34.0090  -15.7836 C   0  0  1  0  0  0  0  0  0  0  0  0
   -8.1011  -35.1321  -16.3185 C   0  0  1  0  0  0  0  0  0  0  0  0
   -7.1693  -36.1690  -16.9415 C   0  0  2  0  0  0  0  0  0  0  0  0
   -6.2185  -36.5928  -15.8597 C   0  0  1  0  0  0  0  0  0  0  0  0
   -5.5317  -35.4493  -15.1893 C   0  0  1  0  0  0  0  0  0  0  0  0
   -4.3144  -35.0888  -16.0378 C   0  0  0  0  0  0  0  0  0  0  0  0
   -8.1435  -33.1308  -15.1238 O   0  0  0  0  0  0  0  0  0  0  0  0
   -8.7890  -35.7866  -15.3010 O   0  0  0  0  0  0  0  0  0  0  0  0
   -6.5334  -35.6789  -18.0644 O   0  0  0  0  0  0  0  0  0  0  0  0
   -6.9222  -37.3668  -14.9235 O   0  0  0  0  0  0  0  0  0  0  0  0
   -6.3127  -34.3892  -14.8746 O   0  0  0  0  0  0  0  0  0  0  0  0
   -3.5739  -34.1770  -15.2495 O   0  0  0  0  0  0  0  0  0  0  0  0
   -6.6507  -29.6227  -14.1036 C   0  0  1  0  0  0  0  0  0  0  0  0
   -8.0181  -29.4879  -14.7422 C   0  0  1  0  0  0  0  0  0  0  0  0
   -8.3750  -30.7643  -15.4749 C   0  0  2  0  0  0  0  0  0  0  0  0
   -7.5677  -31.9114  -14.8523 C   0  0  1  0  0  0  0  0  0  0  0  0
   -7.5115  -31.6154  -13.3661 C   0  0  1  0  0  0  0  0  0  0  0  0
   -7.1665  -32.8416  -12.5619 C   0  0  0  0  0  0  0  0  0  0  0  0
   -6.2960  -28.4039  -13.5361 O   0  0  0  0  0  0  0  0  0  0  0  0
   -8.9868  -29.1302  -13.8065 O   0  0  0  0  0  0  0  0  0  0  0  0
   -8.0757  -30.6616  -16.8137 O   0  0  0  0  0  0  0  0  0  0  0  0
   -6.6214  -30.5960  -13.1339 O   0  0  0  0  0  0  0  0  0  0  0  0
   -7.0389  -32.5622  -11.2104 O   0  0  0  0  0  0  0  0  0  0  0  0
  1  2  1  0
  1  7  1  1
  1 11  1  0
  2  3  1  0
  2  8  1  1
  3  4  1  0
  3  9  1  6
  5  4  1  0
  4 10  1  1
  5  6  1  0
  5 11  1  6
  6 12  1  6
 16  7  1  1
 13 14  1  0
 13 19  1  1
 22 13  1  0
 15 14  1  0
 14 20  1  1
 16 15  1  0
 15 21  1  6
 17 16  1  0
 18 17  1  0
 17 22  1  6
 18 23  1  6
M  END
$$$$
