
     RDKit          3D

 18 20  0  0  0  0  0  0  0  0999 V2000
   -2.8769    9.4024  -23.0724 N   0  0  0  0  0  0  0  0  0  0  0  0
   -5.0268    9.3294  -22.8693 N   0  0  0  0  0  0  0  0  0  0  0  0
   -4.5273    8.6495  -21.8170 C   0  0  0  0  0  0  0  0  0  0  0  0
   -3.1475    8.6910  -21.9389 C   0  0  0  0  0  0  0  0  0  0  0  0
   -5.3331    8.0106  -20.7764 C   0  0  0  0  0  0  0  0  0  0  0  0
   -2.1901    8.0869  -21.0250 C   0  0  0  0  0  0  0  0  0  0  0  0
   -6.4124    7.2109  -21.1009 C   0  0  0  0  0  0  0  0  0  0  0  0
   -6.8907    6.7767  -18.7900 C   0  0  0  0  0  0  0  0  0  0  0  0
   -1.5393    9.6764  -23.5594 C   0  0  0  0  0  0  0  0  0  0  0  0
   -1.0353    6.1221  -20.3061 C   0  0  0  0  0  0  0  0  0  0  0  0
   -0.6514    8.1306  -19.2407 C   0  0  0  0  0  0  0  0  0  0  0  0
   -4.0311    9.7956  -23.6454 C   0  0  0  0  0  0  0  0  0  0  0  0
   -7.1812    6.6022  -20.1300 C   0  0  0  0  0  0  0  0  0  0  0  0
   -5.8075    7.5785  -18.4405 C   0  0  0  0  0  0  0  0  0  0  0  0
   -5.0669    8.1667  -19.4310 C   0  0  0  0  0  0  0  0  0  0  0  0
   -1.9410    6.7418  -21.1560 C   0  0  0  0  0  0  0  0  0  0  0  0
   -0.4010    6.8174  -19.3603 N   0  0  0  0  0  0  0  0  0  0  0  0
   -1.5360    8.7910  -20.0537 C   0  0  0  0  0  0  0  0  0  0  0  0
  1  4  1  0
  1  9  1  0
 12  1  1  0
  2  3  1  0
  2 12  2  0
  3  4  2  0
  3  5  1  0
  4  6  1  0
  5  7  2  0
  5 15  1  0
  6 16  1  0
  6 18  2  0
  7 13  1  0
 13  8  2  0
  8 14  1  0
 16 10  2  0
 10 17  1  0
 17 11  2  0
 11 18  1  0
 14 15  2  0
M  END
$$$$
