
     RDKit          3D

 18 20  0  0  0  0  0  0  0  0999 V2000
   -2.9039    8.8631  -20.8023 N   0  0  0  0  0  0  0  0  0  0  0  0
   -3.0843    8.0240  -18.7689 N   0  0  0  0  0  0  0  0  0  0  0  0
   -4.0610    7.4606  -19.4990 C   0  0  0  0  0  0  0  0  0  0  0  0
   -3.9297    7.9988  -20.7654 C   0  0  0  0  0  0  0  0  0  0  0  0
   -5.0670    6.4750  -19.0646 C   0  0  0  0  0  0  0  0  0  0  0  0
   -4.7956    7.6613  -21.8825 C   0  0  0  0  0  0  0  0  0  0  0  0
   -5.6055    6.5556  -17.7756 C   0  0  0  0  0  0  0  0  0  0  0  0
   -6.9687    4.6729  -18.1385 C   0  0  0  0  0  0  0  0  0  0  0  0
   -2.3974    9.6590  -21.9039 C   0  0  0  0  0  0  0  0  0  0  0  0
   -5.1533    6.5815  -23.9935 C   0  0  0  0  0  0  0  0  0  0  0  0
   -6.9216    7.7616  -22.9827 C   0  0  0  0  0  0  0  0  0  0  0  0
   -2.3781    8.8801  -19.5648 C   0  0  0  0  0  0  0  0  0  0  0  0
   -6.5416    5.6834  -17.2944 C   0  0  0  0  0  0  0  0  0  0  0  0
   -6.4638    4.5583  -19.4150 C   0  0  0  0  0  0  0  0  0  0  0  0
   -5.5098    5.4700  -19.8661 C   0  0  0  0  0  0  0  0  0  0  0  0
   -4.3190    6.8948  -22.9424 C   0  0  0  0  0  0  0  0  0  0  0  0
   -6.4442    7.0189  -24.0002 N   0  0  0  0  0  0  0  0  0  0  0  0
   -6.0957    8.0745  -21.9374 C   0  0  0  0  0  0  0  0  0  0  0  0
  1  4  1  0
  9  1  1  6
 12  1  1  0
  2  3  1  0
  2 12  2  0
  3  4  2  0
  3  5  1  0
  4  6  1  0
  5  7  2  0
  5 15  1  0
  6 16  1  0
  6 18  2  0
  7 13  1  0
 13  8  2  0
  8 14  1  0
 16 10  2  0
 10 17  1  0
 17 11  2  0
 11 18  1  0
 14 15  2  0
M  END
$$$$
