
     RDKit          3D

 18 20  0  0  0  0  0  0  0  0999 V2000
   -3.6989    8.1909  -22.4748 N   0  0  0  0  0  0  0  0  0  0  0  0
   -3.6033    9.2016  -20.5674 N   0  0  0  0  0  0  0  0  0  0  0  0
   -3.9151    7.9176  -20.2964 C   0  0  0  0  0  0  0  0  0  0  0  0
   -3.9786    7.2610  -21.5151 C   0  0  0  0  0  0  0  0  0  0  0  0
   -4.1336    7.3761  -18.9550 C   0  0  0  0  0  0  0  0  0  0  0  0
   -4.2858    5.8525  -21.7122 C   0  0  0  0  0  0  0  0  0  0  0  0
   -3.4567    6.2523  -18.5209 C   0  0  0  0  0  0  0  0  0  0  0  0
   -4.5419    6.3238  -16.3821 C   0  0  0  0  0  0  0  0  0  0  0  0
   -3.6634    7.9062  -23.8957 C   0  0  0  0  0  0  0  0  0  0  0  0
   -3.5364    3.6918  -22.4050 C   0  0  0  0  0  0  0  0  0  0  0  0
   -5.6994    3.9679  -21.6557 C   0  0  0  0  0  0  0  0  0  0  0  0
   -3.4679    9.3843  -21.8938 C   0  0  0  0  0  0  0  0  0  0  0  0
   -3.6528    5.7307  -17.2585 C   0  0  0  0  0  0  0  0  0  0  0  0
   -5.2347    7.4572  -16.7989 C   0  0  0  0  0  0  0  0  0  0  0  0
   -5.0145    7.9469  -18.0587 C   0  0  0  0  0  0  0  0  0  0  0  0
   -3.2892    5.0422  -22.2007 C   0  0  0  0  0  0  0  0  0  0  0  0
   -4.7329    3.1680  -22.1324 N   0  0  0  0  0  0  0  0  0  0  0  0
   -5.5080    5.3076  -21.4358 C   0  0  0  0  0  0  0  0  0  0  0  0
  1  4  1  0
  1  9  1  0
 12  1  1  0
  2  3  1  0
  2 12  2  0
  3  4  2  0
  3  5  1  0
  4  6  1  0
  5  7  2  0
  5 15  1  0
  6 16  1  0
  6 18  2  0
  7 13  1  0
 13  8  2  0
  8 14  1  0
 16 10  2  0
 10 17  1  0
 17 11  2  0
 11 18  1  0
 14 15  2  0
M  END
$$$$
