
     RDKit          3D

 18 20  0  0  0  0  0  0  0  0999 V2000
   -5.5246    8.6869  -21.3090 N   0  0  0  0  0  0  0  0  0  0  0  0
   -4.1290    9.7896  -22.5357 N   0  0  0  0  0  0  0  0  0  0  0  0
   -3.3894    9.1592  -21.6003 C   0  0  0  0  0  0  0  0  0  0  0  0
   -4.2770    8.4486  -20.8080 C   0  0  0  0  0  0  0  0  0  0  0  0
   -1.9331    9.2445  -21.4895 C   0  0  0  0  0  0  0  0  0  0  0  0
   -3.9268    7.6159  -19.6676 C   0  0  0  0  0  0  0  0  0  0  0  0
   -1.2697   10.4360  -21.7128 C   0  0  0  0  0  0  0  0  0  0  0  0
    0.8629    9.4247  -21.2808 C   0  0  0  0  0  0  0  0  0  0  0  0
   -6.7418    8.1236  -20.7589 C   0  0  0  0  0  0  0  0  0  0  0  0
   -3.8019    5.4263  -18.7185 C   0  0  0  0  0  0  0  0  0  0  0  0
   -3.1200    7.2503  -17.4838 C   0  0  0  0  0  0  0  0  0  0  0  0
   -5.4352    9.5110  -22.3710 C   0  0  0  0  0  0  0  0  0  0  0  0
    0.1033   10.5309  -21.6119 C   0  0  0  0  0  0  0  0  0  0  0  0
    0.2149    8.2140  -21.0515 C   0  0  0  0  0  0  0  0  0  0  0  0
   -1.1490    8.1572  -21.1607 C   0  0  0  0  0  0  0  0  0  0  0  0
   -4.1215    6.2603  -19.7810 C   0  0  0  0  0  0  0  0  0  0  0  0
   -3.3063    5.9250  -17.5844 N   0  0  0  0  0  0  0  0  0  0  0  0
   -3.4189    8.1178  -18.5026 C   0  0  0  0  0  0  0  0  0  0  0  0
  1  4  1  0
  1  9  1  0
 12  1  1  0
  2  3  1  0
  2 12  2  0
  3  4  2  0
  3  5  1  0
  4  6  1  0
  5  7  2  0
  5 15  1  0
  6 16  1  0
  6 18  2  0
  7 13  1  0
 13  8  2  0
  8 14  1  0
 16 10  2  0
 10 17  1  0
 17 11  2  0
 11 18  1  0
 14 15  2  0
M  END
$$$$
