
     RDKit          3D

 18 20  0  0  0  0  0  0  0  0999 V2000
    2.3216    4.5441  -11.0102 N   0  0  0  0  0  0  0  0  0  0  0  0
    2.0576    5.9395  -12.6998 N   0  0  0  0  0  0  0  0  0  0  0  0
    3.3234    5.4952  -12.7699 C   0  0  0  0  0  0  0  0  0  0  0  0
    3.4665    4.6251  -11.7054 C   0  0  0  0  0  0  0  0  0  0  0  0
    4.3555    5.8448  -13.7621 C   0  0  0  0  0  0  0  0  0  0  0  0
    4.6957    3.9122  -11.4019 C   0  0  0  0  0  0  0  0  0  0  0  0
    5.6385    6.2013  -13.3321 C   0  0  0  0  0  0  0  0  0  0  0  0
    6.3791    6.5222  -15.5420 C   0  0  0  0  0  0  0  0  0  0  0  0
    2.0044    3.7667   -9.8277 C   0  0  0  0  0  0  0  0  0  0  0  0
    6.6515    3.6073  -10.0482 C   0  0  0  0  0  0  0  0  0  0  0  0
    6.2712    2.1695  -11.8728 C   0  0  0  0  0  0  0  0  0  0  0  0
    1.4463    5.3587  -11.6255 C   0  0  0  0  0  0  0  0  0  0  0  0
    6.6521    6.5386  -14.1850 C   0  0  0  0  0  0  0  0  0  0  0  0
    5.1293    6.1770  -16.0068 C   0  0  0  0  0  0  0  0  0  0  0  0
    4.1234    5.8395  -15.1018 C   0  0  0  0  0  0  0  0  0  0  0  0
    5.4896    4.2950  -10.3242 C   0  0  0  0  0  0  0  0  0  0  0  0
    7.0274    2.5532  -10.8261 N   0  0  0  0  0  0  0  0  0  0  0  0
    5.1167    2.8503  -12.1496 C   0  0  0  0  0  0  0  0  0  0  0  0
  1  4  1  0
  9  1  1  6
 12  1  1  0
  2  3  1  0
  2 12  2  0
  3  4  2  0
  3  5  1  0
  4  6  1  0
  5  7  2  0
  5 15  1  0
  6 16  1  0
  6 18  2  0
  7 13  1  0
 13  8  2  0
  8 14  1  0
 16 10  2  0
 10 17  1  0
 17 11  2  0
 11 18  1  0
 14 15  2  0
M  END
$$$$
