
     RDKit          3D

 18 20  0  0  0  0  0  0  0  0999 V2000
   -4.2062    7.5496  -23.8694 N   0  0  0  0  0  0  0  0  0  0  0  0
   -3.2691    8.8974  -22.4645 N   0  0  0  0  0  0  0  0  0  0  0  0
   -3.9714    8.0142  -21.7257 C   0  0  0  0  0  0  0  0  0  0  0  0
   -4.5766    7.1448  -22.6192 C   0  0  0  0  0  0  0  0  0  0  0  0
   -4.0454    8.0195  -20.2645 C   0  0  0  0  0  0  0  0  0  0  0  0
   -5.4366    6.0239  -22.2718 C   0  0  0  0  0  0  0  0  0  0  0  0
   -2.8993    8.0374  -19.4927 C   0  0  0  0  0  0  0  0  0  0  0  0
   -4.1705    8.0297  -17.4577 C   0  0  0  0  0  0  0  0  0  0  0  0
   -4.6304    6.8980  -25.0929 C   0  0  0  0  0  0  0  0  0  0  0  0
   -5.6486    3.8675  -21.2639 C   0  0  0  0  0  0  0  0  0  0  0  0
   -7.4968    4.8823  -22.1972 C   0  0  0  0  0  0  0  0  0  0  0  0
   -3.4024    8.6267  -23.7761 C   0  0  0  0  0  0  0  0  0  0  0  0
   -2.9542    8.0425  -18.1139 C   0  0  0  0  0  0  0  0  0  0  0  0
   -5.3381    8.0116  -18.2160 C   0  0  0  0  0  0  0  0  0  0  0  0
   -5.2452    8.0070  -19.5823 C   0  0  0  0  0  0  0  0  0  0  0  0
   -4.8670    4.9594  -21.6154 C   0  0  0  0  0  0  0  0  0  0  0  0
   -6.9503    3.8376  -21.5559 N   0  0  0  0  0  0  0  0  0  0  0  0
   -6.7703    5.9846  -22.5667 C   0  0  0  0  0  0  0  0  0  0  0  0
  1  4  1  0
  1  9  1  0
 12  1  1  0
  2  3  1  0
  2 12  2  0
  3  4  2  0
  3  5  1  0
  4  6  1  0
  5  7  2  0
  5 15  1  0
  6 16  1  0
  6 18  2  0
  7 13  1  0
 13  8  2  0
  8 14  1  0
 16 10  2  0
 10 17  1  0
 17 11  2  0
 11 18  1  0
 14 15  2  0
M  END
$$$$
