
     RDKit          3D

 18 20  0  0  0  0  0  0  0  0999 V2000
   -5.3849    7.6327  -23.7029 N   0  0  0  0  0  0  0  0  0  0  0  0
   -5.1411    9.2343  -22.2732 N   0  0  0  0  0  0  0  0  0  0  0  0
   -4.8927    8.0911  -21.6019 C   0  0  0  0  0  0  0  0  0  0  0  0
   -5.0468    7.0573  -22.5119 C   0  0  0  0  0  0  0  0  0  0  0  0
   -4.5339    8.0150  -20.1856 C   0  0  0  0  0  0  0  0  0  0  0  0
   -4.8768    5.6397  -22.2319 C   0  0  0  0  0  0  0  0  0  0  0  0
   -3.5292    8.8056  -19.6612 C   0  0  0  0  0  0  0  0  0  0  0  0
   -3.8329    7.8807  -17.4682 C   0  0  0  0  0  0  0  0  0  0  0  0
   -5.6366    6.8891  -24.9216 C   0  0  0  0  0  0  0  0  0  0  0  0
   -5.8762    3.4780  -22.0349 C   0  0  0  0  0  0  0  0  0  0  0  0
   -3.6144    3.7321  -21.6656 C   0  0  0  0  0  0  0  0  0  0  0  0
   -5.4432    8.9708  -23.5579 C   0  0  0  0  0  0  0  0  0  0  0  0
   -3.1802    8.7442  -18.3276 C   0  0  0  0  0  0  0  0  0  0  0  0
   -4.8487    7.0748  -17.9754 C   0  0  0  0  0  0  0  0  0  0  0  0
   -5.1679    7.1626  -19.3043 C   0  0  0  0  0  0  0  0  0  0  0  0
   -5.9902    4.8368  -22.2945 C   0  0  0  0  0  0  0  0  0  0  0  0
   -4.6957    2.9392  -21.7242 N   0  0  0  0  0  0  0  0  0  0  0  0
   -3.6720    5.0794  -21.9129 C   0  0  0  0  0  0  0  0  0  0  0  0
  1  4  1  0
  1  9  1  0
 12  1  1  0
  2  3  1  0
  2 12  2  0
  3  4  2  0
  3  5  1  0
  4  6  1  0
  5  7  2  0
  5 15  1  0
  6 16  1  0
  6 18  2  0
  7 13  1  0
 13  8  2  0
  8 14  1  0
 16 10  2  0
 10 17  1  0
 17 11  2  0
 11 18  1  0
 14 15  2  0
M  END
$$$$
