
     RDKit          3D

 18 20  0  0  0  0  0  0  0  0999 V2000
   -3.1276    5.3285  -21.4365 N   0  0  0  0  0  0  0  0  0  0  0  0
   -4.6051    4.8654  -23.0094 N   0  0  0  0  0  0  0  0  0  0  0  0
   -5.0753    5.9386  -22.3524 C   0  0  0  0  0  0  0  0  0  0  0  0
   -4.1369    6.2106  -21.3746 C   0  0  0  0  0  0  0  0  0  0  0  0
   -6.3211    6.6846  -22.6045 C   0  0  0  0  0  0  0  0  0  0  0  0
   -4.2517    7.3032  -20.4235 C   0  0  0  0  0  0  0  0  0  0  0  0
   -7.4890    5.9909  -22.9404 C   0  0  0  0  0  0  0  0  0  0  0  0
   -8.7257    7.9858  -23.1006 C   0  0  0  0  0  0  0  0  0  0  0  0
   -1.9339    5.2218  -20.6196 C   0  0  0  0  0  0  0  0  0  0  0  0
   -3.6131    9.4873  -19.6671 C   0  0  0  0  0  0  0  0  0  0  0  0
   -5.2191    8.2662  -18.4544 C   0  0  0  0  0  0  0  0  0  0  0  0
   -3.4161    4.4932  -22.4500 C   0  0  0  0  0  0  0  0  0  0  0  0
   -8.6846    6.6050  -23.1893 C   0  0  0  0  0  0  0  0  0  0  0  0
   -7.5985    8.7064  -22.7726 C   0  0  0  0  0  0  0  0  0  0  0  0
   -6.3986    8.0398  -22.5264 C   0  0  0  0  0  0  0  0  0  0  0  0
   -3.4912    8.4592  -20.5766 C   0  0  0  0  0  0  0  0  0  0  0  0
   -4.4757    9.3777  -18.6176 N   0  0  0  0  0  0  0  0  0  0  0  0
   -5.1004    7.2434  -19.3557 C   0  0  0  0  0  0  0  0  0  0  0  0
  1  4  1  0
  9  1  1  6
 12  1  1  0
  2  3  1  0
  2 12  2  0
  3  4  2  0
  3  5  1  0
  4  6  1  0
  5  7  2  0
  5 15  1  0
  6 16  1  0
  6 18  2  0
  7 13  1  0
 13  8  2  0
  8 14  1  0
 16 10  2  0
 10 17  1  0
 17 11  2  0
 11 18  1  0
 14 15  2  0
M  END
$$$$
