
     RDKit          3D

 18 20  0  0  0  0  0  0  0  0999 V2000
   -3.6620    8.7176  -22.4313 N   0  0  0  0  0  0  0  0  0  0  0  0
   -1.7498    8.9211  -21.3481 N   0  0  0  0  0  0  0  0  0  0  0  0
   -2.6007    8.3149  -20.5036 C   0  0  0  0  0  0  0  0  0  0  0  0
   -3.7886    8.1978  -21.2007 C   0  0  0  0  0  0  0  0  0  0  0  0
   -2.3439    7.8606  -19.1254 C   0  0  0  0  0  0  0  0  0  0  0  0
   -4.9922    7.5945  -20.6541 C   0  0  0  0  0  0  0  0  0  0  0  0
   -2.8292    6.6180  -18.7028 C   0  0  0  0  0  0  0  0  0  0  0  0
   -1.9201    6.9023  -16.5517 C   0  0  0  0  0  0  0  0  0  0  0  0
   -4.6340    8.8183  -23.5030 C   0  0  0  0  0  0  0  0  0  0  0  0
   -6.6590    5.8707  -20.6794 C   0  0  0  0  0  0  0  0  0  0  0  0
   -6.7806    7.5745  -19.0597 C   0  0  0  0  0  0  0  0  0  0  0  0
   -2.3980    9.1667  -22.5248 C   0  0  0  0  0  0  0  0  0  0  0  0
   -2.6355    6.1222  -17.4438 C   0  0  0  0  0  0  0  0  0  0  0  0
   -1.4250    8.1315  -16.9276 C   0  0  0  0  0  0  0  0  0  0  0  0
   -1.6456    8.5996  -18.2226 C   0  0  0  0  0  0  0  0  0  0  0  0
   -5.5180    6.4318  -21.2107 C   0  0  0  0  0  0  0  0  0  0  0  0
   -7.2758    6.4493  -19.6106 N   0  0  0  0  0  0  0  0  0  0  0  0
   -5.6476    8.1342  -19.5849 C   0  0  0  0  0  0  0  0  0  0  0  0
  1  4  1  0
  9  1  1  6
 12  1  1  0
  2  3  1  0
  2 12  2  0
  3  4  2  0
  3  5  1  0
  4  6  1  0
  5  7  2  0
  5 15  1  0
  6 16  1  0
  6 18  2  0
  7 13  1  0
 13  8  2  0
  8 14  1  0
 16 10  2  0
 10 17  1  0
 17 11  2  0
 11 18  1  0
 14 15  2  0
M  END
$$$$
