
     RDKit          3D

 18 20  0  0  0  0  0  0  0  0999 V2000
   -3.4230    7.7283  -20.1178 N   0  0  0  0  0  0  0  0  0  0  0  0
   -4.7351    9.3393  -20.8623 N   0  0  0  0  0  0  0  0  0  0  0  0
   -5.1025    8.2217  -21.5108 C   0  0  0  0  0  0  0  0  0  0  0  0
   -4.2701    7.2282  -21.0305 C   0  0  0  0  0  0  0  0  0  0  0  0
   -6.1645    8.0644  -22.5204 C   0  0  0  0  0  0  0  0  0  0  0  0
   -4.3235    5.8442  -21.4702 C   0  0  0  0  0  0  0  0  0  0  0  0
   -7.0499    6.9842  -22.4333 C   0  0  0  0  0  0  0  0  0  0  0  0
   -8.2038    7.6681  -24.3660 C   0  0  0  0  0  0  0  0  0  0  0  0
   -2.3812    7.0675  -19.3551 C   0  0  0  0  0  0  0  0  0  0  0  0
   -3.6957    4.1190  -23.0128 C   0  0  0  0  0  0  0  0  0  0  0  0
   -5.0947    3.5926  -21.1944 C   0  0  0  0  0  0  0  0  0  0  0  0
   -3.7098    9.0377  -20.0120 C   0  0  0  0  0  0  0  0  0  0  0  0
   -8.0612    6.7653  -23.3265 C   0  0  0  0  0  0  0  0  0  0  0  0
   -7.3534    8.7449  -24.4880 C   0  0  0  0  0  0  0  0  0  0  0  0
   -6.3344    8.9310  -23.5542 C   0  0  0  0  0  0  0  0  0  0  0  0
   -3.6367    5.4356  -22.6101 C   0  0  0  0  0  0  0  0  0  0  0  0
   -4.4241    3.2142  -22.2997 N   0  0  0  0  0  0  0  0  0  0  0  0
   -5.0382    4.8993  -20.7917 C   0  0  0  0  0  0  0  0  0  0  0  0
  1  4  1  0
  9  1  1  6
 12  1  1  0
  2  3  1  0
  2 12  2  0
  3  4  2  0
  3  5  1  0
  4  6  1  0
  5  7  2  0
  5 15  1  0
  6 16  1  0
  6 18  2  0
  7 13  1  0
 13  8  2  0
  8 14  1  0
 16 10  2  0
 10 17  1  0
 17 11  2  0
 11 18  1  0
 14 15  2  0
M  END
$$$$
