
     RDKit          3D

 18 20  0  0  0  0  0  0  0  0999 V2000
    6.0801    8.2657   -8.9375 N   0  0  0  0  0  0  0  0  0  0  0  0
    4.5097    8.9018   -7.5230 N   0  0  0  0  0  0  0  0  0  0  0  0
    3.8990    8.1499   -8.4536 C   0  0  0  0  0  0  0  0  0  0  0  0
    4.8983    7.7632   -9.3268 C   0  0  0  0  0  0  0  0  0  0  0  0
    2.4709    7.7971   -8.5431 C   0  0  0  0  0  0  0  0  0  0  0  0
    4.6742    6.9307  -10.4965 C   0  0  0  0  0  0  0  0  0  0  0  0
    1.4990    8.7861   -8.3549 C   0  0  0  0  0  0  0  0  0  0  0  0
   -0.2492    7.2475   -8.6889 C   0  0  0  0  0  0  0  0  0  0  0  0
    7.3928    8.1281   -9.5385 C   0  0  0  0  0  0  0  0  0  0  0  0
    4.0676    6.6943  -12.8045 C   0  0  0  0  0  0  0  0  0  0  0  0
    4.6404    4.7823  -11.5566 C   0  0  0  0  0  0  0  0  0  0  0  0
    5.8412    8.9724   -7.8186 C   0  0  0  0  0  0  0  0  0  0  0  0
    0.1553    8.5440   -8.4211 C   0  0  0  0  0  0  0  0  0  0  0  0
    0.6754    6.2446   -8.8806 C   0  0  0  0  0  0  0  0  0  0  0  0
    2.0372    6.5352   -8.8043 C   0  0  0  0  0  0  0  0  0  0  0  0
    4.2740    7.4972  -11.7037 C   0  0  0  0  0  0  0  0  0  0  0  0
    4.2535    5.3469  -12.7168 N   0  0  0  0  0  0  0  0  0  0  0  0
    4.8463    5.5768  -10.4616 C   0  0  0  0  0  0  0  0  0  0  0  0
  1  4  1  0
  9  1  1  6
 12  1  1  0
  2  3  1  0
  2 12  2  0
  3  4  2  0
  3  5  1  0
  4  6  1  0
  5  7  2  0
  5 15  1  0
  6 16  1  0
  6 18  2  0
  7 13  1  0
 13  8  2  0
  8 14  1  0
 16 10  2  0
 10 17  1  0
 17 11  2  0
 11 18  1  0
 14 15  2  0
M  END
$$$$
