
     RDKit          3D

 18 20  0  0  0  0  0  0  0  0999 V2000
    2.3820    7.1943   -9.2106 N   0  0  0  0  0  0  0  0  0  0  0  0
    3.4832    8.5732   -7.9638 N   0  0  0  0  0  0  0  0  0  0  0  0
    4.3483    8.1473   -8.9070 C   0  0  0  0  0  0  0  0  0  0  0  0
    3.6501    7.2615   -9.7122 C   0  0  0  0  0  0  0  0  0  0  0  0
    5.7445    8.5715   -9.0127 C   0  0  0  0  0  0  0  0  0  0  0  0
    4.1837    6.5510  -10.8643 C   0  0  0  0  0  0  0  0  0  0  0  0
    6.5051    8.8081   -7.8836 C   0  0  0  0  0  0  0  0  0  0  0  0
    8.4268    9.3867   -9.1988 C   0  0  0  0  0  0  0  0  0  0  0  0
    1.3293    6.3709   -9.7720 C   0  0  0  0  0  0  0  0  0  0  0  0
    4.2427    6.2955  -13.2396 C   0  0  0  0  0  0  0  0  0  0  0  0
    5.5210    4.9147  -11.9069 C   0  0  0  0  0  0  0  0  0  0  0  0
    2.2778    8.0000   -8.1359 C   0  0  0  0  0  0  0  0  0  0  0  0
    7.8229    9.2086   -7.9684 C   0  0  0  0  0  0  0  0  0  0  0  0
    7.6787    9.1537  -10.3497 C   0  0  0  0  0  0  0  0  0  0  0  0
    6.3736    8.7573  -10.2271 C   0  0  0  0  0  0  0  0  0  0  0  0
    3.7607    6.9444  -12.1112 C   0  0  0  0  0  0  0  0  0  0  0  0
    5.1143    5.2912  -13.1293 N   0  0  0  0  0  0  0  0  0  0  0  0
    5.0763    5.5217  -10.7609 C   0  0  0  0  0  0  0  0  0  0  0  0
  1  4  1  0
  1  9  1  0
 12  1  1  0
  2  3  1  0
  2 12  2  0
  3  4  2  0
  3  5  1  0
  4  6  1  0
  5  7  2  0
  5 15  1  0
  6 16  1  0
  6 18  2  0
  7 13  1  0
 13  8  2  0
  8 14  1  0
 16 10  2  0
 10 17  1  0
 17 11  2  0
 11 18  1  0
 14 15  2  0
M  END
$$$$
