
     RDKit          3D

 18 20  0  0  0  0  0  0  0  0999 V2000
   -4.4962    8.7921  -22.7693 N   0  0  0  0  0  0  0  0  0  0  0  0
   -2.7809    9.5814  -21.7188 N   0  0  0  0  0  0  0  0  0  0  0  0
   -3.3559    8.6921  -20.8835 C   0  0  0  0  0  0  0  0  0  0  0  0
   -4.4581    8.1801  -21.5495 C   0  0  0  0  0  0  0  0  0  0  0  0
   -2.8678    8.3688  -19.5427 C   0  0  0  0  0  0  0  0  0  0  0  0
   -5.3831    7.1838  -21.0313 C   0  0  0  0  0  0  0  0  0  0  0  0
   -2.4442    9.3614  -18.6797 C   0  0  0  0  0  0  0  0  0  0  0  0
   -1.9278    7.7645  -16.9649 C   0  0  0  0  0  0  0  0  0  0  0  0
   -5.5055    8.5326  -23.7770 C   0  0  0  0  0  0  0  0  0  0  0  0
   -6.2970    4.9824  -21.2030 C   0  0  0  0  0  0  0  0  0  0  0  0
   -7.0363    6.4033  -19.5444 C   0  0  0  0  0  0  0  0  0  0  0  0
   -3.4659    9.6538  -22.8750 C   0  0  0  0  0  0  0  0  0  0  0  0
   -1.9815    9.0710  -17.4125 C   0  0  0  0  0  0  0  0  0  0  0  0
   -2.3498    6.7485  -17.8181 C   0  0  0  0  0  0  0  0  0  0  0  0
   -2.8029    7.0740  -19.0688 C   0  0  0  0  0  0  0  0  0  0  0  0
   -5.4295    5.9639  -21.6622 C   0  0  0  0  0  0  0  0  0  0  0  0
   -7.0893    5.2085  -20.1535 N   0  0  0  0  0  0  0  0  0  0  0  0
   -6.1981    7.4065  -19.9574 C   0  0  0  0  0  0  0  0  0  0  0  0
  1  4  1  0
  1  9  1  0
 12  1  1  0
  2  3  1  0
  2 12  2  0
  3  4  2  0
  3  5  1  0
  4  6  1  0
  5  7  2  0
  5 15  1  0
  6 16  1  0
  6 18  2  0
  7 13  1  0
 13  8  2  0
  8 14  1  0
 16 10  2  0
 10 17  1  0
 17 11  2  0
 11 18  1  0
 14 15  2  0
M  END
$$$$
