
     RDKit          3D

 18 20  0  0  0  0  0  0  0  0999 V2000
  -10.7621   11.7256  -26.2878 N   0  0  0  0  0  0  0  0  0  0  0  0
  -12.6487   12.6854  -25.8542 N   0  0  0  0  0  0  0  0  0  0  0  0
  -12.8534   11.3628  -25.6864 C   0  0  0  0  0  0  0  0  0  0  0  0
  -11.6474   10.7384  -25.9626 C   0  0  0  0  0  0  0  0  0  0  0  0
  -14.1247   10.7580  -25.2884 C   0  0  0  0  0  0  0  0  0  0  0  0
  -11.3947    9.3066  -25.9105 C   0  0  0  0  0  0  0  0  0  0  0  0
  -15.3020   11.0830  -25.9348 C   0  0  0  0  0  0  0  0  0  0  0  0
  -16.5742    9.6056  -24.5362 C   0  0  0  0  0  0  0  0  0  0  0  0
   -9.3775   11.4890  -26.6458 C   0  0  0  0  0  0  0  0  0  0  0  0
  -10.2295    7.4896  -24.8849 C   0  0  0  0  0  0  0  0  0  0  0  0
  -11.6943    7.0787  -26.6175 C   0  0  0  0  0  0  0  0  0  0  0  0
  -11.3761   12.9230  -26.2216 C   0  0  0  0  0  0  0  0  0  0  0  0
  -16.5082   10.5205  -25.5701 C   0  0  0  0  0  0  0  0  0  0  0  0
  -15.3998    9.2636  -23.8711 C   0  0  0  0  0  0  0  0  0  0  0  0
  -14.2211    9.8420  -24.2604 C   0  0  0  0  0  0  0  0  0  0  0  0
  -10.5023    8.8478  -24.9715 C   0  0  0  0  0  0  0  0  0  0  0  0
  -10.8244    6.6204  -25.7040 N   0  0  0  0  0  0  0  0  0  0  0  0
  -11.9991    8.4092  -26.7451 C   0  0  0  0  0  0  0  0  0  0  0  0
  1  4  1  0
  1  9  1  0
 12  1  1  0
  2  3  1  0
  2 12  2  0
  3  4  2  0
  3  5  1  0
  4  6  1  0
  5  7  2  0
  5 15  1  0
  6 16  1  0
  6 18  2  0
  7 13  1  0
 13  8  2  0
  8 14  1  0
 16 10  2  0
 10 17  1  0
 17 11  2  0
 11 18  1  0
 14 15  2  0
M  END
$$$$
