
     RDKit          3D

 18 20  0  0  0  0  0  0  0  0999 V2000
   -5.1764    8.1676  -24.0448 N   0  0  0  0  0  0  0  0  0  0  0  0
   -5.6900    9.2961  -22.2752 N   0  0  0  0  0  0  0  0  0  0  0  0
   -4.9168    8.2733  -21.8566 C   0  0  0  0  0  0  0  0  0  0  0  0
   -4.5821    7.5433  -22.9860 C   0  0  0  0  0  0  0  0  0  0  0  0
   -4.5358    8.0290  -20.4653 C   0  0  0  0  0  0  0  0  0  0  0  0
   -3.7562    6.3459  -23.0161 C   0  0  0  0  0  0  0  0  0  0  0  0
   -4.6934    6.7818  -19.8916 C   0  0  0  0  0  0  0  0  0  0  0  0
   -3.8093    7.5435  -17.7951 C   0  0  0  0  0  0  0  0  0  0  0  0
   -5.0714    7.7149  -25.4179 C   0  0  0  0  0  0  0  0  0  0  0  0
   -3.6324    3.9746  -23.2848 C   0  0  0  0  0  0  0  0  0  0  0  0
   -1.7119    5.1823  -22.8728 C   0  0  0  0  0  0  0  0  0  0  0  0
   -5.8578    9.2453  -23.6095 C   0  0  0  0  0  0  0  0  0  0  0  0
   -4.3385    6.5371  -18.5807 C   0  0  0  0  0  0  0  0  0  0  0  0
   -3.6418    8.8080  -18.3531 C   0  0  0  0  0  0  0  0  0  0  0  0
   -4.0052    9.0141  -19.6573 C   0  0  0  0  0  0  0  0  0  0  0  0
   -4.3799    5.1435  -23.2476 C   0  0  0  0  0  0  0  0  0  0  0  0
   -2.3115    4.0029  -23.0982 N   0  0  0  0  0  0  0  0  0  0  0  0
   -2.4031    6.3654  -22.8260 C   0  0  0  0  0  0  0  0  0  0  0  0
  1  4  1  0
  1  9  1  0
 12  1  1  0
  2  3  1  0
  2 12  2  0
  3  4  2  0
  3  5  1  0
  4  6  1  0
  5  7  2  0
  5 15  1  0
  6 16  1  0
  6 18  2  0
  7 13  1  0
 13  8  2  0
  8 14  1  0
 16 10  2  0
 10 17  1  0
 17 11  2  0
 11 18  1  0
 14 15  2  0
M  END
$$$$
