
     RDKit          3D

 18 20  0  0  0  0  0  0  0  0999 V2000
   -2.0679    7.7408  -22.3971 N   0  0  0  0  0  0  0  0  0  0  0  0
   -2.2767    8.9128  -20.5385 N   0  0  0  0  0  0  0  0  0  0  0  0
   -3.3064    8.0505  -20.5600 C   0  0  0  0  0  0  0  0  0  0  0  0
   -3.1563    7.3285  -21.7291 C   0  0  0  0  0  0  0  0  0  0  0  0
   -4.3774    7.8890  -19.5605 C   0  0  0  0  0  0  0  0  0  0  0  0
   -4.0649    6.2771  -22.1539 C   0  0  0  0  0  0  0  0  0  0  0  0
   -4.7381    6.6069  -19.1313 C   0  0  0  0  0  0  0  0  0  0  0  0
   -6.3805    7.4649  -17.6818 C   0  0  0  0  0  0  0  0  0  0  0  0
   -1.5211    7.2802  -23.6589 C   0  0  0  0  0  0  0  0  0  0  0  0
   -6.1947    5.5775  -23.0053 C   0  0  0  0  0  0  0  0  0  0  0  0
   -4.5504    3.9613  -22.5308 C   0  0  0  0  0  0  0  0  0  0  0  0
   -1.5208    8.7235  -21.6602 C   0  0  0  0  0  0  0  0  0  0  0  0
   -5.7188    6.3694  -18.2091 C   0  0  0  0  0  0  0  0  0  0  0  0
   -6.0559    8.7438  -18.0774 C   0  0  0  0  0  0  0  0  0  0  0  0
   -5.0485    8.9414  -19.0212 C   0  0  0  0  0  0  0  0  0  0  0  0
   -5.3457    6.5860  -22.6040 C   0  0  0  0  0  0  0  0  0  0  0  0
   -5.7861    4.2779  -22.9637 N   0  0  0  0  0  0  0  0  0  0  0  0
   -3.7047    4.9604  -22.1316 C   0  0  0  0  0  0  0  0  0  0  0  0
  1  4  1  0
  9  1  1  6
 12  1  1  0
  2  3  1  0
  2 12  2  0
  3  4  2  0
  3  5  1  0
  4  6  1  0
  5  7  2  0
  5 15  1  0
  6 16  1  0
  6 18  2  0
  7 13  1  0
 13  8  2  0
  8 14  1  0
 16 10  2  0
 10 17  1  0
 17 11  2  0
 11 18  1  0
 14 15  2  0
M  END
$$$$
