
     RDKit          3D

 18 20  0  0  0  0  0  0  0  0999 V2000
   -3.8269    7.7314  -23.9607 N   0  0  0  0  0  0  0  0  0  0  0  0
   -3.8102    9.3145  -22.4228 N   0  0  0  0  0  0  0  0  0  0  0  0
   -4.1080    8.1703  -21.7852 C   0  0  0  0  0  0  0  0  0  0  0  0
   -4.1130    7.1948  -22.7645 C   0  0  0  0  0  0  0  0  0  0  0  0
   -4.3737    7.9730  -20.3490 C   0  0  0  0  0  0  0  0  0  0  0  0
   -4.3942    5.7923  -22.5090 C   0  0  0  0  0  0  0  0  0  0  0  0
   -5.5644    7.3612  -19.9416 C   0  0  0  0  0  0  0  0  0  0  0  0
   -4.9801    7.5494  -17.6705 C   0  0  0  0  0  0  0  0  0  0  0  0
   -3.7225    7.1003  -25.2623 C   0  0  0  0  0  0  0  0  0  0  0  0
   -3.7455    3.6624  -21.6184 C   0  0  0  0  0  0  0  0  0  0  0  0
   -5.8459    3.8918  -22.6561 C   0  0  0  0  0  0  0  0  0  0  0  0
   -3.6386    9.0462  -23.7509 C   0  0  0  0  0  0  0  0  0  0  0  0
   -5.8881    7.1404  -18.6320 C   0  0  0  0  0  0  0  0  0  0  0  0
   -3.7964    8.1555  -18.0293 C   0  0  0  0  0  0  0  0  0  0  0  0
   -3.5055    8.3616  -19.3775 C   0  0  0  0  0  0  0  0  0  0  0  0
   -3.4629    4.9903  -21.8550 C   0  0  0  0  0  0  0  0  0  0  0  0
   -4.9335    3.1301  -22.0219 N   0  0  0  0  0  0  0  0  0  0  0  0
   -5.5684    5.2108  -22.8926 C   0  0  0  0  0  0  0  0  0  0  0  0
  1  4  1  0
  9  1  1  6
 12  1  1  0
  2  3  1  0
  2 12  2  0
  3  4  2  0
  3  5  1  0
  4  6  1  0
  5  7  2  0
  5 15  1  0
  6 16  1  0
  6 18  2  0
  7 13  1  0
 13  8  2  0
  8 14  1  0
 16 10  2  0
 10 17  1  0
 17 11  2  0
 11 18  1  0
 14 15  2  0
M  END
$$$$
