
     RDKit          3D

 18 20  0  0  0  0  0  0  0  0999 V2000
   -3.3856    9.5976  -21.9376 N   0  0  0  0  0  0  0  0  0  0  0  0
   -4.9226    9.1760  -23.3966 N   0  0  0  0  0  0  0  0  0  0  0  0
   -5.1255    8.3149  -22.3785 C   0  0  0  0  0  0  0  0  0  0  0  0
   -4.1433    8.5782  -21.4369 C   0  0  0  0  0  0  0  0  0  0  0  0
   -6.1927    7.3154  -22.3297 C   0  0  0  0  0  0  0  0  0  0  0  0
   -3.9704    7.8898  -20.1668 C   0  0  0  0  0  0  0  0  0  0  0  0
   -6.4651    6.5096  -23.4188 C   0  0  0  0  0  0  0  0  0  0  0  0
   -8.2388    5.3914  -22.2521 C   0  0  0  0  0  0  0  0  0  0  0  0
   -2.2457   10.1744  -21.2526 C   0  0  0  0  0  0  0  0  0  0  0  0
   -3.4523    5.8614  -19.0143 C   0  0  0  0  0  0  0  0  0  0  0  0
   -3.9471    7.7667  -17.8136 C   0  0  0  0  0  0  0  0  0  0  0  0
   -3.8634    9.9662  -23.1421 C   0  0  0  0  0  0  0  0  0  0  0  0
   -7.4686    5.5630  -23.3869 C   0  0  0  0  0  0  0  0  0  0  0  0
   -7.9814    6.1927  -21.1430 C   0  0  0  0  0  0  0  0  0  0  0  0
   -6.9775    7.1218  -21.2109 C   0  0  0  0  0  0  0  0  0  0  0  0
   -3.6278    6.5594  -20.2012 C   0  0  0  0  0  0  0  0  0  0  0  0
   -3.6124    6.4672  -17.8363 N   0  0  0  0  0  0  0  0  0  0  0  0
   -4.1323    8.5019  -18.9559 C   0  0  0  0  0  0  0  0  0  0  0  0
  1  4  1  0
  1  9  1  0
 12  1  1  0
  2  3  1  0
  2 12  2  0
  3  4  2  0
  3  5  1  0
  4  6  1  0
  5  7  2  0
  5 15  1  0
  6 16  1  0
  6 18  2  0
  7 13  1  0
 13  8  2  0
  8 14  1  0
 16 10  2  0
 10 17  1  0
 17 11  2  0
 11 18  1  0
 14 15  2  0
M  END
$$$$
