
     RDKit          3D

 18 20  0  0  0  0  0  0  0  0999 V2000
   -5.2790    7.4216  -24.1528 N   0  0  0  0  0  0  0  0  0  0  0  0
   -5.1681    9.1033  -22.7277 N   0  0  0  0  0  0  0  0  0  0  0  0
   -4.9260    7.9889  -22.0178 C   0  0  0  0  0  0  0  0  0  0  0  0
   -5.0002    6.9509  -22.9275 C   0  0  0  0  0  0  0  0  0  0  0  0
   -4.6379    7.8739  -20.5770 C   0  0  0  0  0  0  0  0  0  0  0  0
   -4.8022    5.5539  -22.5800 C   0  0  0  0  0  0  0  0  0  0  0  0
   -5.2849    6.8938  -19.8163 C   0  0  0  0  0  0  0  0  0  0  0  0
   -4.1727    7.5650  -17.8549 C   0  0  0  0  0  0  0  0  0  0  0  0
   -5.4514    6.7110  -25.4053 C   0  0  0  0  0  0  0  0  0  0  0  0
   -5.6756    3.3515  -22.2099 C   0  0  0  0  0  0  0  0  0  0  0  0
   -3.3674    3.7385  -21.9582 C   0  0  0  0  0  0  0  0  0  0  0  0
   -5.3836    8.7567  -24.0310 C   0  0  0  0  0  0  0  0  0  0  0  0
   -5.0752    6.7196  -18.4768 C   0  0  0  0  0  0  0  0  0  0  0  0
   -3.5146    8.5430  -18.5675 C   0  0  0  0  0  0  0  0  0  0  0  0
   -3.7581    8.6864  -19.9331 C   0  0  0  0  0  0  0  0  0  0  0  0
   -5.8802    4.6739  -22.5392 C   0  0  0  0  0  0  0  0  0  0  0  0
   -4.4216    2.9007  -21.9236 N   0  0  0  0  0  0  0  0  0  0  0  0
   -3.5671    5.0523  -22.2849 C   0  0  0  0  0  0  0  0  0  0  0  0
  1  4  1  0
  9  1  1  6
 12  1  1  0
  2  3  1  0
  2 12  2  0
  3  4  2  0
  3  5  1  0
  4  6  1  0
  5  7  2  0
  5 15  1  0
  6 16  1  0
  6 18  2  0
  7 13  1  0
 13  8  2  0
  8 14  1  0
 16 10  2  0
 10 17  1  0
 17 11  2  0
 11 18  1  0
 14 15  2  0
M  END
$$$$
