
     RDKit          3D

 18 20  0  0  0  0  0  0  0  0999 V2000
    6.4905    7.2025   -8.9001 N   0  0  0  0  0  0  0  0  0  0  0  0
    5.0387    6.9267   -7.3237 N   0  0  0  0  0  0  0  0  0  0  0  0
    4.4172    6.5834   -8.4704 C   0  0  0  0  0  0  0  0  0  0  0  0
    5.3416    6.7572   -9.4881 C   0  0  0  0  0  0  0  0  0  0  0  0
    3.0317    6.1228   -8.5642 C   0  0  0  0  0  0  0  0  0  0  0  0
    5.1121    6.5079  -10.9030 C   0  0  0  0  0  0  0  0  0  0  0  0
    2.5439    5.1519   -7.7104 C   0  0  0  0  0  0  0  0  0  0  0  0
    0.3738    5.2273   -8.7315 C   0  0  0  0  0  0  0  0  0  0  0  0
    7.7082    7.5078   -9.6249 C   0  0  0  0  0  0  0  0  0  0  0  0
    5.0173    4.9287  -12.6940 C   0  0  0  0  0  0  0  0  0  0  0  0
    4.5945    7.1572  -13.1084 C   0  0  0  0  0  0  0  0  0  0  0  0
    6.3060    7.3072   -7.5696 C   0  0  0  0  0  0  0  0  0  0  0  0
    1.2396    4.7079   -7.7876 C   0  0  0  0  0  0  0  0  0  0  0  0
    0.8445    6.2067   -9.6020 C   0  0  0  0  0  0  0  0  0  0  0  0
    2.1449    6.6230   -9.4962 C   0  0  0  0  0  0  0  0  0  0  0  0
    5.2271    5.2143  -11.3520 C   0  0  0  0  0  0  0  0  0  0  0  0
    4.7043    5.8970  -13.5570 N   0  0  0  0  0  0  0  0  0  0  0  0
    4.7913    7.4931  -11.7939 C   0  0  0  0  0  0  0  0  0  0  0  0
  1  4  1  0
  1  9  1  0
 12  1  1  0
  2  3  1  0
  2 12  2  0
  3  4  2  0
  3  5  1  0
  4  6  1  0
  5  7  2  0
  5 15  1  0
  6 16  1  0
  6 18  2  0
  7 13  1  0
 13  8  2  0
  8 14  1  0
 16 10  2  0
 10 17  1  0
 17 11  2  0
 11 18  1  0
 14 15  2  0
M  END
$$$$
