
     RDKit          3D

 18 20  0  0  0  0  0  0  0  0999 V2000
   -4.1462    9.1099  -22.7956 N   0  0  0  0  0  0  0  0  0  0  0  0
   -6.2095    8.7312  -22.2780 N   0  0  0  0  0  0  0  0  0  0  0  0
   -5.4765    8.3189  -21.2235 C   0  0  0  0  0  0  0  0  0  0  0  0
   -4.1503    8.5582  -21.5468 C   0  0  0  0  0  0  0  0  0  0  0  0
   -6.0274    7.7379  -19.9990 C   0  0  0  0  0  0  0  0  0  0  0  0
   -2.9997    8.2698  -20.7042 C   0  0  0  0  0  0  0  0  0  0  0  0
   -5.4259    6.6520  -19.3920 C   0  0  0  0  0  0  0  0  0  0  0  0
   -7.0728    6.6104  -17.6475 C   0  0  0  0  0  0  0  0  0  0  0  0
   -2.9456    9.5096  -23.5029 C   0  0  0  0  0  0  0  0  0  0  0  0
   -1.8179    8.6959  -18.6714 C   0  0  0  0  0  0  0  0  0  0  0  0
   -0.9808    7.1710  -20.1848 C   0  0  0  0  0  0  0  0  0  0  0  0
   -5.4112    9.2170  -23.2464 C   0  0  0  0  0  0  0  0  0  0  0  0
   -5.9345    6.0937  -18.2370 C   0  0  0  0  0  0  0  0  0  0  0  0
   -7.6950    7.7046  -18.2425 C   0  0  0  0  0  0  0  0  0  0  0  0
   -7.1620    8.2324  -19.3882 C   0  0  0  0  0  0  0  0  0  0  0  0
   -2.8986    8.9385  -19.5080 C   0  0  0  0  0  0  0  0  0  0  0  0
   -0.8726    7.8188  -19.0144 N   0  0  0  0  0  0  0  0  0  0  0  0
   -2.0271    7.3734  -21.0473 C   0  0  0  0  0  0  0  0  0  0  0  0
  1  4  1  0
  1  9  1  0
 12  1  1  0
  2  3  1  0
  2 12  2  0
  3  4  2  0
  3  5  1  0
  4  6  1  0
  5  7  2  0
  5 15  1  0
  6 16  1  0
  6 18  2  0
  7 13  1  0
 13  8  2  0
  8 14  1  0
 16 10  2  0
 10 17  1  0
 17 11  2  0
 11 18  1  0
 14 15  2  0
M  END
$$$$
