
     RDKit          3D

 18 20  0  0  0  0  0  0  0  0999 V2000
   -3.9945    7.7102  -23.7592 N   0  0  0  0  0  0  0  0  0  0  0  0
   -3.6406    9.2829  -22.2516 N   0  0  0  0  0  0  0  0  0  0  0  0
   -3.8906    8.1533  -21.5689 C   0  0  0  0  0  0  0  0  0  0  0  0
   -4.1087    7.1842  -22.5300 C   0  0  0  0  0  0  0  0  0  0  0  0
   -3.9271    7.9638  -20.1078 C   0  0  0  0  0  0  0  0  0  0  0  0
   -4.4189    5.7975  -22.2259 C   0  0  0  0  0  0  0  0  0  0  0  0
   -5.0430    7.3638  -19.5138 C   0  0  0  0  0  0  0  0  0  0  0  0
   -4.1050    7.5557  -17.3649 C   0  0  0  0  0  0  0  0  0  0  0  0
   -4.1393    7.0805  -25.0576 C   0  0  0  0  0  0  0  0  0  0  0  0
   -5.9971    3.9993  -22.0636 C   0  0  0  0  0  0  0  0  0  0  0  0
   -3.7395    3.6103  -21.5224 C   0  0  0  0  0  0  0  0  0  0  0  0
   -3.7041    9.0120  -23.5887 C   0  0  0  0  0  0  0  0  0  0  0  0
   -5.1569    7.1509  -18.1684 C   0  0  0  0  0  0  0  0  0  0  0  0
   -2.9882    8.1503  -17.9097 C   0  0  0  0  0  0  0  0  0  0  0  0
   -2.9129    8.3487  -19.2880 C   0  0  0  0  0  0  0  0  0  0  0  0
   -5.7195    5.3176  -22.3538 C   0  0  0  0  0  0  0  0  0  0  0  0
   -5.0034    3.1624  -21.6516 N   0  0  0  0  0  0  0  0  0  0  0  0
   -3.4605    4.9188  -21.8098 C   0  0  0  0  0  0  0  0  0  0  0  0
  1  4  1  0
  9  1  1  6
 12  1  1  0
  2  3  1  0
  2 12  2  0
  3  4  2  0
  3  5  1  0
  4  6  1  0
  5  7  2  0
  5 15  1  0
  6 16  1  0
  6 18  2  0
  7 13  1  0
 13  8  2  0
  8 14  1  0
 16 10  2  0
 10 17  1  0
 17 11  2  0
 11 18  1  0
 14 15  2  0
M  END
$$$$
