
     RDKit          3D

 18 20  0  0  0  0  0  0  0  0999 V2000
   -4.0011    9.0061  -22.6516 N   0  0  0  0  0  0  0  0  0  0  0  0
   -5.5059    7.8611  -23.7900 N   0  0  0  0  0  0  0  0  0  0  0  0
   -5.4094    7.2691  -22.5880 C   0  0  0  0  0  0  0  0  0  0  0  0
   -4.4643    8.0005  -21.8934 C   0  0  0  0  0  0  0  0  0  0  0  0
   -6.1458    6.0924  -22.0929 C   0  0  0  0  0  0  0  0  0  0  0  0
   -4.0465    7.7004  -20.5344 C   0  0  0  0  0  0  0  0  0  0  0  0
   -7.5305    6.0122  -22.2781 C   0  0  0  0  0  0  0  0  0  0  0  0
   -7.6361    3.9228  -21.2020 C   0  0  0  0  0  0  0  0  0  0  0  0
   -3.0101   10.0204  -22.3472 C   0  0  0  0  0  0  0  0  0  0  0  0
   -2.3721    6.9777  -18.9774 C   0  0  0  0  0  0  0  0  0  0  0  0
   -4.5106    7.5646  -18.1877 C   0  0  0  0  0  0  0  0  0  0  0  0
   -4.6460    8.9215  -23.8285 C   0  0  0  0  0  0  0  0  0  0  0  0
   -8.2878    4.9576  -21.8505 C   0  0  0  0  0  0  0  0  0  0  0  0
   -6.2741    3.9627  -20.9994 C   0  0  0  0  0  0  0  0  0  0  0  0
   -5.5391    5.0580  -21.4520 C   0  0  0  0  0  0  0  0  0  0  0  0
   -2.7535    7.2560  -20.2720 C   0  0  0  0  0  0  0  0  0  0  0  0
   -3.2557    7.1356  -17.9517 N   0  0  0  0  0  0  0  0  0  0  0  0
   -4.8925    7.8419  -19.4722 C   0  0  0  0  0  0  0  0  0  0  0  0
  1  4  1  0
  9  1  1  6
 12  1  1  0
  2  3  1  0
  2 12  2  0
  3  4  2  0
  3  5  1  0
  4  6  1  0
  5  7  2  0
  5 15  1  0
  6 16  1  0
  6 18  2  0
  7 13  1  0
 13  8  2  0
  8 14  1  0
 16 10  2  0
 10 17  1  0
 17 11  2  0
 11 18  1  0
 14 15  2  0
M  END
$$$$
