
     RDKit          3D

 18 20  0  0  0  0  0  0  0  0999 V2000
   -4.6703    8.0009  -23.8636 N   0  0  0  0  0  0  0  0  0  0  0  0
   -3.8857    9.3915  -22.3397 N   0  0  0  0  0  0  0  0  0  0  0  0
   -4.2972    8.2975  -21.6778 C   0  0  0  0  0  0  0  0  0  0  0  0
   -4.7834    7.4422  -22.6488 C   0  0  0  0  0  0  0  0  0  0  0  0
   -4.2481    8.0408  -20.2274 C   0  0  0  0  0  0  0  0  0  0  0  0
   -5.3365    6.1283  -22.3673 C   0  0  0  0  0  0  0  0  0  0  0  0
   -3.0527    8.2400  -19.5278 C   0  0  0  0  0  0  0  0  0  0  0  0
   -4.0391    7.5893  -17.4935 C   0  0  0  0  0  0  0  0  0  0  0  0
   -5.0456    7.4819  -25.1648 C   0  0  0  0  0  0  0  0  0  0  0  0
   -5.0481    3.8384  -21.7166 C   0  0  0  0  0  0  0  0  0  0  0  0
   -7.2074    4.6407  -22.2013 C   0  0  0  0  0  0  0  0  0  0  0  0
   -4.1136    9.2102  -23.6740 C   0  0  0  0  0  0  0  0  0  0  0  0
   -2.9217    8.0260  -18.1841 C   0  0  0  0  0  0  0  0  0  0  0  0
   -5.2350    7.3809  -18.1445 C   0  0  0  0  0  0  0  0  0  0  0  0
   -5.3250    7.6116  -19.5169 C   0  0  0  0  0  0  0  0  0  0  0  0
   -4.5078    5.0780  -21.9820 C   0  0  0  0  0  0  0  0  0  0  0  0
   -6.3911    3.6356  -21.8296 N   0  0  0  0  0  0  0  0  0  0  0  0
   -6.6740    5.8730  -22.4655 C   0  0  0  0  0  0  0  0  0  0  0  0
  1  4  1  0
  9  1  1  6
 12  1  1  0
  2  3  1  0
  2 12  2  0
  3  4  2  0
  3  5  1  0
  4  6  1  0
  5  7  2  0
  5 15  1  0
  6 16  1  0
  6 18  2  0
  7 13  1  0
 13  8  2  0
  8 14  1  0
 16 10  2  0
 10 17  1  0
 17 11  2  0
 11 18  1  0
 14 15  2  0
M  END
$$$$
