
     RDKit          3D

 18 20  0  0  0  0  0  0  0  0999 V2000
   -4.1764    8.7975  -23.1399 N   0  0  0  0  0  0  0  0  0  0  0  0
   -6.2313    8.5404  -22.3767 N   0  0  0  0  0  0  0  0  0  0  0  0
   -5.4090    8.2549  -21.3536 C   0  0  0  0  0  0  0  0  0  0  0  0
   -4.1308    8.4220  -21.8524 C   0  0  0  0  0  0  0  0  0  0  0  0
   -5.7700    7.8506  -19.9831 C   0  0  0  0  0  0  0  0  0  0  0  0
   -2.9231    8.2119  -21.0721 C   0  0  0  0  0  0  0  0  0  0  0  0
   -5.1891    6.7084  -19.4211 C   0  0  0  0  0  0  0  0  0  0  0  0
   -6.3752    6.9945  -17.4096 C   0  0  0  0  0  0  0  0  0  0  0  0
   -3.0960    9.0842  -24.0640 C   0  0  0  0  0  0  0  0  0  0  0  0
   -0.9722    6.9174  -20.5539 C   0  0  0  0  0  0  0  0  0  0  0  0
   -1.3983    8.8986  -19.3562 C   0  0  0  0  0  0  0  0  0  0  0  0
   -5.4786    8.8716  -23.4670 C   0  0  0  0  0  0  0  0  0  0  0  0
   -5.4682    6.2648  -18.1586 C   0  0  0  0  0  0  0  0  0  0  0  0
   -6.9696    8.1250  -17.9255 C   0  0  0  0  0  0  0  0  0  0  0  0
   -6.6563    8.5427  -19.2187 C   0  0  0  0  0  0  0  0  0  0  0  0
   -2.1154    7.1013  -21.3010 C   0  0  0  0  0  0  0  0  0  0  0  0
   -0.6282    7.8185  -19.5910 N   0  0  0  0  0  0  0  0  0  0  0  0
   -2.5342    9.0842  -20.0964 C   0  0  0  0  0  0  0  0  0  0  0  0
  1  4  1  0
  9  1  1  6
 12  1  1  0
  2  3  1  0
  2 12  2  0
  3  4  2  0
  3  5  1  0
  4  6  1  0
  5  7  2  0
  5 15  1  0
  6 16  1  0
  6 18  2  0
  7 13  1  0
 13  8  2  0
  8 14  1  0
 16 10  2  0
 10 17  1  0
 17 11  2  0
 11 18  1  0
 14 15  2  0
M  END
$$$$
