
     RDKit          3D

 18 20  0  0  0  0  0  0  0  0999 V2000
   -4.0066    8.0972  -23.5444 N   0  0  0  0  0  0  0  0  0  0  0  0
   -3.2865    9.3630  -21.8859 N   0  0  0  0  0  0  0  0  0  0  0  0
   -3.6919    8.2082  -21.3323 C   0  0  0  0  0  0  0  0  0  0  0  0
   -4.1376    7.4326  -22.3860 C   0  0  0  0  0  0  0  0  0  0  0  0
   -3.6725    7.8267  -19.9089 C   0  0  0  0  0  0  0  0  0  0  0  0
   -4.6711    6.0895  -22.2340 C   0  0  0  0  0  0  0  0  0  0  0  0
   -4.1911    8.7027  -18.9488 C   0  0  0  0  0  0  0  0  0  0  0  0
   -3.6887    7.2129  -17.1987 C   0  0  0  0  0  0  0  0  0  0  0  0
   -4.3402    7.6872  -24.8949 C   0  0  0  0  0  0  0  0  0  0  0  0
   -4.4087    3.7106  -22.3827 C   0  0  0  0  0  0  0  0  0  0  0  0
   -6.4573    4.6051  -21.6452 C   0  0  0  0  0  0  0  0  0  0  0  0
   -3.4787    9.2949  -23.2363 C   0  0  0  0  0  0  0  0  0  0  0  0
   -4.2119    8.4266  -17.6102 C   0  0  0  0  0  0  0  0  0  0  0  0
   -3.1685    6.3222  -18.1116 C   0  0  0  0  0  0  0  0  0  0  0  0
   -3.1670    6.6438  -19.4686 C   0  0  0  0  0  0  0  0  0  0  0  0
   -3.8887    4.9778  -22.5342 C   0  0  0  0  0  0  0  0  0  0  0  0
   -5.6864    3.5404  -21.9401 N   0  0  0  0  0  0  0  0  0  0  0  0
   -5.9440    5.8648  -21.7944 C   0  0  0  0  0  0  0  0  0  0  0  0
  1  4  1  0
  9  1  1  6
 12  1  1  0
  2  3  1  0
  2 12  2  0
  3  4  2  0
  3  5  1  0
  4  6  1  0
  5  7  2  0
  5 15  1  0
  6 16  1  0
  6 18  2  0
  7 13  1  0
 13  8  2  0
  8 14  1  0
 16 10  2  0
 10 17  1  0
 17 11  2  0
 11 18  1  0
 14 15  2  0
M  END
$$$$
