
     RDKit          3D

 18 20  0  0  0  0  0  0  0  0999 V2000
   -3.4262    8.5755  -22.6727 N   0  0  0  0  0  0  0  0  0  0  0  0
   -2.2834    9.2675  -20.9159 N   0  0  0  0  0  0  0  0  0  0  0  0
   -3.0825    8.2786  -20.4822 C   0  0  0  0  0  0  0  0  0  0  0  0
   -3.7871    7.8611  -21.5957 C   0  0  0  0  0  0  0  0  0  0  0  0
   -3.1981    7.7365  -19.1167 C   0  0  0  0  0  0  0  0  0  0  0  0
   -4.7763    6.7969  -21.5759 C   0  0  0  0  0  0  0  0  0  0  0  0
   -4.4603    7.6055  -18.5269 C   0  0  0  0  0  0  0  0  0  0  0  0
   -3.5360    6.7273  -16.5497 C   0  0  0  0  0  0  0  0  0  0  0  0
   -3.8935    8.4926  -24.0432 C   0  0  0  0  0  0  0  0  0  0  0  0
   -7.0496    6.0571  -21.7642 C   0  0  0  0  0  0  0  0  0  0  0  0
   -5.3517    4.4832  -21.3384 C   0  0  0  0  0  0  0  0  0  0  0  0
   -2.4934    9.4485  -22.2532 C   0  0  0  0  0  0  0  0  0  0  0  0
   -4.6555    7.1125  -17.2670 C   0  0  0  0  0  0  0  0  0  0  0  0
   -2.2755    6.8398  -17.0937 C   0  0  0  0  0  0  0  0  0  0  0  0
   -2.1212    7.3482  -18.3831 C   0  0  0  0  0  0  0  0  0  0  0  0
   -6.1239    7.0778  -21.7839 C   0  0  0  0  0  0  0  0  0  0  0  0
   -6.6515    4.7727  -21.5417 N   0  0  0  0  0  0  0  0  0  0  0  0
   -4.4299    5.4945  -21.3574 C   0  0  0  0  0  0  0  0  0  0  0  0
  1  4  1  0
  9  1  1  6
 12  1  1  0
  2  3  1  0
  2 12  2  0
  3  4  2  0
  3  5  1  0
  4  6  1  0
  5  7  2  0
  5 15  1  0
  6 16  1  0
  6 18  2  0
  7 13  1  0
 13  8  2  0
  8 14  1  0
 16 10  2  0
 10 17  1  0
 17 11  2  0
 11 18  1  0
 14 15  2  0
M  END
$$$$
