
     RDKit          3D

 18 20  0  0  0  0  0  0  0  0999 V2000
   -4.8808    8.5458  -24.3229 N   0  0  0  0  0  0  0  0  0  0  0  0
   -5.9992    9.2151  -22.5417 N   0  0  0  0  0  0  0  0  0  0  0  0
   -5.0175    8.4150  -22.0938 C   0  0  0  0  0  0  0  0  0  0  0  0
   -4.3314    8.0084  -23.2228 C   0  0  0  0  0  0  0  0  0  0  0  0
   -4.7157    8.0392  -20.7011 C   0  0  0  0  0  0  0  0  0  0  0  0
   -3.1811    7.1211  -23.1957 C   0  0  0  0  0  0  0  0  0  0  0  0
   -4.9061    8.9707  -19.6744 C   0  0  0  0  0  0  0  0  0  0  0  0
   -4.1806    7.4414  -18.0406 C   0  0  0  0  0  0  0  0  0  0  0  0
   -4.5037    8.4023  -25.7160 C   0  0  0  0  0  0  0  0  0  0  0  0
   -2.2149    4.9472  -23.4974 C   0  0  0  0  0  0  0  0  0  0  0  0
   -0.8450    6.7394  -22.8246 C   0  0  0  0  0  0  0  0  0  0  0  0
   -5.9155    9.2948  -23.9025 C   0  0  0  0  0  0  0  0  0  0  0  0
   -4.6513    8.7038  -18.3582 C   0  0  0  0  0  0  0  0  0  0  0  0
   -3.9794    6.4952  -19.0212 C   0  0  0  0  0  0  0  0  0  0  0  0
   -4.2523    6.8094  -20.3523 C   0  0  0  0  0  0  0  0  0  0  0  0
   -3.3159    5.7753  -23.5259 C   0  0  0  0  0  0  0  0  0  0  0  0
   -0.9933    5.4399  -23.1471 N   0  0  0  0  0  0  0  0  0  0  0  0
   -1.9364    7.5645  -22.8520 C   0  0  0  0  0  0  0  0  0  0  0  0
  1  4  1  0
  9  1  1  6
 12  1  1  0
  2  3  1  0
  2 12  2  0
  3  4  2  0
  3  5  1  0
  4  6  1  0
  5  7  2  0
  5 15  1  0
  6 16  1  0
  6 18  2  0
  7 13  1  0
 13  8  2  0
  8 14  1  0
 16 10  2  0
 10 17  1  0
 17 11  2  0
 11 18  1  0
 14 15  2  0
M  END
$$$$
