
     RDKit          3D

 18 20  0  0  0  0  0  0  0  0999 V2000
   -3.5497    8.7512  -21.5585 N   0  0  0  0  0  0  0  0  0  0  0  0
   -2.7676    9.2250  -19.6009 N   0  0  0  0  0  0  0  0  0  0  0  0
   -3.5070    8.1072  -19.4490 C   0  0  0  0  0  0  0  0  0  0  0  0
   -4.0132    7.7954  -20.7009 C   0  0  0  0  0  0  0  0  0  0  0  0
   -3.7032    7.4008  -18.1829 C   0  0  0  0  0  0  0  0  0  0  0  0
   -4.8709    6.6639  -21.0184 C   0  0  0  0  0  0  0  0  0  0  0  0
   -4.9713    7.1018  -17.7225 C   0  0  0  0  0  0  0  0  0  0  0  0
   -4.0969    6.0451  -15.7537 C   0  0  0  0  0  0  0  0  0  0  0  0
   -3.8535    8.7870  -22.9755 C   0  0  0  0  0  0  0  0  0  0  0  0
   -5.0922    4.2993  -21.2839 C   0  0  0  0  0  0  0  0  0  0  0  0
   -6.9174    5.6661  -21.6261 C   0  0  0  0  0  0  0  0  0  0  0  0
   -2.7839    9.6307  -20.8839 C   0  0  0  0  0  0  0  0  0  0  0  0
   -5.1712    6.4363  -16.5303 C   0  0  0  0  0  0  0  0  0  0  0  0
   -2.8101    6.3363  -16.1987 C   0  0  0  0  0  0  0  0  0  0  0  0
   -2.6499    6.9982  -17.3869 C   0  0  0  0  0  0  0  0  0  0  0  0
   -4.3124    5.4087  -20.9877 C   0  0  0  0  0  0  0  0  0  0  0  0
   -6.3816    4.4358  -21.5990 N   0  0  0  0  0  0  0  0  0  0  0  0
   -6.1920    6.7942  -21.3422 C   0  0  0  0  0  0  0  0  0  0  0  0
  1  4  1  0
  1  9  1  0
 12  1  1  0
  2  3  1  0
  2 12  2  0
  3  4  2  0
  3  5  1  0
  4  6  1  0
  5  7  2  0
  5 15  1  0
  6 16  1  0
  6 18  2  0
  7 13  1  0
 13  8  2  0
  8 14  1  0
 16 10  2  0
 10 17  1  0
 17 11  2  0
 11 18  1  0
 14 15  2  0
M  END
$$$$
