
     RDKit          3D

 18 20  0  0  0  0  0  0  0  0999 V2000
   -5.6846    7.5024  -23.9121 N   0  0  0  0  0  0  0  0  0  0  0  0
   -5.1190    9.1912  -22.6084 N   0  0  0  0  0  0  0  0  0  0  0  0
   -4.9596    8.0770  -21.8752 C   0  0  0  0  0  0  0  0  0  0  0  0
   -5.3184    7.0345  -22.7089 C   0  0  0  0  0  0  0  0  0  0  0  0
   -4.4994    7.9656  -20.4796 C   0  0  0  0  0  0  0  0  0  0  0  0
   -5.2957    5.6365  -22.3131 C   0  0  0  0  0  0  0  0  0  0  0  0
   -3.4584    8.7830  -20.0251 C   0  0  0  0  0  0  0  0  0  0  0  0
   -3.5506    7.8426  -17.8706 C   0  0  0  0  0  0  0  0  0  0  0  0
   -6.1350    6.7871  -25.0906 C   0  0  0  0  0  0  0  0  0  0  0  0
   -6.3687    3.7255  -21.3397 C   0  0  0  0  0  0  0  0  0  0  0  0
   -4.1680    3.5286  -22.1518 C   0  0  0  0  0  0  0  0  0  0  0  0
   -5.5615    8.8401  -23.8518 C   0  0  0  0  0  0  0  0  0  0  0  0
   -2.9724    8.7436  -18.7481 C   0  0  0  0  0  0  0  0  0  0  0  0
   -4.5776    7.0199  -18.2779 C   0  0  0  0  0  0  0  0  0  0  0  0
   -5.0434    7.0927  -19.5903 C   0  0  0  0  0  0  0  0  0  0  0  0
   -6.4052    5.0532  -21.7073 C   0  0  0  0  0  0  0  0  0  0  0  0
   -5.2504    2.9802  -21.5668 N   0  0  0  0  0  0  0  0  0  0  0  0
   -4.2011    4.8468  -22.5181 C   0  0  0  0  0  0  0  0  0  0  0  0
  1  4  1  0
  9  1  1  6
 12  1  1  0
  2  3  1  0
  2 12  2  0
  3  4  2  0
  3  5  1  0
  4  6  1  0
  5  7  2  0
  5 15  1  0
  6 16  1  0
  6 18  2  0
  7 13  1  0
 13  8  2  0
  8 14  1  0
 16 10  2  0
 10 17  1  0
 17 11  2  0
 11 18  1  0
 14 15  2  0
M  END
$$$$
