
     RDKit          3D

 18 20  0  0  0  0  0  0  0  0999 V2000
   -5.4306    6.0514  -22.8687 N   0  0  0  0  0  0  0  0  0  0  0  0
   -4.7299    8.0001  -23.6320 N   0  0  0  0  0  0  0  0  0  0  0  0
   -4.5573    8.0309  -22.3002 C   0  0  0  0  0  0  0  0  0  0  0  0
   -5.0013    6.8040  -21.8441 C   0  0  0  0  0  0  0  0  0  0  0  0
   -4.0108    9.1265  -21.4798 C   0  0  0  0  0  0  0  0  0  0  0  0
   -4.9957    6.4096  -20.4455 C   0  0  0  0  0  0  0  0  0  0  0  0
   -4.3531   10.4509  -21.7743 C   0  0  0  0  0  0  0  0  0  0  0  0
   -3.0411   11.2707  -20.0019 C   0  0  0  0  0  0  0  0  0  0  0  0
   -5.9784    4.7085  -22.8710 C   0  0  0  0  0  0  0  0  0  0  0  0
   -5.9015    6.5628  -18.2305 C   0  0  0  0  0  0  0  0  0  0  0  0
   -4.0845    5.1237  -18.6409 C   0  0  0  0  0  0  0  0  0  0  0  0
   -5.2630    6.7915  -23.9788 C   0  0  0  0  0  0  0  0  0  0  0  0
   -3.8912   11.5240  -21.0646 C   0  0  0  0  0  0  0  0  0  0  0  0
   -2.6794    9.9814  -19.6786 C   0  0  0  0  0  0  0  0  0  0  0  0
   -3.1738    8.9152  -20.4293 C   0  0  0  0  0  0  0  0  0  0  0  0
   -5.9185    6.9487  -19.5533 C   0  0  0  0  0  0  0  0  0  0  0  0
   -4.9846    5.6551  -17.7911 N   0  0  0  0  0  0  0  0  0  0  0  0
   -4.0987    5.5047  -19.9551 C   0  0  0  0  0  0  0  0  0  0  0  0
  1  4  1  0
  9  1  1  6
 12  1  1  0
  2  3  1  0
  2 12  2  0
  3  4  2  0
  3  5  1  0
  4  6  1  0
  5  7  2  0
  5 15  1  0
  6 16  1  0
  6 18  2  0
  7 13  1  0
 13  8  2  0
  8 14  1  0
 16 10  2  0
 10 17  1  0
 17 11  2  0
 11 18  1  0
 14 15  2  0
M  END
$$$$
