
     RDKit          3D

 26 29  0  0  0  0  0  0  0  0999 V2000
   26.8804   -8.7616    6.5152 C   0  0  0  0  0  0  0  0  0  0  0  0
   26.1484   -9.9194    6.6821 C   0  0  0  0  0  0  0  0  0  0  0  0
   25.2077  -10.0759    7.6751 C   0  0  0  0  0  0  0  0  0  0  0  0
   25.0074   -9.0176    8.5250 C   0  0  0  0  0  0  0  0  0  0  0  0
   27.5942   -5.5853    8.1179 C   0  0  0  0  0  0  0  0  0  0  0  0
   27.4659   -6.4873    7.1697 C   0  0  0  0  0  0  0  0  0  0  0  0
   26.7819   -3.8392   11.2464 C   0  0  0  0  0  0  0  0  0  0  0  0
   26.8323   -5.4193    9.2501 O   0  0  0  0  0  0  0  0  0  0  0  0
   27.3981   -2.7524   11.8261 C   0  0  0  0  0  0  0  0  0  0  0  0
   28.4826   -2.1948   11.1867 C   0  0  0  0  0  0  0  0  0  0  0  0
   28.9354   -2.7175    9.9944 C   0  0  0  0  0  0  0  0  0  0  0  0
   28.3417   -3.8040    9.3878 C   0  0  0  0  0  0  0  0  0  0  0  0
   24.1085   -9.0483    9.5437 F   0  0  0  0  0  0  0  0  0  0  0  0
   24.4388  -11.2998    7.8452 C   0  0  0  0  0  0  0  0  0  0  0  0
   24.9268  -12.4936    8.2216 N   0  0  0  0  0  0  0  0  0  0  0  0
   23.9564  -13.3868    8.2762 N   0  0  0  0  0  0  0  0  0  0  0  0
   22.8498  -12.7512    7.9319 N   0  0  0  0  0  0  0  0  0  0  0  0
   23.1227  -11.4915    7.6687 N   0  0  0  0  0  0  0  0  0  0  0  0
   25.7401   -7.8366    8.3709 C   0  0  0  0  0  0  0  0  0  0  0  0
   26.6720   -7.6893    7.3826 C   0  0  0  0  0  0  0  0  0  0  0  0
   28.6210   -4.5313    8.1566 C   0  0  0  0  0  0  0  0  0  0  0  0
   29.5374   -4.3117    7.3083 O   0  0  0  0  0  0  0  0  0  0  0  0
   27.2568   -4.3572   10.0331 C   0  0  0  0  0  0  0  0  0  0  0  0
   25.6399   -4.4484   11.8915 C   0  0  0  0  0  0  0  0  0  0  0  0
   25.1738   -3.9312   12.9278 O   0  0  0  0  0  0  0  0  0  0  0  0
   25.0592   -5.6179   11.3516 N   0  0  0  0  0  0  0  0  0  0  0  0
  1  2  2  0
 20  1  1  0
  2  3  1  0
  3  4  2  0
  3 14  1  0
  4 13  1  0
  4 19  1  0
  5  6  2  3
  8  5  1  0
  5 21  1  0
  6 20  1  0
  7  9  2  0
 23  7  1  0
  7 24  1  0
  8 23  1  0
  9 10  1  0
 10 11  2  0
 11 12  1  0
 12 21  1  0
 12 23  2  0
 14 15  2  0
 14 18  1  0
 15 16  1  0
 16 17  2  0
 17 18  1  0
 19 20  2  0
 21 22  2  0
 24 25  2  0
 24 26  1  0
M  END
$$$$
