
     RDKit          3D

 26 29  0  0  0  0  0  0  0  0999 V2000
   25.9787   -8.0648    8.6182 C   0  0  0  0  0  0  0  0  0  0  0  0
   25.3481   -9.2611    8.8714 C   0  0  0  0  0  0  0  0  0  0  0  0
   25.4064  -10.3029    7.9568 C   0  0  0  0  0  0  0  0  0  0  0  0
   26.1207  -10.0671    6.8032 C   0  0  0  0  0  0  0  0  0  0  0  0
   27.5367   -5.5983    8.1071 C   0  0  0  0  0  0  0  0  0  0  0  0
   27.3253   -6.5330    7.1991 C   0  0  0  0  0  0  0  0  0  0  0  0
   26.7830   -3.8170   11.2232 C   0  0  0  0  0  0  0  0  0  0  0  0
   26.7785   -5.4070    9.2448 O   0  0  0  0  0  0  0  0  0  0  0  0
   27.4288   -2.7580   11.7793 C   0  0  0  0  0  0  0  0  0  0  0  0
   28.5320   -2.2296   11.1301 C   0  0  0  0  0  0  0  0  0  0  0  0
   28.9762   -2.7626    9.9377 C   0  0  0  0  0  0  0  0  0  0  0  0
   28.3299   -3.8320    9.3703 C   0  0  0  0  0  0  0  0  0  0  0  0
   26.1821  -11.0956    5.8937 F   0  0  0  0  0  0  0  0  0  0  0  0
   24.7474  -11.5783    8.2014 C   0  0  0  0  0  0  0  0  0  0  0  0
   23.4809  -11.8459    7.8537 N   0  0  0  0  0  0  0  0  0  0  0  0
   23.1772  -13.0811    8.2126 N   0  0  0  0  0  0  0  0  0  0  0  0
   24.2326  -13.6094    8.7856 N   0  0  0  0  0  0  0  0  0  0  0  0
   25.1847  -12.7046    8.7812 N   0  0  0  0  0  0  0  0  0  0  0  0
   26.7561   -8.8604    6.5482 C   0  0  0  0  0  0  0  0  0  0  0  0
   26.7077   -7.8176    7.4476 C   0  0  0  0  0  0  0  0  0  0  0  0
   28.5738   -4.5945    8.1311 C   0  0  0  0  0  0  0  0  0  0  0  0
   29.4939   -4.3744    7.3191 O   0  0  0  0  0  0  0  0  0  0  0  0
   27.2369   -4.3569   10.0117 C   0  0  0  0  0  0  0  0  0  0  0  0
   25.6147   -4.4049   11.8629 C   0  0  0  0  0  0  0  0  0  0  0  0
   25.0853   -3.8260   12.8548 O   0  0  0  0  0  0  0  0  0  0  0  0
   25.0390   -5.6193   11.4114 N   0  0  0  0  0  0  0  0  0  0  0  0
  1  2  2  0
 20  1  1  0
  2  3  1  0
  3  4  2  0
  3 14  1  0
  4 13  1  0
  4 19  1  0
  5  6  2  3
  8  5  1  0
  5 21  1  0
  6 20  1  0
  7  9  2  0
 23  7  1  0
  7 24  1  0
  8 23  1  0
  9 10  1  0
 10 11  2  0
 11 12  1  0
 12 21  1  0
 12 23  2  0
 14 15  2  0
 14 18  1  0
 15 16  1  0
 16 17  2  0
 17 18  1  0
 19 20  2  0
 21 22  2  0
 24 25  2  0
 24 26  1  0
M  END
$$$$
