
     RDKit          3D

 26 29  0  0  0  0  0  0  0  0999 V2000
   26.0493   -7.8262    8.2171 C   0  0  0  0  0  0  0  0  0  0  0  0
   25.2404   -8.9390    8.2243 C   0  0  0  0  0  0  0  0  0  0  0  0
   25.1379   -9.7504    7.1034 C   0  0  0  0  0  0  0  0  0  0  0  0
   25.8818   -9.3775    6.0061 C   0  0  0  0  0  0  0  0  0  0  0  0
   27.7240   -5.4048    8.1379 C   0  0  0  0  0  0  0  0  0  0  0  0
   27.6192   -6.2417    7.1223 C   0  0  0  0  0  0  0  0  0  0  0  0
   26.6683   -3.9985   11.3563 C   0  0  0  0  0  0  0  0  0  0  0  0
   26.8761   -5.3633    9.2266 O   0  0  0  0  0  0  0  0  0  0  0  0
   27.2268   -2.9854   12.0703 C   0  0  0  0  0  0  0  0  0  0  0  0
   28.3525   -2.3536   11.5690 C   0  0  0  0  0  0  0  0  0  0  0  0
   28.9055   -2.7389   10.3653 C   0  0  0  0  0  0  0  0  0  0  0  0
   28.3477   -3.7611    9.6391 C   0  0  0  0  0  0  0  0  0  0  0  0
   25.7844  -10.1777    4.8929 F   0  0  0  0  0  0  0  0  0  0  0  0
   24.2888  -10.9335    7.0858 C   0  0  0  0  0  0  0  0  0  0  0  0
   24.7492  -12.1839    6.9413 N   0  0  0  0  0  0  0  0  0  0  0  0
   23.7356  -13.0317    6.9630 N   0  0  0  0  0  0  0  0  0  0  0  0
   22.6310  -12.3414    7.1199 N   0  0  0  0  0  0  0  0  0  0  0  0
   22.9602  -11.0720    7.1947 N   0  0  0  0  0  0  0  0  0  0  0  0
   26.6971   -8.2549    5.9992 C   0  0  0  0  0  0  0  0  0  0  0  0
   26.8096   -7.4407    7.1052 C   0  0  0  0  0  0  0  0  0  0  0  0
   28.7142   -4.3759    8.3491 C   0  0  0  0  0  0  0  0  0  0  0  0
   29.6822   -4.0387    7.6394 O   0  0  0  0  0  0  0  0  0  0  0  0
   27.2326   -4.3883   10.1338 C   0  0  0  0  0  0  0  0  0  0  0  0
   25.4809   -4.6906   11.8369 C   0  0  0  0  0  0  0  0  0  0  0  0
   24.8854   -4.2703   12.8703 O   0  0  0  0  0  0  0  0  0  0  0  0
   24.9584   -5.8346   11.1825 N   0  0  0  0  0  0  0  0  0  0  0  0
  1  2  2  0
 20  1  1  0
  2  3  1  0
  3  4  2  0
  3 14  1  0
  4 13  1  0
  4 19  1  0
  5  6  2  3
  8  5  1  0
  5 21  1  0
  6 20  1  0
  7  9  2  0
 23  7  1  0
  7 24  1  0
  8 23  1  0
  9 10  1  0
 10 11  2  0
 11 12  1  0
 12 21  1  0
 12 23  2  0
 14 15  2  0
 14 18  1  0
 15 16  1  0
 16 17  2  0
 17 18  1  0
 19 20  2  0
 21 22  2  0
 24 25  2  0
 24 26  1  0
M  END
$$$$
