
     RDKit          3D

 26 29  0  0  0  0  0  0  0  0999 V2000
   26.6936   -8.8966    6.4828 C   0  0  0  0  0  0  0  0  0  0  0  0
   26.0088  -10.0714    6.6916 C   0  0  0  0  0  0  0  0  0  0  0  0
   25.3878  -10.3260    7.9060 C   0  0  0  0  0  0  0  0  0  0  0  0
   25.4993   -9.3478    8.8689 C   0  0  0  0  0  0  0  0  0  0  0  0
   27.7398   -5.7056    8.0770 C   0  0  0  0  0  0  0  0  0  0  0  0
   27.5723   -6.6904    7.2140 C   0  0  0  0  0  0  0  0  0  0  0  0
   26.8679   -3.7845   11.0770 C   0  0  0  0  0  0  0  0  0  0  0  0
   26.9488   -5.4738    9.1845 O   0  0  0  0  0  0  0  0  0  0  0  0
   27.4758   -2.6834   11.5927 C   0  0  0  0  0  0  0  0  0  0  0  0
   28.5831   -2.1634   10.9439 C   0  0  0  0  0  0  0  0  0  0  0  0
   29.0692   -2.7465    9.7920 C   0  0  0  0  0  0  0  0  0  0  0  0
   28.4613   -3.8586    9.2655 C   0  0  0  0  0  0  0  0  0  0  0  0
   24.8859   -9.5945   10.0738 F   0  0  0  0  0  0  0  0  0  0  0  0
   24.6571  -11.5616    8.1516 C   0  0  0  0  0  0  0  0  0  0  0  0
   23.3338  -11.6950    7.9854 N   0  0  0  0  0  0  0  0  0  0  0  0
   22.9737  -12.9293    8.2915 N   0  0  0  0  0  0  0  0  0  0  0  0
   24.0488  -13.5894    8.6515 N   0  0  0  0  0  0  0  0  0  0  0  0
   25.0694  -12.7667    8.5686 N   0  0  0  0  0  0  0  0  0  0  0  0
   26.1904   -8.1634    8.6581 C   0  0  0  0  0  0  0  0  0  0  0  0
   26.8109   -7.8966    7.4570 C   0  0  0  0  0  0  0  0  0  0  0  0
   28.7535   -4.6778    8.0739 C   0  0  0  0  0  0  0  0  0  0  0  0
   29.6888   -4.4784    7.2741 O   0  0  0  0  0  0  0  0  0  0  0  0
   27.3642   -4.3752    9.9066 C   0  0  0  0  0  0  0  0  0  0  0  0
   25.6970   -4.3659   11.7179 C   0  0  0  0  0  0  0  0  0  0  0  0
   25.1814   -3.7924   12.7202 O   0  0  0  0  0  0  0  0  0  0  0  0
   25.1037   -5.5679   11.2563 N   0  0  0  0  0  0  0  0  0  0  0  0
  1  2  2  0
 20  1  1  0
  2  3  1  0
  3  4  2  0
  3 14  1  0
  4 13  1  0
  4 19  1  0
  5  6  2  3
  8  5  1  0
  5 21  1  0
  6 20  1  0
  7  9  2  0
 23  7  1  0
  7 24  1  0
  8 23  1  0
  9 10  1  0
 10 11  2  0
 11 12  1  0
 12 21  1  0
 12 23  2  0
 14 15  2  0
 14 18  1  0
 15 16  1  0
 16 17  2  0
 17 18  1  0
 19 20  2  0
 21 22  2  0
 24 25  2  0
 24 26  1  0
M  END
$$$$
