
     RDKit          3D

 26 29  0  0  0  0  0  0  0  0999 V2000
   26.7543   -8.1442    5.7496 C   0  0  0  0  0  0  0  0  0  0  0  0
   25.8883   -9.2100    5.6671 C   0  0  0  0  0  0  0  0  0  0  0  0
   24.9981   -9.4838    6.6956 C   0  0  0  0  0  0  0  0  0  0  0  0
   25.0368   -8.6380    7.7817 C   0  0  0  0  0  0  0  0  0  0  0  0
   27.8238   -5.2993    7.8892 C   0  0  0  0  0  0  0  0  0  0  0  0
   27.7507   -6.1911    6.9186 C   0  0  0  0  0  0  0  0  0  0  0  0
   26.6541   -3.7035   10.9773 C   0  0  0  0  0  0  0  0  0  0  0  0
   26.9326   -5.1883    8.9377 O   0  0  0  0  0  0  0  0  0  0  0  0
   27.1950   -2.6573   11.6560 C   0  0  0  0  0  0  0  0  0  0  0  0
   28.3477   -2.0657   11.1674 C   0  0  0  0  0  0  0  0  0  0  0  0
   28.9450   -2.5236   10.0112 C   0  0  0  0  0  0  0  0  0  0  0  0
   28.4052   -3.5796    9.3207 C   0  0  0  0  0  0  0  0  0  0  0  0
   24.1570   -8.9042    8.8035 F   0  0  0  0  0  0  0  0  0  0  0  0
   24.0717  -10.6058    6.6322 C   0  0  0  0  0  0  0  0  0  0  0  0
   22.8365  -10.5291    6.1175 N   0  0  0  0  0  0  0  0  0  0  0  0
   22.2476  -11.7088    6.2084 N   0  0  0  0  0  0  0  0  0  0  0  0
   23.0891  -12.5412    6.7744 N   0  0  0  0  0  0  0  0  0  0  0  0
   24.1936  -11.8789    7.0326 N   0  0  0  0  0  0  0  0  0  0  0  0
   25.9106   -7.5635    7.8646 C   0  0  0  0  0  0  0  0  0  0  0  0
   26.7992   -7.2790    6.8507 C   0  0  0  0  0  0  0  0  0  0  0  0
   28.8168   -4.2697    8.0835 C   0  0  0  0  0  0  0  0  0  0  0  0
   29.8170   -3.9825    7.3969 O   0  0  0  0  0  0  0  0  0  0  0  0
   27.2633   -4.1671    9.8030 C   0  0  0  0  0  0  0  0  0  0  0  0
   25.4398   -4.3559   11.4460 C   0  0  0  0  0  0  0  0  0  0  0  0
   24.8015   -3.8661   12.4217 O   0  0  0  0  0  0  0  0  0  0  0  0
   24.9374   -5.5367   10.8432 N   0  0  0  0  0  0  0  0  0  0  0  0
  1  2  2  0
 20  1  1  0
  2  3  1  0
  3  4  2  0
  3 14  1  0
  4 13  1  0
  4 19  1  0
  5  6  2  3
  8  5  1  0
  5 21  1  0
  6 20  1  0
  7  9  2  0
 23  7  1  0
  7 24  1  0
  8 23  1  0
  9 10  1  0
 10 11  2  0
 11 12  1  0
 12 21  1  0
 12 23  2  0
 14 15  2  0
 14 18  1  0
 15 16  1  0
 16 17  2  0
 17 18  1  0
 19 20  2  0
 21 22  2  0
 24 25  2  0
 24 26  1  0
M  END
$$$$
