
     RDKit          3D

 26 29  0  0  0  0  0  0  0  0999 V2000
   26.5102   -8.0337    5.7807 C   0  0  0  0  0  0  0  0  0  0  0  0
   25.6203   -9.0770    5.6696 C   0  0  0  0  0  0  0  0  0  0  0  0
   24.8037   -9.4312    6.7341 C   0  0  0  0  0  0  0  0  0  0  0  0
   24.9391   -8.6872    7.8850 C   0  0  0  0  0  0  0  0  0  0  0  0
   27.7216   -5.3403    8.0319 C   0  0  0  0  0  0  0  0  0  0  0  0
   27.6277   -6.2063    7.0399 C   0  0  0  0  0  0  0  0  0  0  0  0
   26.6791   -3.8913   11.2356 C   0  0  0  0  0  0  0  0  0  0  0  0
   26.8947   -5.3019    9.1367 O   0  0  0  0  0  0  0  0  0  0  0  0
   27.2138   -2.8405   11.9122 C   0  0  0  0  0  0  0  0  0  0  0  0
   28.3050   -2.1810   11.3719 C   0  0  0  0  0  0  0  0  0  0  0  0
   28.8478   -2.5767   10.1669 C   0  0  0  0  0  0  0  0  0  0  0  0
   28.3139   -3.6368    9.4782 C   0  0  0  0  0  0  0  0  0  0  0  0
   24.1327   -9.0334    8.9427 F   0  0  0  0  0  0  0  0  0  0  0  0
   23.8540  -10.5314    6.6415 C   0  0  0  0  0  0  0  0  0  0  0  0
   24.2051  -11.8090    6.4391 N   0  0  0  0  0  0  0  0  0  0  0  0
   23.1203  -12.5630    6.4007 N   0  0  0  0  0  0  0  0  0  0  0  0
   22.0780  -11.7857    6.5762 N   0  0  0  0  0  0  0  0  0  0  0  0
   22.5165  -10.5562    6.7222 N   0  0  0  0  0  0  0  0  0  0  0  0
   25.8370   -7.6354    7.9967 C   0  0  0  0  0  0  0  0  0  0  0  0
   26.6532   -7.2718    6.9478 C   0  0  0  0  0  0  0  0  0  0  0  0
   28.6771   -4.2708    8.1966 C   0  0  0  0  0  0  0  0  0  0  0  0
   29.6175   -3.9168    7.4586 O   0  0  0  0  0  0  0  0  0  0  0  0
   27.2329   -4.2915   10.0117 C   0  0  0  0  0  0  0  0  0  0  0  0
   25.5280   -4.6138   11.7580 C   0  0  0  0  0  0  0  0  0  0  0  0
   24.9696   -4.2184   12.8216 O   0  0  0  0  0  0  0  0  0  0  0  0
   25.0010   -5.7605   11.1121 N   0  0  0  0  0  0  0  0  0  0  0  0
  1  2  2  0
 20  1  1  0
  2  3  1  0
  3  4  2  0
  3 14  1  0
  4 13  1  0
  4 19  1  0
  5  6  2  3
  8  5  1  0
  5 21  1  0
  6 20  1  0
  7  9  2  0
 23  7  1  0
  7 24  1  0
  8 23  1  0
  9 10  1  0
 10 11  2  0
 11 12  1  0
 12 21  1  0
 12 23  2  0
 14 15  2  0
 14 18  1  0
 15 16  1  0
 16 17  2  0
 17 18  1  0
 19 20  2  0
 21 22  2  0
 24 25  2  0
 24 26  1  0
M  END
$$$$
