
     RDKit          3D

 26 29  0  0  0  0  0  0  0  0999 V2000
   26.3136   -7.7197    5.8085 C   0  0  0  0  0  0  0  0  0  0  0  0
   25.3705   -8.7111    5.6655 C   0  0  0  0  0  0  0  0  0  0  0  0
   24.7898   -9.3053    6.7768 C   0  0  0  0  0  0  0  0  0  0  0  0
   25.2100   -8.8489    8.0063 C   0  0  0  0  0  0  0  0  0  0  0  0
   27.8552   -5.3385    8.1346 C   0  0  0  0  0  0  0  0  0  0  0  0
   27.7682   -6.2319    7.1666 C   0  0  0  0  0  0  0  0  0  0  0  0
   26.7193   -3.7256   11.2264 C   0  0  0  0  0  0  0  0  0  0  0  0
   26.9718   -5.2174    9.1886 O   0  0  0  0  0  0  0  0  0  0  0  0
   27.2736   -2.6824   11.8991 C   0  0  0  0  0  0  0  0  0  0  0  0
   28.4282   -2.1018   11.4016 C   0  0  0  0  0  0  0  0  0  0  0  0
   29.0139   -2.5676   10.2427 C   0  0  0  0  0  0  0  0  0  0  0  0
   28.4606   -3.6206    9.5582 C   0  0  0  0  0  0  0  0  0  0  0  0
   24.6381   -9.4338    9.1107 F   0  0  0  0  0  0  0  0  0  0  0  0
   23.7896  -10.3565    6.6520 C   0  0  0  0  0  0  0  0  0  0  0  0
   22.4962  -10.1315    6.3818 N   0  0  0  0  0  0  0  0  0  0  0  0
   21.8490  -11.2830    6.3367 N   0  0  0  0  0  0  0  0  0  0  0  0
   22.7105  -12.2436    6.5740 N   0  0  0  0  0  0  0  0  0  0  0  0
   23.8854  -11.6884    6.7653 N   0  0  0  0  0  0  0  0  0  0  0  0
   26.1615   -7.8494    8.1500 C   0  0  0  0  0  0  0  0  0  0  0  0
   26.7456   -7.2496    7.0556 C   0  0  0  0  0  0  0  0  0  0  0  0
   28.8583   -4.3171    8.3200 C   0  0  0  0  0  0  0  0  0  0  0  0
   29.8564   -4.0400    7.6263 O   0  0  0  0  0  0  0  0  0  0  0  0
   27.3169   -4.1971   10.0493 C   0  0  0  0  0  0  0  0  0  0  0  0
   25.5025   -4.3664   11.7045 C   0  0  0  0  0  0  0  0  0  0  0  0
   24.8775   -3.8716   12.6862 O   0  0  0  0  0  0  0  0  0  0  0  0
   24.9833   -5.5413   11.1045 N   0  0  0  0  0  0  0  0  0  0  0  0
  1  2  2  0
 20  1  1  0
  2  3  1  0
  3  4  2  0
  3 14  1  0
  4 13  1  0
  4 19  1  0
  5  6  2  3
  8  5  1  0
  5 21  1  0
  6 20  1  0
  7  9  2  0
 23  7  1  0
  7 24  1  0
  8 23  1  0
  9 10  1  0
 10 11  2  0
 11 12  1  0
 12 21  1  0
 12 23  2  0
 14 15  2  0
 14 18  1  0
 15 16  1  0
 16 17  2  0
 17 18  1  0
 19 20  2  0
 21 22  2  0
 24 25  2  0
 24 26  1  0
M  END
$$$$
