
     RDKit          3D

 26 29  0  0  0  0  0  0  0  0999 V2000
   26.6369   -7.9470    5.6316 C   0  0  0  0  0  0  0  0  0  0  0  0
   25.6699   -8.9160    5.4581 C   0  0  0  0  0  0  0  0  0  0  0  0
   24.8192   -9.3160    6.4640 C   0  0  0  0  0  0  0  0  0  0  0  0
   24.9596   -8.7082    7.6860 C   0  0  0  0  0  0  0  0  0  0  0  0
   27.7776   -5.4527    8.0064 C   0  0  0  0  0  0  0  0  0  0  0  0
   27.8073   -6.3159    7.0147 C   0  0  0  0  0  0  0  0  0  0  0  0
   26.5400   -3.9129   11.1037 C   0  0  0  0  0  0  0  0  0  0  0  0
   26.8982   -5.3909    9.0612 O   0  0  0  0  0  0  0  0  0  0  0  0
   27.0178   -2.8159   11.7858 C   0  0  0  0  0  0  0  0  0  0  0  0
   28.1177   -2.1582   11.2825 C   0  0  0  0  0  0  0  0  0  0  0  0
   28.7215   -2.5933   10.1223 C   0  0  0  0  0  0  0  0  0  0  0  0
   28.2687   -3.6872    9.4157 C   0  0  0  0  0  0  0  0  0  0  0  0
   24.1817   -9.0150    8.7572 F   0  0  0  0  0  0  0  0  0  0  0  0
   23.8012  -10.3384    6.2739 C   0  0  0  0  0  0  0  0  0  0  0  0
   24.0180  -11.6079    5.8911 N   0  0  0  0  0  0  0  0  0  0  0  0
   22.8751  -12.2641    5.8176 N   0  0  0  0  0  0  0  0  0  0  0  0
   21.9320  -11.4022    6.1565 N   0  0  0  0  0  0  0  0  0  0  0  0
   22.4732  -10.2358    6.4348 N   0  0  0  0  0  0  0  0  0  0  0  0
   25.9341   -7.7243    7.8801 C   0  0  0  0  0  0  0  0  0  0  0  0
   26.7744   -7.3329    6.8764 C   0  0  0  0  0  0  0  0  0  0  0  0
   28.7185   -4.3359    8.1911 C   0  0  0  0  0  0  0  0  0  0  0  0
   29.6961   -4.0164    7.4495 O   0  0  0  0  0  0  0  0  0  0  0  0
   27.1674   -4.3408    9.9250 C   0  0  0  0  0  0  0  0  0  0  0  0
   25.3860   -4.6260   11.6048 C   0  0  0  0  0  0  0  0  0  0  0  0
   24.8114   -4.2149   12.6341 O   0  0  0  0  0  0  0  0  0  0  0  0
   24.9156   -5.7770   10.9335 N   0  0  0  0  0  0  0  0  0  0  0  0
  1  2  2  0
 20  1  1  0
  2  3  1  0
  3  4  2  0
  3 14  1  0
  4 13  1  0
  4 19  1  0
  5  6  2  3
  8  5  1  0
  5 21  1  0
  6 20  1  0
  7  9  2  0
 23  7  1  0
  7 24  1  0
  8 23  1  0
  9 10  1  0
 10 11  2  0
 11 12  1  0
 12 21  1  0
 12 23  2  0
 14 15  2  0
 14 18  1  0
 15 16  1  0
 16 17  2  0
 17 18  1  0
 19 20  2  0
 21 22  2  0
 24 25  2  0
 24 26  1  0
M  END
$$$$
