
     RDKit          3D

 26 29  0  0  0  0  0  0  0  0999 V2000
   26.9213   -8.0157    6.1215 C   0  0  0  0  0  0  0  0  0  0  0  0
   26.0457   -9.0810    6.0695 C   0  0  0  0  0  0  0  0  0  0  0  0
   25.2081   -9.4154    7.1097 C   0  0  0  0  0  0  0  0  0  0  0  0
   25.2655   -8.6383    8.2389 C   0  0  0  0  0  0  0  0  0  0  0  0
   27.9655   -5.2869    8.3033 C   0  0  0  0  0  0  0  0  0  0  0  0
   27.9127   -6.1158    7.2838 C   0  0  0  0  0  0  0  0  0  0  0  0
   26.8840   -3.7431   11.4565 C   0  0  0  0  0  0  0  0  0  0  0  0
   27.0985   -5.1793    9.3647 O   0  0  0  0  0  0  0  0  0  0  0  0
   27.4629   -2.7181   12.1714 C   0  0  0  0  0  0  0  0  0  0  0  0
   28.6174   -2.1483   11.6835 C   0  0  0  0  0  0  0  0  0  0  0  0
   29.1752   -2.5984   10.5063 C   0  0  0  0  0  0  0  0  0  0  0  0
   28.6214   -3.6218    9.7668 C   0  0  0  0  0  0  0  0  0  0  0  0
   24.4907   -8.8655    9.3320 F   0  0  0  0  0  0  0  0  0  0  0  0
   24.2867  -10.5402    7.0480 C   0  0  0  0  0  0  0  0  0  0  0  0
   23.1233  -10.5727    6.3768 N   0  0  0  0  0  0  0  0  0  0  0  0
   22.5384  -11.7456    6.5337 N   0  0  0  0  0  0  0  0  0  0  0  0
   23.3388  -12.4566    7.3089 N   0  0  0  0  0  0  0  0  0  0  0  0
   24.3980  -11.7447    7.6284 N   0  0  0  0  0  0  0  0  0  0  0  0
   26.1467   -7.5548    8.3094 C   0  0  0  0  0  0  0  0  0  0  0  0
   26.9748   -7.2295    7.2724 C   0  0  0  0  0  0  0  0  0  0  0  0
   29.0060   -4.2683    8.5190 C   0  0  0  0  0  0  0  0  0  0  0  0
   30.0069   -4.0159    7.7826 O   0  0  0  0  0  0  0  0  0  0  0  0
   27.4659   -4.1878   10.2609 C   0  0  0  0  0  0  0  0  0  0  0  0
   25.6705   -4.3631   11.9408 C   0  0  0  0  0  0  0  0  0  0  0  0
   25.0375   -3.8250   12.8726 O   0  0  0  0  0  0  0  0  0  0  0  0
   25.2081   -5.5666   11.3625 N   0  0  0  0  0  0  0  0  0  0  0  0
  1  2  2  0
 20  1  1  0
  2  3  1  0
  3  4  2  0
  3 14  1  0
  4 13  1  0
  4 19  1  0
  5  6  2  3
  8  5  1  0
  5 21  1  0
  6 20  1  0
  7  9  2  0
 23  7  1  0
  7 24  1  0
  8 23  1  0
  9 10  1  0
 10 11  2  0
 11 12  1  0
 12 21  1  0
 12 23  2  0
 14 15  2  0
 14 18  1  0
 15 16  1  0
 16 17  2  0
 17 18  1  0
 19 20  2  0
 21 22  2  0
 24 25  2  0
 24 26  1  0
M  END
$$$$
