
     RDKit          3D

 26 29  0  0  0  0  0  0  0  0999 V2000
   26.5923   -7.8487    5.8364 C   0  0  0  0  0  0  0  0  0  0  0  0
   25.7533   -8.9343    5.7354 C   0  0  0  0  0  0  0  0  0  0  0  0
   25.2423   -9.5459    6.8712 C   0  0  0  0  0  0  0  0  0  0  0  0
   25.6217   -9.0079    8.0809 C   0  0  0  0  0  0  0  0  0  0  0  0
   28.0050   -5.3375    8.1441 C   0  0  0  0  0  0  0  0  0  0  0  0
   27.8973   -6.1766    7.1306 C   0  0  0  0  0  0  0  0  0  0  0  0
   26.9985   -3.9667   11.3935 C   0  0  0  0  0  0  0  0  0  0  0  0
   27.1876   -5.3231    9.2565 O   0  0  0  0  0  0  0  0  0  0  0  0
   27.5455   -2.9373   12.0927 C   0  0  0  0  0  0  0  0  0  0  0  0
   28.6364   -2.2706   11.5606 C   0  0  0  0  0  0  0  0  0  0  0  0
   29.1666   -2.6378   10.3411 C   0  0  0  0  0  0  0  0  0  0  0  0
   28.6202   -3.6763    9.6295 C   0  0  0  0  0  0  0  0  0  0  0  0
   25.1184   -9.6095    9.2094 F   0  0  0  0  0  0  0  0  0  0  0  0
   24.3527  -10.6961    6.7908 C   0  0  0  0  0  0  0  0  0  0  0  0
   24.6897  -11.8660    6.2300 N   0  0  0  0  0  0  0  0  0  0  0  0
   23.6702  -12.7031    6.3112 N   0  0  0  0  0  0  0  0  0  0  0  0
   22.6839  -12.0856    6.9170 N   0  0  0  0  0  0  0  0  0  0  0  0
   23.0916  -10.8717    7.2090 N   0  0  0  0  0  0  0  0  0  0  0  0
   26.4682   -7.9133    8.1822 C   0  0  0  0  0  0  0  0  0  0  0  0
   26.9822   -7.2953    7.0631 C   0  0  0  0  0  0  0  0  0  0  0  0
   28.9686   -4.2786    8.3286 C   0  0  0  0  0  0  0  0  0  0  0  0
   29.9051   -3.9111    7.5922 O   0  0  0  0  0  0  0  0  0  0  0  0
   27.5396   -4.3381   10.1548 C   0  0  0  0  0  0  0  0  0  0  0  0
   25.8472   -4.6956   11.9065 C   0  0  0  0  0  0  0  0  0  0  0  0
   25.2830   -4.3082   12.9699 O   0  0  0  0  0  0  0  0  0  0  0  0
   25.3264   -5.8401   11.2516 N   0  0  0  0  0  0  0  0  0  0  0  0
  1  2  2  0
 20  1  1  0
  2  3  1  0
  3  4  2  0
  3 14  1  0
  4 13  1  0
  4 19  1  0
  5  6  2  3
  8  5  1  0
  5 21  1  0
  6 20  1  0
  7  9  2  0
 23  7  1  0
  7 24  1  0
  8 23  1  0
  9 10  1  0
 10 11  2  0
 11 12  1  0
 12 21  1  0
 12 23  2  0
 14 15  2  0
 14 18  1  0
 15 16  1  0
 16 17  2  0
 17 18  1  0
 19 20  2  0
 21 22  2  0
 24 25  2  0
 24 26  1  0
M  END
$$$$
