
     RDKit          3D

 26 29  0  0  0  0  0  0  0  0999 V2000
   25.6439   -7.4235    7.9166 C   0  0  0  0  0  0  0  0  0  0  0  0
   24.8680   -8.5529    8.0798 C   0  0  0  0  0  0  0  0  0  0  0  0
   25.1154   -9.7353    7.4193 C   0  0  0  0  0  0  0  0  0  0  0  0
   26.1886   -9.7665    6.5651 C   0  0  0  0  0  0  0  0  0  0  0  0
   27.6456   -5.3995    7.9028 C   0  0  0  0  0  0  0  0  0  0  0  0
   27.5248   -6.2477    6.9051 C   0  0  0  0  0  0  0  0  0  0  0  0
   26.7532   -3.7662   11.0701 C   0  0  0  0  0  0  0  0  0  0  0  0
   26.8337   -5.2497    9.0020 O   0  0  0  0  0  0  0  0  0  0  0  0
   27.3889   -2.7406   11.7340 C   0  0  0  0  0  0  0  0  0  0  0  0
   28.5310   -2.2082   11.1791 C   0  0  0  0  0  0  0  0  0  0  0  0
   29.0208   -2.6955    9.9864 C   0  0  0  0  0  0  0  0  0  0  0  0
   28.4090   -3.7206    9.2968 C   0  0  0  0  0  0  0  0  0  0  0  0
   26.5363  -10.8725    5.8561 F   0  0  0  0  0  0  0  0  0  0  0  0
   24.2932  -10.9229    7.5965 C   0  0  0  0  0  0  0  0  0  0  0  0
   24.6428  -12.0331    8.2675 N   0  0  0  0  0  0  0  0  0  0  0  0
   23.6619  -12.9158    8.2322 N   0  0  0  0  0  0  0  0  0  0  0  0
   22.6880  -12.3577    7.5342 N   0  0  0  0  0  0  0  0  0  0  0  0
   23.0521  -11.1555    7.1432 N   0  0  0  0  0  0  0  0  0  0  0  0
   26.9859   -8.6316    6.3873 C   0  0  0  0  0  0  0  0  0  0  0  0
   26.7335   -7.4618    7.0466 C   0  0  0  0  0  0  0  0  0  0  0  0
   28.7180   -4.4014    8.0462 C   0  0  0  0  0  0  0  0  0  0  0  0
   29.6874   -4.1878    7.2573 O   0  0  0  0  0  0  0  0  0  0  0  0
   27.2663   -4.2489    9.8578 C   0  0  0  0  0  0  0  0  0  0  0  0
   25.5509   -4.3474   11.6253 C   0  0  0  0  0  0  0  0  0  0  0  0
   25.0433   -3.8438   12.6486 O   0  0  0  0  0  0  0  0  0  0  0  0
   24.9587   -5.4747   11.0130 N   0  0  0  0  0  0  0  0  0  0  0  0
  1  2  2  0
 20  1  1  0
  2  3  1  0
  3  4  2  0
  3 14  1  0
  4 13  1  0
  4 19  1  0
  5  6  2  3
  8  5  1  0
  5 21  1  0
  6 20  1  0
  7  9  2  0
 23  7  1  0
  7 24  1  0
  8 23  1  0
  9 10  1  0
 10 11  2  0
 11 12  1  0
 12 21  1  0
 12 23  2  0
 14 15  2  0
 14 18  1  0
 15 16  1  0
 16 17  2  0
 17 18  1  0
 19 20  2  0
 21 22  2  0
 24 25  2  0
 24 26  1  0
M  END
$$$$
