
     RDKit          3D

 26 29  0  0  0  0  0  0  0  0999 V2000
   26.6727   -8.7475    6.9549 C   0  0  0  0  0  0  0  0  0  0  0  0
   25.9511   -9.8838    7.2589 C   0  0  0  0  0  0  0  0  0  0  0  0
   25.5601  -10.2044    8.5395 C   0  0  0  0  0  0  0  0  0  0  0  0
   25.9167   -9.3382    9.5419 C   0  0  0  0  0  0  0  0  0  0  0  0
   27.8989   -5.6678    8.4401 C   0  0  0  0  0  0  0  0  0  0  0  0
   27.7927   -6.6845    7.6128 C   0  0  0  0  0  0  0  0  0  0  0  0
   26.9831   -3.5084   11.2675 C   0  0  0  0  0  0  0  0  0  0  0  0
   27.0880   -5.3389    9.5004 O   0  0  0  0  0  0  0  0  0  0  0  0
   27.5989   -2.3669   11.7306 C   0  0  0  0  0  0  0  0  0  0  0  0
   28.7271   -1.9200   11.0801 C   0  0  0  0  0  0  0  0  0  0  0  0
   29.2229   -2.6043    9.9912 C   0  0  0  0  0  0  0  0  0  0  0  0
   28.6309   -3.7495    9.5025 C   0  0  0  0  0  0  0  0  0  0  0  0
   25.5911   -9.5428   10.8453 F   0  0  0  0  0  0  0  0  0  0  0  0
   24.7988  -11.4044    8.8529 C   0  0  0  0  0  0  0  0  0  0  0  0
   25.2171  -12.4291    9.6145 N   0  0  0  0  0  0  0  0  0  0  0  0
   24.2777  -13.3531    9.6926 N   0  0  0  0  0  0  0  0  0  0  0  0
   23.2608  -12.9073    8.9753 N   0  0  0  0  0  0  0  0  0  0  0  0
   23.5583  -11.7333    8.4618 N   0  0  0  0  0  0  0  0  0  0  0  0
   26.6479   -8.1820    9.2525 C   0  0  0  0  0  0  0  0  0  0  0  0
   27.0320   -7.8710    7.9787 C   0  0  0  0  0  0  0  0  0  0  0  0
   28.9499   -4.6383    8.3930 C   0  0  0  0  0  0  0  0  0  0  0  0
   29.9115   -4.5507    7.5712 O   0  0  0  0  0  0  0  0  0  0  0  0
   27.5020   -4.1913   10.1583 C   0  0  0  0  0  0  0  0  0  0  0  0
   25.7957   -4.0044   11.9275 C   0  0  0  0  0  0  0  0  0  0  0  0
   25.2761   -3.3308   12.8411 O   0  0  0  0  0  0  0  0  0  0  0  0
   25.2314   -5.2404   11.5396 N   0  0  0  0  0  0  0  0  0  0  0  0
  1  2  2  0
 20  1  1  0
  2  3  1  0
  3  4  2  0
  3 14  1  0
  4 13  1  0
  4 19  1  0
  5  6  2  3
  8  5  1  0
  5 21  1  0
  6 20  1  0
  7  9  2  0
 23  7  1  0
  7 24  1  0
  8 23  1  0
  9 10  1  0
 10 11  2  0
 11 12  1  0
 12 21  1  0
 12 23  2  0
 14 15  2  0
 14 18  1  0
 15 16  1  0
 16 17  2  0
 17 18  1  0
 19 20  2  0
 21 22  2  0
 24 25  2  0
 24 26  1  0
M  END
$$$$
