
     RDKit          3D

 26 29  0  0  0  0  0  0  0  0999 V2000
   26.8810   -8.4349    6.1017 C   0  0  0  0  0  0  0  0  0  0  0  0
   25.9672   -9.4671    6.0414 C   0  0  0  0  0  0  0  0  0  0  0  0
   24.7939   -9.4738    6.7617 C   0  0  0  0  0  0  0  0  0  0  0  0
   24.5449   -8.3930    7.5692 C   0  0  0  0  0  0  0  0  0  0  0  0
   27.6743   -5.4378    7.9717 C   0  0  0  0  0  0  0  0  0  0  0  0
   27.6129   -6.2726    6.9575 C   0  0  0  0  0  0  0  0  0  0  0  0
   26.6404   -3.9004   11.1440 C   0  0  0  0  0  0  0  0  0  0  0  0
   26.8320   -5.3423    9.0539 O   0  0  0  0  0  0  0  0  0  0  0  0
   27.2160   -2.8604   11.8396 C   0  0  0  0  0  0  0  0  0  0  0  0
   28.3463   -2.2698   11.3205 C   0  0  0  0  0  0  0  0  0  0  0  0
   28.8837   -2.7145   10.1317 C   0  0  0  0  0  0  0  0  0  0  0  0
   28.3325   -3.7526    9.4109 C   0  0  0  0  0  0  0  0  0  0  0  0
   23.4237   -8.2814    8.3290 F   0  0  0  0  0  0  0  0  0  0  0  0
   23.8343  -10.5658    6.6930 C   0  0  0  0  0  0  0  0  0  0  0  0
   22.6464  -10.5355    6.0661 N   0  0  0  0  0  0  0  0  0  0  0  0
   22.0294  -11.6946    6.2010 N   0  0  0  0  0  0  0  0  0  0  0  0
   22.8341  -12.4600    6.9177 N   0  0  0  0  0  0  0  0  0  0  0  0
   23.9273  -11.7948    7.2229 N   0  0  0  0  0  0  0  0  0  0  0  0
   25.4595   -7.3378    7.6429 C   0  0  0  0  0  0  0  0  0  0  0  0
   26.6219   -7.3389    6.9247 C   0  0  0  0  0  0  0  0  0  0  0  0
   28.6990   -4.3973    8.1568 C   0  0  0  0  0  0  0  0  0  0  0  0
   29.6759   -4.1285    7.3944 O   0  0  0  0  0  0  0  0  0  0  0  0
   27.2013   -4.3392    9.9362 C   0  0  0  0  0  0  0  0  0  0  0  0
   25.4521   -4.5422   11.6611 C   0  0  0  0  0  0  0  0  0  0  0  0
   24.9290   -4.1096   12.7088 O   0  0  0  0  0  0  0  0  0  0  0  0
   24.8909   -5.6486   10.9846 N   0  0  0  0  0  0  0  0  0  0  0  0
  1  2  2  0
 20  1  1  0
  2  3  1  0
  3  4  2  0
  3 14  1  0
  4 13  1  0
  4 19  1  0
  5  6  2  3
  8  5  1  0
  5 21  1  0
  6 20  1  0
  7  9  2  0
 23  7  1  0
  7 24  1  0
  8 23  1  0
  9 10  1  0
 10 11  2  0
 11 12  1  0
 12 21  1  0
 12 23  2  0
 14 15  2  0
 14 18  1  0
 15 16  1  0
 16 17  2  0
 17 18  1  0
 19 20  2  0
 21 22  2  0
 24 25  2  0
 24 26  1  0
M  END
$$$$
