
     RDKit          3D

 26 29  0  0  0  0  0  0  0  0999 V2000
   26.1012   -7.2274    5.8693 C   0  0  0  0  0  0  0  0  0  0  0  0
   25.1253   -8.1859    5.6871 C   0  0  0  0  0  0  0  0  0  0  0  0
   24.8302   -9.1451    6.6297 C   0  0  0  0  0  0  0  0  0  0  0  0
   25.5537   -9.1258    7.7952 C   0  0  0  0  0  0  0  0  0  0  0  0
   27.8116   -5.3331    8.2080 C   0  0  0  0  0  0  0  0  0  0  0  0
   27.8526   -6.1844    7.2065 C   0  0  0  0  0  0  0  0  0  0  0  0
   26.5466   -3.8379   11.3160 C   0  0  0  0  0  0  0  0  0  0  0  0
   26.9259   -5.2895    9.2585 O   0  0  0  0  0  0  0  0  0  0  0  0
   27.0132   -2.7458   12.0136 C   0  0  0  0  0  0  0  0  0  0  0  0
   28.1115   -2.0750   11.5241 C   0  0  0  0  0  0  0  0  0  0  0  0
   28.7246   -2.4925   10.3624 C   0  0  0  0  0  0  0  0  0  0  0  0
   28.2830   -3.5810    9.6406 C   0  0  0  0  0  0  0  0  0  0  0  0
   25.3574  -10.0182    8.8011 F   0  0  0  0  0  0  0  0  0  0  0  0
   23.7993  -10.1530    6.4311 C   0  0  0  0  0  0  0  0  0  0  0  0
   23.7030  -10.9890    5.3838 N   0  0  0  0  0  0  0  0  0  0  0  0
   22.6501  -11.7732    5.5211 N   0  0  0  0  0  0  0  0  0  0  0  0
   22.0795  -11.4287    6.6625 N   0  0  0  0  0  0  0  0  0  0  0  0
   22.7598  -10.4529    7.2244 N   0  0  0  0  0  0  0  0  0  0  0  0
   26.5464   -8.1620    7.9972 C   0  0  0  0  0  0  0  0  0  0  0  0
   26.8331   -7.2133    7.0566 C   0  0  0  0  0  0  0  0  0  0  0  0
   28.7439   -4.2123    8.4110 C   0  0  0  0  0  0  0  0  0  0  0  0
   29.7235   -3.8778    7.6787 O   0  0  0  0  0  0  0  0  0  0  0  0
   27.1833   -4.2478   10.1360 C   0  0  0  0  0  0  0  0  0  0  0  0
   25.3945   -4.5644   11.8023 C   0  0  0  0  0  0  0  0  0  0  0  0
   24.8004   -4.1587   12.8225 O   0  0  0  0  0  0  0  0  0  0  0  0
   24.9481   -5.7224   11.1268 N   0  0  0  0  0  0  0  0  0  0  0  0
  1  2  2  0
 20  1  1  0
  2  3  1  0
  3  4  2  0
  3 14  1  0
  4 13  1  0
  4 19  1  0
  5  6  2  3
  8  5  1  0
  5 21  1  0
  6 20  1  0
  7  9  2  0
 23  7  1  0
  7 24  1  0
  8 23  1  0
  9 10  1  0
 10 11  2  0
 11 12  1  0
 12 21  1  0
 12 23  2  0
 14 15  2  0
 14 18  1  0
 15 16  1  0
 16 17  2  0
 17 18  1  0
 19 20  2  0
 21 22  2  0
 24 25  2  0
 24 26  1  0
M  END
$$$$
