
     RDKit          3D

 26 29  0  0  0  0  0  0  0  0999 V2000
   22.9733   -8.0565   10.8753 C   0  0  0  0  0  0  0  0  0  0  0  0
   22.7646   -9.2666   10.2458 C   0  0  0  0  0  0  0  0  0  0  0  0
   23.5051   -9.6874    9.1640 C   0  0  0  0  0  0  0  0  0  0  0  0
   24.4899   -8.8468    8.7100 C   0  0  0  0  0  0  0  0  0  0  0  0
   25.2578   -5.2327   10.9373 C   0  0  0  0  0  0  0  0  0  0  0  0
   24.1617   -5.9401   11.1030 C   0  0  0  0  0  0  0  0  0  0  0  0
   28.3590   -4.1507    9.2917 C   0  0  0  0  0  0  0  0  0  0  0  0
   26.1850   -5.3152    9.9256 O   0  0  0  0  0  0  0  0  0  0  0  0
   29.2533   -3.1734    9.6687 C   0  0  0  0  0  0  0  0  0  0  0  0
   29.0026   -2.4640   10.8217 C   0  0  0  0  0  0  0  0  0  0  0  0
   27.8805   -2.7312   11.5763 C   0  0  0  0  0  0  0  0  0  0  0  0
   26.9659   -3.7021   11.2273 C   0  0  0  0  0  0  0  0  0  0  0  0
   25.2876   -9.1475    7.6518 F   0  0  0  0  0  0  0  0  0  0  0  0
   23.2799  -10.9652    8.5050 C   0  0  0  0  0  0  0  0  0  0  0  0
   23.8429  -12.1378    8.8414 N   0  0  0  0  0  0  0  0  0  0  0  0
   23.4197  -13.0948    8.0368 N   0  0  0  0  0  0  0  0  0  0  0  0
   22.5845  -12.5211    7.1880 N   0  0  0  0  0  0  0  0  0  0  0  0
   22.4886  -11.2368    7.4562 N   0  0  0  0  0  0  0  0  0  0  0  0
   24.7155   -7.6167    9.3356 C   0  0  0  0  0  0  0  0  0  0  0  0
   23.9761   -7.2065   10.4088 C   0  0  0  0  0  0  0  0  0  0  0  0
   25.7286   -4.1688   11.8390 C   0  0  0  0  0  0  0  0  0  0  0  0
   25.1780   -3.7569   12.9044 O   0  0  0  0  0  0  0  0  0  0  0  0
   27.2229   -4.4084   10.0721 C   0  0  0  0  0  0  0  0  0  0  0  0
   28.5930   -4.9148    8.0864 C   0  0  0  0  0  0  0  0  0  0  0  0
   29.5761   -4.6396    7.3679 O   0  0  0  0  0  0  0  0  0  0  0  0
   27.7151   -5.9624    7.7279 N   0  0  0  0  0  0  0  0  0  0  0  0
  1  2  2  0
 20  1  1  0
  2  3  1  0
  3  4  2  0
  3 14  1  0
  4 13  1  0
  4 19  1  0
  5  6  2  3
  8  5  1  0
  5 21  1  0
  6 20  1  0
  7  9  2  0
 23  7  1  0
  7 24  1  0
  8 23  1  0
  9 10  1  0
 10 11  2  0
 11 12  1  0
 12 21  1  0
 12 23  2  0
 14 15  2  0
 14 18  1  0
 15 16  1  0
 16 17  2  0
 17 18  1  0
 19 20  2  0
 21 22  2  0
 24 25  2  0
 24 26  1  0
M  END
$$$$
