
     RDKit          3D

 26 29  0  0  0  0  0  0  0  0999 V2000
   26.6289   -8.1350    9.3072 C   0  0  0  0  0  0  0  0  0  0  0  0
   26.0888   -9.3132    9.7808 C   0  0  0  0  0  0  0  0  0  0  0  0
   25.6953  -10.3432    8.9563 C   0  0  0  0  0  0  0  0  0  0  0  0
   25.8579  -10.1655    7.6056 C   0  0  0  0  0  0  0  0  0  0  0  0
   27.5615   -5.7067    8.3139 C   0  0  0  0  0  0  0  0  0  0  0  0
   27.3655   -6.7023    7.4774 C   0  0  0  0  0  0  0  0  0  0  0  0
   26.9113   -3.5761   11.2352 C   0  0  0  0  0  0  0  0  0  0  0  0
   26.8351   -5.3728    9.4323 O   0  0  0  0  0  0  0  0  0  0  0  0
   27.5955   -2.4652   11.6762 C   0  0  0  0  0  0  0  0  0  0  0  0
   28.6923   -2.0426   10.9592 C   0  0  0  0  0  0  0  0  0  0  0  0
   29.0905   -2.7207    9.8272 C   0  0  0  0  0  0  0  0  0  0  0  0
   28.4282   -3.8355    9.3589 C   0  0  0  0  0  0  0  0  0  0  0  0
   25.5086  -11.1065    6.6895 F   0  0  0  0  0  0  0  0  0  0  0  0
   25.1267  -11.5835    9.4626 C   0  0  0  0  0  0  0  0  0  0  0  0
   25.2893  -12.8043    8.9258 N   0  0  0  0  0  0  0  0  0  0  0  0
   24.6372  -13.7058    9.6361 N   0  0  0  0  0  0  0  0  0  0  0  0
   24.0602  -13.0483   10.6269 N   0  0  0  0  0  0  0  0  0  0  0  0
   24.3450  -11.7672   10.5374 N   0  0  0  0  0  0  0  0  0  0  0  0
   26.4034   -8.9781    7.1078 C   0  0  0  0  0  0  0  0  0  0  0  0
   26.7916   -7.9606    7.9329 C   0  0  0  0  0  0  0  0  0  0  0  0
   28.6417   -4.7117    8.2146 C   0  0  0  0  0  0  0  0  0  0  0  0
   29.5486   -4.6391    7.3314 O   0  0  0  0  0  0  0  0  0  0  0  0
   27.3312   -4.2531   10.0813 C   0  0  0  0  0  0  0  0  0  0  0  0
   25.7544   -4.0460   11.9648 C   0  0  0  0  0  0  0  0  0  0  0  0
   25.2297   -3.3067   12.8230 O   0  0  0  0  0  0  0  0  0  0  0  0
   25.2253   -5.3305   11.7064 N   0  0  0  0  0  0  0  0  0  0  0  0
  1  2  2  0
 20  1  1  0
  2  3  1  0
  3  4  2  0
  3 14  1  0
  4 13  1  0
  4 19  1  0
  5  6  2  3
  8  5  1  0
  5 21  1  0
  6 20  1  0
  7  9  2  0
 23  7  1  0
  7 24  1  0
  8 23  1  0
  9 10  1  0
 10 11  2  0
 11 12  1  0
 12 21  1  0
 12 23  2  0
 14 15  2  0
 14 18  1  0
 15 16  1  0
 16 17  2  0
 17 18  1  0
 19 20  2  0
 21 22  2  0
 24 25  2  0
 24 26  1  0
M  END
$$$$
