
     RDKit          3D

 26 29  0  0  0  0  0  0  0  0999 V2000
   27.1105   -9.6455    7.7850 C   0  0  0  0  0  0  0  0  0  0  0  0
   26.5537  -10.8197    8.2366 C   0  0  0  0  0  0  0  0  0  0  0  0
   25.6423  -10.8179    9.2828 C   0  0  0  0  0  0  0  0  0  0  0  0
   25.3380   -9.5909    9.8291 C   0  0  0  0  0  0  0  0  0  0  0  0
   27.6194   -6.0846    8.5675 C   0  0  0  0  0  0  0  0  0  0  0  0
   27.4407   -7.1839    7.8587 C   0  0  0  0  0  0  0  0  0  0  0  0
   26.7841   -3.7453   11.2657 C   0  0  0  0  0  0  0  0  0  0  0  0
   26.8412   -5.6919    9.6381 O   0  0  0  0  0  0  0  0  0  0  0  0
   27.3993   -2.5828   11.6093 C   0  0  0  0  0  0  0  0  0  0  0  0
   28.5001   -2.1661   10.8798 C   0  0  0  0  0  0  0  0  0  0  0  0
   28.9723   -2.9119    9.8196 C   0  0  0  0  0  0  0  0  0  0  0  0
   28.3569   -4.0868    9.4669 C   0  0  0  0  0  0  0  0  0  0  0  0
   24.4356   -9.5830   10.8657 F   0  0  0  0  0  0  0  0  0  0  0  0
   25.0392  -12.0471    9.7790 C   0  0  0  0  0  0  0  0  0  0  0  0
   25.7403  -13.1163   10.1813 N   0  0  0  0  0  0  0  0  0  0  0  0
   24.9090  -14.0672   10.5704 N   0  0  0  0  0  0  0  0  0  0  0  0
   23.6838  -13.6218   10.4232 N   0  0  0  0  0  0  0  0  0  0  0  0
   23.7572  -12.4006    9.9450 N   0  0  0  0  0  0  0  0  0  0  0  0
   25.9001   -8.4071    9.3736 C   0  0  0  0  0  0  0  0  0  0  0  0
   26.8054   -8.3935    8.3349 C   0  0  0  0  0  0  0  0  0  0  0  0
   28.6345   -5.0714    8.4040 C   0  0  0  0  0  0  0  0  0  0  0  0
   29.5610   -4.9932    7.5735 O   0  0  0  0  0  0  0  0  0  0  0  0
   27.2663   -4.5014   10.1883 C   0  0  0  0  0  0  0  0  0  0  0  0
   25.6196   -4.2237   11.9971 C   0  0  0  0  0  0  0  0  0  0  0  0
   25.1394   -3.5266   12.9366 O   0  0  0  0  0  0  0  0  0  0  0  0
   24.9938   -5.4591   11.6934 N   0  0  0  0  0  0  0  0  0  0  0  0
  1  2  2  0
 20  1  1  0
  2  3  1  0
  3  4  2  0
  3 14  1  0
  4 13  1  0
  4 19  1  0
  5  6  2  3
  8  5  1  0
  5 21  1  0
  6 20  1  0
  7  9  2  0
 23  7  1  0
  7 24  1  0
  8 23  1  0
  9 10  1  0
 10 11  2  0
 11 12  1  0
 12 21  1  0
 12 23  2  0
 14 15  2  0
 14 18  1  0
 15 16  1  0
 16 17  2  0
 17 18  1  0
 19 20  2  0
 21 22  2  0
 24 25  2  0
 24 26  1  0
M  END
$$$$
