
     RDKit          3D

 26 29  0  0  0  0  0  0  0  0999 V2000
   25.8598   -7.7530    8.3278 C   0  0  0  0  0  0  0  0  0  0  0  0
   24.9293   -8.7664    8.3310 C   0  0  0  0  0  0  0  0  0  0  0  0
   24.7115   -9.5350    7.1964 C   0  0  0  0  0  0  0  0  0  0  0  0
   25.4702   -9.2241    6.0900 C   0  0  0  0  0  0  0  0  0  0  0  0
   27.6759   -5.4305    8.1879 C   0  0  0  0  0  0  0  0  0  0  0  0
   27.5775   -6.3329    7.2294 C   0  0  0  0  0  0  0  0  0  0  0  0
   26.6117   -3.8265   11.3096 C   0  0  0  0  0  0  0  0  0  0  0  0
   26.8292   -5.3256    9.2732 O   0  0  0  0  0  0  0  0  0  0  0  0
   27.1619   -2.7639   11.9548 C   0  0  0  0  0  0  0  0  0  0  0  0
   28.2811   -2.1561   11.4111 C   0  0  0  0  0  0  0  0  0  0  0  0
   28.8361   -2.6142   10.2342 C   0  0  0  0  0  0  0  0  0  0  0  0
   28.2866   -3.6867    9.5773 C   0  0  0  0  0  0  0  0  0  0  0  0
   25.2588   -9.9822    4.9633 F   0  0  0  0  0  0  0  0  0  0  0  0
   23.7324  -10.6129    7.1745 C   0  0  0  0  0  0  0  0  0  0  0  0
   24.0326  -11.9018    7.3870 N   0  0  0  0  0  0  0  0  0  0  0  0
   22.9335  -12.6304    7.2978 N   0  0  0  0  0  0  0  0  0  0  0  0
   21.9323  -11.8256    7.0311 N   0  0  0  0  0  0  0  0  0  0  0  0
   22.4103  -10.6045    6.9556 N   0  0  0  0  0  0  0  0  0  0  0  0
   26.4081   -8.2017    6.0871 C   0  0  0  0  0  0  0  0  0  0  0  0
   26.6359   -7.4313    7.2066 C   0  0  0  0  0  0  0  0  0  0  0  0
   28.6570   -4.3811    8.3295 C   0  0  0  0  0  0  0  0  0  0  0  0
   29.6210   -4.0823    7.5975 O   0  0  0  0  0  0  0  0  0  0  0  0
   27.1780   -4.2902   10.1141 C   0  0  0  0  0  0  0  0  0  0  0  0
   25.4313   -4.4964   11.8366 C   0  0  0  0  0  0  0  0  0  0  0  0
   24.8547   -4.0352   12.8633 O   0  0  0  0  0  0  0  0  0  0  0  0
   24.8952   -5.6632   11.2356 N   0  0  0  0  0  0  0  0  0  0  0  0
  1  2  2  0
 20  1  1  0
  2  3  1  0
  3  4  2  0
  3 14  1  0
  4 13  1  0
  4 19  1  0
  5  6  2  3
  8  5  1  0
  5 21  1  0
  6 20  1  0
  7  9  2  0
 23  7  1  0
  7 24  1  0
  8 23  1  0
  9 10  1  0
 10 11  2  0
 11 12  1  0
 12 21  1  0
 12 23  2  0
 14 15  2  0
 14 18  1  0
 15 16  1  0
 16 17  2  0
 17 18  1  0
 19 20  2  0
 21 22  2  0
 24 25  2  0
 24 26  1  0
M  END
$$$$
