
     RDKit          3D

 26 29  0  0  0  0  0  0  0  0999 V2000
   25.7556   -7.2429    8.1786 C   0  0  0  0  0  0  0  0  0  0  0  0
   24.8191   -8.2563    8.1994 C   0  0  0  0  0  0  0  0  0  0  0  0
   24.6645   -9.1566    7.1694 C   0  0  0  0  0  0  0  0  0  0  0  0
   25.4916   -9.0188    6.0835 C   0  0  0  0  0  0  0  0  0  0  0  0
   27.6268   -5.1895    8.1052 C   0  0  0  0  0  0  0  0  0  0  0  0
   27.5668   -6.0256    7.0919 C   0  0  0  0  0  0  0  0  0  0  0  0
   26.6101   -3.6722   11.2926 C   0  0  0  0  0  0  0  0  0  0  0  0
   26.7989   -5.1105    9.1998 O   0  0  0  0  0  0  0  0  0  0  0  0
   27.1753   -2.6209   11.9797 C   0  0  0  0  0  0  0  0  0  0  0  0
   28.2859   -2.0083   11.4440 C   0  0  0  0  0  0  0  0  0  0  0  0
   28.8142   -2.4426   10.2472 C   0  0  0  0  0  0  0  0  0  0  0  0
   28.2730   -3.4914    9.5346 C   0  0  0  0  0  0  0  0  0  0  0  0
   25.4375   -9.8434    5.0046 F   0  0  0  0  0  0  0  0  0  0  0  0
   23.6749  -10.2233    7.1982 C   0  0  0  0  0  0  0  0  0  0  0  0
   22.3409  -10.0641    7.1869 N   0  0  0  0  0  0  0  0  0  0  0  0
   21.7406  -11.2391    7.2208 N   0  0  0  0  0  0  0  0  0  0  0  0
   22.7030  -12.1446    7.2538 N   0  0  0  0  0  0  0  0  0  0  0  0
   23.8760  -11.5491    7.2407 N   0  0  0  0  0  0  0  0  0  0  0  0
   26.4463   -7.9979    6.0450 C   0  0  0  0  0  0  0  0  0  0  0  0
   26.5934   -7.1083    7.0715 C   0  0  0  0  0  0  0  0  0  0  0  0
   28.6334   -4.1290    8.2751 C   0  0  0  0  0  0  0  0  0  0  0  0
   29.5934   -3.8411    7.4984 O   0  0  0  0  0  0  0  0  0  0  0  0
   27.1615   -4.1001   10.0766 C   0  0  0  0  0  0  0  0  0  0  0  0
   25.4424   -4.3372   11.8273 C   0  0  0  0  0  0  0  0  0  0  0  0
   24.9167   -3.9048   12.8737 O   0  0  0  0  0  0  0  0  0  0  0  0
   24.9041   -5.4658   11.1691 N   0  0  0  0  0  0  0  0  0  0  0  0
  1  2  2  0
 20  1  1  0
  2  3  1  0
  3  4  2  0
  3 14  1  0
  4 13  1  0
  4 19  1  0
  5  6  2  3
  8  5  1  0
  5 21  1  0
  6 20  1  0
  7  9  2  0
 23  7  1  0
  7 24  1  0
  8 23  1  0
  9 10  1  0
 10 11  2  0
 11 12  1  0
 12 21  1  0
 12 23  2  0
 14 15  2  0
 14 18  1  0
 15 16  1  0
 16 17  2  0
 17 18  1  0
 19 20  2  0
 21 22  2  0
 24 25  2  0
 24 26  1  0
M  END
$$$$
