
     RDKit          3D

 26 29  0  0  0  0  0  0  0  0999 V2000
   26.4600   -7.8850    8.6444 C   0  0  0  0  0  0  0  0  0  0  0  0
   25.7285   -9.0318    8.8767 C   0  0  0  0  0  0  0  0  0  0  0  0
   25.1609   -9.7772    7.8679 C   0  0  0  0  0  0  0  0  0  0  0  0
   25.3454   -9.3386    6.5810 C   0  0  0  0  0  0  0  0  0  0  0  0
   27.5400   -5.3379    8.0936 C   0  0  0  0  0  0  0  0  0  0  0  0
   27.4225   -6.2302    7.1348 C   0  0  0  0  0  0  0  0  0  0  0  0
   26.6436   -3.5712   11.1874 C   0  0  0  0  0  0  0  0  0  0  0  0
   26.7293   -5.1445    9.1869 O   0  0  0  0  0  0  0  0  0  0  0  0
   27.2744   -2.5134   11.8038 C   0  0  0  0  0  0  0  0  0  0  0  0
   28.4121   -1.9993   11.2233 C   0  0  0  0  0  0  0  0  0  0  0  0
   28.9027   -2.5360   10.0524 C   0  0  0  0  0  0  0  0  0  0  0  0
   28.2958   -3.5943    9.4102 C   0  0  0  0  0  0  0  0  0  0  0  0
   24.8362   -9.9859    5.5000 F   0  0  0  0  0  0  0  0  0  0  0  0
   24.3909  -10.9860    8.1200 C   0  0  0  0  0  0  0  0  0  0  0  0
   23.1315  -11.2197    7.7145 N   0  0  0  0  0  0  0  0  0  0  0  0
   22.7376  -12.4145    8.1139 N   0  0  0  0  0  0  0  0  0  0  0  0
   23.7557  -12.9370    8.7754 N   0  0  0  0  0  0  0  0  0  0  0  0
   24.7611  -12.0887    8.7887 N   0  0  0  0  0  0  0  0  0  0  0  0
   26.0838   -8.1787    6.3267 C   0  0  0  0  0  0  0  0  0  0  0  0
   26.6439   -7.4445    7.3338 C   0  0  0  0  0  0  0  0  0  0  0  0
   28.6066   -4.3281    8.1904 C   0  0  0  0  0  0  0  0  0  0  0  0
   29.5732   -4.1438    7.3907 O   0  0  0  0  0  0  0  0  0  0  0  0
   27.1574   -4.1041    9.9965 C   0  0  0  0  0  0  0  0  0  0  0  0
   25.4460   -4.1344   11.7704 C   0  0  0  0  0  0  0  0  0  0  0  0
   24.8445   -3.5032   12.6638 O   0  0  0  0  0  0  0  0  0  0  0  0
   24.9636   -5.3877   11.3307 N   0  0  0  0  0  0  0  0  0  0  0  0
  1  2  2  0
 20  1  1  0
  2  3  1  0
  3  4  2  0
  3 14  1  0
  4 13  1  0
  4 19  1  0
  5  6  2  3
  8  5  1  0
  5 21  1  0
  6 20  1  0
  7  9  2  0
 23  7  1  0
  7 24  1  0
  8 23  1  0
  9 10  1  0
 10 11  2  0
 11 12  1  0
 12 21  1  0
 12 23  2  0
 14 15  2  0
 14 18  1  0
 15 16  1  0
 16 17  2  0
 17 18  1  0
 19 20  2  0
 21 22  2  0
 24 25  2  0
 24 26  1  0
M  END
$$$$
