
     RDKit          3D

 26 29  0  0  0  0  0  0  0  0999 V2000
   25.6908   -7.3580    8.5292 C   0  0  0  0  0  0  0  0  0  0  0  0
   24.9623   -8.5139    8.7227 C   0  0  0  0  0  0  0  0  0  0  0  0
   25.1877   -9.6710    8.0115 C   0  0  0  0  0  0  0  0  0  0  0  0
   26.1881   -9.6482    7.0730 C   0  0  0  0  0  0  0  0  0  0  0  0
   27.5991   -5.2593    8.4019 C   0  0  0  0  0  0  0  0  0  0  0  0
   27.4499   -6.1010    7.4026 C   0  0  0  0  0  0  0  0  0  0  0  0
   26.7571   -3.5970   11.5679 C   0  0  0  0  0  0  0  0  0  0  0  0
   26.7890   -5.0799    9.4980 O   0  0  0  0  0  0  0  0  0  0  0  0
   27.4291   -2.5974   12.2358 C   0  0  0  0  0  0  0  0  0  0  0  0
   28.5930   -2.1086   11.6863 C   0  0  0  0  0  0  0  0  0  0  0  0
   29.0687   -2.6129   10.4949 C   0  0  0  0  0  0  0  0  0  0  0  0
   28.4207   -3.6128    9.8013 C   0  0  0  0  0  0  0  0  0  0  0  0
   26.5072  -10.7247    6.3074 F   0  0  0  0  0  0  0  0  0  0  0  0
   24.4157  -10.8867    8.2211 C   0  0  0  0  0  0  0  0  0  0  0  0
   24.8585  -12.0133    8.8041 N   0  0  0  0  0  0  0  0  0  0  0  0
   23.8997  -12.9201    8.8320 N   0  0  0  0  0  0  0  0  0  0  0  0
   22.8460  -12.3610    8.2627 N   0  0  0  0  0  0  0  0  0  0  0  0
   23.1398  -11.1345    7.8884 N   0  0  0  0  0  0  0  0  0  0  0  0
   26.9366   -8.4858    6.8632 C   0  0  0  0  0  0  0  0  0  0  0  0
   26.7066   -7.3414    7.5734 C   0  0  0  0  0  0  0  0  0  0  0  0
   28.7084   -4.3034    8.5511 C   0  0  0  0  0  0  0  0  0  0  0  0
   29.6886   -4.1262    7.7664 O   0  0  0  0  0  0  0  0  0  0  0  0
   27.2563   -4.0975   10.3570 C   0  0  0  0  0  0  0  0  0  0  0  0
   25.5311   -4.1322   12.1174 C   0  0  0  0  0  0  0  0  0  0  0  0
   25.0255   -3.5951   13.1246 O   0  0  0  0  0  0  0  0  0  0  0  0
   24.9136   -5.2527   11.5176 N   0  0  0  0  0  0  0  0  0  0  0  0
  1  2  2  0
 20  1  1  0
  2  3  1  0
  3  4  2  0
  3 14  1  0
  4 13  1  0
  4 19  1  0
  5  6  2  3
  8  5  1  0
  5 21  1  0
  6 20  1  0
  7  9  2  0
 23  7  1  0
  7 24  1  0
  8 23  1  0
  9 10  1  0
 10 11  2  0
 11 12  1  0
 12 21  1  0
 12 23  2  0
 14 15  2  0
 14 18  1  0
 15 16  1  0
 16 17  2  0
 17 18  1  0
 19 20  2  0
 21 22  2  0
 24 25  2  0
 24 26  1  0
M  END
$$$$
