
     RDKit          3D

 26 29  0  0  0  0  0  0  0  0999 V2000
   27.0634   -8.4344    6.2599 C   0  0  0  0  0  0  0  0  0  0  0  0
   26.1678   -9.4774    6.2061 C   0  0  0  0  0  0  0  0  0  0  0  0
   24.9544   -9.4075    6.8756 C   0  0  0  0  0  0  0  0  0  0  0  0
   24.7099   -8.2516    7.5831 C   0  0  0  0  0  0  0  0  0  0  0  0
   27.9128   -5.3124    8.0171 C   0  0  0  0  0  0  0  0  0  0  0  0
   27.8045   -6.1954    7.0417 C   0  0  0  0  0  0  0  0  0  0  0  0
   26.8490   -3.7371   11.1535 C   0  0  0  0  0  0  0  0  0  0  0  0
   27.0554   -5.2056    9.0938 O   0  0  0  0  0  0  0  0  0  0  0  0
   27.4168   -2.6996   11.8238 C   0  0  0  0  0  0  0  0  0  0  0  0
   28.5571   -2.1101   11.3045 C   0  0  0  0  0  0  0  0  0  0  0  0
   29.1154   -2.5612   10.1264 C   0  0  0  0  0  0  0  0  0  0  0  0
   28.5483   -3.6083    9.4442 C   0  0  0  0  0  0  0  0  0  0  0  0
   23.5094   -8.1767    8.2481 F   0  0  0  0  0  0  0  0  0  0  0  0
   23.9898  -10.4978    6.8343 C   0  0  0  0  0  0  0  0  0  0  0  0
   22.9758  -10.5682    5.9605 N   0  0  0  0  0  0  0  0  0  0  0  0
   22.2807  -11.6706    6.1804 N   0  0  0  0  0  0  0  0  0  0  0  0
   22.8358  -12.3083    7.1836 N   0  0  0  0  0  0  0  0  0  0  0  0
   23.8697  -11.6032    7.5825 N   0  0  0  0  0  0  0  0  0  0  0  0
   25.6136   -7.2003    7.6374 C   0  0  0  0  0  0  0  0  0  0  0  0
   26.8216   -7.2552    6.9768 C   0  0  0  0  0  0  0  0  0  0  0  0
   28.9173   -4.2899    8.1889 C   0  0  0  0  0  0  0  0  0  0  0  0
   29.8972   -4.0022    7.4739 O   0  0  0  0  0  0  0  0  0  0  0  0
   27.4187   -4.1938    9.9569 C   0  0  0  0  0  0  0  0  0  0  0  0
   25.6462   -4.3869   11.6544 C   0  0  0  0  0  0  0  0  0  0  0  0
   25.0891   -3.9520   12.7031 O   0  0  0  0  0  0  0  0  0  0  0  0
   25.0667   -5.5051   11.0035 N   0  0  0  0  0  0  0  0  0  0  0  0
  1  2  2  0
 20  1  1  0
  2  3  1  0
  3  4  2  0
  3 14  1  0
  4 13  1  0
  4 19  1  0
  5  6  2  3
  8  5  1  0
  5 21  1  0
  6 20  1  0
  7  9  2  0
 23  7  1  0
  7 24  1  0
  8 23  1  0
  9 10  1  0
 10 11  2  0
 11 12  1  0
 12 21  1  0
 12 23  2  0
 14 15  2  0
 14 18  1  0
 15 16  1  0
 16 17  2  0
 17 18  1  0
 19 20  2  0
 21 22  2  0
 24 25  2  0
 24 26  1  0
M  END
$$$$
