
     RDKit          3D

 26 29  0  0  0  0  0  0  0  0999 V2000
   24.6685   -7.4289    9.1641 C   0  0  0  0  0  0  0  0  0  0  0  0
   24.4778   -8.5733    8.4246 C   0  0  0  0  0  0  0  0  0  0  0  0
   23.4075   -9.4172    8.6842 C   0  0  0  0  0  0  0  0  0  0  0  0
   22.5664   -9.0438    9.7087 C   0  0  0  0  0  0  0  0  0  0  0  0
   25.1328   -5.0740   10.8730 C   0  0  0  0  0  0  0  0  0  0  0  0
   24.0718   -5.8509   10.9883 C   0  0  0  0  0  0  0  0  0  0  0  0
   28.1889   -3.9150    9.2094 C   0  0  0  0  0  0  0  0  0  0  0  0
   26.0631   -5.1419    9.8552 O   0  0  0  0  0  0  0  0  0  0  0  0
   29.0339   -2.9149    9.5752 C   0  0  0  0  0  0  0  0  0  0  0  0
   28.7610   -2.1944   10.7259 C   0  0  0  0  0  0  0  0  0  0  0  0
   27.6519   -2.4795   11.4952 C   0  0  0  0  0  0  0  0  0  0  0  0
   26.7940   -3.4872   11.1321 C   0  0  0  0  0  0  0  0  0  0  0  0
   21.5042   -9.8759    9.9702 F   0  0  0  0  0  0  0  0  0  0  0  0
   23.1840  -10.6341    7.9159 C   0  0  0  0  0  0  0  0  0  0  0  0
   22.6855  -10.6536    6.6719 N   0  0  0  0  0  0  0  0  0  0  0  0
   22.6005  -11.9036    6.2511 N   0  0  0  0  0  0  0  0  0  0  0  0
   23.0383  -12.6860    7.2088 N   0  0  0  0  0  0  0  0  0  0  0  0
   23.3924  -11.9231    8.2177 N   0  0  0  0  0  0  0  0  0  0  0  0
   22.7593   -7.8899   10.4545 C   0  0  0  0  0  0  0  0  0  0  0  0
   23.8170   -7.0419   10.2072 C   0  0  0  0  0  0  0  0  0  0  0  0
   25.5563   -4.0050   11.7458 C   0  0  0  0  0  0  0  0  0  0  0  0
   25.0352   -3.5719   12.7923 O   0  0  0  0  0  0  0  0  0  0  0  0
   27.0624   -4.2021    9.9927 C   0  0  0  0  0  0  0  0  0  0  0  0
   28.4348   -4.7058    8.0119 C   0  0  0  0  0  0  0  0  0  0  0  0
   29.4372   -4.4482    7.2853 O   0  0  0  0  0  0  0  0  0  0  0  0
   27.5815   -5.7689    7.6221 N   0  0  0  0  0  0  0  0  0  0  0  0
  1  2  2  0
 20  1  1  0
  2  3  1  0
  3  4  2  0
  3 14  1  0
  4 13  1  0
  4 19  1  0
  5  6  2  3
  8  5  1  0
  5 21  1  0
  6 20  1  0
  7  9  2  0
 23  7  1  0
  7 24  1  0
  8 23  1  0
  9 10  1  0
 10 11  2  0
 11 12  1  0
 12 21  1  0
 12 23  2  0
 14 15  2  0
 14 18  1  0
 15 16  1  0
 16 17  2  0
 17 18  1  0
 19 20  2  0
 21 22  2  0
 24 25  2  0
 24 26  1  0
M  END
$$$$
