
     RDKit          3D

 26 29  0  0  0  0  0  0  0  0999 V2000
   25.5188   -7.0251    8.0418 C   0  0  0  0  0  0  0  0  0  0  0  0
   24.5778   -8.0259    7.9665 C   0  0  0  0  0  0  0  0  0  0  0  0
   24.6933   -9.0409    7.0276 C   0  0  0  0  0  0  0  0  0  0  0  0
   25.7871   -8.9829    6.1929 C   0  0  0  0  0  0  0  0  0  0  0  0
   27.6735   -5.0108    8.2788 C   0  0  0  0  0  0  0  0  0  0  0  0
   27.5827   -5.8699    7.2805 C   0  0  0  0  0  0  0  0  0  0  0  0
   26.5546   -3.5129   11.4340 C   0  0  0  0  0  0  0  0  0  0  0  0
   26.7977   -4.9308    9.3430 O   0  0  0  0  0  0  0  0  0  0  0  0
   27.1097   -2.4917   12.1388 C   0  0  0  0  0  0  0  0  0  0  0  0
   28.2580   -1.8888   11.6535 C   0  0  0  0  0  0  0  0  0  0  0  0
   28.8368   -2.3108   10.4745 C   0  0  0  0  0  0  0  0  0  0  0  0
   28.2826   -3.3414    9.7575 C   0  0  0  0  0  0  0  0  0  0  0  0
   25.9068   -9.9859    5.2609 F   0  0  0  0  0  0  0  0  0  0  0  0
   23.7107  -10.1112    6.9277 C   0  0  0  0  0  0  0  0  0  0  0  0
   22.4161   -9.9152    6.6413 N   0  0  0  0  0  0  0  0  0  0  0  0
   21.7873  -11.0777    6.6269 N   0  0  0  0  0  0  0  0  0  0  0  0
   22.6619  -12.0167    6.8999 N   0  0  0  0  0  0  0  0  0  0  0  0
   23.8265  -11.4374    7.0827 N   0  0  0  0  0  0  0  0  0  0  0  0
   26.7356   -7.9732    6.2689 C   0  0  0  0  0  0  0  0  0  0  0  0
   26.6345   -6.9596    7.1969 C   0  0  0  0  0  0  0  0  0  0  0  0
   28.6736   -3.9921    8.4925 C   0  0  0  0  0  0  0  0  0  0  0  0
   29.6653   -3.6863    7.8015 O   0  0  0  0  0  0  0  0  0  0  0  0
   27.1452   -3.9400   10.2365 C   0  0  0  0  0  0  0  0  0  0  0  0
   25.3442   -4.1756   11.8984 C   0  0  0  0  0  0  0  0  0  0  0  0
   24.7652   -3.7626   12.9440 O   0  0  0  0  0  0  0  0  0  0  0  0
   24.7811   -5.2826   11.2147 N   0  0  0  0  0  0  0  0  0  0  0  0
  1  2  2  0
 20  1  1  0
  2  3  1  0
  3  4  2  0
  3 14  1  0
  4 13  1  0
  4 19  1  0
  5  6  2  3
  8  5  1  0
  5 21  1  0
  6 20  1  0
  7  9  2  0
 23  7  1  0
  7 24  1  0
  8 23  1  0
  9 10  1  0
 10 11  2  0
 11 12  1  0
 12 21  1  0
 12 23  2  0
 14 15  2  0
 14 18  1  0
 15 16  1  0
 16 17  2  0
 17 18  1  0
 19 20  2  0
 21 22  2  0
 24 25  2  0
 24 26  1  0
M  END
$$$$
