
     RDKit          3D

 26 29  0  0  0  0  0  0  0  0999 V2000
   25.6089   -7.6490    8.1668 C   0  0  0  0  0  0  0  0  0  0  0  0
   24.8731   -8.8015    8.3185 C   0  0  0  0  0  0  0  0  0  0  0  0
   25.3423  -10.0135    7.8327 C   0  0  0  0  0  0  0  0  0  0  0  0
   26.5661   -9.9889    7.2015 C   0  0  0  0  0  0  0  0  0  0  0  0
   27.8000   -5.4797    8.2951 C   0  0  0  0  0  0  0  0  0  0  0  0
   27.5820   -6.3774    7.3520 C   0  0  0  0  0  0  0  0  0  0  0  0
   27.0413   -3.7944   11.4629 C   0  0  0  0  0  0  0  0  0  0  0  0
   27.0311   -5.3134    9.4295 O   0  0  0  0  0  0  0  0  0  0  0  0
   27.7006   -2.7688   12.0640 C   0  0  0  0  0  0  0  0  0  0  0  0
   28.8222   -2.2401   11.4474 C   0  0  0  0  0  0  0  0  0  0  0  0
   29.2711   -2.7396   10.2424 C   0  0  0  0  0  0  0  0  0  0  0  0
   28.6113   -3.7753    9.6296 C   0  0  0  0  0  0  0  0  0  0  0  0
   27.0360  -11.1867    6.7184 F   0  0  0  0  0  0  0  0  0  0  0  0
   24.5823  -11.2470    7.9805 C   0  0  0  0  0  0  0  0  0  0  0  0
   23.3297  -11.4132    7.5337 N   0  0  0  0  0  0  0  0  0  0  0  0
   22.9176  -12.6354    7.8223 N   0  0  0  0  0  0  0  0  0  0  0  0
   23.8899  -13.2554    8.4481 N   0  0  0  0  0  0  0  0  0  0  0  0
   24.8987  -12.4200    8.5463 N   0  0  0  0  0  0  0  0  0  0  0  0
   27.3076   -8.8264    7.0484 C   0  0  0  0  0  0  0  0  0  0  0  0
   26.8548   -7.6160    7.5267 C   0  0  0  0  0  0  0  0  0  0  0  0
   28.8562   -4.4984    8.3672 C   0  0  0  0  0  0  0  0  0  0  0  0
   29.7908   -4.2684    7.5748 O   0  0  0  0  0  0  0  0  0  0  0  0
   27.5001   -4.3004   10.2387 C   0  0  0  0  0  0  0  0  0  0  0  0
   25.8536   -4.3809   12.0671 C   0  0  0  0  0  0  0  0  0  0  0  0
   25.3752   -3.8788   13.1246 O   0  0  0  0  0  0  0  0  0  0  0  0
   25.2029   -5.5100   11.5088 N   0  0  0  0  0  0  0  0  0  0  0  0
  1  2  2  0
 20  1  1  0
  2  3  1  0
  3  4  2  0
  3 14  1  0
  4 13  1  0
  4 19  1  0
  5  6  2  3
  8  5  1  0
  5 21  1  0
  6 20  1  0
  7  9  2  0
 23  7  1  0
  7 24  1  0
  8 23  1  0
  9 10  1  0
 10 11  2  0
 11 12  1  0
 12 21  1  0
 12 23  2  0
 14 15  2  0
 14 18  1  0
 15 16  1  0
 16 17  2  0
 17 18  1  0
 19 20  2  0
 21 22  2  0
 24 25  2  0
 24 26  1  0
M  END
$$$$
