
     RDKit          3D

 26 29  0  0  0  0  0  0  0  0999 V2000
   26.1264   -7.6778    8.6955 C   0  0  0  0  0  0  0  0  0  0  0  0
   25.4167   -8.8455    8.8879 C   0  0  0  0  0  0  0  0  0  0  0  0
   25.2965   -9.8186    7.9215 C   0  0  0  0  0  0  0  0  0  0  0  0
   25.9202   -9.5934    6.7204 C   0  0  0  0  0  0  0  0  0  0  0  0
   27.5946   -5.3508    8.3035 C   0  0  0  0  0  0  0  0  0  0  0  0
   27.4962   -6.2098    7.3127 C   0  0  0  0  0  0  0  0  0  0  0  0
   26.5988   -3.6418   11.3992 C   0  0  0  0  0  0  0  0  0  0  0  0
   26.7341   -5.1584    9.3582 O   0  0  0  0  0  0  0  0  0  0  0  0
   27.2337   -2.6271   12.0804 C   0  0  0  0  0  0  0  0  0  0  0  0
   28.4189   -2.1400   11.5766 C   0  0  0  0  0  0  0  0  0  0  0  0
   28.9516   -2.6608   10.4169 C   0  0  0  0  0  0  0  0  0  0  0  0
   28.3418   -3.6762    9.7113 C   0  0  0  0  0  0  0  0  0  0  0  0
   25.8761  -10.4763    5.6883 F   0  0  0  0  0  0  0  0  0  0  0  0
   24.5467  -11.0481    8.1314 C   0  0  0  0  0  0  0  0  0  0  0  0
   24.8827  -12.0459    8.9659 N   0  0  0  0  0  0  0  0  0  0  0  0
   23.9825  -13.0098    8.9109 N   0  0  0  0  0  0  0  0  0  0  0  0
   23.0733  -12.6163    8.0359 N   0  0  0  0  0  0  0  0  0  0  0  0
   23.3981  -11.4353    7.5561 N   0  0  0  0  0  0  0  0  0  0  0  0
   26.6438   -8.4159    6.5076 C   0  0  0  0  0  0  0  0  0  0  0  0
   26.7582   -7.4549    7.4721 C   0  0  0  0  0  0  0  0  0  0  0  0
   28.6905   -4.3855    8.4873 C   0  0  0  0  0  0  0  0  0  0  0  0
   29.7047   -4.2150    7.7455 O   0  0  0  0  0  0  0  0  0  0  0  0
   27.1558   -4.1591   10.2211 C   0  0  0  0  0  0  0  0  0  0  0  0
   25.3519   -4.1757   11.9009 C   0  0  0  0  0  0  0  0  0  0  0  0
   24.7412   -3.5629   12.8009 O   0  0  0  0  0  0  0  0  0  0  0  0
   24.8322   -5.3800   11.3752 N   0  0  0  0  0  0  0  0  0  0  0  0
  1  2  2  0
 20  1  1  0
  2  3  1  0
  3  4  2  0
  3 14  1  0
  4 13  1  0
  4 19  1  0
  5  6  2  3
  8  5  1  0
  5 21  1  0
  6 20  1  0
  7  9  2  0
 23  7  1  0
  7 24  1  0
  8 23  1  0
  9 10  1  0
 10 11  2  0
 11 12  1  0
 12 21  1  0
 12 23  2  0
 14 15  2  0
 14 18  1  0
 15 16  1  0
 16 17  2  0
 17 18  1  0
 19 20  2  0
 21 22  2  0
 24 25  2  0
 24 26  1  0
M  END
$$$$
