
     RDKit          3D

 26 29  0  0  0  0  0  0  0  0999 V2000
   23.0207   -8.2551   10.4803 C   0  0  0  0  0  0  0  0  0  0  0  0
   22.8279   -9.3541    9.6683 C   0  0  0  0  0  0  0  0  0  0  0  0
   23.6613   -9.6666    8.6180 C   0  0  0  0  0  0  0  0  0  0  0  0
   24.7253   -8.8313    8.3886 C   0  0  0  0  0  0  0  0  0  0  0  0
   25.2889   -5.4435   10.9823 C   0  0  0  0  0  0  0  0  0  0  0  0
   24.2697   -6.2625   11.1229 C   0  0  0  0  0  0  0  0  0  0  0  0
   28.2650   -4.0042    9.3800 C   0  0  0  0  0  0  0  0  0  0  0  0
   26.2195   -5.4008    9.9713 O   0  0  0  0  0  0  0  0  0  0  0  0
   29.0563   -2.9540    9.7895 C   0  0  0  0  0  0  0  0  0  0  0  0
   28.7356   -2.3095   10.9631 C   0  0  0  0  0  0  0  0  0  0  0  0
   27.6463   -2.7116   11.7058 C   0  0  0  0  0  0  0  0  0  0  0  0
   26.8342   -3.7583   11.3244 C   0  0  0  0  0  0  0  0  0  0  0  0
   25.6184   -9.0317    7.3841 F   0  0  0  0  0  0  0  0  0  0  0  0
   23.4523  -10.8276    7.7658 C   0  0  0  0  0  0  0  0  0  0  0  0
   22.6095  -10.9003    6.7221 N   0  0  0  0  0  0  0  0  0  0  0  0
   22.6682  -12.0980    6.1704 N   0  0  0  0  0  0  0  0  0  0  0  0
   23.5540  -12.7843    6.8713 N   0  0  0  0  0  0  0  0  0  0  0  0
   24.0367  -12.0332    7.8375 N   0  0  0  0  0  0  0  0  0  0  0  0
   24.9362   -7.7130    9.2011 C   0  0  0  0  0  0  0  0  0  0  0  0
   24.1043   -7.4098   10.2417 C   0  0  0  0  0  0  0  0  0  0  0  0
   25.6503   -4.3661   11.9178 C   0  0  0  0  0  0  0  0  0  0  0  0
   25.0612   -4.0449   12.9937 O   0  0  0  0  0  0  0  0  0  0  0  0
   27.1608   -4.3990   10.1487 C   0  0  0  0  0  0  0  0  0  0  0  0
   28.5745   -4.7031    8.1523 C   0  0  0  0  0  0  0  0  0  0  0  0
   29.5094   -4.2938    7.4335 O   0  0  0  0  0  0  0  0  0  0  0  0
   27.8238   -5.8384    7.7727 N   0  0  0  0  0  0  0  0  0  0  0  0
  1  2  2  0
 20  1  1  0
  2  3  1  0
  3  4  2  0
  3 14  1  0
  4 13  1  0
  4 19  1  0
  5  6  2  3
  8  5  1  0
  5 21  1  0
  6 20  1  0
  7  9  2  0
 23  7  1  0
  7 24  1  0
  8 23  1  0
  9 10  1  0
 10 11  2  0
 11 12  1  0
 12 21  1  0
 12 23  2  0
 14 15  2  0
 14 18  1  0
 15 16  1  0
 16 17  2  0
 17 18  1  0
 19 20  2  0
 21 22  2  0
 24 25  2  0
 24 26  1  0
M  END
$$$$
