
     RDKit          3D

 26 29  0  0  0  0  0  0  0  0999 V2000
   26.2320   -7.6625    8.0585 C   0  0  0  0  0  0  0  0  0  0  0  0
   25.3669   -8.7321    8.0422 C   0  0  0  0  0  0  0  0  0  0  0  0
   25.2209   -9.5109    6.9031 C   0  0  0  0  0  0  0  0  0  0  0  0
   25.9814   -9.1514    5.8127 C   0  0  0  0  0  0  0  0  0  0  0  0
   27.9368   -5.2580    7.9805 C   0  0  0  0  0  0  0  0  0  0  0  0
   27.8798   -6.1360    6.9963 C   0  0  0  0  0  0  0  0  0  0  0  0
   26.7939   -3.7886   11.1404 C   0  0  0  0  0  0  0  0  0  0  0  0
   27.0818   -5.2189    9.0636 O   0  0  0  0  0  0  0  0  0  0  0  0
   27.2971   -2.7231   11.8184 C   0  0  0  0  0  0  0  0  0  0  0  0
   28.3926   -2.0546   11.2983 C   0  0  0  0  0  0  0  0  0  0  0  0
   28.9710   -2.4558   10.1119 C   0  0  0  0  0  0  0  0  0  0  0  0
   28.4691   -3.5308    9.4220 C   0  0  0  0  0  0  0  0  0  0  0  0
   25.8411   -9.9195    4.6816 F   0  0  0  0  0  0  0  0  0  0  0  0
   24.3119  -10.6479    6.8606 C   0  0  0  0  0  0  0  0  0  0  0  0
   24.6965  -11.9051    6.5998 N   0  0  0  0  0  0  0  0  0  0  0  0
   23.6435  -12.7032    6.6304 N   0  0  0  0  0  0  0  0  0  0  0  0
   22.5885  -11.9743    6.9078 N   0  0  0  0  0  0  0  0  0  0  0  0
   22.9875  -10.7307    7.0479 N   0  0  0  0  0  0  0  0  0  0  0  0
   26.8533   -8.0724    5.8295 C   0  0  0  0  0  0  0  0  0  0  0  0
   27.0094   -7.2910    6.9537 C   0  0  0  0  0  0  0  0  0  0  0  0
   28.8732   -4.1736    8.1571 C   0  0  0  0  0  0  0  0  0  0  0  0
   29.8271   -3.8147    7.4391 O   0  0  0  0  0  0  0  0  0  0  0  0
   27.3840   -4.1944    9.9354 C   0  0  0  0  0  0  0  0  0  0  0  0
   25.6399   -4.5212   11.6418 C   0  0  0  0  0  0  0  0  0  0  0  0
   25.0340   -4.1076   12.6719 O   0  0  0  0  0  0  0  0  0  0  0  0
   25.1619   -5.6978   11.0118 N   0  0  0  0  0  0  0  0  0  0  0  0
  1  2  2  0
 20  1  1  0
  2  3  1  0
  3  4  2  0
  3 14  1  0
  4 13  1  0
  4 19  1  0
  5  6  2  3
  8  5  1  0
  5 21  1  0
  6 20  1  0
  7  9  2  0
 23  7  1  0
  7 24  1  0
  8 23  1  0
  9 10  1  0
 10 11  2  0
 11 12  1  0
 12 21  1  0
 12 23  2  0
 14 15  2  0
 14 18  1  0
 15 16  1  0
 16 17  2  0
 17 18  1  0
 19 20  2  0
 21 22  2  0
 24 25  2  0
 24 26  1  0
M  END
$$$$
