
     RDKit          3D

 26 29  0  0  0  0  0  0  0  0999 V2000
   26.5037   -7.8118    9.0275 C   0  0  0  0  0  0  0  0  0  0  0  0
   25.8997   -9.0102    9.3489 C   0  0  0  0  0  0  0  0  0  0  0  0
   25.7290  -10.0316    8.4417 C   0  0  0  0  0  0  0  0  0  0  0  0
   26.1891   -9.8239    7.1660 C   0  0  0  0  0  0  0  0  0  0  0  0
   27.7607   -5.4212    8.3724 C   0  0  0  0  0  0  0  0  0  0  0  0
   27.6002   -6.3282    7.4338 C   0  0  0  0  0  0  0  0  0  0  0  0
   26.9872   -3.5871   11.4601 C   0  0  0  0  0  0  0  0  0  0  0  0
   26.9873   -5.1962    9.4864 O   0  0  0  0  0  0  0  0  0  0  0  0
   27.6525   -2.5286   12.0377 C   0  0  0  0  0  0  0  0  0  0  0  0
   28.7793   -2.0424   11.4134 C   0  0  0  0  0  0  0  0  0  0  0  0
   29.2252   -2.6070   10.2378 C   0  0  0  0  0  0  0  0  0  0  0  0
   28.5829   -3.6668    9.6336 C   0  0  0  0  0  0  0  0  0  0  0  0
   26.0800  -10.7538    6.1810 F   0  0  0  0  0  0  0  0  0  0  0  0
   25.0914  -11.2933    8.7876 C   0  0  0  0  0  0  0  0  0  0  0  0
   25.6920  -12.3528    9.3547 N   0  0  0  0  0  0  0  0  0  0  0  0
   24.8224  -13.3301    9.5313 N   0  0  0  0  0  0  0  0  0  0  0  0
   23.6663  -12.8830    9.0723 N   0  0  0  0  0  0  0  0  0  0  0  0
   23.8106  -11.6562    8.6200 N   0  0  0  0  0  0  0  0  0  0  0  0
   26.8037   -8.6159    6.8223 C   0  0  0  0  0  0  0  0  0  0  0  0
   26.9693   -7.6070    7.7287 C   0  0  0  0  0  0  0  0  0  0  0  0
   28.8447   -4.4264    8.4181 C   0  0  0  0  0  0  0  0  0  0  0  0
   29.7886   -4.2712    7.5859 O   0  0  0  0  0  0  0  0  0  0  0  0
   27.4558   -4.1486   10.2637 C   0  0  0  0  0  0  0  0  0  0  0  0
   25.8000   -4.1215   12.0896 C   0  0  0  0  0  0  0  0  0  0  0  0
   25.2284   -3.4595   12.9805 O   0  0  0  0  0  0  0  0  0  0  0  0
   25.2941   -5.3813   11.6979 N   0  0  0  0  0  0  0  0  0  0  0  0
  1  2  2  0
 20  1  1  0
  2  3  1  0
  3  4  2  0
  3 14  1  0
  4 13  1  0
  4 19  1  0
  5  6  2  3
  8  5  1  0
  5 21  1  0
  6 20  1  0
  7  9  2  0
 23  7  1  0
  7 24  1  0
  8 23  1  0
  9 10  1  0
 10 11  2  0
 11 12  1  0
 12 21  1  0
 12 23  2  0
 14 15  2  0
 14 18  1  0
 15 16  1  0
 16 17  2  0
 17 18  1  0
 19 20  2  0
 21 22  2  0
 24 25  2  0
 24 26  1  0
M  END
$$$$
