
     RDKit          3D

 26 29  0  0  0  0  0  0  0  0999 V2000
   26.3036   -7.5892    5.8700 C   0  0  0  0  0  0  0  0  0  0  0  0
   25.3901   -8.6011    5.6852 C   0  0  0  0  0  0  0  0  0  0  0  0
   24.7536   -9.1907    6.7680 C   0  0  0  0  0  0  0  0  0  0  0  0
   25.0887   -8.7083    8.0136 C   0  0  0  0  0  0  0  0  0  0  0  0
   27.7102   -5.2065    8.3018 C   0  0  0  0  0  0  0  0  0  0  0  0
   27.6433   -6.0532    7.2912 C   0  0  0  0  0  0  0  0  0  0  0  0
   26.5462   -3.7819   11.4746 C   0  0  0  0  0  0  0  0  0  0  0  0
   26.8298   -5.1633    9.3644 O   0  0  0  0  0  0  0  0  0  0  0  0
   27.0741   -2.7574   12.1956 C   0  0  0  0  0  0  0  0  0  0  0  0
   28.2084   -2.1196   11.7224 C   0  0  0  0  0  0  0  0  0  0  0  0
   28.8006   -2.5103   10.5393 C   0  0  0  0  0  0  0  0  0  0  0  0
   28.2740   -3.5439    9.8060 C   0  0  0  0  0  0  0  0  0  0  0  0
   24.4611   -9.2884    9.0899 F   0  0  0  0  0  0  0  0  0  0  0  0
   23.7832  -10.2634    6.5986 C   0  0  0  0  0  0  0  0  0  0  0  0
   24.0599  -11.4389    6.0171 N   0  0  0  0  0  0  0  0  0  0  0  0
   22.9753  -12.1941    6.0127 N   0  0  0  0  0  0  0  0  0  0  0  0
   22.0066  -11.5185    6.5841 N   0  0  0  0  0  0  0  0  0  0  0  0
   22.4902  -10.3503    6.9401 N   0  0  0  0  0  0  0  0  0  0  0  0
   26.0103   -7.6880    8.1996 C   0  0  0  0  0  0  0  0  0  0  0  0
   26.6491   -7.0925    7.1337 C   0  0  0  0  0  0  0  0  0  0  0  0
   28.6843   -4.1666    8.5331 C   0  0  0  0  0  0  0  0  0  0  0  0
   29.6700   -3.8266    7.8495 O   0  0  0  0  0  0  0  0  0  0  0  0
   27.1503   -4.1771   10.2730 C   0  0  0  0  0  0  0  0  0  0  0  0
   25.3513   -4.4807   11.9258 C   0  0  0  0  0  0  0  0  0  0  0  0
   24.7474   -4.0842   12.9638 O   0  0  0  0  0  0  0  0  0  0  0  0
   24.8307   -5.6056   11.2376 N   0  0  0  0  0  0  0  0  0  0  0  0
  1  2  2  0
 20  1  1  0
  2  3  1  0
  3  4  2  0
  3 14  1  0
  4 13  1  0
  4 19  1  0
  5  6  2  3
  8  5  1  0
  5 21  1  0
  6 20  1  0
  7  9  2  0
 23  7  1  0
  7 24  1  0
  8 23  1  0
  9 10  1  0
 10 11  2  0
 11 12  1  0
 12 21  1  0
 12 23  2  0
 14 15  2  0
 14 18  1  0
 15 16  1  0
 16 17  2  0
 17 18  1  0
 19 20  2  0
 21 22  2  0
 24 25  2  0
 24 26  1  0
M  END
$$$$
