
     RDKit          3D

 26 29  0  0  0  0  0  0  0  0999 V2000
   26.9398   -8.4260    5.8757 C   0  0  0  0  0  0  0  0  0  0  0  0
   26.0047   -9.4358    5.7756 C   0  0  0  0  0  0  0  0  0  0  0  0
   24.9949   -9.6174    6.6938 C   0  0  0  0  0  0  0  0  0  0  0  0
   24.9374   -8.7408    7.7476 C   0  0  0  0  0  0  0  0  0  0  0  0
   27.8804   -5.6106    7.9952 C   0  0  0  0  0  0  0  0  0  0  0  0
   27.8821   -6.4879    7.0156 C   0  0  0  0  0  0  0  0  0  0  0  0
   26.6970   -3.9927   11.0738 C   0  0  0  0  0  0  0  0  0  0  0  0
   27.0061   -5.5085    9.0512 O   0  0  0  0  0  0  0  0  0  0  0  0
   27.2086   -2.9009   11.7395 C   0  0  0  0  0  0  0  0  0  0  0  0
   28.3259   -2.2827   11.2245 C   0  0  0  0  0  0  0  0  0  0  0  0
   28.9134   -2.7513   10.0691 C   0  0  0  0  0  0  0  0  0  0  0  0
   28.4269   -3.8410    9.3788 C   0  0  0  0  0  0  0  0  0  0  0  0
   23.9895   -8.8146    8.7187 F   0  0  0  0  0  0  0  0  0  0  0  0
   24.0117  -10.6844    6.5818 C   0  0  0  0  0  0  0  0  0  0  0  0
   22.9056  -10.6628    5.8196 N   0  0  0  0  0  0  0  0  0  0  0  0
   22.2366  -11.7929    5.9536 N   0  0  0  0  0  0  0  0  0  0  0  0
   22.9261  -12.5311    6.8061 N   0  0  0  0  0  0  0  0  0  0  0  0
   23.9997  -11.8777    7.1948 N   0  0  0  0  0  0  0  0  0  0  0  0
   25.8765   -7.7115    7.8653 C   0  0  0  0  0  0  0  0  0  0  0  0
   26.8757   -7.5381    6.9496 C   0  0  0  0  0  0  0  0  0  0  0  0
   28.8541   -4.5194    8.1622 C   0  0  0  0  0  0  0  0  0  0  0  0
   29.8385   -4.2390    7.4139 O   0  0  0  0  0  0  0  0  0  0  0  0
   27.3083   -4.4550    9.8997 C   0  0  0  0  0  0  0  0  0  0  0  0
   25.5240   -4.6647   11.5876 C   0  0  0  0  0  0  0  0  0  0  0  0
   24.8942   -4.1568   12.5382 O   0  0  0  0  0  0  0  0  0  0  0  0
   25.0974   -5.8849   11.0167 N   0  0  0  0  0  0  0  0  0  0  0  0
  1  2  2  0
 20  1  1  0
  2  3  1  0
  3  4  2  0
  3 14  1  0
  4 13  1  0
  4 19  1  0
  5  6  2  3
  8  5  1  0
  5 21  1  0
  6 20  1  0
  7  9  2  0
 23  7  1  0
  7 24  1  0
  8 23  1  0
  9 10  1  0
 10 11  2  0
 11 12  1  0
 12 21  1  0
 12 23  2  0
 14 15  2  0
 14 18  1  0
 15 16  1  0
 16 17  2  0
 17 18  1  0
 19 20  2  0
 21 22  2  0
 24 25  2  0
 24 26  1  0
M  END
$$$$
