
     RDKit          3D

 26 29  0  0  0  0  0  0  0  0999 V2000
   26.9248   -8.4373    5.8908 C   0  0  0  0  0  0  0  0  0  0  0  0
   25.8747   -9.2620    5.5593 C   0  0  0  0  0  0  0  0  0  0  0  0
   24.6497   -9.1458    6.2006 C   0  0  0  0  0  0  0  0  0  0  0  0
   24.5550   -8.1726    7.1704 C   0  0  0  0  0  0  0  0  0  0  0  0
   27.9784   -5.6726    8.1414 C   0  0  0  0  0  0  0  0  0  0  0  0
   27.9740   -6.6217    7.2237 C   0  0  0  0  0  0  0  0  0  0  0  0
   26.6690   -3.9769   11.1181 C   0  0  0  0  0  0  0  0  0  0  0  0
   27.0671   -5.5567    9.1718 O   0  0  0  0  0  0  0  0  0  0  0  0
   27.1352   -2.8619   11.7403 C   0  0  0  0  0  0  0  0  0  0  0  0
   28.2566   -2.2292   11.2305 C   0  0  0  0  0  0  0  0  0  0  0  0
   28.8973   -2.7152   10.1096 C   0  0  0  0  0  0  0  0  0  0  0  0
   28.4330   -3.8407    9.4762 C   0  0  0  0  0  0  0  0  0  0  0  0
   23.3438   -8.0528    7.8088 F   0  0  0  0  0  0  0  0  0  0  0  0
   23.5232  -10.0067    5.8680 C   0  0  0  0  0  0  0  0  0  0  0  0
   22.5141   -9.6429    5.0643 N   0  0  0  0  0  0  0  0  0  0  0  0
   21.6507  -10.6384    4.9631 N   0  0  0  0  0  0  0  0  0  0  0  0
   22.0930  -11.6362    5.6912 N   0  0  0  0  0  0  0  0  0  0  0  0
   23.2251  -11.2591    6.2404 N   0  0  0  0  0  0  0  0  0  0  0  0
   25.6144   -7.3414    7.5046 C   0  0  0  0  0  0  0  0  0  0  0  0
   26.8360   -7.4446    6.8755 C   0  0  0  0  0  0  0  0  0  0  0  0
   28.9038   -4.5742    8.2859 C   0  0  0  0  0  0  0  0  0  0  0  0
   29.8944   -4.2657    7.5946 O   0  0  0  0  0  0  0  0  0  0  0  0
   27.3224   -4.4689    9.9796 C   0  0  0  0  0  0  0  0  0  0  0  0
   25.4902   -4.6750   11.6109 C   0  0  0  0  0  0  0  0  0  0  0  0
   24.9109   -4.2652   12.6576 O   0  0  0  0  0  0  0  0  0  0  0  0
   24.9587   -5.8136   10.9542 N   0  0  0  0  0  0  0  0  0  0  0  0
  1  2  2  0
 20  1  1  0
  2  3  1  0
  3  4  2  0
  3 14  1  0
  4 13  1  0
  4 19  1  0
  5  6  2  3
  8  5  1  0
  5 21  1  0
  6 20  1  0
  7  9  2  0
 23  7  1  0
  7 24  1  0
  8 23  1  0
  9 10  1  0
 10 11  2  0
 11 12  1  0
 12 21  1  0
 12 23  2  0
 14 15  2  0
 14 18  1  0
 15 16  1  0
 16 17  2  0
 17 18  1  0
 19 20  2  0
 21 22  2  0
 24 25  2  0
 24 26  1  0
M  END
$$$$
