
     RDKit          3D

 26 29  0  0  0  0  0  0  0  0999 V2000
   23.1804   -8.0618   10.9083 C   0  0  0  0  0  0  0  0  0  0  0  0
   22.9674   -9.2920   10.3304 C   0  0  0  0  0  0  0  0  0  0  0  0
   23.7835   -9.7462    9.3043 C   0  0  0  0  0  0  0  0  0  0  0  0
   24.7989   -8.9037    8.9095 C   0  0  0  0  0  0  0  0  0  0  0  0
   25.4468   -5.1281   10.9928 C   0  0  0  0  0  0  0  0  0  0  0  0
   24.3806   -5.8963   11.1181 C   0  0  0  0  0  0  0  0  0  0  0  0
   28.4614   -3.9508    9.2674 C   0  0  0  0  0  0  0  0  0  0  0  0
   26.3426   -5.1737    9.9433 O   0  0  0  0  0  0  0  0  0  0  0  0
   29.3301   -2.9726    9.6369 C   0  0  0  0  0  0  0  0  0  0  0  0
   29.1036   -2.2864   10.8182 C   0  0  0  0  0  0  0  0  0  0  0  0
   28.0166   -2.5835   11.6140 C   0  0  0  0  0  0  0  0  0  0  0  0
   27.1350   -3.5693   11.2475 C   0  0  0  0  0  0  0  0  0  0  0  0
   25.6107   -9.3485    7.8936 F   0  0  0  0  0  0  0  0  0  0  0  0
   23.5786  -11.0441    8.6763 C   0  0  0  0  0  0  0  0  0  0  0  0
   22.4033  -11.4616    8.1855 N   0  0  0  0  0  0  0  0  0  0  0  0
   22.5413  -12.6777    7.6867 N   0  0  0  0  0  0  0  0  0  0  0  0
   23.7899  -13.0456    7.8510 N   0  0  0  0  0  0  0  0  0  0  0  0
   24.4212  -12.0612    8.4490 N   0  0  0  0  0  0  0  0  0  0  0  0
   25.0130   -7.6630    9.4923 C   0  0  0  0  0  0  0  0  0  0  0  0
   24.2114   -7.1995   10.5128 C   0  0  0  0  0  0  0  0  0  0  0  0
   25.9116   -4.0925   11.8847 C   0  0  0  0  0  0  0  0  0  0  0  0
   25.4301   -3.6875   12.9610 O   0  0  0  0  0  0  0  0  0  0  0  0
   27.3574   -4.2502   10.0777 C   0  0  0  0  0  0  0  0  0  0  0  0
   28.6584   -4.7055    8.0380 C   0  0  0  0  0  0  0  0  0  0  0  0
   29.6181   -4.4113    7.2687 O   0  0  0  0  0  0  0  0  0  0  0  0
   27.8037   -5.7727    7.6632 N   0  0  0  0  0  0  0  0  0  0  0  0
  1  2  2  0
 20  1  1  0
  2  3  1  0
  3  4  2  0
  3 14  1  0
  4 13  1  0
  4 19  1  0
  5  6  2  3
  8  5  1  0
  5 21  1  0
  6 20  1  0
  7  9  2  0
 23  7  1  0
  7 24  1  0
  8 23  1  0
  9 10  1  0
 10 11  2  0
 11 12  1  0
 12 21  1  0
 12 23  2  0
 14 15  2  0
 14 18  1  0
 15 16  1  0
 16 17  2  0
 17 18  1  0
 19 20  2  0
 21 22  2  0
 24 25  2  0
 24 26  1  0
M  END
$$$$
