
     RDKit          3D

 46 51  0  0  0  0  0  0  0  0999 V2000
   18.2768  -17.3950   -5.6659 C   0  0  0  0  0  0  0  0  0  0  0  0
   18.2288  -18.5585   -6.3935 C   0  0  0  0  0  0  0  0  0  0  0  0
   18.8295  -18.6061   -7.6431 C   0  0  0  0  0  0  0  0  0  0  0  0
   19.4669  -17.4914   -8.1430 C   0  0  0  0  0  0  0  0  0  0  0  0
   19.5011  -16.3273   -7.3869 C   0  0  0  0  0  0  0  0  0  0  0  0
   18.9009  -16.2684   -6.1304 C   0  0  0  0  0  0  0  0  0  0  0  0
   18.9595  -15.0282   -5.3702 C   0  0  0  0  0  0  0  0  0  0  0  0
   19.4527  -14.9845   -4.0826 C   0  0  0  0  0  0  0  0  0  0  0  0
   19.4999  -13.7841   -3.3709 C   0  0  0  0  0  0  0  0  0  0  0  0
   20.0140  -13.7113   -2.0148 C   0  0  0  0  0  0  0  0  0  0  0  0
   20.4400  -14.7307   -1.4224 O   0  0  0  0  0  0  0  0  0  0  0  0
   20.0312  -12.4558   -1.3533 N   0  0  0  0  0  0  0  0  0  0  0  0
   19.5988  -11.3846   -1.9366 C   0  0  0  0  0  0  0  0  0  0  0  0
   19.0578  -11.3340   -3.3009 C   0  0  0  0  0  0  0  0  0  0  0  0
   19.0390  -12.6329   -3.9876 C   0  0  0  0  0  0  0  0  0  0  0  0
   18.5583  -12.6759   -5.2427 N   0  0  0  0  0  0  0  0  0  0  0  0
   18.5158  -13.8530   -5.9309 C   0  0  0  0  0  0  0  0  0  0  0  0
   17.9952  -13.9216   -7.3024 C   0  0  0  0  0  0  0  0  0  0  0  0
   18.8537  -14.0480   -8.3648 C   0  0  0  0  0  0  0  0  0  0  0  0
   18.3720  -14.1133   -9.6705 C   0  0  0  0  0  0  0  0  0  0  0  0
   16.6434  -13.8612   -7.5643 C   0  0  0  0  0  0  0  0  0  0  0  0
   16.1744  -13.9270   -8.8644 C   0  0  0  0  0  0  0  0  0  0  0  0
   17.0224  -14.0541   -9.9465 C   0  0  0  0  0  0  0  0  0  0  0  0
   16.5562  -14.1267  -11.3457 C   0  0  0  0  0  0  0  0  0  0  0  0
   15.7112  -15.2727  -11.6098 N   0  0  1  0  0  4  0  0  0  0  0  0
   14.3784  -15.1352  -11.0933 C   0  0  0  0  0  0  0  0  0  0  0  0
   13.7228  -16.5072  -11.1820 C   0  0  0  0  0  0  0  0  0  0  0  0
   15.6982  -15.4782  -13.0410 C   0  0  0  0  0  0  0  0  0  0  0  0
   14.4794  -16.1674  -13.5454 C   0  0  0  0  0  0  0  0  0  0  0  0
   13.8444  -17.1028  -12.5461 C   0  0  1  0  0  0  0  0  0  0  0  0
   14.6218  -18.3324  -12.5694 N   0  0  0  0  0  0  0  0  0  0  0  0
   14.0191  -19.6212  -12.6463 C   0  0  0  0  0  0  0  0  0  0  0  0
   12.7570  -19.6771  -12.6947 O   0  0  0  0  0  0  0  0  0  0  0  0
   14.7653  -20.8275  -12.6705 N   0  0  0  0  0  0  0  0  0  0  0  0
   14.1628  -22.1044  -12.8403 C   0  0  0  0  0  0  0  0  0  0  0  0
   14.7934  -23.3001  -12.6091 C   0  0  0  0  0  0  0  0  0  0  0  0
   12.8464  -22.1475  -13.2694 C   0  0  0  0  0  0  0  0  0  0  0  0
   12.1995  -23.3604  -13.4550 C   0  0  0  0  0  0  0  0  0  0  0  0
   12.8330  -24.5627  -13.2227 C   0  0  0  0  0  0  0  0  0  0  0  0
   12.0012  -26.0975  -13.4620 Cl  0  0  0  0  0  0  0  0  0  0  0  0
   14.1438  -24.5216  -12.7954 C   0  0  0  0  0  0  0  0  0  0  0  0
   14.8564  -25.7281  -12.5374 N   0  0  0  0  0  0  0  0  0  0  0  0
   15.9974  -26.0676  -13.3188 C   0  0  0  0  0  0  0  0  0  0  0  0
   16.3290  -25.2563  -14.2419 O   0  0  0  0  0  0  0  0  0  0  0  0
   16.7585  -27.3204  -13.0553 C   0  0  0  0  0  0  0  0  0  0  0  0
   17.9271  -27.3616  -14.0453 C   0  0  0  0  0  0  0  0  0  0  0  0
  1  2  2  0
  1  6  1  0
  2  3  1  0
  3  4  2  0
  4  5  1  0
  5  6  2  0
  6  7  1  0
  7  8  2  0
  7 17  1  0
  8  9  1  0
  9 10  1  0
  9 15  2  0
 10 11  2  0
 10 12  1  0
 12 13  2  0
 13 14  1  0
 14 15  1  0
 15 16  1  0
 16 17  2  0
 17 18  1  0
 18 19  2  0
 18 21  1  0
 19 20  1  0
 20 23  2  0
 21 22  2  0
 22 23  1  0
 23 24  1  0
 25 24  1  6
 25 26  1  0
 25 28  1  0
 26 27  1  0
 27 30  1  0
 28 29  1  0
 29 30  1  0
 30 31  1  1
 31 32  1  0
 32 33  2  0
 32 34  1  0
 34 35  1  0
 35 36  2  0
 35 37  1  0
 36 41  1  0
 37 38  2  0
 38 39  1  0
 39 40  1  0
 39 41  2  0
 41 42  1  0
 42 43  1  0
 43 44  2  0
 43 45  1  0
 45 46  1  0
M  CHG  1  25   1
M  END
$$$$
