
     RDKit          3D

 46 51  0  0  0  0  0  0  0  0999 V2000
   19.1753  -24.1267   -5.8186 C   0  0  0  0  0  0  0  0  0  0  0  0
   19.2136  -23.8521   -4.4738 C   0  0  0  0  0  0  0  0  0  0  0  0
   18.0576  -23.4350   -3.8302 C   0  0  0  0  0  0  0  0  0  0  0  0
   16.8850  -23.2997   -4.5411 C   0  0  0  0  0  0  0  0  0  0  0  0
   16.8733  -23.5838   -5.9002 C   0  0  0  0  0  0  0  0  0  0  0  0
   18.0287  -24.0036   -6.5567 C   0  0  0  0  0  0  0  0  0  0  0  0
   17.9735  -24.2910   -7.9829 C   0  0  0  0  0  0  0  0  0  0  0  0
   17.8083  -25.5738   -8.4626 C   0  0  0  0  0  0  0  0  0  0  0  0
   17.7580  -25.8276   -9.8346 C   0  0  0  0  0  0  0  0  0  0  0  0
   17.5851  -27.1682  -10.3651 C   0  0  0  0  0  0  0  0  0  0  0  0
   17.4730  -28.1608   -9.6076 O   0  0  0  0  0  0  0  0  0  0  0  0
   17.5432  -27.3501  -11.7720 N   0  0  0  0  0  0  0  0  0  0  0  0
   17.6559  -26.3467  -12.5815 C   0  0  0  0  0  0  0  0  0  0  0  0
   17.8341  -24.9499  -12.1644 C   0  0  0  0  0  0  0  0  0  0  0  0
   17.8779  -24.7594  -10.7080 C   0  0  0  0  0  0  0  0  0  0  0  0
   18.0389  -23.5091  -10.2401 N   0  0  0  0  0  0  0  0  0  0  0  0
   18.0870  -23.2700   -8.8979 C   0  0  0  0  0  0  0  0  0  0  0  0
   18.2616  -21.9123   -8.3661 C   0  0  0  0  0  0  0  0  0  0  0  0
   19.4186  -21.5653   -7.7161 C   0  0  0  0  0  0  0  0  0  0  0  0
   19.5958  -20.2808   -7.2064 C   0  0  0  0  0  0  0  0  0  0  0  0
   17.2804  -20.9538   -8.5002 C   0  0  0  0  0  0  0  0  0  0  0  0
   17.4654  -19.6806   -7.9908 C   0  0  0  0  0  0  0  0  0  0  0  0
   18.6225  -19.3125   -7.3337 C   0  0  0  0  0  0  0  0  0  0  0  0
   18.8527  -17.9640   -6.7780 C   0  0  0  0  0  0  0  0  0  0  0  0
   18.1995  -16.9140   -7.5315 N   0  0  1  0  0  4  0  0  0  0  0  0
   18.3698  -17.0351   -8.9522 C   0  0  0  0  0  0  0  0  0  0  0  0
   17.8965  -15.7259   -9.5706 C   0  0  0  0  0  0  0  0  0  0  0  0
   16.7996  -16.9305   -7.1699 C   0  0  0  0  0  0  0  0  0  0  0  0
   15.8943  -16.3859   -8.2181 C   0  0  0  0  0  0  0  0  0  0  0  0
   16.5328  -15.3406   -9.0992 C   0  0  1  0  0  0  0  0  0  0  0  0
   16.5144  -14.0930   -8.3510 N   0  0  0  0  0  0  0  0  0  0  0  0
   15.9885  -12.8826   -8.8881 C   0  0  0  0  0  0  0  0  0  0  0  0
   15.5174  -12.9166  -10.0608 O   0  0  0  0  0  0  0  0  0  0  0  0
   15.9716  -11.6578   -8.1724 N   0  0  0  0  0  0  0  0  0  0  0  0
   15.1620  -10.5524   -8.5531 C   0  0  0  0  0  0  0  0  0  0  0  0
   14.3604  -10.5207   -9.6654 C   0  0  0  0  0  0  0  0  0  0  0  0
   15.1819   -9.4267   -7.7461 C   0  0  0  0  0  0  0  0  0  0  0  0
   14.4155   -8.3141   -8.0606 C   0  0  0  0  0  0  0  0  0  0  0  0
   13.6095   -8.2818   -9.1787 C   0  0  0  0  0  0  0  0  0  0  0  0
   12.6403   -6.8627   -9.5683 Cl  0  0  0  0  0  0  0  0  0  0  0  0
   13.5886   -9.4018   -9.9833 C   0  0  0  0  0  0  0  0  0  0  0  0
   12.7772   -9.4338  -11.1540 N   0  0  0  0  0  0  0  0  0  0  0  0
   11.4111   -9.8267  -11.0688 C   0  0  0  0  0  0  0  0  0  0  0  0
   10.9282   -9.9920   -9.9027 O   0  0  0  0  0  0  0  0  0  0  0  0
   10.5968  -10.0315  -12.2988 C   0  0  0  0  0  0  0  0  0  0  0  0
    9.1914  -10.4468  -11.8522 C   0  0  0  0  0  0  0  0  0  0  0  0
  1  2  2  0
  1  6  1  0
  2  3  1  0
  3  4  2  0
  4  5  1  0
  5  6  2  0
  6  7  1  0
  7  8  2  0
  7 17  1  0
  8  9  1  0
  9 10  1  0
  9 15  2  0
 10 11  2  0
 10 12  1  0
 12 13  2  0
 13 14  1  0
 14 15  1  0
 15 16  1  0
 16 17  2  0
 17 18  1  0
 18 19  2  0
 18 21  1  0
 19 20  1  0
 20 23  2  0
 21 22  2  0
 22 23  1  0
 23 24  1  0
 25 24  1  1
 25 26  1  0
 25 28  1  0
 26 27  1  0
 27 30  1  0
 28 29  1  0
 29 30  1  0
 30 31  1  1
 31 32  1  0
 32 33  2  0
 32 34  1  0
 34 35  1  0
 35 36  2  0
 35 37  1  0
 36 41  1  0
 37 38  2  0
 38 39  1  0
 39 40  1  0
 39 41  2  0
 41 42  1  0
 42 43  1  0
 43 44  2  0
 43 45  1  0
 45 46  1  0
M  CHG  1  25   1
M  END
$$$$
