
     RDKit          3D

 46 51  0  0  0  0  0  0  0  0999 V2000
   15.5308  -11.1364   -9.2957 C   0  0  0  0  0  0  0  0  0  0  0  0
   15.9954  -10.5363  -10.4465 C   0  0  0  0  0  0  0  0  0  0  0  0
   16.9431   -9.5295  -10.2944 C   0  0  0  0  0  0  0  0  0  0  0  0
   17.4007   -9.1448   -9.0566 C   0  0  0  0  0  0  0  0  0  0  0  0
   16.9093   -9.7705   -7.9402 C   0  0  0  0  0  0  0  0  0  0  0  0
   15.9690  -10.7731   -8.0470 C   0  0  0  0  0  0  0  0  0  0  0  0
   15.4226  -11.4625   -6.9045 C   0  0  0  0  0  0  0  0  0  0  0  0
   15.3578  -10.8404   -5.6813 C   0  0  0  0  0  0  0  0  0  0  0  0
   14.8282  -11.5120   -4.5951 C   0  0  0  0  0  0  0  0  0  0  0  0
   14.7347  -10.9029   -3.2743 C   0  0  0  0  0  0  0  0  0  0  0  0
   15.1529   -9.7238   -3.1264 O   0  0  0  0  0  0  0  0  0  0  0  0
   14.1815  -11.6580   -2.2204 N   0  0  0  0  0  0  0  0  0  0  0  0
   13.7612  -12.8492   -2.3771 C   0  0  0  0  0  0  0  0  0  0  0  0
   13.7937  -13.5854   -3.6487 C   0  0  0  0  0  0  0  0  0  0  0  0
   14.3731  -12.7997   -4.7618 C   0  0  0  0  0  0  0  0  0  0  0  0
   14.4556  -13.3765   -5.9857 N   0  0  0  0  0  0  0  0  0  0  0  0
   14.9627  -12.7444   -7.0419 C   0  0  0  0  0  0  0  0  0  0  0  0
   15.0429  -13.3913   -8.3492 C   0  0  0  0  0  0  0  0  0  0  0  0
   16.2293  -13.8067   -8.9055 C   0  0  0  0  0  0  0  0  0  0  0  0
   16.2525  -14.4082  -10.1380 C   0  0  0  0  0  0  0  0  0  0  0  0
   13.8598  -13.5755   -9.0274 C   0  0  0  0  0  0  0  0  0  0  0  0
   13.9140  -14.1824  -10.2638 C   0  0  0  0  0  0  0  0  0  0  0  0
   15.0923  -14.6011  -10.8286 C   0  0  0  0  0  0  0  0  0  0  0  0
   15.0651  -15.2412  -12.1416 C   0  0  0  0  0  0  0  0  0  0  0  0
   15.9187  -16.3911  -12.2894 N   0  0  1  0  0  4  0  0  0  0  0  0
   15.4991  -17.3809  -11.3369 C   0  0  0  0  0  0  0  0  0  0  0  0
   14.4148  -18.3012  -11.8067 C   0  0  0  0  0  0  0  0  0  0  0  0
   16.1240  -16.8607  -13.6015 C   0  0  0  0  0  0  0  0  0  0  0  0
   15.1764  -17.9093  -14.0836 C   0  0  0  0  0  0  0  0  0  0  0  0
   14.8788  -18.9733  -13.0761 C   0  0  1  0  0  0  0  0  0  0  0  0
   16.0639  -19.7343  -12.8093 N   0  0  0  0  0  0  0  0  0  0  0  0
   16.0660  -21.1555  -13.0584 C   0  0  0  0  0  0  0  0  0  0  0  0
   15.9130  -21.5397  -14.2469 O   0  0  0  0  0  0  0  0  0  0  0  0
   16.2367  -22.0790  -11.9835 N   0  0  0  0  0  0  0  0  0  0  0  0
   16.3393  -23.4689  -12.2628 C   0  0  0  0  0  0  0  0  0  0  0  0
   16.2529  -23.8646  -13.5808 C   0  0  0  0  0  0  0  0  0  0  0  0
   16.5190  -24.4216  -11.2818 C   0  0  0  0  0  0  0  0  0  0  0  0
   16.6113  -25.7614  -11.6170 C   0  0  0  0  0  0  0  0  0  0  0  0
   16.5242  -26.1474  -12.9332 C   0  0  0  0  0  0  0  0  0  0  0  0
   16.6362  -27.8329  -13.4032 Cl  0  0  0  0  0  0  0  0  0  0  0  0
   16.3432  -25.1946  -13.9306 C   0  0  0  0  0  0  0  0  0  0  0  0
   16.2502  -25.5589  -15.2969 N   0  0  0  0  0  0  0  0  0  0  0  0
   15.0519  -26.1357  -15.7829 C   0  0  0  0  0  0  0  0  0  0  0  0
   14.2552  -26.7513  -15.0518 O   0  0  0  0  0  0  0  0  0  0  0  0
   14.7531  -25.9885  -17.2259 C   0  0  0  0  0  0  0  0  0  0  0  0
   14.0331  -27.2051  -17.7050 C   0  0  0  0  0  0  0  0  0  0  0  0
  1  2  2  0
  1  6  1  0
  2  3  1  0
  3  4  2  0
  4  5  1  0
  5  6  2  0
  6  7  1  0
  7  8  2  0
  7 17  1  0
  8  9  1  0
  9 10  1  0
  9 15  2  0
 10 11  2  0
 10 12  1  0
 12 13  2  0
 14 13  1  1
 14 15  1  0
 15 16  1  0
 16 17  2  0
 17 18  1  0
 18 19  2  0
 18 21  1  0
 19 20  1  0
 20 23  2  0
 21 22  2  0
 22 23  1  0
 24 23  1  1
 25 24  1  6
 26 25  1  1
 28 25  1  1
 27 26  1  1
 27 30  1  0
 29 28  1  1
 29 30  1  0
 30 31  1  1
 31 32  1  0
 32 33  2  0
 32 34  1  0
 34 35  1  0
 35 36  2  0
 35 37  1  0
 36 41  1  0
 37 38  2  0
 38 39  1  0
 39 40  1  0
 39 41  2  0
 41 42  1  0
 42 43  1  0
 43 44  2  0
 45 43  1  1
 46 45  1  6
M  CHG  1  25   1
M  END
$$$$
