
     RDKit          3D

 46 51  0  0  0  0  0  0  0  0999 V2000
   18.1486  -13.2576   -8.9263 C   0  0  0  0  0  0  0  0  0  0  0  0
   18.0029  -12.3834   -9.9821 C   0  0  0  0  0  0  0  0  0  0  0  0
   16.7458  -11.8154  -10.1616 C   0  0  0  0  0  0  0  0  0  0  0  0
   15.6921  -12.1072   -9.3287 C   0  0  0  0  0  0  0  0  0  0  0  0
   15.8847  -12.9829   -8.2916 C   0  0  0  0  0  0  0  0  0  0  0  0
   17.1148  -13.5679   -8.0787 C   0  0  0  0  0  0  0  0  0  0  0  0
   17.3688  -14.4932   -7.0024 C   0  0  0  0  0  0  0  0  0  0  0  0
   18.0175  -14.0772   -5.8650 C   0  0  0  0  0  0  0  0  0  0  0  0
   18.2513  -14.9743   -4.8393 C   0  0  0  0  0  0  0  0  0  0  0  0
   18.9347  -14.5899   -3.6108 C   0  0  0  0  0  0  0  0  0  0  0  0
   19.3221  -13.3975   -3.4877 O   0  0  0  0  0  0  0  0  0  0  0  0
   19.1330  -15.5671   -2.6145 N   0  0  0  0  0  0  0  0  0  0  0  0
   18.7391  -16.7704   -2.7459 C   0  0  0  0  0  0  0  0  0  0  0  0
   18.0393  -17.2954   -3.9269 C   0  0  0  0  0  0  0  0  0  0  0  0
   17.8264  -16.2755   -4.9788 C   0  0  0  0  0  0  0  0  0  0  0  0
   17.1900  -16.6444   -6.1175 N   0  0  0  0  0  0  0  0  0  0  0  0
   16.9570  -15.7938   -7.1147 C   0  0  0  0  0  0  0  0  0  0  0  0
   16.2720  -16.2191   -8.3327 C   0  0  0  0  0  0  0  0  0  0  0  0
   16.9327  -16.4761   -9.5104 C   0  0  0  0  0  0  0  0  0  0  0  0
   16.2435  -16.8716  -10.6285 C   0  0  0  0  0  0  0  0  0  0  0  0
   14.9045  -16.3567   -8.2634 C   0  0  0  0  0  0  0  0  0  0  0  0
   14.2388  -16.7553   -9.4026 C   0  0  0  0  0  0  0  0  0  0  0  0
   14.8879  -17.0146  -10.5833 C   0  0  0  0  0  0  0  0  0  0  0  0
   14.1106  -17.4380  -11.7457 C   0  0  0  0  0  0  0  0  0  0  0  0
   14.2672  -16.6280  -12.9256 N   0  0  1  0  0  4  0  0  0  0  0  0
   13.4803  -17.2144  -13.9744 C   0  0  0  0  0  0  0  0  0  0  0  0
   12.0519  -16.7672  -14.0284 C   0  0  0  0  0  0  0  0  0  0  0  0
   14.1181  -15.2370  -12.7609 C   0  0  0  0  0  0  0  0  0  0  0  0
   12.7433  -14.6912  -12.9655 C   0  0  0  0  0  0  0  0  0  0  0  0
   12.0291  -15.2627  -14.1481 C   0  0  1  0  0  0  0  0  0  0  0  0
   12.6951  -14.8683  -15.3546 N   0  0  0  0  0  0  0  0  0  0  0  0
   12.0663  -13.9110  -16.2321 C   0  0  0  0  0  0  0  0  0  0  0  0
   12.8092  -13.0834  -16.8209 O   0  0  0  0  0  0  0  0  0  0  0  0
   10.6506  -13.9163  -16.4145 N   0  0  0  0  0  0  0  0  0  0  0  0
   10.1128  -13.8698  -17.7294 C   0  0  0  0  0  0  0  0  0  0  0  0
    8.7411  -13.8124  -17.8577 C   0  0  0  0  0  0  0  0  0  0  0  0
   10.8976  -13.8799  -18.8635 C   0  0  0  0  0  0  0  0  0  0  0  0
   10.3141  -13.8332  -20.1178 C   0  0  0  0  0  0  0  0  0  0  0  0
    8.9461  -13.7762  -20.2370 C   0  0  0  0  0  0  0  0  0  0  0  0
    8.1646  -13.7154  -21.8054 Cl  0  0  0  0  0  0  0  0  0  0  0  0
    8.1452  -13.7653  -19.0995 C   0  0  0  0  0  0  0  0  0  0  0  0
    6.7321  -13.7062  -19.1874 N   0  0  0  0  0  0  0  0  0  0  0  0
    6.1179  -13.6046  -20.4591 C   0  0  0  0  0  0  0  0  0  0  0  0
    6.7638  -13.6177  -21.5226 O   0  0  0  0  0  0  0  0  0  0  0  0
    4.6430  -13.4785  -20.5031 C   0  0  0  0  0  0  0  0  0  0  0  0
    4.2757  -12.0338  -20.5806 C   0  0  0  0  0  0  0  0  0  0  0  0
  1  2  2  0
  1  6  1  0
  2  3  1  0
  3  4  2  0
  4  5  1  0
  5  6  2  0
  6  7  1  0
  7  8  2  0
  7 17  1  0
  8  9  1  0
  9 10  1  0
  9 15  2  0
 10 11  2  0
 10 12  1  0
 12 13  2  0
 14 13  1  1
 14 15  1  0
 15 16  1  0
 16 17  2  0
 17 18  1  0
 18 19  2  0
 18 21  1  0
 19 20  1  0
 20 23  2  0
 21 22  2  0
 22 23  1  0
 24 23  1  1
 25 24  1  1
 26 25  1  1
 28 25  1  1
 27 26  1  1
 27 30  1  0
 29 28  1  1
 29 30  1  0
 30 31  1  6
 31 32  1  0
 32 33  2  0
 32 34  1  0
 34 35  1  0
 35 36  2  0
 35 37  1  0
 36 41  1  0
 37 38  2  0
 38 39  1  0
 39 40  1  0
 39 41  2  0
 41 42  1  0
 42 43  1  0
 43 44  2  0
 45 43  1  1
 46 45  1  6
M  CHG  1  25   1
M  END
$$$$
