
     RDKit          3D

 46 51  0  0  0  0  0  0  0  0999 V2000
   15.9357  -16.5371   -8.9186 C   0  0  0  0  0  0  0  0  0  0  0  0
   16.1777  -17.5502   -9.8215 C   0  0  0  0  0  0  0  0  0  0  0  0
   17.5032  -17.9322  -10.0004 C   0  0  0  0  0  0  0  0  0  0  0  0
   18.5306  -17.3319   -9.3122 C   0  0  0  0  0  0  0  0  0  0  0  0
   18.2412  -16.3282   -8.4244 C   0  0  0  0  0  0  0  0  0  0  0  0
   16.9409  -15.9195   -8.2175 C   0  0  0  0  0  0  0  0  0  0  0  0
   16.5847  -14.8705   -7.2946 C   0  0  0  0  0  0  0  0  0  0  0  0
   17.0704  -14.8790   -6.0095 C   0  0  0  0  0  0  0  0  0  0  0  0
   16.7235  -13.8649   -5.1362 C   0  0  0  0  0  0  0  0  0  0  0  0
   17.2078  -13.8224   -3.7622 C   0  0  0  0  0  0  0  0  0  0  0  0
   17.9682  -14.7451   -3.3653 O   0  0  0  0  0  0  0  0  0  0  0  0
   16.8052  -12.7526   -2.9374 N   0  0  0  0  0  0  0  0  0  0  0  0
   16.0363  -11.8238   -3.3452 C   0  0  0  0  0  0  0  0  0  0  0  0
   15.4747  -11.7399   -4.7008 C   0  0  0  0  0  0  0  0  0  0  0  0
   15.8926  -12.8597   -5.5746 C   0  0  0  0  0  0  0  0  0  0  0  0
   15.4356  -12.8893   -6.8504 N   0  0  0  0  0  0  0  0  0  0  0  0
   15.7595  -13.8580   -7.7042 C   0  0  0  0  0  0  0  0  0  0  0  0
   15.2497  -13.8672   -9.0731 C   0  0  0  0  0  0  0  0  0  0  0  0
   13.9079  -13.8437   -9.3707 C   0  0  0  0  0  0  0  0  0  0  0  0
   13.4789  -13.8554  -10.6734 C   0  0  0  0  0  0  0  0  0  0  0  0
   16.1814  -13.9033  -10.0852 C   0  0  0  0  0  0  0  0  0  0  0  0
   15.7209  -13.9145  -11.3843 C   0  0  0  0  0  0  0  0  0  0  0  0
   14.3842  -13.8911  -11.6930 C   0  0  0  0  0  0  0  0  0  0  0  0
   13.9767  -13.8999  -13.0960 C   0  0  0  0  0  0  0  0  0  0  0  0
   14.5119  -14.9743  -13.8910 N   0  0  1  0  0  4  0  0  0  0  0  0
   14.1319  -16.2147  -13.2746 C   0  0  0  0  0  0  0  0  0  0  0  0
   12.7998  -16.7557  -13.6946 C   0  0  0  0  0  0  0  0  0  0  0  0
   14.2990  -14.8977  -15.2813 C   0  0  0  0  0  0  0  0  0  0  0  0
   13.0669  -15.5644  -15.7986 C   0  0  0  0  0  0  0  0  0  0  0  0
   12.8002  -16.9066  -15.1964 C   0  0  1  0  0  0  0  0  0  0  0  0
   13.8290  -17.8261  -15.5849 N   0  0  0  0  0  0  0  0  0  0  0  0
   13.4741  -19.0274  -16.3008 C   0  0  0  0  0  0  0  0  0  0  0  0
   13.5786  -20.1228  -15.6904 O   0  0  0  0  0  0  0  0  0  0  0  0
   13.0222  -18.9580  -17.6530 N   0  0  0  0  0  0  0  0  0  0  0  0
   12.6130  -20.1460  -18.3175 C   0  0  0  0  0  0  0  0  0  0  0  0
   12.6643  -21.3265  -17.6068 C   0  0  0  0  0  0  0  0  0  0  0  0
   12.1738  -20.1631  -19.6248 C   0  0  0  0  0  0  0  0  0  0  0  0
   11.7887  -21.3533  -20.2174 C   0  0  0  0  0  0  0  0  0  0  0  0
   11.8429  -22.5255  -19.5020 C   0  0  0  0  0  0  0  0  0  0  0  0
   11.3647  -24.0556  -20.2124 Cl  0  0  0  0  0  0  0  0  0  0  0  0
   12.2842  -22.5195  -18.1826 C   0  0  0  0  0  0  0  0  0  0  0  0
   12.3513  -23.7101  -17.4171 N   0  0  0  0  0  0  0  0  0  0  0  0
   13.5662  -24.0594  -16.7793 C   0  0  0  0  0  0  0  0  0  0  0  0
   14.5593  -23.3098  -16.7642 O   0  0  0  0  0  0  0  0  0  0  0  0
   13.6367  -25.3772  -16.1073 C   0  0  0  0  0  0  0  0  0  0  0  0
   14.1107  -25.1885  -14.7045 C   0  0  0  0  0  0  0  0  0  0  0  0
  1  2  2  0
  1  6  1  0
  2  3  1  0
  3  4  2  0
  4  5  1  0
  5  6  2  0
  6  7  1  0
  7  8  2  0
  7 17  1  0
  8  9  1  0
  9 10  1  0
  9 15  2  0
 10 11  2  0
 10 12  1  0
 12 13  2  0
 14 13  1  1
 14 15  1  0
 15 16  1  0
 16 17  2  0
 17 18  1  0
 18 19  2  0
 18 21  1  0
 19 20  1  0
 20 23  2  0
 21 22  2  0
 22 23  1  0
 24 23  1  1
 25 24  1  1
 26 25  1  1
 28 25  1  1
 27 26  1  1
 27 30  1  0
 29 28  1  1
 29 30  1  0
 30 31  1  1
 31 32  1  0
 32 33  2  0
 32 34  1  0
 34 35  1  0
 35 36  2  0
 35 37  1  0
 36 41  1  0
 37 38  2  0
 38 39  1  0
 39 40  1  0
 39 41  2  0
 41 42  1  0
 42 43  1  0
 43 44  2  0
 45 43  1  1
 46 45  1  6
M  CHG  1  25   1
M  END
$$$$
