
     RDKit          3D

 46 51  0  0  0  0  0  0  0  0999 V2000
   16.1472  -10.6417   -7.2471 C   0  0  0  0  0  0  0  0  0  0  0  0
   16.4691   -9.6532   -8.1525 C   0  0  0  0  0  0  0  0  0  0  0  0
   15.8164   -9.6859   -9.3805 C   0  0  0  0  0  0  0  0  0  0  0  0
   14.8913  -10.6560   -9.6849 C   0  0  0  0  0  0  0  0  0  0  0  0
   14.6037  -11.6189   -8.7524 C   0  0  0  0  0  0  0  0  0  0  0  0
   15.2282  -11.6227   -7.5233 C   0  0  0  0  0  0  0  0  0  0  0  0
   14.9596  -12.6116   -6.5090 C   0  0  0  0  0  0  0  0  0  0  0  0
   14.7019  -12.2294   -5.2148 C   0  0  0  0  0  0  0  0  0  0  0  0
   14.4425  -13.1882   -4.2530 C   0  0  0  0  0  0  0  0  0  0  0  0
   14.1633  -12.8417   -2.8651 C   0  0  0  0  0  0  0  0  0  0  0  0
   14.1600  -11.6247   -2.5396 O   0  0  0  0  0  0  0  0  0  0  0  0
   13.9095  -13.8814   -1.9478 N   0  0  0  0  0  0  0  0  0  0  0  0
   13.9148  -15.1091   -2.2838 C   0  0  0  0  0  0  0  0  0  0  0  0
   14.1800  -15.6014   -3.6430 C   0  0  0  0  0  0  0  0  0  0  0  0
   14.4476  -14.5160   -4.6137 C   0  0  0  0  0  0  0  0  0  0  0  0
   14.7066  -14.8499   -5.9017 N   0  0  0  0  0  0  0  0  0  0  0  0
   14.9584  -13.9399   -6.8400 C   0  0  0  0  0  0  0  0  0  0  0  0
   15.2380  -14.3279   -8.2203 C   0  0  0  0  0  0  0  0  0  0  0  0
   16.5004  -14.2980   -8.7635 C   0  0  0  0  0  0  0  0  0  0  0  0
   16.7114  -14.6708  -10.0665 C   0  0  0  0  0  0  0  0  0  0  0  0
   14.1671  -14.7342   -8.9829 C   0  0  0  0  0  0  0  0  0  0  0  0
   14.4094  -15.1027  -10.2889 C   0  0  0  0  0  0  0  0  0  0  0  0
   15.6651  -15.0769  -10.8414 C   0  0  0  0  0  0  0  0  0  0  0  0
   15.8399  -15.4881  -12.2324 C   0  0  0  0  0  0  0  0  0  0  0  0
   16.6929  -16.6294  -12.4396 N   0  0  1  0  0  4  0  0  0  0  0  0
   17.4482  -16.8435  -11.2369 C   0  0  0  0  0  0  0  0  0  0  0  0
   16.7822  -17.7052  -10.2085 C   0  0  0  0  0  0  0  0  0  0  0  0
   16.0891  -17.7773  -12.9892 C   0  0  0  0  0  0  0  0  0  0  0  0
   15.5472  -18.7698  -12.0138 C   0  0  0  0  0  0  0  0  0  0  0  0
   16.4438  -19.0308  -10.8462 C   0  0  1  0  0  0  0  0  0  0  0  0
   17.6476  -19.6689  -11.2917 N   0  0  0  0  0  0  0  0  0  0  0  0
   17.8634  -21.0642  -10.9940 C   0  0  0  0  0  0  0  0  0  0  0  0
   18.9460  -21.5810  -11.3736 O   0  0  0  0  0  0  0  0  0  0  0  0
   16.8735  -21.8167  -10.2932 N   0  0  0  0  0  0  0  0  0  0  0  0
   16.9941  -23.2308  -10.2130 C   0  0  0  0  0  0  0  0  0  0  0  0
   18.1660  -23.7446   -9.6993 C   0  0  0  0  0  0  0  0  0  0  0  0
   16.0001  -24.0946  -10.6228 C   0  0  0  0  0  0  0  0  0  0  0  0
   16.1773  -25.4635  -10.5197 C   0  0  0  0  0  0  0  0  0  0  0  0
   17.3484  -25.9675  -10.0065 C   0  0  0  0  0  0  0  0  0  0  0  0
   17.6155  -27.6940   -9.8574 Cl  0  0  0  0  0  0  0  0  0  0  0  0
   18.3575  -25.1050   -9.5900 C   0  0  0  0  0  0  0  0  0  0  0  0
   19.5763  -25.5919   -9.0558 N   0  0  0  0  0  0  0  0  0  0  0  0
   20.1615  -24.9345   -7.9467 C   0  0  0  0  0  0  0  0  0  0  0  0
   19.6671  -23.9170   -7.4285 O   0  0  0  0  0  0  0  0  0  0  0  0
   21.4149  -25.4983   -7.3952 C   0  0  0  0  0  0  0  0  0  0  0  0
   21.8841  -24.6416   -6.2666 C   0  0  0  0  0  0  0  0  0  0  0  0
  1  2  2  0
  1  6  1  0
  2  3  1  0
  3  4  2  0
  4  5  1  0
  5  6  2  0
  6  7  1  0
  7  8  2  0
  7 17  1  0
  8  9  1  0
  9 10  1  0
  9 15  2  0
 10 11  2  0
 10 12  1  0
 12 13  2  0
 14 13  1  1
 14 15  1  0
 15 16  1  0
 16 17  2  0
 17 18  1  0
 18 19  2  0
 18 21  1  0
 19 20  1  0
 20 23  2  0
 21 22  2  0
 22 23  1  0
 24 23  1  1
 25 24  1  1
 26 25  1  1
 28 25  1  1
 27 26  1  1
 27 30  1  0
 29 28  1  1
 29 30  1  0
 30 31  1  6
 31 32  1  0
 32 33  2  0
 32 34  1  0
 34 35  1  0
 35 36  2  0
 35 37  1  0
 36 41  1  0
 37 38  2  0
 38 39  1  0
 39 40  1  0
 39 41  2  0
 41 42  1  0
 42 43  1  0
 43 44  2  0
 45 43  1  1
 46 45  1  6
M  CHG  1  25   1
M  END
$$$$
