
     RDKit          3D

 46 51  0  0  0  0  0  0  0  0999 V2000
   13.6028  -12.0549  -11.2362 C   0  0  0  0  0  0  0  0  0  0  0  0
   14.8148  -12.6619  -11.4551 C   0  0  0  0  0  0  0  0  0  0  0  0
   15.8445  -11.9375  -12.0377 C   0  0  0  0  0  0  0  0  0  0  0  0
   15.6450  -10.6206  -12.3911 C   0  0  0  0  0  0  0  0  0  0  0  0
   14.4097  -10.0305  -12.1589 C   0  0  0  0  0  0  0  0  0  0  0  0
   13.3684  -10.7490  -11.5742 C   0  0  0  0  0  0  0  0  0  0  0  0
   12.0887  -10.0927  -11.3483 C   0  0  0  0  0  0  0  0  0  0  0  0
   12.0006   -8.8512  -10.7534 C   0  0  0  0  0  0  0  0  0  0  0  0
   10.7628   -8.2393  -10.5459 C   0  0  0  0  0  0  0  0  0  0  0  0
   10.6429   -6.9335   -9.9221 C   0  0  0  0  0  0  0  0  0  0  0  0
   11.6533   -6.2966   -9.5411 O   0  0  0  0  0  0  0  0  0  0  0  0
    9.3511   -6.3735   -9.7437 N   0  0  0  0  0  0  0  0  0  0  0  0
    8.2880   -7.0048  -10.1258 C   0  0  0  0  0  0  0  0  0  0  0  0
    8.2834   -8.3264  -10.7663 C   0  0  0  0  0  0  0  0  0  0  0  0
    9.6200   -8.9080  -10.9518 C   0  0  0  0  0  0  0  0  0  0  0  0
    9.7062  -10.1182  -11.5316 N   0  0  0  0  0  0  0  0  0  0  0  0
   10.9197  -10.7089  -11.7306 C   0  0  0  0  0  0  0  0  0  0  0  0
   11.0359  -12.0296  -12.3622 C   0  0  0  0  0  0  0  0  0  0  0  0
   10.5625  -13.1478  -11.7243 C   0  0  0  0  0  0  0  0  0  0  0  0
   10.6678  -14.4063  -12.3129 C   0  0  0  0  0  0  0  0  0  0  0  0
   11.6181  -12.1872  -13.6015 C   0  0  0  0  0  0  0  0  0  0  0  0
   11.7181  -13.4411  -14.1781 C   0  0  0  0  0  0  0  0  0  0  0  0
   11.2478  -14.5781  -13.5519 C   0  0  0  0  0  0  0  0  0  0  0  0
   11.3385  -15.9304  -14.1378 C   0  0  0  0  0  0  0  0  0  0  0  0
   12.4958  -16.6746  -13.6863 N   0  0  1  0  0  4  0  0  0  0  0  0
   13.7299  -16.2266  -14.2680 C   0  0  0  0  0  0  0  0  0  0  0  0
   14.7843  -17.2751  -13.9376 C   0  0  0  0  0  0  0  0  0  0  0  0
   12.5335  -16.5801  -12.2440 C   0  0  0  0  0  0  0  0  0  0  0  0
   13.8934  -16.7351  -11.6597 C   0  0  0  0  0  0  0  0  0  0  0  0
   14.8200  -17.5984  -12.4800 C   0  0  1  0  0  0  0  0  0  0  0  0
   14.4727  -18.9810  -12.1892 N   0  0  0  0  0  0  0  0  0  0  0  0
   15.3729  -19.8812  -11.5494 C   0  0  0  0  0  0  0  0  0  0  0  0
   16.6107  -19.7076  -11.7395 O   0  0  0  0  0  0  0  0  0  0  0  0
   14.9448  -20.9494  -10.7197 N   0  0  0  0  0  0  0  0  0  0  0  0
   15.6633  -22.1708  -10.6017 C   0  0  0  0  0  0  0  0  0  0  0  0
   16.9173  -22.3892  -11.1120 C   0  0  0  0  0  0  0  0  0  0  0  0
   15.0570  -23.2160   -9.9243 C   0  0  0  0  0  0  0  0  0  0  0  0
   15.7032  -24.4341   -9.7735 C   0  0  0  0  0  0  0  0  0  0  0  0
   16.9639  -24.6541  -10.2863 C   0  0  0  0  0  0  0  0  0  0  0  0
   17.7752  -26.2058  -10.0887 Cl  0  0  0  0  0  0  0  0  0  0  0  0
   17.5690  -23.6145  -10.9611 C   0  0  0  0  0  0  0  0  0  0  0  0
   18.8715  -23.7757  -11.5158 N   0  0  0  0  0  0  0  0  0  0  0  0
   19.9872  -23.1129  -10.9298 C   0  0  0  0  0  0  0  0  0  0  0  0
   19.7568  -22.3773   -9.9168 O   0  0  0  0  0  0  0  0  0  0  0  0
   21.3570  -23.2829  -11.4891 C   0  0  0  0  0  0  0  0  0  0  0  0
   21.4647  -22.3739  -12.7176 C   0  0  0  0  0  0  0  0  0  0  0  0
  1  2  2  0
  1  6  1  0
  2  3  1  0
  3  4  2  0
  4  5  1  0
  5  6  2  0
  6  7  1  0
  7  8  2  0
  7 17  1  0
  8  9  1  0
  9 10  1  0
  9 15  2  0
 10 11  2  0
 10 12  1  0
 12 13  2  0
 13 14  1  0
 14 15  1  0
 15 16  1  0
 16 17  2  0
 17 18  1  0
 18 19  2  0
 18 21  1  0
 19 20  1  0
 20 23  2  0
 21 22  2  0
 22 23  1  0
 23 24  1  0
 25 24  1  6
 25 26  1  0
 25 28  1  0
 26 27  1  0
 27 30  1  0
 28 29  1  0
 29 30  1  0
 30 31  1  6
 31 32  1  0
 32 33  2  0
 32 34  1  0
 34 35  1  0
 35 36  2  0
 35 37  1  0
 36 41  1  0
 37 38  2  0
 38 39  1  0
 39 40  1  0
 39 41  2  0
 41 42  1  0
 42 43  1  0
 43 44  2  0
 43 45  1  0
 45 46  1  0
M  CHG  1  25   1
M  END
$$$$
