
     RDKit          3D

 46 51  0  0  0  0  0  0  0  0999 V2000
   15.9229  -14.4904  -11.2200 C   0  0  0  0  0  0  0  0  0  0  0  0
   16.1086  -15.8352  -11.4259 C   0  0  0  0  0  0  0  0  0  0  0  0
   15.0556  -16.6038  -11.9004 C   0  0  0  0  0  0  0  0  0  0  0  0
   13.8369  -16.0155  -12.1604 C   0  0  0  0  0  0  0  0  0  0  0  0
   13.6756  -14.6535  -11.9436 C   0  0  0  0  0  0  0  0  0  0  0  0
   14.7266  -13.8720  -11.4672 C   0  0  0  0  0  0  0  0  0  0  0  0
   14.5153  -12.4475  -11.2533 C   0  0  0  0  0  0  0  0  0  0  0  0
   13.9115  -11.6491  -12.2025 C   0  0  0  0  0  0  0  0  0  0  0  0
   13.7185  -10.2847  -11.9772 C   0  0  0  0  0  0  0  0  0  0  0  0
   13.0860   -9.4227  -12.9597 C   0  0  0  0  0  0  0  0  0  0  0  0
   12.6839   -9.8711  -14.0592 O   0  0  0  0  0  0  0  0  0  0  0  0
   12.9232   -8.0449  -12.6612 N   0  0  0  0  0  0  0  0  0  0  0  0
   13.3272   -7.5504  -11.5356 C   0  0  0  0  0  0  0  0  0  0  0  0
   13.9784   -8.3204  -10.4680 C   0  0  0  0  0  0  0  0  0  0  0  0
   14.1479   -9.7473  -10.7752 C   0  0  0  0  0  0  0  0  0  0  0  0
   14.7365  -10.5259   -9.8502 N   0  0  0  0  0  0  0  0  0  0  0  0
   14.9212  -11.8581  -10.0785 C   0  0  0  0  0  0  0  0  0  0  0  0
   15.5611  -12.7260   -9.0815 C   0  0  0  0  0  0  0  0  0  0  0  0
   16.8221  -12.4424   -8.6222 C   0  0  0  0  0  0  0  0  0  0  0  0
   17.4401  -13.2586   -7.6771 C   0  0  0  0  0  0  0  0  0  0  0  0
   14.9240  -13.8410   -8.5812 C   0  0  0  0  0  0  0  0  0  0  0  0
   15.5457  -14.6456   -7.6428 C   0  0  0  0  0  0  0  0  0  0  0  0
   16.8141  -14.3768   -7.1684 C   0  0  0  0  0  0  0  0  0  0  0  0
   17.5067  -15.2137   -6.1683 C   0  0  0  0  0  0  0  0  0  0  0  0
   18.0625  -16.4299   -6.7243 N   0  0  1  0  0  4  0  0  0  0  0  0
   19.2177  -16.2096   -7.5482 C   0  0  0  0  0  0  0  0  0  0  0  0
   19.4950  -17.5140   -8.2842 C   0  0  0  0  0  0  0  0  0  0  0  0
   18.3698  -17.3087   -5.6180 C   0  0  0  0  0  0  0  0  0  0  0  0
   19.4521  -18.2896   -5.9030 C   0  0  0  0  0  0  0  0  0  0  0  0
   19.5586  -18.6822   -7.3560 C   0  0  1  0  0  0  0  0  0  0  0  0
   18.5181  -19.6690   -7.6015 N   0  0  0  0  0  0  0  0  0  0  0  0
   18.6707  -21.0458   -7.2681 C   0  0  0  0  0  0  0  0  0  0  0  0
   18.6784  -21.3556   -6.0424 O   0  0  0  0  0  0  0  0  0  0  0  0
   18.8123  -22.0695   -8.2401 N   0  0  0  0  0  0  0  0  0  0  0  0
   18.7647  -23.4533   -7.9161 C   0  0  0  0  0  0  0  0  0  0  0  0
   18.4792  -23.9524   -6.6711 C   0  0  0  0  0  0  0  0  0  0  0  0
   19.0245  -24.3644   -8.9267 C   0  0  0  0  0  0  0  0  0  0  0  0
   18.9943  -25.7287   -8.6778 C   0  0  0  0  0  0  0  0  0  0  0  0
   18.7073  -26.2308   -7.4263 C   0  0  0  0  0  0  0  0  0  0  0  0
   18.6719  -27.9660   -7.1217 Cl  0  0  0  0  0  0  0  0  0  0  0  0
   18.4484  -25.3251   -6.4189 C   0  0  0  0  0  0  0  0  0  0  0  0
   18.1452  -25.7777   -5.1024 N   0  0  0  0  0  0  0  0  0  0  0  0
   19.1943  -26.0564   -4.1808 C   0  0  0  0  0  0  0  0  0  0  0  0
   20.3871  -25.9030   -4.5981 O   0  0  0  0  0  0  0  0  0  0  0  0
   18.8931  -26.5068   -2.7936 C   0  0  0  0  0  0  0  0  0  0  0  0
   19.9971  -25.9566   -1.8849 C   0  0  0  0  0  0  0  0  0  0  0  0
  1  2  2  0
  1  6  1  0
  2  3  1  0
  3  4  2  0
  4  5  1  0
  5  6  2  0
  6  7  1  0
  7  8  2  0
  7 17  1  0
  8  9  1  0
  9 10  1  0
  9 15  2  0
 10 11  2  0
 10 12  1  0
 12 13  2  0
 13 14  1  0
 14 15  1  0
 15 16  1  0
 16 17  2  0
 17 18  1  0
 18 19  2  0
 18 21  1  0
 19 20  1  0
 20 23  2  0
 21 22  2  0
 22 23  1  0
 23 24  1  0
 25 24  1  1
 25 26  1  0
 25 28  1  0
 26 27  1  0
 27 30  1  0
 28 29  1  0
 29 30  1  0
 30 31  1  6
 31 32  1  0
 32 33  2  0
 32 34  1  0
 34 35  1  0
 35 36  2  0
 35 37  1  0
 36 41  1  0
 37 38  2  0
 38 39  1  0
 39 40  1  0
 39 41  2  0
 41 42  1  0
 42 43  1  0
 43 44  2  0
 43 45  1  0
 45 46  1  0
M  CHG  1  25   1
M  END
$$$$
