
     RDKit          3D

 46 51  0  0  0  0  0  0  0  0999 V2000
   16.8221  -13.2018  -10.8547 C   0  0  0  0  0  0  0  0  0  0  0  0
   16.6781  -13.5779  -12.1674 C   0  0  0  0  0  0  0  0  0  0  0  0
   15.4204  -13.5448  -12.7518 C   0  0  0  0  0  0  0  0  0  0  0  0
   14.3298  -13.1370  -12.0148 C   0  0  0  0  0  0  0  0  0  0  0  0
   14.5027  -12.7617  -10.6891 C   0  0  0  0  0  0  0  0  0  0  0  0
   15.7617  -12.7911  -10.0921 C   0  0  0  0  0  0  0  0  0  0  0  0
   15.8995  -12.3898   -8.6995 C   0  0  0  0  0  0  0  0  0  0  0  0
   15.3377  -11.2260   -8.2167 C   0  0  0  0  0  0  0  0  0  0  0  0
   15.4819  -10.8596   -6.8772 C   0  0  0  0  0  0  0  0  0  0  0  0
   14.9008   -9.6402   -6.3443 C   0  0  0  0  0  0  0  0  0  0  0  0
   14.2406   -8.8600   -7.0703 O   0  0  0  0  0  0  0  0  0  0  0  0
   15.0889   -9.3324   -4.9717 N   0  0  0  0  0  0  0  0  0  0  0  0
   15.7650  -10.1165   -4.1953 C   0  0  0  0  0  0  0  0  0  0  0  0
   16.3976  -11.3725   -4.6183 C   0  0  0  0  0  0  0  0  0  0  0  0
   16.2041  -11.6929   -6.0393 C   0  0  0  0  0  0  0  0  0  0  0  0
   16.7516  -12.8273   -6.5102 N   0  0  0  0  0  0  0  0  0  0  0  0
   16.6058  -13.1778   -7.8205 C   0  0  0  0  0  0  0  0  0  0  0  0
   17.1951  -14.4123   -8.3547 C   0  0  0  0  0  0  0  0  0  0  0  0
   18.5520  -14.6086   -8.3113 C   0  0  0  0  0  0  0  0  0  0  0  0
   19.1230  -15.7752   -8.8157 C   0  0  0  0  0  0  0  0  0  0  0  0
   16.4139  -15.4020   -8.9113 C   0  0  0  0  0  0  0  0  0  0  0  0
   16.9900  -16.5571   -9.4096 C   0  0  0  0  0  0  0  0  0  0  0  0
   18.3532  -16.7730   -9.3750 C   0  0  0  0  0  0  0  0  0  0  0  0
   19.0007  -17.9928   -9.8975 C   0  0  0  0  0  0  0  0  0  0  0  0
   19.3290  -18.9546   -8.8660 N   0  0  1  0  0  4  0  0  0  0  0  0
   20.0017  -18.3782   -7.7358 C   0  0  0  0  0  0  0  0  0  0  0  0
   20.5362  -19.5333   -6.8990 C   0  0  0  0  0  0  0  0  0  0  0  0
   18.0968  -19.5979   -8.4681 C   0  0  0  0  0  0  0  0  0  0  0  0
   18.1116  -20.1348   -7.0802 C   0  0  0  0  0  0  0  0  0  0  0  0
   19.4801  -20.5442   -6.5941 C   0  0  1  0  0  0  0  0  0  0  0  0
   19.7547  -21.8531   -7.1669 N   0  0  0  0  0  0  0  0  0  0  0  0
   18.7233  -22.7791   -7.4971 C   0  0  0  0  0  0  0  0  0  0  0  0
   17.9352  -22.4698   -8.4360 O   0  0  0  0  0  0  0  0  0  0  0  0
   18.5461  -24.0164   -6.8260 N   0  0  0  0  0  0  0  0  0  0  0  0
   18.4577  -25.2599   -7.5101 C   0  0  0  0  0  0  0  0  0  0  0  0
   18.1841  -25.3955   -8.8471 C   0  0  0  0  0  0  0  0  0  0  0  0
   18.6618  -26.4179   -6.7779 C   0  0  0  0  0  0  0  0  0  0  0  0
   18.5898  -27.6634   -7.3844 C   0  0  0  0  0  0  0  0  0  0  0  0
   18.3148  -27.8002   -8.7284 C   0  0  0  0  0  0  0  0  0  0  0  0
   18.2257  -29.3875   -9.4881 Cl  0  0  0  0  0  0  0  0  0  0  0  0
   18.1113  -26.6481   -9.4590 C   0  0  0  0  0  0  0  0  0  0  0  0
   17.8229  -26.7192  -10.8524 N   0  0  0  0  0  0  0  0  0  0  0  0
   16.5002  -26.4820  -11.3236 C   0  0  0  0  0  0  0  0  0  0  0  0
   15.5957  -26.3066  -10.4452 O   0  0  0  0  0  0  0  0  0  0  0  0
   16.2042  -26.4440  -12.7827 C   0  0  0  0  0  0  0  0  0  0  0  0
   14.7200  -26.0978  -12.9388 C   0  0  0  0  0  0  0  0  0  0  0  0
  1  2  2  0
  1  6  1  0
  2  3  1  0
  3  4  2  0
  4  5  1  0
  5  6  2  0
  6  7  1  0
  7  8  2  0
  7 17  1  0
  8  9  1  0
  9 10  1  0
  9 15  2  0
 10 11  2  0
 10 12  1  0
 12 13  2  0
 13 14  1  0
 14 15  1  0
 15 16  1  0
 16 17  2  0
 17 18  1  0
 18 19  2  0
 18 21  1  0
 19 20  1  0
 20 23  2  0
 21 22  2  0
 22 23  1  0
 23 24  1  0
 25 24  1  6
 25 26  1  0
 25 28  1  0
 26 27  1  0
 27 30  1  0
 28 29  1  0
 29 30  1  0
 30 31  1  6
 31 32  1  0
 32 33  2  0
 32 34  1  0
 34 35  1  0
 35 36  2  0
 35 37  1  0
 36 41  1  0
 37 38  2  0
 38 39  1  0
 39 40  1  0
 39 41  2  0
 41 42  1  0
 42 43  1  0
 43 44  2  0
 43 45  1  0
 45 46  1  0
M  CHG  1  25   1
M  END
$$$$
