
     RDKit          3D

 46 51  0  0  0  0  0  0  0  0999 V2000
   15.4505  -24.4013   -7.4006 C   0  0  0  0  0  0  0  0  0  0  0  0
   14.8860  -25.0300   -8.4830 C   0  0  0  0  0  0  0  0  0  0  0  0
   15.7025  -25.4941   -9.5039 C   0  0  0  0  0  0  0  0  0  0  0  0
   17.0674  -25.3218   -9.4254 C   0  0  0  0  0  0  0  0  0  0  0  0
   17.6130  -24.6827   -8.3200 C   0  0  0  0  0  0  0  0  0  0  0  0
   16.8019  -24.2127   -7.2886 C   0  0  0  0  0  0  0  0  0  0  0  0
   17.4142  -23.5478   -6.1473 C   0  0  0  0  0  0  0  0  0  0  0  0
   17.3714  -24.0886   -4.8789 C   0  0  0  0  0  0  0  0  0  0  0  0
   17.9651  -23.4344   -3.7977 C   0  0  0  0  0  0  0  0  0  0  0  0
   17.9340  -23.9821   -2.4533 C   0  0  0  0  0  0  0  0  0  0  0  0
   17.3686  -25.0732   -2.2056 O   0  0  0  0  0  0  0  0  0  0  0  0
   18.5593  -23.2607   -1.4031 N   0  0  0  0  0  0  0  0  0  0  0  0
   19.1514  -22.1317   -1.6250 C   0  0  0  0  0  0  0  0  0  0  0  0
   19.2478  -21.4802   -2.9377 C   0  0  0  0  0  0  0  0  0  0  0  0
   18.6009  -22.2255   -4.0265 C   0  0  0  0  0  0  0  0  0  0  0  0
   18.6425  -21.6986   -5.2629 N   0  0  0  0  0  0  0  0  0  0  0  0
   18.0597  -22.3445   -6.3137 C   0  0  0  0  0  0  0  0  0  0  0  0
   18.0941  -21.7868   -7.6718 C   0  0  0  0  0  0  0  0  0  0  0  0
   16.9913  -21.1582   -8.1918 C   0  0  0  0  0  0  0  0  0  0  0  0
   17.0113  -20.6259   -9.4792 C   0  0  0  0  0  0  0  0  0  0  0  0
   19.2215  -21.8761   -8.4595 C   0  0  0  0  0  0  0  0  0  0  0  0
   19.2320  -21.3443   -9.7369 C   0  0  0  0  0  0  0  0  0  0  0  0
   18.1323  -20.7082  -10.2776 C   0  0  0  0  0  0  0  0  0  0  0  0
   18.1090  -20.1302  -11.6361 C   0  0  0  0  0  0  0  0  0  0  0  0
   17.4680  -18.8331  -11.6965 N   0  0  1  0  0  4  0  0  0  0  0  0
   17.6052  -18.1829  -12.9695 C   0  0  0  0  0  0  0  0  0  0  0  0
   17.1537  -16.7401  -12.7836 C   0  0  0  0  0  0  0  0  0  0  0  0
   16.0760  -19.0235  -11.3546 C   0  0  0  0  0  0  0  0  0  0  0  0
   15.1636  -17.9953  -11.9248 C   0  0  0  0  0  0  0  0  0  0  0  0
   15.8108  -16.6489  -12.1366 C   0  0  1  0  0  0  0  0  0  0  0  0
   15.8408  -15.9891  -10.8402 N   0  0  0  0  0  0  0  0  0  0  0  0
   15.4854  -14.6203  -10.6663 C   0  0  0  0  0  0  0  0  0  0  0  0
   15.2590  -13.9360  -11.7049 O   0  0  0  0  0  0  0  0  0  0  0  0
   15.3763  -14.0016   -9.3943 N   0  0  0  0  0  0  0  0  0  0  0  0
   15.0383  -12.6302   -9.2295 C   0  0  0  0  0  0  0  0  0  0  0  0
   14.4093  -11.8638  -10.1769 C   0  0  0  0  0  0  0  0  0  0  0  0
   15.3658  -12.0222   -8.0287 C   0  0  0  0  0  0  0  0  0  0  0  0
   15.0642  -10.6872   -7.8033 C   0  0  0  0  0  0  0  0  0  0  0  0
   14.4319   -9.9162   -8.7556 C   0  0  0  0  0  0  0  0  0  0  0  0
   14.0538   -8.2211   -8.4582 Cl  0  0  0  0  0  0  0  0  0  0  0  0
   14.1051  -10.5201   -9.9518 C   0  0  0  0  0  0  0  0  0  0  0  0
   13.4507   -9.7797  -10.9783 N   0  0  0  0  0  0  0  0  0  0  0  0
   12.2714  -10.2917  -11.5904 C   0  0  0  0  0  0  0  0  0  0  0  0
   11.8587  -11.4278  -11.1915 O   0  0  0  0  0  0  0  0  0  0  0  0
   11.5636   -9.5199  -12.6495 C   0  0  0  0  0  0  0  0  0  0  0  0
   10.4435   -8.7286  -11.9665 C   0  0  0  0  0  0  0  0  0  0  0  0
  1  2  2  0
  1  6  1  0
  2  3  1  0
  3  4  2  0
  4  5  1  0
  5  6  2  0
  6  7  1  0
  7  8  2  0
  7 17  1  0
  8  9  1  0
  9 10  1  0
  9 15  2  0
 10 11  2  0
 10 12  1  0
 12 13  2  0
 13 14  1  0
 14 15  1  0
 15 16  1  0
 16 17  2  0
 17 18  1  0
 18 19  2  0
 18 21  1  0
 19 20  1  0
 20 23  2  0
 21 22  2  0
 22 23  1  0
 23 24  1  0
 25 24  1  6
 25 26  1  0
 25 28  1  0
 26 27  1  0
 27 30  1  0
 28 29  1  0
 29 30  1  0
 30 31  1  1
 31 32  1  0
 32 33  2  0
 32 34  1  0
 34 35  1  0
 35 36  2  0
 35 37  1  0
 36 41  1  0
 37 38  2  0
 38 39  1  0
 39 40  1  0
 39 41  2  0
 41 42  1  0
 42 43  1  0
 43 44  2  0
 43 45  1  0
 45 46  1  0
M  CHG  1  25   1
M  END
$$$$
