
     RDKit          3D

 46 51  0  0  0  0  0  0  0  0999 V2000
   18.4497  -19.0029   -8.4328 C   0  0  0  0  0  0  0  0  0  0  0  0
   18.9476  -20.0688   -9.1512 C   0  0  0  0  0  0  0  0  0  0  0  0
   19.8142  -20.9289   -8.4847 C   0  0  0  0  0  0  0  0  0  0  0  0
   20.1629  -20.7320   -7.1697 C   0  0  0  0  0  0  0  0  0  0  0  0
   19.6424  -19.6576   -6.4958 C   0  0  0  0  0  0  0  0  0  0  0  0
   18.7802  -18.7811   -7.1194 C   0  0  0  0  0  0  0  0  0  0  0  0
   18.2052  -17.6382   -6.4545 C   0  0  0  0  0  0  0  0  0  0  0  0
   18.4762  -17.3940   -5.1300 C   0  0  0  0  0  0  0  0  0  0  0  0
   17.9208  -16.2923   -4.5059 C   0  0  0  0  0  0  0  0  0  0  0  0
   18.1723  -15.9839   -3.1038 C   0  0  0  0  0  0  0  0  0  0  0  0
   18.9228  -16.7526   -2.4457 O   0  0  0  0  0  0  0  0  0  0  0  0
   17.5661  -14.8407   -2.5449 N   0  0  0  0  0  0  0  0  0  0  0  0
   16.8086  -14.0686   -3.2158 C   0  0  0  0  0  0  0  0  0  0  0  0
   16.4690  -14.2575   -4.6332 C   0  0  0  0  0  0  0  0  0  0  0  0
   17.1017  -15.4561   -5.2290 C   0  0  0  0  0  0  0  0  0  0  0  0
   16.8604  -15.7335   -6.5337 N   0  0  0  0  0  0  0  0  0  0  0  0
   17.3866  -16.7897   -7.1499 C   0  0  0  0  0  0  0  0  0  0  0  0
   17.1068  -17.0670   -8.5566 C   0  0  0  0  0  0  0  0  0  0  0  0
   16.0449  -17.8362   -8.9694 C   0  0  0  0  0  0  0  0  0  0  0  0
   15.8253  -18.0693  -10.3031 C   0  0  0  0  0  0  0  0  0  0  0  0
   17.9652  -16.5202   -9.4827 C   0  0  0  0  0  0  0  0  0  0  0  0
   17.7198  -16.7717  -10.8156 C   0  0  0  0  0  0  0  0  0  0  0  0
   16.6631  -17.5377  -11.2389 C   0  0  0  0  0  0  0  0  0  0  0  0
   16.4679  -17.7534  -12.6707 C   0  0  0  0  0  0  0  0  0  0  0  0
   15.8833  -16.6518  -13.3902 N   0  0  1  0  0  4  0  0  0  0  0  0
   15.5772  -17.1020  -14.7193 C   0  0  0  0  0  0  0  0  0  0  0  0
   14.2322  -17.7401  -14.8844 C   0  0  0  0  0  0  0  0  0  0  0  0
   14.8541  -15.9460  -12.7368 C   0  0  0  0  0  0  0  0  0  0  0  0
   13.4621  -16.4244  -12.9888 C   0  0  0  0  0  0  0  0  0  0  0  0
   13.1816  -16.7618  -14.4181 C   0  0  1  0  0  0  0  0  0  0  0  0
   13.2443  -15.5743  -15.2186 N   0  0  0  0  0  0  0  0  0  0  0  0
   12.3302  -15.4139  -16.3233 C   0  0  0  0  0  0  0  0  0  0  0  0
   11.9802  -14.2437  -16.6257 O   0  0  0  0  0  0  0  0  0  0  0  0
   11.8498  -16.5528  -17.0371 N   0  0  0  0  0  0  0  0  0  0  0  0
   10.7918  -16.3984  -17.9737 C   0  0  0  0  0  0  0  0  0  0  0  0
   10.2966  -15.1274  -18.1755 C   0  0  0  0  0  0  0  0  0  0  0  0
   10.2501  -17.4540  -18.6770 C   0  0  0  0  0  0  0  0  0  0  0  0
    9.2196  -17.2397  -19.5760 C   0  0  0  0  0  0  0  0  0  0  0  0
    8.7318  -15.9697  -19.7712 C   0  0  0  0  0  0  0  0  0  0  0  0
    7.4281  -15.6523  -20.8999 Cl  0  0  0  0  0  0  0  0  0  0  0  0
    9.2711  -14.8978  -19.0672 C   0  0  0  0  0  0  0  0  0  0  0  0
    8.7918  -13.5763  -19.2456 N   0  0  0  0  0  0  0  0  0  0  0  0
    9.2838  -12.7971  -20.3206 C   0  0  0  0  0  0  0  0  0  0  0  0
   10.0972  -13.2356  -21.1540 O   0  0  0  0  0  0  0  0  0  0  0  0
    8.7967  -11.4037  -20.4402 C   0  0  0  0  0  0  0  0  0  0  0  0
    7.7512  -11.1582  -19.4036 C   0  0  0  0  0  0  0  0  0  0  0  0
  1  2  2  0
  1  6  1  0
  2  3  1  0
  3  4  2  0
  4  5  1  0
  5  6  2  0
  6  7  1  0
  7  8  2  0
  7 17  1  0
  8  9  1  0
  9 10  1  0
  9 15  2  0
 10 11  2  0
 10 12  1  0
 12 13  2  0
 14 13  1  1
 14 15  1  0
 15 16  1  0
 16 17  2  0
 17 18  1  0
 18 19  2  0
 18 21  1  0
 19 20  1  0
 20 23  2  0
 21 22  2  0
 22 23  1  0
 24 23  1  1
 25 24  1  1
 26 25  1  1
 28 25  1  1
 27 26  1  1
 27 30  1  0
 29 28  1  1
 29 30  1  0
 30 31  1  6
 31 32  1  0
 32 33  2  0
 32 34  1  0
 34 35  1  0
 35 36  2  0
 35 37  1  0
 36 41  1  0
 37 38  2  0
 38 39  1  0
 39 40  1  0
 39 41  2  0
 41 42  1  0
 42 43  1  0
 43 44  2  0
 45 43  1  1
 46 45  1  6
M  CHG  1  25   1
M  END
$$$$
