
     RDKit          3D

 46 51  0  0  0  0  0  0  0  0999 V2000
   14.1622  -13.9303   -7.1328 C   0  0  0  0  0  0  0  0  0  0  0  0
   13.9232  -15.2642   -6.9109 C   0  0  0  0  0  0  0  0  0  0  0  0
   14.6402  -16.2130   -7.6253 C   0  0  0  0  0  0  0  0  0  0  0  0
   15.5822  -15.8126   -8.5478 C   0  0  0  0  0  0  0  0  0  0  0  0
   15.8045  -14.4574   -8.7531 C   0  0  0  0  0  0  0  0  0  0  0  0
   15.0900  -13.4958   -8.0410 C   0  0  0  0  0  0  0  0  0  0  0  0
   15.3537  -12.0852   -8.2867 C   0  0  0  0  0  0  0  0  0  0  0  0
   15.7057  -11.2212   -7.2705 C   0  0  0  0  0  0  0  0  0  0  0  0
   15.9542   -9.8716   -7.5279 C   0  0  0  0  0  0  0  0  0  0  0  0
   16.3261   -8.9417   -6.4764 C   0  0  0  0  0  0  0  0  0  0  0  0
   16.4402   -9.3148   -5.2851 O   0  0  0  0  0  0  0  0  0  0  0  0
   16.5635   -7.5836   -6.8130 N   0  0  0  0  0  0  0  0  0  0  0  0
   16.4543   -7.1661   -8.0330 C   0  0  0  0  0  0  0  0  0  0  0  0
   16.0859   -8.0098   -9.1772 C   0  0  0  0  0  0  0  0  0  0  0  0
   15.8394   -9.4164   -8.8309 C   0  0  0  0  0  0  0  0  0  0  0  0
   15.4963  -10.2589   -9.8211 N   0  0  0  0  0  0  0  0  0  0  0  0
   15.2552  -11.5761   -9.5609 C   0  0  0  0  0  0  0  0  0  0  0  0
   14.8797  -12.5129  -10.6277 C   0  0  0  0  0  0  0  0  0  0  0  0
   15.7675  -12.8169  -11.6282 C   0  0  0  0  0  0  0  0  0  0  0  0
   15.4227  -13.7034  -12.6462 C   0  0  0  0  0  0  0  0  0  0  0  0
   13.6378  -13.1097  -10.6590 C   0  0  0  0  0  0  0  0  0  0  0  0
   13.3045  -13.9890  -11.6741 C   0  0  0  0  0  0  0  0  0  0  0  0
   14.1840  -14.3074  -12.6895 C   0  0  0  0  0  0  0  0  0  0  0  0
   13.8612  -15.2405  -13.7874 C   0  0  0  0  0  0  0  0  0  0  0  0
   13.9097  -16.6322  -13.3901 N   0  0  1  0  0  4  0  0  0  0  0  0
   12.6139  -17.2224  -13.2045 C   0  0  0  0  0  0  0  0  0  0  0  0
   12.8297  -18.5619  -12.5121 C   0  0  0  0  0  0  0  0  0  0  0  0
   14.6676  -17.3418  -14.3965 C   0  0  0  0  0  0  0  0  0  0  0  0
   14.3313  -18.7875  -14.5041 C   0  0  0  0  0  0  0  0  0  0  0  0
   13.8440  -19.4027  -13.2155 C   0  0  1  0  0  0  0  0  0  0  0  0
   15.0234  -19.6761  -12.4086 N   0  0  0  0  0  0  0  0  0  0  0  0
   15.6353  -20.9616  -12.3531 C   0  0  0  0  0  0  0  0  0  0  0  0
   16.5312  -21.2226  -13.2061 O   0  0  0  0  0  0  0  0  0  0  0  0
   15.2865  -21.9474  -11.3943 N   0  0  0  0  0  0  0  0  0  0  0  0
   15.6357  -23.3187  -11.5351 C   0  0  0  0  0  0  0  0  0  0  0  0
   15.8673  -23.9443  -12.7333 C   0  0  0  0  0  0  0  0  0  0  0  0
   15.7509  -24.0792  -10.3831 C   0  0  0  0  0  0  0  0  0  0  0  0
   16.0886  -25.4230  -10.4502 C   0  0  0  0  0  0  0  0  0  0  0  0
   16.3215  -26.0524  -11.6546 C   0  0  0  0  0  0  0  0  0  0  0  0
   16.7498  -27.7600  -11.7278 Cl  0  0  0  0  0  0  0  0  0  0  0  0
   16.2072  -25.2966  -12.8026 C   0  0  0  0  0  0  0  0  0  0  0  0
   16.4346  -25.8859  -14.0797 N   0  0  0  0  0  0  0  0  0  0  0  0
   15.3897  -26.5943  -14.7385 C   0  0  0  0  0  0  0  0  0  0  0  0
   14.2626  -26.6436  -14.1488 O   0  0  0  0  0  0  0  0  0  0  0  0
   15.6210  -27.2436  -16.0587 C   0  0  0  0  0  0  0  0  0  0  0  0
   14.2824  -27.2529  -16.8039 C   0  0  0  0  0  0  0  0  0  0  0  0
  1  2  2  0
  1  6  1  0
  2  3  1  0
  3  4  2  0
  4  5  1  0
  5  6  2  0
  6  7  1  0
  7  8  2  0
  7 17  1  0
  8  9  1  0
  9 10  1  0
  9 15  2  0
 10 11  2  0
 10 12  1  0
 12 13  2  0
 13 14  1  0
 14 15  1  0
 15 16  1  0
 16 17  2  0
 17 18  1  0
 18 19  2  0
 18 21  1  0
 19 20  1  0
 20 23  2  0
 21 22  2  0
 22 23  1  0
 23 24  1  0
 25 24  1  6
 25 26  1  0
 25 28  1  0
 26 27  1  0
 27 30  1  0
 28 29  1  0
 29 30  1  0
 30 31  1  1
 31 32  1  0
 32 33  2  0
 32 34  1  0
 34 35  1  0
 35 36  2  0
 35 37  1  0
 36 41  1  0
 37 38  2  0
 38 39  1  0
 39 40  1  0
 39 41  2  0
 41 42  1  0
 42 43  1  0
 43 44  2  0
 43 45  1  0
 45 46  1  0
M  CHG  1  25   1
M  END
$$$$
