
     RDKit          3D

 46 51  0  0  0  0  0  0  0  0999 V2000
   19.4953  -13.8278   -9.1485 C   0  0  0  0  0  0  0  0  0  0  0  0
   20.5473  -14.2184   -9.9398 C   0  0  0  0  0  0  0  0  0  0  0  0
   21.5572  -14.9981   -9.3950 C   0  0  0  0  0  0  0  0  0  0  0  0
   21.4981  -15.3732   -8.0704 C   0  0  0  0  0  0  0  0  0  0  0  0
   20.4233  -14.9648   -7.2919 C   0  0  0  0  0  0  0  0  0  0  0  0
   19.4033  -14.1815   -7.8290 C   0  0  0  0  0  0  0  0  0  0  0  0
   18.2942  -13.7745   -6.9783 C   0  0  0  0  0  0  0  0  0  0  0  0
   17.8043  -12.4849   -6.9855 C   0  0  0  0  0  0  0  0  0  0  0  0
   16.7395  -12.1154   -6.1614 C   0  0  0  0  0  0  0  0  0  0  0  0
   16.2056  -10.7651   -6.1500 C   0  0  0  0  0  0  0  0  0  0  0  0
   16.6821   -9.8684   -6.8851 O   0  0  0  0  0  0  0  0  0  0  0  0
   15.1215  -10.4624   -5.2856 N   0  0  0  0  0  0  0  0  0  0  0  0
   14.6068  -11.3650   -4.5143 C   0  0  0  0  0  0  0  0  0  0  0  0
   15.0602  -12.7598   -4.4385 C   0  0  0  0  0  0  0  0  0  0  0  0
   16.1828  -13.0753   -5.3327 C   0  0  0  0  0  0  0  0  0  0  0  0
   16.6605  -14.3322   -5.3258 N   0  0  0  0  0  0  0  0  0  0  0  0
   17.7012  -14.6848   -6.1343 C   0  0  0  0  0  0  0  0  0  0  0  0
   18.2376  -16.0518   -6.1425 C   0  0  0  0  0  0  0  0  0  0  0  0
   18.7750  -16.5931   -5.0024 C   0  0  0  0  0  0  0  0  0  0  0  0
   19.2877  -17.8886   -4.9979 C   0  0  0  0  0  0  0  0  0  0  0  0
   18.2196  -16.8264   -7.2824 C   0  0  0  0  0  0  0  0  0  0  0  0
   18.7311  -18.1120   -7.2682 C   0  0  0  0  0  0  0  0  0  0  0  0
   19.2760  -18.6742   -6.1310 C   0  0  0  0  0  0  0  0  0  0  0  0
   19.8304  -20.0418   -6.0808 C   0  0  0  0  0  0  0  0  0  0  0  0
   19.1720  -20.9611   -6.9855 N   0  0  1  0  0  4  0  0  0  0  0  0
   19.2725  -22.3355   -6.5819 C   0  0  0  0  0  0  0  0  0  0  0  0
   18.8072  -23.1809   -7.7604 C   0  0  0  0  0  0  0  0  0  0  0  0
   17.7906  -20.5473   -7.0909 C   0  0  0  0  0  0  0  0  0  0  0  0
   16.8528  -21.6452   -7.4516 C   0  0  0  0  0  0  0  0  0  0  0  0
   17.4781  -22.7404   -8.2799 C   0  0  1  0  0  0  0  0  0  0  0  0
   17.5290  -22.2535   -9.6500 N   0  0  0  0  0  0  0  0  0  0  0  0
   16.5528  -22.6041  -10.6268 C   0  0  0  0  0  0  0  0  0  0  0  0
   15.3568  -22.7384  -10.2397 O   0  0  0  0  0  0  0  0  0  0  0  0
   16.8621  -22.8061  -11.9966 N   0  0  0  0  0  0  0  0  0  0  0  0
   15.8723  -23.0874  -12.9780 C   0  0  0  0  0  0  0  0  0  0  0  0
   14.5200  -23.0531  -12.7524 C   0  0  0  0  0  0  0  0  0  0  0  0
   16.3003  -23.4198  -14.2528 C   0  0  0  0  0  0  0  0  0  0  0  0
   15.3866  -23.7056  -15.2566 C   0  0  0  0  0  0  0  0  0  0  0  0
   14.0270  -23.6712  -15.0303 C   0  0  0  0  0  0  0  0  0  0  0  0
   12.8755  -24.0362  -16.3131 Cl  0  0  0  0  0  0  0  0  0  0  0  0
   13.5991  -23.3404  -13.7615 C   0  0  0  0  0  0  0  0  0  0  0  0
   12.2075  -23.2870  -13.4608 N   0  0  0  0  0  0  0  0  0  0  0  0
   11.5127  -22.0447  -13.5007 C   0  0  0  0  0  0  0  0  0  0  0  0
   12.2070  -21.0001  -13.7179 O   0  0  0  0  0  0  0  0  0  0  0  0
   10.0388  -21.9866  -13.2953 C   0  0  0  0  0  0  0  0  0  0  0  0
    9.7824  -21.0967  -12.0748 C   0  0  0  0  0  0  0  0  0  0  0  0
  1  2  2  0
  1  6  1  0
  2  3  1  0
  3  4  2  0
  4  5  1  0
  5  6  2  0
  6  7  1  0
  7  8  2  0
  7 17  1  0
  8  9  1  0
  9 10  1  0
  9 15  2  0
 10 11  2  0
 10 12  1  0
 12 13  2  0
 13 14  1  0
 14 15  1  0
 15 16  1  0
 16 17  2  0
 17 18  1  0
 18 19  2  0
 18 21  1  0
 19 20  1  0
 20 23  2  0
 21 22  2  0
 22 23  1  0
 23 24  1  0
 25 24  1  1
 25 26  1  0
 25 28  1  0
 26 27  1  0
 27 30  1  0
 28 29  1  0
 29 30  1  0
 30 31  1  6
 31 32  1  0
 32 33  2  0
 32 34  1  0
 34 35  1  0
 35 36  2  0
 35 37  1  0
 36 41  1  0
 37 38  2  0
 38 39  1  0
 39 40  1  0
 39 41  2  0
 41 42  1  0
 42 43  1  0
 43 44  2  0
 43 45  1  0
 45 46  1  0
M  CHG  1  25   1
M  END
$$$$
