
     RDKit          3D

 46 51  0  0  0  0  0  0  0  0999 V2000
   19.0422  -11.5783   -5.0302 C   0  0  0  0  0  0  0  0  0  0  0  0
   19.5972  -11.5730   -3.7683 C   0  0  0  0  0  0  0  0  0  0  0  0
   18.9012  -12.2473   -2.7704 C   0  0  0  0  0  0  0  0  0  0  0  0
   17.7137  -12.8919   -3.0228 C   0  0  0  0  0  0  0  0  0  0  0  0
   17.2002  -12.8699   -4.2937 C   0  0  0  0  0  0  0  0  0  0  0  0
   17.8584  -12.2130   -5.3115 C   0  0  0  0  0  0  0  0  0  0  0  0
   17.3612  -12.1620   -6.6640 C   0  0  0  0  0  0  0  0  0  0  0  0
   17.0414  -10.9581   -7.2434 C   0  0  0  0  0  0  0  0  0  0  0  0
   16.5689  -10.9236   -8.5423 C   0  0  0  0  0  0  0  0  0  0  0  0
   16.2135   -9.6765   -9.2076 C   0  0  0  0  0  0  0  0  0  0  0  0
   16.3446   -8.5979   -8.5701 O   0  0  0  0  0  0  0  0  0  0  0  0
   15.7389   -9.7304  -10.5338 N   0  0  0  0  0  0  0  0  0  0  0  0
   15.6088  -10.8241  -11.1718 C   0  0  0  0  0  0  0  0  0  0  0  0
   15.9278  -12.1513  -10.6271 C   0  0  0  0  0  0  0  0  0  0  0  0
   16.4275  -12.1044   -9.2342 C   0  0  0  0  0  0  0  0  0  0  0  0
   16.7545  -13.2705   -8.6252 N   0  0  0  0  0  0  0  0  0  0  0  0
   17.2104  -13.3217   -7.3755 C   0  0  0  0  0  0  0  0  0  0  0  0
   17.5521  -14.5929   -6.7420 C   0  0  0  0  0  0  0  0  0  0  0  0
   18.8049  -14.8682   -6.2478 C   0  0  0  0  0  0  0  0  0  0  0  0
   19.0768  -16.0787   -5.6628 C   0  0  0  0  0  0  0  0  0  0  0  0
   16.5525  -15.5345   -6.6546 C   0  0  0  0  0  0  0  0  0  0  0  0
   16.8549  -16.7417   -6.0619 C   0  0  0  0  0  0  0  0  0  0  0  0
   18.1017  -17.0273   -5.5652 C   0  0  0  0  0  0  0  0  0  0  0  0
   18.3410  -18.3290   -4.9465 C   0  0  0  0  0  0  0  0  0  0  0  0
   18.9722  -19.3104   -5.7899 N   0  0  1  0  0  4  0  0  0  0  0  0
   18.6716  -20.6109   -5.2597 C   0  0  0  0  0  0  0  0  0  0  0  0
   17.3932  -21.2203   -5.7472 C   0  0  0  0  0  0  0  0  0  0  0  0
   18.7855  -19.1634   -7.1784 C   0  0  0  0  0  0  0  0  0  0  0  0
   17.6183  -19.8847   -7.7679 C   0  0  0  0  0  0  0  0  0  0  0  0
   17.4385  -21.2775   -7.2549 C   0  0  1  0  0  0  0  0  0  0  0  0
   18.5413  -22.0939   -7.6700 N   0  0  0  0  0  0  0  0  0  0  0  0
   18.2857  -23.3859   -8.2592 C   0  0  0  0  0  0  0  0  0  0  0  0
   17.6429  -24.2228   -7.5737 O   0  0  0  0  0  0  0  0  0  0  0  0
   18.7525  -23.6876   -9.5739 N   0  0  0  0  0  0  0  0  0  0  0  0
   18.1160  -24.7120  -10.3262 C   0  0  0  0  0  0  0  0  0  0  0  0
   16.7448  -24.6510  -10.4578 C   0  0  0  0  0  0  0  0  0  0  0  0
   18.8062  -25.7481  -10.9198 C   0  0  0  0  0  0  0  0  0  0  0  0
   18.1291  -26.7170  -11.6401 C   0  0  0  0  0  0  0  0  0  0  0  0
   16.7622  -26.6488  -11.7664 C   0  0  0  0  0  0  0  0  0  0  0  0
   15.8641  -27.8537  -12.6697 Cl  0  0  0  0  0  0  0  0  0  0  0  0
   16.0564  -25.6077  -11.1718 C   0  0  0  0  0  0  0  0  0  0  0  0
   14.6473  -25.5076  -11.2835 N   0  0  0  0  0  0  0  0  0  0  0  0
   14.0854  -24.5485  -12.1605 C   0  0  0  0  0  0  0  0  0  0  0  0
   14.5089  -23.3814  -12.2437 O   0  0  0  0  0  0  0  0  0  0  0  0
   12.9462  -24.9730  -13.0062 C   0  0  0  0  0  0  0  0  0  0  0  0
   11.6721  -24.5072  -12.3837 C   0  0  0  0  0  0  0  0  0  0  0  0
  1  2  2  0
  1  6  1  0
  2  3  1  0
  3  4  2  0
  4  5  1  0
  5  6  2  0
  6  7  1  0
  7  8  2  0
  7 17  1  0
  8  9  1  0
  9 10  1  0
  9 15  2  0
 10 11  2  0
 10 12  1  0
 12 13  2  0
 14 13  1  1
 14 15  1  0
 15 16  1  0
 16 17  2  0
 17 18  1  0
 18 19  2  0
 18 21  1  0
 19 20  1  0
 20 23  2  0
 21 22  2  0
 22 23  1  0
 24 23  1  1
 25 24  1  1
 26 25  1  1
 28 25  1  1
 27 26  1  1
 27 30  1  0
 29 28  1  1
 29 30  1  0
 30 31  1  1
 31 32  1  0
 32 33  2  0
 32 34  1  0
 34 35  1  0
 35 36  2  0
 35 37  1  0
 36 41  1  0
 37 38  2  0
 38 39  1  0
 39 40  1  0
 39 41  2  0
 41 42  1  0
 42 43  1  0
 43 44  2  0
 45 43  1  1
 46 45  1  6
M  CHG  1  25   1
M  END
$$$$
