
     RDKit          3D

 46 51  0  0  0  0  0  0  0  0999 V2000
   16.0010  -14.1554  -10.1599 C   0  0  0  0  0  0  0  0  0  0  0  0
   15.8502  -14.3508  -11.5107 C   0  0  0  0  0  0  0  0  0  0  0  0
   15.5326  -13.2728  -12.3240 C   0  0  0  0  0  0  0  0  0  0  0  0
   15.3713  -12.0198  -11.7737 C   0  0  0  0  0  0  0  0  0  0  0  0
   15.5294  -11.8492  -10.4048 C   0  0  0  0  0  0  0  0  0  0  0  0
   15.8485  -12.9252   -9.5785 C   0  0  0  0  0  0  0  0  0  0  0  0
   16.0051  -12.7033   -8.1482 C   0  0  0  0  0  0  0  0  0  0  0  0
   15.3931  -11.6492   -7.5022 C   0  0  0  0  0  0  0  0  0  0  0  0
   15.5565  -11.4544   -6.1293 C   0  0  0  0  0  0  0  0  0  0  0  0
   14.9235  -10.3531   -5.4259 C   0  0  0  0  0  0  0  0  0  0  0  0
   14.1987   -9.5252   -6.0265 O   0  0  0  0  0  0  0  0  0  0  0  0
   15.1350  -10.2181   -4.0291 N   0  0  0  0  0  0  0  0  0  0  0  0
   15.8776  -11.0554   -3.3793 C   0  0  0  0  0  0  0  0  0  0  0  0
   16.5673  -12.2045   -3.9800 C   0  0  0  0  0  0  0  0  0  0  0  0
   16.3497  -12.3459   -5.4264 C   0  0  0  0  0  0  0  0  0  0  0  0
   16.9461  -13.3734   -6.0563 N   0  0  0  0  0  0  0  0  0  0  0  0
   16.7811  -13.5563   -7.3980 C   0  0  0  0  0  0  0  0  0  0  0  0
   17.4231  -14.6719   -8.1051 C   0  0  0  0  0  0  0  0  0  0  0  0
   16.6685  -15.7028   -8.6045 C   0  0  0  0  0  0  0  0  0  0  0  0
   17.2660  -16.7672   -9.2763 C   0  0  0  0  0  0  0  0  0  0  0  0
   18.7884  -14.7199   -8.2872 C   0  0  0  0  0  0  0  0  0  0  0  0
   19.3727  -15.7810   -8.9558 C   0  0  0  0  0  0  0  0  0  0  0  0
   18.6304  -16.8276   -9.4655 C   0  0  0  0  0  0  0  0  0  0  0  0
   19.2210  -17.9748  -10.1833 C   0  0  0  0  0  0  0  0  0  0  0  0
   19.4349  -19.1314   -9.3385 N   0  0  1  0  0  4  0  0  0  0  0  0
   20.1906  -18.8443   -8.1517 C   0  0  0  0  0  0  0  0  0  0  0  0
   20.5814  -20.1825   -7.5381 C   0  0  0  0  0  0  0  0  0  0  0  0
   18.1347  -19.6730   -9.0116 C   0  0  0  0  0  0  0  0  0  0  0  0
   18.0972  -20.4354   -7.7340 C   0  0  0  0  0  0  0  0  0  0  0  0
   19.4071  -21.0898   -7.3701 C   0  0  1  0  0  0  0  0  0  0  0  0
   19.5027  -22.3065   -8.1623 N   0  0  0  0  0  0  0  0  0  0  0  0
   19.0728  -23.5752   -7.6769 C   0  0  0  0  0  0  0  0  0  0  0  0
   17.8316  -23.7516   -7.5141 O   0  0  0  0  0  0  0  0  0  0  0  0
   19.9666  -24.6341   -7.3727 N   0  0  0  0  0  0  0  0  0  0  0  0
   19.5257  -25.9425   -7.0322 C   0  0  0  0  0  0  0  0  0  0  0  0
   18.3994  -26.2189   -6.3003 C   0  0  0  0  0  0  0  0  0  0  0  0
   20.2847  -27.0158   -7.4688 C   0  0  0  0  0  0  0  0  0  0  0  0
   19.9104  -28.3179   -7.1711 C   0  0  0  0  0  0  0  0  0  0  0  0
   18.7782  -28.5963   -6.4353 C   0  0  0  0  0  0  0  0  0  0  0  0
   18.3125  -30.2544   -6.0631 Cl  0  0  0  0  0  0  0  0  0  0  0  0
   18.0213  -27.5287   -5.9998 C   0  0  0  0  0  0  0  0  0  0  0  0
   16.8394  -27.7470   -5.2347 N   0  0  0  0  0  0  0  0  0  0  0  0
   15.5918  -27.9588   -5.8877 C   0  0  0  0  0  0  0  0  0  0  0  0
   15.5969  -27.9552   -7.1606 O   0  0  0  0  0  0  0  0  0  0  0  0
   14.3449  -28.1732   -5.1020 C   0  0  0  0  0  0  0  0  0  0  0  0
   14.2061  -29.6810   -4.8681 C   0  0  0  0  0  0  0  0  0  0  0  0
  1  2  2  0
  1  6  1  0
  2  3  1  0
  3  4  2  0
  4  5  1  0
  5  6  2  0
  6  7  1  0
  7  8  2  0
  7 17  1  0
  8  9  1  0
  9 10  1  0
  9 15  2  0
 10 11  2  0
 10 12  1  0
 12 13  2  0
 13 14  1  0
 14 15  1  0
 15 16  1  0
 16 17  2  0
 17 18  1  0
 18 19  2  0
 18 21  1  0
 19 20  1  0
 20 23  2  0
 21 22  2  0
 22 23  1  0
 23 24  1  0
 25 24  1  1
 25 26  1  0
 25 28  1  0
 26 27  1  0
 27 30  1  0
 28 29  1  0
 29 30  1  0
 30 31  1  6
 31 32  1  0
 32 33  2  0
 32 34  1  0
 34 35  1  0
 35 36  2  0
 35 37  1  0
 36 41  1  0
 37 38  2  0
 38 39  1  0
 39 40  1  0
 39 41  2  0
 41 42  1  0
 42 43  1  0
 43 44  2  0
 43 45  1  0
 45 46  1  0
M  CHG  1  25   1
M  END
$$$$
