
     RDKit          3D

 46 51  0  0  0  0  0  0  0  0999 V2000
   14.7982  -14.0239   -8.8222 C   0  0  0  0  0  0  0  0  0  0  0  0
   14.4365  -14.6344   -9.9978 C   0  0  0  0  0  0  0  0  0  0  0  0
   15.4223  -15.0570  -10.8777 C   0  0  0  0  0  0  0  0  0  0  0  0
   16.7507  -14.8621  -10.5677 C   0  0  0  0  0  0  0  0  0  0  0  0
   17.0896  -14.2421   -9.3724 C   0  0  0  0  0  0  0  0  0  0  0  0
   16.1074  -13.8137   -8.4812 C   0  0  0  0  0  0  0  0  0  0  0  0
   16.5055  -13.1678   -7.2387 C   0  0  0  0  0  0  0  0  0  0  0  0
   16.0630  -11.9063   -6.8981 C   0  0  0  0  0  0  0  0  0  0  0  0
   16.4570  -11.3047   -5.7013 C   0  0  0  0  0  0  0  0  0  0  0  0
   16.0058   -9.9784   -5.3196 C   0  0  0  0  0  0  0  0  0  0  0  0
   15.2380   -9.3134   -6.0543 O   0  0  0  0  0  0  0  0  0  0  0  0
   16.4478   -9.4306   -4.0873 N   0  0  0  0  0  0  0  0  0  0  0  0
   17.2405  -10.0909   -3.3059 C   0  0  0  0  0  0  0  0  0  0  0  0
   17.7618  -11.4354   -3.5836 C   0  0  0  0  0  0  0  0  0  0  0  0
   17.3053  -12.0044   -4.8592 C   0  0  0  0  0  0  0  0  0  0  0  0
   17.7364  -13.2340   -5.1915 N   0  0  0  0  0  0  0  0  0  0  0  0
   17.3465  -13.8143   -6.3629 C   0  0  0  0  0  0  0  0  0  0  0  0
   17.8053  -15.1562   -6.7444 C   0  0  0  0  0  0  0  0  0  0  0  0
   16.9352  -16.2166   -6.7314 C   0  0  0  0  0  0  0  0  0  0  0  0
   17.3587  -17.4945   -7.0904 C   0  0  0  0  0  0  0  0  0  0  0  0
   19.1095  -15.3918   -7.1228 C   0  0  0  0  0  0  0  0  0  0  0  0
   19.5208  -16.6643   -7.4777 C   0  0  0  0  0  0  0  0  0  0  0  0
   18.6603  -17.7440   -7.4709 C   0  0  0  0  0  0  0  0  0  0  0  0
   19.0656  -19.1141   -7.8431 C   0  0  0  0  0  0  0  0  0  0  0  0
   18.0706  -19.8127   -8.6299 N   0  0  1  0  0  4  0  0  0  0  0  0
   16.7222  -19.5632   -8.2039 C   0  0  0  0  0  0  0  0  0  0  0  0
   15.8358  -20.5783   -8.9140 C   0  0  0  0  0  0  0  0  0  0  0  0
   18.2625  -19.4260  -10.0098 C   0  0  0  0  0  0  0  0  0  0  0  0
   17.0370  -19.5329  -10.8474 C   0  0  0  0  0  0  0  0  0  0  0  0
   16.0701  -20.5965  -10.3889 C   0  0  1  0  0  0  0  0  0  0  0  0
   16.5842  -21.8683  -10.8737 N   0  0  0  0  0  0  0  0  0  0  0  0
   16.1802  -22.4372  -12.1159 C   0  0  0  0  0  0  0  0  0  0  0  0
   15.4929  -21.7172  -12.8954 O   0  0  0  0  0  0  0  0  0  0  0  0
   16.5121  -23.7591  -12.5096 N   0  0  0  0  0  0  0  0  0  0  0  0
   15.8042  -24.4638  -13.5217 C   0  0  0  0  0  0  0  0  0  0  0  0
   14.9524  -23.8818  -14.4253 C   0  0  0  0  0  0  0  0  0  0  0  0
   15.9851  -25.8347  -13.6038 C   0  0  0  0  0  0  0  0  0  0  0  0
   15.3245  -26.5816  -14.5680 C   0  0  0  0  0  0  0  0  0  0  0  0
   14.4680  -25.9970  -15.4767 C   0  0  0  0  0  0  0  0  0  0  0  0
   13.6340  -26.9559  -16.6972 Cl  0  0  0  0  0  0  0  0  0  0  0  0
   14.2867  -24.6321  -15.3963 C   0  0  0  0  0  0  0  0  0  0  0  0
   13.4150  -23.9656  -16.3051 N   0  0  0  0  0  0  0  0  0  0  0  0
   13.9135  -22.9332  -17.1497 C   0  0  0  0  0  0  0  0  0  0  0  0
   15.0912  -22.5112  -16.9146 O   0  0  0  0  0  0  0  0  0  0  0  0
   13.0814  -22.3819  -18.2551 C   0  0  0  0  0  0  0  0  0  0  0  0
   13.6925  -21.0364  -18.6594 C   0  0  0  0  0  0  0  0  0  0  0  0
  1  2  2  0
  1  6  1  0
  2  3  1  0
  3  4  2  0
  4  5  1  0
  5  6  2  0
  6  7  1  0
  7  8  2  0
  7 17  1  0
  8  9  1  0
  9 10  1  0
  9 15  2  0
 10 11  2  0
 10 12  1  0
 12 13  2  0
 13 14  1  0
 14 15  1  0
 15 16  1  0
 16 17  2  0
 17 18  1  0
 18 19  2  0
 18 21  1  0
 19 20  1  0
 20 23  2  0
 21 22  2  0
 22 23  1  0
 23 24  1  0
 25 24  1  1
 25 26  1  0
 25 28  1  0
 26 27  1  0
 27 30  1  0
 28 29  1  0
 29 30  1  0
 30 31  1  1
 31 32  1  0
 32 33  2  0
 32 34  1  0
 34 35  1  0
 35 36  2  0
 35 37  1  0
 36 41  1  0
 37 38  2  0
 38 39  1  0
 39 40  1  0
 39 41  2  0
 41 42  1  0
 42 43  1  0
 43 44  2  0
 43 45  1  0
 45 46  1  0
M  CHG  1  25   1
M  END
$$$$
