
     RDKit          3D

 46 51  0  0  0  0  0  0  0  0999 V2000
   20.8071  -20.4172   -7.4265 C   0  0  0  0  0  0  0  0  0  0  0  0
   21.6652  -20.2460   -8.4916 C   0  0  0  0  0  0  0  0  0  0  0  0
   21.8754  -21.3469   -9.3155 C   0  0  0  0  0  0  0  0  0  0  0  0
   21.2592  -22.5539   -9.0848 C   0  0  0  0  0  0  0  0  0  0  0  0
   20.4138  -22.6766   -8.0126 C   0  0  0  0  0  0  0  0  0  0  0  0
   20.1782  -21.6101   -7.1715 C   0  0  0  0  0  0  0  0  0  0  0  0
   19.2976  -21.6877   -6.0325 C   0  0  0  0  0  0  0  0  0  0  0  0
   19.6176  -22.4811   -4.9575 C   0  0  0  0  0  0  0  0  0  0  0  0
   18.7656  -22.5433   -3.8705 C   0  0  0  0  0  0  0  0  0  0  0  0
   19.0530  -23.3677   -2.7035 C   0  0  0  0  0  0  0  0  0  0  0  0
   20.1164  -24.0431   -2.6932 O   0  0  0  0  0  0  0  0  0  0  0  0
   18.1304  -23.3742   -1.6378 N   0  0  0  0  0  0  0  0  0  0  0  0
   17.0576  -22.6893   -1.6552 C   0  0  0  0  0  0  0  0  0  0  0  0
   16.6419  -21.8172   -2.7627 C   0  0  0  0  0  0  0  0  0  0  0  0
   17.6054  -21.8039   -3.8867 C   0  0  0  0  0  0  0  0  0  0  0  0
   17.3276  -21.0339   -4.9672 N   0  0  0  0  0  0  0  0  0  0  0  0
   18.1365  -20.9626   -6.0221 C   0  0  0  0  0  0  0  0  0  0  0  0
   17.8108  -20.1272   -7.1753 C   0  0  0  0  0  0  0  0  0  0  0  0
   17.4541  -18.8044   -7.0625 C   0  0  0  0  0  0  0  0  0  0  0  0
   17.1554  -18.0619   -8.1764 C   0  0  0  0  0  0  0  0  0  0  0  0
   17.8718  -20.7231   -8.4141 C   0  0  0  0  0  0  0  0  0  0  0  0
   17.5661  -19.9525   -9.5153 C   0  0  0  0  0  0  0  0  0  0  0  0
   17.2090  -18.6315   -9.4145 C   0  0  0  0  0  0  0  0  0  0  0  0
   16.9048  -17.8809  -10.6305 C   0  0  0  0  0  0  0  0  0  0  0  0
   16.6521  -16.4756  -10.4457 N   0  0  1  0  0  4  0  0  0  0  0  0
   16.4650  -15.8840  -11.7409 C   0  0  0  0  0  0  0  0  0  0  0  0
   15.0625  -15.9232  -12.2652 C   0  0  0  0  0  0  0  0  0  0  0  0
   15.6910  -16.1291   -9.4759 C   0  0  0  0  0  0  0  0  0  0  0  0
   14.2860  -15.9847   -9.9606 C   0  0  0  0  0  0  0  0  0  0  0  0
   14.1598  -15.2527  -11.2582 C   0  0  1  0  0  0  0  0  0  0  0  0
   14.5637  -13.8881  -11.0870 N   0  0  0  0  0  0  0  0  0  0  0  0
   13.5907  -12.8346  -11.2452 C   0  0  0  0  0  0  0  0  0  0  0  0
   14.0046  -11.6470  -11.2037 O   0  0  0  0  0  0  0  0  0  0  0  0
   12.2115  -13.1459  -11.4410 N   0  0  0  0  0  0  0  0  0  0  0  0
   11.3923  -12.2598  -12.1922 C   0  0  0  0  0  0  0  0  0  0  0  0
   11.9861  -11.1335  -12.7214 C   0  0  0  0  0  0  0  0  0  0  0  0
   10.0480  -12.4797  -12.4083 C   0  0  0  0  0  0  0  0  0  0  0  0
    9.3025  -11.5787  -13.1489 C   0  0  0  0  0  0  0  0  0  0  0  0
    9.9021  -10.4585  -13.6729 C   0  0  0  0  0  0  0  0  0  0  0  0
    8.9964   -9.2912  -14.6171 Cl  0  0  0  0  0  0  0  0  0  0  0  0
   11.2574  -10.2272  -13.4610 C   0  0  0  0  0  0  0  0  0  0  0  0
   11.9062   -9.0829  -13.9879 N   0  0  0  0  0  0  0  0  0  0  0  0
   12.3217   -8.0528  -13.1098 C   0  0  0  0  0  0  0  0  0  0  0  0
   12.3246   -8.1824  -11.8722 O   0  0  0  0  0  0  0  0  0  0  0  0
   12.7681   -6.7748  -13.7103 C   0  0  0  0  0  0  0  0  0  0  0  0
   14.2443   -6.8225  -13.9257 C   0  0  0  0  0  0  0  0  0  0  0  0
  1  2  2  0
  1  6  1  0
  2  3  1  0
  3  4  2  0
  4  5  1  0
  5  6  2  0
  6  7  1  0
  7  8  2  0
  7 17  1  0
  8  9  1  0
  9 10  1  0
  9 15  2  0
 10 11  2  0
 10 12  1  0
 12 13  2  0
 14 13  1  1
 14 15  1  0
 15 16  1  0
 16 17  2  0
 17 18  1  0
 18 19  2  0
 18 21  1  0
 19 20  1  0
 20 23  2  0
 21 22  2  0
 22 23  1  0
 24 23  1  1
 25 24  1  6
 26 25  1  1
 28 25  1  1
 27 26  1  1
 27 30  1  0
 29 28  1  1
 29 30  1  0
 30 31  1  1
 31 32  1  0
 32 33  2  0
 32 34  1  0
 34 35  1  0
 35 36  2  0
 35 37  1  0
 36 41  1  0
 37 38  2  0
 38 39  1  0
 39 40  1  0
 39 41  2  0
 41 42  1  0
 42 43  1  0
 43 44  2  0
 45 43  1  1
 46 45  1  6
M  CHG  1  25   1
M  END
$$$$
