
     RDKit          3D

 46 51  0  0  0  0  0  0  0  0999 V2000
   16.1370  -11.1273  -10.5889 C   0  0  0  0  0  0  0  0  0  0  0  0
   15.8916  -10.5938  -11.8301 C   0  0  0  0  0  0  0  0  0  0  0  0
   14.7628   -9.8112  -12.0245 C   0  0  0  0  0  0  0  0  0  0  0  0
   13.9000   -9.5758  -10.9763 C   0  0  0  0  0  0  0  0  0  0  0  0
   14.1713  -10.1270   -9.7311 C   0  0  0  0  0  0  0  0  0  0  0  0
   15.3023  -10.9147   -9.5246 C   0  0  0  0  0  0  0  0  0  0  0  0
   15.5498  -11.4739   -8.2034 C   0  0  0  0  0  0  0  0  0  0  0  0
   15.5123  -10.6973   -7.0639 C   0  0  0  0  0  0  0  0  0  0  0  0
   15.7527  -11.2538   -5.8061 C   0  0  0  0  0  0  0  0  0  0  0  0
   15.7192  -10.4584   -4.5917 C   0  0  0  0  0  0  0  0  0  0  0  0
   15.4713   -9.2300   -4.6224 O   0  0  0  0  0  0  0  0  0  0  0  0
   15.9737  -11.0928   -3.3480 N   0  0  0  0  0  0  0  0  0  0  0  0
   16.2329  -12.3589   -3.2816 C   0  0  0  0  0  0  0  0  0  0  0  0
   16.2940  -13.2631   -4.4373 C   0  0  0  0  0  0  0  0  0  0  0  0
   16.0309  -12.6082   -5.7262 C   0  0  0  0  0  0  0  0  0  0  0  0
   16.0674  -13.3649   -6.8371 N   0  0  0  0  0  0  0  0  0  0  0  0
   15.8313  -12.8130   -8.0621 C   0  0  0  0  0  0  0  0  0  0  0  0
   15.8658  -13.6216   -9.2876 C   0  0  0  0  0  0  0  0  0  0  0  0
   14.7350  -13.7770  -10.0483 C   0  0  0  0  0  0  0  0  0  0  0  0
   14.7550  -14.5424  -11.2124 C   0  0  0  0  0  0  0  0  0  0  0  0
   17.0213  -14.2441   -9.7082 C   0  0  0  0  0  0  0  0  0  0  0  0
   17.0315  -15.0022  -10.8657 C   0  0  0  0  0  0  0  0  0  0  0  0
   15.9039  -15.1703  -11.6445 C   0  0  0  0  0  0  0  0  0  0  0  0
   15.8794  -15.9720  -12.8843 C   0  0  0  0  0  0  0  0  0  0  0  0
   15.9330  -17.3992  -12.6455 N   0  0  1  0  0  4  0  0  0  0  0  0
   14.8401  -18.1217  -13.2335 C   0  0  0  0  0  0  0  0  0  0  0  0
   14.8731  -19.5294  -12.6526 C   0  0  0  0  0  0  0  0  0  0  0  0
   17.2031  -17.8733  -13.1481 C   0  0  0  0  0  0  0  0  0  0  0  0
   17.2033  -19.3079  -13.5441 C   0  0  0  0  0  0  0  0  0  0  0  0
   16.2223  -20.1579  -12.7749 C   0  0  1  0  0  0  0  0  0  0  0  0
   16.8385  -20.4511  -11.4899 N   0  0  0  0  0  0  0  0  0  0  0  0
   16.8887  -21.7663  -10.9440 C   0  0  0  0  0  0  0  0  0  0  0  0
   17.0908  -22.7258  -11.7420 O   0  0  0  0  0  0  0  0  0  0  0  0
   16.7239  -22.0405   -9.5619 N   0  0  0  0  0  0  0  0  0  0  0  0
   16.9054  -23.3364   -9.0052 C   0  0  0  0  0  0  0  0  0  0  0  0
   16.7836  -24.5091   -9.7057 C   0  0  0  0  0  0  0  0  0  0  0  0
   17.2279  -23.4244   -7.6609 C   0  0  0  0  0  0  0  0  0  0  0  0
   17.4186  -24.6580   -7.0558 C   0  0  0  0  0  0  0  0  0  0  0  0
   17.2963  -25.8372   -7.7597 C   0  0  0  0  0  0  0  0  0  0  0  0
   17.5406  -27.3985   -6.9804 Cl  0  0  0  0  0  0  0  0  0  0  0  0
   16.9751  -25.7513   -9.0982 C   0  0  0  0  0  0  0  0  0  0  0  0
   16.8334  -26.9320   -9.8831 N   0  0  0  0  0  0  0  0  0  0  0  0
   15.5531  -27.3180  -10.3724 C   0  0  0  0  0  0  0  0  0  0  0  0
   14.5369  -26.8089   -9.7992 O   0  0  0  0  0  0  0  0  0  0  0  0
   15.4252  -28.2762  -11.5053 C   0  0  0  0  0  0  0  0  0  0  0  0
   14.7240  -29.5279  -10.9678 C   0  0  0  0  0  0  0  0  0  0  0  0
  1  2  2  0
  1  6  1  0
  2  3  1  0
  3  4  2  0
  4  5  1  0
  5  6  2  0
  6  7  1  0
  7  8  2  0
  7 17  1  0
  8  9  1  0
  9 10  1  0
  9 15  2  0
 10 11  2  0
 10 12  1  0
 12 13  2  0
 13 14  1  0
 14 15  1  0
 15 16  1  0
 16 17  2  0
 17 18  1  0
 18 19  2  0
 18 21  1  0
 19 20  1  0
 20 23  2  0
 21 22  2  0
 22 23  1  0
 23 24  1  0
 25 24  1  6
 25 26  1  0
 25 28  1  0
 26 27  1  0
 27 30  1  0
 28 29  1  0
 29 30  1  0
 30 31  1  1
 31 32  1  0
 32 33  2  0
 32 34  1  0
 34 35  1  0
 35 36  2  0
 35 37  1  0
 36 41  1  0
 37 38  2  0
 38 39  1  0
 39 40  1  0
 39 41  2  0
 41 42  1  0
 42 43  1  0
 43 44  2  0
 43 45  1  0
 45 46  1  0
M  CHG  1  25   1
M  END
$$$$
