
     RDKit          3D

 46 51  0  0  0  0  0  0  0  0999 V2000
   17.1733  -18.6240   -7.9382 C   0  0  0  0  0  0  0  0  0  0  0  0
   17.7582  -19.5218   -8.8055 C   0  0  0  0  0  0  0  0  0  0  0  0
   18.8388  -19.0644   -9.5526 C   0  0  0  0  0  0  0  0  0  0  0  0
   19.3079  -17.7775   -9.4372 C   0  0  0  0  0  0  0  0  0  0  0  0
   18.6937  -16.9201   -8.5613 C   0  0  0  0  0  0  0  0  0  0  0  0
   17.6198  -17.3335   -7.8021 C   0  0  0  0  0  0  0  0  0  0  0  0
   16.9411  -16.4714   -6.8666 C   0  0  0  0  0  0  0  0  0  0  0  0
   16.9567  -16.7535   -5.5221 C   0  0  0  0  0  0  0  0  0  0  0  0
   16.3046  -15.9163   -4.6359 C   0  0  0  0  0  0  0  0  0  0  0  0
   16.2870  -16.1658   -3.2001 C   0  0  0  0  0  0  0  0  0  0  0  0
   16.8893  -17.1811   -2.7601 O   0  0  0  0  0  0  0  0  0  0  0  0
   15.5979  -15.2620   -2.3663 N   0  0  0  0  0  0  0  0  0  0  0  0
   14.9913  -14.2381   -2.8179 C   0  0  0  0  0  0  0  0  0  0  0  0
   14.9267  -13.8650   -4.2380 C   0  0  0  0  0  0  0  0  0  0  0  0
   15.6482  -14.8088   -5.1215 C   0  0  0  0  0  0  0  0  0  0  0  0
   15.6575  -14.5672   -6.4553 N   0  0  0  0  0  0  0  0  0  0  0  0
   16.2800  -15.3628   -7.3223 C   0  0  0  0  0  0  0  0  0  0  0  0
   16.2710  -15.0805   -8.7556 C   0  0  0  0  0  0  0  0  0  0  0  0
   16.6302  -13.8613   -9.2790 C   0  0  0  0  0  0  0  0  0  0  0  0
   16.6035  -13.6450  -10.6332 C   0  0  0  0  0  0  0  0  0  0  0  0
   15.8786  -16.1021   -9.5898 C   0  0  0  0  0  0  0  0  0  0  0  0
   15.8614  -15.8556  -10.9459 C   0  0  0  0  0  0  0  0  0  0  0  0
   16.2178  -14.6427  -11.4793 C   0  0  0  0  0  0  0  0  0  0  0  0
   16.1779  -14.4625  -12.9287 C   0  0  0  0  0  0  0  0  0  0  0  0
   15.0759  -15.0979  -13.6029 N   0  0  1  0  0  4  0  0  0  0  0  0
   13.8720  -14.7722  -12.8905 C   0  0  0  0  0  0  0  0  0  0  0  0
   13.2078  -13.4961  -13.3073 C   0  0  0  0  0  0  0  0  0  0  0  0
   15.0150  -14.9390  -15.0013 C   0  0  0  0  0  0  0  0  0  0  0  0
   14.2239  -13.7748  -15.4999 C   0  0  0  0  0  0  0  0  0  0  0  0
   12.9252  -13.5691  -14.7883 C   0  0  1  0  0  0  0  0  0  0  0  0
   12.0462  -14.6698  -15.0543 N   0  0  0  0  0  0  0  0  0  0  0  0
   11.5260  -14.8567  -16.3870 C   0  0  0  0  0  0  0  0  0  0  0  0
   11.4074  -16.0370  -16.8068 O   0  0  0  0  0  0  0  0  0  0  0  0
   11.1635  -13.7318  -17.1874 N   0  0  0  0  0  0  0  0  0  0  0  0
    9.8360  -13.6229  -17.6837 C   0  0  0  0  0  0  0  0  0  0  0  0
    9.0001  -14.7068  -17.5175 C   0  0  0  0  0  0  0  0  0  0  0  0
    9.3597  -12.4930  -18.3152 C   0  0  0  0  0  0  0  0  0  0  0  0
    8.0558  -12.4478  -18.7776 C   0  0  0  0  0  0  0  0  0  0  0  0
    7.2291  -13.5325  -18.6079 C   0  0  0  0  0  0  0  0  0  0  0  0
    5.5709  -13.5189  -19.1774 Cl  0  0  0  0  0  0  0  0  0  0  0  0
    7.6994  -14.6771  -17.9721 C   0  0  0  0  0  0  0  0  0  0  0  0
    6.8730  -15.8122  -17.7805 N   0  0  0  0  0  0  0  0  0  0  0  0
    7.4686  -17.0851  -17.6080 C   0  0  0  0  0  0  0  0  0  0  0  0
    8.6964  -17.2710  -17.6867 O   0  0  0  0  0  0  0  0  0  0  0  0
    6.5743  -18.2304  -17.3222 C   0  0  0  0  0  0  0  0  0  0  0  0
    5.8529  -18.6139  -18.5714 C   0  0  0  0  0  0  0  0  0  0  0  0
  1  2  2  0
  1  6  1  0
  2  3  1  0
  3  4  2  0
  4  5  1  0
  5  6  2  0
  6  7  1  0
  7  8  2  0
  7 17  1  0
  8  9  1  0
  9 10  1  0
  9 15  2  0
 10 11  2  0
 10 12  1  0
 12 13  2  0
 14 13  1  1
 14 15  1  0
 15 16  1  0
 16 17  2  0
 17 18  1  0
 18 19  2  0
 18 21  1  0
 19 20  1  0
 20 23  2  0
 21 22  2  0
 22 23  1  0
 24 23  1  1
 25 24  1  1
 26 25  1  1
 28 25  1  1
 27 26  1  1
 27 30  1  0
 29 28  1  1
 29 30  1  0
 30 31  1  1
 31 32  1  0
 32 33  2  0
 32 34  1  0
 34 35  1  0
 35 36  2  0
 35 37  1  0
 36 41  1  0
 37 38  2  0
 38 39  1  0
 39 40  1  0
 39 41  2  0
 41 42  1  0
 42 43  1  0
 43 44  2  0
 45 43  1  1
 46 45  1  6
M  CHG  1  25   1
M  END
$$$$
