
     RDKit          3D

 46 51  0  0  0  0  0  0  0  0999 V2000
   15.6936  -12.1211  -10.8317 C   0  0  0  0  0  0  0  0  0  0  0  0
   15.3017  -12.7106  -12.0146 C   0  0  0  0  0  0  0  0  0  0  0  0
   14.6627  -13.9428  -11.9238 C   0  0  0  0  0  0  0  0  0  0  0  0
   14.4289  -14.5514  -10.7137 C   0  0  0  0  0  0  0  0  0  0  0  0
   14.8370  -13.9269   -9.5635 C   0  0  0  0  0  0  0  0  0  0  0  0
   15.4738  -12.7051   -9.6094 C   0  0  0  0  0  0  0  0  0  0  0  0
   15.9206  -12.0074   -8.4293 C   0  0  0  0  0  0  0  0  0  0  0  0
   15.4117  -10.7700   -8.1174 C   0  0  0  0  0  0  0  0  0  0  0  0
   15.8466  -10.1138   -6.9808 C   0  0  0  0  0  0  0  0  0  0  0  0
   15.3428   -8.8001   -6.6006 C   0  0  0  0  0  0  0  0  0  0  0  0
   14.4817   -8.2512   -7.3383 O   0  0  0  0  0  0  0  0  0  0  0  0
   15.8398   -8.2008   -5.4255 N   0  0  0  0  0  0  0  0  0  0  0  0
   16.7102   -8.7613   -4.6849 C   0  0  0  0  0  0  0  0  0  0  0  0
   17.3037  -10.0802   -4.9460 C   0  0  0  0  0  0  0  0  0  0  0  0
   16.7873  -10.7176   -6.1785 C   0  0  0  0  0  0  0  0  0  0  0  0
   17.2633  -11.9392   -6.5227 N   0  0  0  0  0  0  0  0  0  0  0  0
   16.8558  -12.5847   -7.6133 C   0  0  0  0  0  0  0  0  0  0  0  0
   17.3883  -13.8994   -7.9626 C   0  0  0  0  0  0  0  0  0  0  0  0
   17.7977  -14.2258   -9.2336 C   0  0  0  0  0  0  0  0  0  0  0  0
   18.2894  -15.4757   -9.5119 C   0  0  0  0  0  0  0  0  0  0  0  0
   17.4680  -14.8287   -6.9510 C   0  0  0  0  0  0  0  0  0  0  0  0
   17.9660  -16.0763   -7.2602 C   0  0  0  0  0  0  0  0  0  0  0  0
   18.3776  -16.4130   -8.5251 C   0  0  0  0  0  0  0  0  0  0  0  0
   18.8988  -17.7556   -8.7709 C   0  0  0  0  0  0  0  0  0  0  0  0
   18.1370  -18.5580   -9.6922 N   0  0  1  0  0  4  0  0  0  0  0  0
   18.8868  -19.7521   -9.9659 C   0  0  0  0  0  0  0  0  0  0  0  0
   18.6584  -20.8834   -9.0113 C   0  0  0  0  0  0  0  0  0  0  0  0
   16.7765  -18.7534   -9.3838 C   0  0  0  0  0  0  0  0  0  0  0  0
   16.4507  -19.9622   -8.5698 C   0  0  0  0  0  0  0  0  0  0  0  0
   17.1820  -21.1967   -8.9900 C   0  0  1  0  0  0  0  0  0  0  0  0
   16.7571  -21.5900  -10.3014 N   0  0  0  0  0  0  0  0  0  0  0  0
   16.4152  -22.9690  -10.5529 C   0  0  0  0  0  0  0  0  0  0  0  0
   16.4967  -23.3833  -11.7383 O   0  0  0  0  0  0  0  0  0  0  0  0
   16.0012  -23.8192   -9.4837 N   0  0  0  0  0  0  0  0  0  0  0  0
   15.6861  -25.1792   -9.7511 C   0  0  0  0  0  0  0  0  0  0  0  0
   15.7733  -25.6111  -11.0576 C   0  0  0  0  0  0  0  0  0  0  0  0
   15.3026  -26.0691   -8.7696 C   0  0  0  0  0  0  0  0  0  0  0  0
   15.0080  -27.3823   -9.0930 C   0  0  0  0  0  0  0  0  0  0  0  0
   15.0974  -27.8047  -10.3978 C   0  0  0  0  0  0  0  0  0  0  0  0
   14.7339  -29.4586  -10.8526 Cl  0  0  0  0  0  0  0  0  0  0  0  0
   15.4835  -26.9154  -11.3956 C   0  0  0  0  0  0  0  0  0  0  0  0
   15.5863  -27.3188  -12.7501 N   0  0  0  0  0  0  0  0  0  0  0  0
   16.5493  -26.7052  -13.5874 C   0  0  0  0  0  0  0  0  0  0  0  0
   17.3681  -25.8660  -13.1706 O   0  0  0  0  0  0  0  0  0  0  0  0
   16.5658  -27.0930  -15.0165 C   0  0  0  0  0  0  0  0  0  0  0  0
   15.1711  -27.3807  -15.4636 C   0  0  0  0  0  0  0  0  0  0  0  0
  1  2  2  0
  1  6  1  0
  2  3  1  0
  3  4  2  0
  4  5  1  0
  5  6  2  0
  6  7  1  0
  7  8  2  0
  7 17  1  0
  8  9  1  0
  9 10  1  0
  9 15  2  0
 10 11  2  0
 10 12  1  0
 12 13  2  0
 14 13  1  1
 14 15  1  0
 15 16  1  0
 16 17  2  0
 17 18  1  0
 18 19  2  0
 18 21  1  0
 19 20  1  0
 20 23  2  0
 21 22  2  0
 22 23  1  0
 24 23  1  1
 25 24  1  1
 26 25  1  1
 28 25  1  1
 27 26  1  1
 27 30  1  0
 29 28  1  1
 29 30  1  0
 30 31  1  6
 31 32  1  0
 32 33  2  0
 32 34  1  0
 34 35  1  0
 35 36  2  0
 35 37  1  0
 36 41  1  0
 37 38  2  0
 38 39  1  0
 39 40  1  0
 39 41  2  0
 41 42  1  0
 42 43  1  0
 43 44  2  0
 45 43  1  1
 46 45  1  6
M  CHG  1  25   1
M  END
$$$$
