
     RDKit          3D

 46 51  0  0  0  0  0  0  0  0999 V2000
   14.9952   -9.3841   -9.6575 C   0  0  0  0  0  0  0  0  0  0  0  0
   15.3819   -8.9588  -10.9045 C   0  0  0  0  0  0  0  0  0  0  0  0
   16.5782   -9.4142  -11.4393 C   0  0  0  0  0  0  0  0  0  0  0  0
   17.3662  -10.2856  -10.7193 C   0  0  0  0  0  0  0  0  0  0  0  0
   16.9521  -10.7004   -9.4605 C   0  0  0  0  0  0  0  0  0  0  0  0
   15.7522  -10.2492   -8.9136 C   0  0  0  0  0  0  0  0  0  0  0  0
   15.3549  -10.7083   -7.5904 C   0  0  0  0  0  0  0  0  0  0  0  0
   15.0965   -9.8282   -6.5601 C   0  0  0  0  0  0  0  0  0  0  0  0
   14.7167  -10.2897   -5.2982 C   0  0  0  0  0  0  0  0  0  0  0  0
   14.4392   -9.3844   -4.1973 C   0  0  0  0  0  0  0  0  0  0  0  0
   14.5299   -8.1417   -4.3351 O   0  0  0  0  0  0  0  0  0  0  0  0
   14.0580   -9.9260   -2.9421 N   0  0  0  0  0  0  0  0  0  0  0  0
   13.9552  -11.2040   -2.7666 C   0  0  0  0  0  0  0  0  0  0  0  0
   14.2093  -12.2147   -3.8014 C   0  0  0  0  0  0  0  0  0  0  0  0
   14.6043  -11.6560   -5.1018 C   0  0  0  0  0  0  0  0  0  0  0  0
   14.8563  -12.5137   -6.1063 N   0  0  0  0  0  0  0  0  0  0  0  0
   15.2268  -12.0542   -7.3362 C   0  0  0  0  0  0  0  0  0  0  0  0
   15.5060  -12.9737   -8.4467 C   0  0  0  0  0  0  0  0  0  0  0  0
   14.7795  -12.8999   -9.6079 C   0  0  0  0  0  0  0  0  0  0  0  0
   15.0344  -13.7672  -10.6681 C   0  0  0  0  0  0  0  0  0  0  0  0
   16.4947  -13.9299   -8.3597 C   0  0  0  0  0  0  0  0  0  0  0  0
   16.7406  -14.7868   -9.4180 C   0  0  0  0  0  0  0  0  0  0  0  0
   16.0203  -14.7282  -10.5943 C   0  0  0  0  0  0  0  0  0  0  0  0
   16.2559  -15.6265  -11.7422 C   0  0  0  0  0  0  0  0  0  0  0  0
   16.2780  -17.0281  -11.3786 N   0  0  1  0  0  4  0  0  0  0  0  0
   15.1467  -17.4360  -10.5938 C   0  0  0  0  0  0  0  0  0  0  0  0
   15.4599  -18.8235  -10.0489 C   0  0  0  0  0  0  0  0  0  0  0  0
   16.3658  -17.7903  -12.6041 C   0  0  0  0  0  0  0  0  0  0  0  0
   15.8089  -19.1669  -12.5053 C   0  0  0  0  0  0  0  0  0  0  0  0
   15.8932  -19.7662  -11.1231 C   0  0  1  0  0  0  0  0  0  0  0  0
   17.2577  -20.2420  -10.9544 N   0  0  0  0  0  0  0  0  0  0  0  0
   17.5650  -21.5942  -10.6269 C   0  0  0  0  0  0  0  0  0  0  0  0
   16.6745  -22.2730  -10.0398 O   0  0  0  0  0  0  0  0  0  0  0  0
   18.8108  -22.2026  -10.9278 N   0  0  0  0  0  0  0  0  0  0  0  0
   19.0980  -23.5627  -10.6280 C   0  0  0  0  0  0  0  0  0  0  0  0
   18.1996  -24.4480  -10.0899 C   0  0  0  0  0  0  0  0  0  0  0  0
   20.3740  -24.0297  -10.8972 C   0  0  0  0  0  0  0  0  0  0  0  0
   20.7197  -25.3459  -10.6285 C   0  0  0  0  0  0  0  0  0  0  0  0
   19.8168  -26.2364  -10.0874 C   0  0  0  0  0  0  0  0  0  0  0  0
   20.2673  -27.9062   -9.7502 Cl  0  0  0  0  0  0  0  0  0  0  0  0
   18.5459  -25.7730   -9.8188 C   0  0  0  0  0  0  0  0  0  0  0  0
   17.5648  -26.6415   -9.2591 N   0  0  0  0  0  0  0  0  0  0  0  0
   16.7913  -27.4877  -10.1036 C   0  0  0  0  0  0  0  0  0  0  0  0
   17.2402  -27.7028  -11.2752 O   0  0  0  0  0  0  0  0  0  0  0  0
   15.5153  -28.0868   -9.6228 C   0  0  0  0  0  0  0  0  0  0  0  0
   15.6224  -29.6031   -9.8133 C   0  0  0  0  0  0  0  0  0  0  0  0
  1  2  2  0
  1  6  1  0
  2  3  1  0
  3  4  2  0
  4  5  1  0
  5  6  2  0
  6  7  1  0
  7  8  2  0
  7 17  1  0
  8  9  1  0
  9 10  1  0
  9 15  2  0
 10 11  2  0
 10 12  1  0
 12 13  2  0
 13 14  1  0
 14 15  1  0
 15 16  1  0
 16 17  2  0
 17 18  1  0
 18 19  2  0
 18 21  1  0
 19 20  1  0
 20 23  2  0
 21 22  2  0
 22 23  1  0
 23 24  1  0
 25 24  1  6
 25 26  1  0
 25 28  1  0
 26 27  1  0
 27 30  1  0
 28 29  1  0
 29 30  1  0
 30 31  1  1
 31 32  1  0
 32 33  2  0
 32 34  1  0
 34 35  1  0
 35 36  2  0
 35 37  1  0
 36 41  1  0
 37 38  2  0
 38 39  1  0
 39 40  1  0
 39 41  2  0
 41 42  1  0
 42 43  1  0
 43 44  2  0
 43 45  1  0
 45 46  1  0
M  CHG  1  25   1
M  END
$$$$
