
     RDKit          3D

 46 51  0  0  0  0  0  0  0  0999 V2000
   16.9524  -14.3163   -6.7097 C   0  0  0  0  0  0  0  0  0  0  0  0
   17.7222  -15.3425   -6.2200 C   0  0  0  0  0  0  0  0  0  0  0  0
   19.0158  -15.0804   -5.7931 C   0  0  0  0  0  0  0  0  0  0  0  0
   19.5170  -13.7987   -5.8630 C   0  0  0  0  0  0  0  0  0  0  0  0
   18.7177  -12.7789   -6.3623 C   0  0  0  0  0  0  0  0  0  0  0  0
   17.4168  -13.0311   -6.7939 C   0  0  0  0  0  0  0  0  0  0  0  0
   16.6122  -11.9334   -7.3109 C   0  0  0  0  0  0  0  0  0  0  0  0
   16.4270  -10.7663   -6.5991 C   0  0  0  0  0  0  0  0  0  0  0  0
   15.6513   -9.7256   -7.1134 C   0  0  0  0  0  0  0  0  0  0  0  0
   15.4408   -8.4875   -6.3844 C   0  0  0  0  0  0  0  0  0  0  0  0
   15.9507   -8.3003   -5.2546 O   0  0  0  0  0  0  0  0  0  0  0  0
   14.6398   -7.4731   -6.9703 N   0  0  0  0  0  0  0  0  0  0  0  0
   14.0990   -7.6347   -8.1349 C   0  0  0  0  0  0  0  0  0  0  0  0
   14.2398   -8.8386   -8.9640 C   0  0  0  0  0  0  0  0  0  0  0  0
   15.0689   -9.8903   -8.3591 C   0  0  0  0  0  0  0  0  0  0  0  0
   15.2495  -11.0280   -9.0527 N   0  0  0  0  0  0  0  0  0  0  0  0
   16.0090  -12.0399   -8.5427 C   0  0  0  0  0  0  0  0  0  0  0  0
   16.2193  -13.2901   -9.2839 C   0  0  0  0  0  0  0  0  0  0  0  0
   17.4842  -13.6769   -9.6473 C   0  0  0  0  0  0  0  0  0  0  0  0
   17.6964  -14.8603  -10.3514 C   0  0  0  0  0  0  0  0  0  0  0  0
   15.1654  -14.1059   -9.6354 C   0  0  0  0  0  0  0  0  0  0  0  0
   15.3860  -15.2793  -10.3346 C   0  0  0  0  0  0  0  0  0  0  0  0
   16.6513  -15.6854  -10.7091 C   0  0  0  0  0  0  0  0  0  0  0  0
   16.9223  -16.9303  -11.4554 C   0  0  0  0  0  0  0  0  0  0  0  0
   17.3945  -18.0113  -10.6154 N   0  0  1  0  0  4  0  0  0  0  0  0
   18.2245  -17.5739   -9.5284 C   0  0  0  0  0  0  0  0  0  0  0  0
   18.8723  -18.8179   -8.9341 C   0  0  0  0  0  0  0  0  0  0  0  0
   16.2315  -18.7213  -10.1318 C   0  0  0  0  0  0  0  0  0  0  0  0
   16.4458  -19.4321   -8.8420 C   0  0  0  0  0  0  0  0  0  0  0  0
   17.8694  -19.8774   -8.6147 C   0  0  1  0  0  0  0  0  0  0  0  0
   18.0560  -21.0968   -9.3861 N   0  0  0  0  0  0  0  0  0  0  0  0
   17.8144  -22.3927   -8.8453 C   0  0  0  0  0  0  0  0  0  0  0  0
   16.8153  -22.5340   -8.0835 O   0  0  0  0  0  0  0  0  0  0  0  0
   18.6363  -23.5155   -9.1218 N   0  0  0  0  0  0  0  0  0  0  0  0
   18.2737  -24.8437   -8.7661 C   0  0  0  0  0  0  0  0  0  0  0  0
   17.1466  -25.1812   -8.0615 C   0  0  0  0  0  0  0  0  0  0  0  0
   19.1158  -25.8717   -9.1571 C   0  0  0  0  0  0  0  0  0  0  0  0
   18.8205  -27.1900   -8.8425 C   0  0  0  0  0  0  0  0  0  0  0  0
   17.6875  -27.5298   -8.1341 C   0  0  0  0  0  0  0  0  0  0  0  0
   17.3227  -29.2079   -7.7400 Cl  0  0  0  0  0  0  0  0  0  0  0  0
   16.8480  -26.5074   -7.7439 C   0  0  0  0  0  0  0  0  0  0  0  0
   15.6605  -26.7900   -7.0091 N   0  0  0  0  0  0  0  0  0  0  0  0
   15.6617  -26.7111   -5.5873 C   0  0  0  0  0  0  0  0  0  0  0  0
   16.7307  -26.3007   -5.0313 O   0  0  0  0  0  0  0  0  0  0  0  0
   14.4575  -27.0956   -4.7998 C   0  0  0  0  0  0  0  0  0  0  0  0
   14.0263  -25.8655   -3.9948 C   0  0  0  0  0  0  0  0  0  0  0  0
  1  2  2  0
  1  6  1  0
  2  3  1  0
  3  4  2  0
  4  5  1  0
  5  6  2  0
  6  7  1  0
  7  8  2  0
  7 17  1  0
  8  9  1  0
  9 10  1  0
  9 15  2  0
 10 11  2  0
 10 12  1  0
 12 13  2  0
 13 14  1  0
 14 15  1  0
 15 16  1  0
 16 17  2  0
 17 18  1  0
 18 19  2  0
 18 21  1  0
 19 20  1  0
 20 23  2  0
 21 22  2  0
 22 23  1  0
 23 24  1  0
 25 24  1  1
 25 26  1  0
 25 28  1  0
 26 27  1  0
 27 30  1  0
 28 29  1  0
 29 30  1  0
 30 31  1  6
 31 32  1  0
 32 33  2  0
 32 34  1  0
 34 35  1  0
 35 36  2  0
 35 37  1  0
 36 41  1  0
 37 38  2  0
 38 39  1  0
 39 40  1  0
 39 41  2  0
 41 42  1  0
 42 43  1  0
 43 44  2  0
 43 45  1  0
 45 46  1  0
M  CHG  1  25   1
M  END
$$$$
