
     RDKit          3D

 46 51  0  0  0  0  0  0  0  0999 V2000
   18.8055  -21.9700  -10.3147 C   0  0  0  0  0  0  0  0  0  0  0  0
   18.8507  -22.1804  -11.6763 C   0  0  0  0  0  0  0  0  0  0  0  0
   18.0910  -23.2323  -12.1776 C   0  0  0  0  0  0  0  0  0  0  0  0
   17.3272  -24.0300  -11.3593 C   0  0  0  0  0  0  0  0  0  0  0  0
   17.3137  -23.7826  -10.0109 C   0  0  0  0  0  0  0  0  0  0  0  0
   18.0524  -22.7501   -9.4735 C   0  0  0  0  0  0  0  0  0  0  0  0
   18.0707  -22.4483   -8.0637 C   0  0  0  0  0  0  0  0  0  0  0  0
   18.2001  -23.4549   -7.1377 C   0  0  0  0  0  0  0  0  0  0  0  0
   18.2196  -23.1507   -5.7891 C   0  0  0  0  0  0  0  0  0  0  0  0
   18.3539  -24.1765   -4.7625 C   0  0  0  0  0  0  0  0  0  0  0  0
   18.4554  -25.3787   -5.1252 O   0  0  0  0  0  0  0  0  0  0  0  0
   18.3645  -23.7804   -3.4098 N   0  0  0  0  0  0  0  0  0  0  0  0
   18.2612  -22.5636   -3.0505 C   0  0  0  0  0  0  0  0  0  0  0  0
   18.1201  -21.4296   -3.9746 C   0  0  0  0  0  0  0  0  0  0  0  0
   18.1084  -21.8362   -5.3982 C   0  0  0  0  0  0  0  0  0  0  0  0
   17.9824  -20.8738   -6.3444 N   0  0  0  0  0  0  0  0  0  0  0  0
   17.9616  -21.1491   -7.6467 C   0  0  0  0  0  0  0  0  0  0  0  0
   17.8211  -20.0922   -8.6453 C   0  0  0  0  0  0  0  0  0  0  0  0
   16.8889  -20.1373   -9.6545 C   0  0  0  0  0  0  0  0  0  0  0  0
   16.7975  -19.1198  -10.5698 C   0  0  0  0  0  0  0  0  0  0  0  0
   18.6771  -19.0197   -8.5429 C   0  0  0  0  0  0  0  0  0  0  0  0
   18.5623  -18.0125   -9.4768 C   0  0  0  0  0  0  0  0  0  0  0  0
   17.6356  -18.0469  -10.4881 C   0  0  0  0  0  0  0  0  0  0  0  0
   17.5737  -16.9367  -11.4358 C   0  0  0  0  0  0  0  0  0  0  0  0
   16.3953  -16.1138  -11.3517 N   0  0  1  0  0  4  0  0  0  0  0  0
   15.9315  -16.1401   -9.9927 C   0  0  0  0  0  0  0  0  0  0  0  0
   16.5415  -15.1133   -9.0888 C   0  0  0  0  0  0  0  0  0  0  0  0
   16.4736  -14.8369  -11.9413 C   0  0  0  0  0  0  0  0  0  0  0  0
   16.9171  -13.7239  -11.0500 C   0  0  0  0  0  0  0  0  0  0  0  0
   16.3003  -13.7492   -9.6882 C   0  0  1  0  0  0  0  0  0  0  0  0
   14.8900  -13.5134   -9.7897 N   0  0  0  0  0  0  0  0  0  0  0  0
   14.2912  -12.4487   -9.0218 C   0  0  0  0  0  0  0  0  0  0  0  0
   13.0883  -12.1645   -9.2576 O   0  0  0  0  0  0  0  0  0  0  0  0
   15.0506  -11.7528   -8.0336 N   0  0  0  0  0  0  0  0  0  0  0  0
   14.5238  -10.5689   -7.4496 C   0  0  0  0  0  0  0  0  0  0  0  0
   13.3319  -10.0860   -7.9469 C   0  0  0  0  0  0  0  0  0  0  0  0
   15.1492   -9.8952   -6.4213 C   0  0  0  0  0  0  0  0  0  0  0  0
   14.5860   -8.7459   -5.8941 C   0  0  0  0  0  0  0  0  0  0  0  0
   13.3976   -8.2713   -6.3955 C   0  0  0  0  0  0  0  0  0  0  0  0
   12.6484   -6.8200   -5.7579 Cl  0  0  0  0  0  0  0  0  0  0  0  0
   12.7584   -8.9433   -7.4325 C   0  0  0  0  0  0  0  0  0  0  0  0
   11.5320   -8.4812   -7.9716 N   0  0  0  0  0  0  0  0  0  0  0  0
   10.3150   -9.0358   -7.5069 C   0  0  0  0  0  0  0  0  0  0  0  0
   10.2115   -9.6073   -6.4065 O   0  0  0  0  0  0  0  0  0  0  0  0
    9.1268   -8.9197   -8.3831 C   0  0  0  0  0  0  0  0  0  0  0  0
    8.2166   -7.8688   -7.8399 C   0  0  0  0  0  0  0  0  0  0  0  0
  1  2  2  0
  1  6  1  0
  2  3  1  0
  3  4  2  0
  4  5  1  0
  5  6  2  0
  6  7  1  0
  7  8  2  0
  7 17  1  0
  8  9  1  0
  9 10  1  0
  9 15  2  0
 10 11  2  0
 10 12  1  0
 12 13  2  0
 14 13  1  1
 14 15  1  0
 15 16  1  0
 16 17  2  0
 17 18  1  0
 18 19  2  0
 18 21  1  0
 19 20  1  0
 20 23  2  0
 21 22  2  0
 22 23  1  0
 24 23  1  1
 25 24  1  1
 26 25  1  1
 28 25  1  1
 27 26  1  1
 27 30  1  0
 29 28  1  1
 29 30  1  0
 30 31  1  6
 31 32  1  0
 32 33  2  0
 32 34  1  0
 34 35  1  0
 35 36  2  0
 35 37  1  0
 36 41  1  0
 37 38  2  0
 38 39  1  0
 39 40  1  0
 39 41  2  0
 41 42  1  0
 42 43  1  0
 43 44  2  0
 45 43  1  1
 46 45  1  6
M  CHG  1  25   1
M  END
$$$$
