
     RDKit          3D

 46 51  0  0  0  0  0  0  0  0999 V2000
   17.0665  -20.0431   -8.2525 C   0  0  0  0  0  0  0  0  0  0  0  0
   15.9738  -20.0311   -9.0929 C   0  0  0  0  0  0  0  0  0  0  0  0
   16.1954  -20.3825  -10.4205 C   0  0  0  0  0  0  0  0  0  0  0  0
   17.4437  -20.7274  -10.8811 C   0  0  0  0  0  0  0  0  0  0  0  0
   18.5006  -20.7248  -10.0080 C   0  0  0  0  0  0  0  0  0  0  0  0
   18.3241  -20.3827   -8.6842 C   0  0  0  0  0  0  0  0  0  0  0  0
   19.4021  -20.3661   -7.7268 C   0  0  0  0  0  0  0  0  0  0  0  0
   20.2292  -21.4546   -7.5904 C   0  0  0  0  0  0  0  0  0  0  0  0
   21.2611  -21.4236   -6.6708 C   0  0  0  0  0  0  0  0  0  0  0  0
   22.1688  -22.5483   -6.4825 C   0  0  0  0  0  0  0  0  0  0  0  0
   22.0002  -23.5797   -7.1859 O   0  0  0  0  0  0  0  0  0  0  0  0
   23.1948  -22.4342   -5.5227 N   0  0  0  0  0  0  0  0  0  0  0  0
   23.3590  -21.3889   -4.8151 C   0  0  0  0  0  0  0  0  0  0  0  0
   22.5213  -20.1842   -4.8987 C   0  0  0  0  0  0  0  0  0  0  0  0
   21.4408  -20.2949   -5.9048 C   0  0  0  0  0  0  0  0  0  0  0  0
   20.6022  -19.2430   -6.0711 N   0  0  0  0  0  0  0  0  0  0  0  0
   19.6037  -19.2561   -6.9515 C   0  0  0  0  0  0  0  0  0  0  0  0
   18.7123  -18.1094   -7.1077 C   0  0  0  0  0  0  0  0  0  0  0  0
   18.6294  -17.3807   -8.2703 C   0  0  0  0  0  0  0  0  0  0  0  0
   17.7772  -16.3102   -8.3669 C   0  0  0  0  0  0  0  0  0  0  0  0
   17.9368  -17.7701   -6.0228 C   0  0  0  0  0  0  0  0  0  0  0  0
   17.0902  -16.6898   -6.1489 C   0  0  0  0  0  0  0  0  0  0  0  0
   16.9992  -15.9554   -7.3044 C   0  0  0  0  0  0  0  0  0  0  0  0
   16.0730  -14.8268   -7.3602 C   0  0  0  0  0  0  0  0  0  0  0  0
   15.1939  -14.8011   -8.5001 N   0  0  1  0  0  4  0  0  0  0  0  0
   14.2632  -13.7224   -8.3188 C   0  0  0  0  0  0  0  0  0  0  0  0
   14.7241  -12.3889   -8.8217 C   0  0  0  0  0  0  0  0  0  0  0  0
   15.8026  -14.8704   -9.7685 C   0  0  0  0  0  0  0  0  0  0  0  0
   16.1410  -13.5655  -10.4109 C   0  0  0  0  0  0  0  0  0  0  0  0
   15.0729  -12.5270  -10.2838 C   0  0  1  0  0  0  0  0  0  0  0  0
   13.9104  -12.9340  -11.0170 N   0  0  0  0  0  0  0  0  0  0  0  0
   13.2353  -11.9805  -11.8637 C   0  0  0  0  0  0  0  0  0  0  0  0
   13.2281  -12.2026  -13.1022 O   0  0  0  0  0  0  0  0  0  0  0  0
   12.6032  -10.8315  -11.3000 N   0  0  0  0  0  0  0  0  0  0  0  0
   11.8262   -9.9799  -12.1315 C   0  0  0  0  0  0  0  0  0  0  0  0
   11.0891  -10.5675  -13.1379 C   0  0  0  0  0  0  0  0  0  0  0  0
   11.7820   -8.6106  -11.9730 C   0  0  0  0  0  0  0  0  0  0  0  0
   11.0058   -7.8340  -12.8159 C   0  0  0  0  0  0  0  0  0  0  0  0
   10.2741   -8.4275  -13.8165 C   0  0  0  0  0  0  0  0  0  0  0  0
    9.2773   -7.4829  -14.9067 Cl  0  0  0  0  0  0  0  0  0  0  0  0
   10.3114   -9.8080  -13.9850 C   0  0  0  0  0  0  0  0  0  0  0  0
    9.5685  -10.4513  -15.0060 N   0  0  0  0  0  0  0  0  0  0  0  0
    8.5221  -11.3370  -14.6520 C   0  0  0  0  0  0  0  0  0  0  0  0
    8.1985  -11.5604  -13.4714 O   0  0  0  0  0  0  0  0  0  0  0  0
    7.7944  -12.0159  -15.7486 C   0  0  0  0  0  0  0  0  0  0  0  0
    6.7043  -11.1231  -16.2413 C   0  0  0  0  0  0  0  0  0  0  0  0
  1  2  2  0
  1  6  1  0
  2  3  1  0
  3  4  2  0
  4  5  1  0
  5  6  2  0
  6  7  1  0
  7  8  2  0
  7 17  1  0
  8  9  1  0
  9 10  1  0
  9 15  2  0
 10 11  2  0
 10 12  1  0
 12 13  2  0
 14 13  1  1
 14 15  1  0
 15 16  1  0
 16 17  2  0
 17 18  1  0
 18 19  2  0
 18 21  1  0
 19 20  1  0
 20 23  2  0
 21 22  2  0
 22 23  1  0
 24 23  1  1
 25 24  1  1
 26 25  1  1
 28 25  1  1
 27 26  1  1
 27 30  1  0
 29 28  1  1
 29 30  1  0
 30 31  1  6
 31 32  1  0
 32 33  2  0
 32 34  1  0
 34 35  1  0
 35 36  2  0
 35 37  1  0
 36 41  1  0
 37 38  2  0
 38 39  1  0
 39 40  1  0
 39 41  2  0
 41 42  1  0
 42 43  1  0
 43 44  2  0
 45 43  1  1
 46 45  1  6
M  CHG  1  25   1
M  END
$$$$
