
     RDKit          3D

 46 51  0  0  0  0  0  0  0  0999 V2000
   21.7566  -15.7340   -5.1367 C   0  0  0  0  0  0  0  0  0  0  0  0
   21.7466  -17.0462   -4.7143 C   0  0  0  0  0  0  0  0  0  0  0  0
   21.7923  -17.2673   -3.3417 C   0  0  0  0  0  0  0  0  0  0  0  0
   21.8450  -16.2302   -2.4411 C   0  0  0  0  0  0  0  0  0  0  0  0
   21.8531  -14.9414   -2.9083 C   0  0  0  0  0  0  0  0  0  0  0  0
   21.8090  -14.6787   -4.2609 C   0  0  0  0  0  0  0  0  0  0  0  0
   21.8138  -13.3422   -4.8020 C   0  0  0  0  0  0  0  0  0  0  0  0
   22.8587  -12.4891   -4.5414 C   0  0  0  0  0  0  0  0  0  0  0  0
   22.8519  -11.2115   -5.0696 C   0  0  0  0  0  0  0  0  0  0  0  0
   23.9321  -10.2638   -4.8264 C   0  0  0  0  0  0  0  0  0  0  0  0
   24.9012  -10.6297   -4.1095 O   0  0  0  0  0  0  0  0  0  0  0  0
   23.8465   -8.9803   -5.4027 N   0  0  0  0  0  0  0  0  0  0  0  0
   22.8640   -8.6172   -6.1259 C   0  0  0  0  0  0  0  0  0  0  0  0
   21.7096   -9.4661   -6.4528 C   0  0  0  0  0  0  0  0  0  0  0  0
   21.7911  -10.8167   -5.8518 C   0  0  0  0  0  0  0  0  0  0  0  0
   20.7805  -11.6897   -6.0843 N   0  0  0  0  0  0  0  0  0  0  0  0
   20.7710  -12.9231   -5.5835 C   0  0  0  0  0  0  0  0  0  0  0  0
   19.6669  -13.8425   -5.8471 C   0  0  0  0  0  0  0  0  0  0  0  0
   19.0018  -14.5163   -4.8504 C   0  0  0  0  0  0  0  0  0  0  0  0
   17.9716  -15.3711   -5.1496 C   0  0  0  0  0  0  0  0  0  0  0  0
   19.3038  -14.0201   -7.1624 C   0  0  0  0  0  0  0  0  0  0  0  0
   18.2654  -14.8852   -7.4328 C   0  0  0  0  0  0  0  0  0  0  0  0
   17.5945  -15.5629   -6.4461 C   0  0  0  0  0  0  0  0  0  0  0  0
   16.5006  -16.4586   -6.8144 C   0  0  0  0  0  0  0  0  0  0  0  0
   16.6532  -17.8284   -6.3981 N   0  0  1  0  0  4  0  0  0  0  0  0
   15.4774  -18.5485   -6.8005 C   0  0  0  0  0  0  0  0  0  0  0  0
   15.5168  -19.1132   -8.1872 C   0  0  0  0  0  0  0  0  0  0  0  0
   17.8797  -18.4490   -6.7062 C   0  0  0  0  0  0  0  0  0  0  0  0
   17.9418  -19.1794   -8.0073 C   0  0  0  0  0  0  0  0  0  0  0  0
   16.7301  -20.0035   -8.3035 C   0  0  1  0  0  0  0  0  0  0  0  0
   16.6293  -21.0760   -7.3577 N   0  0  0  0  0  0  0  0  0  0  0  0
   16.5664  -22.4372   -7.8321 C   0  0  0  0  0  0  0  0  0  0  0  0
   17.3754  -22.7790   -8.7332 O   0  0  0  0  0  0  0  0  0  0  0  0
   15.6141  -23.3506   -7.2877 N   0  0  0  0  0  0  0  0  0  0  0  0
   15.3498  -24.5732   -7.9627 C   0  0  0  0  0  0  0  0  0  0  0  0
   16.0485  -24.8266   -9.1242 C   0  0  0  0  0  0  0  0  0  0  0  0
   14.4361  -25.5009   -7.5080 C   0  0  0  0  0  0  0  0  0  0  0  0
   14.2224  -26.6741   -8.2107 C   0  0  0  0  0  0  0  0  0  0  0  0
   14.9229  -26.9190   -9.3675 C   0  0  0  0  0  0  0  0  0  0  0  0
   14.6844  -28.3914  -10.2890 Cl  0  0  0  0  0  0  0  0  0  0  0  0
   15.8471  -25.9901   -9.8349 C   0  0  0  0  0  0  0  0  0  0  0  0
   16.5863  -26.2121  -11.0234 N   0  0  0  0  0  0  0  0  0  0  0  0
   16.2304  -25.5163  -12.2040 C   0  0  0  0  0  0  0  0  0  0  0  0
   15.2527  -24.7491  -12.2656 O   0  0  0  0  0  0  0  0  0  0  0  0
   17.0709  -25.7244  -13.4054 C   0  0  0  0  0  0  0  0  0  0  0  0
   17.3127  -27.1859  -13.5885 C   0  0  0  0  0  0  0  0  0  0  0  0
  1  2  2  0
  1  6  1  0
  2  3  1  0
  3  4  2  0
  4  5  1  0
  5  6  2  0
  6  7  1  0
  7  8  2  0
  7 17  1  0
  8  9  1  0
  9 10  1  0
  9 15  2  0
 10 11  2  0
 10 12  1  0
 12 13  2  0
 14 13  1  1
 14 15  1  0
 15 16  1  0
 16 17  2  0
 17 18  1  0
 18 19  2  0
 18 21  1  0
 19 20  1  0
 20 23  2  0
 21 22  2  0
 22 23  1  0
 24 23  1  1
 25 24  1  6
 26 25  1  1
 28 25  1  1
 27 26  1  1
 27 30  1  0
 29 28  1  1
 29 30  1  0
 30 31  1  1
 31 32  1  0
 32 33  2  0
 32 34  1  0
 34 35  1  0
 35 36  2  0
 35 37  1  0
 36 41  1  0
 37 38  2  0
 38 39  1  0
 39 40  1  0
 39 41  2  0
 41 42  1  0
 42 43  1  0
 43 44  2  0
 45 43  1  1
 46 45  1  6
M  CHG  1  25   1
M  END
$$$$
