
     RDKit          3D

 46 51  0  0  0  0  0  0  0  0999 V2000
   15.4855   -9.6636  -10.0590 C   0  0  0  0  0  0  0  0  0  0  0  0
   15.6899   -9.4072  -11.3924 C   0  0  0  0  0  0  0  0  0  0  0  0
   16.4855  -10.2654  -12.1372 C   0  0  0  0  0  0  0  0  0  0  0  0
   17.0624  -11.3635  -11.5372 C   0  0  0  0  0  0  0  0  0  0  0  0
   16.8398  -11.6001  -10.1872 C   0  0  0  0  0  0  0  0  0  0  0  0
   16.0422  -10.7445   -9.4295 C   0  0  0  0  0  0  0  0  0  0  0  0
   15.8344  -11.0286   -8.0168 C   0  0  0  0  0  0  0  0  0  0  0  0
   16.1541  -10.1146   -7.0342 C   0  0  0  0  0  0  0  0  0  0  0  0
   15.9468  -10.4072   -5.6848 C   0  0  0  0  0  0  0  0  0  0  0  0
   16.2748   -9.4629   -4.6317 C   0  0  0  0  0  0  0  0  0  0  0  0
   16.7614   -8.3373   -4.8922 O   0  0  0  0  0  0  0  0  0  0  0  0
   16.0365   -9.8296   -3.2815 N   0  0  0  0  0  0  0  0  0  0  0  0
   15.5354  -10.9837   -2.9787 C   0  0  0  0  0  0  0  0  0  0  0  0
   15.1648  -12.0178   -3.9533 C   0  0  0  0  0  0  0  0  0  0  0  0
   15.4109  -11.6401   -5.3519 C   0  0  0  0  0  0  0  0  0  0  0  0
   15.0994  -12.5308   -6.3099 N   0  0  0  0  0  0  0  0  0  0  0  0
   15.3052  -12.2368   -7.6260 C   0  0  0  0  0  0  0  0  0  0  0  0
   14.9716  -13.1950   -8.6876 C   0  0  0  0  0  0  0  0  0  0  0  0
   15.5211  -14.4518   -8.6857 C   0  0  0  0  0  0  0  0  0  0  0  0
   15.2130  -15.3694   -9.6878 C   0  0  0  0  0  0  0  0  0  0  0  0
   14.1064  -12.8669   -9.7091 C   0  0  0  0  0  0  0  0  0  0  0  0
   13.8063  -13.7849  -10.6999 C   0  0  0  0  0  0  0  0  0  0  0  0
   14.3492  -15.0542  -10.7152 C   0  0  0  0  0  0  0  0  0  0  0  0
   14.0512  -16.0578  -11.7565 C   0  0  0  0  0  0  0  0  0  0  0  0
   14.8503  -17.2598  -11.6399 N   0  0  1  0  0  4  0  0  0  0  0  0
   16.2497  -17.0452  -11.8802 C   0  0  0  0  0  0  0  0  0  0  0  0
   16.8937  -18.4187  -12.0173 C   0  0  0  0  0  0  0  0  0  0  0  0
   14.6243  -17.8015  -10.3185 C   0  0  0  0  0  0  0  0  0  0  0  0
   15.7471  -18.6296   -9.8004 C   0  0  0  0  0  0  0  0  0  0  0  0
   16.5498  -19.3187  -10.8762 C   0  0  1  0  0  0  0  0  0  0  0  0
   15.7910  -20.4931  -11.2788 N   0  0  0  0  0  0  0  0  0  0  0  0
   16.3614  -21.7979  -11.3243 C   0  0  0  0  0  0  0  0  0  0  0  0
   16.7789  -22.2174  -12.4415 O   0  0  0  0  0  0  0  0  0  0  0  0
   16.4788  -22.6347  -10.1847 N   0  0  0  0  0  0  0  0  0  0  0  0
   16.7729  -24.0231  -10.2736 C   0  0  0  0  0  0  0  0  0  0  0  0
   16.9684  -24.7042  -11.4478 C   0  0  0  0  0  0  0  0  0  0  0  0
   16.8694  -24.7416   -9.0932 C   0  0  0  0  0  0  0  0  0  0  0  0
   17.1539  -26.0992   -9.1096 C   0  0  0  0  0  0  0  0  0  0  0  0
   17.3505  -26.7843  -10.2898 C   0  0  0  0  0  0  0  0  0  0  0  0
   17.7112  -28.5090  -10.2984 Cl  0  0  0  0  0  0  0  0  0  0  0  0
   17.2547  -26.0704  -11.4660 C   0  0  0  0  0  0  0  0  0  0  0  0
   17.4467  -26.7181  -12.7205 N   0  0  0  0  0  0  0  0  0  0  0  0
   18.7540  -27.0968  -13.1389 C   0  0  0  0  0  0  0  0  0  0  0  0
   19.7217  -26.7730  -12.3779 O   0  0  0  0  0  0  0  0  0  0  0  0
   18.9635  -27.8385  -14.4133 C   0  0  0  0  0  0  0  0  0  0  0  0
   20.4744  -28.0142  -14.5964 C   0  0  0  0  0  0  0  0  0  0  0  0
  1  2  2  0
  1  6  1  0
  2  3  1  0
  3  4  2  0
  4  5  1  0
  5  6  2  0
  6  7  1  0
  7  8  2  0
  7 17  1  0
  8  9  1  0
  9 10  1  0
  9 15  2  0
 10 11  2  0
 10 12  1  0
 12 13  2  0
 13 14  1  0
 14 15  1  0
 15 16  1  0
 16 17  2  0
 17 18  1  0
 18 19  2  0
 18 21  1  0
 19 20  1  0
 20 23  2  0
 21 22  2  0
 22 23  1  0
 23 24  1  0
 25 24  1  1
 25 26  1  0
 25 28  1  0
 26 27  1  0
 27 30  1  0
 28 29  1  0
 29 30  1  0
 30 31  1  6
 31 32  1  0
 32 33  2  0
 32 34  1  0
 34 35  1  0
 35 36  2  0
 35 37  1  0
 36 41  1  0
 37 38  2  0
 38 39  1  0
 39 40  1  0
 39 41  2  0
 41 42  1  0
 42 43  1  0
 43 44  2  0
 43 45  1  0
 45 46  1  0
M  CHG  1  25   1
M  END
$$$$
