
     RDKit          3D

 46 51  0  0  0  0  0  0  0  0999 V2000
   16.2397  -14.0095  -11.5833 C   0  0  0  0  0  0  0  0  0  0  0  0
   15.8102  -14.7188  -12.6778 C   0  0  0  0  0  0  0  0  0  0  0  0
   14.4781  -15.0960  -12.7656 C   0  0  0  0  0  0  0  0  0  0  0  0
   13.5996  -14.7583  -11.7591 C   0  0  0  0  0  0  0  0  0  0  0  0
   14.0596  -14.0406  -10.6631 C   0  0  0  0  0  0  0  0  0  0  0  0
   15.3957  -13.6565  -10.5647 C   0  0  0  0  0  0  0  0  0  0  0  0
   15.8371  -12.9050   -9.3985 C   0  0  0  0  0  0  0  0  0  0  0  0
   15.1930  -11.7579   -8.9833 C   0  0  0  0  0  0  0  0  0  0  0  0
   15.6328  -11.0520   -7.8618 C   0  0  0  0  0  0  0  0  0  0  0  0
   14.9728   -9.8422   -7.4043 C   0  0  0  0  0  0  0  0  0  0  0  0
   13.9732   -9.3779   -8.0017 O   0  0  0  0  0  0  0  0  0  0  0  0
   15.4761   -9.1775   -6.2559 N   0  0  0  0  0  0  0  0  0  0  0  0
   16.5060   -9.6305   -5.6164 C   0  0  0  0  0  0  0  0  0  0  0  0
   17.2539  -10.8401   -5.9828 C   0  0  0  0  0  0  0  0  0  0  0  0
   16.7344  -11.5299   -7.1717 C   0  0  0  0  0  0  0  0  0  0  0  0
   17.3620  -12.6480   -7.5767 N   0  0  0  0  0  0  0  0  0  0  0  0
   16.9256  -13.3316   -8.6736 C   0  0  0  0  0  0  0  0  0  0  0  0
   17.5962  -14.5549   -9.1323 C   0  0  0  0  0  0  0  0  0  0  0  0
   17.0574  -15.7861   -8.8577 C   0  0  0  0  0  0  0  0  0  0  0  0
   17.6847  -16.9539   -9.2868 C   0  0  0  0  0  0  0  0  0  0  0  0
   18.7752  -14.5070   -9.8445 C   0  0  0  0  0  0  0  0  0  0  0  0
   19.3908  -15.6721  -10.2665 C   0  0  0  0  0  0  0  0  0  0  0  0
   18.8642  -16.9202  -10.0000 C   0  0  0  0  0  0  0  0  0  0  0  0
   19.4946  -18.1828  -10.4346 C   0  0  0  0  0  0  0  0  0  0  0  0
   18.9786  -19.3479   -9.7466 N   0  0  1  0  0  4  0  0  0  0  0  0
   18.1890  -19.0297   -8.5902 C   0  0  0  0  0  0  0  0  0  0  0  0
   17.9789  -20.3288   -7.8232 C   0  0  0  0  0  0  0  0  0  0  0  0
   18.2143  -20.1125  -10.7068 C   0  0  0  0  0  0  0  0  0  0  0  0
   17.1518  -20.9607  -10.1014 C   0  0  0  0  0  0  0  0  0  0  0  0
   17.4588  -21.4218   -8.6979 C   0  0  1  0  0  0  0  0  0  0  0  0
   18.3729  -22.5475   -8.8164 N   0  0  0  0  0  0  0  0  0  0  0  0
   18.0701  -23.8408   -8.3010 C   0  0  0  0  0  0  0  0  0  0  0  0
   16.9620  -23.9933   -7.7118 O   0  0  0  0  0  0  0  0  0  0  0  0
   18.9475  -24.9493   -8.4196 N   0  0  0  0  0  0  0  0  0  0  0  0
   18.6252  -26.2447   -7.9293 C   0  0  0  0  0  0  0  0  0  0  0  0
   17.6377  -26.5078   -7.0149 C   0  0  0  0  0  0  0  0  0  0  0  0
   19.3583  -27.3187   -8.4067 C   0  0  0  0  0  0  0  0  0  0  0  0
   19.0949  -28.6085   -7.9694 C   0  0  0  0  0  0  0  0  0  0  0  0
   18.1022  -28.8736   -7.0500 C   0  0  0  0  0  0  0  0  0  0  0  0
   17.7767  -30.5161   -6.5016 Cl  0  0  0  0  0  0  0  0  0  0  0  0
   17.3714  -27.8052   -6.5737 C   0  0  0  0  0  0  0  0  0  0  0  0
   16.3313  -28.0101   -5.6218 N   0  0  0  0  0  0  0  0  0  0  0  0
   16.3892  -27.3744   -4.3489 C   0  0  0  0  0  0  0  0  0  0  0  0
   17.2118  -26.4116   -4.2198 O   0  0  0  0  0  0  0  0  0  0  0  0
   15.5195  -27.8277   -3.2281 C   0  0  0  0  0  0  0  0  0  0  0  0
   14.3710  -26.8212   -3.1054 C   0  0  0  0  0  0  0  0  0  0  0  0
  1  2  2  0
  1  6  1  0
  2  3  1  0
  3  4  2  0
  4  5  1  0
  5  6  2  0
  6  7  1  0
  7  8  2  0
  7 17  1  0
  8  9  1  0
  9 10  1  0
  9 15  2  0
 10 11  2  0
 10 12  1  0
 12 13  2  0
 13 14  1  0
 14 15  1  0
 15 16  1  0
 16 17  2  0
 17 18  1  0
 18 19  2  0
 18 21  1  0
 19 20  1  0
 20 23  2  0
 21 22  2  0
 22 23  1  0
 23 24  1  0
 25 24  1  6
 25 26  1  0
 25 28  1  0
 26 27  1  0
 27 30  1  0
 28 29  1  0
 29 30  1  0
 30 31  1  6
 31 32  1  0
 32 33  2  0
 32 34  1  0
 34 35  1  0
 35 36  2  0
 35 37  1  0
 36 41  1  0
 37 38  2  0
 38 39  1  0
 39 40  1  0
 39 41  2  0
 41 42  1  0
 42 43  1  0
 43 44  2  0
 43 45  1  0
 45 46  1  0
M  CHG  1  25   1
M  END
$$$$
