
     RDKit          3D

 46 51  0  0  0  0  0  0  0  0999 V2000
   16.7821  -10.4965   -8.8025 C   0  0  0  0  0  0  0  0  0  0  0  0
   17.7150   -9.8549   -8.0162 C   0  0  0  0  0  0  0  0  0  0  0  0
   17.9049  -10.3514   -6.7307 C   0  0  0  0  0  0  0  0  0  0  0  0
   17.1987  -11.4321   -6.2586 C   0  0  0  0  0  0  0  0  0  0  0  0
   16.2810  -12.0379   -7.0773 C   0  0  0  0  0  0  0  0  0  0  0  0
   16.0623  -11.5772   -8.3581 C   0  0  0  0  0  0  0  0  0  0  0  0
   15.1103  -12.1800   -9.2578 C   0  0  0  0  0  0  0  0  0  0  0  0
   14.1002  -11.4289   -9.8082 C   0  0  0  0  0  0  0  0  0  0  0  0
   13.1964  -12.0191  -10.6721 C   0  0  0  0  0  0  0  0  0  0  0  0
   12.1052  -11.2723  -11.2851 C   0  0  0  0  0  0  0  0  0  0  0  0
   11.9891  -10.0477  -11.0130 O   0  0  0  0  0  0  0  0  0  0  0  0
   11.2276  -11.9510  -12.1546 N   0  0  0  0  0  0  0  0  0  0  0  0
   11.3508  -13.1888  -12.4247 C   0  0  0  0  0  0  0  0  0  0  0  0
   12.4005  -14.0615  -11.8803 C   0  0  0  0  0  0  0  0  0  0  0  0
   13.3275  -13.3568  -10.9658 C   0  0  0  0  0  0  0  0  0  0  0  0
   14.3385  -14.0615  -10.4010 N   0  0  0  0  0  0  0  0  0  0  0  0
   15.2170  -13.5091   -9.5673 C   0  0  0  0  0  0  0  0  0  0  0  0
   16.2952  -14.2930   -8.9698 C   0  0  0  0  0  0  0  0  0  0  0  0
   17.5066  -14.4905   -9.5888 C   0  0  0  0  0  0  0  0  0  0  0  0
   18.4875  -15.2367   -8.9867 C   0  0  0  0  0  0  0  0  0  0  0  0
   16.0531  -14.8453   -7.7329 C   0  0  0  0  0  0  0  0  0  0  0  0
   17.0571  -15.5904   -7.1525 C   0  0  0  0  0  0  0  0  0  0  0  0
   18.2699  -15.7940   -7.7611 C   0  0  0  0  0  0  0  0  0  0  0  0
   19.2849  -16.5922   -7.0775 C   0  0  0  0  0  0  0  0  0  0  0  0
   19.6219  -17.8411   -7.7098 N   0  0  1  0  0  4  0  0  0  0  0  0
   19.9904  -18.7740   -6.6818 C   0  0  0  0  0  0  0  0  0  0  0  0
   18.8555  -19.5458   -6.0821 C   0  0  0  0  0  0  0  0  0  0  0  0
   18.7152  -18.3262   -8.6725 C   0  0  0  0  0  0  0  0  0  0  0  0
   17.6478  -19.2427   -8.1718 C   0  0  0  0  0  0  0  0  0  0  0  0
   18.1302  -20.2651   -7.1933 C   0  0  1  0  0  0  0  0  0  0  0  0
   19.0296  -21.1727   -7.8432 N   0  0  0  0  0  0  0  0  0  0  0  0
   19.0360  -22.5631   -7.4581 C   0  0  0  0  0  0  0  0  0  0  0  0
   19.8798  -22.9264   -6.5982 O   0  0  0  0  0  0  0  0  0  0  0  0
   18.1113  -23.4806   -8.0417 N   0  0  0  0  0  0  0  0  0  0  0  0
   18.5280  -24.8089   -8.3288 C   0  0  0  0  0  0  0  0  0  0  0  0
   19.8394  -25.1400   -8.0604 C   0  0  0  0  0  0  0  0  0  0  0  0
   17.6847  -25.7639   -8.8571 C   0  0  0  0  0  0  0  0  0  0  0  0
   18.1502  -27.0416   -9.1155 C   0  0  0  0  0  0  0  0  0  0  0  0
   19.4587  -27.3634   -8.8452 C   0  0  0  0  0  0  0  0  0  0  0  0
   20.0906  -28.9691   -9.1564 Cl  0  0  0  0  0  0  0  0  0  0  0  0
   20.3178  -26.4078   -8.3120 C   0  0  0  0  0  0  0  0  0  0  0  0
   21.6719  -26.7071   -8.0210 N   0  0  0  0  0  0  0  0  0  0  0  0
   22.0554  -26.9639   -6.6825 C   0  0  0  0  0  0  0  0  0  0  0  0
   21.4025  -26.5573   -5.7044 O   0  0  0  0  0  0  0  0  0  0  0  0
   23.2892  -27.7520   -6.4591 C   0  0  0  0  0  0  0  0  0  0  0  0
   23.5860  -27.7960   -4.9969 C   0  0  0  0  0  0  0  0  0  0  0  0
  1  2  2  0
  1  6  1  0
  2  3  1  0
  3  4  2  0
  4  5  1  0
  5  6  2  0
  6  7  1  0
  7  8  2  0
  7 17  1  0
  8  9  1  0
  9 10  1  0
  9 15  2  0
 10 11  2  0
 10 12  1  0
 12 13  2  0
 14 13  1  1
 14 15  1  0
 15 16  1  0
 16 17  2  0
 17 18  1  0
 18 19  2  0
 18 21  1  0
 19 20  1  0
 20 23  2  0
 21 22  2  0
 22 23  1  0
 24 23  1  1
 25 24  1  1
 26 25  1  1
 28 25  1  1
 27 26  1  1
 27 30  1  0
 29 28  1  1
 29 30  1  0
 30 31  1  6
 31 32  1  0
 32 33  2  0
 32 34  1  0
 34 35  1  0
 35 36  2  0
 35 37  1  0
 36 41  1  0
 37 38  2  0
 38 39  1  0
 39 40  1  0
 39 41  2  0
 41 42  1  0
 42 43  1  0
 43 44  2  0
 45 43  1  1
 46 45  1  6
M  CHG  1  25   1
M  END
$$$$
