
     RDKit          3D

 46 51  0  0  0  0  0  0  0  0999 V2000
   16.2924  -13.9064   -6.2573 C   0  0  0  0  0  0  0  0  0  0  0  0
   16.6712  -15.1717   -5.8626 C   0  0  0  0  0  0  0  0  0  0  0  0
   17.3511  -15.9466   -6.7966 C   0  0  0  0  0  0  0  0  0  0  0  0
   17.6362  -15.4793   -8.0574 C   0  0  0  0  0  0  0  0  0  0  0  0
   17.2392  -14.2140   -8.4050 C   0  0  0  0  0  0  0  0  0  0  0  0
   16.5630  -13.4134   -7.5091 C   0  0  0  0  0  0  0  0  0  0  0  0
   16.1259  -12.0763   -7.8253 C   0  0  0  0  0  0  0  0  0  0  0  0
   16.4575  -11.0235   -7.0073 C   0  0  0  0  0  0  0  0  0  0  0  0
   16.0345   -9.7460   -7.3246 C   0  0  0  0  0  0  0  0  0  0  0  0
   16.3555   -8.5920   -6.4942 C   0  0  0  0  0  0  0  0  0  0  0  0
   17.0424   -8.7739   -5.4540 O   0  0  0  0  0  0  0  0  0  0  0  0
   15.8843   -7.3238   -6.8899 N   0  0  0  0  0  0  0  0  0  0  0  0
   15.1903   -7.1476   -7.9423 C   0  0  0  0  0  0  0  0  0  0  0  0
   14.7934   -8.2168   -8.8692 C   0  0  0  0  0  0  0  0  0  0  0  0
   15.2844   -9.5528   -8.4617 C   0  0  0  0  0  0  0  0  0  0  0  0
   14.9793  -10.6190   -9.2412 N   0  0  0  0  0  0  0  0  0  0  0  0
   15.3782  -11.8554   -8.9505 C   0  0  0  0  0  0  0  0  0  0  0  0
   15.0321  -12.9873   -9.8066 C   0  0  0  0  0  0  0  0  0  0  0  0
   14.2586  -14.0394   -9.3773 C   0  0  0  0  0  0  0  0  0  0  0  0
   13.9625  -15.0807  -10.2196 C   0  0  0  0  0  0  0  0  0  0  0  0
   15.5201  -12.9682  -11.0931 C   0  0  0  0  0  0  0  0  0  0  0  0
   15.2065  -14.0281  -11.9166 C   0  0  0  0  0  0  0  0  0  0  0  0
   14.4354  -15.0834  -11.4989 C   0  0  0  0  0  0  0  0  0  0  0  0
   14.1433  -16.1667  -12.4347 C   0  0  0  0  0  0  0  0  0  0  0  0
   14.0125  -17.4750  -11.8481 N   0  0  1  0  0  4  0  0  0  0  0  0
   13.9362  -18.4341  -12.9145 C   0  0  0  0  0  0  0  0  0  0  0  0
   15.2540  -18.9435  -13.4118 C   0  0  0  0  0  0  0  0  0  0  0  0
   14.9083  -17.7935  -10.8088 C   0  0  0  0  0  0  0  0  0  0  0  0
   16.1810  -18.4609  -11.2151 C   0  0  0  0  0  0  0  0  0  0  0  0
   16.0075  -19.5320  -12.2438 C   0  0  1  0  0  0  0  0  0  0  0  0
   15.2573  -20.6204  -11.6895 N   0  0  0  0  0  0  0  0  0  0  0  0
   15.8110  -21.9524  -11.7199 C   0  0  0  0  0  0  0  0  0  0  0  0
   15.5206  -22.6827  -12.7027 O   0  0  0  0  0  0  0  0  0  0  0  0
   16.6565  -22.4096  -10.6646 N   0  0  0  0  0  0  0  0  0  0  0  0
   17.2267  -23.7096  -10.7362 C   0  0  0  0  0  0  0  0  0  0  0  0
   16.9226  -24.4818  -11.8373 C   0  0  0  0  0  0  0  0  0  0  0  0
   18.0591  -24.2202   -9.7622 C   0  0  0  0  0  0  0  0  0  0  0  0
   18.5835  -25.4950   -9.8886 C   0  0  0  0  0  0  0  0  0  0  0  0
   18.2753  -26.2581  -10.9894 C   0  0  0  0  0  0  0  0  0  0  0  0
   18.9172  -27.8772  -11.1907 Cl  0  0  0  0  0  0  0  0  0  0  0  0
   17.4370  -25.7527  -11.9779 C   0  0  0  0  0  0  0  0  0  0  0  0
   17.1001  -26.5129  -13.1253 N   0  0  0  0  0  0  0  0  0  0  0  0
   15.8241  -26.3507  -13.7171 C   0  0  0  0  0  0  0  0  0  0  0  0
   14.9433  -25.6189  -13.2302 O   0  0  0  0  0  0  0  0  0  0  0  0
   15.5465  -27.0923  -14.9686 C   0  0  0  0  0  0  0  0  0  0  0  0
   14.3031  -27.8997  -14.7956 C   0  0  0  0  0  0  0  0  0  0  0  0
  1  2  2  0
  1  6  1  0
  2  3  1  0
  3  4  2  0
  4  5  1  0
  5  6  2  0
  6  7  1  0
  7  8  2  0
  7 17  1  0
  8  9  1  0
  9 10  1  0
  9 15  2  0
 10 11  2  0
 10 12  1  0
 12 13  2  0
 14 13  1  1
 14 15  1  0
 15 16  1  0
 16 17  2  0
 17 18  1  0
 18 19  2  0
 18 21  1  0
 19 20  1  0
 20 23  2  0
 21 22  2  0
 22 23  1  0
 24 23  1  1
 25 24  1  6
 26 25  1  1
 28 25  1  1
 27 26  1  1
 27 30  1  0
 29 28  1  1
 29 30  1  0
 30 31  1  1
 31 32  1  0
 32 33  2  0
 32 34  1  0
 34 35  1  0
 35 36  2  0
 35 37  1  0
 36 41  1  0
 37 38  2  0
 38 39  1  0
 39 40  1  0
 39 41  2  0
 41 42  1  0
 42 43  1  0
 43 44  2  0
 45 43  1  1
 46 45  1  6
M  CHG  1  25   1
M  END
$$$$
