
     RDKit          3D

 46 51  0  0  0  0  0  0  0  0999 V2000
   15.4927  -13.3743   -7.1858 C   0  0  0  0  0  0  0  0  0  0  0  0
   14.7152  -12.2871   -7.5229 C   0  0  0  0  0  0  0  0  0  0  0  0
   15.1646  -11.4913   -8.5715 C   0  0  0  0  0  0  0  0  0  0  0  0
   16.3296  -11.7695   -9.2459 C   0  0  0  0  0  0  0  0  0  0  0  0
   17.0701  -12.8619   -8.8748 C   0  0  0  0  0  0  0  0  0  0  0  0
   16.6602  -13.6765   -7.8408 C   0  0  0  0  0  0  0  0  0  0  0  0
   17.4019  -14.8369   -7.4137 C   0  0  0  0  0  0  0  0  0  0  0  0
   17.8473  -14.9407   -6.1183 C   0  0  0  0  0  0  0  0  0  0  0  0
   18.5543  -16.0606   -5.7215 C   0  0  0  0  0  0  0  0  0  0  0  0
   19.0516  -16.2247   -4.3613 C   0  0  0  0  0  0  0  0  0  0  0  0
   18.8247  -15.3102   -3.5251 O   0  0  0  0  0  0  0  0  0  0  0  0
   19.7641  -17.3977   -4.0401 N   0  0  0  0  0  0  0  0  0  0  0  0
   19.9900  -18.3176   -4.8904 C   0  0  0  0  0  0  0  0  0  0  0  0
   19.5494  -18.2852   -6.2921 C   0  0  0  0  0  0  0  0  0  0  0  0
   18.7997  -17.0564   -6.6386 C   0  0  0  0  0  0  0  0  0  0  0  0
   18.3424  -16.9142   -7.9068 N   0  0  0  0  0  0  0  0  0  0  0  0
   17.6604  -15.8428   -8.3055 C   0  0  0  0  0  0  0  0  0  0  0  0
   17.1821  -15.7136   -9.6797 C   0  0  0  0  0  0  0  0  0  0  0  0
   16.2281  -16.5430  -10.2197 C   0  0  0  0  0  0  0  0  0  0  0  0
   15.8130  -16.3821  -11.5171 C   0  0  0  0  0  0  0  0  0  0  0  0
   17.7336  -14.7079  -10.4400 C   0  0  0  0  0  0  0  0  0  0  0  0
   17.2973  -14.5704  -11.7402 C   0  0  0  0  0  0  0  0  0  0  0  0
   16.3457  -15.3923  -12.2894 C   0  0  0  0  0  0  0  0  0  0  0  0
   15.9327  -15.1780  -13.6744 C   0  0  0  0  0  0  0  0  0  0  0  0
   14.7405  -14.3905  -13.8517 N   0  0  1  0  0  4  0  0  0  0  0  0
   14.5318  -14.2121  -15.2615 C   0  0  0  0  0  0  0  0  0  0  0  0
   13.7463  -15.2959  -15.9338 C   0  0  0  0  0  0  0  0  0  0  0  0
   13.6066  -14.7872  -13.1161 C   0  0  0  0  0  0  0  0  0  0  0  0
   12.6819  -15.7448  -13.7929 C   0  0  0  0  0  0  0  0  0  0  0  0
   12.4176  -15.4264  -15.2297 C   0  0  1  0  0  0  0  0  0  0  0  0
   11.6997  -14.1896  -15.3287 N   0  0  0  0  0  0  0  0  0  0  0  0
   10.5715  -14.0934  -16.2230 C   0  0  0  0  0  0  0  0  0  0  0  0
    9.4544  -13.8005  -15.7234 O   0  0  0  0  0  0  0  0  0  0  0  0
   10.7344  -14.3252  -17.6220 N   0  0  0  0  0  0  0  0  0  0  0  0
    9.6369  -14.8084  -18.3852 C   0  0  0  0  0  0  0  0  0  0  0  0
    8.3772  -14.6963  -17.8359 C   0  0  0  0  0  0  0  0  0  0  0  0
    9.7814  -15.3761  -19.6338 C   0  0  0  0  0  0  0  0  0  0  0  0
    8.6730  -15.8290  -20.3283 C   0  0  0  0  0  0  0  0  0  0  0  0
    7.4208  -15.7134  -19.7736 C   0  0  0  0  0  0  0  0  0  0  0  0
    5.9895  -16.2731  -20.6176 Cl  0  0  0  0  0  0  0  0  0  0  0  0
    7.2638  -15.1422  -18.5149 C   0  0  0  0  0  0  0  0  0  0  0  0
    5.9871  -15.0074  -17.9150 N   0  0  0  0  0  0  0  0  0  0  0  0
    4.9887  -15.9760  -18.1793 C   0  0  0  0  0  0  0  0  0  0  0  0
    5.1847  -16.9642  -18.9097 O   0  0  0  0  0  0  0  0  0  0  0  0
    3.6618  -15.7862  -17.5496 C   0  0  0  0  0  0  0  0  0  0  0  0
    3.1382  -17.1093  -17.0990 C   0  0  0  0  0  0  0  0  0  0  0  0
  1  2  2  0
  1  6  1  0
  2  3  1  0
  3  4  2  0
  4  5  1  0
  5  6  2  0
  6  7  1  0
  7  8  2  0
  7 17  1  0
  8  9  1  0
  9 10  1  0
  9 15  2  0
 10 11  2  0
 10 12  1  0
 12 13  2  0
 14 13  1  1
 14 15  1  0
 15 16  1  0
 16 17  2  0
 17 18  1  0
 18 19  2  0
 18 21  1  0
 19 20  1  0
 20 23  2  0
 21 22  2  0
 22 23  1  0
 24 23  1  1
 25 24  1  6
 26 25  1  1
 28 25  1  1
 27 26  1  1
 27 30  1  0
 29 28  1  1
 29 30  1  0
 30 31  1  1
 31 32  1  0
 32 33  2  0
 32 34  1  0
 34 35  1  0
 35 36  2  0
 35 37  1  0
 36 41  1  0
 37 38  2  0
 38 39  1  0
 39 40  1  0
 39 41  2  0
 41 42  1  0
 42 43  1  0
 43 44  2  0
 45 43  1  1
 46 45  1  6
M  CHG  1  25   1
M  END
$$$$
