
     RDKit          3D

 46 51  0  0  0  0  0  0  0  0999 V2000
   16.7061  -10.7835   -9.2400 C   0  0  0  0  0  0  0  0  0  0  0  0
   16.5174  -10.0863  -10.4078 C   0  0  0  0  0  0  0  0  0  0  0  0
   15.2678   -9.5533  -10.6890 C   0  0  0  0  0  0  0  0  0  0  0  0
   14.2300   -9.7263   -9.7992 C   0  0  0  0  0  0  0  0  0  0  0  0
   14.4474  -10.4355   -8.6254 C   0  0  0  0  0  0  0  0  0  0  0  0
   15.6986  -10.9751   -8.3329 C   0  0  0  0  0  0  0  0  0  0  0  0
   15.8841  -11.7121   -7.0911 C   0  0  0  0  0  0  0  0  0  0  0  0
   15.9074  -11.0809   -5.8648 C   0  0  0  0  0  0  0  0  0  0  0  0
   16.0867  -11.8067   -4.6856 C   0  0  0  0  0  0  0  0  0  0  0  0
   16.1151  -11.1664   -3.3826 C   0  0  0  0  0  0  0  0  0  0  0  0
   15.9788   -9.9262   -3.2614 O   0  0  0  0  0  0  0  0  0  0  0  0
   16.3015  -11.9688   -2.2269 N   0  0  0  0  0  0  0  0  0  0  0  0
   16.4453  -13.2517   -2.3174 C   0  0  0  0  0  0  0  0  0  0  0  0
   16.4342  -14.0092   -3.5755 C   0  0  0  0  0  0  0  0  0  0  0  0
   16.2414  -13.1802   -4.7734 C   0  0  0  0  0  0  0  0  0  0  0  0
   16.2187  -13.7952   -5.9690 N   0  0  0  0  0  0  0  0  0  0  0  0
   16.0430  -13.0783   -7.1162 C   0  0  0  0  0  0  0  0  0  0  0  0
   16.0147  -13.7304   -8.4318 C   0  0  0  0  0  0  0  0  0  0  0  0
   14.8610  -13.7460   -9.1736 C   0  0  0  0  0  0  0  0  0  0  0  0
   14.8213  -14.3622  -10.4226 C   0  0  0  0  0  0  0  0  0  0  0  0
   17.1324  -14.3415   -8.9577 C   0  0  0  0  0  0  0  0  0  0  0  0
   17.0834  -14.9509  -10.1991 C   0  0  0  0  0  0  0  0  0  0  0  0
   15.9320  -14.9770  -10.9605 C   0  0  0  0  0  0  0  0  0  0  0  0
   15.8446  -15.6181  -12.2877 C   0  0  0  0  0  0  0  0  0  0  0  0
   16.0420  -17.0521  -12.2461 N   0  0  1  0  0  4  0  0  0  0  0  0
   16.0250  -17.6724  -13.5411 C   0  0  0  0  0  0  0  0  0  0  0  0
   15.9426  -19.1762  -13.3134 C   0  0  0  0  0  0  0  0  0  0  0  0
   17.2950  -17.2954  -11.5667 C   0  0  0  0  0  0  0  0  0  0  0  0
   17.9506  -18.5780  -11.9410 C   0  0  0  0  0  0  0  0  0  0  0  0
   16.9877  -19.6603  -12.3627 C   0  0  1  0  0  0  0  0  0  0  0  0
   16.4357  -20.2297  -11.1429 N   0  0  0  0  0  0  0  0  0  0  0  0
   16.8751  -21.4755  -10.6091 C   0  0  0  0  0  0  0  0  0  0  0  0
   18.0279  -21.5187  -10.0918 O   0  0  0  0  0  0  0  0  0  0  0  0
   16.0845  -22.6532  -10.6333 N   0  0  0  0  0  0  0  0  0  0  0  0
   16.5139  -23.8830  -10.0628 C   0  0  0  0  0  0  0  0  0  0  0  0
   17.7742  -24.1175   -9.5756 C   0  0  0  0  0  0  0  0  0  0  0  0
   15.5975  -24.9193   -9.9926 C   0  0  0  0  0  0  0  0  0  0  0  0
   15.9518  -26.1448   -9.4478 C   0  0  0  0  0  0  0  0  0  0  0  0
   17.2187  -26.3810   -8.9578 C   0  0  0  0  0  0  0  0  0  0  0  0
   17.6576  -27.9419   -8.2679 Cl  0  0  0  0  0  0  0  0  0  0  0  0
   18.1324  -25.3502   -9.0269 C   0  0  0  0  0  0  0  0  0  0  0  0
   19.4590  -25.5283   -8.5385 N   0  0  0  0  0  0  0  0  0  0  0  0
   19.7496  -25.3177   -7.1605 C   0  0  0  0  0  0  0  0  0  0  0  0
   18.7765  -25.4023   -6.3443 O   0  0  0  0  0  0  0  0  0  0  0  0
   21.1361  -25.0127   -6.7100 C   0  0  0  0  0  0  0  0  0  0  0  0
   21.7359  -26.3130   -6.1656 C   0  0  0  0  0  0  0  0  0  0  0  0
  1  2  2  0
  1  6  1  0
  2  3  1  0
  3  4  2  0
  4  5  1  0
  5  6  2  0
  6  7  1  0
  7  8  2  0
  7 17  1  0
  8  9  1  0
  9 10  1  0
  9 15  2  0
 10 11  2  0
 10 12  1  0
 12 13  2  0
 13 14  1  0
 14 15  1  0
 15 16  1  0
 16 17  2  0
 17 18  1  0
 18 19  2  0
 18 21  1  0
 19 20  1  0
 20 23  2  0
 21 22  2  0
 22 23  1  0
 23 24  1  0
 25 24  1  6
 25 26  1  0
 25 28  1  0
 26 27  1  0
 27 30  1  0
 28 29  1  0
 29 30  1  0
 30 31  1  1
 31 32  1  0
 32 33  2  0
 32 34  1  0
 34 35  1  0
 35 36  2  0
 35 37  1  0
 36 41  1  0
 37 38  2  0
 38 39  1  0
 39 40  1  0
 39 41  2  0
 41 42  1  0
 42 43  1  0
 43 44  2  0
 43 45  1  0
 45 46  1  0
M  CHG  1  25   1
M  END
$$$$
