
     RDKit          3D

 46 51  0  0  0  0  0  0  0  0999 V2000
   17.2930  -15.3110   -6.5053 C   0  0  0  0  0  0  0  0  0  0  0  0
   17.2908  -14.0118   -6.0446 C   0  0  0  0  0  0  0  0  0  0  0  0
   18.5078  -13.4930   -5.6148 C   0  0  0  0  0  0  0  0  0  0  0  0
   19.6642  -14.2354   -5.6449 C   0  0  0  0  0  0  0  0  0  0  0  0
   19.6174  -15.5237   -6.1113 C   0  0  0  0  0  0  0  0  0  0  0  0
   18.4316  -16.0760   -6.5467 C   0  0  0  0  0  0  0  0  0  0  0  0
   18.3302  -17.4244   -7.0472 C   0  0  0  0  0  0  0  0  0  0  0  0
   18.9564  -18.4584   -6.3944 C   0  0  0  0  0  0  0  0  0  0  0  0
   18.8478  -19.7470   -6.8834 C   0  0  0  0  0  0  0  0  0  0  0  0
   19.4905  -20.8822   -6.2334 C   0  0  0  0  0  0  0  0  0  0  0  0
   20.1657  -20.6730   -5.1906 O   0  0  0  0  0  0  0  0  0  0  0  0
   19.3294  -22.1635   -6.7983 N   0  0  0  0  0  0  0  0  0  0  0  0
   18.6458  -22.3674   -7.8525 C   0  0  0  0  0  0  0  0  0  0  0  0
   17.9459  -21.3197   -8.6091 C   0  0  0  0  0  0  0  0  0  0  0  0
   18.1093  -19.9701   -8.0227 C   0  0  0  0  0  0  0  0  0  0  0  0
   17.5076  -18.9216   -8.6361 N   0  0  0  0  0  0  0  0  0  0  0  0
   17.6020  -17.6749   -8.1789 C   0  0  0  0  0  0  0  0  0  0  0  0
   16.9460  -16.5626   -8.8619 C   0  0  0  0  0  0  0  0  0  0  0  0
   17.3619  -16.0857  -10.0821 C   0  0  0  0  0  0  0  0  0  0  0  0
   16.7132  -15.0367  -10.6824 C   0  0  0  0  0  0  0  0  0  0  0  0
   15.8686  -15.9889   -8.2265 C   0  0  0  0  0  0  0  0  0  0  0  0
   15.2367  -14.9365   -8.8534 C   0  0  0  0  0  0  0  0  0  0  0  0
   15.6431  -14.4524  -10.0713 C   0  0  0  0  0  0  0  0  0  0  0  0
   14.9168  -13.3364  -10.6726 C   0  0  0  0  0  0  0  0  0  0  0  0
   14.7082  -13.4257  -12.0944 N   0  0  1  0  0  4  0  0  0  0  0  0
   14.1647  -14.7235  -12.3827 C   0  0  0  0  0  0  0  0  0  0  0  0
   12.6726  -14.8247  -12.2997 C   0  0  0  0  0  0  0  0  0  0  0  0
   14.0471  -12.3420  -12.7049 C   0  0  0  0  0  0  0  0  0  0  0  0
   12.5613  -12.4487  -12.8095 C   0  0  0  0  0  0  0  0  0  0  0  0
   12.0741  -13.7982  -13.2304 C   0  0  1  0  0  0  0  0  0  0  0  0
   12.4934  -14.0682  -14.5743 N   0  0  0  0  0  0  0  0  0  0  0  0
   11.5316  -14.5538  -15.5339 C   0  0  0  0  0  0  0  0  0  0  0  0
   11.5743  -15.7746  -15.8361 O   0  0  0  0  0  0  0  0  0  0  0  0
   10.5727  -13.6675  -16.1104 N   0  0  0  0  0  0  0  0  0  0  0  0
    9.5735  -14.1843  -16.9793 C   0  0  0  0  0  0  0  0  0  0  0  0
    9.9071  -15.2669  -17.7654 C   0  0  0  0  0  0  0  0  0  0  0  0
    8.3037  -13.6529  -17.0650 C   0  0  0  0  0  0  0  0  0  0  0  0
    7.3737  -14.2008  -17.9317 C   0  0  0  0  0  0  0  0  0  0  0  0
    7.7143  -15.2798  -18.7117 C   0  0  0  0  0  0  0  0  0  0  0  0
    6.5683  -16.0057  -19.8226 Cl  0  0  0  0  0  0  0  0  0  0  0  0
    8.9924  -15.8237  -18.6329 C   0  0  0  0  0  0  0  0  0  0  0  0
    9.3754  -16.9363  -19.4225 N   0  0  0  0  0  0  0  0  0  0  0  0
    9.7676  -16.7326  -20.7676 C   0  0  0  0  0  0  0  0  0  0  0  0
    9.7276  -15.6183  -21.3200 O   0  0  0  0  0  0  0  0  0  0  0  0
   10.2425  -17.9089  -21.5318 C   0  0  0  0  0  0  0  0  0  0  0  0
   10.4895  -19.0397  -20.5894 C   0  0  0  0  0  0  0  0  0  0  0  0
  1  2  2  0
  1  6  1  0
  2  3  1  0
  3  4  2  0
  4  5  1  0
  5  6  2  0
  6  7  1  0
  7  8  2  0
  7 17  1  0
  8  9  1  0
  9 10  1  0
  9 15  2  0
 10 11  2  0
 10 12  1  0
 12 13  2  0
 14 13  1  1
 14 15  1  0
 15 16  1  0
 16 17  2  0
 17 18  1  0
 18 19  2  0
 18 21  1  0
 19 20  1  0
 20 23  2  0
 21 22  2  0
 22 23  1  0
 24 23  1  1
 25 24  1  1
 26 25  1  1
 28 25  1  1
 27 26  1  1
 27 30  1  0
 29 28  1  1
 29 30  1  0
 30 31  1  6
 31 32  1  0
 32 33  2  0
 32 34  1  0
 34 35  1  0
 35 36  2  0
 35 37  1  0
 36 41  1  0
 37 38  2  0
 38 39  1  0
 39 40  1  0
 39 41  2  0
 41 42  1  0
 42 43  1  0
 43 44  2  0
 45 43  1  1
 46 45  1  6
M  CHG  1  25   1
M  END
$$$$
