
     RDKit          3D

 46 51  0  0  0  0  0  0  0  0999 V2000
   16.6228  -20.2389   -9.7284 C   0  0  0  0  0  0  0  0  0  0  0  0
   16.0112  -19.0937  -10.1917 C   0  0  0  0  0  0  0  0  0  0  0  0
   15.9500  -18.9254  -11.5712 C   0  0  0  0  0  0  0  0  0  0  0  0
   16.4730  -19.8539  -12.4393 C   0  0  0  0  0  0  0  0  0  0  0  0
   17.0721  -20.9777  -11.9319 C   0  0  0  0  0  0  0  0  0  0  0  0
   17.1538  -21.1829  -10.5711 C   0  0  0  0  0  0  0  0  0  0  0  0
   17.7719  -22.3479   -9.9882 C   0  0  0  0  0  0  0  0  0  0  0  0
   17.7476  -23.5528  -10.6478 C   0  0  0  0  0  0  0  0  0  0  0  0
   18.3473  -24.6609  -10.0788 C   0  0  0  0  0  0  0  0  0  0  0  0
   18.3522  -25.9638  -10.7319 C   0  0  0  0  0  0  0  0  0  0  0  0
   17.7885  -26.0751  -11.8531 O   0  0  0  0  0  0  0  0  0  0  0  0
   18.9861  -27.0422  -10.0823 N   0  0  0  0  0  0  0  0  0  0  0  0
   19.5535  -26.9226   -8.9491 C   0  0  0  0  0  0  0  0  0  0  0  0
   19.6247  -25.6728   -8.1790 C   0  0  0  0  0  0  0  0  0  0  0  0
   18.9614  -24.5342   -8.8541 C   0  0  0  0  0  0  0  0  0  0  0  0
   18.9626  -23.3272   -8.2371 N   0  0  0  0  0  0  0  0  0  0  0  0
   18.3899  -22.2504   -8.7706 C   0  0  0  0  0  0  0  0  0  0  0  0
   18.4028  -20.9621   -8.0821 C   0  0  0  0  0  0  0  0  0  0  0  0
   17.3535  -20.5144   -7.3153 C   0  0  0  0  0  0  0  0  0  0  0  0
   17.4131  -19.2952   -6.6896 C   0  0  0  0  0  0  0  0  0  0  0  0
   19.5300  -20.1869   -8.2308 C   0  0  0  0  0  0  0  0  0  0  0  0
   19.5615  -18.9666   -7.5907 C   0  0  0  0  0  0  0  0  0  0  0  0
   18.5201  -18.5098   -6.8228 C   0  0  0  0  0  0  0  0  0  0  0  0
   18.6328  -17.2065   -6.1723 C   0  0  0  0  0  0  0  0  0  0  0  0
   17.5055  -16.3275   -6.3442 N   0  0  1  0  0  4  0  0  0  0  0  0
   17.8082  -15.0844   -5.6915 C   0  0  0  0  0  0  0  0  0  0  0  0
   18.5383  -14.0822   -6.5317 C   0  0  0  0  0  0  0  0  0  0  0  0
   16.9843  -16.2168   -7.6481 C   0  0  0  0  0  0  0  0  0  0  0  0
   17.5497  -15.1244   -8.4949 C   0  0  0  0  0  0  0  0  0  0  0  0
   17.7259  -13.8245   -7.7775 C   0  0  1  0  0  0  0  0  0  0  0  0
   16.4452  -13.2940   -7.4126 N   0  0  0  0  0  0  0  0  0  0  0  0
   15.8364  -12.2785   -8.2373 C   0  0  0  0  0  0  0  0  0  0  0  0
   14.6017  -12.3715   -8.4611 O   0  0  0  0  0  0  0  0  0  0  0  0
   16.6216  -11.2132   -8.7722 N   0  0  0  0  0  0  0  0  0  0  0  0
   15.9898  -10.1855   -9.5240 C   0  0  0  0  0  0  0  0  0  0  0  0
   15.4905   -9.1020   -8.8327 C   0  0  0  0  0  0  0  0  0  0  0  0
   15.8590  -10.2299  -10.8963 C   0  0  0  0  0  0  0  0  0  0  0  0
   15.2325   -9.1973  -11.5726 C   0  0  0  0  0  0  0  0  0  0  0  0
   14.7376   -8.1209  -10.8759 C   0  0  0  0  0  0  0  0  0  0  0  0
   13.9374   -6.7910  -11.6915 Cl  0  0  0  0  0  0  0  0  0  0  0  0
   14.8644   -8.0660   -9.4916 C   0  0  0  0  0  0  0  0  0  0  0  0
   14.3660   -6.9705   -8.7436 N   0  0  0  0  0  0  0  0  0  0  0  0
   15.1230   -5.7762   -8.6707 C   0  0  0  0  0  0  0  0  0  0  0  0
   15.7958   -5.3452   -9.6246 O   0  0  0  0  0  0  0  0  0  0  0  0
   15.0992   -5.0229   -7.3958 C   0  0  0  0  0  0  0  0  0  0  0  0
   14.3380   -3.7537   -7.5894 C   0  0  0  0  0  0  0  0  0  0  0  0
  1  2  2  0
  1  6  1  0
  2  3  1  0
  3  4  2  0
  4  5  1  0
  5  6  2  0
  6  7  1  0
  7  8  2  0
  7 17  1  0
  8  9  1  0
  9 10  1  0
  9 15  2  0
 10 11  2  0
 10 12  1  0
 12 13  2  0
 14 13  1  1
 14 15  1  0
 15 16  1  0
 16 17  2  0
 17 18  1  0
 18 19  2  0
 18 21  1  0
 19 20  1  0
 20 23  2  0
 21 22  2  0
 22 23  1  0
 24 23  1  1
 25 24  1  6
 26 25  1  1
 28 25  1  1
 27 26  1  1
 27 30  1  0
 29 28  1  1
 29 30  1  0
 30 31  1  1
 31 32  1  0
 32 33  2  0
 32 34  1  0
 34 35  1  0
 35 36  2  0
 35 37  1  0
 36 41  1  0
 37 38  2  0
 38 39  1  0
 39 40  1  0
 39 41  2  0
 41 42  1  0
 42 43  1  0
 43 44  2  0
 45 43  1  1
 46 45  1  6
M  CHG  1  25   1
M  END
$$$$
