
     RDKit          3D

 19 20  0  0  0  0  0  0  0  0999 V2000
   32.3569    5.6414  -15.2830 C   0  0  0  0  0  0  0  0  0  0  0  0
   30.9908    5.5412  -15.4173 C   0  0  0  0  0  0  0  0  0  0  0  0
   30.2907    6.6427  -15.8331 C   0  0  0  0  0  0  0  0  0  0  0  0
   28.9502   10.9637  -15.9781 C   0  0  0  0  0  0  0  0  0  0  0  0
   28.7124   11.1903  -17.3167 C   0  0  0  0  0  0  0  0  0  0  0  0
   29.2059   10.3297  -18.2805 C   0  0  0  0  0  0  0  0  0  0  0  0
   29.9431    9.2370  -17.8702 C   0  0  0  0  0  0  0  0  0  0  0  0
   32.3148    7.9625  -15.9870 C   0  0  0  0  0  0  0  0  0  0  0  0
   33.0082    6.8214  -15.5599 C   0  0  0  0  0  0  0  0  0  0  0  0
   27.9924   12.2548  -17.7425 F   0  0  0  0  0  0  0  0  0  0  0  0
   29.6858    9.8720  -15.5799 C   0  0  0  0  0  0  0  0  0  0  0  0
   30.1853    9.0024  -16.5402 C   0  0  0  0  0  0  0  0  0  0  0  0
   30.9590    7.8442  -16.1142 C   0  0  0  0  0  0  0  0  0  0  0  0
   33.1380    4.4967  -14.8442 C   0  0  0  0  0  0  0  0  0  0  0  0
   34.4847    4.6631  -14.5981 O   0  0  0  0  0  0  0  0  0  0  0  0
   32.6252    3.3755  -14.6856 O   0  0  0  0  0  0  0  0  0  0  0  0
   33.2080    9.4231  -16.3372 S   0  0  2  0  0  6  0  0  0  0  0  0
   34.6841    9.2705  -16.1398 O   0  0  0  0  0  0  0  0  0  0  0  0
   32.7946   10.5178  -15.3533 O   0  0  0  0  0  0  0  0  0  0  0  0
  2  1  2  0
  9  1  1  0
  1 14  1  0
  3  2  1  0
 13  3  2  0
  4  5  2  0
 11  4  1  0
  6  5  1  0
  5 10  1  0
  7  6  2  0
 12  7  1  0
  8  9  2  0
 13  8  1  0
 17  8  1  1
 12 11  2  0
 12 13  1  0
 14 15  1  0
 14 16  2  0
 17 18  2  0
 17 19  2  0
M  END
$$$$
