
     RDKit          3D

 19 20  0  0  0  0  0  0  0  0999 V2000
   34.7625    9.3326  -13.6253 C   0  0  0  0  0  0  0  0  0  0  0  0
   34.4547   10.6652  -13.7564 C   0  0  0  0  0  0  0  0  0  0  0  0
   33.3831   11.0854  -14.5088 C   0  0  0  0  0  0  0  0  0  0  0  0
   30.5626   11.4553  -18.0730 C   0  0  0  0  0  0  0  0  0  0  0  0
   29.2747   11.4664  -17.5663 C   0  0  0  0  0  0  0  0  0  0  0  0
   29.0610   11.0541  -16.2766 C   0  0  0  0  0  0  0  0  0  0  0  0
   30.1180   10.6310  -15.4874 C   0  0  0  0  0  0  0  0  0  0  0  0
   32.8601    8.8382  -15.0486 C   0  0  0  0  0  0  0  0  0  0  0  0
   33.9586    8.4253  -14.2758 C   0  0  0  0  0  0  0  0  0  0  0  0
   28.2852   11.8900  -18.3853 F   0  0  0  0  0  0  0  0  0  0  0  0
   31.5887   11.0295  -17.2631 C   0  0  0  0  0  0  0  0  0  0  0  0
   31.4206   10.6035  -15.9533 C   0  0  0  0  0  0  0  0  0  0  0  0
   32.5594   10.1652  -15.1743 C   0  0  0  0  0  0  0  0  0  0  0  0
   35.9108    8.9136  -12.8164 C   0  0  0  0  0  0  0  0  0  0  0  0
   36.7102    9.8739  -12.2293 O   0  0  0  0  0  0  0  0  0  0  0  0
   36.1998    7.7110  -12.6339 O   0  0  0  0  0  0  0  0  0  0  0  0
   31.8812    7.6514  -15.8726 S   0  0  2  0  0  6  0  0  0  0  0  0
   30.5892    7.5300  -15.0601 O   0  0  0  0  0  0  0  0  0  0  0  0
   32.5064    6.3028  -15.9065 O   0  0  0  0  0  0  0  0  0  0  0  0
  2  1  2  0
  9  1  1  0
  1 14  1  0
  3  2  1  0
 13  3  2  0
  4  5  2  0
 11  4  1  0
  6  5  1  0
  5 10  1  0
  7  6  2  0
 12  7  1  0
  8  9  2  0
 13  8  1  0
 17  8  1  1
 12 11  2  0
 12 13  1  0
 14 15  1  0
 14 16  2  0
 17 18  2  0
 17 19  2  0
M  END
$$$$
