
     RDKit          3D

 19 20  0  0  0  0  0  0  0  0999 V2000
   30.9794    5.4504  -11.1316 C   0  0  0  0  0  0  0  0  0  0  0  0
   29.6243    5.5630  -11.3288 C   0  0  0  0  0  0  0  0  0  0  0  0
   29.0377    6.7723  -11.6196 C   0  0  0  0  0  0  0  0  0  0  0  0
   27.7884   11.0795  -11.3374 C   0  0  0  0  0  0  0  0  0  0  0  0
   27.9600   11.6980  -12.5637 C   0  0  0  0  0  0  0  0  0  0  0  0
   28.7328   11.0874  -13.5170 C   0  0  0  0  0  0  0  0  0  0  0  0
   29.3360    9.8670  -13.2603 C   0  0  0  0  0  0  0  0  0  0  0  0
   31.1523    7.8379  -11.5309 C   0  0  0  0  0  0  0  0  0  0  0  0
   31.7362    6.5946  -11.2347 C   0  0  0  0  0  0  0  0  0  0  0  0
   27.3458   12.8879  -12.7542 F   0  0  0  0  0  0  0  0  0  0  0  0
   28.4011    9.8689  -11.1154 C   0  0  0  0  0  0  0  0  0  0  0  0
   29.1914    9.2140  -12.0490 C   0  0  0  0  0  0  0  0  0  0  0  0
   29.8039    7.9426  -11.7264 C   0  0  0  0  0  0  0  0  0  0  0  0
   31.5775    4.1482  -10.8232 C   0  0  0  0  0  0  0  0  0  0  0  0
   30.7576    3.0932  -10.4760 O   0  0  0  0  0  0  0  0  0  0  0  0
   32.8114    3.9507  -10.8619 O   0  0  0  0  0  0  0  0  0  0  0  0
   32.1505    9.2659  -11.6311 S   0  0  2  0  0  6  0  0  0  0  0  0
   32.4732    9.4539  -13.1158 O   0  0  0  0  0  0  0  0  0  0  0  0
   33.4459    9.1223  -10.9154 O   0  0  0  0  0  0  0  0  0  0  0  0
  2  1  2  0
  9  1  1  0
  1 14  1  0
  3  2  1  0
 13  3  2  0
  4  5  2  0
 11  4  1  0
  6  5  1  0
  5 10  1  0
  7  6  2  0
 12  7  1  0
  8  9  2  0
 13  8  1  0
 17  8  1  6
 12 11  2  0
 12 13  1  0
 14 15  1  0
 14 16  2  0
 17 18  2  0
 17 19  2  0
M  END
$$$$
