
     RDKit          3D

 19 20  0  0  0  0  0  0  0  0999 V2000
   31.3918   10.0012  -14.9200 C   0  0  0  0  0  0  0  0  0  0  0  0
   30.6452   11.0164  -14.3665 C   0  0  0  0  0  0  0  0  0  0  0  0
   30.0524   10.8054  -13.1497 C   0  0  0  0  0  0  0  0  0  0  0  0
   27.5751    8.8922   -9.9608 C   0  0  0  0  0  0  0  0  0  0  0  0
   28.2899    9.0080   -8.7880 C   0  0  0  0  0  0  0  0  0  0  0  0
   29.6398    9.3092   -8.8068 C   0  0  0  0  0  0  0  0  0  0  0  0
   30.2554    9.4913  -10.0290 C   0  0  0  0  0  0  0  0  0  0  0  0
   30.9454    8.5584  -13.0215 C   0  0  0  0  0  0  0  0  0  0  0  0
   31.5415    8.7992  -14.2673 C   0  0  0  0  0  0  0  0  0  0  0  0
   27.7077    8.8337   -7.5783 F   0  0  0  0  0  0  0  0  0  0  0  0
   28.1980    9.0758  -11.1732 C   0  0  0  0  0  0  0  0  0  0  0  0
   29.5528    9.3785  -11.2021 C   0  0  0  0  0  0  0  0  0  0  0  0
   30.2075    9.5778  -12.4878 C   0  0  0  0  0  0  0  0  0  0  0  0
   32.0376   10.1831  -16.2095 C   0  0  0  0  0  0  0  0  0  0  0  0
   32.7260    9.1254  -16.7657 O   0  0  0  0  0  0  0  0  0  0  0  0
   31.9857   11.2636  -16.8217 O   0  0  0  0  0  0  0  0  0  0  0  0
   31.1914    7.0142  -12.2414 S   0  0  2  0  0  6  0  0  0  0  0  0
   32.2299    7.0591  -11.1642 O   0  0  0  0  0  0  0  0  0  0  0  0
   31.7315    6.0118  -13.2616 O   0  0  0  0  0  0  0  0  0  0  0  0
  2  1  2  0
  9  1  1  0
  1 14  1  0
  3  2  1  0
 13  3  2  0
  4  5  2  0
 11  4  1  0
  6  5  1  0
  5 10  1  0
  7  6  2  0
 12  7  1  0
  8  9  2  0
 13  8  1  0
 17  8  1  6
 12 11  2  0
 12 13  1  0
 14 15  1  0
 14 16  2  0
 17 18  2  0
 17 19  2  0
M  END
$$$$
