
     RDKit          3D

 19 20  0  0  0  0  0  0  0  0999 V2000
   33.3079   11.3873  -15.1033 C   0  0  0  0  0  0  0  0  0  0  0  0
   32.2844   12.3046  -15.0299 C   0  0  0  0  0  0  0  0  0  0  0  0
   31.0883   11.9100  -14.4914 C   0  0  0  0  0  0  0  0  0  0  0  0
   27.3125    9.7397  -13.7969 C   0  0  0  0  0  0  0  0  0  0  0  0
   27.1836    9.4729  -12.4508 C   0  0  0  0  0  0  0  0  0  0  0  0
   28.2713    9.5674  -11.6016 C   0  0  0  0  0  0  0  0  0  0  0  0
   29.4906    9.9356  -12.1341 C   0  0  0  0  0  0  0  0  0  0  0  0
   31.9226    9.6726  -14.0906 C   0  0  0  0  0  0  0  0  0  0  0  0
   33.1364   10.1010  -14.6460 C   0  0  0  0  0  0  0  0  0  0  0  0
   25.9983    9.1103  -11.9064 F   0  0  0  0  0  0  0  0  0  0  0  0
   28.5318   10.1058  -14.3173 C   0  0  0  0  0  0  0  0  0  0  0  0
   29.6294   10.2034  -13.4726 C   0  0  0  0  0  0  0  0  0  0  0  0
   30.9177   10.5971  -14.0265 C   0  0  0  0  0  0  0  0  0  0  0  0
   34.5934   11.7643  -15.6678 C   0  0  0  0  0  0  0  0  0  0  0  0
   35.5845   10.8103  -15.7651 O   0  0  0  0  0  0  0  0  0  0  0  0
   34.8216   12.9203  -16.0636 O   0  0  0  0  0  0  0  0  0  0  0  0
   31.7801    8.0291  -13.5144 S   0  0  2  0  0  6  0  0  0  0  0  0
   32.8826    7.6362  -12.5810 O   0  0  0  0  0  0  0  0  0  0  0  0
   31.9073    7.0658  -14.6947 O   0  0  0  0  0  0  0  0  0  0  0  0
  2  1  2  0
  9  1  1  0
  1 14  1  0
  3  2  1  0
 13  3  2  0
  4  5  2  0
 11  4  1  0
  6  5  1  0
  5 10  1  0
  7  6  2  0
 12  7  1  0
  8  9  2  0
 13  8  1  0
 17  8  1  6
 12 11  2  0
 12 13  1  0
 14 15  1  0
 14 16  2  0
 17 18  2  0
 17 19  2  0
M  END
$$$$
