
     RDKit          3D

 19 20  0  0  0  0  0  0  0  0999 V2000
   33.3500    6.5915  -14.1598 C   0  0  0  0  0  0  0  0  0  0  0  0
   32.1081    6.3004  -14.6767 C   0  0  0  0  0  0  0  0  0  0  0  0
   31.0458    7.0837  -14.3101 C   0  0  0  0  0  0  0  0  0  0  0  0
   28.2700    9.3774  -11.5416 C   0  0  0  0  0  0  0  0  0  0  0  0
   27.8914   10.4609  -12.3049 C   0  0  0  0  0  0  0  0  0  0  0  0
   28.5972   10.8084  -13.4426 C   0  0  0  0  0  0  0  0  0  0  0  0
   29.6911   10.0441  -13.7963 C   0  0  0  0  0  0  0  0  0  0  0  0
   32.4533    8.4626  -12.9029 C   0  0  0  0  0  0  0  0  0  0  0  0
   33.5239    7.6461  -13.2934 C   0  0  0  0  0  0  0  0  0  0  0  0
   26.8227   11.2247  -11.9777 F   0  0  0  0  0  0  0  0  0  0  0  0
   29.3613    8.6224  -11.9030 C   0  0  0  0  0  0  0  0  0  0  0  0
   30.0760    8.9636  -13.0434 C   0  0  0  0  0  0  0  0  0  0  0  0
   31.2277    8.1581  -13.4259 C   0  0  0  0  0  0  0  0  0  0  0  0
   34.5041    5.7856  -14.5226 C   0  0  0  0  0  0  0  0  0  0  0  0
   35.7164    6.0472  -13.9193 O   0  0  0  0  0  0  0  0  0  0  0  0
   34.4270    4.8698  -15.3595 O   0  0  0  0  0  0  0  0  0  0  0  0
   32.7495    9.7954  -11.8122 S   0  0  2  0  0  6  0  0  0  0  0  0
   34.2029   10.0038  -11.5205 O   0  0  0  0  0  0  0  0  0  0  0  0
   32.1198    9.4873  -10.4535 O   0  0  0  0  0  0  0  0  0  0  0  0
  2  1  2  0
  9  1  1  0
  1 14  1  0
  3  2  1  0
 13  3  2  0
  4  5  2  0
 11  4  1  0
  6  5  1  0
  5 10  1  0
  7  6  2  0
 12  7  1  0
  8  9  2  0
 13  8  1  0
 17  8  1  6
 12 11  2  0
 12 13  1  0
 14 15  1  0
 14 16  2  0
 17 18  2  0
 17 19  2  0
M  END
$$$$
