
     RDKit          3D

 19 20  0  0  0  0  0  0  0  0999 V2000
   34.6061    9.5198  -10.5526 C   0  0  0  0  0  0  0  0  0  0  0  0
   34.0708   10.5282   -9.7840 C   0  0  0  0  0  0  0  0  0  0  0  0
   32.8111   10.3634   -9.2717 C   0  0  0  0  0  0  0  0  0  0  0  0
   29.3236    8.4883   -7.1519 C   0  0  0  0  0  0  0  0  0  0  0  0
   28.2208    8.7672   -7.9303 C   0  0  0  0  0  0  0  0  0  0  0  0
   28.3651    9.1890   -9.2396 C   0  0  0  0  0  0  0  0  0  0  0  0
   29.6408    9.3245   -9.7495 C   0  0  0  0  0  0  0  0  0  0  0  0
   32.6031    8.1765  -10.2899 C   0  0  0  0  0  0  0  0  0  0  0  0
   33.8936    8.3695  -10.8026 C   0  0  0  0  0  0  0  0  0  0  0  0
   26.9606    8.6416   -7.4519 F   0  0  0  0  0  0  0  0  0  0  0  0
   30.5902    8.6265   -7.6696 C   0  0  0  0  0  0  0  0  0  0  0  0
   30.7450    9.0493   -8.9831 C   0  0  0  0  0  0  0  0  0  0  0  0
   32.0879    9.1888   -9.5295 C   0  0  0  0  0  0  0  0  0  0  0  0
   35.9395    9.6539  -11.1157 C   0  0  0  0  0  0  0  0  0  0  0  0
   36.4513    8.6201  -11.8715 O   0  0  0  0  0  0  0  0  0  0  0  0
   36.6280   10.6727  -10.9341 O   0  0  0  0  0  0  0  0  0  0  0  0
   31.7624    6.6836  -10.6334 S   0  0  2  0  0  6  0  0  0  0  0  0
   32.6083    5.6877  -11.3638 O   0  0  0  0  0  0  0  0  0  0  0  0
   30.5924    6.9666  -11.5761 O   0  0  0  0  0  0  0  0  0  0  0  0
  2  1  2  0
  9  1  1  0
  1 14  1  0
  3  2  1  0
 13  3  2  0
  4  5  2  0
 11  4  1  0
  6  5  1  0
  5 10  1  0
  7  6  2  0
 12  7  1  0
  8  9  2  0
 13  8  1  0
 17  8  1  6
 12 11  2  0
 12 13  1  0
 14 15  1  0
 14 16  2  0
 17 18  2  0
 17 19  2  0
M  END
$$$$
