
     RDKit          3D

 19 20  0  0  0  0  0  0  0  0999 V2000
   33.7173    6.7640  -14.8839 C   0  0  0  0  0  0  0  0  0  0  0  0
   33.7066    7.1305  -16.2081 C   0  0  0  0  0  0  0  0  0  0  0  0
   32.7285    7.9508  -16.7195 C   0  0  0  0  0  0  0  0  0  0  0  0
   29.9039   11.6041  -16.8334 C   0  0  0  0  0  0  0  0  0  0  0  0
   28.7596   11.1264  -17.4483 C   0  0  0  0  0  0  0  0  0  0  0  0
   28.5756    9.7724  -17.5566 C   0  0  0  0  0  0  0  0  0  0  0  0
   29.5203    8.8903  -17.0584 C   0  0  0  0  0  0  0  0  0  0  0  0
   31.7038    8.0858  -14.5872 C   0  0  0  0  0  0  0  0  0  0  0  0
   32.7108    7.2471  -14.0802 C   0  0  0  0  0  0  0  0  0  0  0  0
   27.8747   12.0369  -17.9143 F   0  0  0  0  0  0  0  0  0  0  0  0
   30.8214   10.7014  -16.3501 C   0  0  0  0  0  0  0  0  0  0  0  0
   30.6780    9.3241  -16.4370 C   0  0  0  0  0  0  0  0  0  0  0  0
   31.6995    8.4469  -15.9051 C   0  0  0  0  0  0  0  0  0  0  0  0
   34.7728    5.8886  -14.3661 C   0  0  0  0  0  0  0  0  0  0  0  0
   34.5963    5.2654  -13.1469 O   0  0  0  0  0  0  0  0  0  0  0  0
   35.8369    5.6804  -14.9883 O   0  0  0  0  0  0  0  0  0  0  0  0
   30.4354    8.6572  -13.5335 S   0  0  2  0  0  6  0  0  0  0  0  0
   30.9103    8.3730  -12.1060 O   0  0  0  0  0  0  0  0  0  0  0  0
   29.1513    7.9315  -13.7213 O   0  0  0  0  0  0  0  0  0  0  0  0
  2  1  2  0
  9  1  1  0
  1 14  1  0
  3  2  1  0
 13  3  2  0
  4  5  2  0
 11  4  1  0
  6  5  1  0
  5 10  1  0
  7  6  2  0
 12  7  1  0
  8  9  2  0
 13  8  1  0
 17  8  1  6
 12 11  2  0
 12 13  1  0
 14 15  1  0
 14 16  2  0
 17 18  2  0
 17 19  2  0
M  END
$$$$
