
     RDKit          3D

 19 20  0  0  0  0  0  0  0  0999 V2000
   33.1939    6.4416  -15.4459 C   0  0  0  0  0  0  0  0  0  0  0  0
   32.4166    6.2855  -16.5681 C   0  0  0  0  0  0  0  0  0  0  0  0
   31.7131    7.3367  -17.1077 C   0  0  0  0  0  0  0  0  0  0  0  0
   28.9341   10.9499  -17.3052 C   0  0  0  0  0  0  0  0  0  0  0  0
   29.5275   11.8636  -18.1589 C   0  0  0  0  0  0  0  0  0  0  0  0
   30.8511   11.7135  -18.4819 C   0  0  0  0  0  0  0  0  0  0  0  0
   31.5888   10.6623  -17.9626 C   0  0  0  0  0  0  0  0  0  0  0  0
   32.5330    8.7765  -15.4137 C   0  0  0  0  0  0  0  0  0  0  0  0
   33.2460    7.6921  -14.8750 C   0  0  0  0  0  0  0  0  0  0  0  0
   28.7554   12.8678  -18.6330 F   0  0  0  0  0  0  0  0  0  0  0  0
   29.6948    9.9185  -16.8076 C   0  0  0  0  0  0  0  0  0  0  0  0
   31.0362    9.7267  -17.1060 C   0  0  0  0  0  0  0  0  0  0  0  0
   31.7623    8.6144  -16.5304 C   0  0  0  0  0  0  0  0  0  0  0  0
   33.9333    5.3032  -14.8927 C   0  0  0  0  0  0  0  0  0  0  0  0
   34.8022    5.5091  -13.8399 O   0  0  0  0  0  0  0  0  0  0  0  0
   33.8090    4.1420  -15.3388 O   0  0  0  0  0  0  0  0  0  0  0  0
   32.6136   10.3399  -14.6424 S   0  0  2  0  0  6  0  0  0  0  0  0
   33.4283   11.2339  -15.5811 O   0  0  0  0  0  0  0  0  0  0  0  0
   33.3260   10.3095  -13.3376 O   0  0  0  0  0  0  0  0  0  0  0  0
  2  1  2  0
  9  1  1  0
  1 14  1  0
  3  2  1  0
 13  3  2  0
  4  5  2  0
 11  4  1  0
  6  5  1  0
  5 10  1  0
  7  6  2  0
 12  7  1  0
  8  9  2  0
 13  8  1  0
 17  8  1  6
 12 11  2  0
 12 13  1  0
 14 15  1  0
 14 16  2  0
 17 18  2  0
 17 19  2  0
M  END
$$$$
