
     RDKit          3D

 19 20  0  0  0  0  0  0  0  0999 V2000
   32.9941    6.6883  -14.9909 C   0  0  0  0  0  0  0  0  0  0  0  0
   32.5760    6.6720  -16.2997 C   0  0  0  0  0  0  0  0  0  0  0  0
   31.8546    7.7119  -16.8374 C   0  0  0  0  0  0  0  0  0  0  0  0
   28.6013   10.9285  -17.1488 C   0  0  0  0  0  0  0  0  0  0  0  0
   29.2194   12.0365  -17.7018 C   0  0  0  0  0  0  0  0  0  0  0  0
   30.5887   12.0966  -17.7221 C   0  0  0  0  0  0  0  0  0  0  0  0
   31.3476   11.0635  -17.1969 C   0  0  0  0  0  0  0  0  0  0  0  0
   31.9285    8.8568  -14.7640 C   0  0  0  0  0  0  0  0  0  0  0  0
   32.6653    7.7861  -14.2300 C   0  0  0  0  0  0  0  0  0  0  0  0
   28.4247   13.0119  -18.1982 F   0  0  0  0  0  0  0  0  0  0  0  0
   29.3841    9.9211  -16.6363 C   0  0  0  0  0  0  0  0  0  0  0  0
   30.7715    9.9381  -16.6347 C   0  0  0  0  0  0  0  0  0  0  0  0
   31.5163    8.8343  -16.0667 C   0  0  0  0  0  0  0  0  0  0  0  0
   33.7622    5.5657  -14.4446 C   0  0  0  0  0  0  0  0  0  0  0  0
   33.6863    4.3321  -15.0596 O   0  0  0  0  0  0  0  0  0  0  0  0
   34.4904    5.6796  -13.4348 O   0  0  0  0  0  0  0  0  0  0  0  0
   31.5171   10.2192  -13.7539 S   0  0  2  0  0  6  0  0  0  0  0  0
   32.4272   11.3670  -14.1994 O   0  0  0  0  0  0  0  0  0  0  0  0
   31.7889    9.9782  -12.3121 O   0  0  0  0  0  0  0  0  0  0  0  0
  2  1  2  0
  9  1  1  0
  1 14  1  0
  3  2  1  0
 13  3  2  0
  4  5  2  0
 11  4  1  0
  6  5  1  0
  5 10  1  0
  7  6  2  0
 12  7  1  0
  8  9  2  0
 13  8  1  0
 17  8  1  6
 12 11  2  0
 12 13  1  0
 14 15  1  0
 14 16  2  0
 17 18  2  0
 17 19  2  0
M  END
$$$$
