
     RDKit          3D

 19 20  0  0  0  0  0  0  0  0999 V2000
   30.5506    6.4121  -13.0266 C   0  0  0  0  0  0  0  0  0  0  0  0
   29.5409    7.3317  -12.8760 C   0  0  0  0  0  0  0  0  0  0  0  0
   29.3911    8.3848  -13.7476 C   0  0  0  0  0  0  0  0  0  0  0  0
   28.9834   10.5527  -17.7337 C   0  0  0  0  0  0  0  0  0  0  0  0
   29.6902   11.7371  -17.6187 C   0  0  0  0  0  0  0  0  0  0  0  0
   30.5875   11.8823  -16.5927 C   0  0  0  0  0  0  0  0  0  0  0  0
   30.7871   10.8590  -15.6806 C   0  0  0  0  0  0  0  0  0  0  0  0
   31.2745    7.6505  -14.9841 C   0  0  0  0  0  0  0  0  0  0  0  0
   31.4135    6.5799  -14.0847 C   0  0  0  0  0  0  0  0  0  0  0  0
   29.4515   12.6985  -18.5396 F   0  0  0  0  0  0  0  0  0  0  0  0
   29.2054    9.5575  -16.8116 C   0  0  0  0  0  0  0  0  0  0  0  0
   30.1022    9.6591  -15.7577 C   0  0  0  0  0  0  0  0  0  0  0  0
   30.2675    8.5612  -14.8288 C   0  0  0  0  0  0  0  0  0  0  0  0
   30.6859    5.2992  -12.0822 C   0  0  0  0  0  0  0  0  0  0  0  0
   29.8371    5.2279  -10.9959 O   0  0  0  0  0  0  0  0  0  0  0  0
   31.5464    4.4030  -12.2207 O   0  0  0  0  0  0  0  0  0  0  0  0
   32.4063    7.8340  -16.2998 S   0  0  2  0  0  6  0  0  0  0  0  0
   33.2911    6.5848  -16.2747 O   0  0  0  0  0  0  0  0  0  0  0  0
   33.3022    9.0095  -16.1376 O   0  0  0  0  0  0  0  0  0  0  0  0
  2  1  2  0
  9  1  1  0
  1 14  1  0
  3  2  1  0
 13  3  2  0
  4  5  2  0
 11  4  1  0
  6  5  1  0
  5 10  1  0
  7  6  2  0
 12  7  1  0
  8  9  2  0
 13  8  1  0
 17  8  1  1
 12 11  2  0
 12 13  1  0
 14 15  1  0
 14 16  2  0
 17 18  2  0
 17 19  2  0
M  END
$$$$
