
     RDKit          3D

 19 20  0  0  0  0  0  0  0  0999 V2000
   34.4995   10.4974  -10.8311 C   0  0  0  0  0  0  0  0  0  0  0  0
   33.6923   11.5014  -10.3467 C   0  0  0  0  0  0  0  0  0  0  0  0
   32.4710   11.1660   -9.8250 C   0  0  0  0  0  0  0  0  0  0  0  0
   28.4659    8.9075   -9.5976 C   0  0  0  0  0  0  0  0  0  0  0  0
   28.2617    8.8982   -8.2346 C   0  0  0  0  0  0  0  0  0  0  0  0
   29.2936    9.1891   -7.3607 C   0  0  0  0  0  0  0  0  0  0  0  0
   30.5345    9.4895   -7.8860 C   0  0  0  0  0  0  0  0  0  0  0  0
   32.8465    8.8147  -10.2645 C   0  0  0  0  0  0  0  0  0  0  0  0
   34.0912    9.1840  -10.7934 C   0  0  0  0  0  0  0  0  0  0  0  0
   27.0540    8.6067   -7.6968 F   0  0  0  0  0  0  0  0  0  0  0  0
   29.7061    9.2081  -10.1107 C   0  0  0  0  0  0  0  0  0  0  0  0
   30.7481    9.5016   -9.2413 C   0  0  0  0  0  0  0  0  0  0  0  0
   32.0585    9.8252   -9.7887 C   0  0  0  0  0  0  0  0  0  0  0  0
   35.8031   10.8096  -11.3934 C   0  0  0  0  0  0  0  0  0  0  0  0
   36.6599    9.7750  -11.7054 O   0  0  0  0  0  0  0  0  0  0  0  0
   36.1643   11.9810  -11.5997 O   0  0  0  0  0  0  0  0  0  0  0  0
   32.3994    7.1257  -10.2329 S   0  0  2  0  0  6  0  0  0  0  0  0
   32.9895    6.3406  -11.3626 O   0  0  0  0  0  0  0  0  0  0  0  0
   30.8872    6.9986  -10.4183 O   0  0  0  0  0  0  0  0  0  0  0  0
  2  1  2  0
  9  1  1  0
  1 14  1  0
  3  2  1  0
 13  3  2  0
  4  5  2  0
 11  4  1  0
  6  5  1  0
  5 10  1  0
  7  6  2  0
 12  7  1  0
  8  9  2  0
 13  8  1  0
 17  8  1  6
 12 11  2  0
 12 13  1  0
 14 15  1  0
 14 16  2  0
 17 18  2  0
 17 19  2  0
M  END
$$$$
