
     RDKit          3D

 19 20  0  0  0  0  0  0  0  0999 V2000
   32.9361    6.4699  -15.1702 C   0  0  0  0  0  0  0  0  0  0  0  0
   31.9551    6.2749  -16.1123 C   0  0  0  0  0  0  0  0  0  0  0  0
   31.2486    7.3283  -16.6438 C   0  0  0  0  0  0  0  0  0  0  0  0
   28.9925   11.4117  -16.5745 C   0  0  0  0  0  0  0  0  0  0  0  0
   29.2913   11.9380  -17.8192 C   0  0  0  0  0  0  0  0  0  0  0  0
   30.3123   11.3872  -18.5494 C   0  0  0  0  0  0  0  0  0  0  0  0
   31.0379   10.3175  -18.0514 C   0  0  0  0  0  0  0  0  0  0  0  0
   32.4779    8.8492  -15.3056 C   0  0  0  0  0  0  0  0  0  0  0  0
   33.1908    7.7619  -14.7726 C   0  0  0  0  0  0  0  0  0  0  0  0
   28.5474   12.9819  -18.2506 F   0  0  0  0  0  0  0  0  0  0  0  0
   29.7323   10.3500  -16.1100 C   0  0  0  0  0  0  0  0  0  0  0  0
   30.7735    9.7605  -16.8127 C   0  0  0  0  0  0  0  0  0  0  0  0
   31.5038    8.6482  -16.2426 C   0  0  0  0  0  0  0  0  0  0  0  0
   33.6734    5.3281  -14.6212 C   0  0  0  0  0  0  0  0  0  0  0  0
   34.4610    5.5074  -13.5017 O   0  0  0  0  0  0  0  0  0  0  0  0
   33.6183    4.1871  -15.1293 O   0  0  0  0  0  0  0  0  0  0  0  0
   32.8221   10.4690  -14.7549 S   0  0  2  0  0  6  0  0  0  0  0  0
   34.1672   10.3924  -14.0276 O   0  0  0  0  0  0  0  0  0  0  0  0
   31.8232   10.9764  -13.7774 O   0  0  0  0  0  0  0  0  0  0  0  0
  2  1  2  0
  9  1  1  0
  1 14  1  0
  3  2  1  0
 13  3  2  0
  4  5  2  0
 11  4  1  0
  6  5  1  0
  5 10  1  0
  7  6  2  0
 12  7  1  0
  8  9  2  0
 13  8  1  0
 17  8  1  1
 12 11  2  0
 12 13  1  0
 14 15  1  0
 14 16  2  0
 17 18  2  0
 17 19  2  0
M  END
$$$$
