
     RDKit          3D

 19 20  0  0  0  0  0  0  0  0999 V2000
   34.8093   11.9462  -14.9688 C   0  0  0  0  0  0  0  0  0  0  0  0
   34.2790   12.8686  -15.8417 C   0  0  0  0  0  0  0  0  0  0  0  0
   33.0737   12.5946  -16.4321 C   0  0  0  0  0  0  0  0  0  0  0  0
   28.7745   11.4939  -16.9432 C   0  0  0  0  0  0  0  0  0  0  0  0
   28.7096   10.6281  -18.0137 C   0  0  0  0  0  0  0  0  0  0  0  0
   29.8478   10.0034  -18.4907 C   0  0  0  0  0  0  0  0  0  0  0  0
   31.0518   10.2675  -17.8691 C   0  0  0  0  0  0  0  0  0  0  0  0
   32.9106   10.4693  -15.2835 C   0  0  0  0  0  0  0  0  0  0  0  0
   34.1452   10.7732  -14.6928 C   0  0  0  0  0  0  0  0  0  0  0  0
   27.5405   10.3541  -18.6388 F   0  0  0  0  0  0  0  0  0  0  0  0
   29.9791   11.7501  -16.3309 C   0  0  0  0  0  0  0  0  0  0  0  0
   31.1271   11.1276  -16.8027 C   0  0  0  0  0  0  0  0  0  0  0  0
   32.3999   11.3969  -16.1480 C   0  0  0  0  0  0  0  0  0  0  0  0
   36.0860   12.1972  -14.3207 C   0  0  0  0  0  0  0  0  0  0  0  0
   36.6198   11.2257  -13.5001 O   0  0  0  0  0  0  0  0  0  0  0  0
   36.7071   13.2611  -14.4864 O   0  0  0  0  0  0  0  0  0  0  0  0
   32.1146    8.9684  -14.8745 S   0  0  2  0  0  6  0  0  0  0  0  0
   32.8301    8.1949  -13.8111 O   0  0  0  0  0  0  0  0  0  0  0  0
   32.1150    8.0463  -16.0939 O   0  0  0  0  0  0  0  0  0  0  0  0
  2  1  2  0
  9  1  1  0
  1 14  1  0
  3  2  1  0
 13  3  2  0
  4  5  2  0
 11  4  1  0
  6  5  1  0
  5 10  1  0
  7  6  2  0
 12  7  1  0
  8  9  2  0
 13  8  1  0
 17  8  1  6
 12 11  2  0
 12 13  1  0
 14 15  1  0
 14 16  2  0
 17 18  2  0
 17 19  2  0
M  END
$$$$
