
     RDKit          3D

 19 20  0  0  0  0  0  0  0  0999 V2000
   32.8200    5.4474  -14.2484 C   0  0  0  0  0  0  0  0  0  0  0  0
   31.5501    4.9866  -13.9977 C   0  0  0  0  0  0  0  0  0  0  0  0
   30.5561    5.8246  -13.5496 C   0  0  0  0  0  0  0  0  0  0  0  0
   28.3852    8.8925  -11.0260 C   0  0  0  0  0  0  0  0  0  0  0  0
   27.7328    9.7700  -11.8744 C   0  0  0  0  0  0  0  0  0  0  0  0
   28.0824    9.8018  -13.1995 C   0  0  0  0  0  0  0  0  0  0  0  0
   29.0754    8.9680  -13.6869 C   0  0  0  0  0  0  0  0  0  0  0  0
   32.0629    7.6532  -13.5770 C   0  0  0  0  0  0  0  0  0  0  0  0
   33.0673    6.7837  -14.0349 C   0  0  0  0  0  0  0  0  0  0  0  0
   26.7727   10.5582  -11.3394 F   0  0  0  0  0  0  0  0  0  0  0  0
   29.3660    8.0789  -11.5421 C   0  0  0  0  0  0  0  0  0  0  0  0
   29.7532    8.0762  -12.8746 C   0  0  0  0  0  0  0  0  0  0  0  0
   30.8018    7.1883  -13.3302 C   0  0  0  0  0  0  0  0  0  0  0  0
   33.8598    4.5312  -14.7259 C   0  0  0  0  0  0  0  0  0  0  0  0
   35.1747    4.9512  -14.7427 O   0  0  0  0  0  0  0  0  0  0  0  0
   33.6033    3.3738  -15.1226 O   0  0  0  0  0  0  0  0  0  0  0  0
   32.4295    9.3369  -13.3008 S   0  0  2  0  0  6  0  0  0  0  0  0
   33.7078    9.6275  -14.0917 O   0  0  0  0  0  0  0  0  0  0  0  0
   32.7166    9.6441  -11.8746 O   0  0  0  0  0  0  0  0  0  0  0  0
  2  1  2  0
  9  1  1  0
  1 14  1  0
  3  2  1  0
 13  3  2  0
  4  5  2  0
 11  4  1  0
  6  5  1  0
  5 10  1  0
  7  6  2  0
 12  7  1  0
  8  9  2  0
 13  8  1  0
 17  8  1  1
 12 11  2  0
 12 13  1  0
 14 15  1  0
 14 16  2  0
 17 18  2  0
 17 19  2  0
M  END
$$$$
