
     RDKit          3D

 19 20  0  0  0  0  0  0  0  0999 V2000
   31.4723    5.6506  -14.7640 C   0  0  0  0  0  0  0  0  0  0  0  0
   30.1307    5.8900  -14.9564 C   0  0  0  0  0  0  0  0  0  0  0  0
   29.7546    7.0540  -15.5728 C   0  0  0  0  0  0  0  0  0  0  0  0
   29.3970   10.3325  -18.5429 C   0  0  0  0  0  0  0  0  0  0  0  0
   29.4784   11.5323  -17.8695 C   0  0  0  0  0  0  0  0  0  0  0  0
   29.9647   11.5881  -16.5758 C   0  0  0  0  0  0  0  0  0  0  0  0
   30.3671   10.4127  -15.9739 C   0  0  0  0  0  0  0  0  0  0  0  0
   32.0588    7.7572  -15.8144 C   0  0  0  0  0  0  0  0  0  0  0  0
   32.4178    6.5591  -15.1810 C   0  0  0  0  0  0  0  0  0  0  0  0
   29.0898   12.6972  -18.4393 F   0  0  0  0  0  0  0  0  0  0  0  0
   29.8007    9.1672  -17.9340 C   0  0  0  0  0  0  0  0  0  0  0  0
   30.2903    9.2132  -16.6356 C   0  0  0  0  0  0  0  0  0  0  0  0
   30.7222    7.9778  -15.9964 C   0  0  0  0  0  0  0  0  0  0  0  0
   31.9148    4.4281  -14.1138 C   0  0  0  0  0  0  0  0  0  0  0  0
   30.9711    3.5866  -13.5630 O   0  0  0  0  0  0  0  0  0  0  0  0
   33.1175    4.1226  -14.0417 O   0  0  0  0  0  0  0  0  0  0  0  0
   33.3131    8.8579  -16.3331 S   0  0  2  0  0  6  0  0  0  0  0  0
   34.6702    8.2271  -16.3688 O   0  0  0  0  0  0  0  0  0  0  0  0
   33.4390    9.9959  -15.3200 O   0  0  0  0  0  0  0  0  0  0  0  0
  2  1  2  0
  9  1  1  0
  1 14  1  0
  3  2  1  0
 13  3  2  0
  4  5  2  0
 11  4  1  0
  6  5  1  0
  5 10  1  0
  7  6  2  0
 12  7  1  0
  8  9  2  0
 13  8  1  0
 17  8  1  1
 12 11  2  0
 12 13  1  0
 14 15  1  0
 14 16  2  0
 17 18  2  0
 17 19  2  0
M  END
$$$$
