
     RDKit          3D

 19 20  0  0  0  0  0  0  0  0999 V2000
   32.2185   12.1667  -15.6118 C   0  0  0  0  0  0  0  0  0  0  0  0
   30.8953   11.9243  -15.9026 C   0  0  0  0  0  0  0  0  0  0  0  0
   30.1700   11.1376  -15.0475 C   0  0  0  0  0  0  0  0  0  0  0  0
   29.2176    7.5758  -12.3962 C   0  0  0  0  0  0  0  0  0  0  0  0
   28.4787    8.1331  -11.3748 C   0  0  0  0  0  0  0  0  0  0  0  0
   28.4792    9.4999  -11.1630 C   0  0  0  0  0  0  0  0  0  0  0  0
   29.2378   10.2942  -11.9994 C   0  0  0  0  0  0  0  0  0  0  0  0
   32.0824   10.8241  -13.5960 C   0  0  0  0  0  0  0  0  0  0  0  0
   32.8029   11.6319  -14.4869 C   0  0  0  0  0  0  0  0  0  0  0  0
   27.7276    7.3743  -10.5424 F   0  0  0  0  0  0  0  0  0  0  0  0
   29.9700    8.3761  -13.2239 C   0  0  0  0  0  0  0  0  0  0  0  0
   29.9766    9.7493  -13.0191 C   0  0  0  0  0  0  0  0  0  0  0  0
   30.7701   10.5940  -13.9014 C   0  0  0  0  0  0  0  0  0  0  0  0
   33.0245   12.9959  -16.4927 C   0  0  0  0  0  0  0  0  0  0  0  0
   34.3345   13.2565  -16.1494 O   0  0  0  0  0  0  0  0  0  0  0  0
   32.5650   13.4745  -17.5439 O   0  0  0  0  0  0  0  0  0  0  0  0
   32.8837   10.1917  -12.1776 S   0  0  2  0  0  6  0  0  0  0  0  0
   34.3701   10.1045  -12.3326 O   0  0  0  0  0  0  0  0  0  0  0  0
   32.4316    8.7506  -11.9408 O   0  0  0  0  0  0  0  0  0  0  0  0
  2  1  2  0
  9  1  1  0
  1 14  1  0
  3  2  1  0
 13  3  2  0
  4  5  2  0
 11  4  1  0
  6  5  1  0
  5 10  1  0
  7  6  2  0
 12  7  1  0
  8  9  2  0
 13  8  1  0
 17  8  1  6
 12 11  2  0
 12 13  1  0
 14 15  1  0
 14 16  2  0
 17 18  2  0
 17 19  2  0
M  END
$$$$
