
     RDKit          3D

 19 20  0  0  0  0  0  0  0  0999 V2000
   33.3436    6.7095  -15.0047 C   0  0  0  0  0  0  0  0  0  0  0  0
   33.2829    6.9329  -16.3614 C   0  0  0  0  0  0  0  0  0  0  0  0
   32.4903    7.9502  -16.8231 C   0  0  0  0  0  0  0  0  0  0  0  0
   29.0500   10.4837  -17.7750 C   0  0  0  0  0  0  0  0  0  0  0  0
   29.3085   11.7997  -17.4573 C   0  0  0  0  0  0  0  0  0  0  0  0
   30.3682   12.1358  -16.6344 C   0  0  0  0  0  0  0  0  0  0  0  0
   31.1621   11.1213  -16.1381 C   0  0  0  0  0  0  0  0  0  0  0  0
   31.8069    8.5369  -14.5756 C   0  0  0  0  0  0  0  0  0  0  0  0
   32.6249    7.4898  -14.1285 C   0  0  0  0  0  0  0  0  0  0  0  0
   28.5438   12.8110  -17.9321 F   0  0  0  0  0  0  0  0  0  0  0  0
   29.8471    9.4805  -17.2753 C   0  0  0  0  0  0  0  0  0  0  0  0
   30.9134    9.8081  -16.4485 C   0  0  0  0  0  0  0  0  0  0  0  0
   31.7588    8.7434  -15.9260 C   0  0  0  0  0  0  0  0  0  0  0  0
   34.1722    5.6402  -14.4724 C   0  0  0  0  0  0  0  0  0  0  0  0
   34.5148    5.6640  -13.1368 O   0  0  0  0  0  0  0  0  0  0  0  0
   34.5785    4.7082  -15.1876 O   0  0  0  0  0  0  0  0  0  0  0  0
   30.9350    9.4985  -13.4057 S   0  0  2  0  0  6  0  0  0  0  0  0
   31.7062   10.6919  -12.9346 O   0  0  0  0  0  0  0  0  0  0  0  0
   30.6949    8.6675  -12.1451 O   0  0  0  0  0  0  0  0  0  0  0  0
  2  1  2  0
  9  1  1  0
  1 14  1  0
  3  2  1  0
 13  3  2  0
  4  5  2  0
 11  4  1  0
  6  5  1  0
  5 10  1  0
  7  6  2  0
 12  7  1  0
  8  9  2  0
 13  8  1  0
 17  8  1  6
 12 11  2  0
 12 13  1  0
 14 15  1  0
 14 16  2  0
 17 18  2  0
 17 19  2  0
M  END
$$$$
