
     RDKit          3D

 19 20  0  0  0  0  0  0  0  0999 V2000
   32.7116   11.3750  -15.6646 C   0  0  0  0  0  0  0  0  0  0  0  0
   31.5450   12.1003  -15.7489 C   0  0  0  0  0  0  0  0  0  0  0  0
   30.3982   11.5593  -15.2308 C   0  0  0  0  0  0  0  0  0  0  0  0
   27.6437    9.5085  -12.2912 C   0  0  0  0  0  0  0  0  0  0  0  0
   26.8535    8.6943  -13.0739 C   0  0  0  0  0  0  0  0  0  0  0  0
   27.2154    8.3923  -14.3743 C   0  0  0  0  0  0  0  0  0  0  0  0
   28.3878    8.9260  -14.8709 C   0  0  0  0  0  0  0  0  0  0  0  0
   31.5690    9.5573  -14.5351 C   0  0  0  0  0  0  0  0  0  0  0  0
   32.7287   10.1329  -15.0729 C   0  0  0  0  0  0  0  0  0  0  0  0
   25.7000    8.1599  -12.6085 F   0  0  0  0  0  0  0  0  0  0  0  0
   28.8099   10.0349  -12.7956 C   0  0  0  0  0  0  0  0  0  0  0  0
   29.1814    9.7373  -14.0999 C   0  0  0  0  0  0  0  0  0  0  0  0
   30.4201   10.2921  -14.6285 C   0  0  0  0  0  0  0  0  0  0  0  0
   33.9511   11.9118  -16.2018 C   0  0  0  0  0  0  0  0  0  0  0  0
   33.9305   13.1424  -16.8240 O   0  0  0  0  0  0  0  0  0  0  0  0
   35.0253   11.2925  -16.1152 O   0  0  0  0  0  0  0  0  0  0  0  0
   31.6668    7.9830  -13.7831 S   0  0  2  0  0  6  0  0  0  0  0  0
   31.8835    8.0512  -12.3035 O   0  0  0  0  0  0  0  0  0  0  0  0
   32.8892    7.2395  -14.3219 O   0  0  0  0  0  0  0  0  0  0  0  0
  2  1  2  0
  9  1  1  0
  1 14  1  0
  3  2  1  0
 13  3  2  0
  4  5  2  0
 11  4  1  0
  6  5  1  0
  5 10  1  0
  7  6  2  0
 12  7  1  0
  8  9  2  0
 13  8  1  0
 17  8  1  6
 12 11  2  0
 12 13  1  0
 14 15  1  0
 14 16  2  0
 17 18  2  0
 17 19  2  0
M  END
$$$$
