
     RDKit          3D

 19 20  0  0  0  0  0  0  0  0999 V2000
   32.7365    5.7422  -13.5239 C   0  0  0  0  0  0  0  0  0  0  0  0
   31.4027    5.4506  -13.6786 C   0  0  0  0  0  0  0  0  0  0  0  0
   30.4235    6.2640  -13.1584 C   0  0  0  0  0  0  0  0  0  0  0  0
   28.3960   10.3300  -12.1496 C   0  0  0  0  0  0  0  0  0  0  0  0
   27.7252   10.0502  -10.9717 C   0  0  0  0  0  0  0  0  0  0  0  0
   28.0451    8.9139  -10.2749 C   0  0  0  0  0  0  0  0  0  0  0  0
   29.0266    8.0543  -10.7403 C   0  0  0  0  0  0  0  0  0  0  0  0
   32.0752    7.7235  -12.2885 C   0  0  0  0  0  0  0  0  0  0  0  0
   33.0635    6.8820  -12.8266 C   0  0  0  0  0  0  0  0  0  0  0  0
   26.7777   10.9274  -10.5693 F   0  0  0  0  0  0  0  0  0  0  0  0
   29.3645    9.4558  -12.5833 C   0  0  0  0  0  0  0  0  0  0  0  0
   29.7216    8.2949  -11.9123 C   0  0  0  0  0  0  0  0  0  0  0  0
   30.7504    7.4278  -12.4466 C   0  0  0  0  0  0  0  0  0  0  0  0
   33.7587    4.8570  -14.0896 C   0  0  0  0  0  0  0  0  0  0  0  0
   35.0890    5.2133  -13.9941 O   0  0  0  0  0  0  0  0  0  0  0  0
   33.4737    3.7821  -14.6608 O   0  0  0  0  0  0  0  0  0  0  0  0
   32.5388    9.1481  -11.3934 S   0  0  2  0  0  6  0  0  0  0  0  0
   32.4540   10.3152  -12.3807 O   0  0  0  0  0  0  0  0  0  0  0  0
   33.9395    9.0940  -10.8974 O   0  0  0  0  0  0  0  0  0  0  0  0
  2  1  2  0
  9  1  1  0
  1 14  1  0
  3  2  1  0
 13  3  2  0
  4  5  2  0
 11  4  1  0
  6  5  1  0
  5 10  1  0
  7  6  2  0
 12  7  1  0
  8  9  2  0
 13  8  1  0
 17  8  1  6
 12 11  2  0
 12 13  1  0
 14 15  1  0
 14 16  2  0
 17 18  2  0
 17 19  2  0
M  END
$$$$
