
     RDKit          3D

 19 20  0  0  0  0  0  0  0  0999 V2000
   32.6319    4.8288  -14.4305 C   0  0  0  0  0  0  0  0  0  0  0  0
   31.5582    4.2982  -13.7524 C   0  0  0  0  0  0  0  0  0  0  0  0
   30.6486    5.1555  -13.1919 C   0  0  0  0  0  0  0  0  0  0  0  0
   29.1314    8.7020  -10.8021 C   0  0  0  0  0  0  0  0  0  0  0  0
   28.0062    9.0941  -11.4948 C   0  0  0  0  0  0  0  0  0  0  0  0
   27.7834    8.6612  -12.7894 C   0  0  0  0  0  0  0  0  0  0  0  0
   28.7153    7.8261  -13.3725 C   0  0  0  0  0  0  0  0  0  0  0  0
   31.8742    7.0890  -13.9808 C   0  0  0  0  0  0  0  0  0  0  0  0
   32.7908    6.1907  -14.5449 C   0  0  0  0  0  0  0  0  0  0  0  0
   27.0789    9.9122  -10.9436 F   0  0  0  0  0  0  0  0  0  0  0  0
   30.0537    7.8697  -11.3922 C   0  0  0  0  0  0  0  0  0  0  0  0
   29.8386    7.4298  -12.6915 C   0  0  0  0  0  0  0  0  0  0  0  0
   30.8147    6.5439  -13.3109 C   0  0  0  0  0  0  0  0  0  0  0  0
   33.6206    3.9548  -15.0401 C   0  0  0  0  0  0  0  0  0  0  0  0
   33.4435    2.5894  -14.9600 O   0  0  0  0  0  0  0  0  0  0  0  0
   34.6182    4.4046  -15.6297 O   0  0  0  0  0  0  0  0  0  0  0  0
   32.1291    8.8064  -14.1793 S   0  0  2  0  0  6  0  0  0  0  0  0
   33.5466    9.1553  -14.5108 O   0  0  0  0  0  0  0  0  0  0  0  0
   31.8531    9.5159  -12.8536 O   0  0  0  0  0  0  0  0  0  0  0  0
  2  1  2  0
  9  1  1  0
  1 14  1  0
  3  2  1  0
 13  3  2  0
  4  5  2  0
 11  4  1  0
  6  5  1  0
  5 10  1  0
  7  6  2  0
 12  7  1  0
  8  9  2  0
 13  8  1  0
 17  8  1  1
 12 11  2  0
 12 13  1  0
 14 15  1  0
 14 16  2  0
 17 18  2  0
 17 19  2  0
M  END
$$$$
