
     RDKit          3D

 19 20  0  0  0  0  0  0  0  0999 V2000
   31.9685    5.5415  -13.2348 C   0  0  0  0  0  0  0  0  0  0  0  0
   30.9533    4.9293  -12.5357 C   0  0  0  0  0  0  0  0  0  0  0  0
   30.2517    5.6667  -11.6189 C   0  0  0  0  0  0  0  0  0  0  0  0
   29.6071    8.5953   -8.1821 C   0  0  0  0  0  0  0  0  0  0  0  0
   28.4036    9.1786   -8.5154 C   0  0  0  0  0  0  0  0  0  0  0  0
   27.8912    9.0660   -9.7953 C   0  0  0  0  0  0  0  0  0  0  0  0
   28.6140    8.3550  -10.7323 C   0  0  0  0  0  0  0  0  0  0  0  0
   31.5715    7.6418  -12.0876 C   0  0  0  0  0  0  0  0  0  0  0  0
   32.2744    6.8656  -13.0198 C   0  0  0  0  0  0  0  0  0  0  0  0
   27.6776    9.8803   -7.6136 F   0  0  0  0  0  0  0  0  0  0  0  0
   30.3193    7.8890   -9.1231 C   0  0  0  0  0  0  0  0  0  0  0  0
   29.8129    7.7705  -10.4105 C   0  0  0  0  0  0  0  0  0  0  0  0
   30.5672    7.0168  -11.4026 C   0  0  0  0  0  0  0  0  0  0  0  0
   32.7382    4.7956  -14.2168 C   0  0  0  0  0  0  0  0  0  0  0  0
   32.4589    3.4585  -14.4072 O   0  0  0  0  0  0  0  0  0  0  0  0
   33.6384    5.3298  -14.8870 O   0  0  0  0  0  0  0  0  0  0  0  0
   32.0025    9.3222  -11.8777 S   0  0  2  0  0  6  0  0  0  0  0  0
   33.0211    9.7954  -12.8673 O   0  0  0  0  0  0  0  0  0  0  0  0
   32.6686    9.5077  -10.5142 O   0  0  0  0  0  0  0  0  0  0  0  0
  2  1  2  0
  9  1  1  0
  1 14  1  0
  3  2  1  0
 13  3  2  0
  4  5  2  0
 11  4  1  0
  6  5  1  0
  5 10  1  0
  7  6  2  0
 12  7  1  0
  8  9  2  0
 13  8  1  0
 17  8  1  6
 12 11  2  0
 12 13  1  0
 14 15  1  0
 14 16  2  0
 17 18  2  0
 17 19  2  0
M  END
$$$$
