
     RDKit          3D

 19 20  0  0  0  0  0  0  0  0999 V2000
   33.0263   10.7277  -15.0569 C   0  0  0  0  0  0  0  0  0  0  0  0
   31.9333   11.4849  -15.4029 C   0  0  0  0  0  0  0  0  0  0  0  0
   30.6513   11.0520  -15.1572 C   0  0  0  0  0  0  0  0  0  0  0  0
   27.0867    8.1479  -15.0240 C   0  0  0  0  0  0  0  0  0  0  0  0
   26.4387    8.4242  -13.8327 C   0  0  0  0  0  0  0  0  0  0  0  0
   27.0883    9.1572  -12.8737 C   0  0  0  0  0  0  0  0  0  0  0  0
   28.3768    9.6173  -13.0904 C   0  0  0  0  0  0  0  0  0  0  0  0
   31.4921    9.0566  -14.1948 C   0  0  0  0  0  0  0  0  0  0  0  0
   32.7957    9.5136  -14.4526 C   0  0  0  0  0  0  0  0  0  0  0  0
   25.1820    7.9478  -13.6804 F   0  0  0  0  0  0  0  0  0  0  0  0
   28.3652    8.6194  -15.2067 C   0  0  0  0  0  0  0  0  0  0  0  0
   29.0616    9.3643  -14.2658 C   0  0  0  0  0  0  0  0  0  0  0  0
   30.4095    9.8151  -14.5410 C   0  0  0  0  0  0  0  0  0  0  0  0
   34.3815   11.2145  -15.3307 C   0  0  0  0  0  0  0  0  0  0  0  0
   35.4508   10.3532  -15.1875 O   0  0  0  0  0  0  0  0  0  0  0  0
   34.6121   12.3889  -15.6921 O   0  0  0  0  0  0  0  0  0  0  0  0
   31.2486    7.4998  -13.4446 S   0  0  2  0  0  6  0  0  0  0  0  0
   32.5685    7.1527  -12.7507 O   0  0  0  0  0  0  0  0  0  0  0  0
   30.9710    6.4176  -14.4257 O   0  0  0  0  0  0  0  0  0  0  0  0
  2  1  2  0
  9  1  1  0
  1 14  1  0
  3  2  1  0
 13  3  2  0
  4  5  2  0
 11  4  1  0
  6  5  1  0
  5 10  1  0
  7  6  2  0
 12  7  1  0
  8  9  2  0
 13  8  1  0
 17  8  1  6
 12 11  2  0
 12 13  1  0
 14 15  1  0
 14 16  2  0
 17 18  2  0
 17 19  2  0
M  END
$$$$
