
     RDKit          3D

 19 20  0  0  0  0  0  0  0  0999 V2000
   34.1367    8.8358  -14.0223 C   0  0  0  0  0  0  0  0  0  0  0  0
   33.9589   10.2005  -14.0104 C   0  0  0  0  0  0  0  0  0  0  0  0
   32.8995   10.7293  -14.6992 C   0  0  0  0  0  0  0  0  0  0  0  0
   28.6019   11.0758  -16.2408 C   0  0  0  0  0  0  0  0  0  0  0  0
   28.7976   11.5891  -17.5049 C   0  0  0  0  0  0  0  0  0  0  0  0
   30.0468   11.5570  -18.0979 C   0  0  0  0  0  0  0  0  0  0  0  0
   31.0944   10.9982  -17.3935 C   0  0  0  0  0  0  0  0  0  0  0  0
   32.1789    8.5338  -15.4226 C   0  0  0  0  0  0  0  0  0  0  0  0
   33.2705    8.0176  -14.7103 C   0  0  0  0  0  0  0  0  0  0  0  0
   27.7857   12.1416  -18.2144 F   0  0  0  0  0  0  0  0  0  0  0  0
   29.6524   10.5213  -15.5476 C   0  0  0  0  0  0  0  0  0  0  0  0
   30.9100   10.4845  -16.1347 C   0  0  0  0  0  0  0  0  0  0  0  0
   32.0186    9.8911  -15.3997 C   0  0  0  0  0  0  0  0  0  0  0  0
   35.2481    8.2333  -13.3047 C   0  0  0  0  0  0  0  0  0  0  0  0
   36.1513    9.0546  -12.6631 O   0  0  0  0  0  0  0  0  0  0  0  0
   35.4050    7.0012  -13.2547 O   0  0  0  0  0  0  0  0  0  0  0  0
   31.1091    7.4349  -16.2602 S   0  0  2  0  0  6  0  0  0  0  0  0
   29.7541    7.3404  -15.6310 O   0  0  0  0  0  0  0  0  0  0  0  0
   31.6755    6.0171  -16.1801 O   0  0  0  0  0  0  0  0  0  0  0  0
  2  1  2  0
  9  1  1  0
  1 14  1  0
  3  2  1  0
 13  3  2  0
  4  5  2  0
 11  4  1  0
  6  5  1  0
  5 10  1  0
  7  6  2  0
 12  7  1  0
  8  9  2  0
 13  8  1  0
 17  8  1  1
 12 11  2  0
 12 13  1  0
 14 15  1  0
 14 16  2  0
 17 18  2  0
 17 19  2  0
M  END
$$$$
