
     RDKit          3D

 19 20  0  0  0  0  0  0  0  0999 V2000
   34.3860    8.9553  -10.7818 C   0  0  0  0  0  0  0  0  0  0  0  0
   34.1721    9.5711   -9.5696 C   0  0  0  0  0  0  0  0  0  0  0  0
   32.9124    9.5406   -9.0325 C   0  0  0  0  0  0  0  0  0  0  0  0
   28.4118    9.9407   -8.8447 C   0  0  0  0  0  0  0  0  0  0  0  0
   28.0197    8.9156   -8.0109 C   0  0  0  0  0  0  0  0  0  0  0  0
   28.8767    7.8691   -7.7219 C   0  0  0  0  0  0  0  0  0  0  0  0
   30.1355    7.8750   -8.2886 C   0  0  0  0  0  0  0  0  0  0  0  0
   32.0608    8.2761  -10.9136 C   0  0  0  0  0  0  0  0  0  0  0  0
   33.3586    8.3217  -11.4421 C   0  0  0  0  0  0  0  0  0  0  0  0
   26.7907    8.8886   -7.4440 F   0  0  0  0  0  0  0  0  0  0  0  0
   29.6683    9.9370   -9.4041 C   0  0  0  0  0  0  0  0  0  0  0  0
   30.5356    8.8907   -9.1197 C   0  0  0  0  0  0  0  0  0  0  0  0
   31.8674    8.8934   -9.7095 C   0  0  0  0  0  0  0  0  0  0  0  0
   35.7075    8.9643  -11.3874 C   0  0  0  0  0  0  0  0  0  0  0  0
   36.6756    9.7949  -10.8633 O   0  0  0  0  0  0  0  0  0  0  0  0
   35.9865    8.2451  -12.3621 O   0  0  0  0  0  0  0  0  0  0  0  0
   30.8075    7.4394  -11.7983 S   0  0  2  0  0  6  0  0  0  0  0  0
   30.4048    6.1449  -11.1636 O   0  0  0  0  0  0  0  0  0  0  0  0
   31.3366    7.0484  -13.1784 O   0  0  0  0  0  0  0  0  0  0  0  0
  2  1  2  0
  9  1  1  0
  1 14  1  0
  3  2  1  0
 13  3  2  0
  4  5  2  0
 11  4  1  0
  6  5  1  0
  5 10  1  0
  7  6  2  0
 12  7  1  0
  8  9  2  0
 13  8  1  0
 17  8  1  1
 12 11  2  0
 12 13  1  0
 14 15  1  0
 14 16  2  0
 17 18  2  0
 17 19  2  0
M  END
$$$$
