
     RDKit          3D

 19 20  0  0  0  0  0  0  0  0999 V2000
   31.8401   10.2680  -14.6325 C   0  0  0  0  0  0  0  0  0  0  0  0
   30.8765   11.1755  -14.2553 C   0  0  0  0  0  0  0  0  0  0  0  0
   30.0759   10.8744  -13.1854 C   0  0  0  0  0  0  0  0  0  0  0  0
   27.3193    8.4540  -10.5479 C   0  0  0  0  0  0  0  0  0  0  0  0
   27.6860    8.8019   -9.2656 C   0  0  0  0  0  0  0  0  0  0  0  0
   28.8915    9.4338   -9.0193 C   0  0  0  0  0  0  0  0  0  0  0  0
   29.7200    9.7084  -10.0889 C   0  0  0  0  0  0  0  0  0  0  0  0
   31.1922    8.7516  -12.8532 C   0  0  0  0  0  0  0  0  0  0  0  0
   31.9983    9.0831  -13.9512 C   0  0  0  0  0  0  0  0  0  0  0  0
   26.8901    8.5427   -8.2016 F   0  0  0  0  0  0  0  0  0  0  0  0
   28.1520    8.7323  -11.6066 C   0  0  0  0  0  0  0  0  0  0  0  0
   29.3641    9.3665  -11.3692 C   0  0  0  0  0  0  0  0  0  0  0  0
   30.2406    9.6646  -12.4936 C   0  0  0  0  0  0  0  0  0  0  0  0
   32.7109   10.5479  -15.7623 C   0  0  0  0  0  0  0  0  0  0  0  0
   33.7318    9.6670  -16.0516 O   0  0  0  0  0  0  0  0  0  0  0  0
   32.5596   11.5571  -16.4720 O   0  0  0  0  0  0  0  0  0  0  0  0
   31.4595    7.2368  -12.0240 S   0  0  2  0  0  6  0  0  0  0  0  0
   32.3252    7.3761  -10.8107 O   0  0  0  0  0  0  0  0  0  0  0  0
   32.2265    6.2852  -12.9425 O   0  0  0  0  0  0  0  0  0  0  0  0
  2  1  2  0
  9  1  1  0
  1 14  1  0
  3  2  1  0
 13  3  2  0
  4  5  2  0
 11  4  1  0
  6  5  1  0
  5 10  1  0
  7  6  2  0
 12  7  1  0
  8  9  2  0
 13  8  1  0
 17  8  1  6
 12 11  2  0
 12 13  1  0
 14 15  1  0
 14 16  2  0
 17 18  2  0
 17 19  2  0
M  END
$$$$
