
     RDKit          3D

 19 20  0  0  0  0  0  0  0  0999 V2000
   33.2704    6.6816  -15.0565 C   0  0  0  0  0  0  0  0  0  0  0  0
   32.2533    6.6122  -15.9811 C   0  0  0  0  0  0  0  0  0  0  0  0
   31.2693    7.5645  -15.9453 C   0  0  0  0  0  0  0  0  0  0  0  0
   29.2211   11.5197  -15.8990 C   0  0  0  0  0  0  0  0  0  0  0  0
   28.2360   11.4622  -14.9367 C   0  0  0  0  0  0  0  0  0  0  0  0
   28.2379   10.4648  -13.9784 C   0  0  0  0  0  0  0  0  0  0  0  0
   29.2504    9.5269  -14.0082 C   0  0  0  0  0  0  0  0  0  0  0  0
   32.3064    8.6712  -14.0579 C   0  0  0  0  0  0  0  0  0  0  0  0
   33.3010    7.6848  -14.1154 C   0  0  0  0  0  0  0  0  0  0  0  0
   27.2335   12.3707  -14.8878 F   0  0  0  0  0  0  0  0  0  0  0  0
   30.2255   10.5804  -15.9198 C   0  0  0  0  0  0  0  0  0  0  0  0
   30.2357    9.5753  -14.9618 C   0  0  0  0  0  0  0  0  0  0  0  0
   31.3043    8.5858  -14.9837 C   0  0  0  0  0  0  0  0  0  0  0  0
   34.3344    5.6911  -15.0589 C   0  0  0  0  0  0  0  0  0  0  0  0
   35.3601    5.8120  -14.1450 O   0  0  0  0  0  0  0  0  0  0  0  0
   34.3436    4.7412  -15.8607 O   0  0  0  0  0  0  0  0  0  0  0  0
   32.4171    9.9259  -12.8467 S   0  0  2  0  0  6  0  0  0  0  0  0
   33.8282   10.2657  -12.4803 O   0  0  0  0  0  0  0  0  0  0  0  0
   31.7852    9.4310  -11.5456 O   0  0  0  0  0  0  0  0  0  0  0  0
  2  1  2  0
  9  1  1  0
  1 14  1  0
  3  2  1  0
 13  3  2  0
  4  5  2  0
 11  4  1  0
  6  5  1  0
  5 10  1  0
  7  6  2  0
 12  7  1  0
  8  9  2  0
 13  8  1  0
 17  8  1  6
 12 11  2  0
 12 13  1  0
 14 15  1  0
 14 16  2  0
 17 18  2  0
 17 19  2  0
M  END
$$$$
