
     RDKit          3D

 19 20  0  0  0  0  0  0  0  0999 V2000
   33.5378    6.4347  -13.8909 C   0  0  0  0  0  0  0  0  0  0  0  0
   32.2880    6.0091  -14.2712 C   0  0  0  0  0  0  0  0  0  0  0  0
   31.1504    6.6711  -13.8727 C   0  0  0  0  0  0  0  0  0  0  0  0
   28.2181    8.7754  -11.0352 C   0  0  0  0  0  0  0  0  0  0  0  0
   27.7004    9.8366  -11.7572 C   0  0  0  0  0  0  0  0  0  0  0  0
   28.3333   10.2343  -12.9063 C   0  0  0  0  0  0  0  0  0  0  0  0
   29.4765    9.5850  -13.3424 C   0  0  0  0  0  0  0  0  0  0  0  0
   32.4629    8.2401  -12.6766 C   0  0  0  0  0  0  0  0  0  0  0  0
   33.6155    7.5524  -13.0927 C   0  0  0  0  0  0  0  0  0  0  0  0
   26.5822   10.4298  -11.2805 F   0  0  0  0  0  0  0  0  0  0  0  0
   29.3542    8.1532  -11.4959 C   0  0  0  0  0  0  0  0  0  0  0  0
   30.0282    8.5204  -12.6518 C   0  0  0  0  0  0  0  0  0  0  0  0
   31.2229    7.8116  -13.0590 C   0  0  0  0  0  0  0  0  0  0  0  0
   34.7331    5.7094  -14.3311 C   0  0  0  0  0  0  0  0  0  0  0  0
   34.5919    4.6114  -15.1558 O   0  0  0  0  0  0  0  0  0  0  0  0
   35.8869    6.0468  -13.9875 O   0  0  0  0  0  0  0  0  0  0  0  0
   32.6102    9.6414  -11.6469 S   0  0  2  0  0  6  0  0  0  0  0  0
   33.1932   10.7525  -12.5243 O   0  0  0  0  0  0  0  0  0  0  0  0
   33.5526    9.4361  -10.5153 O   0  0  0  0  0  0  0  0  0  0  0  0
  2  1  2  0
  9  1  1  0
  1 14  1  0
  3  2  1  0
 13  3  2  0
  4  5  2  0
 11  4  1  0
  6  5  1  0
  5 10  1  0
  7  6  2  0
 12  7  1  0
  8  9  2  0
 13  8  1  0
 17  8  1  6
 12 11  2  0
 12 13  1  0
 14 15  1  0
 14 16  2  0
 17 18  2  0
 17 19  2  0
M  END
$$$$
