
     RDKit          3D

 19 20  0  0  0  0  0  0  0  0999 V2000
   31.9746    5.3576  -14.7924 C   0  0  0  0  0  0  0  0  0  0  0  0
   30.7098    5.3785  -15.3288 C   0  0  0  0  0  0  0  0  0  0  0  0
   30.1649    6.5323  -15.8417 C   0  0  0  0  0  0  0  0  0  0  0  0
   29.8569   10.3081  -18.3652 C   0  0  0  0  0  0  0  0  0  0  0  0
   29.2420   11.2686  -17.5810 C   0  0  0  0  0  0  0  0  0  0  0  0
   29.1655   11.0756  -16.2261 C   0  0  0  0  0  0  0  0  0  0  0  0
   29.6957    9.9351  -15.6454 C   0  0  0  0  0  0  0  0  0  0  0  0
   32.1412    7.7240  -15.3040 C   0  0  0  0  0  0  0  0  0  0  0  0
   32.6835    6.5365  -14.7842 C   0  0  0  0  0  0  0  0  0  0  0  0
   28.7439   12.3597  -18.2061 F   0  0  0  0  0  0  0  0  0  0  0  0
   30.3725    9.1881  -17.7569 C   0  0  0  0  0  0  0  0  0  0  0  0
   30.3184    8.9499  -16.3911 C   0  0  0  0  0  0  0  0  0  0  0  0
   30.8829    7.7376  -15.8366 C   0  0  0  0  0  0  0  0  0  0  0  0
   32.5300    4.1129  -14.2531 C   0  0  0  0  0  0  0  0  0  0  0  0
   33.8869    4.0264  -14.0136 O   0  0  0  0  0  0  0  0  0  0  0  0
   31.8196    3.1163  -13.9982 O   0  0  0  0  0  0  0  0  0  0  0  0
   33.0708    9.2001  -15.2529 S   0  0  2  0  0  6  0  0  0  0  0  0
   33.4936    9.4848  -16.6966 O   0  0  0  0  0  0  0  0  0  0  0  0
   34.3147    9.0775  -14.4476 O   0  0  0  0  0  0  0  0  0  0  0  0
  2  1  2  0
  9  1  1  0
  1 14  1  0
  3  2  1  0
 13  3  2  0
  4  5  2  0
 11  4  1  0
  6  5  1  0
  5 10  1  0
  7  6  2  0
 12  7  1  0
  8  9  2  0
 13  8  1  0
 17  8  1  6
 12 11  2  0
 12 13  1  0
 14 15  1  0
 14 16  2  0
 17 18  2  0
 17 19  2  0
M  END
$$$$
