
     RDKit          3D

 19 20  0  0  0  0  0  0  0  0999 V2000
   34.3036    7.3775  -14.8573 C   0  0  0  0  0  0  0  0  0  0  0  0
   34.4683    8.3781  -15.7844 C   0  0  0  0  0  0  0  0  0  0  0  0
   33.3933    9.0550  -16.3110 C   0  0  0  0  0  0  0  0  0  0  0  0
   29.2851    9.6937  -18.2311 C   0  0  0  0  0  0  0  0  0  0  0  0
   28.7338   10.7938  -17.5974 C   0  0  0  0  0  0  0  0  0  0  0  0
   29.2785   11.2264  -16.4163 C   0  0  0  0  0  0  0  0  0  0  0  0
   30.3667   10.5737  -15.8608 C   0  0  0  0  0  0  0  0  0  0  0  0
   31.9103    7.7538  -14.9985 C   0  0  0  0  0  0  0  0  0  0  0  0
   33.0195    7.0720  -14.4700 C   0  0  0  0  0  0  0  0  0  0  0  0
   27.6727   11.3882  -18.1890 F   0  0  0  0  0  0  0  0  0  0  0  0
   30.3647    9.0690  -17.6526 C   0  0  0  0  0  0  0  0  0  0  0  0
   30.9489    9.4706  -16.4598 C   0  0  0  0  0  0  0  0  0  0  0  0
   32.0814    8.7484  -15.9199 C   0  0  0  0  0  0  0  0  0  0  0  0
   35.4680    6.6731  -14.3128 C   0  0  0  0  0  0  0  0  0  0  0  0
   36.7360    7.1047  -14.6471 O   0  0  0  0  0  0  0  0  0  0  0  0
   35.3601    5.6880  -13.5507 O   0  0  0  0  0  0  0  0  0  0  0  0
   30.2984    7.3169  -14.4921 S   0  0  2  0  0  6  0  0  0  0  0  0
   30.4198    6.8674  -13.0335 O   0  0  0  0  0  0  0  0  0  0  0  0
   29.7372    6.1729  -15.2584 O   0  0  0  0  0  0  0  0  0  0  0  0
  2  1  2  0
  9  1  1  0
  1 14  1  0
  3  2  1  0
 13  3  2  0
  4  5  2  0
 11  4  1  0
  6  5  1  0
  5 10  1  0
  7  6  2  0
 12  7  1  0
  8  9  2  0
 13  8  1  0
 17  8  1  6
 12 11  2  0
 12 13  1  0
 14 15  1  0
 14 16  2  0
 17 18  2  0
 17 19  2  0
M  END
$$$$
