
     RDKit          3D

 19 20  0  0  0  0  0  0  0  0999 V2000
   32.9342    6.1164  -13.9223 C   0  0  0  0  0  0  0  0  0  0  0  0
   31.6749    5.9602  -14.4490 C   0  0  0  0  0  0  0  0  0  0  0  0
   30.6689    6.8606  -14.1874 C   0  0  0  0  0  0  0  0  0  0  0  0
   28.6693   10.9696  -13.7799 C   0  0  0  0  0  0  0  0  0  0  0  0
   27.8151   10.8574  -12.6967 C   0  0  0  0  0  0  0  0  0  0  0  0
   27.9682    9.8049  -11.8320 C   0  0  0  0  0  0  0  0  0  0  0  0
   28.9637    8.8635  -12.0362 C   0  0  0  0  0  0  0  0  0  0  0  0
   32.1414    8.1393  -12.8413 C   0  0  0  0  0  0  0  0  0  0  0  0
   33.1584    7.2102  -13.1187 C   0  0  0  0  0  0  0  0  0  0  0  0
   26.8635   11.8074  -12.5510 F   0  0  0  0  0  0  0  0  0  0  0  0
   29.6465   10.0181  -13.9534 C   0  0  0  0  0  0  0  0  0  0  0  0
   29.8389    8.9368  -13.1054 C   0  0  0  0  0  0  0  0  0  0  0  0
   30.8912    7.9782  -13.3689 C   0  0  0  0  0  0  0  0  0  0  0  0
   33.9873    5.1407  -14.2185 C   0  0  0  0  0  0  0  0  0  0  0  0
   33.6476    3.9349  -14.7984 O   0  0  0  0  0  0  0  0  0  0  0  0
   35.1924    5.3569  -13.9656 O   0  0  0  0  0  0  0  0  0  0  0  0
   32.4675    9.5006  -11.7991 S   0  0  2  0  0  6  0  0  0  0  0  0
   33.2270   10.5174  -12.6555 O   0  0  0  0  0  0  0  0  0  0  0  0
   33.3428    9.1560  -10.6477 O   0  0  0  0  0  0  0  0  0  0  0  0
  2  1  2  0
  9  1  1  0
  1 14  1  0
  3  2  1  0
 13  3  2  0
  4  5  2  0
 11  4  1  0
  6  5  1  0
  5 10  1  0
  7  6  2  0
 12  7  1  0
  8  9  2  0
 13  8  1  0
 17  8  1  6
 12 11  2  0
 12 13  1  0
 14 15  1  0
 14 16  2  0
 17 18  2  0
 17 19  2  0
M  END
$$$$
