
     RDKit          3D

 19 20  0  0  0  0  0  0  0  0999 V2000
   32.3032    5.4884  -13.3553 C   0  0  0  0  0  0  0  0  0  0  0  0
   31.1184    4.9134  -12.9635 C   0  0  0  0  0  0  0  0  0  0  0  0
   30.2202    5.5865  -12.1690 C   0  0  0  0  0  0  0  0  0  0  0  0
   28.2441    7.7139   -8.8318 C   0  0  0  0  0  0  0  0  0  0  0  0
   27.6943    8.9250   -9.2147 C   0  0  0  0  0  0  0  0  0  0  0  0
   28.0539    9.4704  -10.4197 C   0  0  0  0  0  0  0  0  0  0  0  0
   28.9556    8.8207  -11.2466 C   0  0  0  0  0  0  0  0  0  0  0  0
   31.6573    7.4696  -12.1116 C   0  0  0  0  0  0  0  0  0  0  0  0
   32.5643    6.7683  -12.9240 C   0  0  0  0  0  0  0  0  0  0  0  0
   26.8201    9.5103   -8.3646 F   0  0  0  0  0  0  0  0  0  0  0  0
   29.1360    7.0958   -9.6760 C   0  0  0  0  0  0  0  0  0  0  0  0
   29.5294    7.6092  -10.9036 C   0  0  0  0  0  0  0  0  0  0  0  0
   30.4805    6.8919  -11.7261 C   0  0  0  0  0  0  0  0  0  0  0  0
   33.2417    4.7472  -14.2029 C   0  0  0  0  0  0  0  0  0  0  0  0
   34.4625    5.3119  -14.5135 O   0  0  0  0  0  0  0  0  0  0  0  0
   32.9804    3.6137  -14.6611 O   0  0  0  0  0  0  0  0  0  0  0  0
   32.0416    9.0842  -11.5719 S   0  0  2  0  0  6  0  0  0  0  0  0
   32.4713    9.8576  -12.8214 O   0  0  0  0  0  0  0  0  0  0  0  0
   33.1815    9.1235  -10.6180 O   0  0  0  0  0  0  0  0  0  0  0  0
  2  1  2  0
  9  1  1  0
  1 14  1  0
  3  2  1  0
 13  3  2  0
  4  5  2  0
 11  4  1  0
  6  5  1  0
  5 10  1  0
  7  6  2  0
 12  7  1  0
  8  9  2  0
 13  8  1  0
 17  8  1  6
 12 11  2  0
 12 13  1  0
 14 15  1  0
 14 16  2  0
 17 18  2  0
 17 19  2  0
M  END
$$$$
