
     RDKit          3D

 19 20  0  0  0  0  0  0  0  0999 V2000
   31.6917    5.4989  -15.0786 C   0  0  0  0  0  0  0  0  0  0  0  0
   30.4374    5.6256  -15.6250 C   0  0  0  0  0  0  0  0  0  0  0  0
   30.0106    6.8094  -16.1796 C   0  0  0  0  0  0  0  0  0  0  0  0
   29.2508   11.3154  -16.5423 C   0  0  0  0  0  0  0  0  0  0  0  0
   29.5075   11.6367  -17.8639 C   0  0  0  0  0  0  0  0  0  0  0  0
   30.1992   10.7476  -18.6449 C   0  0  0  0  0  0  0  0  0  0  0  0
   30.6373    9.5419  -18.1220 C   0  0  0  0  0  0  0  0  0  0  0  0
   32.0920    7.8191  -15.6665 C   0  0  0  0  0  0  0  0  0  0  0  0
   32.5129    6.6022  -15.1039 C   0  0  0  0  0  0  0  0  0  0  0  0
   29.0542   12.8280  -18.3161 F   0  0  0  0  0  0  0  0  0  0  0  0
   29.6998   10.1107  -16.0550 C   0  0  0  0  0  0  0  0  0  0  0  0
   30.4030    9.1806  -16.8070 C   0  0  0  0  0  0  0  0  0  0  0  0
   30.8433    7.9380  -16.2088 C   0  0  0  0  0  0  0  0  0  0  0  0
   32.1200    4.2245  -14.4945 C   0  0  0  0  0  0  0  0  0  0  0  0
   31.2437    3.1579  -14.4833 O   0  0  0  0  0  0  0  0  0  0  0  0
   33.2570    4.0613  -14.0010 O   0  0  0  0  0  0  0  0  0  0  0  0
   33.1617    9.1980  -15.6570 S   0  0  2  0  0  6  0  0  0  0  0  0
   34.5401    8.6621  -15.2609 O   0  0  0  0  0  0  0  0  0  0  0  0
   32.7827   10.2221  -14.6480 O   0  0  0  0  0  0  0  0  0  0  0  0
  2  1  2  0
  9  1  1  0
  1 14  1  0
  3  2  1  0
 13  3  2  0
  4  5  2  0
 11  4  1  0
  6  5  1  0
  5 10  1  0
  7  6  2  0
 12  7  1  0
  8  9  2  0
 13  8  1  0
 17  8  1  1
 12 11  2  0
 12 13  1  0
 14 15  1  0
 14 16  2  0
 17 18  2  0
 17 19  2  0
M  END
$$$$
