
     RDKit          3D

 19 20  0  0  0  0  0  0  0  0999 V2000
   33.1532    6.1356  -15.0299 C   0  0  0  0  0  0  0  0  0  0  0  0
   31.8710    5.8696  -15.4457 C   0  0  0  0  0  0  0  0  0  0  0  0
   31.0431    6.8661  -15.9071 C   0  0  0  0  0  0  0  0  0  0  0  0
   29.6918   10.4301  -18.3963 C   0  0  0  0  0  0  0  0  0  0  0  0
   28.9546   11.2498  -17.5595 C   0  0  0  0  0  0  0  0  0  0  0  0
   29.0442   11.0732  -16.2032 C   0  0  0  0  0  0  0  0  0  0  0  0
   29.8610   10.0881  -15.6729 C   0  0  0  0  0  0  0  0  0  0  0  0
   32.7522    8.4699  -15.5584 C   0  0  0  0  0  0  0  0  0  0  0  0
   33.5856    7.4401  -15.0899 C   0  0  0  0  0  0  0  0  0  0  0  0
   28.1758   12.1930  -18.1369 F   0  0  0  0  0  0  0  0  0  0  0  0
   30.4924    9.4622  -17.8373 C   0  0  0  0  0  0  0  0  0  0  0  0
   30.6147    9.2467  -16.4720 C   0  0  0  0  0  0  0  0  0  0  0  0
   31.4781    8.1983  -15.9710 C   0  0  0  0  0  0  0  0  0  0  0  0
   34.0137    5.0533  -14.5430 C   0  0  0  0  0  0  0  0  0  0  0  0
   33.5020    3.7747  -14.4467 O   0  0  0  0  0  0  0  0  0  0  0  0
   35.2033    5.2413  -14.2081 O   0  0  0  0  0  0  0  0  0  0  0  0
   33.3380   10.1134  -15.5968 S   0  0  2  0  0  6  0  0  0  0  0  0
   34.7639   10.0422  -16.1496 O   0  0  0  0  0  0  0  0  0  0  0  0
   33.4208   10.7338  -14.2480 O   0  0  0  0  0  0  0  0  0  0  0  0
  2  1  2  0
  9  1  1  0
  1 14  1  0
  3  2  1  0
 13  3  2  0
  4  5  2  0
 11  4  1  0
  6  5  1  0
  5 10  1  0
  7  6  2  0
 12  7  1  0
  8  9  2  0
 13  8  1  0
 17  8  1  1
 12 11  2  0
 12 13  1  0
 14 15  1  0
 14 16  2  0
 17 18  2  0
 17 19  2  0
M  END
$$$$
