
     RDKit          3D

 19 20  0  0  0  0  0  0  0  0999 V2000
   32.4254   11.4553  -13.7055 C   0  0  0  0  0  0  0  0  0  0  0  0
   31.0765   11.7144  -13.6699 C   0  0  0  0  0  0  0  0  0  0  0  0
   30.2605   11.1504  -12.7174 C   0  0  0  0  0  0  0  0  0  0  0  0
   28.2834    7.9989  -10.1252 C   0  0  0  0  0  0  0  0  0  0  0  0
   28.2318    8.4825   -8.8294 C   0  0  0  0  0  0  0  0  0  0  0  0
   29.0106    9.5571   -8.4863 C   0  0  0  0  0  0  0  0  0  0  0  0
   29.8401   10.1539   -9.4215 C   0  0  0  0  0  0  0  0  0  0  0  0
   32.1173   10.0224  -11.7713 C   0  0  0  0  0  0  0  0  0  0  0  0
   32.9373   10.6071  -12.7511 C   0  0  0  0  0  0  0  0  0  0  0  0
   27.4029    7.8577   -7.9623 F   0  0  0  0  0  0  0  0  0  0  0  0
   29.1174    8.6144  -11.0284 C   0  0  0  0  0  0  0  0  0  0  0  0
   29.9230    9.7031  -10.7271 C   0  0  0  0  0  0  0  0  0  0  0  0
   30.7766   10.2850  -11.7412 C   0  0  0  0  0  0  0  0  0  0  0  0
   33.2711   12.0709  -14.7323 C   0  0  0  0  0  0  0  0  0  0  0  0
   34.5961   11.6960  -14.8304 O   0  0  0  0  0  0  0  0  0  0  0  0
   32.8386   12.9299  -15.5311 O   0  0  0  0  0  0  0  0  0  0  0  0
   32.8087    8.9361  -10.5934 S   0  0  2  0  0  6  0  0  0  0  0  0
   34.3254    9.0078  -10.7898 O   0  0  0  0  0  0  0  0  0  0  0  0
   32.4061    7.5199  -10.8003 O   0  0  0  0  0  0  0  0  0  0  0  0
  2  1  2  0
  9  1  1  0
  1 14  1  0
  3  2  1  0
 13  3  2  0
  4  5  2  0
 11  4  1  0
  6  5  1  0
  5 10  1  0
  7  6  2  0
 12  7  1  0
  8  9  2  0
 13  8  1  0
 17  8  1  6
 12 11  2  0
 12 13  1  0
 14 15  1  0
 14 16  2  0
 17 18  2  0
 17 19  2  0
M  END
$$$$
