
     RDKit          3D

 19 20  0  0  0  0  0  0  0  0999 V2000
   31.6520    4.8114  -13.1912 C   0  0  0  0  0  0  0  0  0  0  0  0
   30.7710    4.3299  -12.2533 C   0  0  0  0  0  0  0  0  0  0  0  0
   30.1588    5.1633  -11.3467 C   0  0  0  0  0  0  0  0  0  0  0  0
   29.8909    8.7316   -8.3459 C   0  0  0  0  0  0  0  0  0  0  0  0
   28.5835    9.1552   -8.5096 C   0  0  0  0  0  0  0  0  0  0  0  0
   27.8731    8.7229   -9.5993 C   0  0  0  0  0  0  0  0  0  0  0  0
   28.4527    7.8731  -10.5270 C   0  0  0  0  0  0  0  0  0  0  0  0
   31.2876    7.0287  -12.2747 C   0  0  0  0  0  0  0  0  0  0  0  0
   31.9044    6.1637  -13.1943 C   0  0  0  0  0  0  0  0  0  0  0  0
   28.0736    9.9843   -7.5704 F   0  0  0  0  0  0  0  0  0  0  0  0
   30.4358    7.8883   -9.2852 C   0  0  0  0  0  0  0  0  0  0  0  0
   29.7560    7.4253  -10.4028 C   0  0  0  0  0  0  0  0  0  0  0  0
   30.4118    6.5432  -11.3449 C   0  0  0  0  0  0  0  0  0  0  0  0
   32.2896    3.8996  -14.1456 C   0  0  0  0  0  0  0  0  0  0  0  0
   32.2421    2.5392  -13.9155 O   0  0  0  0  0  0  0  0  0  0  0  0
   32.8806    4.3062  -15.1694 O   0  0  0  0  0  0  0  0  0  0  0  0
   31.6549    8.7346  -12.3038 S   0  0  2  0  0  6  0  0  0  0  0  0
   32.2818    9.0097  -13.6732 O   0  0  0  0  0  0  0  0  0  0  0  0
   32.6531    9.1329  -11.2763 O   0  0  0  0  0  0  0  0  0  0  0  0
  2  1  2  0
  9  1  1  0
  1 14  1  0
  3  2  1  0
 13  3  2  0
  4  5  2  0
 11  4  1  0
  6  5  1  0
  5 10  1  0
  7  6  2  0
 12  7  1  0
  8  9  2  0
 13  8  1  0
 17  8  1  6
 12 11  2  0
 12 13  1  0
 14 15  1  0
 14 16  2  0
 17 18  2  0
 17 19  2  0
M  END
$$$$
