
     RDKit          3D

 31 35  0  0  0  0  0  0  0  0999 V2000
  -22.4985  -19.3182   14.1143 C   0  0  0  0  0  0  0  0  0  0  0  0
  -24.7627  -21.2669   12.1062 C   0  0  0  0  0  0  0  0  0  0  0  0
  -24.0630  -21.0167    9.7840 C   0  0  0  0  0  0  0  0  0  0  0  0
  -22.2594  -22.7605   10.0266 C   0  0  0  0  0  0  0  0  0  0  0  0
  -20.8861  -25.4105    7.7396 C   0  0  0  0  0  0  0  0  0  0  0  0
  -21.6442  -27.4627    6.8578 C   0  0  0  0  0  0  0  0  0  0  0  0
  -20.6312  -27.5003    8.9365 C   0  0  0  0  0  0  0  0  0  0  0  0
  -23.4375  -22.6425    8.0061 C   0  0  0  0  0  0  0  0  0  0  0  0
  -16.8311  -16.0777   12.0539 N   0  0  0  0  0  0  0  0  0  0  0  0
  -18.0852  -16.6494   11.7014 C   0  0  0  0  0  0  0  0  0  0  0  0
  -18.7284  -16.5924   10.5108 N   0  0  0  0  0  0  0  0  0  0  0  0
  -19.8768  -17.2463   10.5717 N   0  0  0  0  0  0  0  0  0  0  0  0
  -20.0578  -17.7689   11.7965 C   0  0  0  0  0  0  0  0  0  0  0  0
  -21.1847  -18.5519   12.2843 C   0  0  0  0  0  0  0  0  0  0  0  0
  -21.9811  -19.2594   11.3781 C   0  0  0  0  0  0  0  0  0  0  0  0
  -23.0439  -20.0019   11.8415 C   0  0  0  0  0  0  0  0  0  0  0  0
  -23.2935  -20.0250   13.2049 C   0  0  0  0  0  0  0  0  0  0  0  0
  -21.4382  -18.5792   13.6380 C   0  0  0  0  0  0  0  0  0  0  0  0
  -24.3982  -20.8395   13.3603 C   0  0  0  0  0  0  0  0  0  0  0  0
  -23.9152  -20.7398   11.1793 N   0  0  0  0  0  0  0  0  0  0  0  0
  -23.2460  -22.1462    9.2850 C   0  0  0  0  0  0  0  0  0  0  0  0
  -21.5077  -23.8046    9.5288 C   0  0  0  0  0  0  0  0  0  0  0  0
  -21.7292  -24.2706    8.2476 C   0  0  0  0  0  0  0  0  0  0  0  0
  -21.4783  -26.6663    8.0902 N   0  0  1  0  0  4  0  0  0  0  0  0
  -22.2751  -28.7972    7.1957 C   0  0  0  0  0  0  0  0  0  0  0  0
  -22.6028  -28.8453    8.5654 O   0  0  0  0  0  0  0  0  0  0  0  0
  -21.4268  -28.7416    9.2758 C   0  0  0  0  0  0  0  0  0  0  0  0
  -22.7062  -23.6741    7.4918 C   0  0  0  0  0  0  0  0  0  0  0  0
  -18.9166  -17.3874   12.5112 C   0  0  0  0  0  0  0  0  0  0  0  0
  -18.7112  -17.7478   13.8832 C   0  0  0  0  0  0  0  0  0  0  0  0
  -18.5419  -18.0239   15.0156 N   0  0  0  0  0  0  0  0  0  0  0  0
 17  1  2  0
  1 18  1  0
  2 19  2  0
 20  2  1  0
  3 20  1  1
 21  3  1  0
  4 21  2  0
 22  4  1  0
  5 23  1  1
 24  5  1  6
 24  6  1  0
  6 25  1  6
 24  7  1  0
  7 27  1  6
 21  8  1  0
  8 28  2  0
 10  9  1  0
 10 11  1  0
 29 10  2  0
 12 11  1  0
 13 12  2  0
 14 13  1  0
 13 29  1  0
 15 14  1  0
 14 18  2  0
 16 15  2  0
 16 17  1  0
 20 16  1  0
 17 19  1  0
 22 23  2  0
 23 28  1  0
 25 26  1  6
 27 26  1  6
 29 30  1  0
 30 31  3  0
M  CHG  1  24   1
M  END
$$$$
