
     RDKit          3D

 31 35  0  0  0  0  0  0  0  0999 V2000
  -13.7104   -9.9919   28.3844 C   0  0  0  0  0  0  0  0  0  0  0  0
  -12.5223   -7.0392   30.0657 C   0  0  0  0  0  0  0  0  0  0  0  0
  -11.3072   -5.7132   28.4195 C   0  0  0  0  0  0  0  0  0  0  0  0
  -13.3679   -4.2627   28.3706 C   0  0  0  0  0  0  0  0  0  0  0  0
  -13.9948   -0.6191   29.0562 C   0  0  0  0  0  0  0  0  0  0  0  0
  -13.0919    0.7246   30.7716 C   0  0  0  0  0  0  0  0  0  0  0  0
  -15.3802    0.3899   30.7670 C   0  0  0  0  0  0  0  0  0  0  0  0
  -11.3246   -3.2846   28.9644 C   0  0  0  0  0  0  0  0  0  0  0  0
  -13.5044  -11.1578   21.6152 N   0  0  0  0  0  0  0  0  0  0  0  0
  -12.9202  -10.5441   22.7581 C   0  0  0  0  0  0  0  0  0  0  0  0
  -11.7013   -9.9636   22.8679 N   0  0  0  0  0  0  0  0  0  0  0  0
  -11.5144   -9.5048   24.0946 N   0  0  0  0  0  0  0  0  0  0  0  0
  -12.5903   -9.7539   24.8604 C   0  0  0  0  0  0  0  0  0  0  0  0
  -12.7931   -9.4223   26.2640 C   0  0  0  0  0  0  0  0  0  0  0  0
  -12.2666   -8.2331   26.7782 C   0  0  0  0  0  0  0  0  0  0  0  0
  -12.4624   -7.9195   28.1045 C   0  0  0  0  0  0  0  0  0  0  0  0
  -13.1822   -8.8011   28.8960 C   0  0  0  0  0  0  0  0  0  0  0  0
  -13.5075  -10.2940   27.0559 C   0  0  0  0  0  0  0  0  0  0  0  0
  -13.2126   -8.2244   30.1507 C   0  0  0  0  0  0  0  0  0  0  0  0
  -12.0654   -6.8665   28.7942 N   0  0  0  0  0  0  0  0  0  0  0  0
  -12.0156   -4.4235   28.5850 C   0  0  0  0  0  0  0  0  0  0  0  0
  -13.9970   -3.0445   28.5232 C   0  0  0  0  0  0  0  0  0  0  0  0
  -13.2722   -1.9316   28.9027 C   0  0  0  0  0  0  0  0  0  0  0  0
  -14.1244   -0.2779   30.4408 N   0  0  1  0  0  4  0  0  0  0  0  0
  -13.1997    1.1022   32.2341 C   0  0  0  0  0  0  0  0  0  0  0  0
  -14.1863    0.3186   32.8654 O   0  0  0  0  0  0  0  0  0  0  0  0
  -15.3916    0.6082   32.2640 C   0  0  0  0  0  0  0  0  0  0  0  0
  -11.9250   -2.0686   29.1215 C   0  0  0  0  0  0  0  0  0  0  0  0
  -13.4814  -10.4142   24.0069 C   0  0  0  0  0  0  0  0  0  0  0  0
  -14.7725  -10.8620   24.4391 C   0  0  0  0  0  0  0  0  0  0  0  0
  -15.8407  -11.2271   24.7752 N   0  0  0  0  0  0  0  0  0  0  0  0
 17  1  2  0
  1 18  1  0
  2 19  2  0
 20  2  1  0
  3 20  1  1
 21  3  1  0
  4 21  2  0
 22  4  1  0
  5 23  1  1
 24  5  1  6
 24  6  1  0
  6 25  1  6
 24  7  1  0
  7 27  1  6
 21  8  1  0
  8 28  2  0
 10  9  1  0
 10 11  1  0
 29 10  2  0
 12 11  1  0
 13 12  2  0
 14 13  1  0
 13 29  1  0
 15 14  1  0
 14 18  2  0
 16 15  2  0
 16 17  1  0
 20 16  1  0
 17 19  1  0
 22 23  2  0
 23 28  1  0
 25 26  1  6
 27 26  1  6
 29 30  1  0
 30 31  3  0
M  CHG  1  24   1
M  END
$$$$
