
     RDKit          3D

 31 35  0  0  0  0  0  0  0  0999 V2000
  -12.9436   -9.8392   28.1763 C   0  0  0  0  0  0  0  0  0  0  0  0
  -13.0188   -6.5890   29.7213 C   0  0  0  0  0  0  0  0  0  0  0  0
  -13.2544   -4.9475   27.9340 C   0  0  0  0  0  0  0  0  0  0  0  0
  -13.4550   -4.1157   30.3048 C   0  0  0  0  0  0  0  0  0  0  0  0
  -12.6827   -0.8394   31.9806 C   0  0  0  0  0  0  0  0  0  0  0  0
  -13.6658    1.0065   33.0713 C   0  0  0  0  0  0  0  0  0  0  0  0
  -13.9656    0.8306   30.7849 C   0  0  0  0  0  0  0  0  0  0  0  0
  -12.6106   -2.6604   28.6758 C   0  0  0  0  0  0  0  0  0  0  0  0
  -12.7723  -11.2624   21.4790 N   0  0  0  0  0  0  0  0  0  0  0  0
  -13.0837  -10.3250   22.5028 C   0  0  0  0  0  0  0  0  0  0  0  0
  -13.7126   -9.1312   22.3845 N   0  0  0  0  0  0  0  0  0  0  0  0
  -13.8178   -8.5428   23.5647 N   0  0  0  0  0  0  0  0  0  0  0  0
  -13.2685   -9.3076   24.5237 C   0  0  0  0  0  0  0  0  0  0  0  0
  -13.1681   -9.0300   25.9498 C   0  0  0  0  0  0  0  0  0  0  0  0
  -13.2108   -7.7077   26.4033 C   0  0  0  0  0  0  0  0  0  0  0  0
  -13.1193   -7.4475   27.7522 C   0  0  0  0  0  0  0  0  0  0  0  0
  -12.9865   -8.5148   28.6268 C   0  0  0  0  0  0  0  0  0  0  0  0
  -13.0361  -10.0861   26.8244 C   0  0  0  0  0  0  0  0  0  0  0  0
  -12.9229   -7.9499   29.8857 C   0  0  0  0  0  0  0  0  0  0  0  0
  -13.1394   -6.2959   28.3966 N   0  0  0  0  0  0  0  0  0  0  0  0
  -13.1082   -3.9154   28.9856 C   0  0  0  0  0  0  0  0  0  0  0  0
  -13.3165   -3.1296   31.2595 C   0  0  0  0  0  0  0  0  0  0  0  0
  -12.8164   -1.8904   30.9101 C   0  0  0  0  0  0  0  0  0  0  0  0
  -13.8307    0.0163   31.9883 N   0  0  1  0  0  4  0  0  0  0  0  0
  -14.8695    1.9245   33.1089 C   0  0  0  0  0  0  0  0  0  0  0  0
  -15.8290    1.5043   32.1661 O   0  0  0  0  0  0  0  0  0  0  0  0
  -15.2557    1.6096   30.9177 C   0  0  0  0  0  0  0  0  0  0  0  0
  -12.4648   -1.6690   29.6029 C   0  0  0  0  0  0  0  0  0  0  0  0
  -12.8036  -10.4394   23.8444 C   0  0  0  0  0  0  0  0  0  0  0  0
  -12.1408  -11.5202   24.5129 C   0  0  0  0  0  0  0  0  0  0  0  0
  -11.5786  -12.3976   25.0618 N   0  0  0  0  0  0  0  0  0  0  0  0
 17  1  2  0
  1 18  1  0
  2 19  2  0
 20  2  1  0
  3 20  1  1
 21  3  1  0
  4 21  2  0
 22  4  1  0
  5 23  1  1
 24  5  1  6
 24  6  1  0
  6 25  1  6
 24  7  1  0
  7 27  1  6
 21  8  1  0
  8 28  2  0
 10  9  1  0
 10 11  1  0
 29 10  2  0
 12 11  1  0
 13 12  2  0
 14 13  1  0
 13 29  1  0
 15 14  1  0
 14 18  2  0
 16 15  2  0
 16 17  1  0
 20 16  1  0
 17 19  1  0
 22 23  2  0
 23 28  1  0
 25 26  1  6
 27 26  1  6
 29 30  1  0
 30 31  3  0
M  CHG  1  24   1
M  END
$$$$
