
     RDKit          3D

 31 35  0  0  0  0  0  0  0  0999 V2000
  -15.3081   -8.5364   25.0836 C   0  0  0  0  0  0  0  0  0  0  0  0
  -14.7355   -6.4428   27.9551 C   0  0  0  0  0  0  0  0  0  0  0  0
  -12.4973   -6.9479   28.7794 C   0  0  0  0  0  0  0  0  0  0  0  0
  -11.5416   -5.2395   30.3672 C   0  0  0  0  0  0  0  0  0  0  0  0
  -12.7874   -1.9519   31.7008 C   0  0  0  0  0  0  0  0  0  0  0  0
  -11.6781   -0.7027   30.0357 C   0  0  0  0  0  0  0  0  0  0  0  0
  -11.5603    0.0724   32.2115 C   0  0  0  0  0  0  0  0  0  0  0  0
  -13.6455   -4.8349   29.4215 C   0  0  0  0  0  0  0  0  0  0  0  0
  -10.8836  -12.7395   21.9974 N   0  0  0  0  0  0  0  0  0  0  0  0
  -11.2108  -11.9825   23.1566 C   0  0  0  0  0  0  0  0  0  0  0  0
  -10.5730  -11.9593   24.3513 N   0  0  0  0  0  0  0  0  0  0  0  0
  -11.1790  -11.1300   25.1851 N   0  0  0  0  0  0  0  0  0  0  0  0
  -12.2443  -10.5621   24.5945 C   0  0  0  0  0  0  0  0  0  0  0  0
  -13.1812   -9.6007   25.1592 C   0  0  0  0  0  0  0  0  0  0  0  0
  -12.8160   -8.8565   26.2856 C   0  0  0  0  0  0  0  0  0  0  0  0
  -13.7017   -7.9455   26.8159 C   0  0  0  0  0  0  0  0  0  0  0  0
  -14.9396   -7.7933   26.2109 C   0  0  0  0  0  0  0  0  0  0  0  0
  -14.4129   -9.4444   24.5627 C   0  0  0  0  0  0  0  0  0  0  0  0
  -15.5920   -6.8271   26.9516 C   0  0  0  0  0  0  0  0  0  0  0  0
  -13.5720   -7.1440   27.8565 N   0  0  0  0  0  0  0  0  0  0  0  0
  -12.5466   -5.6713   29.5281 C   0  0  0  0  0  0  0  0  0  0  0  0
  -11.6223   -4.0490   31.0595 C   0  0  0  0  0  0  0  0  0  0  0  0
  -12.7358   -3.2427   30.9265 C   0  0  0  0  0  0  0  0  0  0  0  0
  -11.6217   -1.1632   31.4376 N   0  0  1  0  0  4  0  0  0  0  0  0
  -10.4529    0.1312   29.7245 C   0  0  0  0  0  0  0  0  0  0  0  0
   -9.5798    0.1410   30.8307 O   0  0  0  0  0  0  0  0  0  0  0  0
  -10.2451    0.7413   31.8773 C   0  0  0  0  0  0  0  0  0  0  0  0
  -13.7481   -3.6527   30.0966 C   0  0  0  0  0  0  0  0  0  0  0  0
  -12.2605  -11.1064   23.3053 C   0  0  0  0  0  0  0  0  0  0  0  0
  -13.2556  -10.7571   22.3346 C   0  0  0  0  0  0  0  0  0  0  0  0
  -14.0666  -10.4507   21.5374 N   0  0  0  0  0  0  0  0  0  0  0  0
 17  1  2  0
  1 18  1  0
  2 19  2  0
 20  2  1  0
  3 20  1  1
 21  3  1  0
  4 21  2  0
 22  4  1  0
  5 23  1  1
 24  5  1  1
 24  6  1  0
  6 25  1  6
 24  7  1  0
  7 27  1  6
 21  8  1  0
  8 28  2  0
 10  9  1  0
 10 11  1  0
 29 10  2  0
 12 11  1  0
 13 12  2  0
 14 13  1  0
 13 29  1  0
 15 14  1  0
 14 18  2  0
 16 15  2  0
 16 17  1  0
 20 16  1  0
 17 19  1  0
 22 23  2  0
 23 28  1  0
 25 26  1  6
 27 26  1  6
 29 30  1  0
 30 31  3  0
M  CHG  1  24   1
M  END
$$$$
