
     RDKit          3D

 31 35  0  0  0  0  0  0  0  0999 V2000
  -19.5414  -20.3987   13.3209 C   0  0  0  0  0  0  0  0  0  0  0  0
  -21.8549  -22.9324   12.2325 C   0  0  0  0  0  0  0  0  0  0  0  0
  -23.4315  -21.8622   10.7115 C   0  0  0  0  0  0  0  0  0  0  0  0
  -24.6068  -23.5492    9.2536 C   0  0  0  0  0  0  0  0  0  0  0  0
  -23.4149  -26.3465    7.0416 C   0  0  0  0  0  0  0  0  0  0  0  0
  -23.5194  -28.6897    6.7917 C   0  0  0  0  0  0  0  0  0  0  0  0
  -22.4040  -27.8593    8.6397 C   0  0  0  0  0  0  0  0  0  0  0  0
  -22.2674  -23.5913    9.3512 C   0  0  0  0  0  0  0  0  0  0  0  0
  -19.1398  -13.8844   11.3003 N   0  0  0  0  0  0  0  0  0  0  0  0
  -19.8971  -15.0886   11.3176 C   0  0  0  0  0  0  0  0  0  0  0  0
  -21.1499  -15.2987   10.8476 N   0  0  0  0  0  0  0  0  0  0  0  0
  -21.5161  -16.5543   11.0469 N   0  0  0  0  0  0  0  0  0  0  0  0
  -20.5343  -17.2410   11.6556 C   0  0  0  0  0  0  0  0  0  0  0  0
  -20.5299  -18.6407   12.0582 C   0  0  0  0  0  0  0  0  0  0  0  0
  -21.4997  -19.5110   11.5504 C   0  0  0  0  0  0  0  0  0  0  0  0
  -21.4918  -20.8346   11.9293 C   0  0  0  0  0  0  0  0  0  0  0  0
  -20.5133  -21.2670   12.8109 C   0  0  0  0  0  0  0  0  0  0  0  0
  -19.5602  -19.0769   12.9339 C   0  0  0  0  0  0  0  0  0  0  0  0
  -20.7582  -22.6137   12.9967 C   0  0  0  0  0  0  0  0  0  0  0  0
  -22.2957  -21.8213   11.5795 N   0  0  0  0  0  0  0  0  0  0  0  0
  -23.4500  -23.0015    9.7660 C   0  0  0  0  0  0  0  0  0  0  0  0
  -24.5910  -24.6184    8.3820 C   0  0  0  0  0  0  0  0  0  0  0  0
  -23.3903  -25.1790    7.9926 C   0  0  0  0  0  0  0  0  0  0  0  0
  -23.5360  -27.5775    7.7630 N   0  0  1  0  0  4  0  0  0  0  0  0
  -23.6520  -30.0077    7.5255 C   0  0  0  0  0  0  0  0  0  0  0  0
  -23.8469  -29.7784    8.9022 O   0  0  0  0  0  0  0  0  0  0  0  0
  -22.7223  -29.1407    9.3784 C   0  0  0  0  0  0  0  0  0  0  0  0
  -22.2266  -24.6498    8.4901 C   0  0  0  0  0  0  0  0  0  0  0  0
  -19.5071  -16.3058   11.8254 C   0  0  0  0  0  0  0  0  0  0  0  0
  -18.2588  -16.6375   12.4467 C   0  0  0  0  0  0  0  0  0  0  0  0
  -17.2233  -16.8982   12.9436 N   0  0  0  0  0  0  0  0  0  0  0  0
 17  1  2  0
  1 18  1  0
  2 19  2  0
 20  2  1  0
  3 20  1  1
 21  3  1  0
  4 21  2  0
 22  4  1  0
  5 23  1  1
 24  5  1  6
 24  6  1  0
  6 25  1  6
 24  7  1  0
  7 27  1  6
 21  8  1  0
  8 28  2  0
 10  9  1  0
 10 11  1  0
 29 10  2  0
 12 11  1  0
 13 12  2  0
 14 13  1  0
 13 29  1  0
 15 14  1  0
 14 18  2  0
 16 15  2  0
 16 17  1  0
 20 16  1  0
 17 19  1  0
 22 23  2  0
 23 28  1  0
 25 26  1  6
 27 26  1  6
 29 30  1  0
 30 31  3  0
M  CHG  1  24   1
M  END
$$$$
