
     RDKit          3D

 31 35  0  0  0  0  0  0  0  0999 V2000
  -23.4511  -18.2804   11.7952 C   0  0  0  0  0  0  0  0  0  0  0  0
  -24.1382  -21.5678   10.5000 C   0  0  0  0  0  0  0  0  0  0  0  0
  -22.1046  -22.8861   10.7667 C   0  0  0  0  0  0  0  0  0  0  0  0
  -22.5272  -22.8385    8.2824 C   0  0  0  0  0  0  0  0  0  0  0  0
  -22.5381  -25.4735    5.5999 C   0  0  0  0  0  0  0  0  0  0  0  0
  -24.0255  -27.2413    5.1244 C   0  0  0  0  0  0  0  0  0  0  0  0
  -24.8162  -25.4971    6.4211 C   0  0  0  0  0  0  0  0  0  0  0  0
  -22.0029  -24.8868    9.2894 C   0  0  0  0  0  0  0  0  0  0  0  0
  -17.2922  -15.8967   13.7102 N   0  0  0  0  0  0  0  0  0  0  0  0
  -18.1777  -17.0021   13.5764 C   0  0  0  0  0  0  0  0  0  0  0  0
  -18.0422  -18.2517   14.0810 N   0  0  0  0  0  0  0  0  0  0  0  0
  -19.0748  -19.0048   13.7395 N   0  0  0  0  0  0  0  0  0  0  0  0
  -19.9455  -18.3021   12.9950 C   0  0  0  0  0  0  0  0  0  0  0  0
  -21.2025  -18.7528   12.4137 C   0  0  0  0  0  0  0  0  0  0  0  0
  -21.3193  -20.0664   11.9482 C   0  0  0  0  0  0  0  0  0  0  0  0
  -22.5095  -20.4917   11.4022 C   0  0  0  0  0  0  0  0  0  0  0  0
  -23.5648  -19.5956   11.3303 C   0  0  0  0  0  0  0  0  0  0  0  0
  -22.2551  -17.8674   12.3394 C   0  0  0  0  0  0  0  0  0  0  0  0
  -24.6022  -20.2987   10.7497 C   0  0  0  0  0  0  0  0  0  0  0  0
  -22.8431  -21.6697   10.9093 N   0  0  0  0  0  0  0  0  0  0  0  0
  -22.2117  -23.5253    9.4354 C   0  0  0  0  0  0  0  0  0  0  0  0
  -22.6298  -23.4653    7.0578 C   0  0  0  0  0  0  0  0  0  0  0  0
  -22.4144  -24.8257    6.9539 C   0  0  0  0  0  0  0  0  0  0  0  0
  -23.9072  -25.7819    5.3156 N   0  0  1  0  0  4  0  0  0  0  0  0
  -25.4643  -27.5989    4.8156 C   0  0  0  0  0  0  0  0  0  0  0  0
  -26.2421  -26.4287    4.7084 O   0  0  0  0  0  0  0  0  0  0  0  0
  -26.2162  -25.8013    5.9348 C   0  0  0  0  0  0  0  0  0  0  0  0
  -22.0990  -25.5290    8.0886 C   0  0  0  0  0  0  0  0  0  0  0  0
  -19.3716  -17.0297   12.8941 C   0  0  0  0  0  0  0  0  0  0  0  0
  -19.9924  -15.9604   12.1692 C   0  0  0  0  0  0  0  0  0  0  0  0
  -20.4842  -15.0724   11.5720 N   0  0  0  0  0  0  0  0  0  0  0  0
 17  1  2  0
  1 18  1  0
  2 19  2  0
 20  2  1  0
  3 20  1  1
 21  3  1  0
  4 21  2  0
 22  4  1  0
  5 23  1  1
 24  5  1  1
 24  6  1  0
  6 25  1  6
 24  7  1  0
  7 27  1  6
 21  8  1  0
  8 28  2  0
 10  9  1  0
 10 11  1  0
 29 10  2  0
 12 11  1  0
 13 12  2  0
 14 13  1  0
 13 29  1  0
 15 14  1  0
 14 18  2  0
 16 15  2  0
 16 17  1  0
 20 16  1  0
 17 19  1  0
 22 23  2  0
 23 28  1  0
 25 26  1  6
 27 26  1  6
 29 30  1  0
 30 31  3  0
M  CHG  1  24   1
M  END
$$$$
