
     RDKit          3D

 31 35  0  0  0  0  0  0  0  0999 V2000
  -15.0860   -9.2931   27.6577 C   0  0  0  0  0  0  0  0  0  0  0  0
  -12.9195   -8.1179   30.1695 C   0  0  0  0  0  0  0  0  0  0  0  0
  -10.6695   -8.7580   29.3237 C   0  0  0  0  0  0  0  0  0  0  0  0
  -10.5633   -6.4346   28.4925 C   0  0  0  0  0  0  0  0  0  0  0  0
   -9.0887   -3.1828   29.7371 C   0  0  0  0  0  0  0  0  0  0  0  0
   -7.2362   -1.7561   29.2057 C   0  0  0  0  0  0  0  0  0  0  0  0
   -7.0960   -3.2652   31.0275 C   0  0  0  0  0  0  0  0  0  0  0  0
   -9.3939   -6.9139   30.5390 C   0  0  0  0  0  0  0  0  0  0  0  0
  -12.9831  -11.4567   21.3166 N   0  0  0  0  0  0  0  0  0  0  0  0
  -12.7342  -10.5883   22.4464 C   0  0  0  0  0  0  0  0  0  0  0  0
  -11.8120   -9.7993   22.8203 N   0  0  0  0  0  0  0  0  0  0  0  0
  -11.9220   -9.3486   24.0643 N   0  0  0  0  0  0  0  0  0  0  0  0
  -13.0685   -9.9125   24.5791 C   0  0  0  0  0  0  0  0  0  0  0  0
  -13.3365   -9.9061   26.0133 C   0  0  0  0  0  0  0  0  0  0  0  0
  -12.3858   -9.5858   26.9704 C   0  0  0  0  0  0  0  0  0  0  0  0
  -12.8106   -9.1172   28.2302 C   0  0  0  0  0  0  0  0  0  0  0  0
  -14.0875   -8.9824   28.5349 C   0  0  0  0  0  0  0  0  0  0  0  0
  -14.6839   -9.7541   26.3956 C   0  0  0  0  0  0  0  0  0  0  0  0
  -14.2467   -8.3264   29.8083 C   0  0  0  0  0  0  0  0  0  0  0  0
  -12.1354   -8.5630   29.3036 N   0  0  0  0  0  0  0  0  0  0  0  0
  -10.1621   -7.3316   29.4552 C   0  0  0  0  0  0  0  0  0  0  0  0
  -10.1804   -5.1473   28.6448 C   0  0  0  0  0  0  0  0  0  0  0  0
   -9.4332   -4.6262   29.6472 C   0  0  0  0  0  0  0  0  0  0  0  0
   -7.6265   -3.0350   29.7155 N   0  0  1  0  0  4  0  0  0  0  0  0
   -7.4966   -0.6032   30.1554 C   0  0  0  0  0  0  0  0  0  0  0  0
   -7.3658   -0.9738   31.4887 O   0  0  0  0  0  0  0  0  0  0  0  0
   -6.4144   -1.9778   31.5458 C   0  0  0  0  0  0  0  0  0  0  0  0
   -9.0354   -5.5572   30.6213 C   0  0  0  0  0  0  0  0  0  0  0  0
  -13.6611  -10.6836   23.6135 C   0  0  0  0  0  0  0  0  0  0  0  0
  -14.8541  -11.2672   23.5469 C   0  0  0  0  0  0  0  0  0  0  0  0
  -16.0182  -11.8559   23.4935 N   0  0  0  0  0  0  0  0  0  0  0  0
 17  1  2  0
  1 18  1  0
  2 19  2  0
 20  2  1  0
  3 20  1  0
 21  3  1  0
  4 21  2  0
 22  4  1  0
 23  5  1  0
 24  5  1  1
 24  6  1  0
  6 25  1  0
 24  7  1  0
  7 27  1  0
 21  8  1  0
  8 28  2  0
 10  9  1  0
 10 11  1  0
 29 10  2  0
 12 11  1  0
 13 12  2  0
 14 13  1  0
 13 29  1  0
 15 14  1  0
 14 18  2  0
 16 15  2  0
 16 17  1  0
 20 16  1  0
 17 19  1  0
 22 23  2  0
 23 28  1  0
 25 26  1  0
 26 27  1  0
 29 30  1  0
 30 31  3  0
M  CHG  1  24   1
M  END
$$$$
