
     RDKit          3D

 31 35  0  0  0  0  0  0  0  0999 V2000
  -24.3071  -22.0768   11.8829 C   0  0  0  0  0  0  0  0  0  0  0  0
  -22.6676  -24.5228    9.9558 C   0  0  0  0  0  0  0  0  0  0  0  0
  -21.4252  -23.1793    8.2708 C   0  0  0  0  0  0  0  0  0  0  0  0
  -19.9252  -25.0998    7.8681 C   0  0  0  0  0  0  0  0  0  0  0  0
  -20.3270  -28.6061    6.5110 C   0  0  0  0  0  0  0  0  0  0  0  0
  -21.5522  -30.5282    5.7669 C   0  0  0  0  0  0  0  0  0  0  0  0
  -21.5948  -29.8966    8.0505 C   0  0  0  0  0  0  0  0  0  0  0  0
  -22.2164  -25.3439    7.1782 C   0  0  0  0  0  0  0  0  0  0  0  0
  -22.6503  -15.1838   11.1786 N   0  0  0  0  0  0  0  0  0  0  0  0
  -22.2493  -16.5678   11.3058 C   0  0  0  0  0  0  0  0  0  0  0  0
  -21.1611  -17.2217   11.2734 N   0  0  0  0  0  0  0  0  0  0  0  0
  -21.2945  -18.5422   11.2371 N   0  0  0  0  0  0  0  0  0  0  0  0
  -22.6489  -18.7936   11.2487 C   0  0  0  0  0  0  0  0  0  0  0  0
  -23.1776  -20.1060   10.8926 C   0  0  0  0  0  0  0  0  0  0  0  0
  -22.5605  -20.9646    9.9956 C   0  0  0  0  0  0  0  0  0  0  0  0
  -22.8220  -22.3473   10.0780 C   0  0  0  0  0  0  0  0  0  0  0  0
  -23.6454  -22.8537   10.9764 C   0  0  0  0  0  0  0  0  0  0  0  0
  -24.0547  -20.6986   11.8224 C   0  0  0  0  0  0  0  0  0  0  0  0
  -23.6021  -24.2943   10.9608 C   0  0  0  0  0  0  0  0  0  0  0  0
  -22.2501  -23.4501    9.4682 N   0  0  0  0  0  0  0  0  0  0  0  0
  -21.1900  -24.5781    7.7255 C   0  0  0  0  0  0  0  0  0  0  0  0
  -19.7277  -26.3718    7.4562 C   0  0  0  0  0  0  0  0  0  0  0  0
  -20.6410  -27.2080    6.9070 C   0  0  0  0  0  0  0  0  0  0  0  0
  -21.5246  -29.4383    6.6938 N   0  0  1  0  0  4  0  0  0  0  0  0
  -20.5507  -31.6258    6.0690 C   0  0  0  0  0  0  0  0  0  0  0  0
  -20.3261  -31.7791    7.4320 O   0  0  0  0  0  0  0  0  0  0  0  0
  -21.4994  -31.4394    8.0836 C   0  0  0  0  0  0  0  0  0  0  0  0
  -21.9267  -26.6579    6.7718 C   0  0  0  0  0  0  0  0  0  0  0  0
  -23.3248  -17.6039   11.3245 C   0  0  0  0  0  0  0  0  0  0  0  0
  -24.6035  -17.3184   11.5517 C   0  0  0  0  0  0  0  0  0  0  0  0
  -25.8537  -17.0293   11.7930 N   0  0  0  0  0  0  0  0  0  0  0  0
 17  1  2  0
  1 18  1  0
  2 19  2  0
 20  2  1  0
  3 20  1  0
 21  3  1  0
  4 21  2  0
 22  4  1  0
 23  5  1  0
 24  5  1  1
 24  6  1  0
  6 25  1  0
 24  7  1  0
  7 27  1  0
 21  8  1  0
  8 28  2  0
 10  9  1  0
 10 11  1  0
 29 10  2  0
 12 11  1  0
 13 12  2  0
 14 13  1  0
 13 29  1  0
 15 14  1  0
 14 18  2  0
 16 15  2  0
 16 17  1  0
 20 16  1  0
 17 19  1  0
 22 23  2  0
 23 28  1  0
 25 26  1  0
 26 27  1  0
 29 30  1  0
 30 31  3  0
M  CHG  1  24   1
M  END
$$$$
