
     RDKit          3D

 31 35  0  0  0  0  0  0  0  0999 V2000
  -15.2611   -8.6252   24.4839 C   0  0  0  0  0  0  0  0  0  0  0  0
  -14.7231   -7.4606   27.7608 C   0  0  0  0  0  0  0  0  0  0  0  0
  -12.8008   -8.8324   28.5424 C   0  0  0  0  0  0  0  0  0  0  0  0
  -12.4815   -6.7653   29.8561 C   0  0  0  0  0  0  0  0  0  0  0  0
  -13.8629   -5.3772   33.0906 C   0  0  0  0  0  0  0  0  0  0  0  0
  -15.6697   -4.1946   34.1331 C   0  0  0  0  0  0  0  0  0  0  0  0
  -15.2373   -3.9145   31.8200 C   0  0  0  0  0  0  0  0  0  0  0  0
  -13.9223   -8.4442   30.7999 C   0  0  0  0  0  0  0  0  0  0  0  0
  -10.9738  -12.4019   20.6005 N   0  0  0  0  0  0  0  0  0  0  0  0
  -11.0585  -11.6027   21.8032 C   0  0  0  0  0  0  0  0  0  0  0  0
  -10.3241  -11.3715   22.8132 N   0  0  0  0  0  0  0  0  0  0  0  0
  -10.9109  -10.7039   23.7994 N   0  0  0  0  0  0  0  0  0  0  0  0
  -12.2022  -10.4606   23.3859 C   0  0  0  0  0  0  0  0  0  0  0  0
  -13.2320  -10.0392   24.3296 C   0  0  0  0  0  0  0  0  0  0  0  0
  -12.9794   -9.7464   25.6611 C   0  0  0  0  0  0  0  0  0  0  0  0
  -13.8618   -8.8948   26.3562 C   0  0  0  0  0  0  0  0  0  0  0  0
  -14.9302   -8.3728   25.7839 C   0  0  0  0  0  0  0  0  0  0  0  0
  -14.3914   -9.4645   23.7725 C   0  0  0  0  0  0  0  0  0  0  0  0
  -15.5603   -7.4092   26.6509 C   0  0  0  0  0  0  0  0  0  0  0  0
  -13.7980   -8.2852   27.5970 N   0  0  0  0  0  0  0  0  0  0  0  0
  -13.0648   -8.0095   29.7924 C   0  0  0  0  0  0  0  0  0  0  0  0
  -12.7740   -5.9963   30.9284 C   0  0  0  0  0  0  0  0  0  0  0  0
  -13.5840   -6.3105   31.9676 C   0  0  0  0  0  0  0  0  0  0  0  0
  -15.2141   -4.8217   32.9301 N   0  0  1  0  0  4  0  0  0  0  0  0
  -14.9921   -2.8734   34.4397 C   0  0  0  0  0  0  0  0  0  0  0  0
  -14.6475   -2.1739   33.2891 O   0  0  0  0  0  0  0  0  0  0  0  0
  -15.5816   -2.4919   32.3183 C   0  0  0  0  0  0  0  0  0  0  0  0
  -14.1719   -7.5838   31.8831 C   0  0  0  0  0  0  0  0  0  0  0  0
  -12.3707  -10.9653   22.1230 C   0  0  0  0  0  0  0  0  0  0  0  0
  -13.3458  -10.8244   21.2298 C   0  0  0  0  0  0  0  0  0  0  0  0
  -14.3167  -10.6832   20.3683 N   0  0  0  0  0  0  0  0  0  0  0  0
 17  1  2  0
  1 18  1  0
  2 19  2  0
 20  2  1  0
  3 20  1  0
 21  3  1  0
  4 21  2  0
 22  4  1  0
 23  5  1  0
 24  5  1  1
 24  6  1  0
  6 25  1  0
 24  7  1  0
  7 27  1  0
 21  8  1  0
  8 28  2  0
 10  9  1  0
 10 11  1  0
 29 10  2  0
 12 11  1  0
 13 12  2  0
 14 13  1  0
 13 29  1  0
 15 14  1  0
 14 18  2  0
 16 15  2  0
 16 17  1  0
 20 16  1  0
 17 19  1  0
 22 23  2  0
 23 28  1  0
 25 26  1  0
 26 27  1  0
 29 30  1  0
 30 31  3  0
M  CHG  1  24   1
M  END
$$$$
