
     RDKit          3D

 31 35  0  0  0  0  0  0  0  0999 V2000
  -21.5094  -17.5998   14.4733 C   0  0  0  0  0  0  0  0  0  0  0  0
  -23.8025  -19.8145   12.8020 C   0  0  0  0  0  0  0  0  0  0  0  0
  -22.9286  -20.1960   10.5580 C   0  0  0  0  0  0  0  0  0  0  0  0
  -25.1568  -21.1931   11.1854 C   0  0  0  0  0  0  0  0  0  0  0  0
  -27.1762  -24.0755    9.8616 C   0  0  0  0  0  0  0  0  0  0  0  0
  -29.0355  -24.7468    8.5748 C   0  0  0  0  0  0  0  0  0  0  0  0
  -28.9760  -22.5535    9.3060 C   0  0  0  0  0  0  0  0  0  0  0  0
  -23.9663  -22.1435    9.4067 C   0  0  0  0  0  0  0  0  0  0  0  0
  -15.1911  -16.2342   11.9112 N   0  0  0  0  0  0  0  0  0  0  0  0
  -16.6022  -16.3239   11.7543 C   0  0  0  0  0  0  0  0  0  0  0  0
  -17.3772  -15.7635   10.7952 N   0  0  0  0  0  0  0  0  0  0  0  0
  -18.6491  -16.0737   10.9859 N   0  0  0  0  0  0  0  0  0  0  0  0
  -18.7871  -16.8507   12.0737 C   0  0  0  0  0  0  0  0  0  0  0  0
  -20.0112  -17.4056   12.6349 C   0  0  0  0  0  0  0  0  0  0  0  0
  -20.8063  -18.2552   11.8591 C   0  0  0  0  0  0  0  0  0  0  0  0
  -21.9613  -18.7816   12.3925 C   0  0  0  0  0  0  0  0  0  0  0  0
  -22.3029  -18.4496   13.6943 C   0  0  0  0  0  0  0  0  0  0  0  0
  -20.3564  -17.0798   13.9280 C   0  0  0  0  0  0  0  0  0  0  0  0
  -23.4854  -19.1185   13.9436 C   0  0  0  0  0  0  0  0  0  0  0  0
  -22.8500  -19.5950   11.8534 N   0  0  0  0  0  0  0  0  0  0  0  0
  -24.0296  -21.1720   10.3919 C   0  0  0  0  0  0  0  0  0  0  0  0
  -26.1611  -22.1229   11.0118 C   0  0  0  0  0  0  0  0  0  0  0  0
  -26.0602  -23.0763   10.0176 C   0  0  0  0  0  0  0  0  0  0  0  0
  -28.1048  -23.6373    8.8636 N   0  0  1  0  0  4  0  0  0  0  0  0
  -30.0286  -24.3151    7.5161 C   0  0  0  0  0  0  0  0  0  0  0  0
  -29.7125  -23.0219    7.0539 O   0  0  0  0  0  0  0  0  0  0  0  0
  -29.8322  -22.1602    8.1223 C   0  0  0  0  0  0  0  0  0  0  0  0
  -24.9471  -23.0739    9.2161 C   0  0  0  0  0  0  0  0  0  0  0  0
  -17.4838  -17.0075   12.5587 C   0  0  0  0  0  0  0  0  0  0  0  0
  -17.1854  -17.7805   13.7283 C   0  0  0  0  0  0  0  0  0  0  0  0
  -16.9383  -18.4325   14.6776 N   0  0  0  0  0  0  0  0  0  0  0  0
 17  1  2  0
  1 18  1  0
  2 19  2  0
 20  2  1  0
  3 20  1  1
 21  3  1  0
  4 21  2  0
 22  4  1  0
  5 23  1  1
 24  5  1  1
 24  6  1  0
  6 25  1  6
 24  7  1  0
  7 27  1  6
 21  8  1  0
  8 28  2  0
 10  9  1  0
 10 11  1  0
 29 10  2  0
 12 11  1  0
 13 12  2  0
 14 13  1  0
 13 29  1  0
 15 14  1  0
 14 18  2  0
 16 15  2  0
 16 17  1  0
 20 16  1  0
 17 19  1  0
 22 23  2  0
 23 28  1  0
 25 26  1  6
 27 26  1  6
 29 30  1  0
 30 31  3  0
M  CHG  1  24   1
M  END
$$$$
