
     RDKit          3D

 31 35  0  0  0  0  0  0  0  0999 V2000
  -23.4513  -19.5016   12.8568 C   0  0  0  0  0  0  0  0  0  0  0  0
  -24.3755  -21.9988   10.5559 C   0  0  0  0  0  0  0  0  0  0  0  0
  -22.6268  -21.8240    8.7955 C   0  0  0  0  0  0  0  0  0  0  0  0
  -23.5921  -24.0343    8.2636 C   0  0  0  0  0  0  0  0  0  0  0  0
  -22.3989  -27.6181    8.4368 C   0  0  0  0  0  0  0  0  0  0  0  0
  -20.0757  -27.9574    7.9494 C   0  0  0  0  0  0  0  0  0  0  0  0
  -21.7277  -29.2493    6.8457 C   0  0  0  0  0  0  0  0  0  0  0  0
  -21.3926  -24.0120    9.2367 C   0  0  0  0  0  0  0  0  0  0  0  0
  -17.2103  -16.1953   12.6117 N   0  0  0  0  0  0  0  0  0  0  0  0
  -17.9673  -17.4145   12.4302 C   0  0  0  0  0  0  0  0  0  0  0  0
  -17.7427  -18.5859   11.9940 N   0  0  0  0  0  0  0  0  0  0  0  0
  -18.8199  -19.3428   11.8226 N   0  0  0  0  0  0  0  0  0  0  0  0
  -19.8976  -18.5704   12.1963 C   0  0  0  0  0  0  0  0  0  0  0  0
  -21.2604  -18.9499   11.8389 C   0  0  0  0  0  0  0  0  0  0  0  0
  -21.5683  -19.8238   10.8074 C   0  0  0  0  0  0  0  0  0  0  0  0
  -22.7949  -20.5178   10.8387 C   0  0  0  0  0  0  0  0  0  0  0  0
  -23.6683  -20.3559   11.8145 C   0  0  0  0  0  0  0  0  0  0  0  0
  -22.2329  -18.8069   12.8481 C   0  0  0  0  0  0  0  0  0  0  0  0
  -24.7496  -21.3020   11.7004 C   0  0  0  0  0  0  0  0  0  0  0  0
  -23.3064  -21.5573   10.0817 N   0  0  0  0  0  0  0  0  0  0  0  0
  -22.5306  -23.3406    8.7967 C   0  0  0  0  0  0  0  0  0  0  0  0
  -23.4811  -25.3793    8.1898 C   0  0  0  0  0  0  0  0  0  0  0  0
  -22.4331  -26.1396    8.5880 C   0  0  0  0  0  0  0  0  0  0  0  0
  -21.4035  -27.9743    7.4157 N   0  0  1  0  0  4  0  0  0  0  0  0
  -19.7660  -29.1133    8.8805 C   0  0  0  0  0  0  0  0  0  0  0  0
  -20.4388  -30.2764    8.5250 O   0  0  0  0  0  0  0  0  0  0  0  0
  -20.5956  -30.2576    7.1497 C   0  0  0  0  0  0  0  0  0  0  0  0
  -21.3584  -25.4129    9.1274 C   0  0  0  0  0  0  0  0  0  0  0  0
  -19.4467  -17.3493   12.6246 C   0  0  0  0  0  0  0  0  0  0  0  0
  -20.0525  -16.3455   13.2519 C   0  0  0  0  0  0  0  0  0  0  0  0
  -20.6344  -15.3624   13.8841 N   0  0  0  0  0  0  0  0  0  0  0  0
 17  1  2  0
  1 18  1  0
  2 19  2  0
 20  2  1  0
  3 20  1  0
 21  3  1  0
  4 21  2  0
 22  4  1  0
 23  5  1  0
 24  5  1  1
 24  6  1  0
  6 25  1  0
 24  7  1  0
  7 27  1  0
 21  8  1  0
  8 28  2  0
 10  9  1  0
 10 11  1  0
 29 10  2  0
 12 11  1  0
 13 12  2  0
 14 13  1  0
 13 29  1  0
 15 14  1  0
 14 18  2  0
 16 15  2  0
 16 17  1  0
 20 16  1  0
 17 19  1  0
 22 23  2  0
 23 28  1  0
 25 26  1  0
 26 27  1  0
 29 30  1  0
 30 31  3  0
M  CHG  1  24   1
M  END
$$$$
