
     RDKit          3D

 31 35  0  0  0  0  0  0  0  0999 V2000
  -12.1238  -10.6064   27.8875 C   0  0  0  0  0  0  0  0  0  0  0  0
  -13.0636   -7.8967   30.0626 C   0  0  0  0  0  0  0  0  0  0  0  0
  -14.2140   -6.2400   28.6929 C   0  0  0  0  0  0  0  0  0  0  0  0
  -12.0463   -5.0807   29.2495 C   0  0  0  0  0  0  0  0  0  0  0  0
  -11.1396   -1.5241   30.0667 C   0  0  0  0  0  0  0  0  0  0  0  0
  -10.7765    0.7651   29.6296 C   0  0  0  0  0  0  0  0  0  0  0  0
  -10.4561   -0.7209   27.8868 C   0  0  0  0  0  0  0  0  0  0  0  0
  -14.0092   -3.8059   29.1710 C   0  0  0  0  0  0  0  0  0  0  0  0
  -12.8937  -11.0446   21.1100 N   0  0  0  0  0  0  0  0  0  0  0  0
  -13.2385  -10.3706   22.3145 C   0  0  0  0  0  0  0  0  0  0  0  0
  -14.1337   -9.3694   22.4891 N   0  0  0  0  0  0  0  0  0  0  0  0
  -14.1753   -8.9998   23.7587 N   0  0  0  0  0  0  0  0  0  0  0  0
  -13.3164   -9.7295   24.4908 C   0  0  0  0  0  0  0  0  0  0  0  0
  -13.0495   -9.6406   25.9197 C   0  0  0  0  0  0  0  0  0  0  0  0
  -13.4766   -8.5180   26.6361 C   0  0  0  0  0  0  0  0  0  0  0  0
  -13.2264   -8.4374   27.9876 C   0  0  0  0  0  0  0  0  0  0  0  0
  -12.5525   -9.4816   28.6015 C   0  0  0  0  0  0  0  0  0  0  0  0
  -12.3803  -10.6750   26.5360 C   0  0  0  0  0  0  0  0  0  0  0  0
  -12.4548   -9.1217   29.9315 C   0  0  0  0  0  0  0  0  0  0  0  0
  -13.5348   -7.4885   28.8516 N   0  0  0  0  0  0  0  0  0  0  0  0
  -13.4078   -5.0462   29.0357 C   0  0  0  0  0  0  0  0  0  0  0  0
  -11.3247   -3.9518   29.5782 C   0  0  0  0  0  0  0  0  0  0  0  0
  -11.9618   -2.7328   29.7042 C   0  0  0  0  0  0  0  0  0  0  0  0
  -11.2813   -0.5051   29.0708 N   0  0  1  0  0  4  0  0  0  0  0  0
  -10.9187    1.8661   28.5996 C   0  0  0  0  0  0  0  0  0  0  0  0
  -11.5750    1.3752   27.4532 O   0  0  0  0  0  0  0  0  0  0  0  0
  -10.7793    0.3896   26.9114 C   0  0  0  0  0  0  0  0  0  0  0  0
  -13.3163   -2.6753   29.4957 C   0  0  0  0  0  0  0  0  0  0  0  0
  -12.7235  -10.5997   23.5690 C   0  0  0  0  0  0  0  0  0  0  0  0
  -11.7312  -11.5624   23.9473 C   0  0  0  0  0  0  0  0  0  0  0  0
  -10.9128  -12.3579   24.2383 N   0  0  0  0  0  0  0  0  0  0  0  0
 17  1  2  0
  1 18  1  0
  2 19  2  0
 20  2  1  0
  3 20  1  1
 21  3  1  0
  4 21  2  0
 22  4  1  0
  5 23  1  1
 24  5  1  1
 24  6  1  0
  6 25  1  6
 24  7  1  0
  7 27  1  6
 21  8  1  0
  8 28  2  0
 10  9  1  0
 10 11  1  0
 29 10  2  0
 12 11  1  0
 13 12  2  0
 14 13  1  0
 13 29  1  0
 15 14  1  0
 14 18  2  0
 16 15  2  0
 16 17  1  0
 20 16  1  0
 17 19  1  0
 22 23  2  0
 23 28  1  0
 25 26  1  6
 27 26  1  6
 29 30  1  0
 30 31  3  0
M  CHG  1  24   1
M  END
$$$$
