
     RDKit          3D

 31 35  0  0  0  0  0  0  0  0999 V2000
  -13.0082   -0.7591   26.3501 C   0  0  0  0  0  0  0  0  0  0  0  0
  -12.8872   -3.6323   28.5150 C   0  0  0  0  0  0  0  0  0  0  0  0
  -10.6552   -4.5925   28.3128 C   0  0  0  0  0  0  0  0  0  0  0  0
  -12.5417   -6.2300   28.6481 C   0  0  0  0  0  0  0  0  0  0  0  0
  -12.7261   -9.7396   29.9851 C   0  0  0  0  0  0  0  0  0  0  0  0
  -13.4878  -10.4555   27.8706 C   0  0  0  0  0  0  0  0  0  0  0  0
  -11.2261  -10.6465   28.3142 C   0  0  0  0  0  0  0  0  0  0  0  0
  -10.3717   -6.8873   29.2342 C   0  0  0  0  0  0  0  0  0  0  0  0
   -7.6281    2.0870   23.1451 N   0  0  0  0  0  0  0  0  0  0  0  0
   -8.2650    0.9169   23.6444 C   0  0  0  0  0  0  0  0  0  0  0  0
   -7.9468   -0.3780   23.4066 N   0  0  0  0  0  0  0  0  0  0  0  0
   -8.7752   -1.1851   24.0489 N   0  0  0  0  0  0  0  0  0  0  0  0
   -9.6818   -0.4759   24.7426 C   0  0  0  0  0  0  0  0  0  0  0  0
  -10.7686   -0.9726   25.5752 C   0  0  0  0  0  0  0  0  0  0  0  0
  -10.5719   -2.1088   26.3665 C   0  0  0  0  0  0  0  0  0  0  0  0
  -11.5993   -2.5748   27.1557 C   0  0  0  0  0  0  0  0  0  0  0  0
  -12.8082   -1.8964   27.1408 C   0  0  0  0  0  0  0  0  0  0  0  0
  -11.9724   -0.3030   25.5652 C   0  0  0  0  0  0  0  0  0  0  0  0
  -13.6245   -2.5854   28.0165 C   0  0  0  0  0  0  0  0  0  0  0  0
  -11.6380   -3.6109   27.9724 N   0  0  0  0  0  0  0  0  0  0  0  0
  -11.2044   -5.9041   28.7258 C   0  0  0  0  0  0  0  0  0  0  0  0
  -13.0240   -7.4581   29.0512 C   0  0  0  0  0  0  0  0  0  0  0  0
  -12.1607   -8.4121   29.5534 C   0  0  0  0  0  0  0  0  0  0  0  0
  -12.5309  -10.7232   28.9630 N   0  0  1  0  0  4  0  0  0  0  0  0
  -13.3096  -11.4851   26.7746 C   0  0  0  0  0  0  0  0  0  0  0  0
  -12.3538  -12.4453   27.1625 O   0  0  0  0  0  0  0  0  0  0  0  0
  -11.1528  -11.7903   27.3267 C   0  0  0  0  0  0  0  0  0  0  0  0
  -10.8256   -8.1093   29.6396 C   0  0  0  0  0  0  0  0  0  0  0  0
   -9.3535    0.8596   24.4830 C   0  0  0  0  0  0  0  0  0  0  0  0
  -10.0885    1.9557   25.0422 C   0  0  0  0  0  0  0  0  0  0  0  0
  -10.6806    2.8556   25.5186 N   0  0  0  0  0  0  0  0  0  0  0  0
 17  1  2  0
  1 18  1  0
  2 19  2  0
 20  2  1  0
  3 20  1  1
 21  3  1  0
  4 21  2  0
 22  4  1  0
  5 23  1  1
 24  5  1  1
 24  6  1  0
  6 25  1  6
 24  7  1  0
  7 27  1  6
 21  8  1  0
  8 28  2  0
 10  9  1  0
 10 11  1  0
 29 10  2  0
 12 11  1  0
 13 12  2  0
 14 13  1  0
 13 29  1  0
 15 14  1  0
 14 18  2  0
 16 15  2  0
 16 17  1  0
 20 16  1  0
 17 19  1  0
 22 23  2  0
 23 28  1  0
 25 26  1  6
 27 26  1  6
 29 30  1  0
 30 31  3  0
M  CHG  1  24   1
M  END
$$$$
