
     RDKit          3D

 31 35  0  0  0  0  0  0  0  0999 V2000
  -12.1905  -10.1633   28.6621 C   0  0  0  0  0  0  0  0  0  0  0  0
  -13.3672   -7.2705   30.2844 C   0  0  0  0  0  0  0  0  0  0  0  0
  -13.9662   -5.7651   28.3969 C   0  0  0  0  0  0  0  0  0  0  0  0
  -11.7384   -4.7235   28.1679 C   0  0  0  0  0  0  0  0  0  0  0  0
   -9.8940   -1.8864   29.8549 C   0  0  0  0  0  0  0  0  0  0  0  0
  -10.6416   -0.2782   28.2411 C   0  0  0  0  0  0  0  0  0  0  0  0
   -8.3477   -0.4088   28.8212 C   0  0  0  0  0  0  0  0  0  0  0  0
  -13.1517   -3.8960   29.9294 C   0  0  0  0  0  0  0  0  0  0  0  0
  -13.0278  -11.1693   21.6960 N   0  0  0  0  0  0  0  0  0  0  0  0
  -13.5596  -10.6964   22.9555 C   0  0  0  0  0  0  0  0  0  0  0  0
  -14.6008  -10.0841   23.3477 N   0  0  0  0  0  0  0  0  0  0  0  0
  -14.5733   -9.6704   24.6089 N   0  0  0  0  0  0  0  0  0  0  0  0
  -13.3545  -10.0625   25.1172 C   0  0  0  0  0  0  0  0  0  0  0  0
  -12.8396   -9.5046   26.3631 C   0  0  0  0  0  0  0  0  0  0  0  0
  -13.2281   -8.2746   26.8717 C   0  0  0  0  0  0  0  0  0  0  0  0
  -13.1009   -8.0322   28.2545 C   0  0  0  0  0  0  0  0  0  0  0  0
  -12.6130   -8.9356   29.0835 C   0  0  0  0  0  0  0  0  0  0  0  0
  -12.3158  -10.4269   27.2904 C   0  0  0  0  0  0  0  0  0  0  0  0
  -12.7521   -8.5070   30.4526 C   0  0  0  0  0  0  0  0  0  0  0  0
  -13.5472   -7.0109   29.0749 N   0  0  0  0  0  0  0  0  0  0  0  0
  -12.9167   -4.7758   28.8757 C   0  0  0  0  0  0  0  0  0  0  0  0
  -10.8314   -3.7928   28.5392 C   0  0  0  0  0  0  0  0  0  0  0  0
  -10.9441   -2.8918   29.5443 C   0  0  0  0  0  0  0  0  0  0  0  0
   -9.5672   -1.1387   28.6324 N   0  0  1  0  0  4  0  0  0  0  0  0
  -10.8167    0.9392   29.1277 C   0  0  0  0  0  0  0  0  0  0  0  0
   -9.6103    1.3985   29.6430 O   0  0  0  0  0  0  0  0  0  0  0  0
   -8.6275    1.1079   28.7124 C   0  0  0  0  0  0  0  0  0  0  0  0
  -12.1550   -2.9594   30.2536 C   0  0  0  0  0  0  0  0  0  0  0  0
  -12.6646  -10.7456   24.1500 C   0  0  0  0  0  0  0  0  0  0  0  0
  -11.5542  -11.4759   24.1951 C   0  0  0  0  0  0  0  0  0  0  0  0
  -10.4611  -12.1870   24.2592 N   0  0  0  0  0  0  0  0  0  0  0  0
 17  1  2  0
  1 18  1  0
  2 19  2  0
 20  2  1  0
  3 20  1  0
 21  3  1  0
  4 21  2  0
 22  4  1  0
 23  5  1  0
 24  5  1  1
 24  6  1  0
  6 25  1  0
 24  7  1  0
  7 27  1  0
 21  8  1  0
  8 28  2  0
 10  9  1  0
 10 11  1  0
 29 10  2  0
 12 11  1  0
 13 12  2  0
 14 13  1  0
 13 29  1  0
 15 14  1  0
 14 18  2  0
 16 15  2  0
 16 17  1  0
 20 16  1  0
 17 19  1  0
 22 23  2  0
 23 28  1  0
 25 26  1  0
 26 27  1  0
 29 30  1  0
 30 31  3  0
M  CHG  1  24   1
M  END
$$$$
