
     RDKit          3D

 31 35  0  0  0  0  0  0  0  0999 V2000
  -18.4768  -16.0314   19.4508 C   0  0  0  0  0  0  0  0  0  0  0  0
  -20.3598  -17.3034   16.6592 C   0  0  0  0  0  0  0  0  0  0  0  0
  -19.6695  -16.0417   14.6904 C   0  0  0  0  0  0  0  0  0  0  0  0
  -21.4496  -17.8180   14.5207 C   0  0  0  0  0  0  0  0  0  0  0  0
  -23.5219  -19.1536   11.6816 C   0  0  0  0  0  0  0  0  0  0  0  0
  -22.7859  -21.3604   12.0716 C   0  0  0  0  0  0  0  0  0  0  0  0
  -23.6568  -20.8759    9.9846 C   0  0  0  0  0  0  0  0  0  0  0  0
  -20.8512  -16.6446   12.5844 C   0  0  0  0  0  0  0  0  0  0  0  0
  -14.5724  -10.3499   19.3320 N   0  0  0  0  0  0  0  0  0  0  0  0
  -15.0625  -11.5080   18.6668 C   0  0  0  0  0  0  0  0  0  0  0  0
  -14.6213  -12.0624   17.5124 N   0  0  0  0  0  0  0  0  0  0  0  0
  -15.3335  -13.1357   17.2109 N   0  0  0  0  0  0  0  0  0  0  0  0
  -16.2794  -13.3508   18.1410 C   0  0  0  0  0  0  0  0  0  0  0  0
  -17.2729  -14.4148   18.1862 C   0  0  0  0  0  0  0  0  0  0  0  0
  -17.9281  -14.8015   17.0127 C   0  0  0  0  0  0  0  0  0  0  0  0
  -18.8644  -15.8100   17.0567 C   0  0  0  0  0  0  0  0  0  0  0  0
  -19.1307  -16.4161   18.2747 C   0  0  0  0  0  0  0  0  0  0  0  0
  -17.5422  -15.0213   19.3933 C   0  0  0  0  0  0  0  0  0  0  0  0
  -20.0913  -17.3713   18.0051 C   0  0  0  0  0  0  0  0  0  0  0  0
  -19.5929  -16.3332   16.0884 N   0  0  0  0  0  0  0  0  0  0  0  0
  -20.6659  -16.8420   13.9427 C   0  0  0  0  0  0  0  0  0  0  0  0
  -22.3622  -18.5543   13.7941 C   0  0  0  0  0  0  0  0  0  0  0  0
  -22.5170  -18.3274   12.4405 C   0  0  0  0  0  0  0  0  0  0  0  0
  -22.8841  -20.2801   11.0696 N   0  0  1  0  0  4  0  0  0  0  0  0
  -22.1088  -22.5663   11.4548 C   0  0  0  0  0  0  0  0  0  0  0  0
  -21.6894  -22.2681   10.1428 O   0  0  0  0  0  0  0  0  0  0  0  0
  -22.8170  -21.9910    9.4012 C   0  0  0  0  0  0  0  0  0  0  0  0
  -21.7476  -17.3608   11.8445 C   0  0  0  0  0  0  0  0  0  0  0  0
  -16.1033  -12.3142   19.0646 C   0  0  0  0  0  0  0  0  0  0  0  0
  -16.9246  -12.1745   20.2310 C   0  0  0  0  0  0  0  0  0  0  0  0
  -17.6087  -12.0435   21.1807 N   0  0  0  0  0  0  0  0  0  0  0  0
 17  1  2  0
  1 18  1  0
  2 19  2  0
 20  2  1  0
  3 20  1  1
 21  3  1  0
  4 21  2  0
 22  4  1  0
  5 23  1  1
 24  5  1  1
 24  6  1  0
  6 25  1  6
 24  7  1  0
  7 27  1  6
 21  8  1  0
  8 28  2  0
 10  9  1  0
 10 11  1  0
 29 10  2  0
 12 11  1  0
 13 12  2  0
 14 13  1  0
 13 29  1  0
 15 14  1  0
 14 18  2  0
 16 15  2  0
 16 17  1  0
 20 16  1  0
 17 19  1  0
 22 23  2  0
 23 28  1  0
 25 26  1  6
 27 26  1  6
 29 30  1  0
 30 31  3  0
M  CHG  1  24   1
M  END
$$$$
