
     RDKit          3D

 31 35  0  0  0  0  0  0  0  0999 V2000
  -20.8984  -18.3409   10.0285 C   0  0  0  0  0  0  0  0  0  0  0  0
  -22.6193  -21.4011    9.7876 C   0  0  0  0  0  0  0  0  0  0  0  0
  -22.0844  -22.5244   11.9416 C   0  0  0  0  0  0  0  0  0  0  0  0
  -22.1535  -24.7835   10.9456 C   0  0  0  0  0  0  0  0  0  0  0  0
  -24.8397  -27.0245    9.5105 C   0  0  0  0  0  0  0  0  0  0  0  0
  -24.3466  -29.0349    8.3003 C   0  0  0  0  0  0  0  0  0  0  0  0
  -23.7467  -26.9249    7.4038 C   0  0  0  0  0  0  0  0  0  0  0  0
  -24.2155  -23.5458   10.9823 C   0  0  0  0  0  0  0  0  0  0  0  0
  -18.1605  -15.5980   15.8028 N   0  0  0  0  0  0  0  0  0  0  0  0
  -19.1186  -16.5485   15.2821 C   0  0  0  0  0  0  0  0  0  0  0  0
  -19.8564  -17.4691   15.7522 N   0  0  0  0  0  0  0  0  0  0  0  0
  -20.4455  -18.2409   14.8465 N   0  0  0  0  0  0  0  0  0  0  0  0
  -20.0455  -17.7666   13.6166 C   0  0  0  0  0  0  0  0  0  0  0  0
  -20.2292  -18.5578   12.4046 C   0  0  0  0  0  0  0  0  0  0  0  0
  -20.7714  -19.8339   12.3958 C   0  0  0  0  0  0  0  0  0  0  0  0
  -21.3707  -20.3172   11.2150 C   0  0  0  0  0  0  0  0  0  0  0  0
  -21.4244  -19.5978   10.1099 C   0  0  0  0  0  0  0  0  0  0  0  0
  -20.3041  -17.8387   11.1954 C   0  0  0  0  0  0  0  0  0  0  0  0
  -22.2357  -20.2474    9.1113 C   0  0  0  0  0  0  0  0  0  0  0  0
  -22.1333  -21.4384   10.9387 N   0  0  0  0  0  0  0  0  0  0  0  0
  -22.8504  -23.6354   11.2428 C   0  0  0  0  0  0  0  0  0  0  0  0
  -22.8457  -25.8054   10.3948 C   0  0  0  0  0  0  0  0  0  0  0  0
  -24.1657  -25.8339   10.0920 C   0  0  0  0  0  0  0  0  0  0  0  0
  -23.9113  -27.7041    8.5960 N   0  0  1  0  0  4  0  0  0  0  0  0
  -25.5509  -29.1046    7.3818 C   0  0  0  0  0  0  0  0  0  0  0  0
  -25.5782  -28.0628    6.4621 O   0  0  0  0  0  0  0  0  0  0  0  0
  -24.2650  -27.7231    6.1853 C   0  0  0  0  0  0  0  0  0  0  0  0
  -24.8603  -24.6534   10.4050 C   0  0  0  0  0  0  0  0  0  0  0  0
  -19.2325  -16.6785   13.7987 C   0  0  0  0  0  0  0  0  0  0  0  0
  -18.7553  -15.7710   12.9520 C   0  0  0  0  0  0  0  0  0  0  0  0
  -18.2963  -14.8649   12.1316 N   0  0  0  0  0  0  0  0  0  0  0  0
 17  1  2  0
  1 18  1  0
  2 19  2  0
 20  2  1  0
  3 20  1  0
 21  3  1  0
  4 21  2  0
 22  4  1  0
 23  5  1  0
 24  5  1  1
 24  6  1  0
  6 25  1  0
 24  7  1  0
  7 27  1  0
 21  8  1  0
  8 28  2  0
 10  9  1  0
 10 11  1  0
 29 10  2  0
 12 11  1  0
 13 12  2  0
 14 13  1  0
 13 29  1  0
 15 14  1  0
 14 18  2  0
 16 15  2  0
 16 17  1  0
 20 16  1  0
 17 19  1  0
 22 23  2  0
 23 28  1  0
 25 26  1  0
 26 27  1  0
 29 30  1  0
 30 31  3  0
M  CHG  1  24   1
M  END
$$$$
