
     RDKit          3D

 31 35  0  0  0  0  0  0  0  0999 V2000
  -23.1911  -17.5994   13.5377 C   0  0  0  0  0  0  0  0  0  0  0  0
  -25.0444  -20.3914   12.4635 C   0  0  0  0  0  0  0  0  0  0  0  0
  -23.5200  -21.4923   10.8350 C   0  0  0  0  0  0  0  0  0  0  0  0
  -25.8325  -22.0727   10.1901 C   0  0  0  0  0  0  0  0  0  0  0  0
  -27.9987  -25.1656   10.3867 C   0  0  0  0  0  0  0  0  0  0  0  0
  -29.6502  -24.0115    9.0865 C   0  0  0  0  0  0  0  0  0  0  0  0
  -30.2689  -25.1251   11.0847 C   0  0  0  0  0  0  0  0  0  0  0  0
  -24.5611  -23.7679   11.3280 C   0  0  0  0  0  0  0  0  0  0  0  0
  -16.3498  -16.6628   12.2716 N   0  0  0  0  0  0  0  0  0  0  0  0
  -17.4262  -17.6066   12.4789 C   0  0  0  0  0  0  0  0  0  0  0  0
  -17.5778  -18.8656   12.4104 N   0  0  0  0  0  0  0  0  0  0  0  0
  -18.8328  -19.2906   12.4946 N   0  0  0  0  0  0  0  0  0  0  0  0
  -19.6126  -18.1642   12.6394 C   0  0  0  0  0  0  0  0  0  0  0  0
  -21.0569  -18.2132   12.4382 C   0  0  0  0  0  0  0  0  0  0  0  0
  -21.7150  -19.2864   11.8571 C   0  0  0  0  0  0  0  0  0  0  0  0
  -23.0799  -19.4916   12.1436 C   0  0  0  0  0  0  0  0  0  0  0  0
  -23.7582  -18.6881   12.9409 C   0  0  0  0  0  0  0  0  0  0  0  0
  -21.8314  -17.3819   13.2713 C   0  0  0  0  0  0  0  0  0  0  0  0
  -25.0741  -19.2140   13.2040 C   0  0  0  0  0  0  0  0  0  0  0  0
  -23.9504  -20.5335   11.8757 N   0  0  0  0  0  0  0  0  0  0  0  0
  -24.6763  -22.4782   10.8153 C   0  0  0  0  0  0  0  0  0  0  0  0
  -26.8381  -22.9713   10.1000 C   0  0  0  0  0  0  0  0  0  0  0  0
  -26.8452  -24.2444   10.5624 C   0  0  0  0  0  0  0  0  0  0  0  0
  -29.2444  -24.3858   10.4068 N   0  0  1  0  0  4  0  0  0  0  0  0
  -30.1954  -25.1571    8.2562 C   0  0  0  0  0  0  0  0  0  0  0  0
  -30.8610  -26.1023    9.0279 O   0  0  0  0  0  0  0  0  0  0  0  0
  -31.4225  -25.4350   10.1030 C   0  0  0  0  0  0  0  0  0  0  0  0
  -25.6551  -24.6405   11.1954 C   0  0  0  0  0  0  0  0  0  0  0  0
  -18.8023  -17.0596   12.6725 C   0  0  0  0  0  0  0  0  0  0  0  0
  -19.0410  -15.7882   12.9808 C   0  0  0  0  0  0  0  0  0  0  0  0
  -19.2550  -14.5357   13.2811 N   0  0  0  0  0  0  0  0  0  0  0  0
 17  1  2  0
  1 18  1  0
  2 19  2  0
 20  2  1  0
  3 20  1  0
 21  3  1  0
  4 21  2  0
 22  4  1  0
 23  5  1  0
 24  5  1  6
 24  6  1  0
  6 25  1  0
 24  7  1  0
  7 27  1  0
 21  8  1  0
  8 28  2  0
 10  9  1  0
 10 11  1  0
 29 10  2  0
 12 11  1  0
 13 12  2  0
 14 13  1  0
 13 29  1  0
 15 14  1  0
 14 18  2  0
 16 15  2  0
 16 17  1  0
 20 16  1  0
 17 19  1  0
 22 23  2  0
 23 28  1  0
 25 26  1  0
 26 27  1  0
 29 30  1  0
 30 31  3  0
M  CHG  1  24   1
M  END
$$$$
