
     RDKit          3D

 31 35  0  0  0  0  0  0  0  0999 V2000
  -14.6684  -10.9964   26.8602 C   0  0  0  0  0  0  0  0  0  0  0  0
  -13.3333   -9.4443   29.8208 C   0  0  0  0  0  0  0  0  0  0  0  0
  -11.3191   -8.2414   29.1571 C   0  0  0  0  0  0  0  0  0  0  0  0
  -10.6830   -5.8566   29.6682 C   0  0  0  0  0  0  0  0  0  0  0  0
  -12.6128   -2.6338   29.8352 C   0  0  0  0  0  0  0  0  0  0  0  0
  -12.8473   -0.5222   28.8107 C   0  0  0  0  0  0  0  0  0  0  0  0
  -11.0063   -1.7954   28.2288 C   0  0  0  0  0  0  0  0  0  0  0  0
  -12.9174   -6.3333   29.1538 C   0  0  0  0  0  0  0  0  0  0  0  0
  -12.5226   -9.5591   20.4472 N   0  0  0  0  0  0  0  0  0  0  0  0
  -12.2218   -9.8132   21.8143 C   0  0  0  0  0  0  0  0  0  0  0  0
  -11.0265  -10.1334   22.3649 N   0  0  0  0  0  0  0  0  0  0  0  0
  -11.1462  -10.2961   23.6724 N   0  0  0  0  0  0  0  0  0  0  0  0
  -12.4177  -10.0948   24.0583 C   0  0  0  0  0  0  0  0  0  0  0  0
  -12.9757  -10.1796   25.4008 C   0  0  0  0  0  0  0  0  0  0  0  0
  -12.3405   -9.5209   26.4584 C   0  0  0  0  0  0  0  0  0  0  0  0
  -12.8715   -9.5993   27.7262 C   0  0  0  0  0  0  0  0  0  0  0  0
  -14.0303  -10.3361   27.9164 C   0  0  0  0  0  0  0  0  0  0  0  0
  -14.1271  -10.9100   25.5966 C   0  0  0  0  0  0  0  0  0  0  0  0
  -14.3148  -10.2283   29.2637 C   0  0  0  0  0  0  0  0  0  0  0  0
  -12.4495   -9.0644   28.8566 N   0  0  0  0  0  0  0  0  0  0  0  0
  -11.6258   -6.8027   29.3266 C   0  0  0  0  0  0  0  0  0  0  0  0
  -11.0028   -4.5244   29.8290 C   0  0  0  0  0  0  0  0  0  0  0  0
  -12.3033   -4.0958   29.6481 C   0  0  0  0  0  0  0  0  0  0  0  0
  -12.4090   -1.9183   28.6118 N   0  0  1  0  0  4  0  0  0  0  0  0
  -12.6493    0.2605   27.5295 C   0  0  0  0  0  0  0  0  0  0  0  0
  -12.1972   -0.5944   26.5045 O   0  0  0  0  0  0  0  0  0  0  0  0
  -10.9712   -1.0905   26.8905 C   0  0  0  0  0  0  0  0  0  0  0  0
  -13.2579   -5.0202   29.3078 C   0  0  0  0  0  0  0  0  0  0  0  0
  -13.0977   -9.7877   22.8743 C   0  0  0  0  0  0  0  0  0  0  0  0
  -14.5016   -9.5005   22.8451 C   0  0  0  0  0  0  0  0  0  0  0  0
  -15.6511   -9.2450   22.8158 N   0  0  0  0  0  0  0  0  0  0  0  0
 17  1  2  0
  1 18  1  0
  2 19  2  0
 20  2  1  0
  3 20  1  1
 21  3  1  0
  4 21  2  0
 22  4  1  0
  5 23  1  1
 24  5  1  1
 24  6  1  0
  6 25  1  6
 24  7  1  0
  7 27  1  6
 21  8  1  0
  8 28  2  0
 10  9  1  0
 10 11  1  0
 29 10  2  0
 12 11  1  0
 13 12  2  0
 14 13  1  0
 13 29  1  0
 15 14  1  0
 14 18  2  0
 16 15  2  0
 16 17  1  0
 20 16  1  0
 17 19  1  0
 22 23  2  0
 23 28  1  0
 25 26  1  6
 27 26  1  6
 29 30  1  0
 30 31  3  0
M  CHG  1  24   1
M  END
$$$$
