
     RDKit          3D

 31 35  0  0  0  0  0  0  0  0999 V2000
  -24.1162  -19.7769   12.0110 C   0  0  0  0  0  0  0  0  0  0  0  0
  -24.2707  -22.7958   10.2093 C   0  0  0  0  0  0  0  0  0  0  0  0
  -22.0190  -22.9485    9.1632 C   0  0  0  0  0  0  0  0  0  0  0  0
  -23.0084  -24.9796    8.1651 C   0  0  0  0  0  0  0  0  0  0  0  0
  -22.9457  -28.6796    8.9418 C   0  0  0  0  0  0  0  0  0  0  0  0
  -21.7551  -30.7580    9.0518 C   0  0  0  0  0  0  0  0  0  0  0  0
  -21.1072  -29.0926    7.4954 C   0  0  0  0  0  0  0  0  0  0  0  0
  -21.7543  -25.2648   10.1976 C   0  0  0  0  0  0  0  0  0  0  0  0
  -18.1362  -16.2491   13.1953 N   0  0  0  0  0  0  0  0  0  0  0  0
  -18.7848  -17.5294   13.0144 C   0  0  0  0  0  0  0  0  0  0  0  0
  -18.4227  -18.7416   12.9029 N   0  0  0  0  0  0  0  0  0  0  0  0
  -19.3797  -19.5877   12.5412 N   0  0  0  0  0  0  0  0  0  0  0  0
  -20.5249  -18.8359   12.3964 C   0  0  0  0  0  0  0  0  0  0  0  0
  -21.6929  -19.3635   11.6991 C   0  0  0  0  0  0  0  0  0  0  0  0
  -21.6547  -20.4729   10.8683 C   0  0  0  0  0  0  0  0  0  0  0  0
  -22.8383  -21.2058   10.6467 C   0  0  0  0  0  0  0  0  0  0  0  0
  -23.9884  -20.8648   11.1966 C   0  0  0  0  0  0  0  0  0  0  0  0
  -22.9481  -19.0385   12.2503 C   0  0  0  0  0  0  0  0  0  0  0  0
  -24.9935  -21.8688   10.9533 C   0  0  0  0  0  0  0  0  0  0  0  0
  -23.0906  -22.4217   10.0359 N   0  0  0  0  0  0  0  0  0  0  0  0
  -22.2838  -24.4444    9.2046 C   0  0  0  0  0  0  0  0  0  0  0  0
  -23.1818  -26.3200    8.1539 C   0  0  0  0  0  0  0  0  0  0  0  0
  -22.7224  -27.2147    9.0612 C   0  0  0  0  0  0  0  0  0  0  0  0
  -21.6477  -29.3539    8.7974 N   0  0  1  0  0  4  0  0  0  0  0  0
  -22.4586  -31.5355    7.9565 C   0  0  0  0  0  0  0  0  0  0  0  0
  -22.2357  -30.9958    6.6952 O   0  0  0  0  0  0  0  0  0  0  0  0
  -20.9776  -30.4185    6.7107 C   0  0  0  0  0  0  0  0  0  0  0  0
  -21.9829  -26.6492   10.1136 C   0  0  0  0  0  0  0  0  0  0  0  0
  -20.2464  -17.5307   12.7078 C   0  0  0  0  0  0  0  0  0  0  0  0
  -21.0303  -16.4750   12.9059 C   0  0  0  0  0  0  0  0  0  0  0  0
  -21.8167  -15.4502   13.0959 N   0  0  0  0  0  0  0  0  0  0  0  0
 17  1  2  0
  1 18  1  0
  2 19  2  0
 20  2  1  0
  3 20  1  0
 21  3  1  0
  4 21  2  0
 22  4  1  0
 23  5  1  0
 24  5  1  6
 24  6  1  0
  6 25  1  0
 24  7  1  0
  7 27  1  0
 21  8  1  0
  8 28  2  0
 10  9  1  0
 10 11  1  0
 29 10  2  0
 12 11  1  0
 13 12  2  0
 14 13  1  0
 13 29  1  0
 15 14  1  0
 14 18  2  0
 16 15  2  0
 16 17  1  0
 20 16  1  0
 17 19  1  0
 22 23  2  0
 23 28  1  0
 25 26  1  0
 26 27  1  0
 29 30  1  0
 30 31  3  0
M  CHG  1  24   1
M  END
$$$$
