
     RDKit          3D

 31 35  0  0  0  0  0  0  0  0999 V2000
  -22.0734  -16.6830   12.9881 C   0  0  0  0  0  0  0  0  0  0  0  0
  -24.0816  -19.5369   12.1059 C   0  0  0  0  0  0  0  0  0  0  0  0
  -22.5578  -21.4057   11.7454 C   0  0  0  0  0  0  0  0  0  0  0  0
  -24.7532  -21.5625   10.5172 C   0  0  0  0  0  0  0  0  0  0  0  0
  -26.0004  -23.7088    7.6930 C   0  0  0  0  0  0  0  0  0  0  0  0
  -25.4585  -25.9938    7.9145 C   0  0  0  0  0  0  0  0  0  0  0  0
  -26.7785  -25.0428    9.5584 C   0  0  0  0  0  0  0  0  0  0  0  0
  -23.0063  -22.9828    9.8727 C   0  0  0  0  0  0  0  0  0  0  0  0
  -15.2629  -16.2227   13.2823 N   0  0  0  0  0  0  0  0  0  0  0  0
  -16.4027  -17.0672   13.1746 C   0  0  0  0  0  0  0  0  0  0  0  0
  -16.4445  -18.4207   13.1452 N   0  0  0  0  0  0  0  0  0  0  0  0
  -17.6929  -18.8444   13.0347 N   0  0  0  0  0  0  0  0  0  0  0  0
  -18.5416  -17.8036   12.9847 C   0  0  0  0  0  0  0  0  0  0  0  0
  -19.9924  -17.8297   12.8596 C   0  0  0  0  0  0  0  0  0  0  0  0
  -20.6363  -19.0194   12.5051 C   0  0  0  0  0  0  0  0  0  0  0  0
  -22.0081  -19.0430   12.3909 C   0  0  0  0  0  0  0  0  0  0  0  0
  -22.7147  -17.8752   12.6331 C   0  0  0  0  0  0  0  0  0  0  0  0
  -20.7006  -16.6726   13.0991 C   0  0  0  0  0  0  0  0  0  0  0  0
  -24.0427  -18.2063   12.4466 C   0  0  0  0  0  0  0  0  0  0  0  0
  -22.8156  -20.0384   12.0759 N   0  0  0  0  0  0  0  0  0  0  0  0
  -23.4516  -21.9738   10.7106 C   0  0  0  0  0  0  0  0  0  0  0  0
  -25.5646  -22.1195    9.5505 C   0  0  0  0  0  0  0  0  0  0  0  0
  -25.0830  -23.1247    8.7348 C   0  0  0  0  0  0  0  0  0  0  0  0
  -26.5074  -24.9760    8.1261 N   0  0  1  0  0  4  0  0  0  0  0  0
  -25.9679  -27.3490    8.3586 C   0  0  0  0  0  0  0  0  0  0  0  0
  -27.3181  -27.2543    8.7510 O   0  0  0  0  0  0  0  0  0  0  0  0
  -27.3752  -26.4053    9.8347 C   0  0  0  0  0  0  0  0  0  0  0  0
  -23.7905  -23.5495    8.9095 C   0  0  0  0  0  0  0  0  0  0  0  0
  -17.7175  -16.6761   13.0743 C   0  0  0  0  0  0  0  0  0  0  0  0
  -18.2362  -15.3400   13.0568 C   0  0  0  0  0  0  0  0  0  0  0  0
  -18.6431  -14.2349   13.0425 N   0  0  0  0  0  0  0  0  0  0  0  0
 17  1  2  0
  1 18  1  0
  2 19  2  0
 20  2  1  0
  3 20  1  1
 21  3  1  0
  4 21  2  0
 22  4  1  0
  5 23  1  1
 24  5  1  1
 24  6  1  0
  6 25  1  6
 24  7  1  0
  7 27  1  6
 21  8  1  0
  8 28  2  0
 10  9  1  0
 10 11  1  0
 29 10  2  0
 12 11  1  0
 13 12  2  0
 14 13  1  0
 13 29  1  0
 15 14  1  0
 14 18  2  0
 16 15  2  0
 16 17  1  0
 20 16  1  0
 17 19  1  0
 22 23  2  0
 23 28  1  0
 25 26  1  6
 27 26  1  6
 29 30  1  0
 30 31  3  0
M  CHG  1  24   1
M  END
$$$$
