
     RDKit          3D

 31 35  0  0  0  0  0  0  0  0999 V2000
  -23.8200  -19.3855   10.9259 C   0  0  0  0  0  0  0  0  0  0  0  0
  -24.0973  -22.9150   10.2762 C   0  0  0  0  0  0  0  0  0  0  0  0
  -21.9820  -23.9358   10.9305 C   0  0  0  0  0  0  0  0  0  0  0  0
  -21.5084  -23.7880    8.4594 C   0  0  0  0  0  0  0  0  0  0  0  0
  -19.2263  -25.6680    6.1364 C   0  0  0  0  0  0  0  0  0  0  0  0
  -20.9390  -25.2700    4.5642 C   0  0  0  0  0  0  0  0  0  0  0  0
  -19.5061  -27.0399    4.1606 C   0  0  0  0  0  0  0  0  0  0  0  0
  -20.3500  -25.3798    9.7277 C   0  0  0  0  0  0  0  0  0  0  0  0
  -18.6542  -16.0191   13.8701 N   0  0  0  0  0  0  0  0  0  0  0  0
  -19.1126  -17.2281   13.2767 C   0  0  0  0  0  0  0  0  0  0  0  0
  -18.4027  -18.3469   12.9960 N   0  0  0  0  0  0  0  0  0  0  0  0
  -19.1799  -19.2632   12.4422 N   0  0  0  0  0  0  0  0  0  0  0  0
  -20.4384  -18.8063   12.3254 C   0  0  0  0  0  0  0  0  0  0  0  0
  -21.5969  -19.4904   11.7679 C   0  0  0  0  0  0  0  0  0  0  0  0
  -21.5555  -20.8741   11.5692 C   0  0  0  0  0  0  0  0  0  0  0  0
  -22.6530  -21.5196   11.0454 C   0  0  0  0  0  0  0  0  0  0  0  0
  -23.7754  -20.7703   10.7283 C   0  0  0  0  0  0  0  0  0  0  0  0
  -22.7155  -18.7517   11.4508 C   0  0  0  0  0  0  0  0  0  0  0  0
  -24.6933  -21.6775   10.2360 C   0  0  0  0  0  0  0  0  0  0  0  0
  -22.8367  -22.7992   10.7789 N   0  0  0  0  0  0  0  0  0  0  0  0
  -21.2829  -24.3565    9.6949 C   0  0  0  0  0  0  0  0  0  0  0  0
  -20.8479  -24.2099    7.3241 C   0  0  0  0  0  0  0  0  0  0  0  0
  -19.9245  -25.2343    7.3984 C   0  0  0  0  0  0  0  0  0  0  0  0
  -20.1483  -26.3117    5.2499 N   0  0  1  0  0  4  0  0  0  0  0  0
  -21.9295  -25.9211    3.6218 C   0  0  0  0  0  0  0  0  0  0  0  0
  -21.8691  -27.3233    3.7486 O   0  0  0  0  0  0  0  0  0  0  0  0
  -20.6042  -27.7185    3.3716 C   0  0  0  0  0  0  0  0  0  0  0  0
  -19.6843  -25.8145    8.6179 C   0  0  0  0  0  0  0  0  0  0  0  0
  -20.3912  -17.5127   12.8574 C   0  0  0  0  0  0  0  0  0  0  0  0
  -21.5448  -16.6647   12.9229 C   0  0  0  0  0  0  0  0  0  0  0  0
  -22.4851  -15.9589   12.9935 N   0  0  0  0  0  0  0  0  0  0  0  0
 17  1  2  0
  1 18  1  0
  2 19  2  0
 20  2  1  0
  3 20  1  1
 21  3  1  0
  4 21  2  0
 22  4  1  0
  5 23  1  1
 24  5  1  1
 24  6  1  0
  6 25  1  6
 24  7  1  0
  7 27  1  6
 21  8  1  0
  8 28  2  0
 10  9  1  0
 10 11  1  0
 29 10  2  0
 12 11  1  0
 13 12  2  0
 14 13  1  0
 13 29  1  0
 15 14  1  0
 14 18  2  0
 16 15  2  0
 16 17  1  0
 20 16  1  0
 17 19  1  0
 22 23  2  0
 23 28  1  0
 25 26  1  6
 27 26  1  6
 29 30  1  0
 30 31  3  0
M  CHG  1  24   1
M  END
$$$$
