
     RDKit          3D

 31 35  0  0  0  0  0  0  0  0999 V2000
  -22.0289  -19.4048   14.1625 C   0  0  0  0  0  0  0  0  0  0  0  0
  -23.8536  -21.7993   12.3400 C   0  0  0  0  0  0  0  0  0  0  0  0
  -23.7650  -20.9289   10.0115 C   0  0  0  0  0  0  0  0  0  0  0  0
  -24.2569  -23.2498    9.3245 C   0  0  0  0  0  0  0  0  0  0  0  0
  -22.2770  -26.1051    7.8330 C   0  0  0  0  0  0  0  0  0  0  0  0
  -21.3556  -27.2557    9.7243 C   0  0  0  0  0  0  0  0  0  0  0  0
  -20.3942  -27.5305    7.5758 C   0  0  0  0  0  0  0  0  0  0  0  0
  -21.9699  -22.5249    9.1538 C   0  0  0  0  0  0  0  0  0  0  0  0
  -17.1531  -15.2348   12.2070 N   0  0  0  0  0  0  0  0  0  0  0  0
  -18.2470  -15.9830   11.6273 C   0  0  0  0  0  0  0  0  0  0  0  0
  -18.9514  -15.9229   10.5723 N   0  0  0  0  0  0  0  0  0  0  0  0
  -20.0097  -16.7243   10.5514 N   0  0  0  0  0  0  0  0  0  0  0  0
  -20.0025  -17.4044   11.7493 C   0  0  0  0  0  0  0  0  0  0  0  0
  -21.1811  -18.1267   12.2161 C   0  0  0  0  0  0  0  0  0  0  0  0
  -21.9582  -18.9357   11.4013 C   0  0  0  0  0  0  0  0  0  0  0  0
  -22.7316  -19.9588   11.9863 C   0  0  0  0  0  0  0  0  0  0  0  0
  -22.7496  -20.1673   13.2892 C   0  0  0  0  0  0  0  0  0  0  0  0
  -21.2467  -18.3860   13.5994 C   0  0  0  0  0  0  0  0  0  0  0  0
  -23.4746  -21.3714   13.6084 C   0  0  0  0  0  0  0  0  0  0  0  0
  -23.4510  -21.0145   11.4542 N   0  0  0  0  0  0  0  0  0  0  0  0
  -23.2957  -22.2825    9.5045 C   0  0  0  0  0  0  0  0  0  0  0  0
  -23.8595  -24.4307    8.8006 C   0  0  0  0  0  0  0  0  0  0  0  0
  -22.6057  -24.7831    8.4282 C   0  0  0  0  0  0  0  0  0  0  0  0
  -21.0617  -26.6309    8.4708 N   0  0  1  0  0  4  0  0  0  0  0  0
  -22.0597  -28.5929    9.6017 C   0  0  0  0  0  0  0  0  0  0  0  0
  -21.6764  -29.2923    8.4634 O   0  0  0  0  0  0  0  0  0  0  0  0
  -20.3633  -28.9485    8.1913 C   0  0  0  0  0  0  0  0  0  0  0  0
  -21.6390  -23.7813    8.6175 C   0  0  0  0  0  0  0  0  0  0  0  0
  -18.9053  -17.0210   12.4755 C   0  0  0  0  0  0  0  0  0  0  0  0
  -18.3544  -17.5097   13.5827 C   0  0  0  0  0  0  0  0  0  0  0  0
  -17.8039  -18.0042   14.6585 N   0  0  0  0  0  0  0  0  0  0  0  0
 17  1  2  0
  1 18  1  0
  2 19  2  0
 20  2  1  0
  3 20  1  0
 21  3  1  0
  4 21  2  0
 22  4  1  0
 23  5  1  0
 24  5  1  6
 24  6  1  0
  6 25  1  0
 24  7  1  0
  7 27  1  0
 21  8  1  0
  8 28  2  0
 10  9  1  0
 10 11  1  0
 29 10  2  0
 12 11  1  0
 13 12  2  0
 14 13  1  0
 13 29  1  0
 15 14  1  0
 14 18  2  0
 16 15  2  0
 16 17  1  0
 20 16  1  0
 17 19  1  0
 22 23  2  0
 23 28  1  0
 25 26  1  0
 26 27  1  0
 29 30  1  0
 30 31  3  0
M  CHG  1  24   1
M  END
$$$$
