
     RDKit          3D

 31 35  0  0  0  0  0  0  0  0999 V2000
  -24.1797  -19.8581   11.7916 C   0  0  0  0  0  0  0  0  0  0  0  0
  -23.9466  -22.9639   10.1534 C   0  0  0  0  0  0  0  0  0  0  0  0
  -21.6059  -22.9877    9.3119 C   0  0  0  0  0  0  0  0  0  0  0  0
  -22.1789  -25.0609    8.0977 C   0  0  0  0  0  0  0  0  0  0  0  0
  -22.2626  -28.7477    8.9328 C   0  0  0  0  0  0  0  0  0  0  0  0
  -20.3932  -29.4599    7.6107 C   0  0  0  0  0  0  0  0  0  0  0  0
  -22.5764  -30.2289    7.1024 C   0  0  0  0  0  0  0  0  0  0  0  0
  -21.6156  -25.2822   10.4256 C   0  0  0  0  0  0  0  0  0  0  0  0
  -18.4580  -15.8917   13.1379 N   0  0  0  0  0  0  0  0  0  0  0  0
  -19.0786  -17.1967   13.0710 C   0  0  0  0  0  0  0  0  0  0  0  0
  -18.7084  -18.4042   13.2038 N   0  0  0  0  0  0  0  0  0  0  0  0
  -19.6071  -19.3146   12.8483 N   0  0  0  0  0  0  0  0  0  0  0  0
  -20.7175  -18.6166   12.4269 C   0  0  0  0  0  0  0  0  0  0  0  0
  -21.7761  -19.2688   11.6636 C   0  0  0  0  0  0  0  0  0  0  0  0
  -21.5812  -20.4108   10.9018 C   0  0  0  0  0  0  0  0  0  0  0  0
  -22.6821  -21.2455   10.6217 C   0  0  0  0  0  0  0  0  0  0  0  0
  -23.8988  -20.9708   11.0525 C   0  0  0  0  0  0  0  0  0  0  0  0
  -23.0961  -19.0183   12.0876 C   0  0  0  0  0  0  0  0  0  0  0  0
  -24.8001  -22.0622   10.7811 C   0  0  0  0  0  0  0  0  0  0  0  0
  -22.7872  -22.5059   10.0601 N   0  0  0  0  0  0  0  0  0  0  0  0
  -21.8301  -24.4907    9.3000 C   0  0  0  0  0  0  0  0  0  0  0  0
  -22.3040  -26.4062    8.0612 C   0  0  0  0  0  0  0  0  0  0  0  0
  -22.1272  -27.2752    9.0851 C   0  0  0  0  0  0  0  0  0  0  0  0
  -21.7878  -29.1389    7.5979 N   0  0  1  0  0  4  0  0  0  0  0  0
  -20.0655  -30.7772    8.2862 C   0  0  0  0  0  0  0  0  0  0  0  0
  -21.0721  -31.7218    8.1243 O   0  0  0  0  0  0  0  0  0  0  0  0
  -21.6789  -31.4724    6.9053 C   0  0  0  0  0  0  0  0  0  0  0  0
  -21.7692  -26.6741   10.3036 C   0  0  0  0  0  0  0  0  0  0  0  0
  -20.4817  -17.2737   12.5653 C   0  0  0  0  0  0  0  0  0  0  0  0
  -21.2823  -16.2152   12.4823 C   0  0  0  0  0  0  0  0  0  0  0  0
  -22.0537  -15.1659   12.3897 N   0  0  0  0  0  0  0  0  0  0  0  0
 17  1  2  0
  1 18  1  0
  2 19  2  0
 20  2  1  0
  3 20  1  0
 21  3  1  0
  4 21  2  0
 22  4  1  0
 23  5  1  0
 24  5  1  1
 24  6  1  0
  6 25  1  0
 24  7  1  0
  7 27  1  0
 21  8  1  0
  8 28  2  0
 10  9  1  0
 10 11  1  0
 29 10  2  0
 12 11  1  0
 13 12  2  0
 14 13  1  0
 13 29  1  0
 15 14  1  0
 14 18  2  0
 16 15  2  0
 16 17  1  0
 20 16  1  0
 17 19  1  0
 22 23  2  0
 23 28  1  0
 25 26  1  0
 26 27  1  0
 29 30  1  0
 30 31  3  0
M  CHG  1  24   1
M  END
$$$$
