
     RDKit          3D

 31 35  0  0  0  0  0  0  0  0999 V2000
  -21.1324  -19.0146   14.8393 C   0  0  0  0  0  0  0  0  0  0  0  0
  -23.6439  -20.6530   12.9975 C   0  0  0  0  0  0  0  0  0  0  0  0
  -23.9793  -19.1565   11.0390 C   0  0  0  0  0  0  0  0  0  0  0  0
  -24.8874  -20.4760    9.1588 C   0  0  0  0  0  0  0  0  0  0  0  0
  -23.7870  -23.5288    7.2182 C   0  0  0  0  0  0  0  0  0  0  0  0
  -24.8992  -25.6284    6.8948 C   0  0  0  0  0  0  0  0  0  0  0  0
  -23.0861  -25.4596    8.4113 C   0  0  0  0  0  0  0  0  0  0  0  0
  -22.8575  -21.2762   10.1709 C   0  0  0  0  0  0  0  0  0  0  0  0
  -16.4751  -14.5403   12.8598 N   0  0  0  0  0  0  0  0  0  0  0  0
  -17.6817  -15.1717   12.3720 C   0  0  0  0  0  0  0  0  0  0  0  0
  -18.5375  -14.9498   11.4604 N   0  0  0  0  0  0  0  0  0  0  0  0
  -19.6248  -15.7104   11.5068 N   0  0  0  0  0  0  0  0  0  0  0  0
  -19.4653  -16.5457   12.5905 C   0  0  0  0  0  0  0  0  0  0  0  0
  -20.5915  -17.2904   13.1437 C   0  0  0  0  0  0  0  0  0  0  0  0
  -21.6410  -17.7756   12.3785 C   0  0  0  0  0  0  0  0  0  0  0  0
  -22.3912  -18.8690   12.8568 C   0  0  0  0  0  0  0  0  0  0  0  0
  -22.1346  -19.4424   14.0173 C   0  0  0  0  0  0  0  0  0  0  0  0
  -20.3691  -17.9322   14.3780 C   0  0  0  0  0  0  0  0  0  0  0  0
  -22.9251  -20.6354   14.1884 C   0  0  0  0  0  0  0  0  0  0  0  0
  -23.3536  -19.6753   12.2746 N   0  0  0  0  0  0  0  0  0  0  0  0
  -23.9071  -20.3624   10.1171 C   0  0  0  0  0  0  0  0  0  0  0  0
  -24.7867  -21.5027    8.2857 C   0  0  0  0  0  0  0  0  0  0  0  0
  -23.8213  -22.4519    8.2423 C   0  0  0  0  0  0  0  0  0  0  0  0
  -24.2163  -24.7923    7.8342 N   0  0  1  0  0  4  0  0  0  0  0  0
  -23.9954  -26.2602    5.8542 C   0  0  0  0  0  0  0  0  0  0  0  0
  -22.7263  -26.5350    6.3497 O   0  0  0  0  0  0  0  0  0  0  0  0
  -22.8622  -26.8135    7.6989 C   0  0  0  0  0  0  0  0  0  0  0  0
  -22.8283  -22.3175    9.2271 C   0  0  0  0  0  0  0  0  0  0  0  0
  -18.2510  -16.2954   13.1742 C   0  0  0  0  0  0  0  0  0  0  0  0
  -17.5596  -16.9445   14.1064 C   0  0  0  0  0  0  0  0  0  0  0  0
  -16.8952  -17.5970   15.0217 N   0  0  0  0  0  0  0  0  0  0  0  0
 17  1  2  0
  1 18  1  0
  2 19  2  0
 20  2  1  0
  3 20  1  0
 21  3  1  0
  4 21  2  0
 22  4  1  0
 23  5  1  0
 24  5  1  6
 24  6  1  0
  6 25  1  0
 24  7  1  0
  7 27  1  0
 21  8  1  0
  8 28  2  0
 10  9  1  0
 10 11  1  0
 29 10  2  0
 12 11  1  0
 13 12  2  0
 14 13  1  0
 13 29  1  0
 15 14  1  0
 14 18  2  0
 16 15  2  0
 16 17  1  0
 20 16  1  0
 17 19  1  0
 22 23  2  0
 23 28  1  0
 25 26  1  0
 26 27  1  0
 29 30  1  0
 30 31  3  0
M  CHG  1  24   1
M  END
$$$$
