
     RDKit          3D

 31 35  0  0  0  0  0  0  0  0999 V2000
  -11.8966  -10.5840   27.9105 C   0  0  0  0  0  0  0  0  0  0  0  0
  -13.3212   -8.9308   30.6712 C   0  0  0  0  0  0  0  0  0  0  0  0
  -14.6355   -7.0992   29.6198 C   0  0  0  0  0  0  0  0  0  0  0  0
  -13.6876   -4.9381   28.8905 C   0  0  0  0  0  0  0  0  0  0  0  0
  -10.9248   -2.6541   30.0935 C   0  0  0  0  0  0  0  0  0  0  0  0
   -9.6336   -3.0381   28.1098 C   0  0  0  0  0  0  0  0  0  0  0  0
   -8.6205   -2.0810   30.0265 C   0  0  0  0  0  0  0  0  0  0  0  0
  -12.6200   -6.0228   30.7530 C   0  0  0  0  0  0  0  0  0  0  0  0
  -13.7368   -9.9259   21.2587 N   0  0  0  0  0  0  0  0  0  0  0  0
  -14.1544   -9.6879   22.6231 C   0  0  0  0  0  0  0  0  0  0  0  0
  -15.0941   -9.0641   23.2067 N   0  0  0  0  0  0  0  0  0  0  0  0
  -14.9646   -8.9472   24.5229 N   0  0  0  0  0  0  0  0  0  0  0  0
  -13.7852   -9.5783   24.8521 C   0  0  0  0  0  0  0  0  0  0  0  0
  -13.1551   -9.3737   26.1521 C   0  0  0  0  0  0  0  0  0  0  0  0
  -13.6935   -8.5740   27.1487 C   0  0  0  0  0  0  0  0  0  0  0  0
  -13.3310   -8.8112   28.4901 C   0  0  0  0  0  0  0  0  0  0  0  0
  -12.4854   -9.7654   28.8305 C   0  0  0  0  0  0  0  0  0  0  0  0
  -12.2500  -10.3691   26.5704 C   0  0  0  0  0  0  0  0  0  0  0  0
  -12.4211   -9.9099   30.2631 C   0  0  0  0  0  0  0  0  0  0  0  0
  -13.8103   -8.3243   29.6936 N   0  0  0  0  0  0  0  0  0  0  0  0
  -13.5899   -6.0046   29.7538 C   0  0  0  0  0  0  0  0  0  0  0  0
  -12.8092   -3.9240   29.0540 C   0  0  0  0  0  0  0  0  0  0  0  0
  -11.8248   -3.8318   29.9799 C   0  0  0  0  0  0  0  0  0  0  0  0
   -9.6078   -2.9999   29.5402 N   0  0  1  0  0  4  0  0  0  0  0  0
   -9.7264   -1.6742   27.4538 C   0  0  0  0  0  0  0  0  0  0  0  0
   -9.0776   -0.6874   28.1867 O   0  0  0  0  0  0  0  0  0  0  0  0
   -8.0179   -1.2906   28.8421 C   0  0  0  0  0  0  0  0  0  0  0  0
  -11.7427   -4.9291   30.8535 C   0  0  0  0  0  0  0  0  0  0  0  0
  -13.2256  -10.1029   23.7165 C   0  0  0  0  0  0  0  0  0  0  0  0
  -12.2145  -10.9460   23.5288 C   0  0  0  0  0  0  0  0  0  0  0  0
  -11.2115  -11.7646   23.3600 N   0  0  0  0  0  0  0  0  0  0  0  0
 17  1  2  0
  1 18  1  0
  2 19  2  0
 20  2  1  0
  3 20  1  0
 21  3  1  0
  4 21  2  0
 22  4  1  0
 23  5  1  0
 24  5  1  6
 24  6  1  0
  6 25  1  0
 24  7  1  0
  7 27  1  0
 21  8  1  0
  8 28  2  0
 10  9  1  0
 10 11  1  0
 29 10  2  0
 12 11  1  0
 13 12  2  0
 14 13  1  0
 13 29  1  0
 15 14  1  0
 14 18  2  0
 16 15  2  0
 16 17  1  0
 20 16  1  0
 17 19  1  0
 22 23  2  0
 23 28  1  0
 25 26  1  0
 26 27  1  0
 29 30  1  0
 30 31  3  0
M  CHG  1  24   1
M  END
$$$$
