
     RDKit          3D

 31 35  0  0  0  0  0  0  0  0999 V2000
  -14.9326   -9.4769   26.3361 C   0  0  0  0  0  0  0  0  0  0  0  0
  -15.2703   -7.0911   28.9008 C   0  0  0  0  0  0  0  0  0  0  0  0
  -12.9755   -6.9493   29.8502 C   0  0  0  0  0  0  0  0  0  0  0  0
  -12.5447   -4.7135   28.8931 C   0  0  0  0  0  0  0  0  0  0  0  0
  -13.6853   -1.1869   29.6412 C   0  0  0  0  0  0  0  0  0  0  0  0
  -12.3361    0.7259   29.1210 C   0  0  0  0  0  0  0  0  0  0  0  0
  -12.1324   -0.3409   31.2272 C   0  0  0  0  0  0  0  0  0  0  0  0
  -13.9346   -4.8097   30.8537 C   0  0  0  0  0  0  0  0  0  0  0  0
   -8.8910  -11.8258   23.7458 N   0  0  0  0  0  0  0  0  0  0  0  0
   -9.5543  -10.7423   24.4377 C   0  0  0  0  0  0  0  0  0  0  0  0
   -9.2076   -9.6719   25.0265 N   0  0  0  0  0  0  0  0  0  0  0  0
  -10.1695   -9.0649   25.7114 N   0  0  0  0  0  0  0  0  0  0  0  0
  -11.3008   -9.8348   25.5526 C   0  0  0  0  0  0  0  0  0  0  0  0
  -12.4626   -9.6593   26.4176 C   0  0  0  0  0  0  0  0  0  0  0  0
  -12.4799   -8.8160   27.5180 C   0  0  0  0  0  0  0  0  0  0  0  0
  -13.7145   -8.3192   27.9830 C   0  0  0  0  0  0  0  0  0  0  0  0
  -14.8599   -8.6388   27.4110 C   0  0  0  0  0  0  0  0  0  0  0  0
  -13.7141   -9.9762   25.8534 C   0  0  0  0  0  0  0  0  0  0  0  0
  -15.9446   -7.8669   27.9633 C   0  0  0  0  0  0  0  0  0  0  0  0
  -14.0476   -7.3509   28.9138 N   0  0  0  0  0  0  0  0  0  0  0  0
  -13.1441   -5.4397   29.8959 C   0  0  0  0  0  0  0  0  0  0  0  0
  -12.7545   -3.3783   28.8825 C   0  0  0  0  0  0  0  0  0  0  0  0
  -13.4942   -2.6565   29.7581 C   0  0  0  0  0  0  0  0  0  0  0  0
  -12.3904   -0.5172   29.8279 N   0  0  1  0  0  4  0  0  0  0  0  0
  -13.1738    1.8286   29.7387 C   0  0  0  0  0  0  0  0  0  0  0  0
  -13.2405    1.7321   31.1236 O   0  0  0  0  0  0  0  0  0  0  0  0
  -12.0522    1.1680   31.5550 C   0  0  0  0  0  0  0  0  0  0  0  0
  -14.0999   -3.4161   30.7730 C   0  0  0  0  0  0  0  0  0  0  0  0
  -11.0096  -10.8959   24.7358 C   0  0  0  0  0  0  0  0  0  0  0  0
  -11.7820  -11.7970   24.1360 C   0  0  0  0  0  0  0  0  0  0  0  0
  -12.5310  -12.6969   23.5582 N   0  0  0  0  0  0  0  0  0  0  0  0
 17  1  2  0
  1 18  1  0
  2 19  2  0
 20  2  1  0
  3 20  1  0
 21  3  1  0
  4 21  2  0
 22  4  1  0
 23  5  1  0
 24  5  1  1
 24  6  1  0
  6 25  1  0
 24  7  1  0
  7 27  1  0
 21  8  1  0
  8 28  2  0
 10  9  1  0
 10 11  1  0
 29 10  2  0
 12 11  1  0
 13 12  2  0
 14 13  1  0
 13 29  1  0
 15 14  1  0
 14 18  2  0
 16 15  2  0
 16 17  1  0
 20 16  1  0
 17 19  1  0
 22 23  2  0
 23 28  1  0
 25 26  1  0
 26 27  1  0
 29 30  1  0
 30 31  3  0
M  CHG  1  24   1
M  END
$$$$
