
     RDKit          3D

 31 35  0  0  0  0  0  0  0  0999 V2000
  -15.1965  -10.7101   25.8170 C   0  0  0  0  0  0  0  0  0  0  0  0
  -14.9134   -8.9215   28.9279 C   0  0  0  0  0  0  0  0  0  0  0  0
  -12.9386   -7.5010   28.7644 C   0  0  0  0  0  0  0  0  0  0  0  0
  -14.5925   -5.5999   28.7078 C   0  0  0  0  0  0  0  0  0  0  0  0
  -15.3832   -2.7759   31.0613 C   0  0  0  0  0  0  0  0  0  0  0  0
  -15.7793   -3.4171   33.2964 C   0  0  0  0  0  0  0  0  0  0  0  0
  -17.3488   -2.0567   32.2792 C   0  0  0  0  0  0  0  0  0  0  0  0
  -13.1787   -5.7985   30.5642 C   0  0  0  0  0  0  0  0  0  0  0  0
  -11.1310  -10.4258   20.3429 N   0  0  0  0  0  0  0  0  0  0  0  0
  -11.4088   -9.9415   21.6514 C   0  0  0  0  0  0  0  0  0  0  0  0
  -10.7299   -9.0104   22.3632 N   0  0  0  0  0  0  0  0  0  0  0  0
  -11.2940   -8.8276   23.5458 N   0  0  0  0  0  0  0  0  0  0  0  0
  -12.3698   -9.6214   23.6830 C   0  0  0  0  0  0  0  0  0  0  0  0
  -13.2655   -9.7350   24.8257 C   0  0  0  0  0  0  0  0  0  0  0  0
  -13.0247   -8.9732   25.9736 C   0  0  0  0  0  0  0  0  0  0  0  0
  -13.8746   -9.0794   27.0515 C   0  0  0  0  0  0  0  0  0  0  0  0
  -14.9527   -9.9464   26.9643 C   0  0  0  0  0  0  0  0  0  0  0  0
  -14.3388  -10.5948   24.7455 C   0  0  0  0  0  0  0  0  0  0  0  0
  -15.6098   -9.8354   28.1741 C   0  0  0  0  0  0  0  0  0  0  0  0
  -13.8439   -8.4644   28.2190 N   0  0  0  0  0  0  0  0  0  0  0  0
  -13.5832   -6.2972   29.3369 C   0  0  0  0  0  0  0  0  0  0  0  0
  -15.1658   -4.4747   29.2632 C   0  0  0  0  0  0  0  0  0  0  0  0
  -14.7339   -4.0087   30.4895 C   0  0  0  0  0  0  0  0  0  0  0  0
  -16.4105   -3.1366   31.9912 N   0  0  1  0  0  4  0  0  0  0  0  0
  -16.8420   -3.8080   34.3019 C   0  0  0  0  0  0  0  0  0  0  0  0
  -18.1009   -3.8805   33.6727 O   0  0  0  0  0  0  0  0  0  0  0  0
  -18.4034   -2.6199   33.2064 C   0  0  0  0  0  0  0  0  0  0  0  0
  -13.7307   -4.6872   31.1335 C   0  0  0  0  0  0  0  0  0  0  0  0
  -12.4393  -10.3272   22.4766 C   0  0  0  0  0  0  0  0  0  0  0  0
  -13.4613  -11.2960   22.2091 C   0  0  0  0  0  0  0  0  0  0  0  0
  -14.3150  -12.0793   21.9976 N   0  0  0  0  0  0  0  0  0  0  0  0
 17  1  2  0
  1 18  1  0
  2 19  2  0
 20  2  1  0
  3 20  1  1
 21  3  1  0
  4 21  2  0
 22  4  1  0
  5 23  1  1
 24  5  1  6
 24  6  1  0
  6 25  1  6
 24  7  1  0
  7 27  1  6
 21  8  1  0
  8 28  2  0
 10  9  1  0
 10 11  1  0
 29 10  2  0
 12 11  1  0
 13 12  2  0
 14 13  1  0
 13 29  1  0
 15 14  1  0
 14 18  2  0
 16 15  2  0
 16 17  1  0
 20 16  1  0
 17 19  1  0
 22 23  2  0
 23 28  1  0
 25 26  1  6
 27 26  1  6
 29 30  1  0
 30 31  3  0
M  CHG  1  24   1
M  END
$$$$
