
     RDKit          3D

 31 35  0  0  0  0  0  0  0  0999 V2000
  -21.6607  -22.1197   12.0473 C   0  0  0  0  0  0  0  0  0  0  0  0
  -22.0600  -23.8326    8.9067 C   0  0  0  0  0  0  0  0  0  0  0  0
  -22.2186  -22.1270    7.1716 C   0  0  0  0  0  0  0  0  0  0  0  0
  -20.8536  -24.1470    6.5317 C   0  0  0  0  0  0  0  0  0  0  0  0
  -19.9867  -25.7601    3.2477 C   0  0  0  0  0  0  0  0  0  0  0  0
  -20.3492  -27.6200    1.8431 C   0  0  0  0  0  0  0  0  0  0  0  0
  -21.1389  -27.7478    4.0131 C   0  0  0  0  0  0  0  0  0  0  0  0
  -21.8806  -22.9059    4.8319 C   0  0  0  0  0  0  0  0  0  0  0  0
  -22.9982  -15.1758   12.0365 N   0  0  0  0  0  0  0  0  0  0  0  0
  -22.2403  -16.3382   11.7231 C   0  0  0  0  0  0  0  0  0  0  0  0
  -20.9186  -16.4272   11.4404 N   0  0  0  0  0  0  0  0  0  0  0  0
  -20.5792  -17.6826   11.1978 N   0  0  0  0  0  0  0  0  0  0  0  0
  -21.6486  -18.4895   11.3049 C   0  0  0  0  0  0  0  0  0  0  0  0
  -21.7115  -19.9319   11.1131 C   0  0  0  0  0  0  0  0  0  0  0  0
  -21.8724  -20.4535    9.8255 C   0  0  0  0  0  0  0  0  0  0  0  0
  -21.9281  -21.8173    9.6457 C   0  0  0  0  0  0  0  0  0  0  0  0
  -21.8219  -22.6385   10.7575 C   0  0  0  0  0  0  0  0  0  0  0  0
  -21.6064  -20.7535   12.2137 C   0  0  0  0  0  0  0  0  0  0  0  0
  -21.9083  -23.9277   10.2691 C   0  0  0  0  0  0  0  0  0  0  0  0
  -22.0703  -22.5213    8.5383 N   0  0  0  0  0  0  0  0  0  0  0  0
  -21.6457  -23.0726    6.1867 C   0  0  0  0  0  0  0  0  0  0  0  0
  -20.3258  -25.0044    5.5887 C   0  0  0  0  0  0  0  0  0  0  0  0
  -20.5831  -24.8037    4.2466 C   0  0  0  0  0  0  0  0  0  0  0  0
  -20.9209  -26.7971    2.9278 N   0  0  1  0  0  4  0  0  0  0  0  0
  -21.3188  -28.7244    1.4776 C   0  0  0  0  0  0  0  0  0  0  0  0
  -22.5137  -28.5825    2.2111 O   0  0  0  0  0  0  0  0  0  0  0  0
  -22.1987  -28.7209    3.5452 C   0  0  0  0  0  0  0  0  0  0  0  0
  -21.3690  -23.7408    3.8805 C   0  0  0  0  0  0  0  0  0  0  0  0
  -22.7020  -17.6310   11.6393 C   0  0  0  0  0  0  0  0  0  0  0  0
  -24.0404  -18.0995   11.8479 C   0  0  0  0  0  0  0  0  0  0  0  0
  -25.1372  -18.4990   12.0050 N   0  0  0  0  0  0  0  0  0  0  0  0
 17  1  2  0
  1 18  1  0
  2 19  2  0
 20  2  1  0
  3 20  1  1
 21  3  1  0
  4 21  2  0
 22  4  1  0
  5 23  1  1
 24  5  1  1
 24  6  1  0
  6 25  1  6
 24  7  1  0
  7 27  1  6
 21  8  1  0
  8 28  2  0
 10  9  1  0
 10 11  1  0
 29 10  2  0
 12 11  1  0
 13 12  2  0
 14 13  1  0
 13 29  1  0
 15 14  1  0
 14 18  2  0
 16 15  2  0
 16 17  1  0
 20 16  1  0
 17 19  1  0
 22 23  2  0
 23 28  1  0
 25 26  1  6
 27 26  1  6
 29 30  1  0
 30 31  3  0
M  CHG  1  24   1
M  END
$$$$
