
     RDKit          3D

 31 35  0  0  0  0  0  0  0  0999 V2000
  -22.4090  -21.2164   13.2328 C   0  0  0  0  0  0  0  0  0  0  0  0
  -21.5034  -23.9879   11.2623 C   0  0  0  0  0  0  0  0  0  0  0  0
  -21.1399  -22.9905    9.0127 C   0  0  0  0  0  0  0  0  0  0  0  0
  -20.9551  -25.3576    8.3319 C   0  0  0  0  0  0  0  0  0  0  0  0
  -23.3884  -28.1224    7.4760 C   0  0  0  0  0  0  0  0  0  0  0  0
  -21.4809  -29.4709    8.0170 C   0  0  0  0  0  0  0  0  0  0  0  0
  -22.8303  -30.0090    6.1448 C   0  0  0  0  0  0  0  0  0  0  0  0
  -23.1672  -24.4167    8.4118 C   0  0  0  0  0  0  0  0  0  0  0  0
  -20.6917  -14.7971   12.6550 N   0  0  0  0  0  0  0  0  0  0  0  0
  -20.9298  -15.9340   11.7929 C   0  0  0  0  0  0  0  0  0  0  0  0
  -21.2843  -16.1224   10.5881 N   0  0  0  0  0  0  0  0  0  0  0  0
  -21.5753  -17.3788   10.2730 N   0  0  0  0  0  0  0  0  0  0  0  0
  -21.3867  -18.1179   11.4201 C   0  0  0  0  0  0  0  0  0  0  0  0
  -21.9166  -19.4717   11.5433 C   0  0  0  0  0  0  0  0  0  0  0  0
  -21.6489  -20.4863   10.6369 C   0  0  0  0  0  0  0  0  0  0  0  0
  -21.7541  -21.8277   11.0571 C   0  0  0  0  0  0  0  0  0  0  0  0
  -22.1103  -22.1526   12.2855 C   0  0  0  0  0  0  0  0  0  0  0  0
  -22.3030  -19.8752   12.8367 C   0  0  0  0  0  0  0  0  0  0  0  0
  -21.9720  -23.5706   12.5039 C   0  0  0  0  0  0  0  0  0  0  0  0
  -21.3951  -23.0279   10.4690 N   0  0  0  0  0  0  0  0  0  0  0  0
  -21.7874  -24.2832    8.5445 C   0  0  0  0  0  0  0  0  0  0  0  0
  -21.5312  -26.5317    7.9909 C   0  0  0  0  0  0  0  0  0  0  0  0
  -22.8525  -26.7809    7.8271 C   0  0  0  0  0  0  0  0  0  0  0  0
  -22.2947  -28.9567    6.9582 N   0  0  1  0  0  4  0  0  0  0  0  0
  -22.1411  -30.5656    8.8322 C   0  0  0  0  0  0  0  0  0  0  0  0
  -23.0007  -31.3491    8.0712 O   0  0  0  0  0  0  0  0  0  0  0  0
  -22.4985  -31.3783    6.7815 C   0  0  0  0  0  0  0  0  0  0  0  0
  -23.6861  -25.6722    8.0509 C   0  0  0  0  0  0  0  0  0  0  0  0
  -20.9475  -17.2896   12.4196 C   0  0  0  0  0  0  0  0  0  0  0  0
  -20.4508  -17.5368   13.6281 C   0  0  0  0  0  0  0  0  0  0  0  0
  -19.9752  -17.7643   14.8226 N   0  0  0  0  0  0  0  0  0  0  0  0
 17  1  2  0
  1 18  1  0
  2 19  2  0
 20  2  1  0
  3 20  1  0
 21  3  1  0
  4 21  2  0
 22  4  1  0
 23  5  1  0
 24  5  1  1
 24  6  1  0
  6 25  1  0
 24  7  1  0
  7 27  1  0
 21  8  1  0
  8 28  2  0
 10  9  1  0
 10 11  1  0
 29 10  2  0
 12 11  1  0
 13 12  2  0
 14 13  1  0
 13 29  1  0
 15 14  1  0
 14 18  2  0
 16 15  2  0
 16 17  1  0
 20 16  1  0
 17 19  1  0
 22 23  2  0
 23 28  1  0
 25 26  1  0
 26 27  1  0
 29 30  1  0
 30 31  3  0
M  CHG  1  24   1
M  END
$$$$
