
     RDKit          3D

 31 35  0  0  0  0  0  0  0  0999 V2000
  -20.9278  -18.5411   15.2816 C   0  0  0  0  0  0  0  0  0  0  0  0
  -23.5590  -20.1151   13.5545 C   0  0  0  0  0  0  0  0  0  0  0  0
  -23.7945  -18.7349   11.4985 C   0  0  0  0  0  0  0  0  0  0  0  0
  -25.9247  -19.8548   10.9429 C   0  0  0  0  0  0  0  0  0  0  0  0
  -26.9206  -23.1872    9.4596 C   0  0  0  0  0  0  0  0  0  0  0  0
  -25.9601  -25.0993   10.5417 C   0  0  0  0  0  0  0  0  0  0  0  0
  -26.6344  -25.2253    8.2734 C   0  0  0  0  0  0  0  0  0  0  0  0
  -23.9078  -21.1207   10.6040 C   0  0  0  0  0  0  0  0  0  0  0  0
  -15.6666  -15.2326   12.8989 N   0  0  0  0  0  0  0  0  0  0  0  0
  -17.0676  -15.4017   12.5810 C   0  0  0  0  0  0  0  0  0  0  0  0
  -17.9731  -14.7231   12.0045 N   0  0  0  0  0  0  0  0  0  0  0  0
  -19.2040  -15.2071   12.1205 N   0  0  0  0  0  0  0  0  0  0  0  0
  -19.0972  -16.3575   12.8707 C   0  0  0  0  0  0  0  0  0  0  0  0
  -20.2716  -16.9795   13.4728 C   0  0  0  0  0  0  0  0  0  0  0  0
  -21.3568  -17.4386   12.7420 C   0  0  0  0  0  0  0  0  0  0  0  0
  -22.1817  -18.4400   13.2932 C   0  0  0  0  0  0  0  0  0  0  0  0
  -21.9619  -18.9502   14.4902 C   0  0  0  0  0  0  0  0  0  0  0  0
  -20.0906  -17.5504   14.7481 C   0  0  0  0  0  0  0  0  0  0  0  0
  -22.8355  -20.0686   14.7419 C   0  0  0  0  0  0  0  0  0  0  0  0
  -23.2023  -19.2124   12.7669 N   0  0  0  0  0  0  0  0  0  0  0  0
  -24.5556  -19.9613   11.0230 C   0  0  0  0  0  0  0  0  0  0  0  0
  -26.6023  -20.9141   10.4474 C   0  0  0  0  0  0  0  0  0  0  0  0
  -26.0862  -22.0898   10.0159 C   0  0  0  0  0  0  0  0  0  0  0  0
  -26.0914  -24.3909    9.3052 N   0  0  1  0  0  4  0  0  0  0  0  0
  -27.2164  -25.8286   10.9761 C   0  0  0  0  0  0  0  0  0  0  0  0
  -27.9607  -26.2924    9.8978 O   0  0  0  0  0  0  0  0  0  0  0  0
  -27.0713  -26.5802    8.8767 C   0  0  0  0  0  0  0  0  0  0  0  0
  -24.6867  -22.1783   10.1034 C   0  0  0  0  0  0  0  0  0  0  0  0
  -17.7787  -16.5725   13.1759 C   0  0  0  0  0  0  0  0  0  0  0  0
  -17.1442  -17.6168   13.7006 C   0  0  0  0  0  0  0  0  0  0  0  0
  -16.5160  -18.6484   14.1965 N   0  0  0  0  0  0  0  0  0  0  0  0
 17  1  2  0
  1 18  1  0
  2 19  2  0
 20  2  1  0
  3 20  1  0
 21  3  1  0
  4 21  2  0
 22  4  1  0
 23  5  1  0
 24  5  1  1
 24  6  1  0
  6 25  1  0
 24  7  1  0
  7 27  1  0
 21  8  1  0
  8 28  2  0
 10  9  1  0
 10 11  1  0
 29 10  2  0
 12 11  1  0
 13 12  2  0
 14 13  1  0
 13 29  1  0
 15 14  1  0
 14 18  2  0
 16 15  2  0
 16 17  1  0
 20 16  1  0
 17 19  1  0
 22 23  2  0
 23 28  1  0
 25 26  1  0
 26 27  1  0
 29 30  1  0
 30 31  3  0
M  CHG  1  24   1
M  END
$$$$
