
     RDKit          3D

 31 35  0  0  0  0  0  0  0  0999 V2000
  -23.0748  -17.0989   13.6922 C   0  0  0  0  0  0  0  0  0  0  0  0
  -24.6192  -19.6503   15.7077 C   0  0  0  0  0  0  0  0  0  0  0  0
  -22.8323  -21.0703   16.5650 C   0  0  0  0  0  0  0  0  0  0  0  0
  -25.2395  -21.5553   17.1334 C   0  0  0  0  0  0  0  0  0  0  0  0
  -26.9557  -24.3189   19.0190 C   0  0  0  0  0  0  0  0  0  0  0  0
  -28.3119  -26.2310   18.7574 C   0  0  0  0  0  0  0  0  0  0  0  0
  -28.5852  -24.5092   17.2377 C   0  0  0  0  0  0  0  0  0  0  0  0
  -23.5951  -23.0606   17.8505 C   0  0  0  0  0  0  0  0  0  0  0  0
  -16.4632  -16.9279   11.7939 N   0  0  0  0  0  0  0  0  0  0  0  0
  -17.4400  -17.2845   12.7648 C   0  0  0  0  0  0  0  0  0  0  0  0
  -17.2447  -17.6837   14.0442 N   0  0  0  0  0  0  0  0  0  0  0  0
  -18.4022  -17.9301   14.6356 N   0  0  0  0  0  0  0  0  0  0  0  0
  -19.4214  -17.7099   13.7877 C   0  0  0  0  0  0  0  0  0  0  0  0
  -20.8482  -17.8653   14.0348 C   0  0  0  0  0  0  0  0  0  0  0  0
  -21.3017  -18.9130   14.8425 C   0  0  0  0  0  0  0  0  0  0  0  0
  -22.6507  -19.0562   15.0779 C   0  0  0  0  0  0  0  0  0  0  0  0
  -23.5254  -18.1485   14.5010 C   0  0  0  0  0  0  0  0  0  0  0  0
  -21.7228  -16.9666   13.4646 C   0  0  0  0  0  0  0  0  0  0  0  0
  -24.7839  -18.5414   14.9129 C   0  0  0  0  0  0  0  0  0  0  0  0
  -23.2947  -19.9547   15.7989 N   0  0  0  0  0  0  0  0  0  0  0  0
  -23.9028  -21.8900   17.1770 C   0  0  0  0  0  0  0  0  0  0  0  0
  -26.2126  -22.3353   17.7231 C   0  0  0  0  0  0  0  0  0  0  0  0
  -25.8647  -23.4959   18.3862 C   0  0  0  0  0  0  0  0  0  0  0  0
  -27.5673  -25.1728   18.0458 N   0  0  1  0  0  4  0  0  0  0  0  0
  -28.9665  -27.1558   17.7527 C   0  0  0  0  0  0  0  0  0  0  0  0
  -28.5945  -26.7903   16.4435 O   0  0  0  0  0  0  0  0  0  0  0  0
  -29.0703  -25.5169   16.2188 C   0  0  0  0  0  0  0  0  0  0  0  0
  -24.5402  -23.8484   18.4419 C   0  0  0  0  0  0  0  0  0  0  0  0
  -18.8054  -17.2994   12.6001 C   0  0  0  0  0  0  0  0  0  0  0  0
  -19.5505  -16.9607   11.4234 C   0  0  0  0  0  0  0  0  0  0  0  0
  -20.1768  -16.6968   10.4614 N   0  0  0  0  0  0  0  0  0  0  0  0
 17  1  2  0
  1 18  1  0
  2 19  2  0
 20  2  1  0
  3 20  1  1
 21  3  1  0
  4 21  2  0
 22  4  1  0
  5 23  1  1
 24  5  1  1
 24  6  1  0
  6 25  1  6
 24  7  1  0
  7 27  1  6
 21  8  1  0
  8 28  2  0
 10  9  1  0
 10 11  1  0
 29 10  2  0
 12 11  1  0
 13 12  2  0
 14 13  1  0
 13 29  1  0
 15 14  1  0
 14 18  2  0
 16 15  2  0
 16 17  1  0
 20 16  1  0
 17 19  1  0
 22 23  2  0
 23 28  1  0
 25 26  1  6
 27 26  1  6
 29 30  1  0
 30 31  3  0
M  CHG  1  24   1
M  END
$$$$
