
     RDKit          3D

 31 35  0  0  0  0  0  0  0  0999 V2000
  -22.5883  -18.8292   13.9411 C   0  0  0  0  0  0  0  0  0  0  0  0
  -24.6067  -20.8873   11.7853 C   0  0  0  0  0  0  0  0  0  0  0  0
  -23.6095  -20.7958    9.5623 C   0  0  0  0  0  0  0  0  0  0  0  0
  -23.3532  -23.1926   10.2991 C   0  0  0  0  0  0  0  0  0  0  0  0
  -22.6674  -26.4094    8.4769 C   0  0  0  0  0  0  0  0  0  0  0  0
  -21.1701  -27.7742    7.2691 C   0  0  0  0  0  0  0  0  0  0  0  0
  -20.6165  -25.5433    7.5241 C   0  0  0  0  0  0  0  0  0  0  0  0
  -23.1639  -22.6965    8.0182 C   0  0  0  0  0  0  0  0  0  0  0  0
  -16.4411  -16.1943   12.2751 N   0  0  0  0  0  0  0  0  0  0  0  0
  -17.7615  -16.5519   11.8844 C   0  0  0  0  0  0  0  0  0  0  0  0
  -18.4289  -16.1977   10.7603 N   0  0  0  0  0  0  0  0  0  0  0  0
  -19.6414  -16.7268   10.7539 N   0  0  0  0  0  0  0  0  0  0  0  0
  -19.8440  -17.4553   11.8649 C   0  0  0  0  0  0  0  0  0  0  0  0
  -21.0372  -18.1954   12.2516 C   0  0  0  0  0  0  0  0  0  0  0  0
  -21.7217  -18.9544   11.2970 C   0  0  0  0  0  0  0  0  0  0  0  0
  -22.8474  -19.6563   11.6652 C   0  0  0  0  0  0  0  0  0  0  0  0
  -23.2711  -19.5878   12.9834 C   0  0  0  0  0  0  0  0  0  0  0  0
  -21.4635  -18.1317   13.5599 C   0  0  0  0  0  0  0  0  0  0  0  0
  -24.3999  -20.3814   13.0461 C   0  0  0  0  0  0  0  0  0  0  0  0
  -23.6382  -20.4290   10.9443 N   0  0  0  0  0  0  0  0  0  0  0  0
  -23.3797  -22.2361    9.3066 C   0  0  0  0  0  0  0  0  0  0  0  0
  -23.1259  -24.5262   10.0292 C   0  0  0  0  0  0  0  0  0  0  0  0
  -22.9145  -24.9456    8.7303 C   0  0  0  0  0  0  0  0  0  0  0  0
  -21.2797  -26.6448    8.2141 N   0  0  1  0  0  4  0  0  0  0  0  0
  -19.7107  -28.0519    6.9755 C   0  0  0  0  0  0  0  0  0  0  0  0
  -18.8910  -27.2168    7.7607 O   0  0  0  0  0  0  0  0  0  0  0  0
  -19.1557  -25.9152    7.3948 C   0  0  0  0  0  0  0  0  0  0  0  0
  -22.9367  -24.0107    7.7267 C   0  0  0  0  0  0  0  0  0  0  0  0
  -18.6466  -17.3417   12.5804 C   0  0  0  0  0  0  0  0  0  0  0  0
  -18.4429  -17.9811   13.8469 C   0  0  0  0  0  0  0  0  0  0  0  0
  -18.2552  -18.5039   14.8855 N   0  0  0  0  0  0  0  0  0  0  0  0
 17  1  2  0
  1 18  1  0
  2 19  2  0
 20  2  1  0
  3 20  1  1
 21  3  1  0
  4 21  2  0
 22  4  1  0
  5 23  1  1
 24  5  1  6
 24  6  1  0
  6 25  1  6
 24  7  1  0
  7 27  1  6
 21  8  1  0
  8 28  2  0
 10  9  1  0
 10 11  1  0
 29 10  2  0
 12 11  1  0
 13 12  2  0
 14 13  1  0
 13 29  1  0
 15 14  1  0
 14 18  2  0
 16 15  2  0
 16 17  1  0
 20 16  1  0
 17 19  1  0
 22 23  2  0
 23 28  1  0
 25 26  1  6
 27 26  1  6
 29 30  1  0
 30 31  3  0
M  CHG  1  24   1
M  END
$$$$
