
     RDKit          3D

 76 77  0  0  0  0  0  0  0  0999 V2000
   45.2627  -38.2397   -9.9516 N   0  0  0  0  0  0  0  0  0  0  0  0
   44.8186  -37.6215   -8.6930 C   0  0  2  0  0  0  0  0  0  0  0  0
   45.5335  -38.2148   -7.5412 C   0  0  0  0  0  0  0  0  0  0  0  0
   45.2031  -39.4445   -7.3249 O   0  0  0  0  0  0  0  0  0  0  0  0
   43.3408  -37.9186   -8.6333 C   0  0  0  0  0  0  0  0  0  0  0  0
   42.4018  -36.8770   -9.0760 C   0  0  0  0  0  0  0  0  0  0  0  0
   42.7166  -36.1037  -10.2984 C   0  0  0  0  0  0  0  0  0  0  0  0
   41.6074  -36.1681  -11.2747 N   0  0  0  0  0  0  0  0  0  0  0  0
   41.0715  -37.4061  -11.7346 C   0  0  0  0  0  0  0  0  0  0  0  0
   39.8723  -37.7086  -11.3223 N   0  0  0  0  0  0  0  0  0  0  0  0
   41.7906  -38.2742  -12.5916 N   0  0  0  0  0  0  0  0  0  0  0  0
   46.4810  -37.5721   -6.7254 N   0  0  0  0  0  0  0  0  0  0  0  0
   47.5882  -36.7182   -7.1448 C   0  0  2  0  0  0  0  0  0  0  0  0
   48.7818  -37.1522   -6.3790 C   0  0  0  0  0  0  0  0  0  0  0  0
   48.9042  -38.4411   -6.3563 O   0  0  0  0  0  0  0  0  0  0  0  0
   47.2250  -35.2766   -7.0104 C   0  0  0  0  0  0  0  0  0  0  0  0
   48.1100  -34.4614   -6.1243 C   0  0  0  0  0  0  0  0  0  0  0  0
   48.3241  -35.2078   -4.8272 C   0  0  0  0  0  0  0  0  0  0  0  0
   49.4446  -34.7451   -4.0634 N   0  0  0  0  0  0  0  0  0  0  0  0
   50.1342  -35.6645   -3.2332 C   0  0  0  0  0  0  0  0  0  0  0  0
   49.6006  -36.9238   -2.8771 N   0  0  0  0  0  0  0  0  0  0  0  0
   51.3182  -35.3896   -2.7495 N   0  0  0  0  0  0  0  0  0  0  0  0
   49.7541  -36.4414   -5.7059 N   0  0  0  0  0  0  0  0  0  0  0  0
   50.6673  -35.4182   -6.1308 C   0  0  2  0  0  0  0  0  0  0  0  0
   51.2970  -35.6855   -7.4452 C   0  0  0  0  0  0  0  0  0  0  0  0
   50.4170  -35.7234   -8.3899 O   0  0  0  0  0  0  0  0  0  0  0  0
   51.6831  -35.0993   -5.0363 C   0  0  0  0  0  0  0  0  0  0  0  0
   51.1366  -34.2985   -3.9137 C   0  0  0  0  0  0  0  0  0  0  0  0
   50.0660  -33.3816   -4.5245 C   0  0  0  0  0  0  0  0  0  0  0  0
   49.3902  -32.6376   -3.4800 N   0  0  0  0  0  0  0  0  0  0  0  0
   47.9698  -32.6949   -3.4314 C   0  0  0  0  0  0  0  0  0  0  0  0
   47.2425  -32.6836   -4.6543 N   0  0  0  0  0  0  0  0  0  0  0  0
   47.3135  -32.7575   -2.3399 N   0  0  0  0  0  0  0  0  0  0  0  0
   52.6083  -35.8866   -7.7904 N   0  0  0  0  0  0  0  0  0  0  0  0
   53.5593  -36.8874   -7.3490 C   0  0  2  0  0  0  0  0  0  0  0  0
   54.9133  -36.6010   -7.9027 C   0  0  0  0  0  0  0  0  0  0  0  0
   54.9817  -36.3308   -9.1383 O   0  0  0  0  0  0  0  0  0  0  0  0
   53.1249  -38.2980   -7.5490 C   0  0  0  0  0  0  0  0  0  0  0  0
   52.8419  -38.6702   -8.9816 C   0  0  0  0  0  0  0  0  0  0  0  0
   52.5815  -40.1520   -9.0885 C   0  0  0  0  0  0  0  0  0  0  0  0
   51.5613  -40.5103  -10.1053 C   0  0  0  0  0  0  0  0  0  0  0  0
   51.5893  -39.6309  -11.2736 N   0  0  0  0  0  0  0  0  0  0  0  0
   56.1164  -36.6169   -7.1332 N   0  0  0  0  0  0  0  0  0  0  0  0
   56.5852  -35.3605   -6.6468 C   0  0  2  0  0  0  0  0  0  0  0  0
   57.0192  -34.5325   -7.8452 C   0  0  0  0  0  0  0  0  0  0  0  0
   56.8933  -35.0156   -8.9784 O   0  0  0  0  0  0  0  0  0  0  0  0
   57.6790  -35.4321   -5.6555 C   0  0  0  0  0  0  0  0  0  0  0  0
   57.8200  -34.4254   -4.6019 C   0  0  0  0  0  0  0  0  0  0  0  0
   57.5319  -34.7398   -3.1953 C   0  0  0  0  0  0  0  0  0  0  0  0
   57.8901  -33.5162   -2.4246 N   0  0  0  0  0  0  0  0  0  0  0  0
   59.1948  -33.3826   -1.8845 C   0  0  0  0  0  0  0  0  0  0  0  0
   59.4111  -32.9666   -0.5472 N   0  0  0  0  0  0  0  0  0  0  0  0
   60.2218  -33.6471   -2.6297 N   0  0  0  0  0  0  0  0  0  0  0  0
   57.5508  -33.2456   -7.6576 N   0  0  0  0  0  0  0  0  0  0  0  0
   58.1796  -32.4476   -8.7056 C   0  0  0  0  0  0  0  0  0  0  0  0
   57.1870  -31.8472   -9.6232 C   0  0  0  0  0  0  0  0  0  0  0  0
   57.6034  -31.0192  -10.6660 C   0  0  0  0  0  0  0  0  0  0  0  0
   56.6981  -30.4524  -11.5260 C   0  0  0  0  0  0  0  0  0  0  0  0
   55.3300  -30.6716  -11.4056 C   0  0  0  0  0  0  0  0  0  0  0  0
   54.4231  -30.0400  -12.3515 C   0  0  0  0  0  0  0  0  0  0  0  0
   53.0332  -30.2232  -12.2113 N   0  0  0  0  0  0  0  0  0  0  0  0
   54.8705  -29.3205  -13.3051 N   0  0  0  0  0  0  0  0  0  0  0  0
   54.9134  -31.4892  -10.3766 C   0  0  0  0  0  0  0  0  0  0  0  0
   55.8355  -32.0663   -9.4997 C   0  0  0  0  0  0  0  0  0  0  0  0
   46.0622  -39.3642  -10.1188 C   0  0  0  0  0  0  0  0  0  0  0  0
   47.4531  -39.5618   -9.6390 C   0  0  0  0  0  0  0  0  0  0  0  0
   48.4407  -38.7919  -10.5306 C   0  0  0  0  0  0  0  0  0  0  0  0
   49.0546  -39.6994  -11.5615 C   0  0  0  0  0  0  0  0  0  0  0  0
   50.4044  -39.2867  -11.9778 C   0  0  0  0  0  0  0  0  0  0  0  0
   45.5661  -40.3670  -10.7613 O   0  0  0  0  0  0  0  0  0  0  0  0
   50.5320  -38.5874  -13.0175 O   0  0  0  0  0  0  0  0  0  0  0  0
   39.0610  -37.8639  -11.9206 H   0  0  0  0  0  0  0  0  0  0  0  0
   51.5677  -34.5018   -2.2916 H   0  0  0  0  0  0  0  0  0  0  0  0
   46.9551  -33.6805   -2.0226 H   0  0  0  0  0  0  0  0  0  0  0  0
   60.5859  -32.9709   -3.3378 H   0  0  0  0  0  0  0  0  0  0  0  0
   55.8897  -29.0710  -13.3502 H   0  0  0  0  0  0  0  0  0  0  0  0
  2  1  1  6
  1 65  1  0
  2  3  1  0
  5  2  1  1
  3  4  2  0
  3 12  1  0
  5  6  1  0
  6  7  1  6
  7  8  1  6
  8  9  1  0
  9 10  2  0
  9 11  1  0
 13 12  1  1
 13 14  1  0
 16 13  1  1
 14 15  2  0
 14 23  1  0
 16 17  1  0
 17 18  1  6
 18 19  1  6
 19 20  1  0
 20 21  1  0
 20 22  2  0
 24 23  1  1
 24 25  1  0
 27 24  1  1
 25 26  2  0
 25 34  1  0
 27 28  1  0
 28 29  1  6
 29 30  1  6
 30 31  1  0
 31 32  1  0
 31 33  2  0
 34 35  1  0
 35 36  1  6
 38 35  1  1
 36 37  2  0
 36 43  1  0
 39 38  1  1
 39 40  1  0
 40 41  1  6
 41 42  1  6
 42 69  1  0
 44 43  1  6
 44 45  1  0
 47 44  1  1
 45 46  2  0
 45 54  1  0
 47 48  1  0
 48 49  1  6
 49 50  1  6
 50 51  1  0
 51 52  1  0
 51 53  2  0
 55 54  1  1
 55 56  1  0
 56 57  2  0
 56 64  1  0
 57 58  1  0
 58 59  2  0
 59 60  1  0
 59 63  1  0
 60 61  1  0
 60 62  2  0
 63 64  2  0
 66 65  1  1
 65 70  2  0
 67 66  1  1
 67 68  1  0
 68 69  1  6
 69 71  2  0
 10 72  1  0
 22 73  1  0
 33 74  1  0
 53 75  1  0
 62 76  1  0
M  END
$$$$
