
     RDKit          3D

 76 77  0  0  0  0  0  0  0  0999 V2000
   44.4398  -39.5665   -9.7598 N   0  0  0  0  0  0  0  0  0  0  0  0
   43.7255  -38.8194   -8.7133 C   0  0  2  0  0  0  0  0  0  0  0  0
   44.4411  -38.9196   -7.4219 C   0  0  0  0  0  0  0  0  0  0  0  0
   44.4081  -40.1096   -6.9211 O   0  0  0  0  0  0  0  0  0  0  0  0
   42.3712  -39.4803   -8.6424 C   0  0  0  0  0  0  0  0  0  0  0  0
   41.7680  -39.9697   -9.8911 C   0  0  0  0  0  0  0  0  0  0  0  0
   42.3913  -39.5951  -11.1806 C   0  0  0  0  0  0  0  0  0  0  0  0
   41.4498  -39.7818  -12.3060 N   0  0  0  0  0  0  0  0  0  0  0  0
   41.5954  -40.8392  -13.2504 C   0  0  0  0  0  0  0  0  0  0  0  0
   40.4964  -41.4128  -13.6539 N   0  0  0  0  0  0  0  0  0  0  0  0
   42.8589  -41.2589  -13.7330 N   0  0  0  0  0  0  0  0  0  0  0  0
   45.1065  -37.8774   -6.7529 N   0  0  0  0  0  0  0  0  0  0  0  0
   46.0025  -36.8772   -7.3252 C   0  0  2  0  0  0  0  0  0  0  0  0
   47.1795  -36.7881   -6.4274 C   0  0  0  0  0  0  0  0  0  0  0  0
   47.6174  -37.9563   -6.0805 O   0  0  0  0  0  0  0  0  0  0  0  0
   45.2780  -35.5948   -7.5678 C   0  0  0  0  0  0  0  0  0  0  0  0
   45.9947  -34.5909   -8.4113 C   0  0  0  0  0  0  0  0  0  0  0  0
   47.3139  -35.1795   -8.8569 C   0  0  0  0  0  0  0  0  0  0  0  0
   47.6288  -36.4381   -8.2487 N   0  0  0  0  0  0  0  0  0  0  0  0
   48.2244  -36.4471   -6.9622 C   0  0  0  0  0  0  0  0  0  0  0  0
   47.7101  -37.2045   -5.8855 N   0  0  0  0  0  0  0  0  0  0  0  0
   49.2979  -35.7453   -6.7039 N   0  0  0  0  0  0  0  0  0  0  0  0
   47.8668  -35.7082   -5.9123 N   0  0  0  0  0  0  0  0  0  0  0  0
   48.5342  -34.6028   -6.5399 C   0  0  2  0  0  0  0  0  0  0  0  0
   49.3451  -34.9844   -7.7200 C   0  0  0  0  0  0  0  0  0  0  0  0
   48.6068  -35.4719   -8.6610 O   0  0  0  0  0  0  0  0  0  0  0  0
   49.3171  -33.7817   -5.5181 C   0  0  0  0  0  0  0  0  0  0  0  0
   49.5298  -32.3667   -5.9089 C   0  0  0  0  0  0  0  0  0  0  0  0
   48.6186  -32.1165   -7.1202 C   0  0  0  0  0  0  0  0  0  0  0  0
   49.3738  -32.2513   -8.3501 N   0  0  0  0  0  0  0  0  0  0  0  0
   50.6961  -31.7280   -8.3825 C   0  0  0  0  0  0  0  0  0  0  0  0
   50.9272  -30.4938   -9.0520 N   0  0  0  0  0  0  0  0  0  0  0  0
   51.6890  -32.3134   -7.8371 N   0  0  0  0  0  0  0  0  0  0  0  0
   50.6938  -34.8997   -7.9503 N   0  0  0  0  0  0  0  0  0  0  0  0
   51.8132  -35.4803   -7.2357 C   0  0  2  0  0  0  0  0  0  0  0  0
   53.1028  -34.9756   -7.7870 C   0  0  0  0  0  0  0  0  0  0  0  0
   53.3066  -35.1552   -9.0242 O   0  0  0  0  0  0  0  0  0  0  0  0
   51.7692  -36.9625   -7.0971 C   0  0  0  0  0  0  0  0  0  0  0  0
   51.7403  -37.7143   -8.4029 C   0  0  0  0  0  0  0  0  0  0  0  0
   51.8718  -39.1953   -8.1493 C   0  0  0  0  0  0  0  0  0  0  0  0
   51.0864  -40.0366   -9.0865 C   0  0  0  0  0  0  0  0  0  0  0  0
   51.0159  -39.4732  -10.4342 N   0  0  0  0  0  0  0  0  0  0  0  0
   54.1050  -34.3156   -7.0124 N   0  0  0  0  0  0  0  0  0  0  0  0
   53.8356  -34.1471   -5.6218 C   0  0  2  0  0  0  0  0  0  0  0  0
   55.0919  -33.5926   -4.9704 C   0  0  0  0  0  0  0  0  0  0  0  0
   56.1710  -34.1632   -5.1788 O   0  0  0  0  0  0  0  0  0  0  0  0
   53.3884  -35.3628   -4.9104 C   0  0  0  0  0  0  0  0  0  0  0  0
   54.3060  -36.1363   -4.0718 C   0  0  0  0  0  0  0  0  0  0  0  0
   53.8598  -37.3354   -3.3482 C   0  0  0  0  0  0  0  0  0  0  0  0
   53.0909  -36.8374   -2.1734 N   0  0  0  0  0  0  0  0  0  0  0  0
   51.6948  -37.0752   -2.0949 C   0  0  0  0  0  0  0  0  0  0  0  0
   51.0254  -37.9100   -3.0240 N   0  0  0  0  0  0  0  0  0  0  0  0
   51.0066  -36.5164   -1.1492 N   0  0  0  0  0  0  0  0  0  0  0  0
   55.0171  -32.4543   -4.1503 N   0  0  0  0  0  0  0  0  0  0  0  0
   56.1464  -31.8781   -3.4271 C   0  0  0  0  0  0  0  0  0  0  0  0
   55.8582  -31.7035   -1.9868 C   0  0  0  0  0  0  0  0  0  0  0  0
   56.7492  -32.1855   -1.0275 C   0  0  0  0  0  0  0  0  0  0  0  0
   56.4985  -32.0344    0.3122 C   0  0  0  0  0  0  0  0  0  0  0  0
   55.3542  -31.3981    0.7809 C   0  0  0  0  0  0  0  0  0  0  0  0
   55.1486  -31.2709    2.2153 C   0  0  0  0  0  0  0  0  0  0  0  0
   56.2229  -31.5071    3.0959 N   0  0  0  0  0  0  0  0  0  0  0  0
   54.0083  -30.9462    2.6859 N   0  0  0  0  0  0  0  0  0  0  0  0
   54.4705  -30.9200   -0.1632 C   0  0  0  0  0  0  0  0  0  0  0  0
   54.7251  -31.0744   -1.5284 C   0  0  0  0  0  0  0  0  0  0  0  0
   45.5083  -40.4425   -9.6097 C   0  0  0  0  0  0  0  0  0  0  0  0
   46.8460  -40.1446   -9.0392 C   0  0  0  0  0  0  0  0  0  0  0  0
   47.6975  -39.3629  -10.0526 C   0  0  0  0  0  0  0  0  0  0  0  0
   48.6237  -40.2832  -10.8000 C   0  0  0  0  0  0  0  0  0  0  0  0
   49.8633  -39.6299  -11.2498 C   0  0  0  0  0  0  0  0  0  0  0  0
   45.3492  -41.6608  -10.0031 O   0  0  0  0  0  0  0  0  0  0  0  0
   49.9203  -39.1789  -12.4244 O   0  0  0  0  0  0  0  0  0  0  0  0
   39.5505  -41.1226  -13.4064 H   0  0  0  0  0  0  0  0  0  0  0  0
   49.5185  -35.3367   -5.7849 H   0  0  0  0  0  0  0  0  0  0  0  0
   52.3167  -31.7633   -7.2170 H   0  0  0  0  0  0  0  0  0  0  0  0
   50.9680  -35.4799   -1.0255 H   0  0  0  0  0  0  0  0  0  0  0  0
   53.2452  -30.6108    2.0469 H   0  0  0  0  0  0  0  0  0  0  0  0
  2  1  1  6
  1 65  1  0
  2  3  1  0
  5  2  1  1
  3  4  2  0
  3 12  1  0
  5  6  1  0
  6  7  1  6
  7  8  1  6
  8  9  1  0
  9 10  2  0
  9 11  1  0
 13 12  1  1
 13 14  1  0
 16 13  1  1
 14 15  2  0
 14 23  1  0
 16 17  1  0
 17 18  1  6
 18 19  1  6
 19 20  1  0
 20 21  1  0
 20 22  2  0
 24 23  1  1
 24 25  1  0
 27 24  1  1
 25 26  2  0
 25 34  1  0
 27 28  1  0
 28 29  1  6
 29 30  1  6
 30 31  1  0
 31 32  1  0
 31 33  2  0
 34 35  1  0
 35 36  1  6
 38 35  1  1
 36 37  2  0
 36 43  1  0
 39 38  1  1
 39 40  1  0
 40 41  1  6
 41 42  1  6
 42 69  1  0
 44 43  1  6
 44 45  1  0
 47 44  1  1
 45 46  2  0
 45 54  1  0
 47 48  1  0
 48 49  1  6
 49 50  1  6
 50 51  1  0
 51 52  1  0
 51 53  2  0
 55 54  1  1
 55 56  1  0
 56 57  2  0
 56 64  1  0
 57 58  1  0
 58 59  2  0
 59 60  1  0
 59 63  1  0
 60 61  1  0
 60 62  2  0
 63 64  2  0
 66 65  1  1
 65 70  2  0
 67 66  1  1
 67 68  1  0
 68 69  1  6
 69 71  2  0
 10 72  1  0
 22 73  1  0
 33 74  1  0
 53 75  1  0
 62 76  1  0
M  END
$$$$
