
     RDKit          3D

 76 77  0  0  0  0  0  0  0  0999 V2000
   55.6552  -34.9777   -8.7323 N   0  0  0  0  0  0  0  0  0  0  0  0
   56.0183  -36.2737   -9.2383 C   0  0  2  0  0  0  0  0  0  0  0  0
   54.9414  -37.2787   -9.2869 C   0  0  0  0  0  0  0  0  0  0  0  0
   55.4434  -38.4582   -9.5188 O   0  0  0  0  0  0  0  0  0  0  0  0
   57.2434  -36.8472   -8.6295 C   0  0  0  0  0  0  0  0  0  0  0  0
   58.3456  -35.8267   -8.4319 C   0  0  0  0  0  0  0  0  0  0  0  0
   58.0810  -34.6146   -9.3286 C   0  0  0  0  0  0  0  0  0  0  0  0
   59.1416  -34.4150  -10.2887 N   0  0  0  0  0  0  0  0  0  0  0  0
   59.4573  -33.1064  -10.7417 C   0  0  0  0  0  0  0  0  0  0  0  0
   59.9027  -32.2809   -9.8362 N   0  0  0  0  0  0  0  0  0  0  0  0
   59.2975  -32.7194  -12.0955 N   0  0  0  0  0  0  0  0  0  0  0  0
   53.5662  -37.1948   -9.1440 N   0  0  0  0  0  0  0  0  0  0  0  0
   52.6422  -37.1593   -8.0427 C   0  0  2  0  0  0  0  0  0  0  0  0
   51.5427  -36.1831   -8.2546 C   0  0  0  0  0  0  0  0  0  0  0  0
   51.8728  -34.9789   -8.4252 O   0  0  0  0  0  0  0  0  0  0  0  0
   53.1286  -37.3917   -6.6915 C   0  0  0  0  0  0  0  0  0  0  0  0
   52.4401  -36.9474   -5.4731 C   0  0  0  0  0  0  0  0  0  0  0  0
   52.7413  -35.5790   -4.9943 C   0  0  0  0  0  0  0  0  0  0  0  0
   52.2870  -35.5361   -3.5844 N   0  0  0  0  0  0  0  0  0  0  0  0
   52.3748  -34.3212   -2.8697 C   0  0  0  0  0  0  0  0  0  0  0  0
   51.2675  -33.4412   -2.9391 N   0  0  0  0  0  0  0  0  0  0  0  0
   53.4396  -34.0323   -2.1740 N   0  0  0  0  0  0  0  0  0  0  0  0
   50.1621  -36.4521   -8.2919 N   0  0  0  0  0  0  0  0  0  0  0  0
   49.4014  -37.5108   -7.7694 C   0  0  2  0  0  0  0  0  0  0  0  0
   48.1774  -37.8255   -8.6066 C   0  0  0  0  0  0  0  0  0  0  0  0
   47.6185  -38.9132   -8.2637 O   0  0  0  0  0  0  0  0  0  0  0  0
   49.0586  -37.4701   -6.3313 C   0  0  0  0  0  0  0  0  0  0  0  0
   49.1528  -36.1956   -5.5962 C   0  0  0  0  0  0  0  0  0  0  0  0
   48.7917  -34.9482   -6.3150 C   0  0  0  0  0  0  0  0  0  0  0  0
   47.3284  -34.7761   -6.2493 N   0  0  0  0  0  0  0  0  0  0  0  0
   46.7338  -34.2893   -5.0520 C   0  0  0  0  0  0  0  0  0  0  0  0
   45.5107  -34.8286   -4.6041 N   0  0  0  0  0  0  0  0  0  0  0  0
   47.3262  -33.3443   -4.3723 N   0  0  0  0  0  0  0  0  0  0  0  0
   47.6345  -37.0953   -9.6439 N   0  0  0  0  0  0  0  0  0  0  0  0
   48.1322  -36.7523  -10.9454 C   0  0  2  0  0  0  0  0  0  0  0  0
   47.0098  -36.8258  -11.9498 C   0  0  0  0  0  0  0  0  0  0  0  0
   47.1870  -36.2550  -13.0500 O   0  0  0  0  0  0  0  0  0  0  0  0
   49.2456  -37.5638  -11.4888 C   0  0  0  0  0  0  0  0  0  0  0  0
   50.3303  -36.6141  -11.9600 C   0  0  0  0  0  0  0  0  0  0  0  0
   51.2386  -37.2124  -12.9958 C   0  0  0  0  0  0  0  0  0  0  0  0
   51.7144  -36.1877  -14.0020 C   0  0  0  0  0  0  0  0  0  0  0  0
   51.5024  -34.8387  -13.5152 N   0  0  0  0  0  0  0  0  0  0  0  0
   45.8021  -37.4919  -11.7064 N   0  0  0  0  0  0  0  0  0  0  0  0
   45.3359  -37.6801  -10.3180 C   0  0  2  0  0  0  0  0  0  0  0  0
   46.5323  -37.5597   -9.4102 C   0  0  0  0  0  0  0  0  0  0  0  0
   47.5231  -38.3358   -9.6269 O   0  0  0  0  0  0  0  0  0  0  0  0
   44.6926  -39.0143  -10.3026 C   0  0  0  0  0  0  0  0  0  0  0  0
   43.4808  -39.2104   -9.4778 C   0  0  0  0  0  0  0  0  0  0  0  0
   42.3251  -38.2985   -9.8055 C   0  0  0  0  0  0  0  0  0  0  0  0
   41.2554  -38.6109   -8.8975 N   0  0  0  0  0  0  0  0  0  0  0  0
   40.6437  -39.8881   -8.9177 C   0  0  0  0  0  0  0  0  0  0  0  0
   40.5906  -40.7104   -7.7408 N   0  0  0  0  0  0  0  0  0  0  0  0
   40.1194  -40.3542   -9.9758 N   0  0  0  0  0  0  0  0  0  0  0  0
   46.6316  -36.6504   -8.3464 N   0  0  0  0  0  0  0  0  0  0  0  0
   45.8150  -36.6946   -7.1295 C   0  0  0  0  0  0  0  0  0  0  0  0
   46.6840  -36.5623   -5.9480 C   0  0  0  0  0  0  0  0  0  0  0  0
   48.0512  -36.8064   -6.0817 C   0  0  0  0  0  0  0  0  0  0  0  0
   48.8715  -36.6748   -4.9919 C   0  0  0  0  0  0  0  0  0  0  0  0
   48.3950  -36.3040   -3.7429 C   0  0  0  0  0  0  0  0  0  0  0  0
   49.2980  -36.1813   -2.6121 C   0  0  0  0  0  0  0  0  0  0  0  0
   50.6722  -36.4485   -2.7389 N   0  0  0  0  0  0  0  0  0  0  0  0
   48.8212  -35.8255   -1.4769 N   0  0  0  0  0  0  0  0  0  0  0  0
   47.0408  -36.0680   -3.6360 C   0  0  0  0  0  0  0  0  0  0  0  0
   46.1770  -36.1931   -4.7285 C   0  0  0  0  0  0  0  0  0  0  0  0
   55.0910  -33.9631   -9.5524 C   0  0  0  0  0  0  0  0  0  0  0  0
   55.3609  -33.7845  -10.9933 C   0  0  0  0  0  0  0  0  0  0  0  0
   54.6445  -34.7233  -11.9085 C   0  0  0  0  0  0  0  0  0  0  0  0
   53.8761  -34.0248  -13.0042 C   0  0  0  0  0  0  0  0  0  0  0  0
   52.4068  -34.0876  -12.7522 C   0  0  0  0  0  0  0  0  0  0  0  0
   54.3011  -33.1610   -8.9890 O   0  0  0  0  0  0  0  0  0  0  0  0
   51.9732  -33.3975  -11.7646 O   0  0  0  0  0  0  0  0  0  0  0  0
   60.3268  -32.6932   -8.9562 H   0  0  0  0  0  0  0  0  0  0  0  0
   54.3397  -33.8726   -2.6252 H   0  0  0  0  0  0  0  0  0  0  0  0
   46.7842  -32.6213   -3.8551 H   0  0  0  0  0  0  0  0  0  0  0  0
   39.9322  -41.3331  -10.2234 H   0  0  0  0  0  0  0  0  0  0  0  0
   49.3661  -35.3480   -0.7294 H   0  0  0  0  0  0  0  0  0  0  0  0
  1  2  1  0
  1 65  1  0
  2  3  1  0
  2  5  1  1
  3  4  2  0
  3 12  1  0
  5  6  1  0
  6  7  1  0
  7  8  1  0
  8  9  1  0
  9 10  2  0
  9 11  1  0
 12 13  1  0
 13 14  1  0
 13 16  1  1
 14 15  2  0
 14 23  1  0
 16 17  1  0
 17 18  1  0
 18 19  1  0
 19 20  1  0
 20 21  1  0
 20 22  2  0
 23 24  1  0
 24 25  1  0
 24 27  1  1
 25 26  2  0
 25 34  1  0
 27 28  1  0
 28 29  1  0
 29 30  1  0
 30 31  1  0
 31 32  1  0
 31 33  2  0
 34 35  1  0
 35 36  1  6
 35 38  1  0
 36 37  2  0
 36 43  1  0
 38 39  1  0
 39 40  1  0
 40 41  1  0
 41 42  1  0
 42 69  1  0
 43 44  1  0
 44 45  1  0
 44 47  1  6
 45 46  2  0
 45 54  1  0
 47 48  1  0
 48 49  1  0
 49 50  1  0
 50 51  1  0
 51 52  1  0
 51 53  2  0
 54 55  1  0
 55 56  1  0
 56 57  2  0
 56 64  1  0
 57 58  1  0
 58 59  2  0
 59 60  1  0
 59 63  1  0
 60 61  1  0
 60 62  2  0
 63 64  2  0
 65 66  1  0
 65 70  2  0
 66 67  1  0
 67 68  1  0
 68 69  1  0
 69 71  2  0
 10 72  1  0
 22 73  1  0
 33 74  1  0
 53 75  1  0
 62 76  1  0
M  END
$$$$
