
     RDKit          3D

 76 77  0  0  0  0  0  0  0  0999 V2000
   55.3428  -33.7553   -5.0318 N   0  0  0  0  0  0  0  0  0  0  0  0
   55.1498  -34.9717   -4.2897 C   0  0  2  0  0  0  0  0  0  0  0  0
   53.7584  -35.4385   -4.1554 C   0  0  0  0  0  0  0  0  0  0  0  0
   53.6914  -36.3889   -3.2671 O   0  0  0  0  0  0  0  0  0  0  0  0
   55.8428  -35.0052   -2.9785 C   0  0  0  0  0  0  0  0  0  0  0  0
   57.3374  -34.7823   -3.0874 C   0  0  0  0  0  0  0  0  0  0  0  0
   57.8642  -35.4827   -4.3425 C   0  0  0  0  0  0  0  0  0  0  0  0
   58.2914  -36.8342   -4.0643 N   0  0  0  0  0  0  0  0  0  0  0  0
   59.0680  -37.1137   -2.9084 C   0  0  0  0  0  0  0  0  0  0  0  0
   58.4061  -37.2361   -1.7919 N   0  0  0  0  0  0  0  0  0  0  0  0
   60.4774  -37.2503   -2.9634 N   0  0  0  0  0  0  0  0  0  0  0  0
   52.5763  -35.0705   -4.7766 N   0  0  0  0  0  0  0  0  0  0  0  0
   51.5948  -34.0346   -4.5990 C   0  0  2  0  0  0  0  0  0  0  0  0
   51.1268  -33.4678   -5.8899 C   0  0  0  0  0  0  0  0  0  0  0  0
   51.9997  -32.9476   -6.6354 O   0  0  0  0  0  0  0  0  0  0  0  0
   51.6718  -33.1667   -3.4341 C   0  0  0  0  0  0  0  0  0  0  0  0
   51.4787  -33.6158   -2.0495 C   0  0  0  0  0  0  0  0  0  0  0  0
   52.2065  -34.8364   -1.6333 C   0  0  0  0  0  0  0  0  0  0  0  0
   53.4284  -34.3611   -0.9424 N   0  0  0  0  0  0  0  0  0  0  0  0
   54.2015  -35.2811   -0.2006 C   0  0  0  0  0  0  0  0  0  0  0  0
   55.6096  -35.2042   -0.3295 N   0  0  0  0  0  0  0  0  0  0  0  0
   53.6293  -36.1626    0.5719 N   0  0  0  0  0  0  0  0  0  0  0  0
   49.8090  -33.4493   -6.3826 N   0  0  0  0  0  0  0  0  0  0  0  0
   48.5668  -33.5397   -5.7336 C   0  0  2  0  0  0  0  0  0  0  0  0
   47.5053  -34.2086   -6.5844 C   0  0  0  0  0  0  0  0  0  0  0  0
   46.4569  -34.4892   -5.9248 O   0  0  0  0  0  0  0  0  0  0  0  0
   48.0336  -32.3191   -5.0909 C   0  0  0  0  0  0  0  0  0  0  0  0
   47.5270  -32.3865   -3.7080 C   0  0  0  0  0  0  0  0  0  0  0  0
   47.8383  -31.2575   -2.7960 C   0  0  0  0  0  0  0  0  0  0  0  0
   49.3010  -31.1860   -2.6208 N   0  0  0  0  0  0  0  0  0  0  0  0
   49.8672  -31.4569   -1.3441 C   0  0  0  0  0  0  0  0  0  0  0  0
   51.2545  -31.3062   -1.1434 N   0  0  0  0  0  0  0  0  0  0  0  0
   49.0969  -31.8433   -0.3626 N   0  0  0  0  0  0  0  0  0  0  0  0
   47.5535  -34.5263   -7.9263 N   0  0  0  0  0  0  0  0  0  0  0  0
   48.3743  -35.4365   -8.6726 C   0  0  2  0  0  0  0  0  0  0  0  0
   47.5420  -36.1125   -9.7329 C   0  0  0  0  0  0  0  0  0  0  0  0
   47.6766  -37.3504   -9.8645 O   0  0  0  0  0  0  0  0  0  0  0  0
   49.0638  -36.5108   -7.9215 C   0  0  0  0  0  0  0  0  0  0  0  0
   50.5283  -36.4916   -8.3157 C   0  0  0  0  0  0  0  0  0  0  0  0
   51.2248  -37.8026   -8.0879 C   0  0  0  0  0  0  0  0  0  0  0  0
   52.2890  -38.0750   -9.1280 C   0  0  0  0  0  0  0  0  0  0  0  0
   52.6413  -36.8654   -9.8454 N   0  0  0  0  0  0  0  0  0  0  0  0
   46.6442  -35.4259  -10.5599 N   0  0  0  0  0  0  0  0  0  0  0  0
   45.5025  -36.1457  -11.1590 C   0  0  2  0  0  0  0  0  0  0  0  0
   45.8755  -37.6022  -11.2550 C   0  0  0  0  0  0  0  0  0  0  0  0
   46.3268  -38.0277  -12.3715 O   0  0  0  0  0  0  0  0  0  0  0  0
   45.2734  -35.4890  -12.4669 C   0  0  0  0  0  0  0  0  0  0  0  0
   46.3303  -34.6138  -13.0184 C   0  0  0  0  0  0  0  0  0  0  0  0
   46.4135  -34.5758  -14.5239 C   0  0  0  0  0  0  0  0  0  0  0  0
   45.7049  -35.7210  -15.0263 N   0  0  0  0  0  0  0  0  0  0  0  0
   45.7171  -36.0256  -16.4093 C   0  0  0  0  0  0  0  0  0  0  0  0
   45.0707  -37.2020  -16.9216 N   0  0  0  0  0  0  0  0  0  0  0  0
   46.2994  -35.2712  -17.2481 N   0  0  0  0  0  0  0  0  0  0  0  0
   45.7637  -38.5201  -10.1999 N   0  0  0  0  0  0  0  0  0  0  0  0
   44.4971  -39.0312   -9.6668 C   0  0  0  0  0  0  0  0  0  0  0  0
   44.5991  -39.1720   -8.2045 C   0  0  0  0  0  0  0  0  0  0  0  0
   45.2178  -38.1612   -7.4680 C   0  0  0  0  0  0  0  0  0  0  0  0
   45.3080  -38.2756   -6.1054 C   0  0  0  0  0  0  0  0  0  0  0  0
   44.8037  -39.3687   -5.4159 C   0  0  0  0  0  0  0  0  0  0  0  0
   44.9250  -39.4535   -3.9711 C   0  0  0  0  0  0  0  0  0  0  0  0
   43.7911  -39.4914   -3.1412 N   0  0  0  0  0  0  0  0  0  0  0  0
   46.0957  -39.4893   -3.4508 N   0  0  0  0  0  0  0  0  0  0  0  0
   44.1967  -40.3540   -6.1654 C   0  0  0  0  0  0  0  0  0  0  0  0
   44.0882  -40.2673   -7.5568 C   0  0  0  0  0  0  0  0  0  0  0  0
   55.4654  -33.7303   -6.4477 C   0  0  0  0  0  0  0  0  0  0  0  0
   56.0370  -34.8139   -7.2724 C   0  0  0  0  0  0  0  0  0  0  0  0
   55.1425  -35.9862   -7.5134 C   0  0  0  0  0  0  0  0  0  0  0  0
   54.9903  -36.3353   -8.9741 C   0  0  0  0  0  0  0  0  0  0  0  0
   53.6395  -35.9524   -9.4788 C   0  0  0  0  0  0  0  0  0  0  0  0
   55.0493  -32.6939   -7.0286 O   0  0  0  0  0  0  0  0  0  0  0  0
   53.4065  -34.6968   -9.5720 O   0  0  0  0  0  0  0  0  0  0  0  0
   58.3673  -38.1955   -1.3421 H   0  0  0  0  0  0  0  0  0  0  0  0
   53.6252  -36.0551    1.5857 H   0  0  0  0  0  0  0  0  0  0  0  0
   48.1286  -31.4772   -0.2513 H   0  0  0  0  0  0  0  0  0  0  0  0
   46.7565  -35.5246  -18.1320 H   0  0  0  0  0  0  0  0  0  0  0  0
   46.4895  -40.3032   -2.9348 H   0  0  0  0  0  0  0  0  0  0  0  0
  1  2  1  0
  1 65  1  0
  2  3  1  0
  2  5  1  1
  3  4  2  0
  3 12  1  0
  5  6  1  0
  6  7  1  0
  7  8  1  0
  8  9  1  0
  9 10  2  0
  9 11  1  0
 12 13  1  0
 13 14  1  0
 13 16  1  1
 14 15  2  0
 14 23  1  0
 16 17  1  0
 17 18  1  0
 18 19  1  0
 19 20  1  0
 20 21  1  0
 20 22  2  0
 23 24  1  0
 24 25  1  0
 24 27  1  6
 25 26  2  0
 25 34  1  0
 27 28  1  0
 28 29  1  0
 29 30  1  0
 30 31  1  0
 31 32  1  0
 31 33  2  0
 34 35  1  0
 35 36  1  6
 35 38  1  0
 36 37  2  0
 36 43  1  0
 38 39  1  0
 39 40  1  0
 40 41  1  0
 41 42  1  0
 42 69  1  0
 43 44  1  0
 44 45  1  0
 44 47  1  6
 45 46  2  0
 45 54  1  0
 47 48  1  0
 48 49  1  0
 49 50  1  0
 50 51  1  0
 51 52  1  0
 51 53  2  0
 54 55  1  0
 55 56  1  0
 56 57  2  0
 56 64  1  0
 57 58  1  0
 58 59  2  0
 59 60  1  0
 59 63  1  0
 60 61  1  0
 60 62  2  0
 63 64  2  0
 65 66  1  0
 65 70  2  0
 66 67  1  0
 67 68  1  0
 68 69  1  0
 69 71  2  0
 10 72  1  0
 22 73  1  0
 33 74  1  0
 53 75  1  0
 62 76  1  0
M  END
$$$$
