
     RDKit          3D

 76 77  0  0  0  0  0  0  0  0999 V2000
   46.2219  -37.1484  -13.9427 N   0  0  0  0  0  0  0  0  0  0  0  0
   44.9780  -37.4843  -13.2332 C   0  0  2  0  0  0  0  0  0  0  0  0
   45.2259  -38.5285  -12.2143 C   0  0  0  0  0  0  0  0  0  0  0  0
   45.5150  -39.6759  -12.7318 O   0  0  0  0  0  0  0  0  0  0  0  0
   44.0545  -37.9836  -14.3165 C   0  0  0  0  0  0  0  0  0  0  0  0
   43.5183  -37.0097  -15.2791 C   0  0  0  0  0  0  0  0  0  0  0  0
   44.1441  -35.6709  -15.3649 C   0  0  0  0  0  0  0  0  0  0  0  0
   45.5198  -35.6858  -14.8218 N   0  0  0  0  0  0  0  0  0  0  0  0
   46.4078  -34.5812  -14.9727 C   0  0  0  0  0  0  0  0  0  0  0  0
   47.6619  -34.8688  -15.1825 N   0  0  0  0  0  0  0  0  0  0  0  0
   45.9685  -33.2370  -14.8987 N   0  0  0  0  0  0  0  0  0  0  0  0
   45.1706  -38.3638  -10.8192 N   0  0  0  0  0  0  0  0  0  0  0  0
   45.7225  -37.2694  -10.0264 C   0  0  2  0  0  0  0  0  0  0  0  0
   46.4161  -37.8829   -8.8680 C   0  0  0  0  0  0  0  0  0  0  0  0
   47.1503  -38.8907   -9.2173 O   0  0  0  0  0  0  0  0  0  0  0  0
   44.6632  -36.2730   -9.6900 C   0  0  0  0  0  0  0  0  0  0  0  0
   43.9268  -36.5112   -8.4117 C   0  0  0  0  0  0  0  0  0  0  0  0
   44.6023  -37.6360   -7.6608 C   0  0  0  0  0  0  0  0  0  0  0  0
   44.9588  -38.7561   -8.4802 N   0  0  0  0  0  0  0  0  0  0  0  0
   45.6774  -39.8302   -7.8970 C   0  0  0  0  0  0  0  0  0  0  0  0
   45.1987  -40.5563   -6.7831 N   0  0  0  0  0  0  0  0  0  0  0  0
   46.8367  -40.2098   -8.3695 N   0  0  0  0  0  0  0  0  0  0  0  0
   46.4131  -37.5755   -7.5229 N   0  0  0  0  0  0  0  0  0  0  0  0
   46.7439  -36.3749   -6.8084 C   0  0  2  0  0  0  0  0  0  0  0  0
   47.9669  -35.7007   -7.3037 C   0  0  0  0  0  0  0  0  0  0  0  0
   47.8238  -35.3024   -8.5239 O   0  0  0  0  0  0  0  0  0  0  0  0
   46.7665  -36.6208   -5.3016 C   0  0  0  0  0  0  0  0  0  0  0  0
   47.5756  -37.7933   -4.8886 C   0  0  0  0  0  0  0  0  0  0  0  0
   47.9584  -38.5258   -6.1835 C   0  0  0  0  0  0  0  0  0  0  0  0
   46.7935  -39.1717   -6.7553 N   0  0  0  0  0  0  0  0  0  0  0  0
   45.6660  -38.3621   -7.0658 C   0  0  0  0  0  0  0  0  0  0  0  0
   45.0284  -38.5316   -8.3265 N   0  0  0  0  0  0  0  0  0  0  0  0
   45.1958  -37.4884   -6.2648 N   0  0  0  0  0  0  0  0  0  0  0  0
   49.1664  -35.4483   -6.6898 N   0  0  0  0  0  0  0  0  0  0  0  0
   50.1359  -36.3512   -6.1018 C   0  0  2  0  0  0  0  0  0  0  0  0
   51.2181  -35.5842   -5.4217 C   0  0  0  0  0  0  0  0  0  0  0  0
   51.0297  -35.2827   -4.2060 O   0  0  0  0  0  0  0  0  0  0  0  0
   50.6468  -37.4080   -7.0186 C   0  0  0  0  0  0  0  0  0  0  0  0
   51.3349  -36.8877   -8.2543 C   0  0  0  0  0  0  0  0  0  0  0  0
   51.9599  -38.0292   -9.0168 C   0  0  0  0  0  0  0  0  0  0  0  0
   51.9164  -37.8613  -10.4909 C   0  0  0  0  0  0  0  0  0  0  0  0
   52.0563  -36.4668  -10.9090 N   0  0  0  0  0  0  0  0  0  0  0  0
   52.4321  -35.1746   -6.0530 N   0  0  0  0  0  0  0  0  0  0  0  0
   53.5818  -35.0525   -5.2176 C   0  0  2  0  0  0  0  0  0  0  0  0
   53.1063  -35.0401   -3.7740 C   0  0  0  0  0  0  0  0  0  0  0  0
   52.1197  -34.3522   -3.4791 O   0  0  0  0  0  0  0  0  0  0  0  0
   54.4357  -33.8755   -5.4816 C   0  0  0  0  0  0  0  0  0  0  0  0
   55.5680  -33.5453   -4.6143 C   0  0  0  0  0  0  0  0  0  0  0  0
   56.4647  -32.4205   -4.9163 C   0  0  0  0  0  0  0  0  0  0  0  0
   57.4994  -32.9636   -5.8403 N   0  0  0  0  0  0  0  0  0  0  0  0
   58.4877  -32.0982   -6.3755 C   0  0  0  0  0  0  0  0  0  0  0  0
   59.5188  -32.5747   -7.2228 N   0  0  0  0  0  0  0  0  0  0  0  0
   58.4519  -30.8355   -6.0853 N   0  0  0  0  0  0  0  0  0  0  0  0
   53.7812  -35.7986   -2.8029 N   0  0  0  0  0  0  0  0  0  0  0  0
   54.5433  -35.2348   -1.6931 C   0  0  0  0  0  0  0  0  0  0  0  0
   53.6681  -34.7257   -0.6148 C   0  0  0  0  0  0  0  0  0  0  0  0
   54.2196  -34.2719    0.5837 C   0  0  0  0  0  0  0  0  0  0  0  0
   53.4244  -33.7976    1.5952 C   0  0  0  0  0  0  0  0  0  0  0  0
   52.0394  -33.7438    1.4806 C   0  0  0  0  0  0  0  0  0  0  0  0
   51.2537  -33.2293    2.5915 C   0  0  0  0  0  0  0  0  0  0  0  0
   51.9089  -32.7176    3.7291 N   0  0  0  0  0  0  0  0  0  0  0  0
   49.9789  -33.2337    2.5476 N   0  0  0  0  0  0  0  0  0  0  0  0
   51.4896  -34.1911    0.2980 C   0  0  0  0  0  0  0  0  0  0  0  0
   52.2994  -34.6750   -0.7326 C   0  0  0  0  0  0  0  0  0  0  0  0
   47.4440  -37.8079  -13.8892 C   0  0  0  0  0  0  0  0  0  0  0  0
   48.2959  -38.0339  -12.6946 C   0  0  0  0  0  0  0  0  0  0  0  0
   49.0362  -36.7416  -12.3137 C   0  0  0  0  0  0  0  0  0  0  0  0
   50.4371  -36.7429  -12.8621 C   0  0  0  0  0  0  0  0  0  0  0  0
   51.3847  -35.9594  -12.0535 C   0  0  0  0  0  0  0  0  0  0  0  0
   47.9184  -38.2891  -14.9882 O   0  0  0  0  0  0  0  0  0  0  0  0
   51.6245  -34.7679  -12.3838 O   0  0  0  0  0  0  0  0  0  0  0  0
   48.1022  -34.9703  -16.0969 H   0  0  0  0  0  0  0  0  0  0  0  0
   47.5454  -40.7243   -7.8280 H   0  0  0  0  0  0  0  0  0  0  0  0
   44.6879  -36.6702   -6.6571 H   0  0  0  0  0  0  0  0  0  0  0  0
   59.0109  -30.1264   -6.6107 H   0  0  0  0  0  0  0  0  0  0  0  0
   49.4161  -33.1047    3.4250 H   0  0  0  0  0  0  0  0  0  0  0  0
  2  1  1  6
  1 65  1  0
  2  3  1  0
  5  2  1  1
  3  4  2  0
  3 12  1  0
  5  6  1  0
  6  7  1  6
  7  8  1  6
  8  9  1  0
  9 10  2  0
  9 11  1  0
 13 12  1  1
 13 14  1  0
 16 13  1  1
 14 15  2  0
 14 23  1  0
 16 17  1  0
 17 18  1  6
 18 19  1  6
 19 20  1  0
 20 21  1  0
 20 22  2  0
 24 23  1  6
 24 25  1  0
 27 24  1  1
 25 26  2  0
 25 34  1  0
 27 28  1  0
 28 29  1  6
 29 30  1  6
 30 31  1  0
 31 32  1  0
 31 33  2  0
 34 35  1  0
 35 36  1  6
 38 35  1  1
 36 37  2  0
 36 43  1  0
 39 38  1  1
 39 40  1  0
 40 41  1  6
 41 42  1  6
 42 69  1  0
 44 43  1  6
 44 45  1  0
 47 44  1  1
 45 46  2  0
 45 54  1  0
 47 48  1  0
 48 49  1  6
 49 50  1  6
 50 51  1  0
 51 52  1  0
 51 53  2  0
 55 54  1  1
 55 56  1  0
 56 57  2  0
 56 64  1  0
 57 58  1  0
 58 59  2  0
 59 60  1  0
 59 63  1  0
 60 61  1  0
 60 62  2  0
 63 64  2  0
 66 65  1  1
 65 70  2  0
 67 66  1  1
 67 68  1  0
 68 69  1  6
 69 71  2  0
 10 72  1  0
 22 73  1  0
 33 74  1  0
 53 75  1  0
 62 76  1  0
M  END
$$$$
