
     RDKit          3D

 76 77  0  0  0  0  0  0  0  0999 V2000
   55.5072  -34.3106   -2.3961 N   0  0  0  0  0  0  0  0  0  0  0  0
   54.2844  -34.2506   -1.5808 C   0  0  2  0  0  0  0  0  0  0  0  0
   53.2285  -33.4867   -2.2817 C   0  0  0  0  0  0  0  0  0  0  0  0
   53.5024  -32.2285   -2.3823 O   0  0  0  0  0  0  0  0  0  0  0  0
   54.7154  -33.5543   -0.3138 C   0  0  0  0  0  0  0  0  0  0  0  0
   55.9281  -32.7234   -0.3527 C   0  0  0  0  0  0  0  0  0  0  0  0
   56.3488  -32.1332   -1.6435 C   0  0  0  0  0  0  0  0  0  0  0  0
   55.2103  -32.0275   -2.5817 N   0  0  0  0  0  0  0  0  0  0  0  0
   54.8386  -33.0963   -3.4482 C   0  0  0  0  0  0  0  0  0  0  0  0
   53.6126  -33.0849   -3.8914 N   0  0  0  0  0  0  0  0  0  0  0  0
   55.7394  -34.1251   -3.8160 N   0  0  0  0  0  0  0  0  0  0  0  0
   52.0320  -34.0051   -2.8073 N   0  0  0  0  0  0  0  0  0  0  0  0
   51.8541  -35.2261   -3.5873 C   0  0  2  0  0  0  0  0  0  0  0  0
   50.9735  -34.8834   -4.7303 C   0  0  0  0  0  0  0  0  0  0  0  0
   51.3220  -33.7732   -5.2983 O   0  0  0  0  0  0  0  0  0  0  0  0
   51.3788  -36.3437   -2.7195 C   0  0  0  0  0  0  0  0  0  0  0  0
   50.0146  -36.1783   -2.1327 C   0  0  0  0  0  0  0  0  0  0  0  0
   49.3573  -34.9687   -2.7573 C   0  0  0  0  0  0  0  0  0  0  0  0
   48.7851  -34.0585   -1.8100 N   0  0  0  0  0  0  0  0  0  0  0  0
   47.4563  -34.2771   -1.3667 C   0  0  0  0  0  0  0  0  0  0  0  0
   46.4380  -34.7705   -2.2134 N   0  0  0  0  0  0  0  0  0  0  0  0
   47.1013  -34.0309   -0.1318 N   0  0  0  0  0  0  0  0  0  0  0  0
   49.8794  -35.5232   -5.2756 N   0  0  0  0  0  0  0  0  0  0  0  0
   49.7053  -36.8415   -5.8171 C   0  0  2  0  0  0  0  0  0  0  0  0
   50.8204  -37.2838   -6.6870 C   0  0  0  0  0  0  0  0  0  0  0  0
   51.9279  -37.3664   -6.0276 O   0  0  0  0  0  0  0  0  0  0  0  0
   48.3375  -36.9871   -6.4797 C   0  0  0  0  0  0  0  0  0  0  0  0
   48.1797  -38.2231   -7.2843 C   0  0  0  0  0  0  0  0  0  0  0  0
   46.7119  -38.2539   -7.7367 C   0  0  0  0  0  0  0  0  0  0  0  0
   46.0892  -36.9663   -7.5011 N   0  0  0  0  0  0  0  0  0  0  0  0
   45.6978  -36.1970   -8.6316 C   0  0  0  0  0  0  0  0  0  0  0  0
   45.9883  -36.6956   -9.9323 N   0  0  0  0  0  0  0  0  0  0  0  0
   45.0952  -35.0773   -8.5357 N   0  0  0  0  0  0  0  0  0  0  0  0
   50.8493  -37.6038   -8.0197 N   0  0  0  0  0  0  0  0  0  0  0  0
   50.5058  -36.8181   -9.1882 C   0  0  2  0  0  0  0  0  0  0  0  0
   50.5616  -37.6592  -10.4176 C   0  0  0  0  0  0  0  0  0  0  0  0
   51.6391  -38.2897  -10.6322 O   0  0  0  0  0  0  0  0  0  0  0  0
   51.2433  -35.5308   -9.3186 C   0  0  0  0  0  0  0  0  0  0  0  0
   52.7415  -35.6716   -9.4010 C   0  0  0  0  0  0  0  0  0  0  0  0
   53.3701  -34.3343   -9.7035 C   0  0  0  0  0  0  0  0  0  0  0  0
   54.6805  -34.1231   -9.0393 C   0  0  0  0  0  0  0  0  0  0  0  0
   55.4648  -35.3523   -8.9246 N   0  0  0  0  0  0  0  0  0  0  0  0
   49.4893  -37.7895  -11.3520 N   0  0  0  0  0  0  0  0  0  0  0  0
   48.5753  -36.6978  -11.4381 C   0  0  2  0  0  0  0  0  0  0  0  0
   47.1685  -37.2726  -11.4677 C   0  0  0  0  0  0  0  0  0  0  0  0
   46.9932  -38.4352  -11.0790 O   0  0  0  0  0  0  0  0  0  0  0  0
   48.7776  -35.7901  -12.5866 C   0  0  0  0  0  0  0  0  0  0  0  0
   49.9335  -35.9297  -13.4743 C   0  0  0  0  0  0  0  0  0  0  0  0
   51.1706  -35.1681  -13.2505 C   0  0  0  0  0  0  0  0  0  0  0  0
   51.5653  -34.6347  -14.5844 N   0  0  0  0  0  0  0  0  0  0  0  0
   50.6563  -33.8284  -15.3160 C   0  0  0  0  0  0  0  0  0  0  0  0
   49.4263  -34.3393  -15.8000 N   0  0  0  0  0  0  0  0  0  0  0  0
   50.9532  -32.5889  -15.5516 N   0  0  0  0  0  0  0  0  0  0  0  0
   46.0968  -36.4900  -11.9289 N   0  0  0  0  0  0  0  0  0  0  0  0
   45.0539  -35.9278  -11.0764 C   0  0  0  0  0  0  0  0  0  0  0  0
   44.2268  -36.9756  -10.4392 C   0  0  0  0  0  0  0  0  0  0  0  0
   44.3021  -37.1913   -9.0629 C   0  0  0  0  0  0  0  0  0  0  0  0
   43.5442  -38.1588   -8.4545 C   0  0  0  0  0  0  0  0  0  0  0  0
   42.6684  -38.9678   -9.1704 C   0  0  0  0  0  0  0  0  0  0  0  0
   41.8931  -39.9756   -8.4637 C   0  0  0  0  0  0  0  0  0  0  0  0
   41.8874  -39.9877   -7.0548 N   0  0  0  0  0  0  0  0  0  0  0  0
   41.2168  -40.8474   -9.1038 N   0  0  0  0  0  0  0  0  0  0  0  0
   42.5903  -38.7584  -10.5309 C   0  0  0  0  0  0  0  0  0  0  0  0
   43.3628  -37.7733  -11.1513 C   0  0  0  0  0  0  0  0  0  0  0  0
   55.7976  -33.6064   -3.5585 C   0  0  0  0  0  0  0  0  0  0  0  0
   55.0517  -33.6363   -4.8418 C   0  0  0  0  0  0  0  0  0  0  0  0
   55.3625  -34.9305   -5.6108 C   0  0  0  0  0  0  0  0  0  0  0  0
   56.4226  -34.6960   -6.6521 C   0  0  0  0  0  0  0  0  0  0  0  0
   56.3148  -35.5947   -7.8124 C   0  0  0  0  0  0  0  0  0  0  0  0
   56.8281  -32.8303   -3.5521 O   0  0  0  0  0  0  0  0  0  0  0  0
   57.0114  -36.6438   -7.8348 O   0  0  0  0  0  0  0  0  0  0  0  0
   53.2980  -33.4835   -4.7759 H   0  0  0  0  0  0  0  0  0  0  0  0
   47.4973  -34.5040    0.6926 H   0  0  0  0  0  0  0  0  0  0  0  0
   44.8737  -34.7064   -7.5898 H   0  0  0  0  0  0  0  0  0  0  0  0
   51.7497  -32.3138  -16.1690 H   0  0  0  0  0  0  0  0  0  0  0  0
   40.6233  -41.5438   -8.5881 H   0  0  0  0  0  0  0  0  0  0  0  0
  2  1  1  6
  1 65  1  0
  2  3  1  0
  5  2  1  1
  3  4  2  0
  3 12  1  0
  5  6  1  0
  6  7  1  6
  7  8  1  6
  8  9  1  0
  9 10  2  0
  9 11  1  0
 13 12  1  1
 13 14  1  0
 16 13  1  1
 14 15  2  0
 14 23  1  0
 16 17  1  0
 17 18  1  6
 18 19  1  6
 19 20  1  0
 20 21  1  0
 20 22  2  0
 24 23  1  6
 24 25  1  0
 27 24  1  1
 25 26  2  0
 25 34  1  0
 27 28  1  0
 28 29  1  6
 29 30  1  6
 30 31  1  0
 31 32  1  0
 31 33  2  0
 34 35  1  0
 35 36  1  6
 38 35  1  1
 36 37  2  0
 36 43  1  0
 39 38  1  1
 39 40  1  0
 40 41  1  6
 41 42  1  6
 42 69  1  0
 44 43  1  6
 44 45  1  0
 47 44  1  1
 45 46  2  0
 45 54  1  0
 47 48  1  0
 48 49  1  6
 49 50  1  6
 50 51  1  0
 51 52  1  0
 51 53  2  0
 55 54  1  1
 55 56  1  0
 56 57  2  0
 56 64  1  0
 57 58  1  0
 58 59  2  0
 59 60  1  0
 59 63  1  0
 60 61  1  0
 60 62  2  0
 63 64  2  0
 66 65  1  1
 65 70  2  0
 67 66  1  1
 67 68  1  0
 68 69  1  6
 69 71  2  0
 10 72  1  0
 22 73  1  0
 33 74  1  0
 53 75  1  0
 62 76  1  0
M  END
$$$$
