
     RDKit          3D

 76 77  0  0  0  0  0  0  0  0999 V2000
   52.1636  -34.7302   -4.0287 N   0  0  0  0  0  0  0  0  0  0  0  0
   52.8615  -35.9799   -4.1647 C   0  0  2  0  0  0  0  0  0  0  0  0
   52.1780  -37.0257   -4.9464 C   0  0  0  0  0  0  0  0  0  0  0  0
   52.7827  -38.1683   -4.7860 O   0  0  0  0  0  0  0  0  0  0  0  0
   53.3800  -36.5332   -2.8897 C   0  0  0  0  0  0  0  0  0  0  0  0
   53.5308  -35.4883   -1.8031 C   0  0  0  0  0  0  0  0  0  0  0  0
   54.7612  -34.6259   -2.0962 C   0  0  0  0  0  0  0  0  0  0  0  0
   55.9782  -35.4038   -2.0816 N   0  0  0  0  0  0  0  0  0  0  0  0
   57.2331  -34.7695   -2.2820 C   0  0  0  0  0  0  0  0  0  0  0  0
   57.1904  -33.5015   -2.5817 N   0  0  0  0  0  0  0  0  0  0  0  0
   58.4586  -35.4715   -2.1648 N   0  0  0  0  0  0  0  0  0  0  0  0
   51.0720  -37.0082   -5.7801 N   0  0  0  0  0  0  0  0  0  0  0  0
   49.6459  -37.0724   -5.6061 C   0  0  2  0  0  0  0  0  0  0  0  0
   48.9214  -36.1338   -6.5010 C   0  0  0  0  0  0  0  0  0  0  0  0
   49.1959  -34.9091   -6.3871 O   0  0  0  0  0  0  0  0  0  0  0  0
   49.0968  -37.3574   -4.2895 C   0  0  0  0  0  0  0  0  0  0  0  0
   49.6464  -36.8392   -3.0304 C   0  0  0  0  0  0  0  0  0  0  0  0
   51.0780  -36.4607   -3.0297 C   0  0  0  0  0  0  0  0  0  0  0  0
   51.3712  -35.9956   -1.6534 N   0  0  0  0  0  0  0  0  0  0  0  0
   51.2006  -34.6298   -1.3376 C   0  0  0  0  0  0  0  0  0  0  0  0
   50.5587  -34.3175   -0.1145 N   0  0  0  0  0  0  0  0  0  0  0  0
   51.6238  -33.6999   -2.1484 N   0  0  0  0  0  0  0  0  0  0  0  0
   47.9583  -36.4589   -7.4738 N   0  0  0  0  0  0  0  0  0  0  0  0
   47.1202  -37.5759   -7.6232 C   0  0  2  0  0  0  0  0  0  0  0  0
   46.8189  -37.8962   -9.0739 C   0  0  0  0  0  0  0  0  0  0  0  0
   46.2523  -39.0238   -9.2169 O   0  0  0  0  0  0  0  0  0  0  0  0
   45.8885  -37.6286   -6.8062 C   0  0  0  0  0  0  0  0  0  0  0  0
   45.1772  -36.3791   -6.4801 C   0  0  0  0  0  0  0  0  0  0  0  0
   45.6046  -35.6285   -5.2730 C   0  0  0  0  0  0  0  0  0  0  0  0
   45.0137  -36.2743   -4.0859 N   0  0  0  0  0  0  0  0  0  0  0  0
   44.1317  -37.3776   -4.2554 C   0  0  0  0  0  0  0  0  0  0  0  0
   44.0288  -38.0095   -5.5114 N   0  0  0  0  0  0  0  0  0  0  0  0
   43.4217  -37.8006   -3.2440 N   0  0  0  0  0  0  0  0  0  0  0  0
   47.0790  -37.1340  -10.1944 N   0  0  0  0  0  0  0  0  0  0  0  0
   48.3045  -36.6995  -10.8016 C   0  0  2  0  0  0  0  0  0  0  0  0
   48.1746  -36.7657  -12.3024 C   0  0  0  0  0  0  0  0  0  0  0  0
   48.9874  -36.0945  -12.9782 O   0  0  0  0  0  0  0  0  0  0  0  0
   49.5420  -37.4320  -10.4472 C   0  0  0  0  0  0  0  0  0  0  0  0
   50.5889  -36.4126  -10.0404 C   0  0  0  0  0  0  0  0  0  0  0  0
   51.9974  -36.9141  -10.1835 C   0  0  0  0  0  0  0  0  0  0  0  0
   52.9592  -35.8166  -10.5824 C   0  0  0  0  0  0  0  0  0  0  0  0
   52.3809  -34.5065  -10.3568 N   0  0  0  0  0  0  0  0  0  0  0  0
   47.2012  -37.5305  -12.9574 N   0  0  0  0  0  0  0  0  0  0  0  0
   45.8167  -37.5498  -12.4442 C   0  0  2  0  0  0  0  0  0  0  0  0
   45.8826  -37.7070  -10.9472 C   0  0  0  0  0  0  0  0  0  0  0  0
   45.9718  -36.6461  -10.2418 O   0  0  0  0  0  0  0  0  0  0  0  0
   45.1589  -38.6765  -13.1457 C   0  0  0  0  0  0  0  0  0  0  0  0
   45.0253  -38.6176  -14.6174 C   0  0  0  0  0  0  0  0  0  0  0  0
   43.7955  -39.2861  -15.1790 C   0  0  0  0  0  0  0  0  0  0  0  0
   43.3560  -38.5090  -16.3056 N   0  0  0  0  0  0  0  0  0  0  0  0
   44.1159  -38.4796  -17.5004 C   0  0  0  0  0  0  0  0  0  0  0  0
   44.4719  -39.6887  -18.1900 N   0  0  0  0  0  0  0  0  0  0  0  0
   44.5109  -37.3845  -18.0069 N   0  0  0  0  0  0  0  0  0  0  0  0
   45.8488  -38.9393  -10.2776 N   0  0  0  0  0  0  0  0  0  0  0  0
   44.6414  -39.5534   -9.7167 C   0  0  0  0  0  0  0  0  0  0  0  0
   44.6113  -39.3402   -8.2599 C   0  0  0  0  0  0  0  0  0  0  0  0
   45.6541  -39.8414   -7.4801 C   0  0  0  0  0  0  0  0  0  0  0  0
   45.6430  -39.6389   -6.1249 C   0  0  0  0  0  0  0  0  0  0  0  0
   44.6252  -38.9470   -5.4847 C   0  0  0  0  0  0  0  0  0  0  0  0
   44.6489  -38.7592   -4.0448 C   0  0  0  0  0  0  0  0  0  0  0  0
   45.7575  -39.1480   -3.2729 N   0  0  0  0  0  0  0  0  0  0  0  0
   43.6301  -38.2308   -3.4741 N   0  0  0  0  0  0  0  0  0  0  0  0
   43.6063  -38.4612   -6.2765 C   0  0  0  0  0  0  0  0  0  0  0  0
   43.5881  -38.6505   -7.6618 C   0  0  0  0  0  0  0  0  0  0  0  0
   52.2408  -33.6971   -5.0020 C   0  0  0  0  0  0  0  0  0  0  0  0
   53.4063  -33.4286   -5.8684 C   0  0  0  0  0  0  0  0  0  0  0  0
   53.5711  -34.3456   -7.0364 C   0  0  0  0  0  0  0  0  0  0  0  0
   53.7086  -33.6215   -8.3538 C   0  0  0  0  0  0  0  0  0  0  0  0
   52.4698  -33.7604   -9.1737 C   0  0  0  0  0  0  0  0  0  0  0  0
   51.2264  -32.9614   -5.1210 O   0  0  0  0  0  0  0  0  0  0  0  0
   51.4340  -33.1445   -8.7407 O   0  0  0  0  0  0  0  0  0  0  0  0
   56.9895  -32.8144   -1.7994 H   0  0  0  0  0  0  0  0  0  0  0  0
   52.4762  -33.8211   -2.6943 H   0  0  0  0  0  0  0  0  0  0  0  0
   42.3811  -37.8167   -3.2756 H   0  0  0  0  0  0  0  0  0  0  0  0
   44.5014  -36.4445  -17.5935 H   0  0  0  0  0  0  0  0  0  0  0  0
   43.6304  -37.3018   -3.0044 H   0  0  0  0  0  0  0  0  0  0  0  0
  1  2  1  0
  1 65  1  0
  2  3  1  0
  2  5  1  1
  3  4  2  0
  3 12  1  0
  5  6  1  0
  6  7  1  0
  7  8  1  0
  8  9  1  0
  9 10  2  0
  9 11  1  0
 12 13  1  0
 13 14  1  0
 13 16  1  1
 14 15  2  0
 14 23  1  0
 16 17  1  0
 17 18  1  0
 18 19  1  0
 19 20  1  0
 20 21  1  0
 20 22  2  0
 23 24  1  0
 24 25  1  0
 24 27  1  1
 25 26  2  0
 25 34  1  0
 27 28  1  0
 28 29  1  0
 29 30  1  0
 30 31  1  0
 31 32  1  0
 31 33  2  0
 34 35  1  0
 35 36  1  6
 35 38  1  0
 36 37  2  0
 36 43  1  0
 38 39  1  0
 39 40  1  0
 40 41  1  0
 41 42  1  0
 42 69  1  0
 43 44  1  0
 44 45  1  0
 44 47  1  6
 45 46  2  0
 45 54  1  0
 47 48  1  0
 48 49  1  0
 49 50  1  0
 50 51  1  0
 51 52  1  0
 51 53  2  0
 54 55  1  0
 55 56  1  0
 56 57  2  0
 56 64  1  0
 57 58  1  0
 58 59  2  0
 59 60  1  0
 59 63  1  0
 60 61  1  0
 60 62  2  0
 63 64  2  0
 65 66  1  0
 65 70  2  0
 66 67  1  0
 67 68  1  0
 68 69  1  0
 69 71  2  0
 10 72  1  0
 22 73  1  0
 33 74  1  0
 53 75  1  0
 62 76  1  0
M  END
$$$$
