
     RDKit          3D

 76 77  0  0  0  0  0  0  0  0999 V2000
   48.4206  -36.3385  -13.2108 N   0  0  0  0  0  0  0  0  0  0  0  0
   47.0958  -36.9324  -12.9745 C   0  0  2  0  0  0  0  0  0  0  0  0
   47.2081  -38.1282  -12.1102 C   0  0  0  0  0  0  0  0  0  0  0  0
   47.8039  -39.1146  -12.6935 O   0  0  0  0  0  0  0  0  0  0  0  0
   46.5996  -37.2961  -14.3520 C   0  0  0  0  0  0  0  0  0  0  0  0
   46.5028  -36.2314  -15.3618 C   0  0  0  0  0  0  0  0  0  0  0  0
   46.5704  -34.8199  -14.9209 C   0  0  0  0  0  0  0  0  0  0  0  0
   47.9139  -34.2479  -15.1564 N   0  0  0  0  0  0  0  0  0  0  0  0
   48.5989  -33.4855  -14.1660 C   0  0  0  0  0  0  0  0  0  0  0  0
   49.8222  -33.8477  -13.8977 N   0  0  0  0  0  0  0  0  0  0  0  0
   47.9970  -32.3919  -13.4975 N   0  0  0  0  0  0  0  0  0  0  0  0
   46.7414  -38.2511  -10.7898 N   0  0  0  0  0  0  0  0  0  0  0  0
   46.8743  -37.2867   -9.7020 C   0  0  2  0  0  0  0  0  0  0  0  0
   47.3037  -38.0458   -8.5025 C   0  0  0  0  0  0  0  0  0  0  0  0
   48.2528  -38.8849   -8.7706 O   0  0  0  0  0  0  0  0  0  0  0  0
   45.6224  -36.4889   -9.5463 C   0  0  0  0  0  0  0  0  0  0  0  0
   44.9561  -36.0674  -10.8157 C   0  0  0  0  0  0  0  0  0  0  0  0
   45.0856  -37.1816  -11.8291 C   0  0  0  0  0  0  0  0  0  0  0  0
   44.3272  -38.3546  -11.5098 N   0  0  0  0  0  0  0  0  0  0  0  0
   44.1968  -39.3730  -12.4875 C   0  0  0  0  0  0  0  0  0  0  0  0
   42.9807  -39.6417  -13.1557 N   0  0  0  0  0  0  0  0  0  0  0  0
   45.2119  -40.1252  -12.8268 N   0  0  0  0  0  0  0  0  0  0  0  0
   46.8784  -38.0144   -7.1903 N   0  0  0  0  0  0  0  0  0  0  0  0
   46.8071  -36.9531   -6.2260 C   0  0  2  0  0  0  0  0  0  0  0  0
   48.0001  -36.0744   -6.2129 C   0  0  0  0  0  0  0  0  0  0  0  0
   48.1429  -35.4574   -7.3386 O   0  0  0  0  0  0  0  0  0  0  0  0
   46.4465  -37.4906   -4.8431 C   0  0  0  0  0  0  0  0  0  0  0  0
   45.0304  -37.9088   -4.7030 C   0  0  0  0  0  0  0  0  0  0  0  0
   44.3832  -37.6935   -6.0796 C   0  0  0  0  0  0  0  0  0  0  0  0
   44.0804  -38.9706   -6.6947 N   0  0  0  0  0  0  0  0  0  0  0  0
   43.0002  -39.0274   -7.6184 C   0  0  0  0  0  0  0  0  0  0  0  0
   42.4650  -37.8086   -8.1211 N   0  0  0  0  0  0  0  0  0  0  0  0
   42.4864  -40.1230   -8.0206 N   0  0  0  0  0  0  0  0  0  0  0  0
   48.9269  -35.8301   -5.2327 N   0  0  0  0  0  0  0  0  0  0  0  0
   49.8215  -36.7298   -4.5322 C   0  0  2  0  0  0  0  0  0  0  0  0
   50.5390  -36.0089   -3.4426 C   0  0  0  0  0  0  0  0  0  0  0  0
   50.2258  -34.7960   -3.2549 O   0  0  0  0  0  0  0  0  0  0  0  0
   50.7247  -37.5261   -5.4089 C   0  0  0  0  0  0  0  0  0  0  0  0
   51.6409  -36.7036   -6.2779 C   0  0  0  0  0  0  0  0  0  0  0  0
   52.6224  -37.6017   -6.9887 C   0  0  0  0  0  0  0  0  0  0  0  0
   52.9660  -37.1488   -8.3598 C   0  0  0  0  0  0  0  0  0  0  0  0
   52.9995  -35.6922   -8.4861 N   0  0  0  0  0  0  0  0  0  0  0  0
   51.5438  -36.5970   -2.6152 N   0  0  0  0  0  0  0  0  0  0  0  0
   52.4592  -35.7045   -1.9825 C   0  0  2  0  0  0  0  0  0  0  0  0
   51.8336  -34.3193   -1.9869 C   0  0  0  0  0  0  0  0  0  0  0  0
   52.1367  -33.5331   -2.8944 O   0  0  0  0  0  0  0  0  0  0  0  0
   53.8105  -35.6538   -2.5787 C   0  0  0  0  0  0  0  0  0  0  0  0
   54.7680  -34.6096   -2.2094 C   0  0  0  0  0  0  0  0  0  0  0  0
   55.8582  -34.8684   -1.2581 C   0  0  0  0  0  0  0  0  0  0  0  0
   55.6100  -36.2348   -0.7188 N   0  0  0  0  0  0  0  0  0  0  0  0
   56.5605  -36.8315    0.1485 C   0  0  0  0  0  0  0  0  0  0  0  0
   57.8965  -36.3657    0.2272 N   0  0  0  0  0  0  0  0  0  0  0  0
   56.2031  -37.8309    0.8926 N   0  0  0  0  0  0  0  0  0  0  0  0
   50.9307  -33.9503   -0.9757 N   0  0  0  0  0  0  0  0  0  0  0  0
   50.4050  -32.6021   -0.7854 C   0  0  0  0  0  0  0  0  0  0  0  0
   51.4434  -31.6571   -0.3199 C   0  0  0  0  0  0  0  0  0  0  0  0
   52.7373  -32.1074   -0.0566 C   0  0  0  0  0  0  0  0  0  0  0  0
   53.7130  -31.2468    0.3770 C   0  0  0  0  0  0  0  0  0  0  0  0
   53.4665  -29.8924    0.5745 C   0  0  0  0  0  0  0  0  0  0  0  0
   54.5461  -29.0335    1.0359 C   0  0  0  0  0  0  0  0  0  0  0  0
   55.8837  -29.4250    0.8290 N   0  0  0  0  0  0  0  0  0  0  0  0
   54.2968  -27.9292    1.6238 N   0  0  0  0  0  0  0  0  0  0  0  0
   52.1893  -29.4425    0.3156 C   0  0  0  0  0  0  0  0  0  0  0  0
   51.1947  -30.3191   -0.1255 C   0  0  0  0  0  0  0  0  0  0  0  0
   49.6660  -36.8694  -12.8969 C   0  0  0  0  0  0  0  0  0  0  0  0
   50.1754  -37.2420  -11.5532 C   0  0  0  0  0  0  0  0  0  0  0  0
   50.5710  -35.9838  -10.7636 C   0  0  0  0  0  0  0  0  0  0  0  0
   52.0520  -35.7350  -10.8552 C   0  0  0  0  0  0  0  0  0  0  0  0
   52.6036  -35.0371   -9.6829 C   0  0  0  0  0  0  0  0  0  0  0  0
   50.4964  -37.0718  -13.8632 O   0  0  0  0  0  0  0  0  0  0  0  0
   52.7387  -33.7857   -9.7291 O   0  0  0  0  0  0  0  0  0  0  0  0
   50.3695  -34.5262  -14.4270 H   0  0  0  0  0  0  0  0  0  0  0  0
   45.3162  -40.5828  -13.7433 H   0  0  0  0  0  0  0  0  0  0  0  0
   42.9553  -41.0174   -7.7731 H   0  0  0  0  0  0  0  0  0  0  0  0
   55.2182  -37.9621    1.2148 H   0  0  0  0  0  0  0  0  0  0  0  0
   53.8192  -27.1484    1.1086 H   0  0  0  0  0  0  0  0  0  0  0  0
  2  1  1  6
  1 65  1  0
  2  3  1  0
  5  2  1  1
  3  4  2  0
  3 12  1  0
  5  6  1  0
  6  7  1  6
  7  8  1  6
  8  9  1  0
  9 10  2  0
  9 11  1  0
 13 12  1  6
 13 14  1  0
 16 13  1  1
 14 15  2  0
 14 23  1  0
 16 17  1  0
 17 18  1  6
 18 19  1  6
 19 20  1  0
 20 21  1  0
 20 22  2  0
 24 23  1  6
 24 25  1  0
 27 24  1  1
 25 26  2  0
 25 34  1  0
 27 28  1  0
 28 29  1  6
 29 30  1  6
 30 31  1  0
 31 32  1  0
 31 33  2  0
 34 35  1  0
 35 36  1  1
 38 35  1  1
 36 37  2  0
 36 43  1  0
 39 38  1  1
 39 40  1  0
 40 41  1  6
 41 42  1  6
 42 69  1  0
 44 43  1  6
 44 45  1  0
 47 44  1  1
 45 46  2  0
 45 54  1  0
 47 48  1  0
 48 49  1  6
 49 50  1  6
 50 51  1  0
 51 52  1  0
 51 53  2  0
 55 54  1  1
 55 56  1  0
 56 57  2  0
 56 64  1  0
 57 58  1  0
 58 59  2  0
 59 60  1  0
 59 63  1  0
 60 61  1  0
 60 62  2  0
 63 64  2  0
 66 65  1  1
 65 70  2  0
 67 66  1  1
 67 68  1  0
 68 69  1  6
 69 71  2  0
 10 72  1  0
 22 73  1  0
 33 74  1  0
 53 75  1  0
 62 76  1  0
M  END
$$$$
