
     RDKit          3D

 76 77  0  0  0  0  0  0  0  0999 V2000
   55.1661  -33.8274   -4.9470 N   0  0  0  0  0  0  0  0  0  0  0  0
   55.0018  -34.9136   -4.0193 C   0  0  2  0  0  0  0  0  0  0  0  0
   53.6316  -35.4326   -3.8607 C   0  0  0  0  0  0  0  0  0  0  0  0
   53.5726  -36.2255   -2.8288 O   0  0  0  0  0  0  0  0  0  0  0  0
   55.6339  -34.6894   -2.6962 C   0  0  0  0  0  0  0  0  0  0  0  0
   57.0491  -34.1574   -2.7931 C   0  0  0  0  0  0  0  0  0  0  0  0
   57.0295  -32.6342   -2.6416 C   0  0  0  0  0  0  0  0  0  0  0  0
   57.8453  -32.1940   -1.5338 N   0  0  0  0  0  0  0  0  0  0  0  0
   57.9669  -30.8091   -1.2430 C   0  0  0  0  0  0  0  0  0  0  0  0
   57.0386  -30.0384   -1.7368 N   0  0  0  0  0  0  0  0  0  0  0  0
   59.0331  -30.2943   -0.4642 N   0  0  0  0  0  0  0  0  0  0  0  0
   52.4623  -35.2423   -4.5784 N   0  0  0  0  0  0  0  0  0  0  0  0
   51.4215  -34.2506   -4.6134 C   0  0  2  0  0  0  0  0  0  0  0  0
   50.9853  -33.9332   -5.9976 C   0  0  0  0  0  0  0  0  0  0  0  0
   51.8639  -33.4931   -6.7866 O   0  0  0  0  0  0  0  0  0  0  0  0
   51.3993  -33.1992   -3.6083 C   0  0  0  0  0  0  0  0  0  0  0  0
   51.5359  -33.4277   -2.1643 C   0  0  0  0  0  0  0  0  0  0  0  0
   52.7349  -34.1706   -1.7139 C   0  0  0  0  0  0  0  0  0  0  0  0
   52.5450  -34.4002   -0.2622 N   0  0  0  0  0  0  0  0  0  0  0  0
   51.6045  -33.6161    0.4413 C   0  0  0  0  0  0  0  0  0  0  0  0
   51.9670  -32.2826    0.7506 N   0  0  0  0  0  0  0  0  0  0  0  0
   50.4483  -34.1115    0.7864 N   0  0  0  0  0  0  0  0  0  0  0  0
   49.6927  -34.0737   -6.5352 N   0  0  0  0  0  0  0  0  0  0  0  0
   48.4280  -34.1284   -5.9270 C   0  0  2  0  0  0  0  0  0  0  0  0
   47.4431  -34.9897   -6.6926 C   0  0  0  0  0  0  0  0  0  0  0  0
   46.3811  -35.2185   -6.0348 O   0  0  0  0  0  0  0  0  0  0  0  0
   47.8031  -32.8517   -5.5181 C   0  0  0  0  0  0  0  0  0  0  0  0
   48.6297  -31.8050   -4.8898 C   0  0  0  0  0  0  0  0  0  0  0  0
   49.7758  -32.2330   -4.0494 C   0  0  0  0  0  0  0  0  0  0  0  0
   50.1135  -31.1358   -3.1234 N   0  0  0  0  0  0  0  0  0  0  0  0
   49.9638  -31.3312   -1.7222 C   0  0  0  0  0  0  0  0  0  0  0  0
   48.6768  -31.4783   -1.1659 N   0  0  0  0  0  0  0  0  0  0  0  0
   51.0218  -31.3745   -0.9575 N   0  0  0  0  0  0  0  0  0  0  0  0
   47.5700  -35.5213   -7.9596 N   0  0  0  0  0  0  0  0  0  0  0  0
   48.4706  -36.4926   -8.5118 C   0  0  2  0  0  0  0  0  0  0  0  0
   47.7244  -37.3820   -9.4742 C   0  0  0  0  0  0  0  0  0  0  0  0
   48.2682  -37.6161  -10.5775 O   0  0  0  0  0  0  0  0  0  0  0  0
   49.1789  -37.3857   -7.5662 C   0  0  0  0  0  0  0  0  0  0  0  0
   50.6572  -37.3460   -7.9032 C   0  0  0  0  0  0  0  0  0  0  0  0
   51.4091  -38.5583   -7.4332 C   0  0  0  0  0  0  0  0  0  0  0  0
   52.5331  -38.9358   -8.3727 C   0  0  0  0  0  0  0  0  0  0  0  0
   52.8555  -37.8428   -9.2689 N   0  0  0  0  0  0  0  0  0  0  0  0
   46.4735  -37.9442   -9.1902 N   0  0  0  0  0  0  0  0  0  0  0  0
   45.4522  -38.0340  -10.2529 C   0  0  2  0  0  0  0  0  0  0  0  0
   45.1056  -36.6308  -10.6783 C   0  0  0  0  0  0  0  0  0  0  0  0
   45.9072  -35.6939  -10.3455 O   0  0  0  0  0  0  0  0  0  0  0  0
   44.3262  -38.7813   -9.6463 C   0  0  0  0  0  0  0  0  0  0  0  0
   44.6272  -39.9374   -8.7746 C   0  0  0  0  0  0  0  0  0  0  0  0
   43.5173  -40.9503   -8.6434 C   0  0  0  0  0  0  0  0  0  0  0  0
   44.1256  -42.2330   -8.4181 N   0  0  0  0  0  0  0  0  0  0  0  0
   44.6948  -42.5490   -7.1603 C   0  0  0  0  0  0  0  0  0  0  0  0
   45.2424  -43.8502   -6.8931 N   0  0  0  0  0  0  0  0  0  0  0  0
   44.7426  -41.6951   -6.2221 N   0  0  0  0  0  0  0  0  0  0  0  0
   43.9644  -36.2860  -11.4179 N   0  0  0  0  0  0  0  0  0  0  0  0
   43.9398  -36.0775  -12.8689 C   0  0  0  0  0  0  0  0  0  0  0  0
   44.9924  -35.1194  -13.2470 C   0  0  0  0  0  0  0  0  0  0  0  0
   45.9504  -34.7567  -12.2996 C   0  0  0  0  0  0  0  0  0  0  0  0
   46.9417  -33.8752  -12.6433 C   0  0  0  0  0  0  0  0  0  0  0  0
   47.0358  -33.3193  -13.9108 C   0  0  0  0  0  0  0  0  0  0  0  0
   48.0995  -32.3842  -14.2325 C   0  0  0  0  0  0  0  0  0  0  0  0
   48.9347  -31.8525  -13.2347 N   0  0  0  0  0  0  0  0  0  0  0  0
   48.2693  -32.0388  -15.4550 N   0  0  0  0  0  0  0  0  0  0  0  0
   46.0780  -33.6933  -14.8295 C   0  0  0  0  0  0  0  0  0  0  0  0
   45.0540  -34.5905  -14.5106 C   0  0  0  0  0  0  0  0  0  0  0  0
   55.3529  -34.0294   -6.3415 C   0  0  0  0  0  0  0  0  0  0  0  0
   56.0174  -35.1989   -6.9512 C   0  0  0  0  0  0  0  0  0  0  0  0
   55.1969  -36.4453   -7.0255 C   0  0  0  0  0  0  0  0  0  0  0  0
   55.1310  -37.0393   -8.4117 C   0  0  0  0  0  0  0  0  0  0  0  0
   53.7871  -36.8249   -9.0235 C   0  0  0  0  0  0  0  0  0  0  0  0
   54.9114  -33.1295   -7.1028 O   0  0  0  0  0  0  0  0  0  0  0  0
   53.4942  -35.6177   -9.3343 O   0  0  0  0  0  0  0  0  0  0  0  0
   56.3102  -29.6515   -1.0705 H   0  0  0  0  0  0  0  0  0  0  0  0
   49.8526  -34.5870    0.1094 H   0  0  0  0  0  0  0  0  0  0  0  0
   51.4123  -32.2771   -0.6157 H   0  0  0  0  0  0  0  0  0  0  0  0
   45.2375  -41.7533   -5.3242 H   0  0  0  0  0  0  0  0  0  0  0  0
   47.6441  -32.3147  -16.2403 H   0  0  0  0  0  0  0  0  0  0  0  0
  1  2  1  0
  1 65  1  0
  2  3  1  0
  2  5  1  1
  3  4  2  0
  3 12  1  0
  5  6  1  0
  6  7  1  0
  7  8  1  0
  8  9  1  0
  9 10  2  0
  9 11  1  0
 12 13  1  0
 13 14  1  0
 13 16  1  6
 14 15  2  0
 14 23  1  0
 16 17  1  0
 17 18  1  0
 18 19  1  0
 19 20  1  0
 20 21  1  0
 20 22  2  0
 23 24  1  0
 24 25  1  0
 24 27  1  6
 25 26  2  0
 25 34  1  0
 27 28  1  0
 28 29  1  0
 29 30  1  0
 30 31  1  0
 31 32  1  0
 31 33  2  0
 34 35  1  0
 35 36  1  6
 35 38  1  0
 36 37  2  0
 36 43  1  0
 38 39  1  0
 39 40  1  0
 40 41  1  0
 41 42  1  0
 42 69  1  0
 43 44  1  0
 44 45  1  0
 44 47  1  1
 45 46  2  0
 45 54  1  0
 47 48  1  0
 48 49  1  0
 49 50  1  0
 50 51  1  0
 51 52  1  0
 51 53  2  0
 54 55  1  0
 55 56  1  0
 56 57  2  0
 56 64  1  0
 57 58  1  0
 58 59  2  0
 59 60  1  0
 59 63  1  0
 60 61  1  0
 60 62  2  0
 63 64  2  0
 65 66  1  0
 65 70  2  0
 66 67  1  0
 67 68  1  0
 68 69  1  0
 69 71  2  0
 10 72  1  0
 22 73  1  0
 33 74  1  0
 53 75  1  0
 62 76  1  0
M  END
$$$$
