
     RDKit          3D

 76 77  0  0  0  0  0  0  0  0999 V2000
   55.0233  -34.3651   -3.4711 N   0  0  0  0  0  0  0  0  0  0  0  0
   54.2907  -35.3538   -2.7272 C   0  0  2  0  0  0  0  0  0  0  0  0
   52.8931  -35.5751   -3.1393 C   0  0  0  0  0  0  0  0  0  0  0  0
   52.2742  -36.2938   -2.2464 O   0  0  0  0  0  0  0  0  0  0  0  0
   54.3858  -35.2062   -1.2543 C   0  0  0  0  0  0  0  0  0  0  0  0
   54.9849  -33.8827   -0.8245 C   0  0  0  0  0  0  0  0  0  0  0  0
   55.7977  -33.2948   -1.9808 C   0  0  0  0  0  0  0  0  0  0  0  0
   56.2600  -31.9581   -1.6875 N   0  0  0  0  0  0  0  0  0  0  0  0
   57.1109  -31.2806   -2.6008 C   0  0  0  0  0  0  0  0  0  0  0  0
   58.1587  -31.9434   -3.0039 N   0  0  0  0  0  0  0  0  0  0  0  0
   56.8395  -29.9633   -3.0472 N   0  0  0  0  0  0  0  0  0  0  0  0
   52.1638  -35.1815   -4.2491 N   0  0  0  0  0  0  0  0  0  0  0  0
   51.4464  -34.0008   -4.6484 C   0  0  2  0  0  0  0  0  0  0  0  0
   51.6617  -33.6614   -6.0785 C   0  0  0  0  0  0  0  0  0  0  0  0
   52.8488  -33.4443   -6.4417 O   0  0  0  0  0  0  0  0  0  0  0  0
   51.2480  -32.9245   -3.6900 C   0  0  0  0  0  0  0  0  0  0  0  0
   50.1960  -32.9077   -2.6659 C   0  0  0  0  0  0  0  0  0  0  0  0
   50.4293  -33.7234   -1.4522 C   0  0  0  0  0  0  0  0  0  0  0  0
   49.5170  -34.8857   -1.5664 N   0  0  0  0  0  0  0  0  0  0  0  0
   50.0445  -36.1896   -1.4399 C   0  0  0  0  0  0  0  0  0  0  0  0
   51.3171  -36.3232   -0.8334 N   0  0  0  0  0  0  0  0  0  0  0  0
   49.3751  -37.2242   -1.8675 N   0  0  0  0  0  0  0  0  0  0  0  0
   50.6835  -33.5584   -7.0846 N   0  0  0  0  0  0  0  0  0  0  0  0
   49.2996  -33.3276   -7.0231 C   0  0  2  0  0  0  0  0  0  0  0  0
   48.5395  -34.0022   -8.1479 C   0  0  0  0  0  0  0  0  0  0  0  0
   47.2824  -33.9809   -7.9685 O   0  0  0  0  0  0  0  0  0  0  0  0
   48.8399  -31.9338   -6.8397 C   0  0  0  0  0  0  0  0  0  0  0  0
   49.5644  -30.8350   -7.5040 C   0  0  0  0  0  0  0  0  0  0  0  0
   50.9553  -31.0897   -7.9553 C   0  0  0  0  0  0  0  0  0  0  0  0
   50.9195  -32.0787   -9.0489 N   0  0  0  0  0  0  0  0  0  0  0  0
   50.4152  -31.6956  -10.3229 C   0  0  0  0  0  0  0  0  0  0  0  0
   49.6979  -30.4900  -10.4620 N   0  0  0  0  0  0  0  0  0  0  0  0
   50.6210  -32.4640  -11.3588 N   0  0  0  0  0  0  0  0  0  0  0  0
   49.0405  -34.6029   -9.2846 N   0  0  0  0  0  0  0  0  0  0  0  0
   49.8661  -35.7604   -9.4793 C   0  0  2  0  0  0  0  0  0  0  0  0
   49.3914  -36.5198  -10.6926 C   0  0  0  0  0  0  0  0  0  0  0  0
   49.5214  -35.9610  -11.8055 O   0  0  0  0  0  0  0  0  0  0  0  0
   49.9489  -36.7374   -8.3693 C   0  0  0  0  0  0  0  0  0  0  0  0
   51.4153  -37.0147   -8.0985 C   0  0  0  0  0  0  0  0  0  0  0  0
   51.6581  -38.3334   -7.4217 C   0  0  0  0  0  0  0  0  0  0  0  0
   52.9572  -38.9726   -7.8605 C   0  0  0  0  0  0  0  0  0  0  0  0
   53.8206  -38.0082   -8.5133 N   0  0  0  0  0  0  0  0  0  0  0  0
   48.8220  -37.7976  -10.6262 N   0  0  0  0  0  0  0  0  0  0  0  0
   47.3528  -37.9461  -10.6286 C   0  0  2  0  0  0  0  0  0  0  0  0
   47.0314  -39.3515  -10.1909 C   0  0  0  0  0  0  0  0  0  0  0  0
   47.6990  -40.3049  -10.7166 O   0  0  0  0  0  0  0  0  0  0  0  0
   46.9334  -37.6295  -12.0135 C   0  0  0  0  0  0  0  0  0  0  0  0
   46.2125  -36.3632  -12.2667 C   0  0  0  0  0  0  0  0  0  0  0  0
   46.3623  -35.8051  -13.6598 C   0  0  0  0  0  0  0  0  0  0  0  0
   47.5752  -35.0344  -13.6900 N   0  0  0  0  0  0  0  0  0  0  0  0
   47.5701  -33.7022  -14.1707 C   0  0  0  0  0  0  0  0  0  0  0  0
   47.4382  -33.4136  -15.5719 N   0  0  0  0  0  0  0  0  0  0  0  0
   47.6819  -32.7136  -13.3822 N   0  0  0  0  0  0  0  0  0  0  0  0
   46.0513  -39.6817   -9.2429 N   0  0  0  0  0  0  0  0  0  0  0  0
   44.6346  -39.3179   -9.3433 C   0  0  0  0  0  0  0  0  0  0  0  0
   43.9324  -39.7281   -8.1156 C   0  0  0  0  0  0  0  0  0  0  0  0
   44.6747  -39.9712   -6.9595 C   0  0  0  0  0  0  0  0  0  0  0  0
   44.0311  -40.3419   -5.8079 C   0  0  0  0  0  0  0  0  0  0  0  0
   42.6532  -40.4883   -5.7402 C   0  0  0  0  0  0  0  0  0  0  0  0
   42.0108  -40.8884   -4.5006 C   0  0  0  0  0  0  0  0  0  0  0  0
   42.7575  -41.3595   -3.4067 N   0  0  0  0  0  0  0  0  0  0  0  0
   40.7345  -40.8111   -4.4137 N   0  0  0  0  0  0  0  0  0  0  0  0
   41.9416  -40.2422   -6.8952 C   0  0  0  0  0  0  0  0  0  0  0  0
   42.5680  -39.8622   -8.0862 C   0  0  0  0  0  0  0  0  0  0  0  0
   55.6953  -34.6612   -4.6881 C   0  0  0  0  0  0  0  0  0  0  0  0
   56.2911  -35.9670   -5.0362 C   0  0  0  0  0  0  0  0  0  0  0  0
   55.3291  -37.0218   -5.4769 C   0  0  0  0  0  0  0  0  0  0  0  0
   55.6911  -37.6493   -6.8013 C   0  0  0  0  0  0  0  0  0  0  0  0
   54.7686  -37.1920   -7.8812 C   0  0  0  0  0  0  0  0  0  0  0  0
   55.7811  -33.7239   -5.5239 O   0  0  0  0  0  0  0  0  0  0  0  0
   54.8742  -35.9651   -8.2321 O   0  0  0  0  0  0  0  0  0  0  0  0
   58.2441  -32.9593   -2.7126 H   0  0  0  0  0  0  0  0  0  0  0  0
   49.2626  -37.4071   -2.8641 H   0  0  0  0  0  0  0  0  0  0  0  0
   50.0804  -32.3482  -12.2411 H   0  0  0  0  0  0  0  0  0  0  0  0
   46.9628  -32.0432  -13.0854 H   0  0  0  0  0  0  0  0  0  0  0  0
   40.1528  -40.0820   -4.8761 H   0  0  0  0  0  0  0  0  0  0  0  0
  1  2  1  0
  1 65  1  0
  2  3  1  0
  2  5  1  1
  3  4  2  0
  3 12  1  0
  5  6  1  0
  6  7  1  0
  7  8  1  0
  8  9  1  0
  9 10  2  0
  9 11  1  0
 12 13  1  0
 13 14  1  0
 13 16  1  1
 14 15  2  0
 14 23  1  0
 16 17  1  0
 17 18  1  0
 18 19  1  0
 19 20  1  0
 20 21  1  0
 20 22  2  0
 23 24  1  0
 24 25  1  0
 24 27  1  6
 25 26  2  0
 25 34  1  0
 27 28  1  0
 28 29  1  0
 29 30  1  0
 30 31  1  0
 31 32  1  0
 31 33  2  0
 34 35  1  0
 35 36  1  6
 35 38  1  0
 36 37  2  0
 36 43  1  0
 38 39  1  0
 39 40  1  0
 40 41  1  0
 41 42  1  0
 42 69  1  0
 43 44  1  0
 44 45  1  0
 44 47  1  6
 45 46  2  0
 45 54  1  0
 47 48  1  0
 48 49  1  0
 49 50  1  0
 50 51  1  0
 51 52  1  0
 51 53  2  0
 54 55  1  0
 55 56  1  0
 56 57  2  0
 56 64  1  0
 57 58  1  0
 58 59  2  0
 59 60  1  0
 59 63  1  0
 60 61  1  0
 60 62  2  0
 63 64  2  0
 65 66  1  0
 65 70  2  0
 66 67  1  0
 67 68  1  0
 68 69  1  0
 69 71  2  0
 10 72  1  0
 22 73  1  0
 33 74  1  0
 53 75  1  0
 62 76  1  0
M  END
$$$$
