
     RDKit          3D

 76 77  0  0  0  0  0  0  0  0999 V2000
   55.2317  -35.5849   -4.1086 N   0  0  0  0  0  0  0  0  0  0  0  0
   54.1524  -34.9482   -3.3383 C   0  0  2  0  0  0  0  0  0  0  0  0
   53.3857  -34.0133   -4.1916 C   0  0  0  0  0  0  0  0  0  0  0  0
   54.0694  -32.9732   -4.5364 O   0  0  0  0  0  0  0  0  0  0  0  0
   54.8675  -34.2174   -2.2291 C   0  0  0  0  0  0  0  0  0  0  0  0
   54.0933  -33.2852   -1.3959 C   0  0  0  0  0  0  0  0  0  0  0  0
   53.6495  -32.0011   -1.9836 C   0  0  0  0  0  0  0  0  0  0  0  0
   52.3882  -31.5360   -1.3666 N   0  0  0  0  0  0  0  0  0  0  0  0
   52.0729  -31.7891    0.0001 C   0  0  0  0  0  0  0  0  0  0  0  0
   51.3061  -32.8160    0.2385 N   0  0  0  0  0  0  0  0  0  0  0  0
   52.5561  -30.9770    1.0548 N   0  0  0  0  0  0  0  0  0  0  0  0
   52.0563  -34.1727   -4.6200 N   0  0  0  0  0  0  0  0  0  0  0  0
   51.4254  -35.3803   -5.1441 C   0  0  2  0  0  0  0  0  0  0  0  0
   50.6532  -34.9774   -6.3444 C   0  0  0  0  0  0  0  0  0  0  0  0
   51.3295  -34.1883   -7.1169 O   0  0  0  0  0  0  0  0  0  0  0  0
   50.6447  -36.0747   -4.0781 C   0  0  0  0  0  0  0  0  0  0  0  0
   50.7807  -35.5131   -2.7001 C   0  0  0  0  0  0  0  0  0  0  0  0
   51.5417  -34.2091   -2.7766 C   0  0  0  0  0  0  0  0  0  0  0  0
   50.7091  -33.0431   -2.7567 N   0  0  0  0  0  0  0  0  0  0  0  0
   51.2886  -31.7933   -2.4217 C   0  0  0  0  0  0  0  0  0  0  0  0
   50.5466  -30.5912   -2.3825 N   0  0  0  0  0  0  0  0  0  0  0  0
   52.5587  -31.6893   -2.1257 N   0  0  0  0  0  0  0  0  0  0  0  0
   49.3768  -35.2877   -6.7667 N   0  0  0  0  0  0  0  0  0  0  0  0
   48.7296  -36.5403   -7.0377 C   0  0  2  0  0  0  0  0  0  0  0  0
   49.5733  -37.5007   -7.7870 C   0  0  0  0  0  0  0  0  0  0  0  0
   50.6203  -37.8363   -7.1092 O   0  0  0  0  0  0  0  0  0  0  0  0
   47.3599  -36.3241   -7.6769 C   0  0  0  0  0  0  0  0  0  0  0  0
   46.3215  -35.8325   -6.7388 C   0  0  0  0  0  0  0  0  0  0  0  0
   47.0758  -35.1811   -5.5697 C   0  0  0  0  0  0  0  0  0  0  0  0
   47.2150  -33.7563   -5.7966 N   0  0  0  0  0  0  0  0  0  0  0  0
   46.6972  -33.2193   -7.0077 C   0  0  0  0  0  0  0  0  0  0  0  0
   47.4840  -32.2797   -7.7309 N   0  0  0  0  0  0  0  0  0  0  0  0
   45.5572  -33.5413   -7.4796 N   0  0  0  0  0  0  0  0  0  0  0  0
   49.4150  -38.0590   -9.0290 N   0  0  0  0  0  0  0  0  0  0  0  0
   49.2970  -37.4414  -10.3350 C   0  0  2  0  0  0  0  0  0  0  0  0
   48.9905  -38.4676  -11.3718 C   0  0  0  0  0  0  0  0  0  0  0  0
   49.1501  -39.6803  -11.0427 O   0  0  0  0  0  0  0  0  0  0  0  0
   50.4237  -36.5417  -10.7084 C   0  0  0  0  0  0  0  0  0  0  0  0
   51.7748  -37.2085  -10.7406 C   0  0  0  0  0  0  0  0  0  0  0  0
   52.8068  -36.2579  -11.2942 C   0  0  0  0  0  0  0  0  0  0  0  0
   54.1453  -36.3936  -10.6673 C   0  0  0  0  0  0  0  0  0  0  0  0
   54.4641  -37.7729  -10.2998 N   0  0  0  0  0  0  0  0  0  0  0  0
   48.5382  -38.1659  -12.6926 N   0  0  0  0  0  0  0  0  0  0  0  0
   47.2099  -37.6615  -12.8178 C   0  0  2  0  0  0  0  0  0  0  0  0
   46.4273  -38.6288  -13.6907 C   0  0  0  0  0  0  0  0  0  0  0  0
   46.7481  -38.7482  -14.8809 O   0  0  0  0  0  0  0  0  0  0  0  0
   47.1004  -36.2892  -13.3553 C   0  0  0  0  0  0  0  0  0  0  0  0
   48.2233  -35.3522  -13.2876 C   0  0  0  0  0  0  0  0  0  0  0  0
   48.4705  -34.5344  -12.0915 C   0  0  0  0  0  0  0  0  0  0  0  0
   49.8146  -34.9404  -11.5934 N   0  0  0  0  0  0  0  0  0  0  0  0
   50.7402  -33.9483  -11.1802 C   0  0  0  0  0  0  0  0  0  0  0  0
   51.9079  -34.2747  -10.4466 N   0  0  0  0  0  0  0  0  0  0  0  0
   50.5176  -32.7069  -11.4791 N   0  0  0  0  0  0  0  0  0  0  0  0
   45.3634  -39.3672  -13.1461 N   0  0  0  0  0  0  0  0  0  0  0  0
   44.9370  -40.6800  -13.6208 C   0  0  0  0  0  0  0  0  0  0  0  0
   44.6120  -41.5988  -12.5081 C   0  0  0  0  0  0  0  0  0  0  0  0
   44.6148  -41.1379  -11.1913 C   0  0  0  0  0  0  0  0  0  0  0  0
   44.3176  -41.9750  -10.1466 C   0  0  0  0  0  0  0  0  0  0  0  0
   44.0000  -43.3147  -10.3428 C   0  0  0  0  0  0  0  0  0  0  0  0
   43.6943  -44.1487   -9.1909 C   0  0  0  0  0  0  0  0  0  0  0  0
   43.8229  -45.5482   -9.2913 N   0  0  0  0  0  0  0  0  0  0  0  0
   43.3133  -43.6287   -8.0902 N   0  0  0  0  0  0  0  0  0  0  0  0
   43.9958  -43.7750  -11.6424 C   0  0  0  0  0  0  0  0  0  0  0  0
   44.2993  -42.9226  -12.7071 C   0  0  0  0  0  0  0  0  0  0  0  0
   55.6803  -35.2618   -5.3837 C   0  0  0  0  0  0  0  0  0  0  0  0
   54.8983  -35.2745   -6.6455 C   0  0  0  0  0  0  0  0  0  0  0  0
   54.7009  -36.7173   -7.1376 C   0  0  0  0  0  0  0  0  0  0  0  0
   55.7163  -37.0702   -8.1902 C   0  0  0  0  0  0  0  0  0  0  0  0
   55.2405  -38.0790   -9.1502 C   0  0  0  0  0  0  0  0  0  0  0  0
   56.9134  -34.9072   -5.5175 O   0  0  0  0  0  0  0  0  0  0  0  0
   55.5313  -39.2886   -8.9540 O   0  0  0  0  0  0  0  0  0  0  0  0
   50.7307  -33.2994   -0.4511 H   0  0  0  0  0  0  0  0  0  0  0  0
   52.9309  -31.1212   -1.3518 H   0  0  0  0  0  0  0  0  0  0  0  0
   45.2053  -34.5075   -7.3252 H   0  0  0  0  0  0  0  0  0  0  0  0
   49.9815  -32.0690  -10.8489 H   0  0  0  0  0  0  0  0  0  0  0  0
   43.1597  -42.5923   -8.0166 H   0  0  0  0  0  0  0  0  0  0  0  0
  2  1  1  6
  1 65  1  0
  2  3  1  0
  5  2  1  1
  3  4  2  0
  3 12  1  0
  5  6  1  0
  6  7  1  6
  7  8  1  6
  8  9  1  0
  9 10  2  0
  9 11  1  0
 13 12  1  1
 13 14  1  0
 16 13  1  1
 14 15  2  0
 14 23  1  0
 16 17  1  0
 17 18  1  6
 18 19  1  6
 19 20  1  0
 20 21  1  0
 20 22  2  0
 24 23  1  6
 24 25  1  0
 27 24  1  1
 25 26  2  0
 25 34  1  0
 27 28  1  0
 28 29  1  6
 29 30  1  6
 30 31  1  0
 31 32  1  0
 31 33  2  0
 34 35  1  0
 35 36  1  6
 38 35  1  1
 36 37  2  0
 36 43  1  0
 39 38  1  1
 39 40  1  0
 40 41  1  6
 41 42  1  6
 42 69  1  0
 44 43  1  6
 44 45  1  0
 47 44  1  1
 45 46  2  0
 45 54  1  0
 47 48  1  0
 48 49  1  6
 49 50  1  6
 50 51  1  0
 51 52  1  0
 51 53  2  0
 55 54  1  1
 55 56  1  0
 56 57  2  0
 56 64  1  0
 57 58  1  0
 58 59  2  0
 59 60  1  0
 59 63  1  0
 60 61  1  0
 60 62  2  0
 63 64  2  0
 66 65  1  1
 65 70  2  0
 67 66  1  1
 67 68  1  0
 68 69  1  6
 69 71  2  0
 10 72  1  0
 22 73  1  0
 33 74  1  0
 53 75  1  0
 62 76  1  0
M  END
$$$$
