
     RDKit          3D

 76 77  0  0  0  0  0  0  0  0999 V2000
   48.8723  -36.0710   -1.4918 N   0  0  0  0  0  0  0  0  0  0  0  0
   50.2144  -35.6117   -1.8808 C   0  0  2  0  0  0  0  0  0  0  0  0
   50.8187  -36.5412   -2.8610 C   0  0  0  0  0  0  0  0  0  0  0  0
   51.1064  -37.6919   -2.3499 O   0  0  0  0  0  0  0  0  0  0  0  0
   50.9921  -35.5964   -0.5881 C   0  0  0  0  0  0  0  0  0  0  0  0
   51.9897  -34.5347   -0.3872 C   0  0  0  0  0  0  0  0  0  0  0  0
   52.0493  -33.4174   -1.3565 C   0  0  0  0  0  0  0  0  0  0  0  0
   51.0947  -32.3455   -0.9992 N   0  0  0  0  0  0  0  0  0  0  0  0
   51.4703  -31.2319   -0.1930 C   0  0  0  0  0  0  0  0  0  0  0  0
   51.2502  -31.3413    1.0872 N   0  0  0  0  0  0  0  0  0  0  0  0
   52.0503  -30.0603   -0.7375 N   0  0  0  0  0  0  0  0  0  0  0  0
   51.0814  -36.2715   -4.2155 N   0  0  0  0  0  0  0  0  0  0  0  0
   50.2087  -35.6088   -5.1798 C   0  0  2  0  0  0  0  0  0  0  0  0
   50.2478  -36.4161   -6.4232 C   0  0  0  0  0  0  0  0  0  0  0  0
   50.1381  -37.6841   -6.1846 O   0  0  0  0  0  0  0  0  0  0  0  0
   50.5831  -34.1718   -5.3320 C   0  0  0  0  0  0  0  0  0  0  0  0
   49.4536  -33.1949   -5.2787 C   0  0  0  0  0  0  0  0  0  0  0  0
   48.1542  -33.9567   -5.1502 C   0  0  0  0  0  0  0  0  0  0  0  0
   48.3103  -35.3808   -5.1249 N   0  0  0  0  0  0  0  0  0  0  0  0
   49.5040  -35.9482   -5.6380 C   0  0  0  0  0  0  0  0  0  0  0  0
   50.5185  -36.4772   -4.8084 N   0  0  0  0  0  0  0  0  0  0  0  0
   49.7285  -36.0131   -6.9252 N   0  0  0  0  0  0  0  0  0  0  0  0
   50.3785  -36.0605   -7.7499 N   0  0  0  0  0  0  0  0  0  0  0  0
   49.6073  -35.1931   -8.5952 C   0  0  2  0  0  0  0  0  0  0  0  0
   48.1424  -35.3443   -8.4313 C   0  0  0  0  0  0  0  0  0  0  0  0
   47.7665  -35.0239   -7.2378 O   0  0  0  0  0  0  0  0  0  0  0  0
   50.0592  -35.2993  -10.0497 C   0  0  0  0  0  0  0  0  0  0  0  0
   51.3677  -34.6590  -10.3287 C   0  0  0  0  0  0  0  0  0  0  0  0
   52.4387  -35.6391   -9.8262 C   0  0  0  0  0  0  0  0  0  0  0  0
   53.7041  -34.9528   -9.6564 N   0  0  0  0  0  0  0  0  0  0  0  0
   54.8202  -35.7113   -9.2071 C   0  0  0  0  0  0  0  0  0  0  0  0
   55.3915  -36.6739  -10.0856 N   0  0  0  0  0  0  0  0  0  0  0  0
   55.3370  -35.5692   -8.0500 N   0  0  0  0  0  0  0  0  0  0  0  0
   47.1756  -35.7514   -9.3138 N   0  0  0  0  0  0  0  0  0  0  0  0
   47.0266  -36.9933  -10.0461 C   0  0  2  0  0  0  0  0  0  0  0  0
   45.8842  -36.9033  -10.9993 C   0  0  0  0  0  0  0  0  0  0  0  0
   44.7194  -36.9630  -10.5051 O   0  0  0  0  0  0  0  0  0  0  0  0
   46.9975  -38.2204   -9.2025 C   0  0  0  0  0  0  0  0  0  0  0  0
   45.8831  -38.2585   -8.1887 C   0  0  0  0  0  0  0  0  0  0  0  0
   45.8433  -39.6076   -7.5154 C   0  0  0  0  0  0  0  0  0  0  0  0
   45.4586  -39.5522   -6.0829 C   0  0  0  0  0  0  0  0  0  0  0  0
   44.4824  -38.5016   -5.7962 N   0  0  0  0  0  0  0  0  0  0  0  0
   46.0261  -36.7593  -12.4132 N   0  0  0  0  0  0  0  0  0  0  0  0
   47.3139  -37.0345  -12.9615 C   0  0  2  0  0  0  0  0  0  0  0  0
   47.1249  -37.9803  -14.1362 C   0  0  0  0  0  0  0  0  0  0  0  0
   46.6659  -39.1102  -13.9216 O   0  0  0  0  0  0  0  0  0  0  0  0
   48.3010  -37.5923  -12.0135 C   0  0  0  0  0  0  0  0  0  0  0  0
   49.7154  -37.2202  -12.0789 C   0  0  0  0  0  0  0  0  0  0  0  0
   50.5780  -37.2671  -10.8897 C   0  0  0  0  0  0  0  0  0  0  0  0
   50.6350  -38.7001  -10.4863 N   0  0  0  0  0  0  0  0  0  0  0  0
   50.8362  -39.0394   -9.1239 C   0  0  0  0  0  0  0  0  0  0  0  0
   50.9776  -38.0492   -8.1200 N   0  0  0  0  0  0  0  0  0  0  0  0
   50.8930  -40.2881   -8.7812 N   0  0  0  0  0  0  0  0  0  0  0  0
   47.4679  -37.5686  -15.4349 N   0  0  0  0  0  0  0  0  0  0  0  0
   47.3126  -38.3885  -16.6325 C   0  0  0  0  0  0  0  0  0  0  0  0
   48.6085  -38.6783  -17.2841 C   0  0  0  0  0  0  0  0  0  0  0  0
   49.8049  -38.3283  -16.6576 C   0  0  0  0  0  0  0  0  0  0  0  0
   51.0158  -38.5875  -17.2466 C   0  0  0  0  0  0  0  0  0  0  0  0
   51.1142  -39.2077  -18.4875 C   0  0  0  0  0  0  0  0  0  0  0  0
   52.4301  -39.4539  -19.0566 C   0  0  0  0  0  0  0  0  0  0  0  0
   53.5818  -39.1136  -18.3197 N   0  0  0  0  0  0  0  0  0  0  0  0
   52.5544  -39.9760  -20.2139 N   0  0  0  0  0  0  0  0  0  0  0  0
   49.9347  -39.5556  -19.1107 C   0  0  0  0  0  0  0  0  0  0  0  0
   48.7006  -39.2911  -18.5112 C   0  0  0  0  0  0  0  0  0  0  0  0
   48.2675  -37.2894   -1.7766 C   0  0  0  0  0  0  0  0  0  0  0  0
   47.9731  -37.8595   -3.1154 C   0  0  0  0  0  0  0  0  0  0  0  0
   46.7484  -37.1665   -3.7341 C   0  0  0  0  0  0  0  0  0  0  0  0
   45.5024  -37.9808   -3.5157 C   0  0  0  0  0  0  0  0  0  0  0  0
   44.4873  -37.7935   -4.5647 C   0  0  0  0  0  0  0  0  0  0  0  0
   47.9088  -38.0315   -0.7842 O   0  0  0  0  0  0  0  0  0  0  0  0
   43.5626  -36.9602   -4.3730 O   0  0  0  0  0  0  0  0  0  0  0  0
   51.9572  -31.2699    1.8189 H   0  0  0  0  0  0  0  0  0  0  0  0
   49.0705  -35.6886   -7.6476 H   0  0  0  0  0  0  0  0  0  0  0  0
   54.8917  -36.0454   -7.2400 H   0  0  0  0  0  0  0  0  0  0  0  0
   51.5142  -40.9724   -9.2681 H   0  0  0  0  0  0  0  0  0  0  0  0
   53.5059  -40.2070  -20.5937 H   0  0  0  0  0  0  0  0  0  0  0  0
  2  1  1  1
  1 65  1  0
  2  3  1  0
  5  2  1  1
  3  4  2  0
  3 12  1  0
  5  6  1  0
  6  7  1  6
  7  8  1  6
  8  9  1  0
  9 10  2  0
  9 11  1  0
 13 12  1  1
 13 14  1  0
 16 13  1  1
 14 15  2  0
 14 23  1  0
 16 17  1  0
 17 18  1  6
 18 19  1  6
 19 20  1  0
 20 21  1  0
 20 22  2  0
 24 23  1  1
 24 25  1  0
 27 24  1  1
 25 26  2  0
 25 34  1  0
 27 28  1  0
 28 29  1  6
 29 30  1  6
 30 31  1  0
 31 32  1  0
 31 33  2  0
 34 35  1  0
 35 36  1  1
 38 35  1  1
 36 37  2  0
 36 43  1  0
 39 38  1  1
 39 40  1  0
 40 41  1  6
 41 42  1  6
 42 69  1  0
 44 43  1  1
 44 45  1  0
 47 44  1  1
 45 46  2  0
 45 54  1  0
 47 48  1  0
 48 49  1  6
 49 50  1  6
 50 51  1  0
 51 52  1  0
 51 53  2  0
 55 54  1  1
 55 56  1  0
 56 57  2  0
 56 64  1  0
 57 58  1  0
 58 59  2  0
 59 60  1  0
 59 63  1  0
 60 61  1  0
 60 62  2  0
 63 64  2  0
 66 65  1  1
 65 70  2  0
 67 66  1  1
 67 68  1  0
 68 69  1  6
 69 71  2  0
 10 72  1  0
 22 73  1  0
 33 74  1  0
 53 75  1  0
 62 76  1  0
M  END
$$$$
