
     RDKit          3D

 76 77  0  0  0  0  0  0  0  0999 V2000
   53.5052  -34.1359   -5.1057 N   0  0  0  0  0  0  0  0  0  0  0  0
   53.3294  -35.1510   -4.1027 C   0  0  2  0  0  0  0  0  0  0  0  0
   52.1409  -36.0105   -4.2476 C   0  0  0  0  0  0  0  0  0  0  0  0
   51.9607  -36.7075   -3.1620 O   0  0  0  0  0  0  0  0  0  0  0  0
   53.4556  -34.6617   -2.7080 C   0  0  0  0  0  0  0  0  0  0  0  0
   54.0533  -33.2727   -2.6145 C   0  0  0  0  0  0  0  0  0  0  0  0
   54.0617  -32.6298   -4.0038 C   0  0  0  0  0  0  0  0  0  0  0  0
   54.4904  -31.2513   -3.9553 N   0  0  0  0  0  0  0  0  0  0  0  0
   53.5549  -30.2049   -4.1722 C   0  0  0  0  0  0  0  0  0  0  0  0
   53.1468  -29.5742   -3.1067 N   0  0  0  0  0  0  0  0  0  0  0  0
   53.0912  -29.8663   -5.4678 N   0  0  0  0  0  0  0  0  0  0  0  0
   51.2361  -36.2022   -5.2786 N   0  0  0  0  0  0  0  0  0  0  0  0
   50.0509  -35.5380   -5.7500 C   0  0  2  0  0  0  0  0  0  0  0  0
   49.9951  -35.4592   -7.2324 C   0  0  0  0  0  0  0  0  0  0  0  0
   50.9412  -34.8581   -7.8085 O   0  0  0  0  0  0  0  0  0  0  0  0
   49.4739  -34.4585   -4.9639 C   0  0  0  0  0  0  0  0  0  0  0  0
   50.0257  -33.9686   -3.6946 C   0  0  0  0  0  0  0  0  0  0  0  0
   50.5789  -34.9829   -2.7684 C   0  0  0  0  0  0  0  0  0  0  0  0
   50.3652  -34.4429   -1.4050 N   0  0  0  0  0  0  0  0  0  0  0  0
   50.5387  -35.2951   -0.2923 C   0  0  0  0  0  0  0  0  0  0  0  0
   49.8709  -34.9474    0.9071 N   0  0  0  0  0  0  0  0  0  0  0  0
   51.2867  -36.3602   -0.3783 N   0  0  0  0  0  0  0  0  0  0  0  0
   49.0004  -35.9880   -8.0752 N   0  0  0  0  0  0  0  0  0  0  0  0
   47.6617  -36.3388   -7.8360 C   0  0  2  0  0  0  0  0  0  0  0  0
   47.1918  -37.4924   -8.6999 C   0  0  0  0  0  0  0  0  0  0  0  0
   46.0664  -37.9510   -8.3312 O   0  0  0  0  0  0  0  0  0  0  0  0
   46.6570  -35.2536   -7.8159 C   0  0  0  0  0  0  0  0  0  0  0  0
   45.8708  -35.0120   -6.5923 C   0  0  0  0  0  0  0  0  0  0  0  0
   46.3469  -35.6228   -5.3260 C   0  0  0  0  0  0  0  0  0  0  0  0
   45.4360  -36.7256   -4.9661 N   0  0  0  0  0  0  0  0  0  0  0  0
   45.9231  -38.0622   -4.9602 C   0  0  0  0  0  0  0  0  0  0  0  0
   45.6178  -38.9269   -6.0310 N   0  0  0  0  0  0  0  0  0  0  0  0
   46.6530  -38.4813   -3.9615 N   0  0  0  0  0  0  0  0  0  0  0  0
   47.8216  -38.0651   -9.7859 N   0  0  0  0  0  0  0  0  0  0  0  0
   49.0515  -38.7932   -9.9136 C   0  0  2  0  0  0  0  0  0  0  0  0
   48.8685  -39.9238  -10.8945 C   0  0  0  0  0  0  0  0  0  0  0  0
   49.8924  -40.3494  -11.4761 O   0  0  0  0  0  0  0  0  0  0  0  0
   49.6290  -39.3836   -8.6842 C   0  0  0  0  0  0  0  0  0  0  0  0
   51.0856  -38.9681   -8.6052 C   0  0  0  0  0  0  0  0  0  0  0  0
   51.9242  -39.8892   -7.7661 C   0  0  0  0  0  0  0  0  0  0  0  0
   53.3371  -40.0168   -8.2917 C   0  0  0  0  0  0  0  0  0  0  0  0
   53.6474  -38.9497   -9.2226 N   0  0  0  0  0  0  0  0  0  0  0  0
   47.6254  -40.5042  -11.1763 N   0  0  0  0  0  0  0  0  0  0  0  0
   46.7592  -39.9126  -12.2156 C   0  0  2  0  0  0  0  0  0  0  0  0
   46.5996  -38.4474  -11.9029 C   0  0  0  0  0  0  0  0  0  0  0  0
   46.3762  -37.6527  -12.8774 O   0  0  0  0  0  0  0  0  0  0  0  0
   45.4983  -40.6878  -12.1569 C   0  0  0  0  0  0  0  0  0  0  0  0
   45.5628  -42.1608  -12.2730 C   0  0  0  0  0  0  0  0  0  0  0  0
   45.6320  -42.6926  -13.6827 C   0  0  0  0  0  0  0  0  0  0  0  0
   45.6136  -44.1279  -13.6059 N   0  0  0  0  0  0  0  0  0  0  0  0
   46.7503  -44.8837  -13.9836 C   0  0  0  0  0  0  0  0  0  0  0  0
   46.6871  -45.8485  -15.0463 N   0  0  0  0  0  0  0  0  0  0  0  0
   47.8670  -44.7374  -13.3977 N   0  0  0  0  0  0  0  0  0  0  0  0
   46.6763  -37.8993  -10.6138 N   0  0  0  0  0  0  0  0  0  0  0  0
   45.6078  -37.1319   -9.9664 C   0  0  0  0  0  0  0  0  0  0  0  0
   45.7711  -35.7016  -10.2766 C   0  0  0  0  0  0  0  0  0  0  0  0
   45.0221  -34.7641   -9.5645 C   0  0  0  0  0  0  0  0  0  0  0  0
   45.1743  -33.4296   -9.8361 C   0  0  0  0  0  0  0  0  0  0  0  0
   46.0535  -32.9629  -10.8023 C   0  0  0  0  0  0  0  0  0  0  0  0
   46.1806  -31.5397  -11.0629 C   0  0  0  0  0  0  0  0  0  0  0  0
   47.3715  -30.9906  -11.5691 N   0  0  0  0  0  0  0  0  0  0  0  0
   45.1812  -30.7755  -10.8183 N   0  0  0  0  0  0  0  0  0  0  0  0
   46.7826  -33.9082  -11.4921 C   0  0  0  0  0  0  0  0  0  0  0  0
   46.6509  -35.2771  -11.2389 C   0  0  0  0  0  0  0  0  0  0  0  0
   54.1506  -34.3859   -6.3472 C   0  0  0  0  0  0  0  0  0  0  0  0
   55.2276  -35.3730   -6.5636 C   0  0  0  0  0  0  0  0  0  0  0  0
   54.7902  -36.7979   -6.6669 C   0  0  0  0  0  0  0  0  0  0  0  0
   55.2933  -37.4921   -7.9093 C   0  0  0  0  0  0  0  0  0  0  0  0
   54.1894  -37.7004   -8.8914 C   0  0  0  0  0  0  0  0  0  0  0  0
   53.7613  -33.7020   -7.3297 O   0  0  0  0  0  0  0  0  0  0  0  0
   53.7268  -36.6466   -9.4527 O   0  0  0  0  0  0  0  0  0  0  0  0
   53.1031  -30.1165   -2.1966 H   0  0  0  0  0  0  0  0  0  0  0  0
   50.8829  -37.2954   -0.3389 H   0  0  0  0  0  0  0  0  0  0  0  0
   47.6460  -38.1890   -3.8498 H   0  0  0  0  0  0  0  0  0  0  0  0
   48.1284  -44.0598  -12.6718 H   0  0  0  0  0  0  0  0  0  0  0  0
   44.7030  -30.7034   -9.8965 H   0  0  0  0  0  0  0  0  0  0  0  0
  1  2  1  0
  1 65  1  0
  2  3  1  0
  2  5  1  1
  3  4  2  0
  3 12  1  0
  5  6  1  0
  6  7  1  0
  7  8  1  0
  8  9  1  0
  9 10  2  0
  9 11  1  0
 12 13  1  0
 13 14  1  0
 13 16  1  1
 14 15  2  0
 14 23  1  0
 16 17  1  0
 17 18  1  0
 18 19  1  0
 19 20  1  0
 20 21  1  0
 20 22  2  0
 23 24  1  0
 24 25  1  0
 24 27  1  6
 25 26  2  0
 25 34  1  0
 27 28  1  0
 28 29  1  0
 29 30  1  0
 30 31  1  0
 31 32  1  0
 31 33  2  0
 34 35  1  0
 35 36  1  6
 35 38  1  0
 36 37  2  0
 36 43  1  0
 38 39  1  0
 39 40  1  0
 40 41  1  0
 41 42  1  0
 42 69  1  0
 43 44  1  0
 44 45  1  0
 44 47  1  1
 45 46  2  0
 45 54  1  0
 47 48  1  0
 48 49  1  0
 49 50  1  0
 50 51  1  0
 51 52  1  0
 51 53  2  0
 54 55  1  0
 55 56  1  0
 56 57  2  0
 56 64  1  0
 57 58  1  0
 58 59  2  0
 59 60  1  0
 59 63  1  0
 60 61  1  0
 60 62  2  0
 63 64  2  0
 65 66  1  0
 65 70  2  0
 66 67  1  0
 67 68  1  0
 68 69  1  0
 69 71  2  0
 10 72  1  0
 22 73  1  0
 33 74  1  0
 53 75  1  0
 62 76  1  0
M  END
$$$$
