
     RDKit          3D

 76 77  0  0  0  0  0  0  0  0999 V2000
   53.0409  -33.9644   -4.4998 N   0  0  0  0  0  0  0  0  0  0  0  0
   53.8220  -35.0633   -4.9997 C   0  0  2  0  0  0  0  0  0  0  0  0
   53.0800  -36.1177   -5.7136 C   0  0  0  0  0  0  0  0  0  0  0  0
   53.8442  -37.1578   -5.8906 O   0  0  0  0  0  0  0  0  0  0  0  0
   54.7502  -35.6563   -4.0061 C   0  0  0  0  0  0  0  0  0  0  0  0
   54.4843  -35.1913   -2.5890 C   0  0  0  0  0  0  0  0  0  0  0  0
   53.3306  -34.1851   -2.5936 C   0  0  0  0  0  0  0  0  0  0  0  0
   53.6995  -32.9420   -1.9571 N   0  0  0  0  0  0  0  0  0  0  0  0
   52.7987  -31.8439   -1.9600 C   0  0  0  0  0  0  0  0  0  0  0  0
   51.7297  -31.9844   -2.6928 N   0  0  0  0  0  0  0  0  0  0  0  0
   53.0461  -30.6653   -1.2129 N   0  0  0  0  0  0  0  0  0  0  0  0
   51.7882  -36.1920   -6.2077 N   0  0  0  0  0  0  0  0  0  0  0  0
   50.4922  -36.5043   -5.6684 C   0  0  2  0  0  0  0  0  0  0  0  0
   49.4289  -35.6065   -6.1883 C   0  0  0  0  0  0  0  0  0  0  0  0
   49.5681  -34.3724   -5.9742 O   0  0  0  0  0  0  0  0  0  0  0  0
   50.3848  -37.0115   -4.3092 C   0  0  0  0  0  0  0  0  0  0  0  0
   51.3855  -37.8686   -3.6611 C   0  0  0  0  0  0  0  0  0  0  0  0
   52.8066  -37.5927   -3.9723 C   0  0  0  0  0  0  0  0  0  0  0  0
   52.7933  -36.6586   -5.1228 N   0  0  0  0  0  0  0  0  0  0  0  0
   54.0196  -36.1870   -5.6406 C   0  0  0  0  0  0  0  0  0  0  0  0
   55.1479  -37.0345   -5.5214 N   0  0  0  0  0  0  0  0  0  0  0  0
   54.0977  -35.0145   -6.2066 N   0  0  0  0  0  0  0  0  0  0  0  0
   48.2759  -35.9791   -6.9035 N   0  0  0  0  0  0  0  0  0  0  0  0
   47.5779  -37.1951   -6.9842 C   0  0  2  0  0  0  0  0  0  0  0  0
   46.9155  -37.4054   -8.3314 C   0  0  0  0  0  0  0  0  0  0  0  0
   46.4784  -38.5885   -8.4806 O   0  0  0  0  0  0  0  0  0  0  0  0
   46.6497  -37.5324   -5.8833 C   0  0  0  0  0  0  0  0  0  0  0  0
   45.7732  -36.4870   -5.3241 C   0  0  0  0  0  0  0  0  0  0  0  0
   46.3155  -35.6285   -4.2415 C   0  0  0  0  0  0  0  0  0  0  0  0
   47.5447  -36.2540   -3.7187 N   0  0  0  0  0  0  0  0  0  0  0  0
   47.6128  -36.6241   -2.3467 C   0  0  0  0  0  0  0  0  0  0  0  0
   48.8417  -37.0299   -1.7877 N   0  0  0  0  0  0  0  0  0  0  0  0
   46.5344  -36.5847   -1.6108 N   0  0  0  0  0  0  0  0  0  0  0  0
   46.7446  -36.4976   -9.3564 N   0  0  0  0  0  0  0  0  0  0  0  0
   47.6791  -35.8088  -10.1999 C   0  0  2  0  0  0  0  0  0  0  0  0
   47.1330  -35.7368  -11.6037 C   0  0  0  0  0  0  0  0  0  0  0  0
   46.3841  -34.7717  -11.8785 O   0  0  0  0  0  0  0  0  0  0  0  0
   49.0482  -36.3643  -10.3022 C   0  0  0  0  0  0  0  0  0  0  0  0
   50.0307  -35.2374  -10.0468 C   0  0  0  0  0  0  0  0  0  0  0  0
   51.3902  -35.4863  -10.6347 C   0  0  0  0  0  0  0  0  0  0  0  0
   52.0507  -34.2117  -11.1121 C   0  0  0  0  0  0  0  0  0  0  0  0
   51.4014  -33.0437  -10.5501 N   0  0  0  0  0  0  0  0  0  0  0  0
   47.4225  -36.6865  -12.5915 N   0  0  0  0  0  0  0  0  0  0  0  0
   46.9630  -38.0800  -12.4254 C   0  0  2  0  0  0  0  0  0  0  0  0
   45.4691  -38.0522  -12.2315 C   0  0  0  0  0  0  0  0  0  0  0  0
   44.8281  -37.0502  -12.6965 O   0  0  0  0  0  0  0  0  0  0  0  0
   47.7177  -38.6011  -11.2622 C   0  0  0  0  0  0  0  0  0  0  0  0
   48.6417  -39.7379  -11.4649 C   0  0  0  0  0  0  0  0  0  0  0  0
   49.2924  -40.2694  -10.2124 C   0  0  0  0  0  0  0  0  0  0  0  0
   50.3913  -39.3998   -9.8924 N   0  0  0  0  0  0  0  0  0  0  0  0
   51.5630  -39.3976  -10.6879 C   0  0  0  0  0  0  0  0  0  0  0  0
   51.5664  -39.9468  -12.0155 N   0  0  0  0  0  0  0  0  0  0  0  0
   52.6539  -38.9107  -10.2581 N   0  0  0  0  0  0  0  0  0  0  0  0
   44.7361  -39.0543  -11.5783 N   0  0  0  0  0  0  0  0  0  0  0  0
   43.2762  -39.0693  -11.4438 C   0  0  0  0  0  0  0  0  0  0  0  0
   42.9127  -39.3954  -10.0545 C   0  0  0  0  0  0  0  0  0  0  0  0
   43.6126  -38.7889   -9.0109 C   0  0  0  0  0  0  0  0  0  0  0  0
   43.2754  -39.0755   -7.7139 C   0  0  0  0  0  0  0  0  0  0  0  0
   42.2535  -39.9554   -7.3883 C   0  0  0  0  0  0  0  0  0  0  0  0
   41.9317  -40.2358   -6.0001 C   0  0  0  0  0  0  0  0  0  0  0  0
   42.8688  -40.0262   -4.9735 N   0  0  0  0  0  0  0  0  0  0  0  0
   40.7669  -40.6884   -5.7155 N   0  0  0  0  0  0  0  0  0  0  0  0
   41.5766  -40.5417   -8.4366 C   0  0  0  0  0  0  0  0  0  0  0  0
   41.8957  -40.2703   -9.7707 C   0  0  0  0  0  0  0  0  0  0  0  0
   52.7046  -32.8358   -5.2958 C   0  0  0  0  0  0  0  0  0  0  0  0
   53.5286  -32.2924   -6.3944 C   0  0  0  0  0  0  0  0  0  0  0  0
   53.4650  -33.0425   -7.6849 C   0  0  0  0  0  0  0  0  0  0  0  0
   53.1260  -32.1711   -8.8700 C   0  0  0  0  0  0  0  0  0  0  0  0
   51.7316  -32.4218   -9.3383 C   0  0  0  0  0  0  0  0  0  0  0  0
   51.6145  -32.2658   -5.0289 O   0  0  0  0  0  0  0  0  0  0  0  0
   50.7950  -32.0308   -8.5577 O   0  0  0  0  0  0  0  0  0  0  0  0
   50.8154  -31.6052   -2.3125 H   0  0  0  0  0  0  0  0  0  0  0  0
   53.2602  -34.4795   -6.4340 H   0  0  0  0  0  0  0  0  0  0  0  0
   46.2743  -37.3711   -0.9800 H   0  0  0  0  0  0  0  0  0  0  0  0
   53.5448  -39.3887  -10.0786 H   0  0  0  0  0  0  0  0  0  0  0  0
   40.1418  -41.1786   -6.3883 H   0  0  0  0  0  0  0  0  0  0  0  0
  1  2  1  0
  1 65  1  0
  2  3  1  0
  2  5  1  1
  3  4  2  0
  3 12  1  0
  5  6  1  0
  6  7  1  0
  7  8  1  0
  8  9  1  0
  9 10  2  0
  9 11  1  0
 12 13  1  0
 13 14  1  0
 13 16  1  1
 14 15  2  0
 14 23  1  0
 16 17  1  0
 17 18  1  0
 18 19  1  0
 19 20  1  0
 20 21  1  0
 20 22  2  0
 23 24  1  0
 24 25  1  0
 24 27  1  1
 25 26  2  0
 25 34  1  0
 27 28  1  0
 28 29  1  0
 29 30  1  0
 30 31  1  0
 31 32  1  0
 31 33  2  0
 34 35  1  0
 35 36  1  6
 35 38  1  0
 36 37  2  0
 36 43  1  0
 38 39  1  0
 39 40  1  0
 40 41  1  0
 41 42  1  0
 42 69  1  0
 43 44  1  0
 44 45  1  0
 44 47  1  1
 45 46  2  0
 45 54  1  0
 47 48  1  0
 48 49  1  0
 49 50  1  0
 50 51  1  0
 51 52  1  0
 51 53  2  0
 54 55  1  0
 55 56  1  0
 56 57  2  0
 56 64  1  0
 57 58  1  0
 58 59  2  0
 59 60  1  0
 59 63  1  0
 60 61  1  0
 60 62  2  0
 63 64  2  0
 65 66  1  0
 65 70  2  0
 66 67  1  0
 67 68  1  0
 68 69  1  0
 69 71  2  0
 10 72  1  0
 22 73  1  0
 33 74  1  0
 53 75  1  0
 62 76  1  0
M  END
$$$$
