
     RDKit          3D

 76 77  0  0  0  0  0  0  0  0999 V2000
   51.3722  -34.3423   -1.6056 N   0  0  0  0  0  0  0  0  0  0  0  0
   50.3351  -33.3156   -1.7899 C   0  0  2  0  0  0  0  0  0  0  0  0
   50.6531  -32.4576   -2.9528 C   0  0  0  0  0  0  0  0  0  0  0  0
   51.6877  -31.7097   -2.7565 O   0  0  0  0  0  0  0  0  0  0  0  0
   50.3588  -32.5272   -0.5039 C   0  0  0  0  0  0  0  0  0  0  0  0
   50.7204  -31.1031   -0.5658 C   0  0  0  0  0  0  0  0  0  0  0  0
   51.7491  -30.6685   -1.5377 C   0  0  0  0  0  0  0  0  0  0  0  0
   52.2892  -31.8172   -2.2970 N   0  0  0  0  0  0  0  0  0  0  0  0
   51.9831  -33.1661   -1.9533 C   0  0  0  0  0  0  0  0  0  0  0  0
   51.7111  -33.3986   -0.6997 N   0  0  0  0  0  0  0  0  0  0  0  0
   51.9730  -34.2106   -2.9095 N   0  0  0  0  0  0  0  0  0  0  0  0
   49.9517  -32.4073   -4.1702 N   0  0  0  0  0  0  0  0  0  0  0  0
   49.4565  -33.5287   -4.9626 C   0  0  2  0  0  0  0  0  0  0  0  0
   49.8201  -33.2536   -6.3739 C   0  0  0  0  0  0  0  0  0  0  0  0
   51.0421  -32.8414   -6.4908 O   0  0  0  0  0  0  0  0  0  0  0  0
   48.0045  -33.7591   -4.7040 C   0  0  0  0  0  0  0  0  0  0  0  0
   47.5967  -35.1820   -4.4999 C   0  0  0  0  0  0  0  0  0  0  0  0
   48.6377  -36.0832   -5.1240 C   0  0  0  0  0  0  0  0  0  0  0  0
   48.3128  -36.5239   -6.4481 N   0  0  0  0  0  0  0  0  0  0  0  0
   49.2890  -37.2327   -7.1929 C   0  0  0  0  0  0  0  0  0  0  0  0
   50.0249  -38.3138   -6.6571 N   0  0  0  0  0  0  0  0  0  0  0  0
   49.5602  -36.9176   -8.4333 N   0  0  0  0  0  0  0  0  0  0  0  0
   49.1026  -33.3565   -7.5479 N   0  0  0  0  0  0  0  0  0  0  0  0
   48.4191  -34.4576   -8.1657 C   0  0  2  0  0  0  0  0  0  0  0  0
   49.1737  -35.7321   -8.1212 C   0  0  0  0  0  0  0  0  0  0  0  0
   49.3579  -36.1281   -6.9057 O   0  0  0  0  0  0  0  0  0  0  0  0
   47.9470  -34.0924   -9.5711 C   0  0  0  0  0  0  0  0  0  0  0  0
   46.6793  -34.7471   -9.9764 C   0  0  0  0  0  0  0  0  0  0  0  0
   45.5527  -33.9552   -9.2953 C   0  0  0  0  0  0  0  0  0  0  0  0
   45.0934  -32.8907  -10.1654 N   0  0  0  0  0  0  0  0  0  0  0  0
   44.0169  -32.0776   -9.7148 C   0  0  0  0  0  0  0  0  0  0  0  0
   44.2575  -31.1405   -8.6714 N   0  0  0  0  0  0  0  0  0  0  0  0
   42.8412  -32.1471  -10.2036 N   0  0  0  0  0  0  0  0  0  0  0  0
   49.6783  -36.5146   -9.1274 N   0  0  0  0  0  0  0  0  0  0  0  0
   50.6343  -36.2095  -10.1732 C   0  0  2  0  0  0  0  0  0  0  0  0
   50.7522  -37.3527  -11.1223 C   0  0  0  0  0  0  0  0  0  0  0  0
   51.9029  -37.5871  -11.5970 O   0  0  0  0  0  0  0  0  0  0  0  0
   51.9495  -35.7014   -9.6932 C   0  0  0  0  0  0  0  0  0  0  0  0
   52.6926  -36.6455   -8.7834 C   0  0  0  0  0  0  0  0  0  0  0  0
   54.0741  -36.1100   -8.5006 C   0  0  0  0  0  0  0  0  0  0  0  0
   54.5585  -36.3949   -7.1269 C   0  0  0  0  0  0  0  0  0  0  0  0
   54.0961  -37.6853   -6.6168 N   0  0  0  0  0  0  0  0  0  0  0  0
   49.6601  -38.1819  -11.5219 N   0  0  0  0  0  0  0  0  0  0  0  0
   48.6051  -38.3549  -10.5777 C   0  0  2  0  0  0  0  0  0  0  0  0
   47.4250  -38.9730  -11.3095 C   0  0  0  0  0  0  0  0  0  0  0  0
   47.0420  -38.4525  -12.3659 O   0  0  0  0  0  0  0  0  0  0  0  0
   48.1792  -37.1291   -9.8706 C   0  0  0  0  0  0  0  0  0  0  0  0
   48.6840  -36.8050   -8.5351 C   0  0  0  0  0  0  0  0  0  0  0  0
   47.7748  -36.4608   -7.4326 C   0  0  0  0  0  0  0  0  0  0  0  0
   47.2348  -37.7563   -6.9330 N   0  0  0  0  0  0  0  0  0  0  0  0
   47.6224  -38.2331   -5.6546 C   0  0  0  0  0  0  0  0  0  0  0  0
   48.4994  -37.4995   -4.8175 N   0  0  0  0  0  0  0  0  0  0  0  0
   47.1648  -39.3708   -5.2347 N   0  0  0  0  0  0  0  0  0  0  0  0
   46.7901  -40.1124  -10.7876 N   0  0  0  0  0  0  0  0  0  0  0  0
   45.6690  -40.7999  -11.4209 C   0  0  0  0  0  0  0  0  0  0  0  0
   46.1123  -41.9200  -12.2792 C   0  0  0  0  0  0  0  0  0  0  0  0
   45.7409  -43.2298  -11.9742 C   0  0  0  0  0  0  0  0  0  0  0  0
   46.1432  -44.2813  -12.7571 C   0  0  0  0  0  0  0  0  0  0  0  0
   46.9346  -44.0993  -13.8861 C   0  0  0  0  0  0  0  0  0  0  0  0
   47.3267  -45.2578  -14.6736 C   0  0  0  0  0  0  0  0  0  0  0  0
   48.1883  -45.0907  -15.7758 N   0  0  0  0  0  0  0  0  0  0  0  0
   46.9017  -46.4235  -14.3774 N   0  0  0  0  0  0  0  0  0  0  0  0
   47.3043  -42.8067  -14.1918 C   0  0  0  0  0  0  0  0  0  0  0  0
   46.8952  -41.7351  -13.3940 C   0  0  0  0  0  0  0  0  0  0  0  0
   52.6065  -34.4367   -2.2372 C   0  0  0  0  0  0  0  0  0  0  0  0
   52.8676  -34.5667   -3.6928 C   0  0  0  0  0  0  0  0  0  0  0  0
   52.5767  -36.0013   -4.1622 C   0  0  0  0  0  0  0  0  0  0  0  0
   53.8427  -36.8111   -4.2327 C   0  0  0  0  0  0  0  0  0  0  0  0
   53.7993  -37.8817   -5.2415 C   0  0  0  0  0  0  0  0  0  0  0  0
   53.6649  -34.4121   -1.4999 O   0  0  0  0  0  0  0  0  0  0  0  0
   53.4823  -39.0454   -4.8787 O   0  0  0  0  0  0  0  0  0  0  0  0
   52.3158  -33.1730    0.0900 H   0  0  0  0  0  0  0  0  0  0  0  0
   50.1932  -36.1559   -8.7149 H   0  0  0  0  0  0  0  0  0  0  0  0
   42.3713  -31.2703  -10.5063 H   0  0  0  0  0  0  0  0  0  0  0  0
   47.4889  -39.8073   -4.3427 H   0  0  0  0  0  0  0  0  0  0  0  0
   46.2553  -46.5626  -13.5614 H   0  0  0  0  0  0  0  0  0  0  0  0
  2  1  1  1
  1 65  1  0
  2  3  1  0
  5  2  1  1
  3  4  2  0
  3 12  1  0
  5  6  1  0
  6  7  1  6
  7  8  1  6
  8  9  1  0
  9 10  2  0
  9 11  1  0
 13 12  1  1
 13 14  1  0
 16 13  1  1
 14 15  2  0
 14 23  1  0
 16 17  1  0
 17 18  1  6
 18 19  1  6
 19 20  1  0
 20 21  1  0
 20 22  2  0
 24 23  1  6
 24 25  1  0
 27 24  1  1
 25 26  2  0
 25 34  1  0
 27 28  1  0
 28 29  1  6
 29 30  1  6
 30 31  1  0
 31 32  1  0
 31 33  2  0
 34 35  1  0
 35 36  1  1
 38 35  1  1
 36 37  2  0
 36 43  1  0
 39 38  1  1
 39 40  1  0
 40 41  1  6
 41 42  1  6
 42 69  1  0
 44 43  1  6
 44 45  1  0
 47 44  1  1
 45 46  2  0
 45 54  1  0
 47 48  1  0
 48 49  1  6
 49 50  1  6
 50 51  1  0
 51 52  1  0
 51 53  2  0
 55 54  1  1
 55 56  1  0
 56 57  2  0
 56 64  1  0
 57 58  1  0
 58 59  2  0
 59 60  1  0
 59 63  1  0
 60 61  1  0
 60 62  2  0
 63 64  2  0
 66 65  1  1
 65 70  2  0
 67 66  1  1
 67 68  1  0
 68 69  1  6
 69 71  2  0
 10 72  1  0
 22 73  1  0
 33 74  1  0
 53 75  1  0
 62 76  1  0
M  END
$$$$
