
     RDKit          3D

 76 77  0  0  0  0  0  0  0  0999 V2000
   55.1729  -33.6243   -2.9214 N   0  0  0  0  0  0  0  0  0  0  0  0
   54.0976  -32.7505   -2.4276 C   0  0  2  0  0  0  0  0  0  0  0  0
   53.4280  -32.0622   -3.5535 C   0  0  0  0  0  0  0  0  0  0  0  0
   54.1869  -31.1919   -4.1322 O   0  0  0  0  0  0  0  0  0  0  0  0
   54.8013  -31.7679   -1.5247 C   0  0  0  0  0  0  0  0  0  0  0  0
   54.3674  -31.6750   -0.1227 C   0  0  0  0  0  0  0  0  0  0  0  0
   53.1531  -32.4089    0.2997 C   0  0  0  0  0  0  0  0  0  0  0  0
   52.8544  -33.5272   -0.6211 N   0  0  0  0  0  0  0  0  0  0  0  0
   53.1922  -34.8767   -0.3115 C   0  0  0  0  0  0  0  0  0  0  0  0
   54.0861  -35.4413   -1.0743 N   0  0  0  0  0  0  0  0  0  0  0  0
   52.5965  -35.5824    0.7620 N   0  0  0  0  0  0  0  0  0  0  0  0
   52.1131  -32.2788   -4.0014 N   0  0  0  0  0  0  0  0  0  0  0  0
   51.4381  -33.5569   -4.2054 C   0  0  2  0  0  0  0  0  0  0  0  0
   50.7481  -33.4762   -5.5156 C   0  0  0  0  0  0  0  0  0  0  0  0
   51.5050  -32.9668   -6.4345 O   0  0  0  0  0  0  0  0  0  0  0  0
   50.5688  -33.8883   -3.0381 C   0  0  0  0  0  0  0  0  0  0  0  0
   49.5569  -32.8541   -2.6647 C   0  0  0  0  0  0  0  0  0  0  0  0
   49.9550  -31.5343   -3.2853 C   0  0  0  0  0  0  0  0  0  0  0  0
   49.7889  -31.4822   -4.7075 N   0  0  0  0  0  0  0  0  0  0  0  0
   48.7246  -32.2078   -5.2998 C   0  0  0  0  0  0  0  0  0  0  0  0
   47.3698  -31.8306   -5.1604 N   0  0  0  0  0  0  0  0  0  0  0  0
   48.9471  -33.2785   -6.0179 N   0  0  0  0  0  0  0  0  0  0  0  0
   49.4770  -33.8378   -5.9122 N   0  0  0  0  0  0  0  0  0  0  0  0
   48.7711  -35.0871   -5.8621 C   0  0  2  0  0  0  0  0  0  0  0  0
   49.5916  -36.2551   -6.2599 C   0  0  0  0  0  0  0  0  0  0  0  0
   50.5841  -36.4305   -5.4522 O   0  0  0  0  0  0  0  0  0  0  0  0
   47.4481  -35.0013   -6.6193 C   0  0  0  0  0  0  0  0  0  0  0  0
   46.2752  -35.4864   -5.8518 C   0  0  0  0  0  0  0  0  0  0  0  0
   46.5506  -35.1335   -4.3822 C   0  0  0  0  0  0  0  0  0  0  0  0
   47.4860  -36.0801   -3.8077 N   0  0  0  0  0  0  0  0  0  0  0  0
   46.9737  -37.0780   -2.9331 C   0  0  0  0  0  0  0  0  0  0  0  0
   46.6889  -38.3687   -3.4601 N   0  0  0  0  0  0  0  0  0  0  0  0
   46.7574  -36.8715   -1.6935 N   0  0  0  0  0  0  0  0  0  0  0  0
   49.4595  -37.1336   -7.3040 N   0  0  0  0  0  0  0  0  0  0  0  0
   49.4394  -36.9051   -8.7351 C   0  0  2  0  0  0  0  0  0  0  0  0
   49.1226  -38.1678   -9.4610 C   0  0  0  0  0  0  0  0  0  0  0  0
   50.0561  -39.0173   -9.5676 O   0  0  0  0  0  0  0  0  0  0  0  0
   50.6331  -36.1964   -9.2747 C   0  0  0  0  0  0  0  0  0  0  0  0
   51.9430  -36.9025   -9.0362 C   0  0  0  0  0  0  0  0  0  0  0  0
   53.0537  -36.1918   -9.7685 C   0  0  0  0  0  0  0  0  0  0  0  0
   54.3509  -36.2026   -9.0474 C   0  0  0  0  0  0  0  0  0  0  0  0
   54.5709  -37.4346   -8.2905 N   0  0  0  0  0  0  0  0  0  0  0  0
   47.8496  -38.4673  -10.0354 N   0  0  0  0  0  0  0  0  0  0  0  0
   47.5905  -37.9393  -11.3350 C   0  0  2  0  0  0  0  0  0  0  0  0
   48.2539  -38.8571  -12.3487 C   0  0  0  0  0  0  0  0  0  0  0  0
   49.4764  -38.7649  -12.5233 O   0  0  0  0  0  0  0  0  0  0  0  0
   48.0262  -36.5438  -11.5513 C   0  0  0  0  0  0  0  0  0  0  0  0
   47.2137  -35.6027  -12.3244 C   0  0  0  0  0  0  0  0  0  0  0  0
   46.1066  -34.8573  -11.7085 C   0  0  0  0  0  0  0  0  0  0  0  0
   46.4637  -33.4171  -11.8420 N   0  0  0  0  0  0  0  0  0  0  0  0
   47.1176  -32.9608  -13.0150 C   0  0  0  0  0  0  0  0  0  0  0  0
   48.0267  -33.7792  -13.7304 N   0  0  0  0  0  0  0  0  0  0  0  0
   46.8811  -31.7628  -13.4498 N   0  0  0  0  0  0  0  0  0  0  0  0
   47.4843  -39.7877  -13.0668 N   0  0  0  0  0  0  0  0  0  0  0  0
   46.0592  -39.6440  -13.3474 C   0  0  0  0  0  0  0  0  0  0  0  0
   45.3093  -40.8925  -13.0889 C   0  0  0  0  0  0  0  0  0  0  0  0
   43.9613  -40.9881  -13.4352 C   0  0  0  0  0  0  0  0  0  0  0  0
   43.2492  -42.1366  -13.2022 C   0  0  0  0  0  0  0  0  0  0  0  0
   43.8279  -43.2563  -12.6145 C   0  0  0  0  0  0  0  0  0  0  0  0
   43.0164  -44.4434  -12.3951 C   0  0  0  0  0  0  0  0  0  0  0  0
   43.6078  -45.5993  -11.8479 N   0  0  0  0  0  0  0  0  0  0  0  0
   41.7753  -44.4504  -12.6900 N   0  0  0  0  0  0  0  0  0  0  0  0
   45.1600  -43.1668  -12.2704 C   0  0  0  0  0  0  0  0  0  0  0  0
   45.8858  -41.9966  -12.5070 C   0  0  0  0  0  0  0  0  0  0  0  0
   55.6991  -33.6935   -4.2059 C   0  0  0  0  0  0  0  0  0  0  0  0
   54.9780  -34.0280   -5.4596 C   0  0  0  0  0  0  0  0  0  0  0  0
   54.7199  -35.5412   -5.5405 C   0  0  0  0  0  0  0  0  0  0  0  0
   55.7613  -36.2198   -6.3881 C   0  0  0  0  0  0  0  0  0  0  0  0
   55.2730  -37.4370   -7.0555 C   0  0  0  0  0  0  0  0  0  0  0  0
   56.9559  -33.4443   -4.3571 O   0  0  0  0  0  0  0  0  0  0  0  0
   55.4830  -38.5536   -6.5119 O   0  0  0  0  0  0  0  0  0  0  0  0
   55.0966  -35.3729   -0.9543 H   0  0  0  0  0  0  0  0  0  0  0  0
   49.3421  -34.1548   -5.6486 H   0  0  0  0  0  0  0  0  0  0  0  0
   47.5694  -36.7992   -1.0481 H   0  0  0  0  0  0  0  0  0  0  0  0
   46.3294  -31.0681  -12.8982 H   0  0  0  0  0  0  0  0  0  0  0  0
   41.0900  -43.8951  -12.1197 H   0  0  0  0  0  0  0  0  0  0  0  0
  2  1  1  6
  1 65  1  0
  2  3  1  0
  5  2  1  1
  3  4  2  0
  3 12  1  0
  5  6  1  0
  6  7  1  6
  7  8  1  6
  8  9  1  0
  9 10  2  0
  9 11  1  0
 13 12  1  1
 13 14  1  0
 16 13  1  1
 14 15  2  0
 14 23  1  0
 16 17  1  0
 17 18  1  6
 18 19  1  6
 19 20  1  0
 20 21  1  0
 20 22  2  0
 24 23  1  6
 24 25  1  0
 27 24  1  1
 25 26  2  0
 25 34  1  0
 27 28  1  0
 28 29  1  6
 29 30  1  6
 30 31  1  0
 31 32  1  0
 31 33  2  0
 34 35  1  0
 35 36  1  6
 38 35  1  1
 36 37  2  0
 36 43  1  0
 39 38  1  1
 39 40  1  0
 40 41  1  6
 41 42  1  6
 42 69  1  0
 44 43  1  1
 44 45  1  0
 47 44  1  1
 45 46  2  0
 45 54  1  0
 47 48  1  0
 48 49  1  6
 49 50  1  6
 50 51  1  0
 51 52  1  0
 51 53  2  0
 55 54  1  1
 55 56  1  0
 56 57  2  0
 56 64  1  0
 57 58  1  0
 58 59  2  0
 59 60  1  0
 59 63  1  0
 60 61  1  0
 60 62  2  0
 63 64  2  0
 66 65  1  1
 65 70  2  0
 67 66  1  1
 67 68  1  0
 68 69  1  6
 69 71  2  0
 10 72  1  0
 22 73  1  0
 33 74  1  0
 53 75  1  0
 62 76  1  0
M  END
$$$$
