
     RDKit          3D

 76 77  0  0  0  0  0  0  0  0999 V2000
   54.9846  -33.0962   -3.3782 N   0  0  0  0  0  0  0  0  0  0  0  0
   55.9094  -33.8618   -4.1693 C   0  0  2  0  0  0  0  0  0  0  0  0
   55.3204  -34.8887   -5.0471 C   0  0  0  0  0  0  0  0  0  0  0  0
   56.2557  -35.6683   -5.5101 O   0  0  0  0  0  0  0  0  0  0  0  0
   57.0534  -34.4180   -3.4061 C   0  0  0  0  0  0  0  0  0  0  0  0
   57.1990  -33.8143   -2.0242 C   0  0  0  0  0  0  0  0  0  0  0  0
   56.1839  -34.4615   -1.0787 C   0  0  0  0  0  0  0  0  0  0  0  0
   56.2475  -33.8937    0.2480 N   0  0  0  0  0  0  0  0  0  0  0  0
   55.1109  -33.9378    1.0985 C   0  0  0  0  0  0  0  0  0  0  0  0
   54.8145  -35.1063    1.5950 N   0  0  0  0  0  0  0  0  0  0  0  0
   54.3436  -32.7826    1.3901 N   0  0  0  0  0  0  0  0  0  0  0  0
   54.0217  -35.1529   -5.4496 N   0  0  0  0  0  0  0  0  0  0  0  0
   52.8931  -35.8560   -4.9019 C   0  0  2  0  0  0  0  0  0  0  0  0
   51.6124  -35.1375   -5.1262 C   0  0  0  0  0  0  0  0  0  0  0  0
   51.5186  -33.9747   -4.6493 O   0  0  0  0  0  0  0  0  0  0  0  0
   53.0582  -36.6413   -3.6885 C   0  0  0  0  0  0  0  0  0  0  0  0
   52.3843  -36.3550   -2.4158 C   0  0  0  0  0  0  0  0  0  0  0  0
   52.2725  -34.9320   -2.0221 C   0  0  0  0  0  0  0  0  0  0  0  0
   50.8207  -34.6598   -1.9024 N   0  0  0  0  0  0  0  0  0  0  0  0
   50.3496  -33.3420   -2.0920 C   0  0  0  0  0  0  0  0  0  0  0  0
   49.1098  -33.1810   -2.7569 N   0  0  0  0  0  0  0  0  0  0  0  0
   51.0381  -32.3199   -1.6649 N   0  0  0  0  0  0  0  0  0  0  0  0
   50.4833  -35.6087   -5.8210 N   0  0  0  0  0  0  0  0  0  0  0  0
   50.0470  -36.9089   -6.1236 C   0  0  2  0  0  0  0  0  0  0  0  0
   49.2842  -36.9845   -7.4314 C   0  0  0  0  0  0  0  0  0  0  0  0
   49.0862  -38.1799   -7.8120 O   0  0  0  0  0  0  0  0  0  0  0  0
   49.3487  -37.6668   -5.0628 C   0  0  0  0  0  0  0  0  0  0  0  0
   50.1234  -38.2391   -3.9467 C   0  0  0  0  0  0  0  0  0  0  0  0
   51.0726  -39.3394   -4.2492 C   0  0  0  0  0  0  0  0  0  0  0  0
   52.2483  -39.1993   -3.3697 N   0  0  0  0  0  0  0  0  0  0  0  0
   53.2777  -40.1801   -3.4156 C   0  0  0  0  0  0  0  0  0  0  0  0
   54.1557  -40.3302   -2.3228 N   0  0  0  0  0  0  0  0  0  0  0  0
   53.4033  -40.9385   -4.4715 N   0  0  0  0  0  0  0  0  0  0  0  0
   48.8068  -35.9496   -8.2092 N   0  0  0  0  0  0  0  0  0  0  0  0
   49.4697  -34.9083   -8.9409 C   0  0  2  0  0  0  0  0  0  0  0  0
   48.7547  -34.6771  -10.2483 C   0  0  0  0  0  0  0  0  0  0  0  0
   49.4362  -34.2450  -11.2057 O   0  0  0  0  0  0  0  0  0  0  0  0
   50.9014  -35.1041   -9.2658 C   0  0  0  0  0  0  0  0  0  0  0  0
   51.6535  -33.8595   -8.8345 C   0  0  0  0  0  0  0  0  0  0  0  0
   52.9537  -33.6662   -9.5611 C   0  0  0  0  0  0  0  0  0  0  0  0
   53.2739  -32.2046   -9.7847 C   0  0  0  0  0  0  0  0  0  0  0  0
   52.4703  -31.3558   -8.9272 N   0  0  0  0  0  0  0  0  0  0  0  0
   47.3876  -34.9201  -10.4309 N   0  0  0  0  0  0  0  0  0  0  0  0
   46.8248  -36.2399  -10.0819 C   0  0  2  0  0  0  0  0  0  0  0  0
   45.4340  -36.3141  -10.6564 C   0  0  0  0  0  0  0  0  0  0  0  0
   44.8592  -35.2161  -10.9648 O   0  0  0  0  0  0  0  0  0  0  0  0
   46.8761  -36.3044   -8.6028 C   0  0  0  0  0  0  0  0  0  0  0  0
   45.7035  -36.8326   -7.8727 C   0  0  0  0  0  0  0  0  0  0  0  0
   45.8751  -36.9499   -6.3788 C   0  0  0  0  0  0  0  0  0  0  0  0
   44.8519  -37.8348   -5.8931 N   0  0  0  0  0  0  0  0  0  0  0  0
   45.1889  -39.1077   -5.3716 C   0  0  0  0  0  0  0  0  0  0  0  0
   44.1959  -40.1316   -5.1987 N   0  0  0  0  0  0  0  0  0  0  0  0
   46.3802  -39.3919   -5.0374 N   0  0  0  0  0  0  0  0  0  0  0  0
   44.7308  -37.5076  -10.8784 N   0  0  0  0  0  0  0  0  0  0  0  0
   45.0569  -38.4894  -11.9172 C   0  0  0  0  0  0  0  0  0  0  0  0
   44.9833  -37.8488  -13.2412 C   0  0  0  0  0  0  0  0  0  0  0  0
   43.8059  -37.9575  -13.9820 C   0  0  0  0  0  0  0  0  0  0  0  0
   43.7215  -37.3554  -15.2101 C   0  0  0  0  0  0  0  0  0  0  0  0
   44.7711  -36.6319  -15.7573 C   0  0  0  0  0  0  0  0  0  0  0  0
   44.6422  -36.0138  -17.0652 C   0  0  0  0  0  0  0  0  0  0  0  0
   43.4072  -35.9658  -17.7349 N   0  0  0  0  0  0  0  0  0  0  0  0
   45.6839  -35.5080  -17.6145 N   0  0  0  0  0  0  0  0  0  0  0  0
   45.9236  -36.5385  -15.0063 C   0  0  0  0  0  0  0  0  0  0  0  0
   46.0417  -37.1407  -13.7498 C   0  0  0  0  0  0  0  0  0  0  0  0
   54.3286  -31.9357   -3.8715 C   0  0  0  0  0  0  0  0  0  0  0  0
   54.8835  -31.0058   -4.8758 C   0  0  0  0  0  0  0  0  0  0  0  0
   54.8204  -31.4703   -6.2944 C   0  0  0  0  0  0  0  0  0  0  0  0
   54.1679  -30.4756   -7.2237 C   0  0  0  0  0  0  0  0  0  0  0  0
   52.8092  -30.9364   -7.6335 C   0  0  0  0  0  0  0  0  0  0  0  0
   53.1848  -31.6962   -3.4037 O   0  0  0  0  0  0  0  0  0  0  0  0
   51.9135  -30.9375   -6.7184 O   0  0  0  0  0  0  0  0  0  0  0  0
   53.7967  -35.3075    1.8137 H   0  0  0  0  0  0  0  0  0  0  0  0
   50.5869  -31.4331   -1.4425 H   0  0  0  0  0  0  0  0  0  0  0  0
   54.3259  -41.3254   -4.7598 H   0  0  0  0  0  0  0  0  0  0  0  0
   47.1980  -38.7731   -4.9839 H   0  0  0  0  0  0  0  0  0  0  0  0
   46.3784  -34.9066  -17.1248 H   0  0  0  0  0  0  0  0  0  0  0  0
  1  2  1  0
  1 65  1  0
  2  3  1  0
  2  5  1  1
  3  4  2  0
  3 12  1  0
  5  6  1  0
  6  7  1  0
  7  8  1  0
  8  9  1  0
  9 10  2  0
  9 11  1  0
 12 13  1  0
 13 14  1  0
 13 16  1  1
 14 15  2  0
 14 23  1  0
 16 17  1  0
 17 18  1  0
 18 19  1  0
 19 20  1  0
 20 21  1  0
 20 22  2  0
 23 24  1  0
 24 25  1  0
 24 27  1  1
 25 26  2  0
 25 34  1  0
 27 28  1  0
 28 29  1  0
 29 30  1  0
 30 31  1  0
 31 32  1  0
 31 33  2  0
 34 35  1  0
 35 36  1  6
 35 38  1  0
 36 37  2  0
 36 43  1  0
 38 39  1  0
 39 40  1  0
 40 41  1  0
 41 42  1  0
 42 69  1  0
 43 44  1  0
 44 45  1  0
 44 47  1  1
 45 46  2  0
 45 54  1  0
 47 48  1  0
 48 49  1  0
 49 50  1  0
 50 51  1  0
 51 52  1  0
 51 53  2  0
 54 55  1  0
 55 56  1  0
 56 57  2  0
 56 64  1  0
 57 58  1  0
 58 59  2  0
 59 60  1  0
 59 63  1  0
 60 61  1  0
 60 62  2  0
 63 64  2  0
 65 66  1  0
 65 70  2  0
 66 67  1  0
 67 68  1  0
 68 69  1  0
 69 71  2  0
 10 72  1  0
 22 73  1  0
 33 74  1  0
 53 75  1  0
 62 76  1  0
M  END
$$$$
