
     RDKit          3D

 76 77  0  0  0  0  0  0  0  0999 V2000
   45.8914  -39.3149   -9.4886 N   0  0  0  0  0  0  0  0  0  0  0  0
   45.0764  -38.9403   -8.3229 C   0  0  2  0  0  0  0  0  0  0  0  0
   45.6969  -39.4344   -7.0736 C   0  0  0  0  0  0  0  0  0  0  0  0
   45.6670  -40.7217   -6.9737 O   0  0  0  0  0  0  0  0  0  0  0  0
   43.7437  -39.6019   -8.5721 C   0  0  0  0  0  0  0  0  0  0  0  0
   42.5431  -38.7542   -8.6223 C   0  0  0  0  0  0  0  0  0  0  0  0
   42.6711  -37.3619   -9.1085 C   0  0  0  0  0  0  0  0  0  0  0  0
   42.8556  -37.3205  -10.5755 N   0  0  0  0  0  0  0  0  0  0  0  0
   43.2302  -38.4724  -11.3265 C   0  0  0  0  0  0  0  0  0  0  0  0
   44.5074  -38.6510  -11.5175 N   0  0  0  0  0  0  0  0  0  0  0  0
   42.2788  -39.3831  -11.8470 N   0  0  0  0  0  0  0  0  0  0  0  0
   46.2751  -38.6491   -6.0610 N   0  0  0  0  0  0  0  0  0  0  0  0
   47.1769  -37.5119   -6.2178 C   0  0  2  0  0  0  0  0  0  0  0  0
   48.2801  -37.6988   -5.2445 C   0  0  0  0  0  0  0  0  0  0  0  0
   48.7303  -38.9130   -5.2452 O   0  0  0  0  0  0  0  0  0  0  0  0
   46.4295  -36.2246   -6.1060 C   0  0  0  0  0  0  0  0  0  0  0  0
   45.8247  -35.9361   -4.7704 C   0  0  0  0  0  0  0  0  0  0  0  0
   46.7745  -36.4054   -3.6920 C   0  0  0  0  0  0  0  0  0  0  0  0
   48.0411  -36.8597   -4.1844 N   0  0  0  0  0  0  0  0  0  0  0  0
   48.3414  -36.6920   -5.5598 C   0  0  0  0  0  0  0  0  0  0  0  0
   48.0661  -37.6821   -6.5299 N   0  0  0  0  0  0  0  0  0  0  0  0
   48.8951  -35.5942   -6.0069 N   0  0  0  0  0  0  0  0  0  0  0  0
   48.8903  -36.8291   -4.3640 N   0  0  0  0  0  0  0  0  0  0  0  0
   49.5648  -35.5768   -4.5589 C   0  0  2  0  0  0  0  0  0  0  0  0
   50.4737  -35.5616   -5.7291 C   0  0  0  0  0  0  0  0  0  0  0  0
   49.8243  -35.7356   -6.8320 O   0  0  0  0  0  0  0  0  0  0  0  0
   50.2413  -35.1110   -3.2718 C   0  0  0  0  0  0  0  0  0  0  0  0
   49.4834  -34.0769   -2.5259 C   0  0  0  0  0  0  0  0  0  0  0  0
   48.2817  -33.7079   -3.4090 C   0  0  0  0  0  0  0  0  0  0  0  0
   48.6141  -32.5830   -4.2607 N   0  0  0  0  0  0  0  0  0  0  0  0
   49.9772  -32.1844   -4.3388 C   0  0  0  0  0  0  0  0  0  0  0  0
   50.6878  -31.9367   -3.1312 N   0  0  0  0  0  0  0  0  0  0  0  0
   50.5967  -32.0388   -5.4438 N   0  0  0  0  0  0  0  0  0  0  0  0
   51.8322  -35.3971   -5.8111 N   0  0  0  0  0  0  0  0  0  0  0  0
   52.9143  -36.1628   -5.2250 C   0  0  2  0  0  0  0  0  0  0  0  0
   54.2235  -35.4993   -5.4845 C   0  0  0  0  0  0  0  0  0  0  0  0
   55.1483  -35.7078   -4.6444 O   0  0  0  0  0  0  0  0  0  0  0  0
   52.9102  -37.6140   -5.5600 C   0  0  0  0  0  0  0  0  0  0  0  0
   53.0040  -37.9181   -7.0330 C   0  0  0  0  0  0  0  0  0  0  0  0
   53.1662  -39.4027   -7.2446 C   0  0  0  0  0  0  0  0  0  0  0  0
   52.4815  -39.9143   -8.4580 C   0  0  0  0  0  0  0  0  0  0  0  0
   52.4925  -38.9570   -9.5636 N   0  0  0  0  0  0  0  0  0  0  0  0
   54.4885  -34.6543   -6.6052 N   0  0  0  0  0  0  0  0  0  0  0  0
   53.6185  -34.7838   -7.7281 C   0  0  2  0  0  0  0  0  0  0  0  0
   54.4552  -34.6103   -8.9850 C   0  0  0  0  0  0  0  0  0  0  0  0
   55.5498  -34.0380   -8.8961 O   0  0  0  0  0  0  0  0  0  0  0  0
   52.4690  -33.8552   -7.7505 C   0  0  0  0  0  0  0  0  0  0  0  0
   51.7374  -33.5775   -8.9878 C   0  0  0  0  0  0  0  0  0  0  0  0
   50.5347  -32.7325   -8.9961 C   0  0  0  0  0  0  0  0  0  0  0  0
   49.3863  -33.6598   -8.7943 N   0  0  0  0  0  0  0  0  0  0  0  0
   48.1259  -33.3532   -9.3682 C   0  0  0  0  0  0  0  0  0  0  0  0
   47.2843  -32.3481   -8.8300 N   0  0  0  0  0  0  0  0  0  0  0  0
   47.7274  -34.0068  -10.4141 N   0  0  0  0  0  0  0  0  0  0  0  0
   53.9851  -35.0944  -10.2173 N   0  0  0  0  0  0  0  0  0  0  0  0
   54.8095  -35.2657  -11.4095 C   0  0  0  0  0  0  0  0  0  0  0  0
   54.6405  -36.6027  -12.0193 C   0  0  0  0  0  0  0  0  0  0  0  0
   54.6516  -37.7467  -11.2208 C   0  0  0  0  0  0  0  0  0  0  0  0
   54.4979  -38.9947  -11.7679 C   0  0  0  0  0  0  0  0  0  0  0  0
   54.3237  -39.1840  -13.1346 C   0  0  0  0  0  0  0  0  0  0  0  0
   54.1661  -40.5349  -13.6507 C   0  0  0  0  0  0  0  0  0  0  0  0
   54.0765  -41.6168  -12.7525 N   0  0  0  0  0  0  0  0  0  0  0  0
   54.1060  -40.7520  -14.9062 N   0  0  0  0  0  0  0  0  0  0  0  0
   54.3119  -38.0565  -13.9281 C   0  0  0  0  0  0  0  0  0  0  0  0
   54.4692  -36.7848  -13.3711 C   0  0  0  0  0  0  0  0  0  0  0  0
   46.9747  -40.1844   -9.5332 C   0  0  0  0  0  0  0  0  0  0  0  0
   48.2555  -40.0689   -8.7915 C   0  0  0  0  0  0  0  0  0  0  0  0
   49.1531  -39.0012   -9.4376 C   0  0  0  0  0  0  0  0  0  0  0  0
   50.1629  -39.6322  -10.3570 C   0  0  0  0  0  0  0  0  0  0  0  0
   51.4097  -38.8600  -10.4782 C   0  0  0  0  0  0  0  0  0  0  0  0
   46.8867  -41.2191  -10.2987 O   0  0  0  0  0  0  0  0  0  0  0  0
   51.5387  -38.0626  -11.4446 O   0  0  0  0  0  0  0  0  0  0  0  0
   45.2410  -38.4650  -10.8338 H   0  0  0  0  0  0  0  0  0  0  0  0
   49.8877  -35.3509   -5.8820 H   0  0  0  0  0  0  0  0  0  0  0  0
   50.0745  -32.1726   -6.3329 H   0  0  0  0  0  0  0  0  0  0  0  0
   48.2992  -34.0657  -11.2863 H   0  0  0  0  0  0  0  0  0  0  0  0
   54.3678  -39.9985  -15.5894 H   0  0  0  0  0  0  0  0  0  0  0  0
  2  1  1  6
  1 65  1  0
  2  3  1  0
  5  2  1  1
  3  4  2  0
  3 12  1  0
  5  6  1  0
  6  7  1  6
  7  8  1  6
  8  9  1  0
  9 10  2  0
  9 11  1  0
 13 12  1  1
 13 14  1  0
 16 13  1  1
 14 15  2  0
 14 23  1  0
 16 17  1  0
 17 18  1  6
 18 19  1  6
 19 20  1  0
 20 21  1  0
 20 22  2  0
 24 23  1  1
 24 25  1  0
 27 24  1  1
 25 26  2  0
 25 34  1  0
 27 28  1  0
 28 29  1  6
 29 30  1  6
 30 31  1  0
 31 32  1  0
 31 33  2  0
 34 35  1  0
 35 36  1  6
 38 35  1  1
 36 37  2  0
 36 43  1  0
 39 38  1  1
 39 40  1  0
 40 41  1  6
 41 42  1  6
 42 69  1  0
 44 43  1  1
 44 45  1  0
 47 44  1  1
 45 46  2  0
 45 54  1  0
 47 48  1  0
 48 49  1  6
 49 50  1  6
 50 51  1  0
 51 52  1  0
 51 53  2  0
 55 54  1  1
 55 56  1  0
 56 57  2  0
 56 64  1  0
 57 58  1  0
 58 59  2  0
 59 60  1  0
 59 63  1  0
 60 61  1  0
 60 62  2  0
 63 64  2  0
 66 65  1  1
 65 70  2  0
 67 66  1  1
 67 68  1  0
 68 69  1  6
 69 71  2  0
 10 72  1  0
 22 73  1  0
 33 74  1  0
 53 75  1  0
 62 76  1  0
M  END
$$$$
