
     RDKit          3D

 76 77  0  0  0  0  0  0  0  0999 V2000
   55.6762  -33.4471   -5.8902 N   0  0  0  0  0  0  0  0  0  0  0  0
   55.9264  -34.6767   -5.1881 C   0  0  2  0  0  0  0  0  0  0  0  0
   54.7417  -35.4837   -4.8460 C   0  0  0  0  0  0  0  0  0  0  0  0
   55.0710  -36.4249   -4.0078 O   0  0  0  0  0  0  0  0  0  0  0  0
   56.8241  -34.5399   -4.0151 C   0  0  0  0  0  0  0  0  0  0  0  0
   58.2861  -34.7457   -4.3549 C   0  0  0  0  0  0  0  0  0  0  0  0
   58.9122  -33.4015   -4.7352 C   0  0  0  0  0  0  0  0  0  0  0  0
   59.7104  -32.8577   -3.6612 N   0  0  0  0  0  0  0  0  0  0  0  0
   60.9897  -33.4043   -3.3752 C   0  0  0  0  0  0  0  0  0  0  0  0
   61.0503  -34.2108   -2.3527 N   0  0  0  0  0  0  0  0  0  0  0  0
   62.1326  -33.0920   -4.1527 N   0  0  0  0  0  0  0  0  0  0  0  0
   53.4153  -35.4258   -5.2410 N   0  0  0  0  0  0  0  0  0  0  0  0
   52.2526  -34.6755   -4.8496 C   0  0  2  0  0  0  0  0  0  0  0  0
   51.4393  -34.2394   -6.0137 C   0  0  0  0  0  0  0  0  0  0  0  0
   52.0101  -33.5095   -6.8680 O   0  0  0  0  0  0  0  0  0  0  0  0
   52.3126  -33.8235   -3.6721 C   0  0  0  0  0  0  0  0  0  0  0  0
   53.5565  -33.3530   -3.0498 C   0  0  0  0  0  0  0  0  0  0  0  0
   54.7664  -33.3319   -3.9033 C   0  0  0  0  0  0  0  0  0  0  0  0
   55.4639  -32.0643   -3.5824 N   0  0  0  0  0  0  0  0  0  0  0  0
   55.1246  -30.8928   -4.2943 C   0  0  0  0  0  0  0  0  0  0  0  0
   55.6912  -29.6727   -3.8519 N   0  0  0  0  0  0  0  0  0  0  0  0
   54.3204  -30.9450   -5.3198 N   0  0  0  0  0  0  0  0  0  0  0  0
   50.0936  -34.5547   -6.2769 N   0  0  0  0  0  0  0  0  0  0  0  0
   49.0469  -34.9628   -5.4342 C   0  0  2  0  0  0  0  0  0  0  0  0
   48.0545  -35.8753   -6.1274 C   0  0  0  0  0  0  0  0  0  0  0  0
   47.2417  -36.4178   -5.3162 O   0  0  0  0  0  0  0  0  0  0  0  0
   48.3461  -33.9222   -4.6508 C   0  0  0  0  0  0  0  0  0  0  0  0
   48.8529  -33.5502   -3.3173 C   0  0  0  0  0  0  0  0  0  0  0  0
   48.8016  -34.5722   -2.2421 C   0  0  0  0  0  0  0  0  0  0  0  0
   49.7936  -35.6209   -2.5446 N   0  0  0  0  0  0  0  0  0  0  0  0
   50.0536  -36.6368   -1.5832 C   0  0  0  0  0  0  0  0  0  0  0  0
   51.3608  -37.1415   -1.4290 N   0  0  0  0  0  0  0  0  0  0  0  0
   49.0779  -37.0963   -0.8464 N   0  0  0  0  0  0  0  0  0  0  0  0
   47.9452  -36.1625   -7.4726 N   0  0  0  0  0  0  0  0  0  0  0  0
   48.8240  -36.8289   -8.3906 C   0  0  2  0  0  0  0  0  0  0  0  0
   48.0150  -37.6887   -9.3289 C   0  0  0  0  0  0  0  0  0  0  0  0
   48.5507  -38.7395   -9.7490 O   0  0  0  0  0  0  0  0  0  0  0  0
   49.8807  -37.6961   -7.8205 C   0  0  0  0  0  0  0  0  0  0  0  0
   51.2015  -37.3017   -8.4532 C   0  0  0  0  0  0  0  0  0  0  0  0
   52.2326  -38.3931   -8.4114 C   0  0  0  0  0  0  0  0  0  0  0  0
   53.1322  -38.3790   -9.6276 C   0  0  0  0  0  0  0  0  0  0  0  0
   53.0396  -37.1155  -10.3324 N   0  0  0  0  0  0  0  0  0  0  0  0
   46.7163  -37.3655   -9.7417 N   0  0  0  0  0  0  0  0  0  0  0  0
   46.3411  -35.9511   -9.9401 C   0  0  2  0  0  0  0  0  0  0  0  0
   44.9308  -35.7744   -9.4405 C   0  0  0  0  0  0  0  0  0  0  0  0
   44.6015  -34.6280   -8.9839 O   0  0  0  0  0  0  0  0  0  0  0  0
   46.5075  -35.7059  -11.3915 C   0  0  0  0  0  0  0  0  0  0  0  0
   46.6679  -34.3137  -11.8640 C   0  0  0  0  0  0  0  0  0  0  0  0
   47.0395  -34.1667  -13.3183 C   0  0  0  0  0  0  0  0  0  0  0  0
   48.3989  -34.6100  -13.4653 N   0  0  0  0  0  0  0  0  0  0  0  0
   49.4390  -33.6777  -13.6995 C   0  0  0  0  0  0  0  0  0  0  0  0
   49.2016  -32.4587  -14.4220 N   0  0  0  0  0  0  0  0  0  0  0  0
   50.6194  -33.8837  -13.2804 N   0  0  0  0  0  0  0  0  0  0  0  0
   43.9555  -36.7829   -9.4469 N   0  0  0  0  0  0  0  0  0  0  0  0
   44.2134  -38.1936   -9.7521 C   0  0  0  0  0  0  0  0  0  0  0  0
   43.5562  -39.0437   -8.7451 C   0  0  0  0  0  0  0  0  0  0  0  0
   44.3217  -39.5848   -7.7116 C   0  0  0  0  0  0  0  0  0  0  0  0
   43.7190  -40.3677   -6.7620 C   0  0  0  0  0  0  0  0  0  0  0  0
   42.3609  -40.6499   -6.7834 C   0  0  0  0  0  0  0  0  0  0  0  0
   41.7624  -41.4891   -5.7603 C   0  0  0  0  0  0  0  0  0  0  0  0
   40.4620  -42.0035   -5.9023 N   0  0  0  0  0  0  0  0  0  0  0  0
   42.4410  -41.7570   -4.7065 N   0  0  0  0  0  0  0  0  0  0  0  0
   41.6258  -40.1036   -7.8141 C   0  0  0  0  0  0  0  0  0  0  0  0
   42.2103  -39.3006   -8.7984 C   0  0  0  0  0  0  0  0  0  0  0  0
   55.5390  -33.3834   -7.3035 C   0  0  0  0  0  0  0  0  0  0  0  0
   56.2101  -34.2806   -8.2657 C   0  0  0  0  0  0  0  0  0  0  0  0
   55.6095  -35.6408   -8.4117 C   0  0  0  0  0  0  0  0  0  0  0  0
   55.2964  -36.0088   -9.8418 C   0  0  0  0  0  0  0  0  0  0  0  0
   53.8259  -35.9802  -10.0931 C   0  0  0  0  0  0  0  0  0  0  0  0
   54.7819  -32.4841   -7.7537 O   0  0  0  0  0  0  0  0  0  0  0  0
   53.2737  -34.8250  -10.0828 O   0  0  0  0  0  0  0  0  0  0  0  0
   62.0098  -34.5008   -2.0072 H   0  0  0  0  0  0  0  0  0  0  0  0
   53.8513  -31.8116   -5.5813 H   0  0  0  0  0  0  0  0  0  0  0  0
   48.0812  -36.9024   -1.0766 H   0  0  0  0  0  0  0  0  0  0  0  0
   50.9381  -34.5283  -12.5472 H   0  0  0  0  0  0  0  0  0  0  0  0
   43.0674  -42.5815   -4.5996 H   0  0  0  0  0  0  0  0  0  0  0  0
  1  2  1  0
  1 65  1  0
  2  3  1  0
  2  5  1  1
  3  4  2  0
  3 12  1  0
  5  6  1  0
  6  7  1  0
  7  8  1  0
  8  9  1  0
  9 10  2  0
  9 11  1  0
 12 13  1  0
 13 14  1  0
 13 16  1  6
 14 15  2  0
 14 23  1  0
 16 17  1  0
 17 18  1  0
 18 19  1  0
 19 20  1  0
 20 21  1  0
 20 22  2  0
 23 24  1  0
 24 25  1  0
 24 27  1  6
 25 26  2  0
 25 34  1  0
 27 28  1  0
 28 29  1  0
 29 30  1  0
 30 31  1  0
 31 32  1  0
 31 33  2  0
 34 35  1  0
 35 36  1  6
 35 38  1  0
 36 37  2  0
 36 43  1  0
 38 39  1  0
 39 40  1  0
 40 41  1  0
 41 42  1  0
 42 69  1  0
 43 44  1  0
 44 45  1  0
 44 47  1  6
 45 46  2  0
 45 54  1  0
 47 48  1  0
 48 49  1  0
 49 50  1  0
 50 51  1  0
 51 52  1  0
 51 53  2  0
 54 55  1  0
 55 56  1  0
 56 57  2  0
 56 64  1  0
 57 58  1  0
 58 59  2  0
 59 60  1  0
 59 63  1  0
 60 61  1  0
 60 62  2  0
 63 64  2  0
 65 66  1  0
 65 70  2  0
 66 67  1  0
 67 68  1  0
 68 69  1  0
 69 71  2  0
 10 72  1  0
 22 73  1  0
 33 74  1  0
 53 75  1  0
 62 76  1  0
M  END
$$$$
