
     RDKit          3D

 76 77  0  0  0  0  0  0  0  0999 V2000
   56.6935  -33.7323   -6.7642 N   0  0  0  0  0  0  0  0  0  0  0  0
   56.9518  -34.6871   -5.7205 C   0  0  2  0  0  0  0  0  0  0  0  0
   55.7705  -35.2181   -5.0171 C   0  0  0  0  0  0  0  0  0  0  0  0
   56.1420  -35.8652   -3.9493 O   0  0  0  0  0  0  0  0  0  0  0  0
   57.9942  -34.2680   -4.7520 C   0  0  0  0  0  0  0  0  0  0  0  0
   58.3590  -32.8019   -4.8647 C   0  0  0  0  0  0  0  0  0  0  0  0
   57.6504  -32.1950   -6.0784 C   0  0  0  0  0  0  0  0  0  0  0  0
   58.2039  -32.6797   -7.3215 N   0  0  0  0  0  0  0  0  0  0  0  0
   57.5904  -32.3399   -8.5565 C   0  0  0  0  0  0  0  0  0  0  0  0
   57.3771  -31.0696   -8.7575 N   0  0  0  0  0  0  0  0  0  0  0  0
   57.2302  -33.3213   -9.5133 N   0  0  0  0  0  0  0  0  0  0  0  0
   54.4118  -35.1596   -5.2793 N   0  0  0  0  0  0  0  0  0  0  0  0
   53.3551  -34.2115   -5.0499 C   0  0  2  0  0  0  0  0  0  0  0  0
   52.4329  -34.0969   -6.2088 C   0  0  0  0  0  0  0  0  0  0  0  0
   52.9378  -33.7433   -7.3080 O   0  0  0  0  0  0  0  0  0  0  0  0
   53.6129  -33.0347   -4.2345 C   0  0  0  0  0  0  0  0  0  0  0  0
   54.0191  -33.0742   -2.8241 C   0  0  0  0  0  0  0  0  0  0  0  0
   53.2880  -34.0126   -1.9423 C   0  0  0  0  0  0  0  0  0  0  0  0
   54.2584  -35.0773   -1.5941 N   0  0  0  0  0  0  0  0  0  0  0  0
   53.8977  -36.0509   -0.6369 C   0  0  0  0  0  0  0  0  0  0  0  0
   54.9388  -36.6345    0.1253 N   0  0  0  0  0  0  0  0  0  0  0  0
   52.6496  -36.3905   -0.4687 N   0  0  0  0  0  0  0  0  0  0  0  0
   51.0480  -34.3452   -6.2213 N   0  0  0  0  0  0  0  0  0  0  0  0
   50.0901  -34.3525   -5.1943 C   0  0  2  0  0  0  0  0  0  0  0  0
   48.9650  -35.3369   -5.4455 C   0  0  0  0  0  0  0  0  0  0  0  0
   48.2266  -35.5042   -4.4258 O   0  0  0  0  0  0  0  0  0  0  0  0
   49.5575  -33.0503   -4.7382 C   0  0  0  0  0  0  0  0  0  0  0  0
   49.0256  -32.9204   -3.3694 C   0  0  0  0  0  0  0  0  0  0  0  0
   49.9930  -32.9108   -2.2437 C   0  0  0  0  0  0  0  0  0  0  0  0
   50.0592  -31.5437   -1.6942 N   0  0  0  0  0  0  0  0  0  0  0  0
   48.9484  -30.6697   -1.8561 C   0  0  0  0  0  0  0  0  0  0  0  0
   49.1544  -29.3419   -2.2829 N   0  0  0  0  0  0  0  0  0  0  0  0
   47.7414  -31.1034   -1.6091 N   0  0  0  0  0  0  0  0  0  0  0  0
   48.6726  -36.0315   -6.6013 N   0  0  0  0  0  0  0  0  0  0  0  0
   49.3882  -37.0430   -7.3253 C   0  0  2  0  0  0  0  0  0  0  0  0
   48.4177  -38.0752   -7.8416 C   0  0  0  0  0  0  0  0  0  0  0  0
   48.0125  -38.9377   -7.0294 O   0  0  0  0  0  0  0  0  0  0  0  0
   50.4514  -37.7794   -6.6036 C   0  0  0  0  0  0  0  0  0  0  0  0
   51.7058  -37.7443   -7.4555 C   0  0  0  0  0  0  0  0  0  0  0  0
   52.6644  -38.8601   -7.1523 C   0  0  0  0  0  0  0  0  0  0  0  0
   53.4060  -39.3297   -8.3845 C   0  0  0  0  0  0  0  0  0  0  0  0
   53.3056  -38.3597   -9.4571 N   0  0  0  0  0  0  0  0  0  0  0  0
   47.9616  -38.1081   -9.1654 N   0  0  0  0  0  0  0  0  0  0  0  0
   47.1171  -37.0102   -9.6770 C   0  0  2  0  0  0  0  0  0  0  0  0
   46.6862  -37.3734  -11.0743 C   0  0  0  0  0  0  0  0  0  0  0  0
   47.5976  -37.6629  -11.9208 O   0  0  0  0  0  0  0  0  0  0  0  0
   47.9661  -35.7989   -9.5979 C   0  0  0  0  0  0  0  0  0  0  0  0
   49.3918  -35.9034   -9.9771 C   0  0  0  0  0  0  0  0  0  0  0  0
   50.0757  -34.5928  -10.2762 C   0  0  0  0  0  0  0  0  0  0  0  0
   49.4714  -33.5887   -9.4439 N   0  0  0  0  0  0  0  0  0  0  0  0
   48.6516  -32.5820  -10.0100 C   0  0  0  0  0  0  0  0  0  0  0  0
   47.8913  -31.6850   -9.1845 N   0  0  0  0  0  0  0  0  0  0  0  0
   48.5578  -32.4344  -11.2675 N   0  0  0  0  0  0  0  0  0  0  0  0
   45.3519  -37.4183  -11.5056 N   0  0  0  0  0  0  0  0  0  0  0  0
   44.1876  -37.1709  -10.6497 C   0  0  0  0  0  0  0  0  0  0  0  0
   43.7225  -38.4427  -10.0709 C   0  0  0  0  0  0  0  0  0  0  0  0
   42.8913  -39.2682  -10.8290 C   0  0  0  0  0  0  0  0  0  0  0  0
   42.4618  -40.4596  -10.3056 C   0  0  0  0  0  0  0  0  0  0  0  0
   42.8224  -40.8872   -9.0361 C   0  0  0  0  0  0  0  0  0  0  0  0
   42.3405  -42.1550   -8.5167 C   0  0  0  0  0  0  0  0  0  0  0  0
   41.4291  -42.9443   -9.2394 N   0  0  0  0  0  0  0  0  0  0  0  0
   42.7576  -42.5519   -7.3717 N   0  0  0  0  0  0  0  0  0  0  0  0
   43.6445  -40.0546   -8.3067 C   0  0  0  0  0  0  0  0  0  0  0  0
   44.1003  -38.8329   -8.8119 C   0  0  0  0  0  0  0  0  0  0  0  0
   56.3868  -34.1161   -8.0980 C   0  0  0  0  0  0  0  0  0  0  0  0
   56.8769  -35.3383   -8.7667 C   0  0  0  0  0  0  0  0  0  0  0  0
   56.1796  -36.6058   -8.3932 C   0  0  0  0  0  0  0  0  0  0  0  0
   55.6700  -37.3838   -9.5823 C   0  0  0  0  0  0  0  0  0  0  0  0
   54.1843  -37.2921   -9.6860 C   0  0  0  0  0  0  0  0  0  0  0  0
   55.6373  -33.3404   -8.7467 O   0  0  0  0  0  0  0  0  0  0  0  0
   53.7104  -36.1469  -10.0077 O   0  0  0  0  0  0  0  0  0  0  0  0
   57.7006  -30.3892   -8.0113 H   0  0  0  0  0  0  0  0  0  0  0  0
   52.3601  -36.9710    0.3178 H   0  0  0  0  0  0  0  0  0  0  0  0
   46.8989  -30.5395   -1.8465 H   0  0  0  0  0  0  0  0  0  0  0  0
   48.2666  -33.1190  -11.9753 H   0  0  0  0  0  0  0  0  0  0  0  0
   42.8516  -43.5494   -7.0892 H   0  0  0  0  0  0  0  0  0  0  0  0
  1  2  1  0
  1 65  1  0
  2  3  1  0
  2  5  1  1
  3  4  2  0
  3 12  1  0
  5  6  1  0
  6  7  1  0
  7  8  1  0
  8  9  1  0
  9 10  2  0
  9 11  1  0
 12 13  1  0
 13 14  1  0
 13 16  1  6
 14 15  2  0
 14 23  1  0
 16 17  1  0
 17 18  1  0
 18 19  1  0
 19 20  1  0
 20 21  1  0
 20 22  2  0
 23 24  1  0
 24 25  1  0
 24 27  1  6
 25 26  2  0
 25 34  1  0
 27 28  1  0
 28 29  1  0
 29 30  1  0
 30 31  1  0
 31 32  1  0
 31 33  2  0
 34 35  1  0
 35 36  1  1
 35 38  1  0
 36 37  2  0
 36 43  1  0
 38 39  1  0
 39 40  1  0
 40 41  1  0
 41 42  1  0
 42 69  1  0
 43 44  1  0
 44 45  1  0
 44 47  1  6
 45 46  2  0
 45 54  1  0
 47 48  1  0
 48 49  1  0
 49 50  1  0
 50 51  1  0
 51 52  1  0
 51 53  2  0
 54 55  1  0
 55 56  1  0
 56 57  2  0
 56 64  1  0
 57 58  1  0
 58 59  2  0
 59 60  1  0
 59 63  1  0
 60 61  1  0
 60 62  2  0
 63 64  2  0
 65 66  1  0
 65 70  2  0
 66 67  1  0
 67 68  1  0
 68 69  1  0
 69 71  2  0
 10 72  1  0
 22 73  1  0
 33 74  1  0
 53 75  1  0
 62 76  1  0
M  END
$$$$
