
     RDKit          3D

 76 77  0  0  0  0  0  0  0  0999 V2000
   46.2758  -32.8580   -6.3384 N   0  0  0  0  0  0  0  0  0  0  0  0
   47.3922  -32.8345   -5.3810 C   0  0  2  0  0  0  0  0  0  0  0  0
   47.5942  -34.1734   -4.7842 C   0  0  0  0  0  0  0  0  0  0  0  0
   46.6271  -34.5262   -4.0042 O   0  0  0  0  0  0  0  0  0  0  0  0
   46.9687  -31.8283   -4.3398 C   0  0  0  0  0  0  0  0  0  0  0  0
   45.5303  -31.6160   -4.1197 C   0  0  0  0  0  0  0  0  0  0  0  0
   44.7301  -32.7083   -3.5212 C   0  0  0  0  0  0  0  0  0  0  0  0
   45.1087  -32.9399   -2.1102 N   0  0  0  0  0  0  0  0  0  0  0  0
   46.2222  -32.2870   -1.5058 C   0  0  0  0  0  0  0  0  0  0  0  0
   47.3105  -32.9934   -1.3785 N   0  0  0  0  0  0  0  0  0  0  0  0
   46.1657  -30.9443   -1.0594 N   0  0  0  0  0  0  0  0  0  0  0  0
   48.6926  -35.0250   -4.9959 N   0  0  0  0  0  0  0  0  0  0  0  0
   49.3450  -35.3431   -6.2624 C   0  0  2  0  0  0  0  0  0  0  0  0
   49.5456  -36.8123   -6.2874 C   0  0  0  0  0  0  0  0  0  0  0  0
   48.4902  -37.4549   -5.9001 O   0  0  0  0  0  0  0  0  0  0  0  0
   50.5776  -34.5208   -6.4439 C   0  0  0  0  0  0  0  0  0  0  0  0
   51.6408  -34.7033   -5.4099 C   0  0  0  0  0  0  0  0  0  0  0  0
   51.1722  -35.7288   -4.4027 C   0  0  0  0  0  0  0  0  0  0  0  0
   51.2192  -35.2784   -3.0433 N   0  0  0  0  0  0  0  0  0  0  0  0
   52.4662  -34.8861   -2.4945 C   0  0  0  0  0  0  0  0  0  0  0  0
   53.6446  -35.6512   -2.6472 N   0  0  0  0  0  0  0  0  0  0  0  0
   52.5906  -33.7781   -1.8101 N   0  0  0  0  0  0  0  0  0  0  0  0
   50.6301  -37.5890   -6.6400 N   0  0  0  0  0  0  0  0  0  0  0  0
   51.3952  -37.6822   -7.8513 C   0  0  2  0  0  0  0  0  0  0  0  0
   50.5705  -37.6792   -9.0824 C   0  0  0  0  0  0  0  0  0  0  0  0
   49.9229  -36.5693   -9.2127 O   0  0  0  0  0  0  0  0  0  0  0  0
   52.3763  -38.8506   -7.7930 C   0  0  0  0  0  0  0  0  0  0  0  0
   52.9736  -39.0774   -6.4544 C   0  0  0  0  0  0  0  0  0  0  0  0
   52.2280  -38.1424   -5.4900 C   0  0  0  0  0  0  0  0  0  0  0  0
   52.9159  -36.8701   -5.3955 N   0  0  0  0  0  0  0  0  0  0  0  0
   53.3809  -36.2714   -6.5990 C   0  0  0  0  0  0  0  0  0  0  0  0
   53.4814  -37.0754   -7.7687 N   0  0  0  0  0  0  0  0  0  0  0  0
   53.7126  -35.0429   -6.6814 N   0  0  0  0  0  0  0  0  0  0  0  0
   50.4026  -38.6304  -10.0551 N   0  0  0  0  0  0  0  0  0  0  0  0
   49.9233  -39.9956   -9.9696 C   0  0  2  0  0  0  0  0  0  0  0  0
   50.0623  -40.6811  -11.2859 C   0  0  0  0  0  0  0  0  0  0  0  0
   49.3672  -41.7247  -11.4649 O   0  0  0  0  0  0  0  0  0  0  0  0
   48.5720  -40.1500   -9.3625 C   0  0  0  0  0  0  0  0  0  0  0  0
   47.4708  -39.4212  -10.0888 C   0  0  0  0  0  0  0  0  0  0  0  0
   46.1324  -39.7846   -9.4958 C   0  0  0  0  0  0  0  0  0  0  0  0
   45.1582  -38.6648   -9.4822 C   0  0  0  0  0  0  0  0  0  0  0  0
   45.2912  -37.7810  -10.6398 N   0  0  0  0  0  0  0  0  0  0  0  0
   50.9220  -40.2373  -12.3367 N   0  0  0  0  0  0  0  0  0  0  0  0
   51.5893  -38.9922  -12.1389 C   0  0  2  0  0  0  0  0  0  0  0  0
   51.1287  -38.0410  -13.2312 C   0  0  0  0  0  0  0  0  0  0  0  0
   50.1152  -38.3293  -13.8819 O   0  0  0  0  0  0  0  0  0  0  0  0
   53.0654  -39.0605  -12.1136 C   0  0  0  0  0  0  0  0  0  0  0  0
   53.8871  -38.0356  -12.7599 C   0  0  0  0  0  0  0  0  0  0  0  0
   55.1677  -38.3684  -13.4001 C   0  0  0  0  0  0  0  0  0  0  0  0
   56.2116  -38.1386  -12.3624 N   0  0  0  0  0  0  0  0  0  0  0  0
   57.5817  -38.2844  -12.6993 C   0  0  0  0  0  0  0  0  0  0  0  0
   57.9927  -38.7522  -13.9722 N   0  0  0  0  0  0  0  0  0  0  0  0
   58.4877  -37.9829  -11.8228 N   0  0  0  0  0  0  0  0  0  0  0  0
   51.8470  -36.8612  -13.4876 N   0  0  0  0  0  0  0  0  0  0  0  0
   51.6348  -35.5943  -12.7943 C   0  0  0  0  0  0  0  0  0  0  0  0
   50.5287  -34.8109  -13.3863 C   0  0  0  0  0  0  0  0  0  0  0  0
   50.2165  -33.5461  -12.8870 C   0  0  0  0  0  0  0  0  0  0  0  0
   49.1938  -32.8054  -13.4218 C   0  0  0  0  0  0  0  0  0  0  0  0
   48.4216  -33.2712  -14.4805 C   0  0  0  0  0  0  0  0  0  0  0  0
   47.3513  -32.4351  -15.0014 C   0  0  0  0  0  0  0  0  0  0  0  0
   47.1600  -31.1420  -14.4758 N   0  0  0  0  0  0  0  0  0  0  0  0
   46.5849  -32.8574  -15.9296 N   0  0  0  0  0  0  0  0  0  0  0  0
   48.7263  -34.5207  -14.9775 C   0  0  0  0  0  0  0  0  0  0  0  0
   49.7677  -35.2759  -14.4325 C   0  0  0  0  0  0  0  0  0  0  0  0
   45.3533  -33.8748   -6.5544 C   0  0  0  0  0  0  0  0  0  0  0  0
   45.6306  -35.2681   -6.9855 C   0  0  0  0  0  0  0  0  0  0  0  0
   45.9491  -35.3093   -8.4888 C   0  0  0  0  0  0  0  0  0  0  0  0
   44.7318  -35.6914   -9.2861 C   0  0  0  0  0  0  0  0  0  0  0  0
   45.0484  -36.3845  -10.5450 C   0  0  0  0  0  0  0  0  0  0  0  0
   44.1052  -33.6067   -6.3677 O   0  0  0  0  0  0  0  0  0  0  0  0
   45.1109  -35.7131  -11.6088 O   0  0  0  0  0  0  0  0  0  0  0  0
   47.7204  -33.2972   -0.4954 H   0  0  0  0  0  0  0  0  0  0  0  0
   52.7385  -32.8492   -2.2290 H   0  0  0  0  0  0  0  0  0  0  0  0
   54.6826  -34.8036   -6.9696 H   0  0  0  0  0  0  0  0  0  0  0  0
   58.3008  -37.3291  -11.0298 H   0  0  0  0  0  0  0  0  0  0  0  0
   45.8369  -32.2356  -16.3258 H   0  0  0  0  0  0  0  0  0  0  0  0
  2  1  1  6
  1 65  1  0
  2  3  1  0
  5  2  1  1
  3  4  2  0
  3 12  1  0
  5  6  1  0
  6  7  1  6
  7  8  1  6
  8  9  1  0
  9 10  2  0
  9 11  1  0
 13 12  1  1
 13 14  1  0
 16 13  1  1
 14 15  2  0
 14 23  1  0
 16 17  1  0
 17 18  1  6
 18 19  1  6
 19 20  1  0
 20 21  1  0
 20 22  2  0
 24 23  1  1
 24 25  1  0
 27 24  1  1
 25 26  2  0
 25 34  1  0
 27 28  1  0
 28 29  1  6
 29 30  1  6
 30 31  1  0
 31 32  1  0
 31 33  2  0
 34 35  1  0
 35 36  1  6
 38 35  1  1
 36 37  2  0
 36 43  1  0
 39 38  1  1
 39 40  1  0
 40 41  1  6
 41 42  1  6
 42 69  1  0
 44 43  1  6
 44 45  1  0
 47 44  1  1
 45 46  2  0
 45 54  1  0
 47 48  1  0
 48 49  1  6
 49 50  1  6
 50 51  1  0
 51 52  1  0
 51 53  2  0
 55 54  1  1
 55 56  1  0
 56 57  2  0
 56 64  1  0
 57 58  1  0
 58 59  2  0
 59 60  1  0
 59 63  1  0
 60 61  1  0
 60 62  2  0
 63 64  2  0
 66 65  1  1
 65 70  2  0
 67 66  1  1
 67 68  1  0
 68 69  1  6
 69 71  2  0
 10 72  1  0
 22 73  1  0
 33 74  1  0
 53 75  1  0
 62 76  1  0
M  END
$$$$
