
     RDKit          3D

 76 77  0  0  0  0  0  0  0  0999 V2000
   50.9636  -34.7993   -1.8829 N   0  0  0  0  0  0  0  0  0  0  0  0
   49.4953  -34.7129   -1.8936 C   0  0  2  0  0  0  0  0  0  0  0  0
   49.0381  -33.7494   -2.9194 C   0  0  0  0  0  0  0  0  0  0  0  0
   49.3404  -32.5275   -2.6301 O   0  0  0  0  0  0  0  0  0  0  0  0
   49.1396  -34.2447   -0.5043 C   0  0  0  0  0  0  0  0  0  0  0  0
   47.8141  -34.5909    0.0302 C   0  0  0  0  0  0  0  0  0  0  0  0
   46.8897  -35.3848   -0.8104 C   0  0  0  0  0  0  0  0  0  0  0  0
   45.8110  -35.9890    0.0014 N   0  0  0  0  0  0  0  0  0  0  0  0
   46.0635  -37.0182    0.9544 C   0  0  0  0  0  0  0  0  0  0  0  0
   45.2975  -37.0335    2.0092 N   0  0  0  0  0  0  0  0  0  0  0  0
   47.0894  -37.9791    0.7819 N   0  0  0  0  0  0  0  0  0  0  0  0
   48.3453  -34.0563   -4.1036 N   0  0  0  0  0  0  0  0  0  0  0  0
   48.6235  -35.1346   -5.0473 C   0  0  2  0  0  0  0  0  0  0  0  0
   48.5554  -34.5463   -6.4070 C   0  0  0  0  0  0  0  0  0  0  0  0
   49.1826  -33.4159   -6.4809 O   0  0  0  0  0  0  0  0  0  0  0  0
   47.7213  -36.2982   -4.8022 C   0  0  0  0  0  0  0  0  0  0  0  0
   48.1154  -37.5790   -5.4632 C   0  0  0  0  0  0  0  0  0  0  0  0
   49.6112  -37.5757   -5.6827 C   0  0  0  0  0  0  0  0  0  0  0  0
   50.1895  -36.2668   -5.7548 N   0  0  0  0  0  0  0  0  0  0  0  0
   49.4145  -35.1521   -5.3463 C   0  0  0  0  0  0  0  0  0  0  0  0
   48.1814  -35.2840   -4.6685 N   0  0  0  0  0  0  0  0  0  0  0  0
   49.8093  -33.9266   -5.5783 N   0  0  0  0  0  0  0  0  0  0  0  0
   47.9560  -34.9815   -7.5710 N   0  0  0  0  0  0  0  0  0  0  0  0
   48.1002  -36.1879   -8.3360 C   0  0  2  0  0  0  0  0  0  0  0  0
   49.5049  -36.6315   -8.4960 C   0  0  0  0  0  0  0  0  0  0  0  0
   50.0390  -36.9243   -7.3571 O   0  0  0  0  0  0  0  0  0  0  0  0
   47.3503  -36.0904   -9.6624 C   0  0  0  0  0  0  0  0  0  0  0  0
   46.6461  -37.3349  -10.0563 C   0  0  0  0  0  0  0  0  0  0  0  0
   47.1399  -38.4274   -9.0957 C   0  0  0  0  0  0  0  0  0  0  0  0
   48.5349  -38.2107   -8.7670 N   0  0  0  0  0  0  0  0  0  0  0  0
   49.2248  -39.2413   -8.0706 C   0  0  0  0  0  0  0  0  0  0  0  0
   48.6136  -40.5218   -7.9630 N   0  0  0  0  0  0  0  0  0  0  0  0
   50.3704  -39.0730   -7.5364 N   0  0  0  0  0  0  0  0  0  0  0  0
   50.2820  -36.7717   -9.6167 N   0  0  0  0  0  0  0  0  0  0  0  0
   50.6769  -35.8036  -10.6204 C   0  0  2  0  0  0  0  0  0  0  0  0
   51.4091  -36.4738  -11.7325 C   0  0  0  0  0  0  0  0  0  0  0  0
   52.3365  -35.8136  -12.2879 O   0  0  0  0  0  0  0  0  0  0  0  0
   51.3778  -34.6006  -10.0914 C   0  0  0  0  0  0  0  0  0  0  0  0
   52.6542  -34.8952   -9.3463 C   0  0  0  0  0  0  0  0  0  0  0  0
   53.3643  -33.6079   -9.0091 C   0  0  0  0  0  0  0  0  0  0  0  0
   54.0671  -33.6348   -7.7021 C   0  0  0  0  0  0  0  0  0  0  0  0
   54.6271  -34.9479   -7.3842 N   0  0  0  0  0  0  0  0  0  0  0  0
   51.1270  -37.7933  -12.2007 N   0  0  0  0  0  0  0  0  0  0  0  0
   49.7631  -38.0952  -12.4894 C   0  0  2  0  0  0  0  0  0  0  0  0
   49.7409  -39.0649  -13.6597 C   0  0  0  0  0  0  0  0  0  0  0  0
   49.3745  -38.6509  -14.7677 O   0  0  0  0  0  0  0  0  0  0  0  0
   48.9028  -36.9291  -12.7793 C   0  0  0  0  0  0  0  0  0  0  0  0
   47.4487  -37.0621  -12.8852 C   0  0  0  0  0  0  0  0  0  0  0  0
   46.5679  -35.8854  -12.8920 C   0  0  0  0  0  0  0  0  0  0  0  0
   46.8695  -35.1603  -14.1580 N   0  0  0  0  0  0  0  0  0  0  0  0
   46.5570  -33.7814  -14.2698 C   0  0  0  0  0  0  0  0  0  0  0  0
   45.2741  -33.2766  -13.9416 N   0  0  0  0  0  0  0  0  0  0  0  0
   47.4659  -32.9548  -14.6830 N   0  0  0  0  0  0  0  0  0  0  0  0
   50.1311  -40.4018  -13.4749 N   0  0  0  0  0  0  0  0  0  0  0  0
   50.0260  -41.4440  -14.4914 C   0  0  0  0  0  0  0  0  0  0  0  0
   51.3126  -41.6860  -15.1798 C   0  0  0  0  0  0  0  0  0  0  0  0
   51.4721  -42.8026  -16.0009 C   0  0  0  0  0  0  0  0  0  0  0  0
   52.6577  -43.0445  -16.6462 C   0  0  0  0  0  0  0  0  0  0  0  0
   53.7529  -42.1971  -16.5180 C   0  0  0  0  0  0  0  0  0  0  0  0
   54.9819  -42.5114  -17.2301 C   0  0  0  0  0  0  0  0  0  0  0  0
   55.0531  -43.6808  -18.0127 N   0  0  0  0  0  0  0  0  0  0  0  0
   55.9953  -41.7402  -17.1564 N   0  0  0  0  0  0  0  0  0  0  0  0
   53.6003  -41.0921  -15.7077 C   0  0  0  0  0  0  0  0  0  0  0  0
   52.3928  -40.8457  -15.0494 C   0  0  0  0  0  0  0  0  0  0  0  0
   51.8749  -33.9829   -2.5419 C   0  0  0  0  0  0  0  0  0  0  0  0
   51.9915  -33.7577   -4.0047 C   0  0  0  0  0  0  0  0  0  0  0  0
   52.6641  -34.9641   -4.6794 C   0  0  0  0  0  0  0  0  0  0  0  0
   54.1320  -34.7120   -4.8919 C   0  0  0  0  0  0  0  0  0  0  0  0
   54.6894  -35.4299   -6.0493 C   0  0  0  0  0  0  0  0  0  0  0  0
   52.7308  -33.3343   -1.8270 O   0  0  0  0  0  0  0  0  0  0  0  0
   55.2582  -36.5377   -5.8604 O   0  0  0  0  0  0  0  0  0  0  0  0
   44.3414  -37.3872    2.0427 H   0  0  0  0  0  0  0  0  0  0  0  0
   50.7937  -33.6414   -5.6769 H   0  0  0  0  0  0  0  0  0  0  0  0
   50.6805  -39.7341   -6.7962 H   0  0  0  0  0  0  0  0  0  0  0  0
   47.8978  -33.0292  -15.6312 H   0  0  0  0  0  0  0  0  0  0  0  0
   56.9004  -42.0057  -17.6185 H   0  0  0  0  0  0  0  0  0  0  0  0
  2  1  1  1
  1 65  1  0
  2  3  1  0
  5  2  1  1
  3  4  2  0
  3 12  1  0
  5  6  1  0
  6  7  1  6
  7  8  1  6
  8  9  1  0
  9 10  2  0
  9 11  1  0
 13 12  1  1
 13 14  1  0
 16 13  1  1
 14 15  2  0
 14 23  1  0
 16 17  1  0
 17 18  1  6
 18 19  1  6
 19 20  1  0
 20 21  1  0
 20 22  2  0
 24 23  1  6
 24 25  1  0
 27 24  1  1
 25 26  2  0
 25 34  1  0
 27 28  1  0
 28 29  1  6
 29 30  1  6
 30 31  1  0
 31 32  1  0
 31 33  2  0
 34 35  1  0
 35 36  1  6
 38 35  1  1
 36 37  2  0
 36 43  1  0
 39 38  1  1
 39 40  1  0
 40 41  1  6
 41 42  1  6
 42 69  1  0
 44 43  1  6
 44 45  1  0
 47 44  1  1
 45 46  2  0
 45 54  1  0
 47 48  1  0
 48 49  1  6
 49 50  1  6
 50 51  1  0
 51 52  1  0
 51 53  2  0
 55 54  1  1
 55 56  1  0
 56 57  2  0
 56 64  1  0
 57 58  1  0
 58 59  2  0
 59 60  1  0
 59 63  1  0
 60 61  1  0
 60 62  2  0
 63 64  2  0
 66 65  1  1
 65 70  2  0
 67 66  1  1
 67 68  1  0
 68 69  1  6
 69 71  2  0
 10 72  1  0
 22 73  1  0
 33 74  1  0
 53 75  1  0
 62 76  1  0
M  END
$$$$
