
     RDKit          3D

 76 77  0  0  0  0  0  0  0  0999 V2000
   54.6848  -34.2105   -5.5855 N   0  0  0  0  0  0  0  0  0  0  0  0
   55.5155  -35.3535   -5.8520 C   0  0  2  0  0  0  0  0  0  0  0  0
   54.8235  -36.5644   -6.3283 C   0  0  0  0  0  0  0  0  0  0  0  0
   55.6336  -37.5838   -6.2910 O   0  0  0  0  0  0  0  0  0  0  0  0
   56.4657  -35.6868   -4.7628 C   0  0  0  0  0  0  0  0  0  0  0  0
   56.4573  -34.6770   -3.6334 C   0  0  0  0  0  0  0  0  0  0  0  0
   55.0156  -34.2499   -3.3460 C   0  0  0  0  0  0  0  0  0  0  0  0
   54.8994  -33.5712   -2.0762 N   0  0  0  0  0  0  0  0  0  0  0  0
   53.6261  -33.1584   -1.6014 C   0  0  0  0  0  0  0  0  0  0  0  0
   53.5647  -31.9545   -1.1049 N   0  0  0  0  0  0  0  0  0  0  0  0
   52.4900  -34.0034   -1.6619 N   0  0  0  0  0  0  0  0  0  0  0  0
   53.5379  -36.7961   -6.7888 N   0  0  0  0  0  0  0  0  0  0  0  0
   52.2552  -37.0470   -6.1892 C   0  0  2  0  0  0  0  0  0  0  0  0
   51.1550  -36.3238   -6.8772 C   0  0  0  0  0  0  0  0  0  0  0  0
   51.2386  -35.0672   -6.9236 O   0  0  0  0  0  0  0  0  0  0  0  0
   52.1658  -37.2664   -4.7539 C   0  0  0  0  0  0  0  0  0  0  0  0
   53.0449  -36.6362   -3.7610 C   0  0  0  0  0  0  0  0  0  0  0  0
   52.9249  -35.1697   -3.5947 C   0  0  0  0  0  0  0  0  0  0  0  0
   54.3074  -34.6411   -3.6698 N   0  0  0  0  0  0  0  0  0  0  0  0
   54.5071  -33.2454   -3.7497 C   0  0  0  0  0  0  0  0  0  0  0  0
   55.8403  -32.7820   -3.8650 N   0  0  0  0  0  0  0  0  0  0  0  0
   53.4944  -32.4240   -3.7193 N   0  0  0  0  0  0  0  0  0  0  0  0
   50.0221  -36.8866   -7.4932 N   0  0  0  0  0  0  0  0  0  0  0  0
   49.3790  -38.1226   -7.3168 C   0  0  2  0  0  0  0  0  0  0  0  0
   48.7311  -38.6358   -8.5876 C   0  0  0  0  0  0  0  0  0  0  0  0
   48.3474  -39.8423   -8.4865 O   0  0  0  0  0  0  0  0  0  0  0  0
   48.4628  -38.2655   -6.1646 C   0  0  0  0  0  0  0  0  0  0  0  0
   48.7202  -37.5010   -4.9306 C   0  0  0  0  0  0  0  0  0  0  0  0
   48.9411  -36.0381   -5.0504 C   0  0  0  0  0  0  0  0  0  0  0  0
   49.5469  -35.5513   -3.7968 N   0  0  0  0  0  0  0  0  0  0  0  0
   48.7348  -35.4039   -2.6381 C   0  0  0  0  0  0  0  0  0  0  0  0
   49.0445  -36.1234   -1.4658 N   0  0  0  0  0  0  0  0  0  0  0  0
   47.7056  -34.6004   -2.6662 N   0  0  0  0  0  0  0  0  0  0  0  0
   48.5237  -37.9679   -9.7771 N   0  0  0  0  0  0  0  0  0  0  0  0
   49.4296  -37.4279  -10.7501 C   0  0  2  0  0  0  0  0  0  0  0  0
   48.8856  -37.6717  -12.1353 C   0  0  0  0  0  0  0  0  0  0  0  0
   49.6634  -37.4823  -13.0980 O   0  0  0  0  0  0  0  0  0  0  0  0
   50.8223  -37.9316  -10.7433 C   0  0  0  0  0  0  0  0  0  0  0  0
   51.7530  -36.7341  -10.7320 C   0  0  0  0  0  0  0  0  0  0  0  0
   53.1242  -37.0389  -11.2638 C   0  0  0  0  0  0  0  0  0  0  0  0
   53.7292  -35.8627  -11.9981 C   0  0  0  0  0  0  0  0  0  0  0  0
   53.0268  -34.6335  -11.6858 N   0  0  0  0  0  0  0  0  0  0  0  0
   47.5727  -38.0915  -12.3832 N   0  0  0  0  0  0  0  0  0  0  0  0
   46.5600  -38.0016  -11.3124 C   0  0  2  0  0  0  0  0  0  0  0  0
   45.7927  -39.2981  -11.2942 C   0  0  0  0  0  0  0  0  0  0  0  0
   44.6125  -39.2969  -11.7823 O   0  0  0  0  0  0  0  0  0  0  0  0
   45.7411  -36.8149  -11.6519 C   0  0  0  0  0  0  0  0  0  0  0  0
   44.4024  -36.6753  -11.0391 C   0  0  0  0  0  0  0  0  0  0  0  0
   43.6896  -35.3803  -11.3385 C   0  0  0  0  0  0  0  0  0  0  0  0
   44.4072  -34.3269  -10.6741 N   0  0  0  0  0  0  0  0  0  0  0  0
   43.8613  -33.6934   -9.5310 C   0  0  0  0  0  0  0  0  0  0  0  0
   44.3652  -33.9653   -8.2134 N   0  0  0  0  0  0  0  0  0  0  0  0
   42.9067  -32.8621   -9.6276 N   0  0  0  0  0  0  0  0  0  0  0  0
   46.2891  -40.5057  -10.7808 N   0  0  0  0  0  0  0  0  0  0  0  0
   45.7027  -41.2398   -9.6553 C   0  0  0  0  0  0  0  0  0  0  0  0
   44.8028  -40.3501   -8.9021 C   0  0  0  0  0  0  0  0  0  0  0  0
   43.9212  -40.9059   -7.9744 C   0  0  0  0  0  0  0  0  0  0  0  0
   43.0874  -40.0869   -7.2588 C   0  0  0  0  0  0  0  0  0  0  0  0
   43.0814  -38.7089   -7.4189 C   0  0  0  0  0  0  0  0  0  0  0  0
   42.1774  -37.8771   -6.6442 C   0  0  0  0  0  0  0  0  0  0  0  0
   41.3193  -38.4298   -5.6777 N   0  0  0  0  0  0  0  0  0  0  0  0
   42.1659  -36.6133   -6.8570 N   0  0  0  0  0  0  0  0  0  0  0  0
   43.9616  -38.1835   -8.3410 C   0  0  0  0  0  0  0  0  0  0  0  0
   44.8254  -38.9916   -9.0868 C   0  0  0  0  0  0  0  0  0  0  0  0
   54.3015  -33.2868   -6.5956 C   0  0  0  0  0  0  0  0  0  0  0  0
   55.1044  -32.9464   -7.7875 C   0  0  0  0  0  0  0  0  0  0  0  0
   55.0786  -33.9492   -8.8948 C   0  0  0  0  0  0  0  0  0  0  0  0
   54.7053  -33.3573  -10.2324 C   0  0  0  0  0  0  0  0  0  0  0  0
   53.3250  -33.7606  -10.6306 C   0  0  0  0  0  0  0  0  0  0  0  0
   53.1863  -32.7225   -6.4458 O   0  0  0  0  0  0  0  0  0  0  0  0
   52.3693  -33.2584   -9.9422 O   0  0  0  0  0  0  0  0  0  0  0  0
   53.4397  -31.8572   -0.0565 H   0  0  0  0  0  0  0  0  0  0  0  0
   53.3252  -31.8215   -2.9145 H   0  0  0  0  0  0  0  0  0  0  0  0
   46.7502  -34.9439   -2.8974 H   0  0  0  0  0  0  0  0  0  0  0  0
   42.2747  -32.5206   -8.8938 H   0  0  0  0  0  0  0  0  0  0  0  0
   41.6441  -35.9208   -6.2809 H   0  0  0  0  0  0  0  0  0  0  0  0
  1  2  1  0
  1 65  1  0
  2  3  1  0
  2  5  1  1
  3  4  2  0
  3 12  1  0
  5  6  1  0
  6  7  1  0
  7  8  1  0
  8  9  1  0
  9 10  2  0
  9 11  1  0
 12 13  1  0
 13 14  1  0
 13 16  1  1
 14 15  2  0
 14 23  1  0
 16 17  1  0
 17 18  1  0
 18 19  1  0
 19 20  1  0
 20 21  1  0
 20 22  2  0
 23 24  1  0
 24 25  1  0
 24 27  1  1
 25 26  2  0
 25 34  1  0
 27 28  1  0
 28 29  1  0
 29 30  1  0
 30 31  1  0
 31 32  1  0
 31 33  2  0
 34 35  1  0
 35 36  1  6
 35 38  1  0
 36 37  2  0
 36 43  1  0
 38 39  1  0
 39 40  1  0
 40 41  1  0
 41 42  1  0
 42 69  1  0
 43 44  1  0
 44 45  1  0
 44 47  1  6
 45 46  2  0
 45 54  1  0
 47 48  1  0
 48 49  1  0
 49 50  1  0
 50 51  1  0
 51 52  1  0
 51 53  2  0
 54 55  1  0
 55 56  1  0
 56 57  2  0
 56 64  1  0
 57 58  1  0
 58 59  2  0
 59 60  1  0
 59 63  1  0
 60 61  1  0
 60 62  2  0
 63 64  2  0
 65 66  1  0
 65 70  2  0
 66 67  1  0
 67 68  1  0
 68 69  1  0
 69 71  2  0
 10 72  1  0
 22 73  1  0
 33 74  1  0
 53 75  1  0
 62 76  1  0
M  END
$$$$
