
     RDKit          3D

 76 77  0  0  0  0  0  0  0  0999 V2000
   53.2136  -33.6058   -1.5925 N   0  0  0  0  0  0  0  0  0  0  0  0
   53.9255  -32.7991   -2.5464 C   0  0  2  0  0  0  0  0  0  0  0  0
   53.7926  -33.1931   -3.9603 C   0  0  0  0  0  0  0  0  0  0  0  0
   54.6677  -32.5553   -4.6843 O   0  0  0  0  0  0  0  0  0  0  0  0
   55.3476  -32.5555   -2.2016 C   0  0  0  0  0  0  0  0  0  0  0  0
   55.5332  -31.4574   -1.1744 C   0  0  0  0  0  0  0  0  0  0  0  0
   54.1983  -31.1859   -0.4758 C   0  0  0  0  0  0  0  0  0  0  0  0
   54.3243  -30.1766    0.5498 N   0  0  0  0  0  0  0  0  0  0  0  0
   53.7183  -28.9038    0.3770 C   0  0  0  0  0  0  0  0  0  0  0  0
   54.4934  -27.8724    0.5646 N   0  0  0  0  0  0  0  0  0  0  0  0
   52.3535  -28.7617    0.0231 N   0  0  0  0  0  0  0  0  0  0  0  0
   52.9448  -34.0678   -4.6195 N   0  0  0  0  0  0  0  0  0  0  0  0
   52.9073  -35.4848   -4.8618 C   0  0  2  0  0  0  0  0  0  0  0  0
   51.5395  -36.0485   -4.7270 C   0  0  0  0  0  0  0  0  0  0  0  0
   50.9704  -35.9063   -3.6115 O   0  0  0  0  0  0  0  0  0  0  0  0
   54.0486  -36.3060   -4.4886 C   0  0  0  0  0  0  0  0  0  0  0  0
   55.4246  -36.0719   -4.9441 C   0  0  0  0  0  0  0  0  0  0  0  0
   55.7093  -34.7606   -5.5702 C   0  0  0  0  0  0  0  0  0  0  0  0
   56.0090  -33.8363   -4.4512 N   0  0  0  0  0  0  0  0  0  0  0  0
   56.4182  -32.5159   -4.7400 C   0  0  0  0  0  0  0  0  0  0  0  0
   55.8453  -31.4722   -3.9733 N   0  0  0  0  0  0  0  0  0  0  0  0
   57.2926  -32.2789   -5.6783 N   0  0  0  0  0  0  0  0  0  0  0  0
   50.7974  -36.7248   -5.7127 N   0  0  0  0  0  0  0  0  0  0  0  0
   51.1915  -37.4126   -6.8720 C   0  0  2  0  0  0  0  0  0  0  0  0
   50.1613  -37.3353   -7.9813 C   0  0  0  0  0  0  0  0  0  0  0  0
   50.6073  -37.7609   -9.0917 O   0  0  0  0  0  0  0  0  0  0  0  0
   51.6945  -38.7947   -6.7169 C   0  0  0  0  0  0  0  0  0  0  0  0
   53.0477  -39.0206   -6.1769 C   0  0  0  0  0  0  0  0  0  0  0  0
   53.2567  -38.8330   -4.7194 C   0  0  0  0  0  0  0  0  0  0  0  0
   51.9557  -38.9688   -4.0380 N   0  0  0  0  0  0  0  0  0  0  0  0
   51.8752  -38.7553   -2.6338 C   0  0  0  0  0  0  0  0  0  0  0  0
   50.6734  -39.0268   -1.9486 N   0  0  0  0  0  0  0  0  0  0  0  0
   52.9177  -38.3092   -1.9856 N   0  0  0  0  0  0  0  0  0  0  0  0
   48.8610  -36.8780   -7.9166 N   0  0  0  0  0  0  0  0  0  0  0  0
   48.3071  -35.5818   -7.6475 C   0  0  2  0  0  0  0  0  0  0  0  0
   47.1166  -35.3467   -8.5427 C   0  0  0  0  0  0  0  0  0  0  0  0
   46.3922  -34.3585   -8.2852 O   0  0  0  0  0  0  0  0  0  0  0  0
   49.1985  -34.4097   -7.8055 C   0  0  0  0  0  0  0  0  0  0  0  0
   49.0992  -33.5730   -6.5444 C   0  0  0  0  0  0  0  0  0  0  0  0
   49.4833  -32.1356   -6.7502 C   0  0  0  0  0  0  0  0  0  0  0  0
   48.6774  -31.1964   -5.8799 C   0  0  0  0  0  0  0  0  0  0  0  0
   48.0211  -31.9133   -4.8043 N   0  0  0  0  0  0  0  0  0  0  0  0
   46.7945  -36.1724   -9.6271 N   0  0  0  0  0  0  0  0  0  0  0  0
   45.8722  -35.6837  -10.6717 C   0  0  2  0  0  0  0  0  0  0  0  0
   45.0836  -36.8633  -11.1783 C   0  0  0  0  0  0  0  0  0  0  0  0
   44.4206  -36.7146  -12.2597 O   0  0  0  0  0  0  0  0  0  0  0  0
   46.7410  -35.0501  -11.6905 C   0  0  0  0  0  0  0  0  0  0  0  0
   46.1283  -34.1372  -12.6796 C   0  0  0  0  0  0  0  0  0  0  0  0
   45.5714  -34.8044  -13.9123 C   0  0  0  0  0  0  0  0  0  0  0  0
   46.6798  -35.1269  -14.7689 N   0  0  0  0  0  0  0  0  0  0  0  0
   46.6382  -34.8128  -16.1493 C   0  0  0  0  0  0  0  0  0  0  0  0
   45.4576  -34.2623  -16.7555 N   0  0  0  0  0  0  0  0  0  0  0  0
   47.6417  -35.0057  -16.9025 N   0  0  0  0  0  0  0  0  0  0  0  0
   45.0323  -38.1136  -10.5440 N   0  0  0  0  0  0  0  0  0  0  0  0
   44.1280  -39.2051  -10.9190 C   0  0  0  0  0  0  0  0  0  0  0  0
   44.8952  -40.2771  -11.5753 C   0  0  0  0  0  0  0  0  0  0  0  0
   45.3771  -41.3352  -10.8039 C   0  0  0  0  0  0  0  0  0  0  0  0
   46.0821  -42.3446  -11.4055 C   0  0  0  0  0  0  0  0  0  0  0  0
   46.3415  -42.3608  -12.7682 C   0  0  0  0  0  0  0  0  0  0  0  0
   47.0977  -43.4474  -13.3655 C   0  0  0  0  0  0  0  0  0  0  0  0
   47.1824  -43.6017  -14.7602 N   0  0  0  0  0  0  0  0  0  0  0  0
   47.6933  -44.2813  -12.5958 N   0  0  0  0  0  0  0  0  0  0  0  0
   45.8548  -41.3048  -13.5092 C   0  0  0  0  0  0  0  0  0  0  0  0
   45.1318  -40.2596  -12.9259 C   0  0  0  0  0  0  0  0  0  0  0  0
   51.8491  -33.3820   -1.2633 C   0  0  0  0  0  0  0  0  0  0  0  0
   51.1726  -32.0693   -1.2824 C   0  0  0  0  0  0  0  0  0  0  0  0
   50.7823  -31.5605   -2.6319 C   0  0  0  0  0  0  0  0  0  0  0  0
   49.3268  -31.1723   -2.7295 C   0  0  0  0  0  0  0  0  0  0  0  0
   48.5597  -32.1666   -3.5354 C   0  0  0  0  0  0  0  0  0  0  0  0
   51.1790  -34.3941   -0.9303 O   0  0  0  0  0  0  0  0  0  0  0  0
   48.3997  -33.3208   -3.0045 O   0  0  0  0  0  0  0  0  0  0  0  0
   55.5266  -28.0516    0.7212 H   0  0  0  0  0  0  0  0  0  0  0  0
   58.2441  -32.6401   -5.6190 H   0  0  0  0  0  0  0  0  0  0  0  0
   52.8201  -37.7441   -1.1165 H   0  0  0  0  0  0  0  0  0  0  0  0
   47.6735  -35.0728  -17.9267 H   0  0  0  0  0  0  0  0  0  0  0  0
   47.4421  -44.4512  -11.5999 H   0  0  0  0  0  0  0  0  0  0  0  0
  1  2  1  0
  1 65  1  0
  2  3  1  0
  2  5  1  1
  3  4  2  0
  3 12  1  0
  5  6  1  0
  6  7  1  0
  7  8  1  0
  8  9  1  0
  9 10  2  0
  9 11  1  0
 12 13  1  0
 13 14  1  0
 13 16  1  1
 14 15  2  0
 14 23  1  0
 16 17  1  0
 17 18  1  0
 18 19  1  0
 19 20  1  0
 20 21  1  0
 20 22  2  0
 23 24  1  0
 24 25  1  0
 24 27  1  1
 25 26  2  0
 25 34  1  0
 27 28  1  0
 28 29  1  0
 29 30  1  0
 30 31  1  0
 31 32  1  0
 31 33  2  0
 34 35  1  0
 35 36  1  6
 35 38  1  0
 36 37  2  0
 36 43  1  0
 38 39  1  0
 39 40  1  0
 40 41  1  0
 41 42  1  0
 42 69  1  0
 43 44  1  0
 44 45  1  0
 44 47  1  6
 45 46  2  0
 45 54  1  0
 47 48  1  0
 48 49  1  0
 49 50  1  0
 50 51  1  0
 51 52  1  0
 51 53  2  0
 54 55  1  0
 55 56  1  0
 56 57  2  0
 56 64  1  0
 57 58  1  0
 58 59  2  0
 59 60  1  0
 59 63  1  0
 60 61  1  0
 60 62  2  0
 63 64  2  0
 65 66  1  0
 65 70  2  0
 66 67  1  0
 67 68  1  0
 68 69  1  0
 69 71  2  0
 10 72  1  0
 22 73  1  0
 33 74  1  0
 53 75  1  0
 62 76  1  0
M  END
$$$$
