
     RDKit          3D

 76 77  0  0  0  0  0  0  0  0999 V2000
   55.0139  -33.5459   -6.1197 N   0  0  0  0  0  0  0  0  0  0  0  0
   54.2068  -33.5583   -4.9297 C   0  0  2  0  0  0  0  0  0  0  0  0
   52.7617  -33.7714   -5.1254 C   0  0  0  0  0  0  0  0  0  0  0  0
   52.1202  -33.5132   -4.0214 O   0  0  0  0  0  0  0  0  0  0  0  0
   54.4492  -32.4168   -4.0139 C   0  0  0  0  0  0  0  0  0  0  0  0
   55.2802  -32.7889   -2.8031 C   0  0  0  0  0  0  0  0  0  0  0  0
   55.4750  -34.3069   -2.7690 C   0  0  0  0  0  0  0  0  0  0  0  0
   54.4890  -34.9565   -1.9369 N   0  0  0  0  0  0  0  0  0  0  0  0
   54.2553  -34.4948   -0.6143 C   0  0  0  0  0  0  0  0  0  0  0  0
   54.7444  -35.2328    0.3427 N   0  0  0  0  0  0  0  0  0  0  0  0
   53.5334  -33.3045   -0.3489 N   0  0  0  0  0  0  0  0  0  0  0  0
   52.0078  -34.1809   -6.2127 N   0  0  0  0  0  0  0  0  0  0  0  0
   51.4455  -33.5502   -7.3764 C   0  0  2  0  0  0  0  0  0  0  0  0
   51.5861  -34.3834   -8.5983 C   0  0  0  0  0  0  0  0  0  0  0  0
   52.7568  -34.6948   -8.9457 O   0  0  0  0  0  0  0  0  0  0  0  0
   51.4950  -32.1017   -7.5008 C   0  0  0  0  0  0  0  0  0  0  0  0
   50.9513  -31.1639   -6.5104 C   0  0  0  0  0  0  0  0  0  0  0  0
   50.5273  -31.7331   -5.2109 C   0  0  0  0  0  0  0  0  0  0  0  0
   49.1524  -32.2436   -5.4237 N   0  0  0  0  0  0  0  0  0  0  0  0
   48.5279  -32.9870   -4.3982 C   0  0  0  0  0  0  0  0  0  0  0  0
   49.2115  -34.1264   -3.9085 N   0  0  0  0  0  0  0  0  0  0  0  0
   47.3663  -32.6273   -3.9266 N   0  0  0  0  0  0  0  0  0  0  0  0
   50.5521  -34.8735   -9.4170 N   0  0  0  0  0  0  0  0  0  0  0  0
   49.2294  -34.4432   -9.6109 C   0  0  2  0  0  0  0  0  0  0  0  0
   48.2824  -35.5804   -9.9396 C   0  0  0  0  0  0  0  0  0  0  0  0
   47.0631  -35.2281   -9.8946 O   0  0  0  0  0  0  0  0  0  0  0  0
   49.0031  -33.2930  -10.5127 C   0  0  0  0  0  0  0  0  0  0  0  0
   49.9286  -33.0551  -11.6354 C   0  0  0  0  0  0  0  0  0  0  0  0
   51.3845  -33.1886  -11.3787 C   0  0  0  0  0  0  0  0  0  0  0  0
   51.6549  -34.5629  -10.9166 N   0  0  0  0  0  0  0  0  0  0  0  0
   52.9940  -34.9597  -10.6461 C   0  0  0  0  0  0  0  0  0  0  0  0
   53.7847  -35.5138  -11.6734 N   0  0  0  0  0  0  0  0  0  0  0  0
   53.4849  -34.8071   -9.4454 N   0  0  0  0  0  0  0  0  0  0  0  0
   48.5875  -36.8858  -10.2662 N   0  0  0  0  0  0  0  0  0  0  0  0
   49.2089  -37.9453   -9.5240 C   0  0  2  0  0  0  0  0  0  0  0  0
   48.5226  -39.2507   -9.8384 C   0  0  0  0  0  0  0  0  0  0  0  0
   49.1178  -40.3036   -9.5146 O   0  0  0  0  0  0  0  0  0  0  0  0
   49.2380  -37.8224   -8.0484 C   0  0  0  0  0  0  0  0  0  0  0  0
   50.6634  -38.0593   -7.5872 C   0  0  0  0  0  0  0  0  0  0  0  0
   50.7613  -38.5050   -6.1563 C   0  0  0  0  0  0  0  0  0  0  0  0
   51.9063  -39.4681   -5.9327 C   0  0  0  0  0  0  0  0  0  0  0  0
   52.8464  -39.4285   -7.0356 N   0  0  0  0  0  0  0  0  0  0  0  0
   47.2730  -39.3314  -10.4657 N   0  0  0  0  0  0  0  0  0  0  0  0
   46.5194  -38.0960  -10.7595 C   0  0  2  0  0  0  0  0  0  0  0  0
   45.1669  -38.4965  -11.2890 C   0  0  0  0  0  0  0  0  0  0  0  0
   45.1317  -39.2634  -12.3096 O   0  0  0  0  0  0  0  0  0  0  0  0
   47.3565  -37.3526  -11.7295 C   0  0  0  0  0  0  0  0  0  0  0  0
   46.7861  -36.1619  -12.3958 C   0  0  0  0  0  0  0  0  0  0  0  0
   45.3397  -35.8773  -12.0767 C   0  0  0  0  0  0  0  0  0  0  0  0
   45.3116  -34.8503  -11.0714 N   0  0  0  0  0  0  0  0  0  0  0  0
   45.9112  -33.5901  -11.3125 C   0  0  0  0  0  0  0  0  0  0  0  0
   46.6369  -32.8983  -10.2835 N   0  0  0  0  0  0  0  0  0  0  0  0
   45.8301  -33.0245  -12.4462 N   0  0  0  0  0  0  0  0  0  0  0  0
   43.9454  -38.0865  -10.7339 N   0  0  0  0  0  0  0  0  0  0  0  0
   43.7762  -37.5759   -9.3700 C   0  0  0  0  0  0  0  0  0  0  0  0
   43.6759  -38.7051   -8.4301 C   0  0  0  0  0  0  0  0  0  0  0  0
   43.2255  -38.4674   -7.1311 C   0  0  0  0  0  0  0  0  0  0  0  0
   43.1167  -39.5123   -6.2511 C   0  0  0  0  0  0  0  0  0  0  0  0
   43.4397  -40.8154   -6.6004 C   0  0  0  0  0  0  0  0  0  0  0  0
   43.3153  -41.8936   -5.6353 C   0  0  0  0  0  0  0  0  0  0  0  0
   43.3870  -43.2413   -6.0285 N   0  0  0  0  0  0  0  0  0  0  0  0
   43.1317  -41.5997   -4.4014 N   0  0  0  0  0  0  0  0  0  0  0  0
   43.8821  -41.0250   -7.8894 C   0  0  0  0  0  0  0  0  0  0  0  0
   44.0039  -39.9808   -8.8114 C   0  0  0  0  0  0  0  0  0  0  0  0
   55.5266  -34.7316   -6.7128 C   0  0  0  0  0  0  0  0  0  0  0  0
   55.8860  -35.9632   -5.9813 C   0  0  0  0  0  0  0  0  0  0  0  0
   54.7415  -36.8326   -5.5735 C   0  0  0  0  0  0  0  0  0  0  0  0
   54.8895  -38.2678   -6.0174 C   0  0  0  0  0  0  0  0  0  0  0  0
   53.9575  -38.5806   -7.1398 C   0  0  0  0  0  0  0  0  0  0  0  0
   55.6810  -34.7125   -7.9619 O   0  0  0  0  0  0  0  0  0  0  0  0
   54.2169  -38.0209   -8.2618 O   0  0  0  0  0  0  0  0  0  0  0  0
   55.5004  -35.9324    0.0912 H   0  0  0  0  0  0  0  0  0  0  0  0
   46.4985  -32.9470   -4.3556 H   0  0  0  0  0  0  0  0  0  0  0  0
   53.5529  -33.8695   -8.9980 H   0  0  0  0  0  0  0  0  0  0  0  0
   45.0220  -32.5590  -12.8762 H   0  0  0  0  0  0  0  0  0  0  0  0
   43.3732  -42.2220   -3.6025 H   0  0  0  0  0  0  0  0  0  0  0  0
  1  2  1  0
  1 65  1  0
  2  3  1  0
  2  5  1  6
  3  4  2  0
  3 12  1  0
  5  6  1  0
  6  7  1  0
  7  8  1  0
  8  9  1  0
  9 10  2  0
  9 11  1  0
 12 13  1  0
 13 14  1  0
 13 16  1  6
 14 15  2  0
 14 23  1  0
 16 17  1  0
 17 18  1  0
 18 19  1  0
 19 20  1  0
 20 21  1  0
 20 22  2  0
 23 24  1  0
 24 25  1  0
 24 27  1  6
 25 26  2  0
 25 34  1  0
 27 28  1  0
 28 29  1  0
 29 30  1  0
 30 31  1  0
 31 32  1  0
 31 33  2  0
 34 35  1  0
 35 36  1  1
 35 38  1  0
 36 37  2  0
 36 43  1  0
 38 39  1  0
 39 40  1  0
 40 41  1  0
 41 42  1  0
 42 69  1  0
 43 44  1  0
 44 45  1  0
 44 47  1  6
 45 46  2  0
 45 54  1  0
 47 48  1  0
 48 49  1  0
 49 50  1  0
 50 51  1  0
 51 52  1  0
 51 53  2  0
 54 55  1  0
 55 56  1  0
 56 57  2  0
 56 64  1  0
 57 58  1  0
 58 59  2  0
 59 60  1  0
 59 63  1  0
 60 61  1  0
 60 62  2  0
 63 64  2  0
 65 66  1  0
 65 70  2  0
 66 67  1  0
 67 68  1  0
 68 69  1  0
 69 71  2  0
 10 72  1  0
 22 73  1  0
 33 74  1  0
 53 75  1  0
 62 76  1  0
M  END
$$$$
