
     RDKit          3D

 76 77  0  0  0  0  0  0  0  0999 V2000
   51.6221  -33.6978   -4.0024 N   0  0  0  0  0  0  0  0  0  0  0  0
   50.1649  -33.4980   -4.0011 C   0  0  2  0  0  0  0  0  0  0  0  0
   49.7157  -32.9340   -5.2934 C   0  0  0  0  0  0  0  0  0  0  0  0
   50.1162  -31.7200   -5.4772 O   0  0  0  0  0  0  0  0  0  0  0  0
   49.9224  -32.5325   -2.8676 C   0  0  0  0  0  0  0  0  0  0  0  0
   50.4240  -32.8861   -1.5311 C   0  0  0  0  0  0  0  0  0  0  0  0
   49.8941  -34.0982   -0.8666 C   0  0  0  0  0  0  0  0  0  0  0  0
   50.9889  -34.9807   -0.4080 N   0  0  0  0  0  0  0  0  0  0  0  0
   52.2625  -34.4719   -0.0202 C   0  0  0  0  0  0  0  0  0  0  0  0
   52.2723  -33.6255    0.9713 N   0  0  0  0  0  0  0  0  0  0  0  0
   53.4627  -34.8527   -0.6682 N   0  0  0  0  0  0  0  0  0  0  0  0
   48.9367  -33.5876   -6.2641 N   0  0  0  0  0  0  0  0  0  0  0  0
   49.0864  -34.9528   -6.7586 C   0  0  2  0  0  0  0  0  0  0  0  0
   48.9800  -34.8905   -8.2365 C   0  0  0  0  0  0  0  0  0  0  0  0
   49.6772  -33.9196   -8.7348 O   0  0  0  0  0  0  0  0  0  0  0  0
   48.1230  -35.8697   -6.0809 C   0  0  0  0  0  0  0  0  0  0  0  0
   47.7799  -37.1197   -6.8244 C   0  0  0  0  0  0  0  0  0  0  0  0
   47.6441  -38.2550   -5.8355 C   0  0  0  0  0  0  0  0  0  0  0  0
   46.7301  -37.9919   -4.7638 N   0  0  0  0  0  0  0  0  0  0  0  0
   45.3724  -38.3722   -4.9126 C   0  0  0  0  0  0  0  0  0  0  0  0
   44.8200  -38.7699   -6.1512 N   0  0  0  0  0  0  0  0  0  0  0  0
   44.5509  -38.3760   -3.8945 N   0  0  0  0  0  0  0  0  0  0  0  0
   48.2866  -35.6639   -9.1446 N   0  0  0  0  0  0  0  0  0  0  0  0
   48.3043  -37.0724   -9.4222 C   0  0  2  0  0  0  0  0  0  0  0  0
   49.6643  -37.6602   -9.4507 C   0  0  0  0  0  0  0  0  0  0  0  0
   50.2419  -37.5667   -8.2993 O   0  0  0  0  0  0  0  0  0  0  0  0
   47.4877  -37.3967  -10.6709 C   0  0  0  0  0  0  0  0  0  0  0  0
   46.7411  -36.2418  -11.2265 C   0  0  0  0  0  0  0  0  0  0  0  0
   47.4386  -34.9833  -10.6882 C   0  0  0  0  0  0  0  0  0  0  0  0
   48.6888  -34.7663  -11.3888 N   0  0  0  0  0  0  0  0  0  0  0  0
   48.9991  -35.6221  -12.4817 C   0  0  0  0  0  0  0  0  0  0  0  0
   50.3611  -35.9547  -12.7249 N   0  0  0  0  0  0  0  0  0  0  0  0
   48.1116  -36.1092  -13.2571 N   0  0  0  0  0  0  0  0  0  0  0  0
   50.3642  -38.2595  -10.4657 N   0  0  0  0  0  0  0  0  0  0  0  0
   50.7653  -37.7550  -11.7639 C   0  0  2  0  0  0  0  0  0  0  0  0
   51.3852  -38.8398  -12.5768 C   0  0  0  0  0  0  0  0  0  0  0  0
   52.6072  -39.0921  -12.3592 O   0  0  0  0  0  0  0  0  0  0  0  0
   51.5754  -36.5057  -11.7293 C   0  0  0  0  0  0  0  0  0  0  0  0
   52.8698  -36.6181  -10.9655 C   0  0  0  0  0  0  0  0  0  0  0  0
   53.6837  -35.3603  -11.1405 C   0  0  0  0  0  0  0  0  0  0  0  0
   54.4571  -34.9734   -9.9343 C   0  0  0  0  0  0  0  0  0  0  0  0
   54.9443  -36.1258   -9.1770 N   0  0  0  0  0  0  0  0  0  0  0  0
   50.6922  -39.5951  -13.5715 N   0  0  0  0  0  0  0  0  0  0  0  0
   49.5939  -40.3892  -13.1267 C   0  0  2  0  0  0  0  0  0  0  0  0
   48.3588  -39.5035  -13.1096 C   0  0  0  0  0  0  0  0  0  0  0  0
   48.3307  -38.5085  -13.8463 O   0  0  0  0  0  0  0  0  0  0  0  0
   49.7721  -41.0382  -11.8110 C   0  0  0  0  0  0  0  0  0  0  0  0
   49.7307  -42.4947  -11.6677 C   0  0  0  0  0  0  0  0  0  0  0  0
   49.9218  -43.1441  -10.3629 C   0  0  0  0  0  0  0  0  0  0  0  0
   50.4943  -44.4873  -10.6585 N   0  0  0  0  0  0  0  0  0  0  0  0
   51.0975  -45.2388   -9.6178 C   0  0  0  0  0  0  0  0  0  0  0  0
   51.6316  -46.5320   -9.8425 N   0  0  0  0  0  0  0  0  0  0  0  0
   51.1653  -44.7341   -8.4258 N   0  0  0  0  0  0  0  0  0  0  0  0
   47.2770  -39.8185  -12.2705 N   0  0  0  0  0  0  0  0  0  0  0  0
   45.9940  -39.1226  -12.2755 C   0  0  0  0  0  0  0  0  0  0  0  0
   46.1281  -37.7045  -12.6742 C   0  0  0  0  0  0  0  0  0  0  0  0
   47.3886  -37.1114  -12.7505 C   0  0  0  0  0  0  0  0  0  0  0  0
   47.5329  -35.7978  -13.1169 C   0  0  0  0  0  0  0  0  0  0  0  0
   46.4408  -34.9954  -13.4294 C   0  0  0  0  0  0  0  0  0  0  0  0
   46.6632  -33.6094  -13.8108 C   0  0  0  0  0  0  0  0  0  0  0  0
   45.6495  -32.6559  -13.5906 N   0  0  0  0  0  0  0  0  0  0  0  0
   47.7654  -33.2460  -14.3402 N   0  0  0  0  0  0  0  0  0  0  0  0
   45.1929  -35.5771  -13.3556 C   0  0  0  0  0  0  0  0  0  0  0  0
   45.0454  -36.9152  -12.9817 C   0  0  0  0  0  0  0  0  0  0  0  0
   52.5472  -33.2533   -4.9395 C   0  0  0  0  0  0  0  0  0  0  0  0
   52.5943  -33.5810   -6.3867 C   0  0  0  0  0  0  0  0  0  0  0  0
   53.1437  -35.0014   -6.5957 C   0  0  0  0  0  0  0  0  0  0  0  0
   54.6106  -34.9671   -6.9279 C   0  0  0  0  0  0  0  0  0  0  0  0
   55.0505  -36.0979   -7.7606 C   0  0  0  0  0  0  0  0  0  0  0  0
   53.4848  -32.4651   -4.5347 O   0  0  0  0  0  0  0  0  0  0  0  0
   55.5529  -37.1068   -7.1983 O   0  0  0  0  0  0  0  0  0  0  0  0
   52.2578  -33.8713    1.9611 H   0  0  0  0  0  0  0  0  0  0  0  0
   44.5032  -39.1238   -3.1883 H   0  0  0  0  0  0  0  0  0  0  0  0
   47.1697  -35.6694  -13.2799 H   0  0  0  0  0  0  0  0  0  0  0  0
   50.7419  -43.8095   -8.1868 H   0  0  0  0  0  0  0  0  0  0  0  0
   48.6699  -33.6891  -14.0426 H   0  0  0  0  0  0  0  0  0  0  0  0
  2  1  1  6
  1 65  1  0
  2  3  1  0
  5  2  1  1
  3  4  2  0
  3 12  1  0
  5  6  1  0
  6  7  1  6
  7  8  1  6
  8  9  1  0
  9 10  2  0
  9 11  1  0
 13 12  1  1
 13 14  1  0
 16 13  1  1
 14 15  2  0
 14 23  1  0
 16 17  1  0
 17 18  1  6
 18 19  1  6
 19 20  1  0
 20 21  1  0
 20 22  2  0
 24 23  1  6
 24 25  1  0
 27 24  1  1
 25 26  2  0
 25 34  1  0
 27 28  1  0
 28 29  1  6
 29 30  1  6
 30 31  1  0
 31 32  1  0
 31 33  2  0
 34 35  1  0
 35 36  1  1
 38 35  1  1
 36 37  2  0
 36 43  1  0
 39 38  1  1
 39 40  1  0
 40 41  1  6
 41 42  1  6
 42 69  1  0
 44 43  1  1
 44 45  1  0
 47 44  1  1
 45 46  2  0
 45 54  1  0
 47 48  1  0
 48 49  1  6
 49 50  1  6
 50 51  1  0
 51 52  1  0
 51 53  2  0
 55 54  1  1
 55 56  1  0
 56 57  2  0
 56 64  1  0
 57 58  1  0
 58 59  2  0
 59 60  1  0
 59 63  1  0
 60 61  1  0
 60 62  2  0
 63 64  2  0
 66 65  1  1
 65 70  2  0
 67 66  1  1
 67 68  1  0
 68 69  1  6
 69 71  2  0
 10 72  1  0
 22 73  1  0
 33 74  1  0
 53 75  1  0
 62 76  1  0
M  END
$$$$
