
     RDKit          3D

 76 77  0  0  0  0  0  0  0  0999 V2000
   55.0581  -34.0054   -6.1188 N   0  0  0  0  0  0  0  0  0  0  0  0
   54.9400  -35.3691   -5.6784 C   0  0  2  0  0  0  0  0  0  0  0  0
   53.5780  -35.9318   -5.6602 C   0  0  0  0  0  0  0  0  0  0  0  0
   53.5726  -37.0637   -5.0156 O   0  0  0  0  0  0  0  0  0  0  0  0
   55.6466  -35.6652   -4.4080 C   0  0  0  0  0  0  0  0  0  0  0  0
   56.0490  -34.4201   -3.6445 C   0  0  0  0  0  0  0  0  0  0  0  0
   55.0568  -34.1825   -2.5032 C   0  0  0  0  0  0  0  0  0  0  0  0
   55.4353  -33.0509   -1.6892 N   0  0  0  0  0  0  0  0  0  0  0  0
   54.5620  -32.5781   -0.6737 C   0  0  0  0  0  0  0  0  0  0  0  0
   54.5411  -31.2870   -0.4945 N   0  0  0  0  0  0  0  0  0  0  0  0
   53.7619  -33.4556    0.0996 N   0  0  0  0  0  0  0  0  0  0  0  0
   52.3714  -35.4974   -6.1836 N   0  0  0  0  0  0  0  0  0  0  0  0
   51.3357  -34.5873   -5.7748 C   0  0  2  0  0  0  0  0  0  0  0  0
   50.8244  -33.7651   -6.9015 C   0  0  0  0  0  0  0  0  0  0  0  0
   51.6598  -33.0388   -7.5038 O   0  0  0  0  0  0  0  0  0  0  0  0
   51.3758  -34.0087   -4.4407 C   0  0  0  0  0  0  0  0  0  0  0  0
   51.1711  -34.7670   -3.2001 C   0  0  0  0  0  0  0  0  0  0  0  0
   51.6340  -36.1734   -3.1902 C   0  0  0  0  0  0  0  0  0  0  0  0
   50.4793  -36.9811   -3.6492 N   0  0  0  0  0  0  0  0  0  0  0  0
   49.6866  -37.6536   -2.6934 C   0  0  0  0  0  0  0  0  0  0  0  0
   48.5953  -36.9448   -2.1347 N   0  0  0  0  0  0  0  0  0  0  0  0
   49.9577  -38.8816   -2.3473 N   0  0  0  0  0  0  0  0  0  0  0  0
   49.5029  -33.7076   -7.3810 N   0  0  0  0  0  0  0  0  0  0  0  0
   48.2740  -34.0150   -6.7746 C   0  0  2  0  0  0  0  0  0  0  0  0
   47.2430  -34.5281   -7.7604 C   0  0  0  0  0  0  0  0  0  0  0  0
   46.2183  -35.0119   -7.1870 O   0  0  0  0  0  0  0  0  0  0  0  0
   47.6801  -33.0076   -5.8692 C   0  0  0  0  0  0  0  0  0  0  0  0
   47.8176  -33.1690   -4.4102 C   0  0  0  0  0  0  0  0  0  0  0  0
   47.7628  -34.5436   -3.8529 C   0  0  0  0  0  0  0  0  0  0  0  0
   48.3989  -34.5357   -2.5223 N   0  0  0  0  0  0  0  0  0  0  0  0
   49.3066  -33.4930   -2.1865 C   0  0  0  0  0  0  0  0  0  0  0  0
   50.6273  -33.8057   -1.8051 N   0  0  0  0  0  0  0  0  0  0  0  0
   48.9110  -32.2492   -2.2347 N   0  0  0  0  0  0  0  0  0  0  0  0
   47.2957  -34.5245   -9.1393 N   0  0  0  0  0  0  0  0  0  0  0  0
   48.1585  -35.1903  -10.0728 C   0  0  2  0  0  0  0  0  0  0  0  0
   47.3547  -35.6490  -11.2634 C   0  0  0  0  0  0  0  0  0  0  0  0
   47.3305  -34.8958  -12.2633 O   0  0  0  0  0  0  0  0  0  0  0  0
   48.9138  -36.3683   -9.5878 C   0  0  0  0  0  0  0  0  0  0  0  0
   50.3710  -36.1763   -9.9620 C   0  0  0  0  0  0  0  0  0  0  0  0
   51.1414  -37.4633  -10.0407 C   0  0  0  0  0  0  0  0  0  0  0  0
   52.2089  -37.4280  -11.1121 C   0  0  0  0  0  0  0  0  0  0  0  0
   52.4866  -36.0677  -11.5296 N   0  0  0  0  0  0  0  0  0  0  0  0
   46.6479  -36.8577  -11.2948 N   0  0  0  0  0  0  0  0  0  0  0  0
   46.6143  -37.7184  -10.0954 C   0  0  2  0  0  0  0  0  0  0  0  0
   46.9897  -39.1144  -10.5198 C   0  0  0  0  0  0  0  0  0  0  0  0
   46.5750  -40.0855   -9.8014 O   0  0  0  0  0  0  0  0  0  0  0  0
   45.2362  -37.5932   -9.5669 C   0  0  0  0  0  0  0  0  0  0  0  0
   44.9102  -38.2294   -8.2722 C   0  0  0  0  0  0  0  0  0  0  0  0
   43.4418  -38.2791   -7.9315 C   0  0  0  0  0  0  0  0  0  0  0  0
   42.8911  -39.4505   -8.5565 N   0  0  0  0  0  0  0  0  0  0  0  0
   41.5500  -39.8343   -8.3116 C   0  0  0  0  0  0  0  0  0  0  0  0
   40.9620  -39.7061   -7.0070 N   0  0  0  0  0  0  0  0  0  0  0  0
   40.8174  -40.3060   -9.2349 N   0  0  0  0  0  0  0  0  0  0  0  0
   47.7604  -39.4183  -11.6520 N   0  0  0  0  0  0  0  0  0  0  0  0
   49.1421  -39.9073  -11.6164 C   0  0  0  0  0  0  0  0  0  0  0  0
   50.0694  -38.7771  -11.7937 C   0  0  0  0  0  0  0  0  0  0  0  0
   51.4072  -38.9348  -11.4298 C   0  0  0  0  0  0  0  0  0  0  0  0
   52.2820  -37.8940  -11.6012 C   0  0  0  0  0  0  0  0  0  0  0  0
   51.8899  -36.6722  -12.1285 C   0  0  0  0  0  0  0  0  0  0  0  0
   52.8482  -35.5927  -12.2886 C   0  0  0  0  0  0  0  0  0  0  0  0
   54.2330  -35.8276  -12.2339 N   0  0  0  0  0  0  0  0  0  0  0  0
   52.4118  -34.4027  -12.4787 N   0  0  0  0  0  0  0  0  0  0  0  0
   50.5634  -36.5408  -12.4808 C   0  0  0  0  0  0  0  0  0  0  0  0
   49.6456  -37.5834  -12.3189 C   0  0  0  0  0  0  0  0  0  0  0  0
   55.1653  -33.6475   -7.4903 C   0  0  0  0  0  0  0  0  0  0  0  0
   55.7881  -34.4777   -8.5410 C   0  0  0  0  0  0  0  0  0  0  0  0
   54.9577  -35.6111   -9.0492 C   0  0  0  0  0  0  0  0  0  0  0  0
   54.8110  -35.6218  -10.5515 C   0  0  0  0  0  0  0  0  0  0  0  0
   53.4360  -35.2093  -10.9588 C   0  0  0  0  0  0  0  0  0  0  0  0
   54.6867  -32.5302   -7.8175 O   0  0  0  0  0  0  0  0  0  0  0  0
   53.1329  -33.9812  -10.7602 O   0  0  0  0  0  0  0  0  0  0  0  0
   54.1193  -30.9190    0.4061 H   0  0  0  0  0  0  0  0  0  0  0  0
   50.4596  -39.5099   -2.9740 H   0  0  0  0  0  0  0  0  0  0  0  0
   47.9717  -31.9883   -2.6004 H   0  0  0  0  0  0  0  0  0  0  0  0
   40.1506  -41.0857   -9.1916 H   0  0  0  0  0  0  0  0  0  0  0  0
   51.5486  -34.0128  -12.0468 H   0  0  0  0  0  0  0  0  0  0  0  0
  1  2  1  0
  1 65  1  0
  2  3  1  0
  2  5  1  1
  3  4  2  0
  3 12  1  0
  5  6  1  0
  6  7  1  0
  7  8  1  0
  8  9  1  0
  9 10  2  0
  9 11  1  0
 12 13  1  0
 13 14  1  0
 13 16  1  1
 14 15  2  0
 14 23  1  0
 16 17  1  0
 17 18  1  0
 18 19  1  0
 19 20  1  0
 20 21  1  0
 20 22  2  0
 23 24  1  0
 24 25  1  0
 24 27  1  6
 25 26  2  0
 25 34  1  0
 27 28  1  0
 28 29  1  0
 29 30  1  0
 30 31  1  0
 31 32  1  0
 31 33  2  0
 34 35  1  0
 35 36  1  6
 35 38  1  0
 36 37  2  0
 36 43  1  0
 38 39  1  0
 39 40  1  0
 40 41  1  0
 41 42  1  0
 42 69  1  0
 43 44  1  0
 44 45  1  0
 44 47  1  6
 45 46  2  0
 45 54  1  0
 47 48  1  0
 48 49  1  0
 49 50  1  0
 50 51  1  0
 51 52  1  0
 51 53  2  0
 54 55  1  0
 55 56  1  0
 56 57  2  0
 56 64  1  0
 57 58  1  0
 58 59  2  0
 59 60  1  0
 59 63  1  0
 60 61  1  0
 60 62  2  0
 63 64  2  0
 65 66  1  0
 65 70  2  0
 66 67  1  0
 67 68  1  0
 68 69  1  0
 69 71  2  0
 10 72  1  0
 22 73  1  0
 33 74  1  0
 53 75  1  0
 62 76  1  0
M  END
$$$$
