
     RDKit          3D

 76 77  0  0  0  0  0  0  0  0999 V2000
   44.6167  -37.0878   -3.9322 N   0  0  0  0  0  0  0  0  0  0  0  0
   43.6461  -37.5736   -4.9249 C   0  0  2  0  0  0  0  0  0  0  0  0
   43.7077  -36.7557   -6.1565 C   0  0  0  0  0  0  0  0  0  0  0  0
   43.2766  -35.5509   -5.9808 O   0  0  0  0  0  0  0  0  0  0  0  0
   42.3097  -37.4324   -4.2392 C   0  0  0  0  0  0  0  0  0  0  0  0
   42.2383  -37.6856   -2.7924 C   0  0  0  0  0  0  0  0  0  0  0  0
   43.1200  -38.7184   -2.2032 C   0  0  0  0  0  0  0  0  0  0  0  0
   43.8128  -38.2095   -0.9995 N   0  0  0  0  0  0  0  0  0  0  0  0
   45.0203  -37.4568   -1.0796 C   0  0  0  0  0  0  0  0  0  0  0  0
   45.9199  -37.8897   -1.9181 N   0  0  0  0  0  0  0  0  0  0  0  0
   45.2484  -36.2997   -0.2957 N   0  0  0  0  0  0  0  0  0  0  0  0
   44.1717  -37.1755   -7.4155 N   0  0  0  0  0  0  0  0  0  0  0  0
   45.3706  -37.9538   -7.7115 C   0  0  2  0  0  0  0  0  0  0  0  0
   46.0417  -37.2936   -8.8574 C   0  0  0  0  0  0  0  0  0  0  0  0
   46.0988  -36.0079   -8.7139 O   0  0  0  0  0  0  0  0  0  0  0  0
   45.0316  -39.3946   -7.9056 C   0  0  0  0  0  0  0  0  0  0  0  0
   44.1841  -39.7100   -9.0951 C   0  0  0  0  0  0  0  0  0  0  0  0
   43.4216  -38.4676   -9.4954 C   0  0  0  0  0  0  0  0  0  0  0  0
   44.2423  -37.3048   -9.6610 N   0  0  0  0  0  0  0  0  0  0  0  0
   44.2239  -36.6251  -10.9051 C   0  0  0  0  0  0  0  0  0  0  0  0
   45.1190  -36.9275  -11.9561 N   0  0  0  0  0  0  0  0  0  0  0  0
   43.3628  -35.6703  -11.1467 N   0  0  0  0  0  0  0  0  0  0  0  0
   46.5975  -37.7971  -10.0155 N   0  0  0  0  0  0  0  0  0  0  0  0
   47.6337  -38.7639  -10.2455 C   0  0  2  0  0  0  0  0  0  0  0  0
   48.8047  -38.6113   -9.3504 C   0  0  0  0  0  0  0  0  0  0  0  0
   48.4800  -38.7973   -8.1142 O   0  0  0  0  0  0  0  0  0  0  0  0
   48.0151  -38.8197  -11.7229 C   0  0  0  0  0  0  0  0  0  0  0  0
   49.1788  -37.9737  -12.0832 C   0  0  0  0  0  0  0  0  0  0  0  0
   49.3663  -36.9874  -10.9205 C   0  0  0  0  0  0  0  0  0  0  0  0
   49.2933  -37.6883   -9.6538 N   0  0  0  0  0  0  0  0  0  0  0  0
   48.0272  -37.7770   -9.0118 C   0  0  0  0  0  0  0  0  0  0  0  0
   47.6233  -39.0274   -8.4655 N   0  0  0  0  0  0  0  0  0  0  0  0
   47.2332  -36.7855   -8.9003 N   0  0  0  0  0  0  0  0  0  0  0  0
   50.1154  -38.3186   -9.6256 N   0  0  0  0  0  0  0  0  0  0  0  0
   50.7102  -37.1703  -10.2802 C   0  0  2  0  0  0  0  0  0  0  0  0
   52.1726  -37.3814  -10.4773 C   0  0  0  0  0  0  0  0  0  0  0  0
   52.7187  -38.2911   -9.7855 O   0  0  0  0  0  0  0  0  0  0  0  0
   50.3805  -35.8552   -9.6637 C   0  0  0  0  0  0  0  0  0  0  0  0
   50.8024  -35.7138   -8.2238 C   0  0  0  0  0  0  0  0  0  0  0  0
   50.5790  -34.2970   -7.7569 C   0  0  0  0  0  0  0  0  0  0  0  0
   50.1556  -34.1925   -6.3382 C   0  0  0  0  0  0  0  0  0  0  0  0
   50.7634  -35.2142   -5.4863 N   0  0  0  0  0  0  0  0  0  0  0  0
   52.9788  -36.6272  -11.3835 N   0  0  0  0  0  0  0  0  0  0  0  0
   54.3900  -36.6752  -11.1813 C   0  0  2  0  0  0  0  0  0  0  0  0
   55.0527  -36.0209  -12.3825 C   0  0  0  0  0  0  0  0  0  0  0  0
   54.8462  -36.4961  -13.5073 O   0  0  0  0  0  0  0  0  0  0  0  0
   54.9540  -38.0234  -10.9614 C   0  0  0  0  0  0  0  0  0  0  0  0
   56.3835  -38.2208  -10.7143 C   0  0  0  0  0  0  0  0  0  0  0  0
   56.9290  -39.5424  -10.3736 C   0  0  0  0  0  0  0  0  0  0  0  0
   56.0043  -40.5342  -10.9906 N   0  0  0  0  0  0  0  0  0  0  0  0
   56.4661  -41.3664  -12.0423 C   0  0  0  0  0  0  0  0  0  0  0  0
   56.0076  -42.6982  -12.1978 N   0  0  0  0  0  0  0  0  0  0  0  0
   57.3315  -40.9015  -12.8879 N   0  0  0  0  0  0  0  0  0  0  0  0
   55.8807  -34.8996  -12.2070 N   0  0  0  0  0  0  0  0  0  0  0  0
   56.5505  -34.1861  -13.2899 C   0  0  0  0  0  0  0  0  0  0  0  0
   57.9609  -33.8775  -12.9685 C   0  0  0  0  0  0  0  0  0  0  0  0
   58.3054  -33.3948  -11.7056 C   0  0  0  0  0  0  0  0  0  0  0  0
   59.6072  -33.1018  -11.3895 C   0  0  0  0  0  0  0  0  0  0  0  0
   60.6430  -33.2694  -12.3022 C   0  0  0  0  0  0  0  0  0  0  0  0
   62.0024  -32.9397  -11.9029 C   0  0  0  0  0  0  0  0  0  0  0  0
   63.0885  -33.5438  -12.5667 N   0  0  0  0  0  0  0  0  0  0  0  0
   62.2235  -32.1088  -10.9607 N   0  0  0  0  0  0  0  0  0  0  0  0
   60.3078  -33.7462  -13.5516 C   0  0  0  0  0  0  0  0  0  0  0  0
   58.9814  -34.0442  -13.8744 C   0  0  0  0  0  0  0  0  0  0  0  0
   45.3644  -35.9167   -3.9665 C   0  0  0  0  0  0  0  0  0  0  0  0
   46.3522  -35.5068   -4.9960 C   0  0  0  0  0  0  0  0  0  0  0  0
   47.6683  -36.2795   -4.8119 C   0  0  0  0  0  0  0  0  0  0  0  0
   48.6708  -35.4595   -4.0465 C   0  0  0  0  0  0  0  0  0  0  0  0
   50.0680  -35.7767   -4.3826 C   0  0  0  0  0  0  0  0  0  0  0  0
   45.2036  -35.0700   -3.0065 O   0  0  0  0  0  0  0  0  0  0  0  0
   50.6966  -36.5929   -3.6581 O   0  0  0  0  0  0  0  0  0  0  0  0
   45.7388  -38.4806   -2.7295 H   0  0  0  0  0  0  0  0  0  0  0  0
   42.8355  -35.1651  -10.4208 H   0  0  0  0  0  0  0  0  0  0  0  0
   46.8863  -36.3214   -9.7637 H   0  0  0  0  0  0  0  0  0  0  0  0
   57.0463  -40.4131  -13.7661 H   0  0  0  0  0  0  0  0  0  0  0  0
   62.7438  -31.2162  -11.1498 H   0  0  0  0  0  0  0  0  0  0  0  0
  2  1  1  1
  1 65  1  0
  2  3  1  0
  5  2  1  1
  3  4  2  0
  3 12  1  0
  5  6  1  0
  6  7  1  6
  7  8  1  6
  8  9  1  0
  9 10  2  0
  9 11  1  0
 13 12  1  6
 13 14  1  0
 16 13  1  1
 14 15  2  0
 14 23  1  0
 16 17  1  0
 17 18  1  6
 18 19  1  6
 19 20  1  0
 20 21  1  0
 20 22  2  0
 24 23  1  6
 24 25  1  0
 27 24  1  1
 25 26  2  0
 25 34  1  0
 27 28  1  0
 28 29  1  6
 29 30  1  6
 30 31  1  0
 31 32  1  0
 31 33  2  0
 34 35  1  0
 35 36  1  1
 38 35  1  1
 36 37  2  0
 36 43  1  0
 39 38  1  1
 39 40  1  0
 40 41  1  6
 41 42  1  6
 42 69  1  0
 44 43  1  6
 44 45  1  0
 47 44  1  1
 45 46  2  0
 45 54  1  0
 47 48  1  0
 48 49  1  6
 49 50  1  6
 50 51  1  0
 51 52  1  0
 51 53  2  0
 55 54  1  1
 55 56  1  0
 56 57  2  0
 56 64  1  0
 57 58  1  0
 58 59  2  0
 59 60  1  0
 59 63  1  0
 60 61  1  0
 60 62  2  0
 63 64  2  0
 66 65  1  1
 65 70  2  0
 67 66  1  1
 67 68  1  0
 68 69  1  6
 69 71  2  0
 10 72  1  0
 22 73  1  0
 33 74  1  0
 53 75  1  0
 62 76  1  0
M  END
$$$$
