
     RDKit          3D

 76 77  0  0  0  0  0  0  0  0999 V2000
   52.8520  -32.7027   -2.6128 N   0  0  0  0  0  0  0  0  0  0  0  0
   52.1109  -33.6293   -1.8006 C   0  0  2  0  0  0  0  0  0  0  0  0
   50.9843  -34.3149   -2.4583 C   0  0  0  0  0  0  0  0  0  0  0  0
   50.2521  -34.9223   -1.5684 O   0  0  0  0  0  0  0  0  0  0  0  0
   51.6993  -33.0925   -0.4804 C   0  0  0  0  0  0  0  0  0  0  0  0
   52.8204  -33.0894    0.5387 C   0  0  0  0  0  0  0  0  0  0  0  0
   53.0468  -34.5153    1.0476 C   0  0  0  0  0  0  0  0  0  0  0  0
   52.9631  -35.4859   -0.0189 N   0  0  0  0  0  0  0  0  0  0  0  0
   53.2275  -36.8569    0.2414 C   0  0  0  0  0  0  0  0  0  0  0  0
   52.1824  -37.6259    0.3672 N   0  0  0  0  0  0  0  0  0  0  0  0
   54.5472  -37.3600    0.3588 N   0  0  0  0  0  0  0  0  0  0  0  0
   50.5918  -34.4269   -3.7819 N   0  0  0  0  0  0  0  0  0  0  0  0
   49.8397  -33.6240   -4.7080 C   0  0  2  0  0  0  0  0  0  0  0  0
   50.4380  -33.6138   -6.0677 C   0  0  0  0  0  0  0  0  0  0  0  0
   51.6188  -33.1855   -6.1690 O   0  0  0  0  0  0  0  0  0  0  0  0
   49.1526  -32.4338   -4.2307 C   0  0  0  0  0  0  0  0  0  0  0  0
   49.4034  -31.7942   -2.9331 C   0  0  0  0  0  0  0  0  0  0  0  0
   49.7643  -32.6842   -1.8060 C   0  0  0  0  0  0  0  0  0  0  0  0
   50.1300  -31.7867   -0.6849 N   0  0  0  0  0  0  0  0  0  0  0  0
   51.3255  -31.0391   -0.7636 C   0  0  0  0  0  0  0  0  0  0  0  0
   51.3120  -29.8675   -1.5589 N   0  0  0  0  0  0  0  0  0  0  0  0
   52.3948  -31.4219   -0.1223 N   0  0  0  0  0  0  0  0  0  0  0  0
   49.8335  -34.0364   -7.2659 N   0  0  0  0  0  0  0  0  0  0  0  0
   48.4855  -34.1780   -7.6338 C   0  0  2  0  0  0  0  0  0  0  0  0
   48.2625  -35.2946   -8.6345 C   0  0  0  0  0  0  0  0  0  0  0  0
   47.0325  -35.5669   -8.7954 O   0  0  0  0  0  0  0  0  0  0  0  0
   47.7472  -32.9599   -8.0319 C   0  0  0  0  0  0  0  0  0  0  0  0
   47.4670  -31.9176   -7.0275 C   0  0  0  0  0  0  0  0  0  0  0  0
   47.8695  -32.1774   -5.6226 C   0  0  0  0  0  0  0  0  0  0  0  0
   49.3075  -32.5045   -5.5999 N   0  0  0  0  0  0  0  0  0  0  0  0
   49.9533  -32.7352   -4.3534 C   0  0  0  0  0  0  0  0  0  0  0  0
   49.3963  -33.6432   -3.4299 N   0  0  0  0  0  0  0  0  0  0  0  0
   51.0615  -32.1042   -4.0715 N   0  0  0  0  0  0  0  0  0  0  0  0
   49.2022  -36.0069   -9.3513 N   0  0  0  0  0  0  0  0  0  0  0  0
   50.2415  -36.9101   -8.9472 C   0  0  2  0  0  0  0  0  0  0  0  0
   50.3276  -38.0512   -9.9292 C   0  0  0  0  0  0  0  0  0  0  0  0
   51.2608  -38.8715   -9.7744 O   0  0  0  0  0  0  0  0  0  0  0  0
   50.1385  -37.5138   -7.5987 C   0  0  0  0  0  0  0  0  0  0  0  0
   51.4647  -37.3088   -6.8918 C   0  0  0  0  0  0  0  0  0  0  0  0
   51.7114  -38.2970   -5.7879 C   0  0  0  0  0  0  0  0  0  0  0  0
   53.1756  -38.6534   -5.6540 C   0  0  0  0  0  0  0  0  0  0  0  0
   54.0135  -37.6911   -6.3422 N   0  0  0  0  0  0  0  0  0  0  0  0
   49.4254  -38.2264  -10.9860 N   0  0  0  0  0  0  0  0  0  0  0  0
   49.1848  -37.1210  -11.9350 C   0  0  2  0  0  0  0  0  0  0  0  0
   47.7745  -36.6336  -11.7263 C   0  0  0  0  0  0  0  0  0  0  0  0
   47.6074  -35.3970  -11.4541 O   0  0  0  0  0  0  0  0  0  0  0  0
   49.4363  -37.6991  -13.2755 C   0  0  0  0  0  0  0  0  0  0  0  0
   50.1231  -36.8708  -14.2900 C   0  0  0  0  0  0  0  0  0  0  0  0
   50.0175  -37.3721  -15.7086 C   0  0  0  0  0  0  0  0  0  0  0  0
   51.1093  -38.2803  -15.9299 N   0  0  0  0  0  0  0  0  0  0  0  0
   52.4229  -37.9395  -15.5245 C   0  0  0  0  0  0  0  0  0  0  0  0
   53.0620  -36.7406  -15.9917 N   0  0  0  0  0  0  0  0  0  0  0  0
   53.0846  -38.6800  -14.7337 N   0  0  0  0  0  0  0  0  0  0  0  0
   46.6341  -37.4459  -11.8145 N   0  0  0  0  0  0  0  0  0  0  0  0
   45.2591  -36.9826  -11.6037 C   0  0  0  0  0  0  0  0  0  0  0  0
   44.5492  -37.9291  -10.7270 C   0  0  0  0  0  0  0  0  0  0  0  0
   43.8681  -39.0035  -11.3003 C   0  0  0  0  0  0  0  0  0  0  0  0
   43.2138  -39.8976  -10.4938 C   0  0  0  0  0  0  0  0  0  0  0  0
   43.1987  -39.7795   -9.1116 C   0  0  0  0  0  0  0  0  0  0  0  0
   42.4881  -40.7463   -8.2933 C   0  0  0  0  0  0  0  0  0  0  0  0
   42.4758  -40.6513   -6.8908 N   0  0  0  0  0  0  0  0  0  0  0  0
   41.8657  -41.7059   -8.8715 N   0  0  0  0  0  0  0  0  0  0  0  0
   43.8789  -38.7101   -8.5688 C   0  0  0  0  0  0  0  0  0  0  0  0
   44.5566  -37.7805   -9.3638 C   0  0  0  0  0  0  0  0  0  0  0  0
   53.9214  -33.1063   -3.4578 C   0  0  0  0  0  0  0  0  0  0  0  0
   54.8232  -34.2480   -3.2039 C   0  0  0  0  0  0  0  0  0  0  0  0
   54.2615  -35.5984   -3.5091 C   0  0  0  0  0  0  0  0  0  0  0  0
   55.1371  -36.4205   -4.4235 C   0  0  0  0  0  0  0  0  0  0  0  0
   54.5438  -36.5176   -5.7892 C   0  0  0  0  0  0  0  0  0  0  0  0
   54.1002  -32.4246   -4.5008 O   0  0  0  0  0  0  0  0  0  0  0  0
   54.5329  -35.4383   -6.4781 O   0  0  0  0  0  0  0  0  0  0  0  0
   52.2614  -38.6278    0.0289 H   0  0  0  0  0  0  0  0  0  0  0  0
   52.5577  -32.4042    0.0967 H   0  0  0  0  0  0  0  0  0  0  0  0
   51.9936  -32.5080   -4.3001 H   0  0  0  0  0  0  0  0  0  0  0  0
   54.1005  -38.8223  -14.6847 H   0  0  0  0  0  0  0  0  0  0  0  0
   42.0110  -41.9943   -9.8612 H   0  0  0  0  0  0  0  0  0  0  0  0
  1  2  1  0
  1 65  1  0
  2  3  1  0
  2  5  1  1
  3  4  2  0
  3 12  1  0
  5  6  1  0
  6  7  1  0
  7  8  1  0
  8  9  1  0
  9 10  2  0
  9 11  1  0
 12 13  1  0
 13 14  1  0
 13 16  1  1
 14 15  2  0
 14 23  1  0
 16 17  1  0
 17 18  1  0
 18 19  1  0
 19 20  1  0
 20 21  1  0
 20 22  2  0
 23 24  1  0
 24 25  1  0
 24 27  1  6
 25 26  2  0
 25 34  1  0
 27 28  1  0
 28 29  1  0
 29 30  1  0
 30 31  1  0
 31 32  1  0
 31 33  2  0
 34 35  1  0
 35 36  1  6
 35 38  1  0
 36 37  2  0
 36 43  1  0
 38 39  1  0
 39 40  1  0
 40 41  1  0
 41 42  1  0
 42 69  1  0
 43 44  1  0
 44 45  1  0
 44 47  1  6
 45 46  2  0
 45 54  1  0
 47 48  1  0
 48 49  1  0
 49 50  1  0
 50 51  1  0
 51 52  1  0
 51 53  2  0
 54 55  1  0
 55 56  1  0
 56 57  2  0
 56 64  1  0
 57 58  1  0
 58 59  2  0
 59 60  1  0
 59 63  1  0
 60 61  1  0
 60 62  2  0
 63 64  2  0
 65 66  1  0
 65 70  2  0
 66 67  1  0
 67 68  1  0
 68 69  1  0
 69 71  2  0
 10 72  1  0
 22 73  1  0
 33 74  1  0
 53 75  1  0
 62 76  1  0
M  END
$$$$
