
     RDKit          3D

 76 77  0  0  0  0  0  0  0  0999 V2000
   53.8344  -35.1133   -1.7511 N   0  0  0  0  0  0  0  0  0  0  0  0
   53.2012  -36.3894   -1.5560 C   0  0  2  0  0  0  0  0  0  0  0  0
   51.9040  -36.5820   -2.2284 C   0  0  0  0  0  0  0  0  0  0  0  0
   51.3246  -37.6583   -1.7780 O   0  0  0  0  0  0  0  0  0  0  0  0
   53.1278  -36.8261   -0.1402 C   0  0  0  0  0  0  0  0  0  0  0  0
   54.4890  -37.0168    0.4970 C   0  0  0  0  0  0  0  0  0  0  0  0
   55.5701  -36.9399   -0.5841 C   0  0  0  0  0  0  0  0  0  0  0  0
   56.8988  -36.9949   -0.0201 N   0  0  0  0  0  0  0  0  0  0  0  0
   57.7553  -35.8648   -0.0995 C   0  0  0  0  0  0  0  0  0  0  0  0
   58.8979  -35.9700    0.5193 N   0  0  0  0  0  0  0  0  0  0  0  0
   57.3910  -34.6923   -0.8073 N   0  0  0  0  0  0  0  0  0  0  0  0
   51.2323  -35.8648   -3.2046 N   0  0  0  0  0  0  0  0  0  0  0  0
   50.3770  -34.7091   -3.2329 C   0  0  2  0  0  0  0  0  0  0  0  0
   50.6730  -33.8110   -4.3786 C   0  0  0  0  0  0  0  0  0  0  0  0
   51.8395  -33.3391   -4.4480 O   0  0  0  0  0  0  0  0  0  0  0  0
   49.9164  -34.1278   -1.9815 C   0  0  0  0  0  0  0  0  0  0  0  0
   50.6734  -33.1478   -1.1926 C   0  0  0  0  0  0  0  0  0  0  0  0
   51.8885  -32.5784   -1.8188 C   0  0  0  0  0  0  0  0  0  0  0  0
   52.9957  -32.8526   -0.8726 N   0  0  0  0  0  0  0  0  0  0  0  0
   54.2924  -32.3827   -1.1761 C   0  0  0  0  0  0  0  0  0  0  0  0
   55.3891  -33.0999   -0.6392 N   0  0  0  0  0  0  0  0  0  0  0  0
   54.4614  -31.3283   -1.9249 N   0  0  0  0  0  0  0  0  0  0  0  0
   49.7935  -33.4271   -5.4076 N   0  0  0  0  0  0  0  0  0  0  0  0
   48.3911  -33.3930   -5.4746 C   0  0  2  0  0  0  0  0  0  0  0  0
   47.8621  -33.6476   -6.8723 C   0  0  0  0  0  0  0  0  0  0  0  0
   46.6065  -33.8371   -6.8915 O   0  0  0  0  0  0  0  0  0  0  0  0
   47.6982  -32.2448   -4.8511 C   0  0  0  0  0  0  0  0  0  0  0  0
   48.4049  -30.9590   -4.7067 C   0  0  0  0  0  0  0  0  0  0  0  0
   49.8363  -30.9030   -5.0955 C   0  0  0  0  0  0  0  0  0  0  0  0
   50.6579  -31.1496   -3.8957 N   0  0  0  0  0  0  0  0  0  0  0  0
   50.0930  -30.9443   -2.6062 C   0  0  0  0  0  0  0  0  0  0  0  0
   48.7449  -31.2802   -2.3671 N   0  0  0  0  0  0  0  0  0  0  0  0
   50.8284  -30.4459   -1.6488 N   0  0  0  0  0  0  0  0  0  0  0  0
   48.5611  -33.6915   -8.0612 N   0  0  0  0  0  0  0  0  0  0  0  0
   49.5766  -34.5795   -8.5503 C   0  0  2  0  0  0  0  0  0  0  0  0
   49.3501  -34.8451  -10.0173 C   0  0  0  0  0  0  0  0  0  0  0  0
   49.8245  -34.0184  -10.8293 O   0  0  0  0  0  0  0  0  0  0  0  0
   49.7069  -35.9000   -7.8922 C   0  0  0  0  0  0  0  0  0  0  0  0
   51.1654  -36.0987   -7.5266 C   0  0  0  0  0  0  0  0  0  0  0  0
   51.5497  -37.5421   -7.3689 C   0  0  0  0  0  0  0  0  0  0  0  0
   52.9709  -37.8090   -7.8135 C   0  0  0  0  0  0  0  0  0  0  0  0
   53.7277  -36.5766   -7.9147 N   0  0  0  0  0  0  0  0  0  0  0  0
   48.6445  -35.9551  -10.4982 N   0  0  0  0  0  0  0  0  0  0  0  0
   47.1787  -35.8778  -10.6599 C   0  0  2  0  0  0  0  0  0  0  0  0
   46.7146  -37.1718  -11.2764 C   0  0  0  0  0  0  0  0  0  0  0  0
   45.6388  -37.1499  -11.9644 O   0  0  0  0  0  0  0  0  0  0  0  0
   46.9443  -34.6834  -11.5041 C   0  0  0  0  0  0  0  0  0  0  0  0
   46.4834  -34.8754  -12.8962 C   0  0  0  0  0  0  0  0  0  0  0  0
   45.2401  -34.1095  -13.2736 C   0  0  0  0  0  0  0  0  0  0  0  0
   44.9054  -34.4654  -14.6254 N   0  0  0  0  0  0  0  0  0  0  0  0
   45.4551  -33.7482  -15.7160 C   0  0  0  0  0  0  0  0  0  0  0  0
   46.5090  -34.3023  -16.5200 N   0  0  0  0  0  0  0  0  0  0  0  0
   45.0378  -32.5895  -16.0239 N   0  0  0  0  0  0  0  0  0  0  0  0
   47.3865  -38.3967  -11.1482 N   0  0  0  0  0  0  0  0  0  0  0  0
   47.4568  -39.1868   -9.9152 C   0  0  0  0  0  0  0  0  0  0  0  0
   46.1021  -39.6125   -9.5249 C   0  0  0  0  0  0  0  0  0  0  0  0
   45.3987  -40.4823  -10.3589 C   0  0  0  0  0  0  0  0  0  0  0  0
   44.1420  -40.8948  -10.0003 C   0  0  0  0  0  0  0  0  0  0  0  0
   43.5295  -40.4792   -8.8270 C   0  0  0  0  0  0  0  0  0  0  0  0
   42.1935  -40.9360   -8.4869 C   0  0  0  0  0  0  0  0  0  0  0  0
   41.2784  -41.3292   -9.4789 N   0  0  0  0  0  0  0  0  0  0  0  0
   41.8491  -40.9733   -7.2529 N   0  0  0  0  0  0  0  0  0  0  0  0
   44.2445  -39.6203   -8.0196 C   0  0  0  0  0  0  0  0  0  0  0  0
   45.5286  -39.1811   -8.3565 C   0  0  0  0  0  0  0  0  0  0  0  0
   54.6604  -34.8287   -2.8724 C   0  0  0  0  0  0  0  0  0  0  0  0
   55.4889  -35.8167   -3.5926 C   0  0  0  0  0  0  0  0  0  0  0  0
   54.7561  -36.7105   -4.5394 C   0  0  0  0  0  0  0  0  0  0  0  0
   55.3410  -36.7199   -5.9310 C   0  0  0  0  0  0  0  0  0  0  0  0
   54.4664  -35.9776   -6.8852 C   0  0  0  0  0  0  0  0  0  0  0  0
   54.6755  -33.6343   -3.2694 O   0  0  0  0  0  0  0  0  0  0  0  0
   54.4075  -34.7084   -6.7268 O   0  0  0  0  0  0  0  0  0  0  0  0
   59.3364  -36.9329    0.5889 H   0  0  0  0  0  0  0  0  0  0  0  0
   54.3690  -31.3786   -2.9389 H   0  0  0  0  0  0  0  0  0  0  0  0
   51.8578  -30.5985   -1.6146 H   0  0  0  0  0  0  0  0  0  0  0  0
   44.4922  -31.9305  -15.4559 H   0  0  0  0  0  0  0  0  0  0  0  0
   42.3600  -40.4967   -6.4812 H   0  0  0  0  0  0  0  0  0  0  0  0
  1  2  1  0
  1 65  1  0
  2  3  1  0
  2  5  1  1
  3  4  2  0
  3 12  1  0
  5  6  1  0
  6  7  1  0
  7  8  1  0
  8  9  1  0
  9 10  2  0
  9 11  1  0
 12 13  1  0
 13 14  1  0
 13 16  1  1
 14 15  2  0
 14 23  1  0
 16 17  1  0
 17 18  1  0
 18 19  1  0
 19 20  1  0
 20 21  1  0
 20 22  2  0
 23 24  1  0
 24 25  1  0
 24 27  1  6
 25 26  2  0
 25 34  1  0
 27 28  1  0
 28 29  1  0
 29 30  1  0
 30 31  1  0
 31 32  1  0
 31 33  2  0
 34 35  1  0
 35 36  1  6
 35 38  1  0
 36 37  2  0
 36 43  1  0
 38 39  1  0
 39 40  1  0
 40 41  1  0
 41 42  1  0
 42 69  1  0
 43 44  1  0
 44 45  1  0
 44 47  1  6
 45 46  2  0
 45 54  1  0
 47 48  1  0
 48 49  1  0
 49 50  1  0
 50 51  1  0
 51 52  1  0
 51 53  2  0
 54 55  1  0
 55 56  1  0
 56 57  2  0
 56 64  1  0
 57 58  1  0
 58 59  2  0
 59 60  1  0
 59 63  1  0
 60 61  1  0
 60 62  2  0
 63 64  2  0
 65 66  1  0
 65 70  2  0
 66 67  1  0
 67 68  1  0
 68 69  1  0
 69 71  2  0
 10 72  1  0
 22 73  1  0
 33 74  1  0
 53 75  1  0
 62 76  1  0
M  END
$$$$
