
     RDKit          3D

 30 33  0  0  0  0  0  0  0  0999 V2000
  -30.1094  -46.3047   17.3900 C   0  0  0  0  0  0  0  0  0  0  0  0
  -31.5329  -45.9661   17.4689 C   0  0  0  0  0  0  0  0  0  0  0  0
  -32.0319  -45.1724   16.6522 C   0  0  0  0  0  0  0  0  0  0  0  0
  -33.2654  -44.8144   16.2728 C   0  0  0  0  0  0  0  0  0  0  0  0
  -34.3208  -45.6204   17.0788 C   0  0  0  0  0  0  0  0  0  0  0  0
  -32.5020  -46.7719   18.2906 C   0  0  0  0  0  0  0  0  0  0  0  0
  -37.8539  -44.8946   17.3701 C   0  0  0  0  0  0  0  0  0  0  0  0
  -40.2715  -45.4431   18.4032 C   0  0  0  0  0  0  0  0  0  0  0  0
  -40.1528  -45.4567   16.9649 C   0  0  0  0  0  0  0  0  0  0  0  0
  -38.8523  -45.1480   16.6406 C   0  0  0  0  0  0  0  0  0  0  0  0
  -39.4379  -45.1933   20.6845 C   0  0  2  0  0  0  0  0  0  0  0  0
  -38.8753  -44.7949   23.3553 C   0  0  0  0  0  0  0  0  0  0  0  0
  -40.0032  -42.8958   23.4546 C   0  0  0  0  0  0  0  0  0  0  0  0
  -37.8940  -44.8716   18.7885 C   0  0  0  0  0  0  0  0  0  0  0  0
  -39.2117  -45.1735   19.2096 C   0  0  0  0  0  0  0  0  0  0  0  0
  -40.5491  -46.0167   21.1327 C   0  0  0  0  0  0  0  0  0  0  0  0
  -38.1805  -45.8629   22.6643 C   0  0  0  0  0  0  0  0  0  0  0  0
  -39.1058  -44.4370   24.6999 C   0  0  0  0  0  0  0  0  0  0  0  0
  -39.8177  -43.2350   24.8016 C   0  0  0  0  0  0  0  0  0  0  0  0
  -39.5545  -43.7486   21.1872 C   0  0  0  0  0  0  0  0  0  0  0  0
  -35.5525  -45.1710   16.7276 C   0  0  0  0  0  0  0  0  0  0  0  0
  -41.5365  -45.6633   18.8923 F   0  0  0  0  0  0  0  0  0  0  0  0
  -28.8486  -46.5833   17.3293 N   0  0  0  0  0  0  0  0  0  0  0  0
  -36.6211  -44.2999   16.7972 N   0  0  0  0  0  0  0  0  0  0  0  0
  -38.2009  -45.7570   21.2346 N   0  0  0  0  0  0  0  0  0  0  0  0
  -37.5779  -46.7808   23.3113 N   0  0  0  0  0  0  0  0  0  0  0  0
  -39.4866  -43.7830   22.6581 N   0  0  0  0  0  0  0  0  0  0  0  0
  -33.6882  -46.3730   17.8680 N   0  0  0  0  0  0  0  0  0  0  0  0
  -36.0585  -46.0895   15.6827 O   0  0  0  0  0  0  0  0  0  0  0  0
  -37.0520  -47.5297   22.8992 H   0  0  0  0  0  0  0  0  0  0  0  0
  2  1  1  0
  1 23  3  0
  3  2  2  0
  6  2  1  0
  4  3  1  0
  5  4  2  0
 21  5  1  0
  5 28  1  0
 28  6  2  0
  7 10  2  0
  7 14  1  0
 24  7  1  0
  9  8  2  0
 15  8  1  0
  8 22  1  0
 10  9  1  0
 15 11  1  0
 11 16  1  6
 11 20  1  0
 11 25  1  0
 17 12  1  0
 12 18  2  0
 27 12  1  0
 13 19  2  0
 27 13  1  0
 14 15  2  0
 25 17  1  0
 17 26  2  0
 18 19  1  0
 20 27  1  0
 21 24  1  0
 21 29  2  0
 26 30  1  0
M  END
$$$$
