
     RDKit          3D

 30 33  0  0  0  0  0  0  0  0999 V2000
  -30.6220  -46.5463   17.5437 C   0  0  0  0  0  0  0  0  0  0  0  0
  -32.0388  -46.2584   17.3549 C   0  0  0  0  0  0  0  0  0  0  0  0
  -32.6624  -46.5286   16.1602 C   0  0  0  0  0  0  0  0  0  0  0  0
  -34.0030  -46.2518   16.0075 C   0  0  0  0  0  0  0  0  0  0  0  0
  -34.7194  -45.7092   17.0383 C   0  0  0  0  0  0  0  0  0  0  0  0
  -32.8000  -45.7060   18.3818 C   0  0  0  0  0  0  0  0  0  0  0  0
  -38.3834  -46.0152   17.5971 C   0  0  0  0  0  0  0  0  0  0  0  0
  -40.8026  -45.2731   18.6855 C   0  0  0  0  0  0  0  0  0  0  0  0
  -40.6160  -45.2120   17.3035 C   0  0  0  0  0  0  0  0  0  0  0  0
  -39.4046  -45.5851   16.7750 C   0  0  0  0  0  0  0  0  0  0  0  0
  -40.0126  -45.7676   20.9984 C   0  0  2  0  0  0  0  0  0  0  0  0
  -38.6135  -44.9480   23.3302 C   0  0  0  0  0  0  0  0  0  0  0  0
  -39.6377  -43.0496   23.6208 C   0  0  0  0  0  0  0  0  0  0  0  0
  -38.6036  -46.0636   18.9700 C   0  0  0  0  0  0  0  0  0  0  0  0
  -39.7993  -45.6980   19.5201 C   0  0  0  0  0  0  0  0  0  0  0  0
  -41.2975  -46.5927   21.2388 C   0  0  0  0  0  0  0  0  0  0  0  0
  -38.2810  -46.2135   22.6887 C   0  0  0  0  0  0  0  0  0  0  0  0
  -38.1149  -44.3582   24.5085 C   0  0  0  0  0  0  0  0  0  0  0  0
  -38.7787  -43.1705   24.6598 C   0  0  0  0  0  0  0  0  0  0  0  0
  -40.2281  -44.4450   21.6010 C   0  0  0  0  0  0  0  0  0  0  0  0
  -36.1217  -45.4197   16.8782 C   0  0  0  0  0  0  0  0  0  0  0  0
  -42.0141  -44.8964   19.1753 F   0  0  0  0  0  0  0  0  0  0  0  0
  -29.5141  -46.7517   17.6891 N   0  0  0  0  0  0  0  0  0  0  0  0
  -37.1506  -46.3942   16.9921 N   0  0  0  0  0  0  0  0  0  0  0  0
  -38.9494  -46.5748   21.5029 N   0  0  0  0  0  0  0  0  0  0  0  0
  -37.3775  -46.9672   23.2164 N   0  0  0  0  0  0  0  0  0  0  0  0
  -39.5270  -44.1528   22.8060 N   0  0  0  0  0  0  0  0  0  0  0  0
  -34.1073  -45.4506   18.1922 N   0  0  0  0  0  0  0  0  0  0  0  0
  -36.4718  -44.2241   16.6195 O   0  0  0  0  0  0  0  0  0  0  0  0
  -36.9694  -47.7219   22.6241 H   0  0  0  0  0  0  0  0  0  0  0  0
  2  1  1  0
  1 23  3  0
  3  2  2  0
  6  2  1  0
  4  3  1  0
  5  4  2  0
 21  5  1  0
  5 28  1  0
 28  6  2  0
  7 10  2  0
  7 14  1  0
 24  7  1  0
  9  8  2  0
 15  8  1  0
  8 22  1  0
 10  9  1  0
 11 15  1  6
 16 11  1  6
 11 20  1  0
 11 25  1  0
 17 12  1  0
 12 18  2  0
 27 12  1  0
 13 19  2  0
 27 13  1  0
 14 15  2  0
 25 17  1  0
 17 26  2  0
 18 19  1  0
 20 27  1  6
 21 24  1  0
 21 29  2  0
 26 30  1  0
M  END
$$$$
