
     RDKit          3D

 30 33  0  0  0  0  0  0  0  0999 V2000
  -30.5998  -45.9753   17.5450 C   0  0  0  0  0  0  0  0  0  0  0  0
  -31.9814  -45.8798   17.0662 C   0  0  0  0  0  0  0  0  0  0  0  0
  -32.7649  -46.8317   17.2268 C   0  0  0  0  0  0  0  0  0  0  0  0
  -34.0873  -47.0276   17.1457 C   0  0  0  0  0  0  0  0  0  0  0  0
  -34.7943  -45.7022   16.7496 C   0  0  0  0  0  0  0  0  0  0  0  0
  -32.6016  -44.5671   16.6710 C   0  0  0  0  0  0  0  0  0  0  0  0
  -38.4153  -46.2651   17.2401 C   0  0  0  0  0  0  0  0  0  0  0  0
  -40.2861  -44.8402   18.5373 C   0  0  0  0  0  0  0  0  0  0  0  0
  -40.3262  -44.8187   17.0947 C   0  0  0  0  0  0  0  0  0  0  0  0
  -39.2925  -45.5960   16.6269 C   0  0  0  0  0  0  0  0  0  0  0  0
  -39.4029  -45.5159   20.7109 C   0  0  2  0  0  0  0  0  0  0  0  0
  -38.4804  -45.1512   23.2847 C   0  0  0  0  0  0  0  0  0  0  0  0
  -39.3259  -43.1149   23.4497 C   0  0  0  0  0  0  0  0  0  0  0  0
  -38.3199  -46.3394   18.6541 C   0  0  0  0  0  0  0  0  0  0  0  0
  -39.3521  -45.5527   19.2200 C   0  0  0  0  0  0  0  0  0  0  0  0
  -40.5529  -46.1725   21.3109 C   0  0  0  0  0  0  0  0  0  0  0  0
  -38.0205  -46.3156   22.5544 C   0  0  0  0  0  0  0  0  0  0  0  0
  -38.5005  -44.7419   24.6342 C   0  0  0  0  0  0  0  0  0  0  0  0
  -39.0291  -43.4527   24.7771 C   0  0  0  0  0  0  0  0  0  0  0  0
  -39.2660  -44.0602   21.1754 C   0  0  0  0  0  0  0  0  0  0  0  0
  -36.1179  -45.9604   16.5957 C   0  0  0  0  0  0  0  0  0  0  0  0
  -41.2171  -44.0480   19.1646 F   0  0  0  0  0  0  0  0  0  0  0  0
  -29.3778  -46.0379   17.9618 N   0  0  0  0  0  0  0  0  0  0  0  0
  -37.2208  -46.7882   16.5320 N   0  0  0  0  0  0  0  0  0  0  0  0
  -38.1956  -46.2329   21.1337 N   0  0  0  0  0  0  0  0  0  0  0  0
  -37.4731  -47.2956   23.1580 N   0  0  0  0  0  0  0  0  0  0  0  0
  -39.0298  -44.0779   22.6291 N   0  0  0  0  0  0  0  0  0  0  0  0
  -33.8947  -44.8299   16.6108 N   0  0  0  0  0  0  0  0  0  0  0  0
  -36.7859  -44.6542   16.3978 O   0  0  0  0  0  0  0  0  0  0  0  0
  -36.5893  -47.7042   22.9151 H   0  0  0  0  0  0  0  0  0  0  0  0
  2  1  1  0
  1 23  3  0
  3  2  2  0
  6  2  1  0
  4  3  1  0
  5  4  2  0
 21  5  1  0
  5 28  1  0
 28  6  2  0
  7 10  2  0
  7 14  1  0
 24  7  1  0
  9  8  2  0
 15  8  1  0
  8 22  1  0
 10  9  1  0
 15 11  1  0
 11 16  1  1
 11 20  1  0
 11 25  1  0
 17 12  1  0
 12 18  2  0
 27 12  1  0
 13 19  2  0
 27 13  1  0
 14 15  2  0
 25 17  1  0
 17 26  2  0
 18 19  1  0
 20 27  1  0
 21 24  1  0
 21 29  2  0
 26 30  1  0
M  END
$$$$
