
     RDKit          3D

 30 33  0  0  0  0  0  0  0  0999 V2000
  -29.5280  -46.6966   16.7449 C   0  0  0  0  0  0  0  0  0  0  0  0
  -30.9422  -46.4042   16.9461 C   0  0  0  0  0  0  0  0  0  0  0  0
  -31.7195  -47.1949   17.7582 C   0  0  0  0  0  0  0  0  0  0  0  0
  -33.0522  -46.8956   17.9360 C   0  0  0  0  0  0  0  0  0  0  0  0
  -33.6084  -45.8150   17.3091 C   0  0  0  0  0  0  0  0  0  0  0  0
  -31.5428  -45.3125   16.3242 C   0  0  0  0  0  0  0  0  0  0  0  0
  -37.0748  -45.4449   18.7949 C   0  0  0  0  0  0  0  0  0  0  0  0
  -39.8276  -45.3485   18.7726 C   0  0  0  0  0  0  0  0  0  0  0  0
  -39.1207  -45.2531   17.5728 C   0  0  0  0  0  0  0  0  0  0  0  0
  -37.7485  -45.3025   17.5992 C   0  0  0  0  0  0  0  0  0  0  0  0
  -39.9434  -45.6001   21.2508 C   0  0  2  0  0  0  0  0  0  0  0  0
  -39.5568  -44.8567   23.9645 C   0  0  0  0  0  0  0  0  0  0  0  0
  -40.6220  -42.9600   23.8917 C   0  0  0  0  0  0  0  0  0  0  0  0
  -37.8108  -45.5369   19.9719 C   0  0  0  0  0  0  0  0  0  0  0  0
  -39.1760  -45.4903   19.9722 C   0  0  0  0  0  0  0  0  0  0  0  0
  -41.2178  -46.4224   20.9525 C   0  0  0  0  0  0  0  0  0  0  0  0
  -38.9969  -46.1059   23.4651 C   0  0  0  0  0  0  0  0  0  0  0  0
  -39.5545  -44.3040   25.2605 C   0  0  0  0  0  0  0  0  0  0  0  0
  -40.2304  -43.1163   25.1779 C   0  0  0  0  0  0  0  0  0  0  0  0
  -40.3806  -44.2936   21.7613 C   0  0  0  0  0  0  0  0  0  0  0  0
  -35.0025  -45.5022   17.4953 C   0  0  0  0  0  0  0  0  0  0  0  0
  -41.1852  -45.2958   18.7103 F   0  0  0  0  0  0  0  0  0  0  0  0
  -28.4297  -46.9278   16.5695 N   0  0  0  0  0  0  0  0  0  0  0  0
  -35.6515  -45.4952   18.7602 N   0  0  0  0  0  0  0  0  0  0  0  0
  -39.1540  -46.4288   22.1032 N   0  0  0  0  0  0  0  0  0  0  0  0
  -38.3641  -46.8807   24.2787 N   0  0  0  0  0  0  0  0  0  0  0  0
  -40.2005  -44.0405   23.1514 N   0  0  0  0  0  0  0  0  0  0  0  0
  -32.8481  -45.0542   16.5241 N   0  0  0  0  0  0  0  0  0  0  0  0
  -35.7042  -45.2134   16.4739 O   0  0  0  0  0  0  0  0  0  0  0  0
  -37.3270  -46.7870   24.3295 H   0  0  0  0  0  0  0  0  0  0  0  0
  2  1  1  0
  1 23  3  0
  3  2  2  0
  6  2  1  0
  4  3  1  0
  5  4  2  0
 21  5  1  0
  5 28  1  0
 28  6  2  0
  7 10  2  0
  7 14  1  0
 24  7  1  0
  9  8  2  0
 15  8  1  0
  8 22  1  0
 10  9  1  0
 11 15  1  6
 16 11  1  6
 11 20  1  0
 11 25  1  0
 17 12  1  0
 12 18  2  0
 27 12  1  0
 13 19  2  0
 27 13  1  0
 14 15  2  0
 25 17  1  0
 17 26  2  0
 18 19  1  0
 20 27  1  6
 21 24  1  0
 21 29  2  0
 26 30  1  0
M  END
$$$$
