
     RDKit          3D

 30 33  0  0  0  0  0  0  0  0999 V2000
  -30.5100  -46.7538   17.3846 C   0  0  0  0  0  0  0  0  0  0  0  0
  -31.8347  -46.2816   16.9732 C   0  0  0  0  0  0  0  0  0  0  0  0
  -32.8459  -46.9582   17.2293 C   0  0  0  0  0  0  0  0  0  0  0  0
  -34.1712  -46.7656   17.2283 C   0  0  0  0  0  0  0  0  0  0  0  0
  -34.4930  -45.3095   16.7929 C   0  0  0  0  0  0  0  0  0  0  0  0
  -32.0772  -44.8628   16.5350 C   0  0  0  0  0  0  0  0  0  0  0  0
  -38.1745  -45.1235   17.3090 C   0  0  0  0  0  0  0  0  0  0  0  0
  -40.4793  -45.8128   18.5029 C   0  0  0  0  0  0  0  0  0  0  0  0
  -40.4698  -45.7828   17.0600 C   0  0  0  0  0  0  0  0  0  0  0  0
  -39.2130  -45.4044   16.6489 C   0  0  0  0  0  0  0  0  0  0  0  0
  -39.4870  -45.5842   20.7220 C   0  0  2  0  0  0  0  0  0  0  0  0
  -38.7092  -45.3009   23.3533 C   0  0  0  0  0  0  0  0  0  0  0  0
  -39.7717  -43.3787   23.6076 C   0  0  0  0  0  0  0  0  0  0  0  0
  -38.1078  -45.1399   18.7265 C   0  0  0  0  0  0  0  0  0  0  0  0
  -39.3747  -45.5148   19.2357 C   0  0  0  0  0  0  0  0  0  0  0  0
  -40.5834  -46.3951   21.2261 C   0  0  0  0  0  0  0  0  0  0  0  0
  -38.1004  -46.3596   22.5727 C   0  0  0  0  0  0  0  0  0  0  0  0
  -38.8252  -44.9881   24.7236 C   0  0  0  0  0  0  0  0  0  0  0  0
  -39.4927  -43.7729   24.9231 C   0  0  0  0  0  0  0  0  0  0  0  0
  -39.5234  -44.1569   21.2832 C   0  0  0  0  0  0  0  0  0  0  0  0
  -35.8423  -45.1790   16.7230 C   0  0  0  0  0  0  0  0  0  0  0  0
  -41.6924  -46.1054   19.0782 F   0  0  0  0  0  0  0  0  0  0  0  0
  -29.3399  -47.1823   17.7284 N   0  0  0  0  0  0  0  0  0  0  0  0
  -37.0169  -44.4562   16.6638 N   0  0  0  0  0  0  0  0  0  0  0  0
  -38.2279  -46.1996   21.1536 N   0  0  0  0  0  0  0  0  0  0  0  0
  -37.4760  -47.3163   23.1378 N   0  0  0  0  0  0  0  0  0  0  0  0
  -39.3435  -44.2483   22.7422 N   0  0  0  0  0  0  0  0  0  0  0  0
  -33.3923  -44.7418   16.5572 N   0  0  0  0  0  0  0  0  0  0  0  0
  -36.3995  -46.5491   16.6597 O   0  0  0  0  0  0  0  0  0  0  0  0
  -36.4781  -47.3931   23.2105 H   0  0  0  0  0  0  0  0  0  0  0  0
  2  1  1  0
  1 23  3  0
  3  2  2  0
  6  2  1  0
  4  3  1  0
  5  4  2  0
 21  5  1  0
  5 28  1  0
 28  6  2  0
  7 10  2  0
  7 14  1  0
 24  7  1  0
  9  8  2  0
 15  8  1  0
  8 22  1  0
 10  9  1  0
 15 11  1  0
 11 16  1  6
 11 20  1  0
 11 25  1  0
 17 12  1  0
 12 18  2  0
 27 12  1  0
 13 19  2  0
 27 13  1  0
 14 15  2  0
 25 17  1  0
 17 26  2  0
 18 19  1  0
 20 27  1  0
 21 24  1  0
 21 29  2  0
 26 30  1  0
M  END
$$$$
