
     RDKit          3D

 30 33  0  0  0  0  0  0  0  0999 V2000
  -29.8402  -47.0185   16.8544 C   0  0  0  0  0  0  0  0  0  0  0  0
  -31.2328  -46.5866   16.8679 C   0  0  0  0  0  0  0  0  0  0  0  0
  -31.6876  -45.6373   15.9842 C   0  0  0  0  0  0  0  0  0  0  0  0
  -33.0087  -45.2488   16.0136 C   0  0  0  0  0  0  0  0  0  0  0  0
  -33.8729  -45.8024   16.9175 C   0  0  0  0  0  0  0  0  0  0  0  0
  -32.1413  -47.1280   17.7738 C   0  0  0  0  0  0  0  0  0  0  0  0
  -37.2822  -45.1221   18.2900 C   0  0  0  0  0  0  0  0  0  0  0  0
  -39.9704  -45.6499   18.5788 C   0  0  0  0  0  0  0  0  0  0  0  0
  -39.4242  -45.5106   17.3018 C   0  0  0  0  0  0  0  0  0  0  0  0
  -38.0825  -45.2475   17.1731 C   0  0  0  0  0  0  0  0  0  0  0  0
  -39.7848  -45.6881   21.0652 C   0  0  2  0  0  0  0  0  0  0  0  0
  -39.0682  -44.9997   23.7259 C   0  0  0  0  0  0  0  0  0  0  0  0
  -40.1754  -43.1294   23.8411 C   0  0  0  0  0  0  0  0  0  0  0  0
  -37.8594  -45.2667   19.5476 C   0  0  0  0  0  0  0  0  0  0  0  0
  -39.1912  -45.5287   19.7022 C   0  0  0  0  0  0  0  0  0  0  0  0
  -41.0686  -46.5350   20.9109 C   0  0  0  0  0  0  0  0  0  0  0  0
  -38.5500  -46.2222   23.1254 C   0  0  0  0  0  0  0  0  0  0  0  0
  -38.9111  -44.4780   25.0251 C   0  0  0  0  0  0  0  0  0  0  0  0
  -39.6180  -43.3062   25.0618 C   0  0  0  0  0  0  0  0  0  0  0  0
  -40.1812  -44.4055   21.6623 C   0  0  0  0  0  0  0  0  0  0  0  0
  -35.2548  -45.3957   16.9480 C   0  0  0  0  0  0  0  0  0  0  0  0
  -41.3022  -45.9100   18.6700 F   0  0  0  0  0  0  0  0  0  0  0  0
  -28.7531  -47.3482   16.8619 N   0  0  0  0  0  0  0  0  0  0  0  0
  -35.8968  -44.8540   18.0950 N   0  0  0  0  0  0  0  0  0  0  0  0
  -38.8741  -46.5165   21.7868 N   0  0  0  0  0  0  0  0  0  0  0  0
  -37.8007  -46.9998   23.8302 N   0  0  0  0  0  0  0  0  0  0  0  0
  -39.8291  -44.1810   23.0242 N   0  0  0  0  0  0  0  0  0  0  0  0
  -33.4239  -46.7214   17.7699 N   0  0  0  0  0  0  0  0  0  0  0  0
  -35.9517  -45.5244   15.8912 O   0  0  0  0  0  0  0  0  0  0  0  0
  -37.2201  -46.5653   24.5791 H   0  0  0  0  0  0  0  0  0  0  0  0
  2  1  1  0
  1 23  3  0
  3  2  2  0
  6  2  1  0
  4  3  1  0
  5  4  2  0
 21  5  1  0
  5 28  1  0
 28  6  2  0
  7 10  2  0
  7 14  1  0
 24  7  1  0
  9  8  2  0
 15  8  1  0
  8 22  1  0
 10  9  1  0
 11 15  1  6
 16 11  1  6
 11 20  1  0
 11 25  1  0
 17 12  1  0
 12 18  2  0
 27 12  1  0
 13 19  2  0
 27 13  1  0
 14 15  2  0
 25 17  1  0
 17 26  2  0
 18 19  1  0
 20 27  1  6
 21 24  1  0
 21 29  2  0
 26 30  1  0
M  END
$$$$
