
     RDKit          3D

 30 33  0  0  0  0  0  0  0  0999 V2000
  -30.2061  -46.7803   17.2567 C   0  0  0  0  0  0  0  0  0  0  0  0
  -31.5505  -46.2412   17.4785 C   0  0  0  0  0  0  0  0  0  0  0  0
  -31.9809  -45.3222   16.7602 C   0  0  0  0  0  0  0  0  0  0  0  0
  -33.1693  -44.7572   16.5113 C   0  0  0  0  0  0  0  0  0  0  0  0
  -34.2731  -45.4569   17.3512 C   0  0  0  0  0  0  0  0  0  0  0  0
  -32.5681  -46.9547   18.3267 C   0  0  0  0  0  0  0  0  0  0  0  0
  -37.7177  -44.5473   17.8766 C   0  0  0  0  0  0  0  0  0  0  0  0
  -40.2078  -45.1732   18.6644 C   0  0  0  0  0  0  0  0  0  0  0  0
  -39.9826  -45.0344   17.2456 C   0  0  0  0  0  0  0  0  0  0  0  0
  -38.6602  -44.7088   17.0528 C   0  0  0  0  0  0  0  0  0  0  0  0
  -39.5450  -45.1793   21.0143 C   0  0  2  0  0  0  0  0  0  0  0  0
  -39.2228  -44.9896   23.7472 C   0  0  0  0  0  0  0  0  0  0  0  0
  -40.5109  -43.2007   23.9166 C   0  0  0  0  0  0  0  0  0  0  0  0
  -37.8631  -44.6757   19.2824 C   0  0  0  0  0  0  0  0  0  0  0  0
  -39.2097  -45.0046   19.5707 C   0  0  0  0  0  0  0  0  0  0  0  0
  -40.6138  -46.1240   21.2951 C   0  0  0  0  0  0  0  0  0  0  0  0
  -38.3900  -45.9318   23.0264 C   0  0  0  0  0  0  0  0  0  0  0  0
  -39.5843  -44.7777   25.0938 C   0  0  0  0  0  0  0  0  0  0  0  0
  -40.4005  -43.6488   25.2399 C   0  0  0  0  0  0  0  0  0  0  0  0
  -39.8207  -43.8011   21.6290 C   0  0  0  0  0  0  0  0  0  0  0  0
  -35.4436  -44.8042   17.1361 C   0  0  0  0  0  0  0  0  0  0  0  0
  -41.5066  -45.4288   19.0326 F   0  0  0  0  0  0  0  0  0  0  0  0
  -29.0150  -47.2512   17.0826 N   0  0  0  0  0  0  0  0  0  0  0  0
  -36.4431  -43.9099   17.4631 N   0  0  0  0  0  0  0  0  0  0  0  0
  -38.3104  -45.6949   21.6146 N   0  0  0  0  0  0  0  0  0  0  0  0
  -37.7631  -46.8570   23.6392 N   0  0  0  0  0  0  0  0  0  0  0  0
  -39.8623  -43.9673   23.0919 N   0  0  0  0  0  0  0  0  0  0  0  0
  -33.7069  -46.3531   18.0335 N   0  0  0  0  0  0  0  0  0  0  0  0
  -35.9588  -45.2737   15.8301 O   0  0  0  0  0  0  0  0  0  0  0  0
  -36.8635  -47.2174   23.3785 H   0  0  0  0  0  0  0  0  0  0  0  0
  2  1  1  0
  1 23  3  0
  3  2  2  0
  6  2  1  0
  4  3  1  0
  5  4  2  0
 21  5  1  0
  5 28  1  0
 28  6  2  0
  7 10  2  0
  7 14  1  0
 24  7  1  0
  9  8  2  0
 15  8  1  0
  8 22  1  0
 10  9  1  0
 15 11  1  0
 11 16  1  6
 11 20  1  0
 11 25  1  0
 17 12  1  0
 12 18  2  0
 27 12  1  0
 13 19  2  0
 27 13  1  0
 14 15  2  0
 25 17  1  0
 17 26  2  0
 18 19  1  0
 20 27  1  0
 21 24  1  0
 21 29  2  0
 26 30  1  0
M  END
$$$$
