
     RDKit          3D

 30 33  0  0  0  0  0  0  0  0999 V2000
  -30.2948  -46.6814   17.2487 C   0  0  0  0  0  0  0  0  0  0  0  0
  -31.6881  -46.2604   17.1634 C   0  0  0  0  0  0  0  0  0  0  0  0
  -32.0396  -45.1078   16.5022 C   0  0  0  0  0  0  0  0  0  0  0  0
  -33.3632  -44.7333   16.4314 C   0  0  0  0  0  0  0  0  0  0  0  0
  -34.3320  -45.5018   17.0153 C   0  0  0  0  0  0  0  0  0  0  0  0
  -32.7015  -47.0174   17.7457 C   0  0  0  0  0  0  0  0  0  0  0  0
  -38.0355  -45.8021   17.3005 C   0  0  0  0  0  0  0  0  0  0  0  0
  -40.5004  -45.4007   18.4631 C   0  0  0  0  0  0  0  0  0  0  0  0
  -40.3705  -45.3412   17.0745 C   0  0  0  0  0  0  0  0  0  0  0  0
  -39.1355  -45.5433   16.5089 C   0  0  0  0  0  0  0  0  0  0  0  0
  -39.5701  -45.7265   20.7537 C   0  0  2  0  0  0  0  0  0  0  0  0
  -38.2188  -44.6789   23.0215 C   0  0  0  0  0  0  0  0  0  0  0  0
  -39.4835  -42.9331   23.3216 C   0  0  0  0  0  0  0  0  0  0  0  0
  -38.2007  -45.8541   18.6810 C   0  0  0  0  0  0  0  0  0  0  0  0
  -39.4184  -45.6567   19.2678 C   0  0  0  0  0  0  0  0  0  0  0  0
  -40.7208  -46.7146   21.0519 C   0  0  0  0  0  0  0  0  0  0  0  0
  -37.7376  -45.8992   22.3867 C   0  0  0  0  0  0  0  0  0  0  0  0
  -37.7664  -44.0041   24.1725 C   0  0  0  0  0  0  0  0  0  0  0  0
  -38.5815  -42.9156   24.3307 C   0  0  0  0  0  0  0  0  0  0  0  0
  -39.9447  -44.4345   21.3446 C   0  0  0  0  0  0  0  0  0  0  0  0
  -35.7165  -45.1097   16.9411 C   0  0  0  0  0  0  0  0  0  0  0  0
  -41.7373  -45.1958   18.9899 F   0  0  0  0  0  0  0  0  0  0  0  0
  -29.2054  -46.9999   17.2988 N   0  0  0  0  0  0  0  0  0  0  0  0
  -36.7810  -46.0085   16.6578 N   0  0  0  0  0  0  0  0  0  0  0  0
  -38.3898  -46.3710   21.2310 N   0  0  0  0  0  0  0  0  0  0  0  0
  -36.7220  -46.5121   22.8921 N   0  0  0  0  0  0  0  0  0  0  0  0
  -39.2500  -44.0262   22.5193 N   0  0  0  0  0  0  0  0  0  0  0  0
  -33.9827  -46.6168   17.6538 N   0  0  0  0  0  0  0  0  0  0  0  0
  -36.0159  -43.8891   17.1393 O   0  0  0  0  0  0  0  0  0  0  0  0
  -36.9010  -47.3933   23.4197 H   0  0  0  0  0  0  0  0  0  0  0  0
  2  1  1  0
  1 23  3  0
  3  2  2  0
  6  2  1  0
  4  3  1  0
  5  4  2  0
 21  5  1  0
  5 28  1  0
 28  6  2  0
  7 10  2  0
  7 14  1  0
 24  7  1  0
  9  8  2  0
 15  8  1  0
  8 22  1  0
 10  9  1  0
 11 15  1  6
 16 11  1  6
 11 20  1  0
 11 25  1  0
 17 12  1  0
 12 18  2  0
 27 12  1  0
 13 19  2  0
 27 13  1  0
 14 15  2  0
 25 17  1  0
 17 26  2  0
 18 19  1  0
 20 27  1  6
 21 24  1  0
 21 29  2  0
 26 30  1  0
M  END
$$$$
