
     RDKit          3D

 30 33  0  0  0  0  0  0  0  0999 V2000
  -30.1035  -46.4107   17.7602 C   0  0  0  0  0  0  0  0  0  0  0  0
  -31.5320  -46.1962   17.5619 C   0  0  0  0  0  0  0  0  0  0  0  0
  -31.9937  -45.1014   16.8711 C   0  0  0  0  0  0  0  0  0  0  0  0
  -33.3478  -44.9228   16.6930 C   0  0  0  0  0  0  0  0  0  0  0  0
  -34.2378  -45.8292   17.1995 C   0  0  0  0  0  0  0  0  0  0  0  0
  -32.4675  -47.0977   18.0632 C   0  0  0  0  0  0  0  0  0  0  0  0
  -37.8910  -46.2286   17.8130 C   0  0  0  0  0  0  0  0  0  0  0  0
  -40.3615  -45.4310   18.7341 C   0  0  0  0  0  0  0  0  0  0  0  0
  -40.0988  -45.4292   17.3631 C   0  0  0  0  0  0  0  0  0  0  0  0
  -38.8626  -45.8294   16.9184 C   0  0  0  0  0  0  0  0  0  0  0  0
  -39.7030  -45.8303   21.1058 C   0  0  2  0  0  0  0  0  0  0  0  0
  -38.4320  -44.9125   23.4740 C   0  0  0  0  0  0  0  0  0  0  0  0
  -39.4649  -43.0027   23.6262 C   0  0  0  0  0  0  0  0  0  0  0  0
  -38.1866  -46.2179   19.1724 C   0  0  0  0  0  0  0  0  0  0  0  0
  -39.4083  -45.8244   19.6399 C   0  0  0  0  0  0  0  0  0  0  0  0
  -41.0017  -46.6435   21.3099 C   0  0  0  0  0  0  0  0  0  0  0  0
  -38.0685  -46.2046   22.9066 C   0  0  0  0  0  0  0  0  0  0  0  0
  -37.9973  -44.2731   24.6518 C   0  0  0  0  0  0  0  0  0  0  0  0
  -38.6649  -43.0796   24.7153 C   0  0  0  0  0  0  0  0  0  0  0  0
  -39.9474  -44.4830   21.6385 C   0  0  0  0  0  0  0  0  0  0  0  0
  -35.6543  -45.6421   17.0132 C   0  0  0  0  0  0  0  0  0  0  0  0
  -41.5956  -45.0287   19.1399 F   0  0  0  0  0  0  0  0  0  0  0  0
  -28.9868  -46.5638   17.9019 N   0  0  0  0  0  0  0  0  0  0  0  0
  -36.6293  -46.6381   17.2934 N   0  0  0  0  0  0  0  0  0  0  0  0
  -38.6717  -46.6159   21.7022 N   0  0  0  0  0  0  0  0  0  0  0  0
  -37.1978  -46.9356   23.5151 N   0  0  0  0  0  0  0  0  0  0  0  0
  -39.3128  -44.1399   22.8667 N   0  0  0  0  0  0  0  0  0  0  0  0
  -33.7819  -46.8870   17.8674 N   0  0  0  0  0  0  0  0  0  0  0  0
  -36.0686  -44.5228   16.5722 O   0  0  0  0  0  0  0  0  0  0  0  0
  -36.4273  -46.4503   24.0227 H   0  0  0  0  0  0  0  0  0  0  0  0
  2  1  1  0
  1 23  3  0
  3  2  2  0
  6  2  1  0
  4  3  1  0
  5  4  2  0
 21  5  1  0
  5 28  1  0
 28  6  2  0
  7 10  2  0
  7 14  1  0
 24  7  1  0
  9  8  2  0
 15  8  1  0
  8 22  1  0
 10  9  1  0
 11 15  1  6
 16 11  1  6
 11 20  1  0
 11 25  1  0
 17 12  1  0
 12 18  2  0
 27 12  1  0
 13 19  2  0
 27 13  1  0
 14 15  2  0
 25 17  1  0
 17 26  2  0
 18 19  1  0
 20 27  1  6
 21 24  1  0
 21 29  2  0
 26 30  1  0
M  END
$$$$
