
     RDKit          3D

 30 33  0  0  0  0  0  0  0  0999 V2000
  -30.2649  -47.0633   17.4508 C   0  0  0  0  0  0  0  0  0  0  0  0
  -31.6307  -46.5643   17.3435 C   0  0  0  0  0  0  0  0  0  0  0  0
  -31.9421  -45.5332   16.4897 C   0  0  0  0  0  0  0  0  0  0  0  0
  -33.2406  -45.0822   16.4026 C   0  0  0  0  0  0  0  0  0  0  0  0
  -34.2242  -45.6544   17.1611 C   0  0  0  0  0  0  0  0  0  0  0  0
  -32.6581  -47.1223   18.1000 C   0  0  0  0  0  0  0  0  0  0  0  0
  -37.6130  -44.9074   18.4070 C   0  0  0  0  0  0  0  0  0  0  0  0
  -40.2267  -45.6535   18.8543 C   0  0  0  0  0  0  0  0  0  0  0  0
  -39.7562  -45.5254   17.5463 C   0  0  0  0  0  0  0  0  0  0  0  0
  -38.4508  -45.1527   17.3385 C   0  0  0  0  0  0  0  0  0  0  0  0
  -39.9211  -45.5622   21.3274 C   0  0  2  0  0  0  0  0  0  0  0  0
  -39.0825  -44.7921   23.9293 C   0  0  0  0  0  0  0  0  0  0  0  0
  -40.2439  -42.9565   24.0680 C   0  0  0  0  0  0  0  0  0  0  0  0
  -38.1149  -45.0444   19.6973 C   0  0  0  0  0  0  0  0  0  0  0  0
  -39.4092  -45.4139   19.9304 C   0  0  0  0  0  0  0  0  0  0  0  0
  -41.1823  -46.4535   21.2623 C   0  0  0  0  0  0  0  0  0  0  0  0
  -38.5574  -46.0101   23.3260 C   0  0  0  0  0  0  0  0  0  0  0  0
  -38.8717  -44.2368   25.2069 C   0  0  0  0  0  0  0  0  0  0  0  0
  -39.6145  -43.0880   25.2590 C   0  0  0  0  0  0  0  0  0  0  0  0
  -40.3269  -44.2802   21.9195 C   0  0  0  0  0  0  0  0  0  0  0  0
  -35.5825  -45.1822   17.0699 C   0  0  0  0  0  0  0  0  0  0  0  0
  -41.5242  -46.0241   19.0240 F   0  0  0  0  0  0  0  0  0  0  0  0
  -29.2053  -47.4666   17.5223 N   0  0  0  0  0  0  0  0  0  0  0  0
  -36.2677  -44.5290   18.1306 N   0  0  0  0  0  0  0  0  0  0  0  0
  -38.9447  -46.3445   22.0138 N   0  0  0  0  0  0  0  0  0  0  0  0
  -37.7447  -46.7472   24.0035 N   0  0  0  0  0  0  0  0  0  0  0  0
  -39.9080  -44.0142   23.2547 N   0  0  0  0  0  0  0  0  0  0  0  0
  -33.9138  -46.6528   17.9856 N   0  0  0  0  0  0  0  0  0  0  0  0
  -36.2159  -45.3547   15.9800 O   0  0  0  0  0  0  0  0  0  0  0  0
  -37.4111  -47.6316   23.5637 H   0  0  0  0  0  0  0  0  0  0  0  0
  2  1  1  0
  1 23  3  0
  3  2  2  0
  6  2  1  0
  4  3  1  0
  5  4  2  0
 21  5  1  0
  5 28  1  0
 28  6  2  0
  7 10  2  0
  7 14  1  0
 24  7  1  0
  9  8  2  0
 15  8  1  0
  8 22  1  0
 10  9  1  0
 11 15  1  6
 16 11  1  6
 11 20  1  0
 11 25  1  0
 17 12  1  0
 12 18  2  0
 27 12  1  0
 13 19  2  0
 27 13  1  0
 14 15  2  0
 25 17  1  0
 17 26  2  0
 18 19  1  0
 20 27  1  6
 21 24  1  0
 21 29  2  0
 26 30  1  0
M  END
$$$$
