
     RDKit          3D

 30 33  0  0  0  0  0  0  0  0999 V2000
  -30.9370  -44.9981   17.7053 C   0  0  0  0  0  0  0  0  0  0  0  0
  -32.3821  -45.2344   17.7629 C   0  0  0  0  0  0  0  0  0  0  0  0
  -33.1304  -44.7388   16.9026 C   0  0  0  0  0  0  0  0  0  0  0  0
  -34.3971  -44.9069   16.5018 C   0  0  0  0  0  0  0  0  0  0  0  0
  -35.0766  -46.0171   17.3496 C   0  0  0  0  0  0  0  0  0  0  0  0
  -32.9824  -46.3104   18.6266 C   0  0  0  0  0  0  0  0  0  0  0  0
  -38.7119  -46.2194   17.5402 C   0  0  0  0  0  0  0  0  0  0  0  0
  -40.4857  -44.7575   18.9292 C   0  0  0  0  0  0  0  0  0  0  0  0
  -40.6217  -44.7650   17.4924 C   0  0  0  0  0  0  0  0  0  0  0  0
  -39.6250  -45.5578   16.9731 C   0  0  0  0  0  0  0  0  0  0  0  0
  -39.4628  -45.3941   21.0529 C   0  0  2  0  0  0  0  0  0  0  0  0
  -38.3739  -44.9672   23.5510 C   0  0  0  0  0  0  0  0  0  0  0  0
  -39.2285  -42.9360   23.7314 C   0  0  0  0  0  0  0  0  0  0  0  0
  -38.5230  -46.2657   18.9460 C   0  0  0  0  0  0  0  0  0  0  0  0
  -39.5116  -45.4615   19.5629 C   0  0  0  0  0  0  0  0  0  0  0  0
  -40.5629  -46.0490   21.7419 C   0  0  0  0  0  0  0  0  0  0  0  0
  -37.9515  -46.1422   22.8150 C   0  0  0  0  0  0  0  0  0  0  0  0
  -38.3081  -44.5301   24.8903 C   0  0  0  0  0  0  0  0  0  0  0  0
  -38.8399  -43.2432   25.0423 C   0  0  0  0  0  0  0  0  0  0  0  0
  -39.3109  -43.9279   21.4776 C   0  0  0  0  0  0  0  0  0  0  0  0
  -36.3778  -46.0989   16.9720 C   0  0  0  0  0  0  0  0  0  0  0  0
  -41.3692  -43.9472   19.6006 F   0  0  0  0  0  0  0  0  0  0  0  0
  -29.6605  -44.7966   17.6760 N   0  0  0  0  0  0  0  0  0  0  0  0
  -37.5697  -46.7639   16.7653 N   0  0  0  0  0  0  0  0  0  0  0  0
  -38.2222  -46.0907   21.4080 N   0  0  0  0  0  0  0  0  0  0  0  0
  -37.3542  -47.1041   23.4001 N   0  0  0  0  0  0  0  0  0  0  0  0
  -38.9777  -43.9130   22.9123 N   0  0  0  0  0  0  0  0  0  0  0  0
  -34.2204  -46.4246   18.1805 N   0  0  0  0  0  0  0  0  0  0  0  0
  -36.7872  -44.7375   16.5588 O   0  0  0  0  0  0  0  0  0  0  0  0
  -36.3606  -47.2440   23.4165 H   0  0  0  0  0  0  0  0  0  0  0  0
  2  1  1  0
  1 23  3  0
  3  2  2  0
  6  2  1  0
  4  3  1  0
  5  4  2  0
 21  5  1  0
  5 28  1  0
 28  6  2  0
  7 10  2  0
  7 14  1  0
 24  7  1  0
  9  8  2  0
 15  8  1  0
  8 22  1  0
 10  9  1  0
 15 11  1  0
 11 16  1  1
 11 20  1  0
 11 25  1  0
 17 12  1  0
 12 18  2  0
 27 12  1  0
 13 19  2  0
 27 13  1  0
 14 15  2  0
 25 17  1  0
 17 26  2  0
 18 19  1  0
 20 27  1  0
 21 24  1  0
 21 29  2  0
 26 30  1  0
M  END
$$$$
