
     RDKit          3D

 30 33  0  0  0  0  0  0  0  0999 V2000
  -30.0087  -46.5509   17.1043 C   0  0  0  0  0  0  0  0  0  0  0  0
  -31.3938  -46.1214   17.3148 C   0  0  0  0  0  0  0  0  0  0  0  0
  -31.8768  -45.2094   16.6214 C   0  0  0  0  0  0  0  0  0  0  0  0
  -33.0988  -44.7243   16.3662 C   0  0  0  0  0  0  0  0  0  0  0  0
  -34.1642  -45.5356   17.1535 C   0  0  0  0  0  0  0  0  0  0  0  0
  -32.3725  -46.9406   18.1118 C   0  0  0  0  0  0  0  0  0  0  0  0
  -37.6393  -44.7519   17.7208 C   0  0  0  0  0  0  0  0  0  0  0  0
  -40.0730  -45.4248   18.6357 C   0  0  0  0  0  0  0  0  0  0  0  0
  -39.9071  -45.3478   17.2041 C   0  0  0  0  0  0  0  0  0  0  0  0
  -38.6059  -44.9862   16.9437 C   0  0  0  0  0  0  0  0  0  0  0  0
  -39.3216  -45.2929   20.9551 C   0  0  2  0  0  0  0  0  0  0  0  0
  -38.8707  -45.0174   23.6624 C   0  0  0  0  0  0  0  0  0  0  0  0
  -40.1039  -43.1895   23.8249 C   0  0  0  0  0  0  0  0  0  0  0  0
  -37.7264  -44.8164   19.1358 C   0  0  0  0  0  0  0  0  0  0  0  0
  -39.0481  -45.1774   19.4927 C   0  0  0  0  0  0  0  0  0  0  0  0
  -40.4002  -46.1981   21.3170 C   0  0  0  0  0  0  0  0  0  0  0  0
  -38.0958  -46.0062   22.9394 C   0  0  0  0  0  0  0  0  0  0  0  0
  -39.1650  -44.7492   25.0153 C   0  0  0  0  0  0  0  0  0  0  0  0
  -39.9449  -43.5943   25.1571 C   0  0  0  0  0  0  0  0  0  0  0  0
  -39.5340  -43.8873   21.5317 C   0  0  0  0  0  0  0  0  0  0  0  0
  -35.3755  -44.9631   16.9358 C   0  0  0  0  0  0  0  0  0  0  0  0
  -41.3467  -45.7071   19.0670 F   0  0  0  0  0  0  0  0  0  0  0  0
  -28.7803  -46.9081   16.9192 N   0  0  0  0  0  0  0  0  0  0  0  0
  -36.4056  -44.0916   17.2272 N   0  0  0  0  0  0  0  0  0  0  0  0
  -38.0745  -45.8205   21.5178 N   0  0  0  0  0  0  0  0  0  0  0  0
  -37.4653  -46.9261   23.5564 N   0  0  0  0  0  0  0  0  0  0  0  0
  -39.5132  -44.0015   23.0001 N   0  0  0  0  0  0  0  0  0  0  0  0
  -33.5467  -46.4136   17.8149 N   0  0  0  0  0  0  0  0  0  0  0  0
  -35.9209  -45.5768   15.7040 O   0  0  0  0  0  0  0  0  0  0  0  0
  -36.4732  -47.0726   23.5198 H   0  0  0  0  0  0  0  0  0  0  0  0
  2  1  1  0
  1 23  3  0
  3  2  2  0
  6  2  1  0
  4  3  1  0
  5  4  2  0
 21  5  1  0
  5 28  1  0
 28  6  2  0
  7 10  2  0
  7 14  1  0
 24  7  1  0
  9  8  2  0
 15  8  1  0
  8 22  1  0
 10  9  1  0
 15 11  1  0
 11 16  1  6
 11 20  1  0
 11 25  1  0
 17 12  1  0
 12 18  2  0
 27 12  1  0
 13 19  2  0
 27 13  1  0
 14 15  2  0
 25 17  1  0
 17 26  2  0
 18 19  1  0
 20 27  1  0
 21 24  1  0
 21 29  2  0
 26 30  1  0
M  END
$$$$
