
     RDKit          3D

 30 33  0  0  0  0  0  0  0  0999 V2000
  -30.0918  -46.9839   16.9757 C   0  0  0  0  0  0  0  0  0  0  0  0
  -31.3900  -46.3639   17.2544 C   0  0  0  0  0  0  0  0  0  0  0  0
  -31.8797  -45.5524   16.4498 C   0  0  0  0  0  0  0  0  0  0  0  0
  -33.0763  -44.9867   16.2455 C   0  0  0  0  0  0  0  0  0  0  0  0
  -34.0916  -45.5019   17.3024 C   0  0  0  0  0  0  0  0  0  0  0  0
  -32.3189  -46.8950   18.3122 C   0  0  0  0  0  0  0  0  0  0  0  0
  -37.5329  -44.6049   17.8787 C   0  0  0  0  0  0  0  0  0  0  0  0
  -40.0220  -45.2484   18.6552 C   0  0  0  0  0  0  0  0  0  0  0  0
  -39.7938  -45.0980   17.2381 C   0  0  0  0  0  0  0  0  0  0  0  0
  -38.4725  -44.7647   17.0512 C   0  0  0  0  0  0  0  0  0  0  0  0
  -39.3653  -45.2687   21.0068 C   0  0  2  0  0  0  0  0  0  0  0  0
  -39.0403  -45.1182   23.7418 C   0  0  0  0  0  0  0  0  0  0  0  0
  -40.2989  -43.3105   23.9335 C   0  0  0  0  0  0  0  0  0  0  0  0
  -37.6813  -44.7444   19.2832 C   0  0  0  0  0  0  0  0  0  0  0  0
  -39.0271  -45.0818   19.5654 C   0  0  0  0  0  0  0  0  0  0  0  0
  -40.4496  -46.1992   21.2760 C   0  0  0  0  0  0  0  0  0  0  0  0
  -38.2230  -46.0650   23.0093 C   0  0  0  0  0  0  0  0  0  0  0  0
  -39.3983  -44.9170   25.0910 C   0  0  0  0  0  0  0  0  0  0  0  0
  -40.1960  -43.7767   25.2510 C   0  0  0  0  0  0  0  0  0  0  0  0
  -39.6185  -43.8939   21.6385 C   0  0  0  0  0  0  0  0  0  0  0  0
  -35.2645  -44.8451   17.1153 C   0  0  0  0  0  0  0  0  0  0  0  0
  -41.3206  -45.5128   19.0182 F   0  0  0  0  0  0  0  0  0  0  0  0
  -28.9410  -47.5282   16.7516 N   0  0  0  0  0  0  0  0  0  0  0  0
  -36.2602  -43.9585   17.4734 N   0  0  0  0  0  0  0  0  0  0  0  0
  -38.1394  -45.8120   21.6005 N   0  0  0  0  0  0  0  0  0  0  0  0
  -37.6115  -47.0078   23.6106 N   0  0  0  0  0  0  0  0  0  0  0  0
  -39.6629  -44.0774   23.0993 N   0  0  0  0  0  0  0  0  0  0  0  0
  -33.4705  -46.3020   18.0531 N   0  0  0  0  0  0  0  0  0  0  0  0
  -35.7950  -45.2863   15.8055 O   0  0  0  0  0  0  0  0  0  0  0  0
  -36.6183  -47.0606   23.7444 H   0  0  0  0  0  0  0  0  0  0  0  0
  2  1  1  0
  1 23  3  0
  3  2  2  0
  6  2  1  0
  4  3  1  0
  5  4  2  0
 21  5  1  0
  5 28  1  0
 28  6  2  0
  7 10  2  0
  7 14  1  0
 24  7  1  0
  9  8  2  0
 15  8  1  0
  8 22  1  0
 10  9  1  0
 15 11  1  0
 11 16  1  6
 11 20  1  0
 11 25  1  0
 17 12  1  0
 12 18  2  0
 27 12  1  0
 13 19  2  0
 27 13  1  0
 14 15  2  0
 25 17  1  0
 17 26  2  0
 18 19  1  0
 20 27  1  0
 21 24  1  0
 21 29  2  0
 26 30  1  0
M  END
$$$$
