
     RDKit          3D

 30 33  0  0  0  0  0  0  0  0999 V2000
  -30.0192  -46.2864   17.2242 C   0  0  0  0  0  0  0  0  0  0  0  0
  -31.4488  -46.0230   17.4090 C   0  0  0  0  0  0  0  0  0  0  0  0
  -31.9987  -45.0980   16.7862 C   0  0  0  0  0  0  0  0  0  0  0  0
  -33.2544  -44.7152   16.5215 C   0  0  0  0  0  0  0  0  0  0  0  0
  -34.2574  -45.7066   17.1730 C   0  0  0  0  0  0  0  0  0  0  0  0
  -32.3650  -47.0143   18.0736 C   0  0  0  0  0  0  0  0  0  0  0  0
  -37.8024  -44.9072   17.6136 C   0  0  0  0  0  0  0  0  0  0  0  0
  -40.2552  -45.4232   18.5779 C   0  0  0  0  0  0  0  0  0  0  0  0
  -40.1143  -45.3530   17.1433 C   0  0  0  0  0  0  0  0  0  0  0  0
  -38.7980  -45.0759   16.8564 C   0  0  0  0  0  0  0  0  0  0  0  0
  -39.4492  -45.3470   20.8814 C   0  0  2  0  0  0  0  0  0  0  0  0
  -38.9368  -45.0838   23.5789 C   0  0  0  0  0  0  0  0  0  0  0  0
  -40.0943  -43.2087   23.7594 C   0  0  0  0  0  0  0  0  0  0  0  0
  -37.8642  -44.9699   19.0301 C   0  0  0  0  0  0  0  0  0  0  0  0
  -39.1990  -45.2453   19.4138 C   0  0  0  0  0  0  0  0  0  0  0  0
  -40.5553  -46.2085   21.2660 C   0  0  0  0  0  0  0  0  0  0  0  0
  -38.2149  -46.1036   22.8443 C   0  0  0  0  0  0  0  0  0  0  0  0
  -39.1948  -44.8015   24.9364 C   0  0  0  0  0  0  0  0  0  0  0  0
  -39.9260  -43.6166   25.0895 C   0  0  0  0  0  0  0  0  0  0  0  0
  -39.5955  -43.9329   21.4580 C   0  0  0  0  0  0  0  0  0  0  0  0
  -35.5131  -45.2400   16.9546 C   0  0  0  0  0  0  0  0  0  0  0  0
  -41.5354  -45.6235   19.0352 F   0  0  0  0  0  0  0  0  0  0  0  0
  -28.7632  -46.5356   17.0471 N   0  0  0  0  0  0  0  0  0  0  0  0
  -36.5388  -44.3269   17.0955 N   0  0  0  0  0  0  0  0  0  0  0  0
  -38.2132  -45.9219   21.4221 N   0  0  0  0  0  0  0  0  0  0  0  0
  -37.6094  -47.0463   23.4520 N   0  0  0  0  0  0  0  0  0  0  0  0
  -39.5515  -44.0448   22.9259 N   0  0  0  0  0  0  0  0  0  0  0  0
  -33.5762  -46.5809   17.7738 N   0  0  0  0  0  0  0  0  0  0  0  0
  -36.1813  -46.2170   16.0655 O   0  0  0  0  0  0  0  0  0  0  0  0
  -36.7668  -47.4908   23.1366 H   0  0  0  0  0  0  0  0  0  0  0  0
  2  1  1  0
  1 23  3  0
  3  2  2  0
  6  2  1  0
  4  3  1  0
  5  4  2  0
 21  5  1  0
  5 28  1  0
 28  6  2  0
  7 10  2  0
  7 14  1  0
 24  7  1  0
  9  8  2  0
 15  8  1  0
  8 22  1  0
 10  9  1  0
 15 11  1  0
 11 16  1  6
 11 20  1  0
 11 25  1  0
 17 12  1  0
 12 18  2  0
 27 12  1  0
 13 19  2  0
 27 13  1  0
 14 15  2  0
 25 17  1  0
 17 26  2  0
 18 19  1  0
 20 27  1  0
 21 24  1  0
 21 29  2  0
 26 30  1  0
M  END
$$$$
