
     RDKit          3D

 30 33  0  0  0  0  0  0  0  0999 V2000
  -30.2078  -46.1371   17.5216 C   0  0  0  0  0  0  0  0  0  0  0  0
  -31.6374  -45.9123   17.3434 C   0  0  0  0  0  0  0  0  0  0  0  0
  -32.0995  -44.8568   16.5940 C   0  0  0  0  0  0  0  0  0  0  0  0
  -33.4547  -44.6678   16.4366 C   0  0  0  0  0  0  0  0  0  0  0  0
  -34.3455  -45.5248   17.0218 C   0  0  0  0  0  0  0  0  0  0  0  0
  -32.5737  -46.7639   17.9241 C   0  0  0  0  0  0  0  0  0  0  0  0
  -37.9881  -45.8508   17.7296 C   0  0  0  0  0  0  0  0  0  0  0  0
  -40.4234  -44.9764   18.6744 C   0  0  0  0  0  0  0  0  0  0  0  0
  -40.1552  -44.9346   17.3052 C   0  0  0  0  0  0  0  0  0  0  0  0
  -38.9367  -45.3738   16.8485 C   0  0  0  0  0  0  0  0  0  0  0  0
  -39.7938  -45.4953   21.0308 C   0  0  2  0  0  0  0  0  0  0  0  0
  -38.5403  -44.6318   23.4286 C   0  0  0  0  0  0  0  0  0  0  0  0
  -39.5896  -42.7353   23.6280 C   0  0  0  0  0  0  0  0  0  0  0  0
  -38.2886  -45.8781   19.0878 C   0  0  0  0  0  0  0  0  0  0  0  0
  -39.4930  -45.4471   19.5669 C   0  0  0  0  0  0  0  0  0  0  0  0
  -41.0866  -46.3242   21.2071 C   0  0  0  0  0  0  0  0  0  0  0  0
  -38.1638  -45.9049   22.8280 C   0  0  0  0  0  0  0  0  0  0  0  0
  -38.1159  -44.0210   24.6252 C   0  0  0  0  0  0  0  0  0  0  0  0
  -38.7935  -42.8351   24.7181 C   0  0  0  0  0  0  0  0  0  0  0  0
  -40.0515  -44.1649   21.5987 C   0  0  0  0  0  0  0  0  0  0  0  0
  -35.7631  -45.3267   16.8570 C   0  0  0  0  0  0  0  0  0  0  0  0
  -41.6396  -44.5338   19.0924 F   0  0  0  0  0  0  0  0  0  0  0  0
  -29.0927  -46.3178   17.6419 N   0  0  0  0  0  0  0  0  0  0  0  0
  -36.7443  -46.2975   17.1979 N   0  0  0  0  0  0  0  0  0  0  0  0
  -38.7585  -46.2883   21.6103 N   0  0  0  0  0  0  0  0  0  0  0  0
  -37.2897  -46.6451   23.4203 N   0  0  0  0  0  0  0  0  0  0  0  0
  -39.4250  -43.8501   22.8386 N   0  0  0  0  0  0  0  0  0  0  0  0
  -33.8892  -46.5446   17.7461 N   0  0  0  0  0  0  0  0  0  0  0  0
  -36.1728  -44.2210   16.3790 O   0  0  0  0  0  0  0  0  0  0  0  0
  -37.5516  -47.0644   24.3381 H   0  0  0  0  0  0  0  0  0  0  0  0
  2  1  1  0
  1 23  3  0
  3  2  2  0
  6  2  1  0
  4  3  1  0
  5  4  2  0
 21  5  1  0
  5 28  1  0
 28  6  2  0
  7 10  2  0
  7 14  1  0
 24  7  1  0
  9  8  2  0
 15  8  1  0
  8 22  1  0
 10  9  1  0
 11 15  1  6
 16 11  1  6
 11 20  1  0
 11 25  1  0
 17 12  1  0
 12 18  2  0
 27 12  1  0
 13 19  2  0
 27 13  1  0
 14 15  2  0
 25 17  1  0
 17 26  2  0
 18 19  1  0
 20 27  1  6
 21 24  1  0
 21 29  2  0
 26 30  1  0
M  END
$$$$
