
     RDKit          3D

 30 33  0  0  0  0  0  0  0  0999 V2000
  -30.2491  -46.3948   17.3157 C   0  0  0  0  0  0  0  0  0  0  0  0
  -31.6813  -46.1603   17.1763 C   0  0  0  0  0  0  0  0  0  0  0  0
  -32.1559  -45.0766   16.4767 C   0  0  0  0  0  0  0  0  0  0  0  0
  -33.5136  -44.8788   16.3551 C   0  0  0  0  0  0  0  0  0  0  0  0
  -34.3945  -45.7550   16.9265 C   0  0  0  0  0  0  0  0  0  0  0  0
  -32.6078  -47.0310   17.7444 C   0  0  0  0  0  0  0  0  0  0  0  0
  -38.0314  -46.0534   17.7031 C   0  0  0  0  0  0  0  0  0  0  0  0
  -40.4576  -45.1597   18.6532 C   0  0  0  0  0  0  0  0  0  0  0  0
  -40.2045  -45.1507   17.2804 C   0  0  0  0  0  0  0  0  0  0  0  0
  -38.9904  -45.5991   16.8212 C   0  0  0  0  0  0  0  0  0  0  0  0
  -39.8015  -45.6208   21.0143 C   0  0  2  0  0  0  0  0  0  0  0  0
  -38.4901  -44.7618   23.3826 C   0  0  0  0  0  0  0  0  0  0  0  0
  -39.4703  -42.8267   23.5615 C   0  0  0  0  0  0  0  0  0  0  0  0
  -38.3170  -46.0484   19.0647 C   0  0  0  0  0  0  0  0  0  0  0  0
  -39.5168  -45.6076   19.5465 C   0  0  0  0  0  0  0  0  0  0  0  0
  -41.1201  -46.4009   21.2194 C   0  0  0  0  0  0  0  0  0  0  0  0
  -38.1653  -46.0572   22.7995 C   0  0  0  0  0  0  0  0  0  0  0  0
  -38.0303  -44.1464   24.5636 C   0  0  0  0  0  0  0  0  0  0  0  0
  -38.6651  -42.9361   24.6440 C   0  0  0  0  0  0  0  0  0  0  0  0
  -40.0059  -44.2729   21.5623 C   0  0  0  0  0  0  0  0  0  0  0  0
  -35.8146  -45.5478   16.7992 C   0  0  0  0  0  0  0  0  0  0  0  0
  -41.6698  -44.7088   19.0736 F   0  0  0  0  0  0  0  0  0  0  0  0
  -29.1304  -46.5586   17.4273 N   0  0  0  0  0  0  0  0  0  0  0  0
  -36.7927  -46.5112   17.1687 N   0  0  0  0  0  0  0  0  0  0  0  0
  -38.7875  -46.4398   21.5954 N   0  0  0  0  0  0  0  0  0  0  0  0
  -37.3104  -46.8175   23.3943 N   0  0  0  0  0  0  0  0  0  0  0  0
  -39.3540  -43.9596   22.7894 N   0  0  0  0  0  0  0  0  0  0  0  0
  -33.9261  -46.8023   17.6025 N   0  0  0  0  0  0  0  0  0  0  0  0
  -36.2295  -44.4405   16.3297 O   0  0  0  0  0  0  0  0  0  0  0  0
  -36.5004  -46.3603   23.8653 H   0  0  0  0  0  0  0  0  0  0  0  0
  2  1  1  0
  1 23  3  0
  3  2  2  0
  6  2  1  0
  4  3  1  0
  5  4  2  0
 21  5  1  0
  5 28  1  0
 28  6  2  0
  7 10  2  0
  7 14  1  0
 24  7  1  0
  9  8  2  0
 15  8  1  0
  8 22  1  0
 10  9  1  0
 11 15  1  6
 16 11  1  6
 11 20  1  0
 11 25  1  0
 17 12  1  0
 12 18  2  0
 27 12  1  0
 13 19  2  0
 27 13  1  0
 14 15  2  0
 25 17  1  0
 17 26  2  0
 18 19  1  0
 20 27  1  6
 21 24  1  0
 21 29  2  0
 26 30  1  0
M  END
$$$$
