
     RDKit          3D

 30 33  0  0  0  0  0  0  0  0999 V2000
  -30.6696  -45.3256   17.5647 C   0  0  0  0  0  0  0  0  0  0  0  0
  -32.1243  -45.4858   17.6389 C   0  0  0  0  0  0  0  0  0  0  0  0
  -32.8593  -44.8973   16.8271 C   0  0  0  0  0  0  0  0  0  0  0  0
  -34.1406  -44.9705   16.4442 C   0  0  0  0  0  0  0  0  0  0  0  0
  -34.8654  -46.0928   17.2369 C   0  0  0  0  0  0  0  0  0  0  0  0
  -32.7679  -46.5792   18.4478 C   0  0  0  0  0  0  0  0  0  0  0  0
  -38.5450  -46.1422   17.2940 C   0  0  0  0  0  0  0  0  0  0  0  0
  -40.3651  -44.7042   18.6475 C   0  0  0  0  0  0  0  0  0  0  0  0
  -40.4490  -44.6820   17.2069 C   0  0  0  0  0  0  0  0  0  0  0  0
  -39.4356  -45.4667   16.7078 C   0  0  0  0  0  0  0  0  0  0  0  0
  -39.4212  -45.3867   20.7933 C   0  0  2  0  0  0  0  0  0  0  0  0
  -38.4264  -45.0025   23.3372 C   0  0  0  0  0  0  0  0  0  0  0  0
  -39.3056  -42.9829   23.5283 C   0  0  0  0  0  0  0  0  0  0  0  0
  -38.4072  -46.2176   18.7045 C   0  0  0  0  0  0  0  0  0  0  0  0
  -39.4161  -45.4236   19.3015 C   0  0  0  0  0  0  0  0  0  0  0  0
  -40.5391  -46.0651   21.4288 C   0  0  0  0  0  0  0  0  0  0  0  0
  -37.9670  -46.1584   22.5930 C   0  0  0  0  0  0  0  0  0  0  0  0
  -38.4126  -44.5929   24.6867 C   0  0  0  0  0  0  0  0  0  0  0  0
  -38.9613  -43.3140   24.8457 C   0  0  0  0  0  0  0  0  0  0  0  0
  -39.2981  -43.9284   21.2532 C   0  0  0  0  0  0  0  0  0  0  0  0
  -36.1758  -46.0796   16.8832 C   0  0  0  0  0  0  0  0  0  0  0  0
  -41.2709  -43.9054   19.3029 F   0  0  0  0  0  0  0  0  0  0  0  0
  -29.3855  -45.2009   17.4839 N   0  0  0  0  0  0  0  0  0  0  0  0
  -37.3764  -46.6738   16.5500 N   0  0  0  0  0  0  0  0  0  0  0  0
  -38.1877  -46.0800   21.1785 N   0  0  0  0  0  0  0  0  0  0  0  0
  -37.3822  -47.1271   23.1794 N   0  0  0  0  0  0  0  0  0  0  0  0
  -39.0166  -43.9406   22.6989 N   0  0  0  0  0  0  0  0  0  0  0  0
  -34.0183  -46.5975   18.0224 N   0  0  0  0  0  0  0  0  0  0  0  0
  -36.5866  -44.6585   16.8255 O   0  0  0  0  0  0  0  0  0  0  0  0
  -37.1987  -47.1814   24.1645 H   0  0  0  0  0  0  0  0  0  0  0  0
  2  1  1  0
  1 23  3  0
  3  2  2  0
  6  2  1  0
  4  3  1  0
  5  4  2  0
 21  5  1  0
  5 28  1  0
 28  6  2  0
  7 10  2  0
  7 14  1  0
 24  7  1  0
  9  8  2  0
 15  8  1  0
  8 22  1  0
 10  9  1  0
 15 11  1  0
 11 16  1  1
 11 20  1  0
 11 25  1  0
 17 12  1  0
 12 18  2  0
 27 12  1  0
 13 19  2  0
 27 13  1  0
 14 15  2  0
 25 17  1  0
 17 26  2  0
 18 19  1  0
 20 27  1  0
 21 24  1  0
 21 29  2  0
 26 30  1  0
M  END
$$$$
