
     RDKit          3D

 30 33  0  0  0  0  0  0  0  0999 V2000
  -29.5995  -46.9495   16.3453 C   0  0  0  0  0  0  0  0  0  0  0  0
  -30.9841  -46.5438   16.5551 C   0  0  0  0  0  0  0  0  0  0  0  0
  -31.5268  -45.4922   15.8561 C   0  0  0  0  0  0  0  0  0  0  0  0
  -32.8388  -45.1306   16.0687 C   0  0  0  0  0  0  0  0  0  0  0  0
  -33.6068  -45.8121   16.9720 C   0  0  0  0  0  0  0  0  0  0  0  0
  -31.7960  -47.2141   17.4665 C   0  0  0  0  0  0  0  0  0  0  0  0
  -36.9947  -45.3862   18.5806 C   0  0  0  0  0  0  0  0  0  0  0  0
  -39.7451  -45.4983   18.6839 C   0  0  0  0  0  0  0  0  0  0  0  0
  -39.1017  -45.3800   17.4508 C   0  0  0  0  0  0  0  0  0  0  0  0
  -37.7299  -45.3252   17.4146 C   0  0  0  0  0  0  0  0  0  0  0  0
  -39.7306  -45.6955   21.1697 C   0  0  2  0  0  0  0  0  0  0  0  0
  -39.2293  -44.9500   23.8640 C   0  0  0  0  0  0  0  0  0  0  0  0
  -40.3491  -43.0836   23.8530 C   0  0  0  0  0  0  0  0  0  0  0  0
  -37.6683  -45.5038   19.7922 C   0  0  0  0  0  0  0  0  0  0  0  0
  -39.0317  -45.5604   19.8548 C   0  0  0  0  0  0  0  0  0  0  0  0
  -40.9951  -46.5522   20.9318 C   0  0  0  0  0  0  0  0  0  0  0  0
  -38.6606  -46.1815   23.3315 C   0  0  0  0  0  0  0  0  0  0  0  0
  -39.1773  -44.4014   25.1606 C   0  0  0  0  0  0  0  0  0  0  0  0
  -39.8893  -43.2328   25.1173 C   0  0  0  0  0  0  0  0  0  0  0  0
  -40.1778  -44.4033   21.7072 C   0  0  0  0  0  0  0  0  0  0  0  0
  -34.9791  -45.4335   17.1942 C   0  0  0  0  0  0  0  0  0  0  0  0
  -41.1041  -45.5498   18.6835 F   0  0  0  0  0  0  0  0  0  0  0  0
  -28.5193  -47.2530   16.1671 N   0  0  0  0  0  0  0  0  0  0  0  0
  -35.5747  -45.3299   18.4810 N   0  0  0  0  0  0  0  0  0  0  0  0
  -38.8768  -46.5044   21.9778 N   0  0  0  0  0  0  0  0  0  0  0  0
  -37.9665  -46.9407   24.1090 N   0  0  0  0  0  0  0  0  0  0  0  0
  -39.9353  -44.1496   23.0878 N   0  0  0  0  0  0  0  0  0  0  0  0
  -33.0730  -46.8296   17.6448 N   0  0  0  0  0  0  0  0  0  0  0  0
  -35.7109  -45.1740   16.1862 O   0  0  0  0  0  0  0  0  0  0  0  0
  -37.0178  -46.6107   24.3881 H   0  0  0  0  0  0  0  0  0  0  0  0
  2  1  1  0
  1 23  3  0
  3  2  2  0
  6  2  1  0
  4  3  1  0
  5  4  2  0
 21  5  1  0
  5 28  1  0
 28  6  2  0
  7 10  2  0
  7 14  1  0
 24  7  1  0
  9  8  2  0
 15  8  1  0
  8 22  1  0
 10  9  1  0
 11 15  1  6
 16 11  1  6
 11 20  1  0
 11 25  1  0
 17 12  1  0
 12 18  2  0
 27 12  1  0
 13 19  2  0
 27 13  1  0
 14 15  2  0
 25 17  1  0
 17 26  2  0
 18 19  1  0
 20 27  1  6
 21 24  1  0
 21 29  2  0
 26 30  1  0
M  END
$$$$
