
     RDKit          3D

 30 33  0  0  0  0  0  0  0  0999 V2000
  -30.7145  -45.2202   17.7234 C   0  0  0  0  0  0  0  0  0  0  0  0
  -32.1780  -45.2945   17.7317 C   0  0  0  0  0  0  0  0  0  0  0  0
  -32.8407  -44.6450   16.9042 C   0  0  0  0  0  0  0  0  0  0  0  0
  -34.1060  -44.6327   16.4655 C   0  0  0  0  0  0  0  0  0  0  0  0
  -34.9298  -45.7270   17.1983 C   0  0  0  0  0  0  0  0  0  0  0  0
  -32.9198  -46.3653   18.4848 C   0  0  0  0  0  0  0  0  0  0  0  0
  -38.5888  -45.7107   17.2010 C   0  0  0  0  0  0  0  0  0  0  0  0
  -40.4272  -44.4335   18.6848 C   0  0  0  0  0  0  0  0  0  0  0  0
  -40.6113  -44.4178   17.2534 C   0  0  0  0  0  0  0  0  0  0  0  0
  -39.5716  -45.1131   16.6813 C   0  0  0  0  0  0  0  0  0  0  0  0
  -39.2838  -45.0344   20.7567 C   0  0  2  0  0  0  0  0  0  0  0  0
  -38.1363  -44.6108   23.2290 C   0  0  0  0  0  0  0  0  0  0  0  0
  -39.0840  -42.6299   23.4862 C   0  0  0  0  0  0  0  0  0  0  0  0
  -38.3487  -45.7749   18.5982 C   0  0  0  0  0  0  0  0  0  0  0  0
  -39.3779  -45.0699   19.2678 C   0  0  0  0  0  0  0  0  0  0  0  0
  -40.3270  -45.7594   21.4637 C   0  0  0  0  0  0  0  0  0  0  0  0
  -37.6805  -45.7459   22.4514 C   0  0  0  0  0  0  0  0  0  0  0  0
  -38.0485  -44.2020   24.5759 C   0  0  0  0  0  0  0  0  0  0  0  0
  -38.6380  -42.9473   24.7762 C   0  0  0  0  0  0  0  0  0  0  0  0
  -39.1908  -43.5725   21.2124 C   0  0  0  0  0  0  0  0  0  0  0  0
  -36.2203  -45.6274   16.7896 C   0  0  0  0  0  0  0  0  0  0  0  0
  -41.3504  -43.7151   19.4055 F   0  0  0  0  0  0  0  0  0  0  0  0
  -29.4226  -45.1763   17.7223 N   0  0  0  0  0  0  0  0  0  0  0  0
  -37.4331  -46.1405   16.3755 N   0  0  0  0  0  0  0  0  0  0  0  0
  -37.9993  -45.6757   21.0553 N   0  0  0  0  0  0  0  0  0  0  0  0
  -37.0175  -46.6898   22.9936 N   0  0  0  0  0  0  0  0  0  0  0  0
  -38.8120  -43.5740   22.6358 N   0  0  0  0  0  0  0  0  0  0  0  0
  -34.1492  -46.2991   18.0063 N   0  0  0  0  0  0  0  0  0  0  0  0
  -36.5553  -44.1855   16.7859 O   0  0  0  0  0  0  0  0  0  0  0  0
  -36.4927  -47.3872   22.4983 H   0  0  0  0  0  0  0  0  0  0  0  0
  2  1  1  0
  1 23  3  0
  3  2  2  0
  6  2  1  0
  4  3  1  0
  5  4  2  0
 21  5  1  0
  5 28  1  0
 28  6  2  0
  7 10  2  0
  7 14  1  0
 24  7  1  0
  9  8  2  0
 15  8  1  0
  8 22  1  0
 10  9  1  0
 15 11  1  0
 11 16  1  1
 11 20  1  0
 11 25  1  0
 17 12  1  0
 12 18  2  0
 27 12  1  0
 13 19  2  0
 27 13  1  0
 14 15  2  0
 25 17  1  0
 17 26  2  0
 18 19  1  0
 20 27  1  0
 21 24  1  0
 21 29  2  0
 26 30  1  0
M  END
$$$$
