
     RDKit          3D

 30 33  0  0  0  0  0  0  0  0999 V2000
  -30.0194  -46.2204   16.7163 C   0  0  0  0  0  0  0  0  0  0  0  0
  -31.4583  -46.0978   16.9654 C   0  0  0  0  0  0  0  0  0  0  0  0
  -32.0608  -45.0584   16.6455 C   0  0  0  0  0  0  0  0  0  0  0  0
  -33.3371  -44.6787   16.5021 C   0  0  0  0  0  0  0  0  0  0  0  0
  -34.2817  -45.8695   16.8230 C   0  0  0  0  0  0  0  0  0  0  0  0
  -32.3161  -47.2880   17.2992 C   0  0  0  0  0  0  0  0  0  0  0  0
  -37.8206  -45.0402   17.4807 C   0  0  0  0  0  0  0  0  0  0  0  0
  -40.2619  -45.5039   18.4996 C   0  0  0  0  0  0  0  0  0  0  0  0
  -40.1429  -45.4831   17.0613 C   0  0  0  0  0  0  0  0  0  0  0  0
  -38.8292  -45.2264   16.7450 C   0  0  0  0  0  0  0  0  0  0  0  0
  -39.4192  -45.3568   20.7864 C   0  0  2  0  0  0  0  0  0  0  0  0
  -38.8560  -45.0220   23.4658 C   0  0  0  0  0  0  0  0  0  0  0  0
  -39.9677  -43.1159   23.6059 C   0  0  0  0  0  0  0  0  0  0  0  0
  -37.8607  -45.0548   18.8992 C   0  0  0  0  0  0  0  0  0  0  0  0
  -39.1913  -45.3065   19.3125 C   0  0  0  0  0  0  0  0  0  0  0  0
  -40.5380  -46.1802   21.2155 C   0  0  0  0  0  0  0  0  0  0  0  0
  -38.1698  -46.0806   22.7521 C   0  0  0  0  0  0  0  0  0  0  0  0
  -39.0849  -44.6918   24.8178 C   0  0  0  0  0  0  0  0  0  0  0  0
  -39.7865  -43.4862   24.9453 C   0  0  0  0  0  0  0  0  0  0  0  0
  -39.5239  -43.9226   21.3206 C   0  0  0  0  0  0  0  0  0  0  0  0
  -35.5616  -45.4240   16.7489 C   0  0  0  0  0  0  0  0  0  0  0  0
  -41.5362  -45.6784   18.9830 F   0  0  0  0  0  0  0  0  0  0  0  0
  -28.7462  -46.3162   16.5151 N   0  0  0  0  0  0  0  0  0  0  0  0
  -36.5610  -44.4879   16.9239 N   0  0  0  0  0  0  0  0  0  0  0  0
  -38.1877  -45.9431   21.3251 N   0  0  0  0  0  0  0  0  0  0  0  0
  -37.5757  -47.0176   23.3793 N   0  0  0  0  0  0  0  0  0  0  0  0
  -39.4579  -43.9899   22.7905 N   0  0  0  0  0  0  0  0  0  0  0  0
  -33.5508  -46.8474   17.1376 N   0  0  0  0  0  0  0  0  0  0  0  0
  -36.3550  -46.5099   16.1301 O   0  0  0  0  0  0  0  0  0  0  0  0
  -36.5809  -47.1379   23.4335 H   0  0  0  0  0  0  0  0  0  0  0  0
  2  1  1  0
  1 23  3  0
  3  2  2  0
  6  2  1  0
  4  3  1  0
  5  4  2  0
 21  5  1  0
  5 28  1  0
 28  6  2  0
  7 10  2  0
  7 14  1  0
 24  7  1  0
  9  8  2  0
 15  8  1  0
  8 22  1  0
 10  9  1  0
 15 11  1  0
 11 16  1  6
 11 20  1  0
 11 25  1  0
 17 12  1  0
 12 18  2  0
 27 12  1  0
 13 19  2  0
 27 13  1  0
 14 15  2  0
 25 17  1  0
 17 26  2  0
 18 19  1  0
 20 27  1  0
 21 24  1  0
 21 29  2  0
 26 30  1  0
M  END
$$$$
