
     RDKit          3D

 30 33  0  0  0  0  0  0  0  0999 V2000
  -30.8254  -44.9702   17.3993 C   0  0  0  0  0  0  0  0  0  0  0  0
  -32.2683  -45.2046   17.5021 C   0  0  0  0  0  0  0  0  0  0  0  0
  -33.0567  -44.5710   16.7791 C   0  0  0  0  0  0  0  0  0  0  0  0
  -34.3466  -44.6642   16.4311 C   0  0  0  0  0  0  0  0  0  0  0  0
  -34.9935  -45.8941   17.1255 C   0  0  0  0  0  0  0  0  0  0  0  0
  -32.8348  -46.4036   18.2130 C   0  0  0  0  0  0  0  0  0  0  0  0
  -38.6576  -45.8638   17.3610 C   0  0  0  0  0  0  0  0  0  0  0  0
  -40.3433  -44.2388   18.6765 C   0  0  0  0  0  0  0  0  0  0  0  0
  -40.4228  -44.2410   17.2354 C   0  0  0  0  0  0  0  0  0  0  0  0
  -39.4832  -45.1242   16.7571 C   0  0  0  0  0  0  0  0  0  0  0  0
  -39.4673  -44.9555   20.8399 C   0  0  2  0  0  0  0  0  0  0  0  0
  -38.4527  -44.5764   23.3767 C   0  0  0  0  0  0  0  0  0  0  0  0
  -39.2072  -42.5032   23.5213 C   0  0  0  0  0  0  0  0  0  0  0  0
  -38.5291  -45.9200   18.7732 C   0  0  0  0  0  0  0  0  0  0  0  0
  -39.4635  -45.0257   19.3493 C   0  0  0  0  0  0  0  0  0  0  0  0
  -40.6250  -45.5503   21.4880 C   0  0  0  0  0  0  0  0  0  0  0  0
  -38.0641  -45.7743   22.6591 C   0  0  0  0  0  0  0  0  0  0  0  0
  -38.4148  -44.1386   24.7168 C   0  0  0  0  0  0  0  0  0  0  0  0
  -38.8846  -42.8254   24.8465 C   0  0  0  0  0  0  0  0  0  0  0  0
  -39.2558  -43.4976   21.2677 C   0  0  0  0  0  0  0  0  0  0  0  0
  -36.3151  -45.9057   16.8164 C   0  0  0  0  0  0  0  0  0  0  0  0
  -41.1746  -43.3476   19.3111 F   0  0  0  0  0  0  0  0  0  0  0  0
  -29.5538  -44.7500   17.3266 N   0  0  0  0  0  0  0  0  0  0  0  0
  -37.5404  -46.5144   16.6327 N   0  0  0  0  0  0  0  0  0  0  0  0
  -38.2787  -45.7140   21.2428 N   0  0  0  0  0  0  0  0  0  0  0  0
  -37.5399  -46.7637   23.2680 N   0  0  0  0  0  0  0  0  0  0  0  0
  -38.9765  -43.4948   22.7139 N   0  0  0  0  0  0  0  0  0  0  0  0
  -34.0978  -46.4365   17.8275 N   0  0  0  0  0  0  0  0  0  0  0  0
  -36.6946  -44.5062   16.5180 O   0  0  0  0  0  0  0  0  0  0  0  0
  -36.6189  -47.1250   23.0994 H   0  0  0  0  0  0  0  0  0  0  0  0
  2  1  1  0
  1 23  3  0
  3  2  2  0
  6  2  1  0
  4  3  1  0
  5  4  2  0
 21  5  1  0
  5 28  1  0
 28  6  2  0
  7 10  2  0
  7 14  1  0
 24  7  1  0
  9  8  2  0
 15  8  1  0
  8 22  1  0
 10  9  1  0
 15 11  1  0
 11 16  1  1
 11 20  1  0
 11 25  1  0
 17 12  1  0
 12 18  2  0
 27 12  1  0
 13 19  2  0
 27 13  1  0
 14 15  2  0
 25 17  1  0
 17 26  2  0
 18 19  1  0
 20 27  1  0
 21 24  1  0
 21 29  2  0
 26 30  1  0
M  END
$$$$
