
     RDKit          3D

 30 33  0  0  0  0  0  0  0  0999 V2000
  -30.2394  -47.0731   16.9779 C   0  0  0  0  0  0  0  0  0  0  0  0
  -31.5635  -46.4792   17.1813 C   0  0  0  0  0  0  0  0  0  0  0  0
  -32.0116  -45.6576   16.3628 C   0  0  0  0  0  0  0  0  0  0  0  0
  -33.2010  -45.1057   16.0902 C   0  0  0  0  0  0  0  0  0  0  0  0
  -34.2763  -45.6598   17.0649 C   0  0  0  0  0  0  0  0  0  0  0  0
  -32.5525  -47.0478   18.1624 C   0  0  0  0  0  0  0  0  0  0  0  0
  -37.7219  -44.7723   17.5485 C   0  0  0  0  0  0  0  0  0  0  0  0
  -40.1940  -45.4109   18.3814 C   0  0  0  0  0  0  0  0  0  0  0  0
  -39.9901  -45.2930   16.9575 C   0  0  0  0  0  0  0  0  0  0  0  0
  -38.6741  -44.9570   16.7408 C   0  0  0  0  0  0  0  0  0  0  0  0
  -39.4984  -45.3716   20.7215 C   0  0  2  0  0  0  0  0  0  0  0  0
  -39.1069  -45.1984   23.4465 C   0  0  0  0  0  0  0  0  0  0  0  0
  -40.2883  -43.3396   23.6402 C   0  0  0  0  0  0  0  0  0  0  0  0
  -37.8463  -44.8792   18.9581 C   0  0  0  0  0  0  0  0  0  0  0  0
  -39.1852  -45.2171   19.2707 C   0  0  0  0  0  0  0  0  0  0  0  0
  -40.6124  -46.2544   21.0272 C   0  0  0  0  0  0  0  0  0  0  0  0
  -38.3443  -46.1866   22.7097 C   0  0  0  0  0  0  0  0  0  0  0  0
  -39.4266  -44.9654   24.8002 C   0  0  0  0  0  0  0  0  0  0  0  0
  -40.1747  -43.7922   24.9616 C   0  0  0  0  0  0  0  0  0  0  0  0
  -39.6827  -43.9796   21.3394 C   0  0  0  0  0  0  0  0  0  0  0  0
  -35.4448  -45.0168   16.8130 C   0  0  0  0  0  0  0  0  0  0  0  0
  -41.4848  -45.6738   18.7721 F   0  0  0  0  0  0  0  0  0  0  0  0
  -29.0811  -47.6173   16.7966 N   0  0  0  0  0  0  0  0  0  0  0  0
  -36.4600  -44.1287   17.1067 N   0  0  0  0  0  0  0  0  0  0  0  0
  -38.2821  -45.9555   21.2960 N   0  0  0  0  0  0  0  0  0  0  0  0
  -37.7574  -47.1451   23.3107 N   0  0  0  0  0  0  0  0  0  0  0  0
  -39.7019  -44.1421   22.8032 N   0  0  0  0  0  0  0  0  0  0  0  0
  -33.6938  -46.4668   17.8387 N   0  0  0  0  0  0  0  0  0  0  0  0
  -35.9184  -45.4959   15.4947 O   0  0  0  0  0  0  0  0  0  0  0  0
  -36.7970  -47.1441   23.6017 H   0  0  0  0  0  0  0  0  0  0  0  0
  2  1  1  0
  1 23  3  0
  3  2  2  0
  6  2  1  0
  4  3  1  0
  5  4  2  0
 21  5  1  0
  5 28  1  0
 28  6  2  0
  7 10  2  0
  7 14  1  0
 24  7  1  0
  9  8  2  0
 15  8  1  0
  8 22  1  0
 10  9  1  0
 15 11  1  0
 11 16  1  6
 11 20  1  0
 11 25  1  0
 17 12  1  0
 12 18  2  0
 27 12  1  0
 13 19  2  0
 27 13  1  0
 14 15  2  0
 25 17  1  0
 17 26  2  0
 18 19  1  0
 20 27  1  0
 21 24  1  0
 21 29  2  0
 26 30  1  0
M  END
$$$$
