
     RDKit          3D

 30 33  0  0  0  0  0  0  0  0999 V2000
  -30.7187  -45.2809   17.5088 C   0  0  0  0  0  0  0  0  0  0  0  0
  -32.1744  -45.4284   17.5901 C   0  0  0  0  0  0  0  0  0  0  0  0
  -32.9062  -44.8677   16.7560 C   0  0  0  0  0  0  0  0  0  0  0  0
  -34.1882  -44.9475   16.3771 C   0  0  0  0  0  0  0  0  0  0  0  0
  -34.9198  -46.0327   17.2140 C   0  0  0  0  0  0  0  0  0  0  0  0
  -32.8245  -46.4847   18.4420 C   0  0  0  0  0  0  0  0  0  0  0  0
  -38.5967  -46.1154   17.2826 C   0  0  0  0  0  0  0  0  0  0  0  0
  -40.4403  -44.7065   18.6350 C   0  0  0  0  0  0  0  0  0  0  0  0
  -40.5678  -44.7469   17.1980 C   0  0  0  0  0  0  0  0  0  0  0  0
  -39.5345  -45.5050   16.6986 C   0  0  0  0  0  0  0  0  0  0  0  0
  -39.4025  -45.2578   20.7753 C   0  0  2  0  0  0  0  0  0  0  0  0
  -38.3208  -44.8217   23.2749 C   0  0  0  0  0  0  0  0  0  0  0  0
  -39.0935  -42.7542   23.4035 C   0  0  0  0  0  0  0  0  0  0  0  0
  -38.4138  -46.1269   18.6899 C   0  0  0  0  0  0  0  0  0  0  0  0
  -39.4400  -45.3553   19.2867 C   0  0  0  0  0  0  0  0  0  0  0  0
  -40.5348  -45.8526   21.4666 C   0  0  0  0  0  0  0  0  0  0  0  0
  -37.9396  -46.0285   22.5683 C   0  0  0  0  0  0  0  0  0  0  0  0
  -38.2498  -44.3589   24.6053 C   0  0  0  0  0  0  0  0  0  0  0  0
  -38.7301  -43.0486   24.7246 C   0  0  0  0  0  0  0  0  0  0  0  0
  -39.1949  -43.7902   21.1705 C   0  0  0  0  0  0  0  0  0  0  0  0
  -36.2303  -46.0249   16.8608 C   0  0  0  0  0  0  0  0  0  0  0  0
  -41.3620  -43.9231   19.2866 F   0  0  0  0  0  0  0  0  0  0  0  0
  -29.4324  -45.1728   17.4420 N   0  0  0  0  0  0  0  0  0  0  0  0
  -37.4275  -46.6239   16.5236 N   0  0  0  0  0  0  0  0  0  0  0  0
  -38.1948  -45.9964   21.1578 N   0  0  0  0  0  0  0  0  0  0  0  0
  -37.3876  -47.0010   23.1797 N   0  0  0  0  0  0  0  0  0  0  0  0
  -38.8750  -43.7579   22.6078 N   0  0  0  0  0  0  0  0  0  0  0  0
  -34.0754  -46.5116   18.0184 N   0  0  0  0  0  0  0  0  0  0  0  0
  -36.6497  -44.6059   16.8135 O   0  0  0  0  0  0  0  0  0  0  0  0
  -37.2301  -47.9134   22.7927 H   0  0  0  0  0  0  0  0  0  0  0  0
  2  1  1  0
  1 23  3  0
  3  2  2  0
  6  2  1  0
  4  3  1  0
  5  4  2  0
 21  5  1  0
  5 28  1  0
 28  6  2  0
  7 10  2  0
  7 14  1  0
 24  7  1  0
  9  8  2  0
 15  8  1  0
  8 22  1  0
 10  9  1  0
 15 11  1  0
 11 16  1  1
 11 20  1  0
 11 25  1  0
 17 12  1  0
 12 18  2  0
 27 12  1  0
 13 19  2  0
 27 13  1  0
 14 15  2  0
 25 17  1  0
 17 26  2  0
 18 19  1  0
 20 27  1  0
 21 24  1  0
 21 29  2  0
 26 30  1  0
M  END
$$$$
