
     RDKit          3D

 30 33  0  0  0  0  0  0  0  0999 V2000
  -30.6161  -45.8928   17.3895 C   0  0  0  0  0  0  0  0  0  0  0  0
  -32.0581  -45.6373   17.4399 C   0  0  0  0  0  0  0  0  0  0  0  0
  -32.7376  -45.6875   16.3999 C   0  0  0  0  0  0  0  0  0  0  0  0
  -34.0393  -45.7438   16.0901 C   0  0  0  0  0  0  0  0  0  0  0  0
  -34.8917  -45.7493   17.3888 C   0  0  0  0  0  0  0  0  0  0  0  0
  -32.8239  -45.6294   18.7350 C   0  0  0  0  0  0  0  0  0  0  0  0
  -38.5825  -45.8839   17.3326 C   0  0  0  0  0  0  0  0  0  0  0  0
  -40.5158  -44.6567   18.7359 C   0  0  0  0  0  0  0  0  0  0  0  0
  -40.5993  -44.5814   17.2970 C   0  0  0  0  0  0  0  0  0  0  0  0
  -39.5245  -45.2594   16.7707 C   0  0  0  0  0  0  0  0  0  0  0  0
  -39.5221  -45.3487   20.8560 C   0  0  2  0  0  0  0  0  0  0  0  0
  -38.5413  -45.0552   23.4173 C   0  0  0  0  0  0  0  0  0  0  0  0
  -39.4548  -43.0602   23.6897 C   0  0  0  0  0  0  0  0  0  0  0  0
  -38.4410  -46.0065   18.7393 C   0  0  0  0  0  0  0  0  0  0  0  0
  -39.5120  -45.3229   19.3640 C   0  0  0  0  0  0  0  0  0  0  0  0
  -40.6304  -46.0717   21.4585 C   0  0  0  0  0  0  0  0  0  0  0  0
  -38.0605  -46.1710   22.6270 C   0  0  0  0  0  0  0  0  0  0  0  0
  -38.5383  -44.7023   24.7828 C   0  0  0  0  0  0  0  0  0  0  0  0
  -39.1089  -43.4405   24.9934 C   0  0  0  0  0  0  0  0  0  0  0  0
  -39.4248  -43.9092   21.3770 C   0  0  0  0  0  0  0  0  0  0  0  0
  -36.2014  -45.7218   17.0335 C   0  0  0  0  0  0  0  0  0  0  0  0
  -41.4846  -43.9623   19.4194 F   0  0  0  0  0  0  0  0  0  0  0  0
  -29.3429  -46.1153   17.3675 N   0  0  0  0  0  0  0  0  0  0  0  0
  -37.3735  -46.2870   16.5727 N   0  0  0  0  0  0  0  0  0  0  0  0
  -38.2783  -46.0370   21.2162 N   0  0  0  0  0  0  0  0  0  0  0  0
  -37.4612  -47.1537   23.1744 N   0  0  0  0  0  0  0  0  0  0  0  0
  -39.1474  -43.9773   22.8219 N   0  0  0  0  0  0  0  0  0  0  0  0
  -34.0887  -45.6871   18.3588 N   0  0  0  0  0  0  0  0  0  0  0  0
  -36.6771  -44.3399   17.2691 O   0  0  0  0  0  0  0  0  0  0  0  0
  -36.4706  -47.3128   23.1518 H   0  0  0  0  0  0  0  0  0  0  0  0
  2  1  1  0
  1 23  3  0
  3  2  2  0
  6  2  1  0
  4  3  1  0
  5  4  2  0
 21  5  1  0
  5 28  1  0
 28  6  2  0
  7 10  2  0
  7 14  1  0
 24  7  1  0
  9  8  2  0
 15  8  1  0
  8 22  1  0
 10  9  1  0
 15 11  1  0
 11 16  1  6
 11 20  1  0
 11 25  1  0
 17 12  1  0
 12 18  2  0
 27 12  1  0
 13 19  2  0
 27 13  1  0
 14 15  2  0
 25 17  1  0
 17 26  2  0
 18 19  1  0
 20 27  1  0
 21 24  1  0
 21 29  2  0
 26 30  1  0
M  END
$$$$
