
     RDKit          3D

 30 33  0  0  0  0  0  0  0  0999 V2000
  -30.3032  -46.9384   17.6131 C   0  0  0  0  0  0  0  0  0  0  0  0
  -31.7033  -46.5688   17.4433 C   0  0  0  0  0  0  0  0  0  0  0  0
  -32.6957  -47.2191   18.1371 C   0  0  0  0  0  0  0  0  0  0  0  0
  -34.0109  -46.8489   17.9630 C   0  0  0  0  0  0  0  0  0  0  0  0
  -34.3369  -45.8367   17.1032 C   0  0  0  0  0  0  0  0  0  0  0  0
  -32.0729  -45.5433   16.5767 C   0  0  0  0  0  0  0  0  0  0  0  0
  -37.7449  -44.8680   18.1538 C   0  0  0  0  0  0  0  0  0  0  0  0
  -40.3555  -45.4796   18.7852 C   0  0  0  0  0  0  0  0  0  0  0  0
  -39.9914  -45.2868   17.4514 C   0  0  0  0  0  0  0  0  0  0  0  0
  -38.6863  -44.9824   17.1516 C   0  0  0  0  0  0  0  0  0  0  0  0
  -39.8329  -45.5869   21.2211 C   0  0  2  0  0  0  0  0  0  0  0  0
  -38.8031  -44.9161   23.7815 C   0  0  0  0  0  0  0  0  0  0  0  0
  -39.9737  -43.1075   24.0911 C   0  0  0  0  0  0  0  0  0  0  0  0
  -38.1422  -45.0664   19.4723 C   0  0  0  0  0  0  0  0  0  0  0  0
  -39.4340  -45.3702   19.7964 C   0  0  0  0  0  0  0  0  0  0  0  0
  -41.0836  -46.4952   21.2147 C   0  0  0  0  0  0  0  0  0  0  0  0
  -38.3111  -46.0982   23.0858 C   0  0  0  0  0  0  0  0  0  0  0  0
  -38.5000  -44.4131   25.0621 C   0  0  0  0  0  0  0  0  0  0  0  0
  -39.2512  -43.2799   25.2226 C   0  0  0  0  0  0  0  0  0  0  0  0
  -40.2076  -44.3384   21.8990 C   0  0  0  0  0  0  0  0  0  0  0  0
  -35.7129  -45.4497   16.9212 C   0  0  0  0  0  0  0  0  0  0  0  0
  -41.6559  -45.7797   19.0466 F   0  0  0  0  0  0  0  0  0  0  0  0
  -29.2177  -47.2429   17.7537 N   0  0  0  0  0  0  0  0  0  0  0  0
  -36.4055  -44.5554   17.7825 N   0  0  0  0  0  0  0  0  0  0  0  0
  -38.7956  -46.3819   21.7942 N   0  0  0  0  0  0  0  0  0  0  0  0
  -37.4383  -46.8504   23.6648 N   0  0  0  0  0  0  0  0  0  0  0  0
  -39.6889  -44.1235   23.2081 N   0  0  0  0  0  0  0  0  0  0  0  0
  -33.3692  -45.2120   16.4351 N   0  0  0  0  0  0  0  0  0  0  0  0
  -36.3561  -45.9306   15.9344 O   0  0  0  0  0  0  0  0  0  0  0  0
  -36.4312  -46.6198   23.5256 H   0  0  0  0  0  0  0  0  0  0  0  0
  2  1  1  0
  1 23  3  0
  3  2  2  0
  6  2  1  0
  4  3  1  0
  5  4  2  0
 21  5  1  0
  5 28  1  0
 28  6  2  0
  7 10  2  0
  7 14  1  0
 24  7  1  0
  9  8  2  0
 15  8  1  0
  8 22  1  0
 10  9  1  0
 11 15  1  6
 16 11  1  6
 11 20  1  0
 11 25  1  0
 17 12  1  0
 12 18  2  0
 27 12  1  0
 13 19  2  0
 27 13  1  0
 14 15  2  0
 25 17  1  0
 17 26  2  0
 18 19  1  0
 20 27  1  6
 21 24  1  0
 21 29  2  0
 26 30  1  0
M  END
$$$$
