
     RDKit          3D

 30 33  0  0  0  0  0  0  0  0999 V2000
  -30.4763  -46.4533   17.7245 C   0  0  0  0  0  0  0  0  0  0  0  0
  -31.8149  -45.9386   17.4235 C   0  0  0  0  0  0  0  0  0  0  0  0
  -32.7265  -46.7204   17.1017 C   0  0  0  0  0  0  0  0  0  0  0  0
  -34.0597  -46.6657   16.9873 C   0  0  0  0  0  0  0  0  0  0  0  0
  -34.5645  -45.2459   17.3646 C   0  0  0  0  0  0  0  0  0  0  0  0
  -32.2355  -44.5416   17.7914 C   0  0  0  0  0  0  0  0  0  0  0  0
  -38.2805  -45.1706   17.5331 C   0  0  0  0  0  0  0  0  0  0  0  0
  -40.6031  -45.7245   18.7625 C   0  0  0  0  0  0  0  0  0  0  0  0
  -40.6115  -45.7051   17.3193 C   0  0  0  0  0  0  0  0  0  0  0  0
  -39.3416  -45.3989   16.8889 C   0  0  0  0  0  0  0  0  0  0  0  0
  -39.5698  -45.5352   20.9665 C   0  0  2  0  0  0  0  0  0  0  0  0
  -38.7529  -45.2477   23.5854 C   0  0  0  0  0  0  0  0  0  0  0  0
  -39.7634  -43.2969   23.8342 C   0  0  0  0  0  0  0  0  0  0  0  0
  -38.1955  -45.1808   18.9497 C   0  0  0  0  0  0  0  0  0  0  0  0
  -39.4740  -45.4823   19.4783 C   0  0  0  0  0  0  0  0  0  0  0  0
  -40.6800  -46.3135   21.4914 C   0  0  0  0  0  0  0  0  0  0  0  0
  -38.1806  -46.3286   22.8076 C   0  0  0  0  0  0  0  0  0  0  0  0
  -38.8442  -44.9194   24.9540 C   0  0  0  0  0  0  0  0  0  0  0  0
  -39.4783  -43.6860   25.1500 C   0  0  0  0  0  0  0  0  0  0  0  0
  -39.5633  -44.1024   21.5145 C   0  0  0  0  0  0  0  0  0  0  0  0
  -35.9051  -45.2060   17.1559 C   0  0  0  0  0  0  0  0  0  0  0  0
  -41.8224  -45.9464   19.3559 F   0  0  0  0  0  0  0  0  0  0  0  0
  -29.3044  -46.9208   18.0059 N   0  0  0  0  0  0  0  0  0  0  0  0
  -37.0970  -44.5720   16.8676 N   0  0  0  0  0  0  0  0  0  0  0  0
  -38.3214  -46.1784   21.3887 N   0  0  0  0  0  0  0  0  0  0  0  0
  -37.5737  -47.2956   23.3742 N   0  0  0  0  0  0  0  0  0  0  0  0
  -39.3678  -44.1850   22.9721 N   0  0  0  0  0  0  0  0  0  0  0  0
  -33.5497  -44.5583   17.6590 N   0  0  0  0  0  0  0  0  0  0  0  0
  -36.3979  -46.5956   17.2889 O   0  0  0  0  0  0  0  0  0  0  0  0
  -36.6556  -47.6225   23.1346 H   0  0  0  0  0  0  0  0  0  0  0  0
  2  1  1  0
  1 23  3  0
  3  2  2  0
  6  2  1  0
  4  3  1  0
  5  4  2  0
 21  5  1  0
  5 28  1  0
 28  6  2  0
  7 10  2  0
  7 14  1  0
 24  7  1  0
  9  8  2  0
 15  8  1  0
  8 22  1  0
 10  9  1  0
 15 11  1  0
 11 16  1  6
 11 20  1  0
 11 25  1  0
 17 12  1  0
 12 18  2  0
 27 12  1  0
 13 19  2  0
 27 13  1  0
 14 15  2  0
 25 17  1  0
 17 26  2  0
 18 19  1  0
 20 27  1  0
 21 24  1  0
 21 29  2  0
 26 30  1  0
M  END
$$$$
