
     RDKit          3D

 30 33  0  0  0  0  0  0  0  0999 V2000
  -30.3248  -46.7142   17.5349 C   0  0  0  0  0  0  0  0  0  0  0  0
  -31.7199  -46.3494   17.3192 C   0  0  0  0  0  0  0  0  0  0  0  0
  -32.0580  -45.3021   16.4958 C   0  0  0  0  0  0  0  0  0  0  0  0
  -33.3832  -44.9794   16.3044 C   0  0  0  0  0  0  0  0  0  0  0  0
  -34.3670  -45.6953   16.9288 C   0  0  0  0  0  0  0  0  0  0  0  0
  -32.7482  -47.0555   17.9381 C   0  0  0  0  0  0  0  0  0  0  0  0
  -37.8196  -45.0581   18.0039 C   0  0  0  0  0  0  0  0  0  0  0  0
  -40.3438  -45.9785   18.6117 C   0  0  0  0  0  0  0  0  0  0  0  0
  -39.9650  -45.8230   17.2772 C   0  0  0  0  0  0  0  0  0  0  0  0
  -38.7034  -45.3631   16.9892 C   0  0  0  0  0  0  0  0  0  0  0  0
  -39.8925  -45.8586   21.0612 C   0  0  2  0  0  0  0  0  0  0  0  0
  -38.9015  -45.0970   23.6116 C   0  0  0  0  0  0  0  0  0  0  0  0
  -40.0977  -43.2947   23.8521 C   0  0  0  0  0  0  0  0  0  0  0  0
  -38.2301  -45.2246   19.3228 C   0  0  0  0  0  0  0  0  0  0  0  0
  -39.4794  -45.6804   19.6353 C   0  0  0  0  0  0  0  0  0  0  0  0
  -41.1319  -46.7823   21.0684 C   0  0  0  0  0  0  0  0  0  0  0  0
  -38.3868  -46.2935   22.9581 C   0  0  0  0  0  0  0  0  0  0  0  0
  -38.6198  -44.5514   24.8796 C   0  0  0  0  0  0  0  0  0  0  0  0
  -39.3867  -43.4234   24.9966 C   0  0  0  0  0  0  0  0  0  0  0  0
  -40.2905  -44.5948   21.6962 C   0  0  0  0  0  0  0  0  0  0  0  0
  -35.7533  -45.3574   16.7284 C   0  0  0  0  0  0  0  0  0  0  0  0
  -41.6001  -46.4357   18.8612 F   0  0  0  0  0  0  0  0  0  0  0  0
  -29.2332  -46.9797   17.7043 N   0  0  0  0  0  0  0  0  0  0  0  0
  -36.5229  -44.5901   17.6449 N   0  0  0  0  0  0  0  0  0  0  0  0
  -38.8525  -46.6226   21.6704 N   0  0  0  0  0  0  0  0  0  0  0  0
  -37.5118  -47.0166   23.5699 N   0  0  0  0  0  0  0  0  0  0  0  0
  -39.7900  -44.3335   23.0040 N   0  0  0  0  0  0  0  0  0  0  0  0
  -34.0306  -46.7084   17.7247 N   0  0  0  0  0  0  0  0  0  0  0  0
  -36.3334  -45.7645   15.6716 O   0  0  0  0  0  0  0  0  0  0  0  0
  -36.6489  -46.5445   23.9154 H   0  0  0  0  0  0  0  0  0  0  0  0
  2  1  1  0
  1 23  3  0
  3  2  2  0
  6  2  1  0
  4  3  1  0
  5  4  2  0
 21  5  1  0
  5 28  1  0
 28  6  2  0
  7 10  2  0
  7 14  1  0
 24  7  1  0
  9  8  2  0
 15  8  1  0
  8 22  1  0
 10  9  1  0
 11 15  1  6
 16 11  1  6
 11 20  1  0
 11 25  1  0
 17 12  1  0
 12 18  2  0
 27 12  1  0
 13 19  2  0
 27 13  1  0
 14 15  2  0
 25 17  1  0
 17 26  2  0
 18 19  1  0
 20 27  1  6
 21 24  1  0
 21 29  2  0
 26 30  1  0
M  END
$$$$
