
     RDKit          3D

 30 33  0  0  0  0  0  0  0  0999 V2000
  -29.9638  -46.1854   17.3234 C   0  0  0  0  0  0  0  0  0  0  0  0
  -31.4197  -46.1605   17.2494 C   0  0  0  0  0  0  0  0  0  0  0  0
  -32.1642  -47.2651   17.5881 C   0  0  0  0  0  0  0  0  0  0  0  0
  -33.5387  -47.2157   17.5142 C   0  0  0  0  0  0  0  0  0  0  0  0
  -34.1691  -46.0730   17.1056 C   0  0  0  0  0  0  0  0  0  0  0  0
  -32.0960  -45.0149   16.8379 C   0  0  0  0  0  0  0  0  0  0  0  0
  -37.7685  -46.4143   18.1055 C   0  0  0  0  0  0  0  0  0  0  0  0
  -40.2971  -45.4972   18.6994 C   0  0  0  0  0  0  0  0  0  0  0  0
  -39.8751  -45.5559   17.3702 C   0  0  0  0  0  0  0  0  0  0  0  0
  -38.6118  -46.0153   17.0891 C   0  0  0  0  0  0  0  0  0  0  0  0
  -39.9383  -45.8303   21.1445 C   0  0  2  0  0  0  0  0  0  0  0  0
  -38.8515  -45.0340   23.6447 C   0  0  0  0  0  0  0  0  0  0  0  0
  -39.6445  -43.0071   23.6641 C   0  0  0  0  0  0  0  0  0  0  0  0
  -38.2213  -46.3425   19.4191 C   0  0  0  0  0  0  0  0  0  0  0  0
  -39.4732  -45.8894   19.7247 C   0  0  0  0  0  0  0  0  0  0  0  0
  -41.3446  -46.4700   21.1943 C   0  0  0  0  0  0  0  0  0  0  0  0
  -38.5900  -46.3720   23.1303 C   0  0  0  0  0  0  0  0  0  0  0  0
  -38.4822  -44.4317   24.8636 C   0  0  0  0  0  0  0  0  0  0  0  0
  -38.9957  -43.1628   24.8418 C   0  0  0  0  0  0  0  0  0  0  0  0
  -40.0713  -44.4530   21.6386 C   0  0  0  0  0  0  0  0  0  0  0  0
  -35.6070  -46.0216   17.0284 C   0  0  0  0  0  0  0  0  0  0  0  0
  -41.5538  -45.0373   18.9422 F   0  0  0  0  0  0  0  0  0  0  0  0
  -28.8298  -46.2242   17.3809 N   0  0  0  0  0  0  0  0  0  0  0  0
  -36.4714  -46.8867   17.7535 N   0  0  0  0  0  0  0  0  0  0  0  0
  -39.0931  -46.7274   21.8637 N   0  0  0  0  0  0  0  0  0  0  0  0
  -37.8975  -47.1947   23.8419 N   0  0  0  0  0  0  0  0  0  0  0  0
  -39.5488  -44.1687   22.9329 N   0  0  0  0  0  0  0  0  0  0  0  0
  -33.4402  -45.0075   16.7794 N   0  0  0  0  0  0  0  0  0  0  0  0
  -36.1462  -45.1544   16.2694 O   0  0  0  0  0  0  0  0  0  0  0  0
  -36.8883  -46.9782   23.9883 H   0  0  0  0  0  0  0  0  0  0  0  0
  2  1  1  0
  1 23  3  0
  3  2  2  0
  6  2  1  0
  4  3  1  0
  5  4  2  0
 21  5  1  0
  5 28  1  0
 28  6  2  0
  7 10  2  0
  7 14  1  0
 24  7  1  0
  9  8  2  0
 15  8  1  0
  8 22  1  0
 10  9  1  0
 11 15  1  6
 16 11  1  6
 11 20  1  0
 11 25  1  0
 17 12  1  0
 12 18  2  0
 27 12  1  0
 13 19  2  0
 27 13  1  0
 14 15  2  0
 25 17  1  0
 17 26  2  0
 18 19  1  0
 20 27  1  6
 21 24  1  0
 21 29  2  0
 26 30  1  0
M  END
$$$$
