
     RDKit          3D

 30 33  0  0  0  0  0  0  0  0999 V2000
  -30.3176  -46.3350   17.7313 C   0  0  0  0  0  0  0  0  0  0  0  0
  -31.7424  -46.0704   17.5703 C   0  0  0  0  0  0  0  0  0  0  0  0
  -32.1834  -44.9726   16.8706 C   0  0  0  0  0  0  0  0  0  0  0  0
  -33.5346  -44.7463   16.7285 C   0  0  0  0  0  0  0  0  0  0  0  0
  -34.4423  -45.6081   17.2795 C   0  0  0  0  0  0  0  0  0  0  0  0
  -32.6955  -46.9256   18.1173 C   0  0  0  0  0  0  0  0  0  0  0  0
  -38.1046  -45.9689   17.8866 C   0  0  0  0  0  0  0  0  0  0  0  0
  -40.5588  -45.1960   18.8702 C   0  0  0  0  0  0  0  0  0  0  0  0
  -40.3188  -45.1562   17.4957 C   0  0  0  0  0  0  0  0  0  0  0  0
  -39.0905  -45.5445   17.0196 C   0  0  0  0  0  0  0  0  0  0  0  0
  -39.8617  -45.6614   21.2187 C   0  0  2  0  0  0  0  0  0  0  0  0
  -38.5829  -44.7523   23.5861 C   0  0  0  0  0  0  0  0  0  0  0  0
  -39.6749  -42.8812   23.7956 C   0  0  0  0  0  0  0  0  0  0  0  0
  -38.3777  -45.9958   19.2505 C   0  0  0  0  0  0  0  0  0  0  0  0
  -39.5912  -45.6148   19.7489 C   0  0  0  0  0  0  0  0  0  0  0  0
  -41.1296  -46.5210   21.4255 C   0  0  0  0  0  0  0  0  0  0  0  0
  -38.1867  -46.0194   22.9853 C   0  0  0  0  0  0  0  0  0  0  0  0
  -38.1502  -44.1238   24.7705 C   0  0  0  0  0  0  0  0  0  0  0  0
  -38.8552  -42.9545   24.8702 C   0  0  0  0  0  0  0  0  0  0  0  0
  -40.1411  -44.3344   21.7841 C   0  0  0  0  0  0  0  0  0  0  0  0
  -35.8557  -45.3710   17.1307 C   0  0  0  0  0  0  0  0  0  0  0  0
  -41.7857  -44.8046   19.3075 F   0  0  0  0  0  0  0  0  0  0  0  0
  -29.2046  -46.5225   17.8606 N   0  0  0  0  0  0  0  0  0  0  0  0
  -36.8521  -46.3643   17.3351 N   0  0  0  0  0  0  0  0  0  0  0  0
  -38.7957  -46.4249   21.7819 N   0  0  0  0  0  0  0  0  0  0  0  0
  -37.2828  -46.7340   23.5643 N   0  0  0  0  0  0  0  0  0  0  0  0
  -39.4982  -43.9965   23.0094 N   0  0  0  0  0  0  0  0  0  0  0  0
  -34.0064  -46.6691   17.9557 N   0  0  0  0  0  0  0  0  0  0  0  0
  -36.2469  -44.2072   16.7971 O   0  0  0  0  0  0  0  0  0  0  0  0
  -36.4649  -47.0367   22.9931 H   0  0  0  0  0  0  0  0  0  0  0  0
  2  1  1  0
  1 23  3  0
  3  2  2  0
  6  2  1  0
  4  3  1  0
  5  4  2  0
 21  5  1  0
  5 28  1  0
 28  6  2  0
  7 10  2  0
  7 14  1  0
 24  7  1  0
  9  8  2  0
 15  8  1  0
  8 22  1  0
 10  9  1  0
 11 15  1  6
 16 11  1  6
 11 20  1  0
 11 25  1  0
 17 12  1  0
 12 18  2  0
 27 12  1  0
 13 19  2  0
 27 13  1  0
 14 15  2  0
 25 17  1  0
 17 26  2  0
 18 19  1  0
 20 27  1  6
 21 24  1  0
 21 29  2  0
 26 30  1  0
M  END
$$$$
