
     RDKit          3D

 42 47  0  0  0  0  0  0  0  0999 V2000
  -17.7188   -9.9210    8.0334 C   0  0  0  0  0  0  0  0  0  0  0  0
  -16.5744   -9.1329    8.5004 C   0  0  0  0  0  0  0  0  0  0  0  0
  -15.5624  -11.2650    9.1430 C   0  0  0  0  0  0  0  0  0  0  0  0
  -16.5911  -11.9750    8.7231 C   0  0  0  0  0  0  0  0  0  0  0  0
  -14.3925  -11.9206    9.7460 C   0  0  0  0  0  0  0  0  0  0  0  0
  -16.6383  -13.4502    8.8206 C   0  0  0  0  0  0  0  0  0  0  0  0
  -13.6606  -12.8368    9.0086 C   0  0  0  0  0  0  0  0  0  0  0  0
  -12.5379  -13.4536    9.5283 C   0  0  0  0  0  0  0  0  0  0  0  0
  -12.1318  -13.1524   10.8135 C   0  0  0  0  0  0  0  0  0  0  0  0
  -12.8505  -12.2411   11.5614 C   0  0  0  0  0  0  0  0  0  0  0  0
  -13.9808  -11.6240   11.0294 C   0  0  0  0  0  0  0  0  0  0  0  0
  -15.8284  -14.2520    8.0511 C   0  0  0  0  0  0  0  0  0  0  0  0
  -15.8557  -15.6422    8.1512 C   0  0  0  0  0  0  0  0  0  0  0  0
  -16.7118  -16.2302    9.0405 C   0  0  0  0  0  0  0  0  0  0  0  0
  -17.5272  -15.4529    9.8183 C   0  0  0  0  0  0  0  0  0  0  0  0
  -17.4823  -14.0856    9.7016 C   0  0  0  0  0  0  0  0  0  0  0  0
  -16.7690  -17.6980    9.1586 C   0  0  0  0  0  0  0  0  0  0  0  0
  -16.5963  -19.5626    7.6848 C   0  0  0  0  0  0  0  0  0  0  0  0
  -17.2930  -20.7331    8.3745 C   0  0  0  0  0  0  0  0  0  0  0  0
  -18.6791  -20.8483    7.8487 C   0  0  1  0  0  0  0  0  0  0  0  0
  -18.9980  -19.6227    6.9763 C   0  0  0  0  0  0  0  0  0  0  0  0
  -18.7011  -18.4307    7.9079 C   0  0  0  0  0  0  0  0  0  0  0  0
  -19.8487  -22.1927    6.1563 C   0  0  0  0  0  0  0  0  0  0  0  0
  -19.4615  -24.1832    6.7950 C   0  0  0  0  0  0  0  0  0  0  0  0
  -18.8264  -23.3459    7.7014 C   0  0  0  0  0  0  0  0  0  0  0  0
  -19.3490  -25.5354    7.0120 C   0  0  0  0  0  0  0  0  0  0  0  0
  -18.6371  -26.0393    8.0821 C   0  0  0  0  0  0  0  0  0  0  0  0
  -18.0104  -25.2064    8.9762 C   0  0  0  0  0  0  0  0  0  0  0  0
  -18.1190  -23.8323    8.7632 C   0  0  0  0  0  0  0  0  0  0  0  0
  -16.2137  -26.5448   10.1310 C   0  0  0  0  0  0  0  0  0  0  0  0
  -15.3013  -26.6639   11.3068 C   0  0  0  0  0  0  0  0  0  0  0  0
  -14.3601  -27.8183   11.0739 C   0  0  0  0  0  0  0  0  0  0  0  0
  -16.5546   -7.8187    8.4022 C   0  0  0  0  0  0  0  0  0  0  0  0
  -15.4832   -9.8475    9.0646 N   0  0  0  0  0  0  0  0  0  0  0  0
  -17.7375  -11.3275    8.1388 N   0  0  0  0  0  0  0  0  0  0  0  0
  -17.2858  -18.3103    7.9707 N   0  0  1  0  0  4  0  0  0  0  0  0
  -19.0796  -22.0827    7.2861 N   0  0  0  0  0  0  0  0  0  0  0  0
  -20.0842  -23.4522    5.8524 N   0  0  0  0  0  0  0  0  0  0  0  0
  -17.2708  -25.6019   10.1078 N   0  0  0  0  0  0  0  0  0  0  0  0
  -16.0186  -27.3038    9.1635 O   0  0  0  0  0  0  0  0  0  0  0  0
  -20.2738  -21.1986    5.4957 O   0  0  0  0  0  0  0  0  0  0  0  0
  -18.6847   -9.2680    7.5322 O   0  0  0  0  0  0  0  0  0  0  0  0
  1  2  1  0
 35  1  1  0
  1 42  2  0
  2 33  2  0
 34  2  1  0
  4  3  2  0
  3  5  1  0
  3 34  1  0
  6  4  1  0
  4 35  1  0
  5  7  2  0
  5 11  1  0
 12  6  2  0
 16  6  1  0
  7  8  1  0
  8  9  2  0
 10  9  1  0
 11 10  2  0
 13 12  1  0
 14 13  2  0
 14 15  1  0
 17 14  1  0
 15 16  2  0
 36 17  1  1
 19 18  1  0
 18 36  1  0
 20 19  1  0
 20 21  1  0
 20 37  1  6
 21 22  1  0
 22 36  1  0
 37 23  1  0
 23 38  1  0
 23 41  2  0
 25 24  2  0
 26 24  1  0
 24 38  1  0
 29 25  1  0
 25 37  1  0
 27 26  2  0
 28 27  1  0
 28 29  2  0
 39 28  1  0
 30 31  1  0
 30 39  1  0
 30 40  2  0
 31 32  1  0
M  CHG  1  36   1
M  END
$$$$
