
     RDKit          3D

 42 47  0  0  0  0  0  0  0  0999 V2000
  -17.6215  -25.2002    8.8636 C   0  0  0  0  0  0  0  0  0  0  0  0
  -16.9745  -25.7615    7.6739 C   0  0  0  0  0  0  0  0  0  0  0  0
  -16.9432  -23.4772    6.7999 C   0  0  0  0  0  0  0  0  0  0  0  0
  -17.5249  -22.9711    7.8697 C   0  0  0  0  0  0  0  0  0  0  0  0
  -16.5657  -22.6147    5.6705 C   0  0  0  0  0  0  0  0  0  0  0  0
  -17.8271  -21.5300    8.0097 C   0  0  0  0  0  0  0  0  0  0  0  0
  -17.0710  -22.8744    4.4071 C   0  0  0  0  0  0  0  0  0  0  0  0
  -16.7639  -22.0712    3.3248 C   0  0  0  0  0  0  0  0  0  0  0  0
  -15.9334  -20.9820    3.5021 C   0  0  0  0  0  0  0  0  0  0  0  0
  -15.4217  -20.7096    4.7552 C   0  0  0  0  0  0  0  0  0  0  0  0
  -15.7368  -21.5245    5.8406 C   0  0  0  0  0  0  0  0  0  0  0  0
  -17.3565  -20.7922    9.0705 C   0  0  0  0  0  0  0  0  0  0  0  0
  -17.6231  -19.4299    9.1987 C   0  0  0  0  0  0  0  0  0  0  0  0
  -18.3745  -18.8045    8.2427 C   0  0  0  0  0  0  0  0  0  0  0  0
  -18.8533  -19.5176    7.1768 C   0  0  0  0  0  0  0  0  0  0  0  0
  -18.5774  -20.8586    7.0725 C   0  0  0  0  0  0  0  0  0  0  0  0
  -18.6807  -17.3677    8.3596 C   0  0  0  0  0  0  0  0  0  0  0  0
  -16.7931  -16.0695    7.7039 C   0  0  0  0  0  0  0  0  0  0  0  0
  -17.3223  -14.6916    7.3137 C   0  0  0  0  0  0  0  0  0  0  0  0
  -17.1600  -13.7672    8.4669 C   0  0  1  0  0  0  0  0  0  0  0  0
  -16.7358  -14.5690    9.7086 C   0  0  0  0  0  0  0  0  0  0  0  0
  -17.8277  -15.6508    9.8288 C   0  0  0  0  0  0  0  0  0  0  0  0
  -16.5578  -11.7742    7.1611 C   0  0  0  0  0  0  0  0  0  0  0  0
  -15.0904  -10.8424    8.3852 C   0  0  0  0  0  0  0  0  0  0  0  0
  -15.4956  -11.9880    9.0553 C   0  0  0  0  0  0  0  0  0  0  0  0
  -14.1310  -10.0707    8.9951 C   0  0  0  0  0  0  0  0  0  0  0  0
  -13.5939  -10.4178   10.2186 C   0  0  0  0  0  0  0  0  0  0  0  0
  -13.9984  -11.5527   10.8778 C   0  0  0  0  0  0  0  0  0  0  0  0
  -14.9723  -12.3416   10.2660 C   0  0  0  0  0  0  0  0  0  0  0  0
  -13.0363  -13.3178   12.3982 C   0  0  0  0  0  0  0  0  0  0  0  0
  -12.5512  -13.6937   13.7593 C   0  0  0  0  0  0  0  0  0  0  0  0
  -11.0565  -13.8829   13.7050 C   0  0  0  0  0  0  0  0  0  0  0  0
  -16.7143  -27.0496    7.5720 C   0  0  0  0  0  0  0  0  0  0  0  0
  -16.6378  -24.8557    6.6319 N   0  0  0  0  0  0  0  0  0  0  0  0
  -17.8984  -23.8212    8.9708 N   0  0  0  0  0  0  0  0  0  0  0  0
  -17.5519  -16.6163    8.8222 N   0  0  1  0  0  4  0  0  0  0  0  0
  -16.4283  -12.5730    8.2679 N   0  0  0  0  0  0  0  0  0  0  0  0
  -15.7572  -10.7303    7.2218 N   0  0  0  0  0  0  0  0  0  0  0  0
  -13.5154  -12.0144   12.1177 N   0  0  0  0  0  0  0  0  0  0  0  0
  -13.0086  -14.1890   11.5091 O   0  0  0  0  0  0  0  0  0  0  0  0
  -17.3525  -12.0204    6.2054 O   0  0  0  0  0  0  0  0  0  0  0  0
  -17.9156  -26.0222    9.7848 O   0  0  0  0  0  0  0  0  0  0  0  0
  1  2  1  0
 35  1  1  0
  1 42  2  0
  2 33  2  0
 34  2  1  0
  4  3  2  0
  3  5  1  0
  3 34  1  0
  6  4  1  0
  4 35  1  0
  5  7  2  0
  5 11  1  0
 12  6  2  0
 16  6  1  0
  7  8  1  0
  8  9  2  0
 10  9  1  0
 11 10  2  0
 13 12  1  0
 14 13  2  0
 14 15  1  0
 17 14  1  0
 15 16  2  0
 36 17  1  6
 19 18  1  0
 18 36  1  0
 20 19  1  0
 20 21  1  0
 20 37  1  6
 21 22  1  0
 22 36  1  0
 37 23  1  0
 23 38  1  0
 23 41  2  0
 25 24  2  0
 26 24  1  0
 24 38  1  0
 29 25  1  0
 25 37  1  0
 27 26  2  0
 28 27  1  0
 28 29  2  0
 39 28  1  0
 30 31  1  0
 30 39  1  0
 30 40  2  0
 31 32  1  0
M  CHG  1  36   1
M  END
$$$$
