
     RDKit          3D

 42 47  0  0  0  0  0  0  0  0999 V2000
  -17.4886  -12.7066    6.3068 C   0  0  0  0  0  0  0  0  0  0  0  0
  -16.5484  -12.9288    5.2042 C   0  0  0  0  0  0  0  0  0  0  0  0
  -14.9055  -13.5045    6.9224 C   0  0  0  0  0  0  0  0  0  0  0  0
  -15.7503  -13.3052    7.9151 C   0  0  0  0  0  0  0  0  0  0  0  0
  -13.5207  -13.9223    7.1863 C   0  0  0  0  0  0  0  0  0  0  0  0
  -15.3754  -13.4897    9.3339 C   0  0  0  0  0  0  0  0  0  0  0  0
  -12.6519  -14.1338    6.1282 C   0  0  0  0  0  0  0  0  0  0  0  0
  -11.3347  -14.4991    6.3342 C   0  0  0  0  0  0  0  0  0  0  0  0
  -10.8685  -14.6585    7.6245 C   0  0  0  0  0  0  0  0  0  0  0  0
  -11.7219  -14.4513    8.6899 C   0  0  0  0  0  0  0  0  0  0  0  0
  -13.0481  -14.0829    8.4729 C   0  0  0  0  0  0  0  0  0  0  0  0
  -14.5139  -12.6286    9.9721 C   0  0  0  0  0  0  0  0  0  0  0  0
  -14.1706  -12.7870   11.3140 C   0  0  0  0  0  0  0  0  0  0  0  0
  -14.7049  -13.8285   12.0206 C   0  0  0  0  0  0  0  0  0  0  0  0
  -15.5658  -14.6985   11.4074 C   0  0  0  0  0  0  0  0  0  0  0  0
  -15.8887  -14.5217   10.0846 C   0  0  0  0  0  0  0  0  0  0  0  0
  -14.3502  -14.0257   13.4373 C   0  0  0  0  0  0  0  0  0  0  0  0
  -12.4996  -13.5454   14.8595 C   0  0  0  0  0  0  0  0  0  0  0  0
  -12.5704  -14.5341   16.0208 C   0  0  0  0  0  0  0  0  0  0  0  0
  -11.6555  -15.6727   15.7426 C   0  0  1  0  0  0  0  0  0  0  0  0
  -11.1404  -15.5726   14.2971 C   0  0  0  0  0  0  0  0  0  0  0  0
  -12.4322  -15.4936   13.4593 C   0  0  0  0  0  0  0  0  0  0  0  0
   -9.5150  -15.2337   16.8675 C   0  0  0  0  0  0  0  0  0  0  0  0
   -9.3947  -16.8233   18.2742 C   0  0  0  0  0  0  0  0  0  0  0  0
  -10.5897  -16.9907   17.5889 C   0  0  0  0  0  0  0  0  0  0  0  0
   -9.0989  -17.7492   19.2453 C   0  0  0  0  0  0  0  0  0  0  0  0
   -9.9505  -18.7985   19.5275 C   0  0  0  0  0  0  0  0  0  0  0  0
  -11.1321  -18.9595   18.8465 C   0  0  0  0  0  0  0  0  0  0  0  0
  -11.4406  -18.0238   17.8593 C   0  0  0  0  0  0  0  0  0  0  0  0
  -13.4803  -19.8569   19.0304 C   0  0  0  0  0  0  0  0  0  0  0  0
  -14.3681  -20.9201   19.5877 C   0  0  0  0  0  0  0  0  0  0  0  0
  -15.6686  -20.9133   18.8251 C   0  0  0  0  0  0  0  0  0  0  0  0
  -16.9058  -12.7588    3.9469 C   0  0  0  0  0  0  0  0  0  0  0  0
  -15.2315  -13.3373    5.5486 N   0  0  0  0  0  0  0  0  0  0  0  0
  -17.1041  -12.8899    7.6516 N   0  0  0  0  0  0  0  0  0  0  0  0
  -12.9367  -14.1740   13.6189 N   0  0  1  0  0  4  0  0  0  0  0  0
  -10.6559  -15.9748   16.6966 N   0  0  0  0  0  0  0  0  0  0  0  0
   -8.7495  -15.7357   17.8141 N   0  0  0  0  0  0  0  0  0  0  0  0
  -12.0702  -19.9931   19.0359 N   0  0  0  0  0  0  0  0  0  0  0  0
  -14.0180  -18.8385   18.5573 O   0  0  0  0  0  0  0  0  0  0  0  0
   -9.2427  -14.1968   16.1923 O   0  0  0  0  0  0  0  0  0  0  0  0
  -18.6603  -12.3425    5.9825 O   0  0  0  0  0  0  0  0  0  0  0  0
  1  2  1  0
 35  1  1  0
  1 42  2  0
  2 33  2  0
 34  2  1  0
  4  3  2  0
  3  5  1  0
  3 34  1  0
  6  4  1  0
  4 35  1  0
  5  7  2  0
  5 11  1  0
 12  6  2  0
 16  6  1  0
  7  8  1  0
  8  9  2  0
 10  9  1  0
 11 10  2  0
 13 12  1  0
 14 13  2  0
 14 15  1  0
 17 14  1  0
 15 16  2  0
 36 17  1  1
 19 18  1  0
 18 36  1  0
 20 19  1  0
 20 21  1  0
 20 37  1  1
 21 22  1  0
 22 36  1  0
 37 23  1  0
 23 38  1  0
 23 41  2  0
 25 24  2  0
 26 24  1  0
 24 38  1  0
 29 25  1  0
 25 37  1  0
 27 26  2  0
 28 27  1  0
 28 29  2  0
 39 28  1  0
 30 31  1  0
 30 39  1  0
 30 40  2  0
 31 32  1  0
M  CHG  1  36   1
M  END
$$$$
