
     RDKit          3D

 42 47  0  0  0  0  0  0  0  0999 V2000
  -15.8828  -14.4813    4.4881 C   0  0  0  0  0  0  0  0  0  0  0  0
  -16.8702  -15.5325    4.2272 C   0  0  0  0  0  0  0  0  0  0  0  0
  -17.0750  -15.8330    6.6522 C   0  0  0  0  0  0  0  0  0  0  0  0
  -16.1918  -14.8923    6.8787 C   0  0  0  0  0  0  0  0  0  0  0  0
  -17.7164  -16.5638    7.7313 C   0  0  0  0  0  0  0  0  0  0  0  0
  -15.8511  -14.5671    8.2721 C   0  0  0  0  0  0  0  0  0  0  0  0
  -18.3091  -15.9421    8.8037 C   0  0  0  0  0  0  0  0  0  0  0  0
  -18.9092  -16.7191    9.7840 C   0  0  0  0  0  0  0  0  0  0  0  0
  -18.9139  -18.0892    9.6903 C   0  0  0  0  0  0  0  0  0  0  0  0
  -18.3304  -18.7273    8.6331 C   0  0  0  0  0  0  0  0  0  0  0  0
  -17.7373  -17.9380    7.6655 C   0  0  0  0  0  0  0  0  0  0  0  0
  -15.7476  -13.2983    8.7654 C   0  0  0  0  0  0  0  0  0  0  0  0
  -15.4327  -13.0847   10.0875 C   0  0  0  0  0  0  0  0  0  0  0  0
  -15.2053  -14.1067   10.9829 C   0  0  0  0  0  0  0  0  0  0  0  0
  -15.3092  -15.3944   10.4862 C   0  0  0  0  0  0  0  0  0  0  0  0
  -15.6236  -15.6198    9.1657 C   0  0  0  0  0  0  0  0  0  0  0  0
  -14.8623  -13.8831   12.3935 C   0  0  0  0  0  0  0  0  0  0  0  0
  -12.6480  -13.7827   13.0379 C   0  0  0  0  0  0  0  0  0  0  0  0
  -11.7043  -14.2190   14.1016 C   0  0  0  0  0  0  0  0  0  0  0  0
  -12.5632  -14.3097   15.3735 C   0  0  1  0  0  0  0  0  0  0  0  0
  -13.3603  -15.5734   15.1379 C   0  0  0  0  0  0  0  0  0  0  0  0
  -14.1526  -15.5183   13.8743 C   0  0  0  0  0  0  0  0  0  0  0  0
  -11.0323  -13.3648   17.0531 C   0  0  0  0  0  0  0  0  0  0  0  0
  -10.9578  -15.0830   18.4396 C   0  0  0  0  0  0  0  0  0  0  0  0
  -11.7921  -15.4327   17.4003 C   0  0  0  0  0  0  0  0  0  0  0  0
  -10.7396  -15.9746   19.4381 C   0  0  0  0  0  0  0  0  0  0  0  0
  -11.3521  -17.2286   19.4126 C   0  0  0  0  0  0  0  0  0  0  0  0
  -12.1800  -17.5597   18.3694 C   0  0  0  0  0  0  0  0  0  0  0  0
  -12.4096  -16.6597   17.3470 C   0  0  0  0  0  0  0  0  0  0  0  0
  -12.3284  -20.0779   18.6211 C   0  0  0  0  0  0  0  0  0  0  0  0
  -13.2433  -21.2650   18.7446 C   0  0  0  0  0  0  0  0  0  0  0  0
  -12.5453  -22.4786   18.2317 C   0  0  0  0  0  0  0  0  0  0  0  0
  -17.1984  -15.8417    2.9817 C   0  0  0  0  0  0  0  0  0  0  0  0
  -17.4627  -16.2046    5.3051 N   0  0  0  0  0  0  0  0  0  0  0  0
  -15.5333  -14.1507    5.8223 N   0  0  0  0  0  0  0  0  0  0  0  0
  -13.7067  -14.6931   12.8311 N   0  0  1  0  0  4  0  0  0  0  0  0
  -11.8073  -14.3444   16.5717 N   0  0  0  0  0  0  0  0  0  0  0  0
  -10.5103  -13.8186   18.2009 N   0  0  0  0  0  0  0  0  0  0  0  0
  -12.8359  -18.8079   18.2716 N   0  0  0  0  0  0  0  0  0  0  0  0
  -11.1138  -20.2490   18.8357 O   0  0  0  0  0  0  0  0  0  0  0  0
  -10.7999  -12.2118   16.5618 O   0  0  0  0  0  0  0  0  0  0  0  0
  -15.3468  -13.8728    3.5024 O   0  0  0  0  0  0  0  0  0  0  0  0
  1  2  1  0
 35  1  1  0
  1 42  2  0
  2 33  2  0
 34  2  1  0
  4  3  2  0
  3  5  1  0
  3 34  1  0
  6  4  1  0
  4 35  1  0
  5  7  2  0
  5 11  1  0
 12  6  2  0
 16  6  1  0
  7  8  1  0
  8  9  2  0
 10  9  1  0
 11 10  2  0
 13 12  1  0
 14 13  2  0
 14 15  1  0
 17 14  1  1
 15 16  2  0
 36 17  1  1
 19 18  1  1
 18 36  1  6
 20 19  1  0
 21 20  1  1
 20 37  1  1
 22 21  1  1
 22 36  1  0
 37 23  1  0
 23 38  1  0
 23 41  2  0
 25 24  2  0
 26 24  1  0
 24 38  1  0
 29 25  1  0
 25 37  1  0
 27 26  2  0
 28 27  1  0
 28 29  2  0
 39 28  1  0
 31 30  1  1
 30 39  1  0
 30 40  2  0
 32 31  1  6
M  CHG  1  36   1
M  END
$$$$
