
     RDKit          3D

 42 47  0  0  0  0  0  0  0  0999 V2000
  -15.5395  -11.1639    5.7325 C   0  0  0  0  0  0  0  0  0  0  0  0
  -16.5349  -12.1442    5.2885 C   0  0  0  0  0  0  0  0  0  0  0  0
  -15.9712  -13.4045    7.3075 C   0  0  0  0  0  0  0  0  0  0  0  0
  -15.0757  -12.5234    7.7081 C   0  0  0  0  0  0  0  0  0  0  0  0
  -16.2396  -14.6156    8.0971 C   0  0  0  0  0  0  0  0  0  0  0  0
  -14.2985  -12.6834    8.9563 C   0  0  0  0  0  0  0  0  0  0  0  0
  -16.4783  -14.5115    9.4576 C   0  0  0  0  0  0  0  0  0  0  0  0
  -16.7629  -15.6219   10.2303 C   0  0  0  0  0  0  0  0  0  0  0  0
  -16.8115  -16.8677    9.6360 C   0  0  0  0  0  0  0  0  0  0  0  0
  -16.5760  -16.9882    8.2809 C   0  0  0  0  0  0  0  0  0  0  0  0
  -16.2902  -15.8634    7.5097 C   0  0  0  0  0  0  0  0  0  0  0  0
  -13.5472  -13.8088    9.2012 C   0  0  0  0  0  0  0  0  0  0  0  0
  -12.7986  -13.9578   10.3677 C   0  0  0  0  0  0  0  0  0  0  0  0
  -12.8085  -12.9566   11.2989 C   0  0  0  0  0  0  0  0  0  0  0  0
  -13.5480  -11.8261   11.0773 C   0  0  0  0  0  0  0  0  0  0  0  0
  -14.2774  -11.7025    9.9205 C   0  0  0  0  0  0  0  0  0  0  0  0
  -12.0351  -13.0929   12.5459 C   0  0  0  0  0  0  0  0  0  0  0  0
  -12.8080  -15.1524   13.4622 C   0  0  0  0  0  0  0  0  0  0  0  0
  -11.6328  -15.7633   14.2217 C   0  0  0  0  0  0  0  0  0  0  0  0
  -11.7673  -15.4347   15.6656 C   0  0  1  0  0  0  0  0  0  0  0  0
  -12.9016  -14.4135   15.8536 C   0  0  0  0  0  0  0  0  0  0  0  0
  -12.5082  -13.2606   14.9086 C   0  0  0  0  0  0  0  0  0  0  0  0
  -12.8800  -17.2941   16.8251 C   0  0  0  0  0  0  0  0  0  0  0  0
  -11.3561  -18.0113   18.1225 C   0  0  0  0  0  0  0  0  0  0  0  0
  -10.8076  -16.9502   17.4160 C   0  0  0  0  0  0  0  0  0  0  0  0
  -10.5428  -18.6380   19.0356 C   0  0  0  0  0  0  0  0  0  0  0  0
   -9.2396  -18.2318   19.2419 C   0  0  0  0  0  0  0  0  0  0  0  0
   -8.7016  -17.1811   18.5401 C   0  0  0  0  0  0  0  0  0  0  0  0
   -9.5200  -16.5396   17.6107 C   0  0  0  0  0  0  0  0  0  0  0  0
   -7.0343  -15.3024   18.7487 C   0  0  0  0  0  0  0  0  0  0  0  0
   -5.7692  -14.8660   19.4107 C   0  0  0  0  0  0  0  0  0  0  0  0
   -4.8419  -14.3071   18.3616 C   0  0  0  0  0  0  0  0  0  0  0  0
  -17.2163  -11.9796    4.1723 C   0  0  0  0  0  0  0  0  0  0  0  0
  -16.7358  -13.2827    6.1150 N   0  0  0  0  0  0  0  0  0  0  0  0
  -14.8120  -11.3417    6.9278 N   0  0  0  0  0  0  0  0  0  0  0  0
  -12.8063  -13.7002   13.5897 N   0  0  1  0  0  4  0  0  0  0  0  0
  -11.7853  -16.5014   16.5945 N   0  0  0  0  0  0  0  0  0  0  0  0
  -12.6323  -18.2056   17.7427 N   0  0  0  0  0  0  0  0  0  0  0  0
   -7.3958  -16.6701   18.6734 N   0  0  0  0  0  0  0  0  0  0  0  0
   -7.7687  -14.4238   18.2599 O   0  0  0  0  0  0  0  0  0  0  0  0
  -13.9867  -17.1567   16.2237 O   0  0  0  0  0  0  0  0  0  0  0  0
  -15.3722  -10.1531    4.9835 O   0  0  0  0  0  0  0  0  0  0  0  0
  1  2  1  0
 35  1  1  0
  1 42  2  0
  2 33  2  0
 34  2  1  0
  4  3  2  0
  3  5  1  0
  3 34  1  0
  6  4  1  0
  4 35  1  0
  5  7  2  0
  5 11  1  0
 12  6  2  0
 16  6  1  0
  7  8  1  0
  8  9  2  0
 10  9  1  0
 11 10  2  0
 13 12  1  0
 14 13  2  0
 14 15  1  0
 17 14  1  0
 15 16  2  0
 36 17  1  6
 19 18  1  0
 18 36  1  0
 20 19  1  0
 20 21  1  0
 20 37  1  1
 21 22  1  0
 22 36  1  0
 37 23  1  0
 23 38  1  0
 23 41  2  0
 25 24  2  0
 26 24  1  0
 24 38  1  0
 29 25  1  0
 25 37  1  0
 27 26  2  0
 28 27  1  0
 28 29  2  0
 39 28  1  0
 30 31  1  0
 30 39  1  0
 30 40  2  0
 31 32  1  0
M  CHG  1  36   1
M  END
$$$$
