
     RDKit          3D

 42 47  0  0  0  0  0  0  0  0999 V2000
  -15.8246  -18.7167    5.3810 C   0  0  0  0  0  0  0  0  0  0  0  0
  -17.2398  -18.4013    5.1669 C   0  0  0  0  0  0  0  0  0  0  0  0
  -17.1248  -16.9226    7.1196 C   0  0  0  0  0  0  0  0  0  0  0  0
  -15.8599  -17.2085    7.3055 C   0  0  0  0  0  0  0  0  0  0  0  0
  -17.8439  -16.0077    7.9890 C   0  0  0  0  0  0  0  0  0  0  0  0
  -15.1517  -16.5726    8.4269 C   0  0  0  0  0  0  0  0  0  0  0  0
  -19.1274  -16.2422    8.4197 C   0  0  0  0  0  0  0  0  0  0  0  0
  -19.7342  -15.3190    9.2589 C   0  0  0  0  0  0  0  0  0  0  0  0
  -19.0680  -14.1858    9.6565 C   0  0  0  0  0  0  0  0  0  0  0  0
  -17.7920  -13.9333    9.2400 C   0  0  0  0  0  0  0  0  0  0  0  0
  -17.2025  -14.8636    8.4044 C   0  0  0  0  0  0  0  0  0  0  0  0
  -13.9334  -15.9649    8.3253 C   0  0  0  0  0  0  0  0  0  0  0  0
  -13.3460  -15.3857    9.4263 C   0  0  0  0  0  0  0  0  0  0  0  0
  -13.9282  -15.3780   10.6748 C   0  0  0  0  0  0  0  0  0  0  0  0
  -15.1633  -15.9935   10.7816 C   0  0  0  0  0  0  0  0  0  0  0  0
  -15.7601  -16.5759    9.6872 C   0  0  0  0  0  0  0  0  0  0  0  0
  -13.3016  -14.7668   11.8543 C   0  0  0  0  0  0  0  0  0  0  0  0
  -14.4176  -16.3874   13.0611 C   0  0  0  0  0  0  0  0  0  0  0  0
  -14.5152  -16.9983   14.4137 C   0  0  0  0  0  0  0  0  0  0  0  0
  -13.1076  -16.8477   15.0135 C   0  0  1  0  0  0  0  0  0  0  0  0
  -13.0534  -15.3739   15.3492 C   0  0  0  0  0  0  0  0  0  0  0  0
  -13.2999  -14.5101   14.1575 C   0  0  0  0  0  0  0  0  0  0  0  0
  -13.1510  -18.9883   16.2273 C   0  0  0  0  0  0  0  0  0  0  0  0
  -12.2448  -18.3130   18.1256 C   0  0  0  0  0  0  0  0  0  0  0  0
  -12.3074  -17.2186   17.2907 C   0  0  0  0  0  0  0  0  0  0  0  0
  -11.7226  -18.1646   19.3685 C   0  0  0  0  0  0  0  0  0  0  0  0
  -11.2552  -16.9206   19.7951 C   0  0  0  0  0  0  0  0  0  0  0  0
  -11.3257  -15.8416   18.9501 C   0  0  0  0  0  0  0  0  0  0  0  0
  -11.8555  -15.9808   17.6821 C   0  0  0  0  0  0  0  0  0  0  0  0
   -9.5696  -14.1692   19.6892 C   0  0  0  0  0  0  0  0  0  0  0  0
   -9.3379  -12.9235   20.4992 C   0  0  0  0  0  0  0  0  0  0  0  0
   -8.2325  -12.1353   19.8827 C   0  0  0  0  0  0  0  0  0  0  0  0
  -17.8998  -18.9566    4.1616 C   0  0  0  0  0  0  0  0  0  0  0  0
  -17.8858  -17.5084    6.0330 N   0  0  0  0  0  0  0  0  0  0  0  0
  -15.1192  -18.1204    6.4572 N   0  0  0  0  0  0  0  0  0  0  0  0
  -14.0607  -15.0221   13.0958 N   0  0  1  0  0  4  0  0  0  0  0  0
  -12.8722  -17.6823   16.1343 N   0  0  0  0  0  0  0  0  0  0  0  0
  -12.7654  -19.3759   17.4509 N   0  0  0  0  0  0  0  0  0  0  0  0
  -10.8741  -14.5509   19.3082 N   0  0  0  0  0  0  0  0  0  0  0  0
   -8.5791  -14.8512   19.3663 O   0  0  0  0  0  0  0  0  0  0  0  0
  -13.6770  -19.7595   15.3595 O   0  0  0  0  0  0  0  0  0  0  0  0
  -15.2419  -19.5304    4.5889 O   0  0  0  0  0  0  0  0  0  0  0  0
  1  2  1  0
 35  1  1  0
  1 42  2  0
  2 33  2  0
 34  2  1  0
  4  3  2  0
  3  5  1  0
  3 34  1  0
  6  4  1  0
  4 35  1  0
  5  7  2  0
  5 11  1  0
 12  6  2  0
 16  6  1  0
  7  8  1  0
  8  9  2  0
 10  9  1  0
 11 10  2  0
 13 12  1  0
 14 13  2  0
 14 15  1  0
 17 14  1  1
 15 16  2  0
 36 17  1  6
 19 18  1  1
 18 36  1  6
 20 19  1  0
 21 20  1  1
 20 37  1  1
 22 21  1  1
 22 36  1  0
 37 23  1  0
 23 38  1  0
 23 41  2  0
 25 24  2  0
 26 24  1  0
 24 38  1  0
 29 25  1  0
 25 37  1  0
 27 26  2  0
 28 27  1  0
 28 29  2  0
 39 28  1  0
 31 30  1  1
 30 39  1  0
 30 40  2  0
 32 31  1  6
M  CHG  1  36   1
M  END
$$$$
