
     RDKit          3D

 42 47  0  0  0  0  0  0  0  0999 V2000
  -16.9771  -14.0266    4.6110 C   0  0  0  0  0  0  0  0  0  0  0  0
  -17.7974  -15.1656    4.1893 C   0  0  0  0  0  0  0  0  0  0  0  0
  -17.7178  -15.9783    6.5015 C   0  0  0  0  0  0  0  0  0  0  0  0
  -16.9849  -14.9577    6.8720 C   0  0  0  0  0  0  0  0  0  0  0  0
  -18.1239  -17.0147    7.4347 C   0  0  0  0  0  0  0  0  0  0  0  0
  -16.5716  -14.8620    8.2804 C   0  0  0  0  0  0  0  0  0  0  0  0
  -19.4029  -17.5143    7.4839 C   0  0  0  0  0  0  0  0  0  0  0  0
  -19.6999  -18.5128    8.4001 C   0  0  0  0  0  0  0  0  0  0  0  0
  -18.7351  -18.9987    9.2481 C   0  0  0  0  0  0  0  0  0  0  0  0
  -17.4579  -18.5161    9.2160 C   0  0  0  0  0  0  0  0  0  0  0  0
  -17.1793  -17.5216    8.2970 C   0  0  0  0  0  0  0  0  0  0  0  0
  -16.1543  -15.9198    9.0359 C   0  0  0  0  0  0  0  0  0  0  0  0
  -15.7760  -15.7382   10.3461 C   0  0  0  0  0  0  0  0  0  0  0  0
  -15.7913  -14.5111   10.9720 C   0  0  0  0  0  0  0  0  0  0  0  0
  -16.2140  -13.4364   10.2091 C   0  0  0  0  0  0  0  0  0  0  0  0
  -16.5946  -13.6063    8.8978 C   0  0  0  0  0  0  0  0  0  0  0  0
  -15.3948  -14.3139   12.3725 C   0  0  0  0  0  0  0  0  0  0  0  0
  -14.1352  -13.0321   13.8212 C   0  0  0  0  0  0  0  0  0  0  0  0
  -12.7640  -12.8756   14.3760 C   0  0  0  0  0  0  0  0  0  0  0  0
  -12.1733  -14.2950   14.3650 C   0  0  1  0  0  0  0  0  0  0  0  0
  -11.8835  -14.5150   12.8968 C   0  0  0  0  0  0  0  0  0  0  0  0
  -13.1006  -14.3586   12.0476 C   0  0  0  0  0  0  0  0  0  0  0  0
  -10.8455  -15.3643   16.1401 C   0  0  0  0  0  0  0  0  0  0  0  0
   -9.0505  -14.0810   16.0320 C   0  0  0  0  0  0  0  0  0  0  0  0
   -9.9379  -13.6229   15.0827 C   0  0  0  0  0  0  0  0  0  0  0  0
   -7.8546  -13.4566   16.1719 C   0  0  0  0  0  0  0  0  0  0  0  0
   -7.5281  -12.3655   15.3650 C   0  0  0  0  0  0  0  0  0  0  0  0
   -8.4244  -11.9229   14.4248 C   0  0  0  0  0  0  0  0  0  0  0  0
   -9.6453  -12.5510   14.2734 C   0  0  0  0  0  0  0  0  0  0  0  0
   -9.1107   -9.9827   12.9444 C   0  0  0  0  0  0  0  0  0  0  0  0
   -8.6839   -8.6861   12.3134 C   0  0  0  0  0  0  0  0  0  0  0  0
   -9.8937   -7.8837   11.9733 C   0  0  0  0  0  0  0  0  0  0  0  0
  -18.1870  -15.2732    2.9278 C   0  0  0  0  0  0  0  0  0  0  0  0
  -18.1652  -16.1364    5.1311 N   0  0  0  0  0  0  0  0  0  0  0  0
  -16.5618  -13.9123    5.9621 N   0  0  0  0  0  0  0  0  0  0  0  0
  -14.1437  -13.5389   12.5038 N   0  0  1  0  0  4  0  0  0  0  0  0
  -11.0278  -14.4431   15.1861 N   0  0  0  0  0  0  0  0  0  0  0  0
   -9.6305  -15.1419   16.6599 N   0  0  0  0  0  0  0  0  0  0  0  0
   -8.1679  -10.8259   13.5711 N   0  0  0  0  0  0  0  0  0  0  0  0
  -10.3168  -10.2887   12.8972 O   0  0  0  0  0  0  0  0  0  0  0  0
  -11.6336  -16.2908   16.5209 O   0  0  0  0  0  0  0  0  0  0  0  0
  -16.6455  -13.1458    3.7488 O   0  0  0  0  0  0  0  0  0  0  0  0
  1  2  1  0
 35  1  1  0
  1 42  2  0
  2 33  2  0
 34  2  1  0
  4  3  2  0
  3  5  1  0
  3 34  1  0
  6  4  1  0
  4 35  1  0
  5  7  2  0
  5 11  1  0
 12  6  2  0
 16  6  1  0
  7  8  1  0
  8  9  2  0
 10  9  1  0
 11 10  2  0
 13 12  1  0
 14 13  2  0
 14 15  1  0
 17 14  1  1
 15 16  2  0
 36 17  1  1
 19 18  1  1
 18 36  1  6
 20 19  1  0
 21 20  1  1
 20 37  1  1
 22 21  1  1
 22 36  1  0
 37 23  1  0
 23 38  1  0
 23 41  2  0
 25 24  2  0
 26 24  1  0
 24 38  1  0
 29 25  1  0
 25 37  1  0
 27 26  2  0
 28 27  1  0
 28 29  2  0
 39 28  1  0
 31 30  1  1
 30 39  1  0
 30 40  2  0
 32 31  1  6
M  CHG  1  36   1
M  END
$$$$
