
     RDKit          3D

 42 47  0  0  0  0  0  0  0  0999 V2000
  -14.6100  -15.0844    5.6619 C   0  0  0  0  0  0  0  0  0  0  0  0
  -15.1585  -13.8726    5.0458 C   0  0  0  0  0  0  0  0  0  0  0  0
  -15.3949  -13.0061    7.3209 C   0  0  0  0  0  0  0  0  0  0  0  0
  -14.9015  -14.0956    7.8763 C   0  0  0  0  0  0  0  0  0  0  0  0
  -15.8340  -11.8731    8.1488 C   0  0  0  0  0  0  0  0  0  0  0  0
  -14.7518  -14.2501    9.3397 C   0  0  0  0  0  0  0  0  0  0  0  0
  -16.7918  -12.0682    9.1304 C   0  0  0  0  0  0  0  0  0  0  0  0
  -17.2110  -11.0361    9.9490 C   0  0  0  0  0  0  0  0  0  0  0  0
  -16.6647   -9.7778    9.7883 C   0  0  0  0  0  0  0  0  0  0  0  0
  -15.7088   -9.5671    8.8145 C   0  0  0  0  0  0  0  0  0  0  0  0
  -15.2920  -10.6134    7.9940 C   0  0  0  0  0  0  0  0  0  0  0  0
  -14.2517  -15.4032    9.8977 C   0  0  0  0  0  0  0  0  0  0  0  0
  -14.0917  -15.5482   11.2749 C   0  0  0  0  0  0  0  0  0  0  0  0
  -14.4409  -14.5147   12.0993 C   0  0  0  0  0  0  0  0  0  0  0  0
  -14.9401  -13.3564   11.5673 C   0  0  0  0  0  0  0  0  0  0  0  0
  -15.0885  -13.2374   10.2075 C   0  0  0  0  0  0  0  0  0  0  0  0
  -14.2926  -14.6456   13.5597 C   0  0  0  0  0  0  0  0  0  0  0  0
  -12.5099  -16.1046   14.1694 C   0  0  0  0  0  0  0  0  0  0  0  0
  -12.1613  -15.7884   15.6218 C   0  0  0  0  0  0  0  0  0  0  0  0
  -12.8449  -16.7680   16.5072 C   0  0  1  0  0  0  0  0  0  0  0  0
  -13.8353  -17.6021   15.6776 C   0  0  0  0  0  0  0  0  0  0  0  0
  -14.7205  -16.5384   14.9978 C   0  0  0  0  0  0  0  0  0  0  0  0
  -12.4536  -18.7141   17.9561 C   0  0  0  0  0  0  0  0  0  0  0  0
  -10.5123  -18.3316   18.7339 C   0  0  0  0  0  0  0  0  0  0  0  0
  -10.8167  -17.2723   17.8907 C   0  0  0  0  0  0  0  0  0  0  0  0
   -9.2898  -18.2972   19.3604 C   0  0  0  0  0  0  0  0  0  0  0  0
   -8.4040  -17.2573   19.1610 C   0  0  0  0  0  0  0  0  0  0  0  0
   -8.7101  -16.2114   18.3253 C   0  0  0  0  0  0  0  0  0  0  0  0
   -9.9488  -16.2385   17.6848 C   0  0  0  0  0  0  0  0  0  0  0  0
   -6.7089  -14.7361   18.7394 C   0  0  0  0  0  0  0  0  0  0  0  0
   -5.5838  -14.0476   18.0399 C   0  0  0  0  0  0  0  0  0  0  0  0
   -5.0175  -12.9928   18.9561 C   0  0  0  0  0  0  0  0  0  0  0  0
  -15.2816  -13.7574    3.7386 C   0  0  0  0  0  0  0  0  0  0  0  0
  -15.5525  -12.8234    5.9197 N   0  0  0  0  0  0  0  0  0  0  0  0
  -14.4785  -15.2052    7.0612 N   0  0  0  0  0  0  0  0  0  0  0  0
  -13.9450  -15.9813   13.9443 N   0  0  1  0  0  4  0  0  0  0  0  0
  -12.0534  -17.5255   17.4019 N   0  0  0  0  0  0  0  0  0  0  0  0
  -11.5336  -19.2073   18.7590 N   0  0  0  0  0  0  0  0  0  0  0  0
   -7.8968  -15.0936   18.0552 N   0  0  0  0  0  0  0  0  0  0  0  0
   -6.5734  -14.9889   19.9509 O   0  0  0  0  0  0  0  0  0  0  0  0
  -13.5718  -19.2598   17.7174 O   0  0  0  0  0  0  0  0  0  0  0  0
  -14.2629  -16.0116    4.8679 O   0  0  0  0  0  0  0  0  0  0  0  0
  1  2  1  0
 35  1  1  0
  1 42  2  0
  2 33  2  0
 34  2  1  0
  4  3  2  0
  3  5  1  0
  3 34  1  0
  6  4  1  0
  4 35  1  0
  5  7  2  0
  5 11  1  0
 12  6  2  0
 16  6  1  0
  7  8  1  0
  8  9  2  0
 10  9  1  0
 11 10  2  0
 13 12  1  0
 14 13  2  0
 14 15  1  0
 17 14  1  0
 15 16  2  0
 36 17  1  1
 19 18  1  0
 18 36  1  0
 20 19  1  0
 20 21  1  0
 20 37  1  6
 21 22  1  0
 22 36  1  0
 37 23  1  0
 23 38  1  0
 23 41  2  0
 25 24  2  0
 26 24  1  0
 24 38  1  0
 29 25  1  0
 25 37  1  0
 27 26  2  0
 28 27  1  0
 28 29  2  0
 39 28  1  0
 30 31  1  0
 30 39  1  0
 30 40  2  0
 31 32  1  0
M  CHG  1  36   1
M  END
$$$$
