
     RDKit          3D

 42 47  0  0  0  0  0  0  0  0999 V2000
  -16.6490   -9.2132    8.2282 C   0  0  0  0  0  0  0  0  0  0  0  0
  -15.9601   -9.0652    6.9430 C   0  0  0  0  0  0  0  0  0  0  0  0
  -14.8168  -11.1856    7.4009 C   0  0  0  0  0  0  0  0  0  0  0  0
  -15.4359  -11.3121    8.5484 C   0  0  0  0  0  0  0  0  0  0  0  0
  -13.8596  -12.1710    6.9289 C   0  0  0  0  0  0  0  0  0  0  0  0
  -15.1531  -12.4958    9.3744 C   0  0  0  0  0  0  0  0  0  0  0  0
  -12.6131  -11.8342    6.4593 C   0  0  0  0  0  0  0  0  0  0  0  0
  -11.7579  -12.8426    6.0390 C   0  0  0  0  0  0  0  0  0  0  0  0
  -12.1452  -14.1592    6.0886 C   0  0  0  0  0  0  0  0  0  0  0  0
  -13.3796  -14.5158    6.5515 C   0  0  0  0  0  0  0  0  0  0  0  0
  -14.2189  -13.4986    6.9664 C   0  0  0  0  0  0  0  0  0  0  0  0
  -13.9017  -12.9797    9.6269 C   0  0  0  0  0  0  0  0  0  0  0  0
  -13.7275  -14.0901   10.4203 C   0  0  0  0  0  0  0  0  0  0  0  0
  -14.7734  -14.7741   11.0000 C   0  0  0  0  0  0  0  0  0  0  0  0
  -16.0436  -14.2864   10.7460 C   0  0  0  0  0  0  0  0  0  0  0  0
  -16.2297  -13.1767    9.9541 C   0  0  0  0  0  0  0  0  0  0  0  0
  -14.5923  -15.9638   11.8421 C   0  0  0  0  0  0  0  0  0  0  0  0
  -15.1673  -17.9879   10.8928 C   0  0  0  0  0  0  0  0  0  0  0  0
  -15.7738  -19.3102   11.2024 C   0  0  0  0  0  0  0  0  0  0  0  0
  -15.4312  -19.5614   12.6801 C   0  0  1  0  0  0  0  0  0  0  0  0
  -16.3736  -18.6199   13.3966 C   0  0  0  0  0  0  0  0  0  0  0  0
  -16.1967  -17.2020   12.9661 C   0  0  0  0  0  0  0  0  0  0  0  0
  -16.1742  -21.8884   12.3793 C   0  0  0  0  0  0  0  0  0  0  0  0
  -15.4546  -22.7180   14.2961 C   0  0  0  0  0  0  0  0  0  0  0  0
  -15.1212  -21.3812   14.2788 C   0  0  0  0  0  0  0  0  0  0  0  0
  -15.1208  -23.4664   15.3768 C   0  0  0  0  0  0  0  0  0  0  0  0
  -14.4489  -22.8899   16.4559 C   0  0  0  0  0  0  0  0  0  0  0  0
  -14.1250  -21.5568   16.4213 C   0  0  0  0  0  0  0  0  0  0  0  0
  -14.4598  -20.7848   15.3259 C   0  0  0  0  0  0  0  0  0  0  0  0
  -12.5732  -21.4717   18.4242 C   0  0  0  0  0  0  0  0  0  0  0  0
  -11.6852  -20.6039   19.2726 C   0  0  0  0  0  0  0  0  0  0  0  0
  -12.3958  -20.2628   20.5382 C   0  0  0  0  0  0  0  0  0  0  0  0
  -16.2002   -8.0110    6.1777 C   0  0  0  0  0  0  0  0  0  0  0  0
  -15.0483  -10.0475    6.5325 N   0  0  0  0  0  0  0  0  0  0  0  0
  -16.3915  -10.3430    9.0458 N   0  0  0  0  0  0  0  0  0  0  0  0
  -15.6885  -16.9419   11.6847 N   0  0  1  0  0  4  0  0  0  0  0  0
  -15.5841  -20.9123   13.0800 N   0  0  0  0  0  0  0  0  0  0  0  0
  -16.0945  -22.9980   13.1265 N   0  0  0  0  0  0  0  0  0  0  0  0
  -13.4461  -20.9006   17.4732 N   0  0  0  0  0  0  0  0  0  0  0  0
  -12.5152  -22.7050   18.5858 O   0  0  0  0  0  0  0  0  0  0  0  0
  -16.7192  -21.8321   11.2285 O   0  0  0  0  0  0  0  0  0  0  0  0
  -17.4782   -8.3154    8.5965 O   0  0  0  0  0  0  0  0  0  0  0  0
  1  2  1  0
 35  1  1  0
  1 42  2  0
  2 33  2  0
 34  2  1  0
  4  3  2  0
  3  5  1  0
  3 34  1  0
  6  4  1  0
  4 35  1  0
  5  7  2  0
  5 11  1  0
 12  6  2  0
 16  6  1  0
  7  8  1  0
  8  9  2  0
 10  9  1  0
 11 10  2  0
 13 12  1  0
 14 13  2  0
 14 15  1  0
 17 14  1  1
 15 16  2  0
 36 17  1  1
 19 18  1  1
 18 36  1  6
 20 19  1  0
 21 20  1  1
 20 37  1  1
 22 21  1  1
 22 36  1  0
 37 23  1  0
 23 38  1  0
 23 41  2  0
 25 24  2  0
 26 24  1  0
 24 38  1  0
 29 25  1  0
 25 37  1  0
 27 26  2  0
 28 27  1  0
 28 29  2  0
 39 28  1  0
 31 30  1  1
 30 39  1  0
 30 40  2  0
 32 31  1  6
M  CHG  1  36   1
M  END
$$$$
