
     RDKit          3D

 42 47  0  0  0  0  0  0  0  0999 V2000
  -16.3577  -10.7470    6.5839 C   0  0  0  0  0  0  0  0  0  0  0  0
  -15.5394  -10.0763    7.5982 C   0  0  0  0  0  0  0  0  0  0  0  0
  -15.5010  -12.1853    8.8486 C   0  0  0  0  0  0  0  0  0  0  0  0
  -16.2324  -12.7790    7.9384 C   0  0  0  0  0  0  0  0  0  0  0  0
  -15.0366  -12.8793   10.0372 C   0  0  0  0  0  0  0  0  0  0  0  0
  -16.5828  -14.1947    8.1298 C   0  0  0  0  0  0  0  0  0  0  0  0
  -15.8440  -13.7049   10.7817 C   0  0  0  0  0  0  0  0  0  0  0  0
  -15.3133  -14.3374   11.8967 C   0  0  0  0  0  0  0  0  0  0  0  0
  -14.0020  -14.1452   12.2565 C   0  0  0  0  0  0  0  0  0  0  0  0
  -13.1824  -13.3287   11.5307 C   0  0  0  0  0  0  0  0  0  0  0  0
  -13.7272  -12.7067   10.4229 C   0  0  0  0  0  0  0  0  0  0  0  0
  -15.8244  -15.0900    8.8278 C   0  0  0  0  0  0  0  0  0  0  0  0
  -16.2332  -16.3964    8.9655 C   0  0  0  0  0  0  0  0  0  0  0  0
  -17.4035  -16.8811    8.4240 C   0  0  0  0  0  0  0  0  0  0  0  0
  -18.1748  -15.9762    7.7155 C   0  0  0  0  0  0  0  0  0  0  0  0
  -17.7758  -14.6673    7.5715 C   0  0  0  0  0  0  0  0  0  0  0  0
  -17.8403  -18.2766    8.5629 C   0  0  0  0  0  0  0  0  0  0  0  0
  -16.5353  -20.1770    8.6801 C   0  0  0  0  0  0  0  0  0  0  0  0
  -16.3311  -21.5124    8.0577 C   0  0  0  0  0  0  0  0  0  0  0  0
  -17.7231  -21.9253    7.5519 C   0  0  1  0  0  0  0  0  0  0  0  0
  -17.8999  -21.0464    6.3337 C   0  0  0  0  0  0  0  0  0  0  0  0
  -17.7789  -19.5947    6.6577 C   0  0  0  0  0  0  0  0  0  0  0  0
  -18.2123  -23.8481    6.0957 C   0  0  0  0  0  0  0  0  0  0  0  0
  -17.7885  -25.4709    7.5335 C   0  0  0  0  0  0  0  0  0  0  0  0
  -17.5645  -24.2782    8.1860 C   0  0  0  0  0  0  0  0  0  0  0  0
  -17.5977  -26.6346    8.2036 C   0  0  0  0  0  0  0  0  0  0  0  0
  -17.1803  -26.6233    9.5355 C   0  0  0  0  0  0  0  0  0  0  0  0
  -16.9623  -25.4259   10.1694 C   0  0  0  0  0  0  0  0  0  0  0  0
  -17.1533  -24.2346    9.4970 C   0  0  0  0  0  0  0  0  0  0  0  0
  -16.2730  -24.1589   12.2542 C   0  0  0  0  0  0  0  0  0  0  0  0
  -15.9599  -24.2298   13.7233 C   0  0  0  0  0  0  0  0  0  0  0  0
  -15.2329  -22.9935   14.1309 C   0  0  0  0  0  0  0  0  0  0  0  0
  -15.2059   -8.8032    7.4477 C   0  0  0  0  0  0  0  0  0  0  0  0
  -15.1139  -10.7932    8.7250 N   0  0  0  0  0  0  0  0  0  0  0  0
  -16.7130  -12.1103    6.7460 N   0  0  0  0  0  0  0  0  0  0  0  0
  -17.0147  -19.2106    7.7697 N   0  0  1  0  0  4  0  0  0  0  0  0
  -17.8383  -23.3076    7.2618 N   0  0  0  0  0  0  0  0  0  0  0  0
  -18.1816  -25.1774    6.2626 N   0  0  0  0  0  0  0  0  0  0  0  0
  -16.5395  -25.3315   11.5149 N   0  0  0  0  0  0  0  0  0  0  0  0
  -16.2897  -23.0381   11.7117 O   0  0  0  0  0  0  0  0  0  0  0  0
  -18.5426  -23.2654    5.0113 O   0  0  0  0  0  0  0  0  0  0  0  0
  -16.7421  -10.0889    5.5600 O   0  0  0  0  0  0  0  0  0  0  0  0
  1  2  1  0
 35  1  1  0
  1 42  2  0
  2 33  2  0
 34  2  1  0
  4  3  2  0
  3  5  1  0
  3 34  1  0
  6  4  1  0
  4 35  1  0
  5  7  2  0
  5 11  1  0
 12  6  2  0
 16  6  1  0
  7  8  1  0
  8  9  2  0
 10  9  1  0
 11 10  2  0
 13 12  1  0
 14 13  2  0
 14 15  1  0
 17 14  1  1
 15 16  2  0
 36 17  1  1
 19 18  1  1
 18 36  1  6
 20 19  1  0
 21 20  1  1
 20 37  1  6
 22 21  1  1
 22 36  1  0
 37 23  1  0
 23 38  1  0
 23 41  2  0
 25 24  2  0
 26 24  1  0
 24 38  1  0
 29 25  1  0
 25 37  1  0
 27 26  2  0
 28 27  1  0
 28 29  2  0
 39 28  1  0
 31 30  1  1
 30 39  1  0
 30 40  2  0
 32 31  1  6
M  CHG  1  36   1
M  END
$$$$
