
     RDKit          3D

 42 47  0  0  0  0  0  0  0  0999 V2000
  -13.4740  -10.1797   11.1445 C   0  0  0  0  0  0  0  0  0  0  0  0
  -12.4299   -9.8980   12.1342 C   0  0  0  0  0  0  0  0  0  0  0  0
  -12.8931  -12.1255   13.0324 C   0  0  0  0  0  0  0  0  0  0  0  0
  -13.8323  -12.3801   12.1426 C   0  0  0  0  0  0  0  0  0  0  0  0
  -12.5449  -13.1156   14.0623 C   0  0  0  0  0  0  0  0  0  0  0  0
  -14.5822  -13.6547   12.1133 C   0  0  0  0  0  0  0  0  0  0  0  0
  -11.2290  -13.5226   14.2089 C   0  0  0  0  0  0  0  0  0  0  0  0
  -10.8554  -14.4294   15.1832 C   0  0  0  0  0  0  0  0  0  0  0  0
  -11.8138  -14.9451   16.0335 C   0  0  0  0  0  0  0  0  0  0  0  0
  -13.1298  -14.5493   15.9003 C   0  0  0  0  0  0  0  0  0  0  0  0
  -13.4973  -13.6345   14.9156 C   0  0  0  0  0  0  0  0  0  0  0  0
  -15.7958  -13.7652   11.4762 C   0  0  0  0  0  0  0  0  0  0  0  0
  -16.4989  -14.9681   11.4299 C   0  0  0  0  0  0  0  0  0  0  0  0
  -15.9690  -16.0740   12.0347 C   0  0  0  0  0  0  0  0  0  0  0  0
  -14.7616  -15.9892   12.6743 C   0  0  0  0  0  0  0  0  0  0  0  0
  -14.0880  -14.7932   12.7064 C   0  0  0  0  0  0  0  0  0  0  0  0
  -16.6964  -17.3554   12.0106 C   0  0  0  0  0  0  0  0  0  0  0  0
  -16.4228  -19.7152   11.8246 C   0  0  0  0  0  0  0  0  0  0  0  0
  -17.4700  -20.2011   10.8253 C   0  0  0  0  0  0  0  0  0  0  0  0
  -16.8344  -20.3400    9.4884 C   0  0  1  0  0  0  0  0  0  0  0  0
  -15.4222  -19.7326    9.5285 C   0  0  0  0  0  0  0  0  0  0  0  0
  -15.6615  -18.2989   10.0426 C   0  0  0  0  0  0  0  0  0  0  0  0
  -16.4438  -22.7641    9.3847 C   0  0  0  0  0  0  0  0  0  0  0  0
  -17.2249  -23.2796    7.4758 C   0  0  0  0  0  0  0  0  0  0  0  0
  -17.4100  -21.9122    7.6232 C   0  0  0  0  0  0  0  0  0  0  0  0
  -17.6576  -23.8432    6.2997 C   0  0  0  0  0  0  0  0  0  0  0  0
  -18.2495  -23.0851    5.3093 C   0  0  0  0  0  0  0  0  0  0  0  0
  -18.4305  -21.7322    5.4603 C   0  0  0  0  0  0  0  0  0  0  0  0
  -17.9947  -21.1519    6.6513 C   0  0  0  0  0  0  0  0  0  0  0  0
  -20.0416  -19.9223    4.7664 C   0  0  0  0  0  0  0  0  0  0  0  0
  -20.2656  -18.7513    3.8676 C   0  0  0  0  0  0  0  0  0  0  0  0
  -21.7395  -18.6459    3.5686 C   0  0  0  0  0  0  0  0  0  0  0  0
  -11.7742   -8.7547   12.1401 C   0  0  0  0  0  0  0  0  0  0  0  0
  -12.1528  -10.9129   13.0897 N   0  0  0  0  0  0  0  0  0  0  0  0
  -14.1739  -11.4044   11.1396 N   0  0  0  0  0  0  0  0  0  0  0  0
  -15.9087  -18.4068   11.4386 N   0  0  1  0  0  4  0  0  0  0  0  0
  -16.9094  -21.5950    8.8403 N   0  0  0  0  0  0  0  0  0  0  0  0
  -16.6288  -23.7835    8.5718 N   0  0  0  0  0  0  0  0  0  0  0  0
  -19.0064  -20.8572    4.5186 N   0  0  0  0  0  0  0  0  0  0  0  0
  -20.7963  -20.0558    5.7476 O   0  0  0  0  0  0  0  0  0  0  0  0
  -15.9047  -22.8411   10.5288 O   0  0  0  0  0  0  0  0  0  0  0  0
  -13.7091   -9.2635   10.2984 O   0  0  0  0  0  0  0  0  0  0  0  0
  1  2  1  0
 35  1  1  0
  1 42  2  0
  2 33  2  0
 34  2  1  0
  4  3  2  0
  3  5  1  0
  3 34  1  0
  6  4  1  0
  4 35  1  0
  5  7  2  0
  5 11  1  0
 12  6  2  0
 16  6  1  0
  7  8  1  0
  8  9  2  0
 10  9  1  0
 11 10  2  0
 13 12  1  0
 14 13  2  0
 14 15  1  0
 17 14  1  0
 15 16  2  0
 36 17  1  6
 19 18  1  0
 18 36  1  0
 20 19  1  0
 20 21  1  0
 20 37  1  1
 21 22  1  0
 22 36  1  0
 37 23  1  0
 23 38  1  0
 23 41  2  0
 25 24  2  0
 26 24  1  0
 24 38  1  0
 29 25  1  0
 25 37  1  0
 27 26  2  0
 28 27  1  0
 28 29  2  0
 39 28  1  0
 30 31  1  0
 30 39  1  0
 30 40  2  0
 31 32  1  0
M  CHG  1  36   1
M  END
$$$$
