
     RDKit          3D

 42 47  0  0  0  0  0  0  0  0999 V2000
  -15.4180  -14.6656    5.1914 C   0  0  0  0  0  0  0  0  0  0  0  0
  -15.4874  -13.2695    4.7498 C   0  0  0  0  0  0  0  0  0  0  0  0
  -15.1251  -12.6693    7.0932 C   0  0  0  0  0  0  0  0  0  0  0  0
  -15.0623  -13.9247    7.4916 C   0  0  0  0  0  0  0  0  0  0  0  0
  -14.9832  -11.5670    8.0560 C   0  0  0  0  0  0  0  0  0  0  0  0
  -14.8431  -14.3059    8.9038 C   0  0  0  0  0  0  0  0  0  0  0  0
  -15.9672  -10.5957    8.1402 C   0  0  0  0  0  0  0  0  0  0  0  0
  -15.8860   -9.5592    9.0513 C   0  0  0  0  0  0  0  0  0  0  0  0
  -14.7993   -9.4859    9.9006 C   0  0  0  0  0  0  0  0  0  0  0  0
  -13.8101  -10.4465    9.8292 C   0  0  0  0  0  0  0  0  0  0  0  0
  -13.9003  -11.4879    8.9078 C   0  0  0  0  0  0  0  0  0  0  0  0
  -13.7714  -15.0779    9.2865 C   0  0  0  0  0  0  0  0  0  0  0  0
  -13.5497  -15.4256   10.6182 C   0  0  0  0  0  0  0  0  0  0  0  0
  -14.4216  -14.9873   11.5760 C   0  0  0  0  0  0  0  0  0  0  0  0
  -15.4954  -14.2166   11.2197 C   0  0  0  0  0  0  0  0  0  0  0  0
  -15.6927  -13.8873    9.9014 C   0  0  0  0  0  0  0  0  0  0  0  0
  -14.2171  -15.3496   12.9897 C   0  0  0  0  0  0  0  0  0  0  0  0
  -12.1481  -14.5344   13.8460 C   0  0  0  0  0  0  0  0  0  0  0  0
  -12.2693  -14.5426   15.3680 C   0  0  0  0  0  0  0  0  0  0  0  0
  -11.6376  -15.7805   15.8965 C   0  0  1  0  0  0  0  0  0  0  0  0
  -11.2939  -16.7180   14.7270 C   0  0  0  0  0  0  0  0  0  0  0  0
  -12.6376  -16.8798   13.9886 C   0  0  0  0  0  0  0  0  0  0  0  0
   -9.4254  -14.9940   16.6224 C   0  0  0  0  0  0  0  0  0  0  0  0
   -9.3128  -15.7048   18.6229 C   0  0  0  0  0  0  0  0  0  0  0  0
  -10.5470  -16.1040   18.1298 C   0  0  0  0  0  0  0  0  0  0  0  0
   -9.0146  -16.0602   19.9163 C   0  0  0  0  0  0  0  0  0  0  0  0
   -9.9011  -16.7813   20.6909 C   0  0  0  0  0  0  0  0  0  0  0  0
  -11.1214  -17.1739   20.1981 C   0  0  0  0  0  0  0  0  0  0  0  0
  -11.4325  -16.8168   18.8862 C   0  0  0  0  0  0  0  0  0  0  0  0
  -11.9572  -19.2471   21.3625 C   0  0  0  0  0  0  0  0  0  0  0  0
  -13.0342  -19.9076   22.1581 C   0  0  0  0  0  0  0  0  0  0  0  0
  -13.9337  -18.8428   22.7325 C   0  0  0  0  0  0  0  0  0  0  0  0
  -15.6828  -12.9540    3.4851 C   0  0  0  0  0  0  0  0  0  0  0  0
  -15.3339  -12.2671    5.7455 N   0  0  0  0  0  0  0  0  0  0  0  0
  -15.2081  -15.0009    6.5454 N   0  0  0  0  0  0  0  0  0  0  0  0
  -12.8490  -15.6736   13.2662 N   0  0  1  0  0  4  0  0  0  0  0  0
  -10.6079  -15.6472   16.8570 N   0  0  0  0  0  0  0  0  0  0  0  0
   -8.6392  -15.0229   17.6785 N   0  0  0  0  0  0  0  0  0  0  0  0
  -12.0979  -17.9205   20.8857 N   0  0  0  0  0  0  0  0  0  0  0  0
  -10.9236  -19.9001   21.1272 O   0  0  0  0  0  0  0  0  0  0  0  0
   -9.1368  -14.4359   15.5222 O   0  0  0  0  0  0  0  0  0  0  0  0
  -15.5568  -15.5484    4.2902 O   0  0  0  0  0  0  0  0  0  0  0  0
  1  2  1  0
 35  1  1  0
  1 42  2  0
  2 33  2  0
 34  2  1  0
  4  3  2  0
  3  5  1  0
  3 34  1  0
  6  4  1  0
  4 35  1  0
  5  7  2  0
  5 11  1  0
 12  6  2  0
 16  6  1  0
  7  8  1  0
  8  9  2  0
 10  9  1  0
 11 10  2  0
 13 12  1  0
 14 13  2  0
 14 15  1  0
 17 14  1  0
 15 16  2  0
 36 17  1  1
 19 18  1  0
 18 36  1  0
 20 19  1  0
 20 21  1  0
 20 37  1  6
 21 22  1  0
 22 36  1  0
 37 23  1  0
 23 38  1  0
 23 41  2  0
 25 24  2  0
 26 24  1  0
 24 38  1  0
 29 25  1  0
 25 37  1  0
 27 26  2  0
 28 27  1  0
 28 29  2  0
 39 28  1  0
 30 31  1  0
 30 39  1  0
 30 40  2  0
 31 32  1  0
M  CHG  1  36   1
M  END
$$$$
