
     RDKit          3D

 42 47  0  0  0  0  0  0  0  0999 V2000
  -12.3305  -12.0053    6.3297 C   0  0  0  0  0  0  0  0  0  0  0  0
  -13.5944  -11.5048    5.7819 C   0  0  0  0  0  0  0  0  0  0  0  0
  -14.6574  -12.0841    7.9143 C   0  0  0  0  0  0  0  0  0  0  0  0
  -13.5245  -12.5297    8.3982 C   0  0  0  0  0  0  0  0  0  0  0  0
  -15.8871  -12.1057    8.6872 C   0  0  0  0  0  0  0  0  0  0  0  0
  -13.5046  -13.0591    9.7704 C   0  0  0  0  0  0  0  0  0  0  0  0
  -15.9310  -11.8047   10.0271 C   0  0  0  0  0  0  0  0  0  0  0  0
  -17.1523  -11.8392   10.6843 C   0  0  0  0  0  0  0  0  0  0  0  0
  -18.3035  -12.1688   10.0120 C   0  0  0  0  0  0  0  0  0  0  0  0
  -18.2823  -12.4717    8.6805 C   0  0  0  0  0  0  0  0  0  0  0  0
  -17.0572  -12.4323    8.0412 C   0  0  0  0  0  0  0  0  0  0  0  0
  -12.4146  -13.0328   10.5920 C   0  0  0  0  0  0  0  0  0  0  0  0
  -12.4871  -13.5432   11.8676 C   0  0  0  0  0  0  0  0  0  0  0  0
  -13.6318  -14.1020   12.3921 C   0  0  0  0  0  0  0  0  0  0  0  0
  -14.7388  -14.1305   11.5617 C   0  0  0  0  0  0  0  0  0  0  0  0
  -14.6778  -13.6229   10.2843 C   0  0  0  0  0  0  0  0  0  0  0  0
  -13.7116  -14.6542   13.7508 C   0  0  0  0  0  0  0  0  0  0  0  0
  -13.2712  -16.9178   13.6492 C   0  0  0  0  0  0  0  0  0  0  0  0
  -13.5296  -18.2060   14.3464 C   0  0  0  0  0  0  0  0  0  0  0  0
  -13.6981  -17.8231   15.8259 C   0  0  1  0  0  0  0  0  0  0  0  0
  -15.0708  -17.1881   15.8428 C   0  0  0  0  0  0  0  0  0  0  0  0
  -15.1746  -16.0338   14.9026 C   0  0  0  0  0  0  0  0  0  0  0  0
  -14.2303  -20.0873   16.6307 C   0  0  0  0  0  0  0  0  0  0  0  0
  -12.9175  -20.1263   18.4070 C   0  0  0  0  0  0  0  0  0  0  0  0
  -12.7538  -18.8978   17.8051 C   0  0  0  0  0  0  0  0  0  0  0  0
  -12.2146  -20.4077   19.5323 C   0  0  0  0  0  0  0  0  0  0  0  0
  -11.3377  -19.4654   20.0723 C   0  0  0  0  0  0  0  0  0  0  0  0
  -11.1875  -18.2469   19.4593 C   0  0  0  0  0  0  0  0  0  0  0  0
  -11.8982  -17.9493   18.3128 C   0  0  0  0  0  0  0  0  0  0  0  0
   -9.3483  -16.5186   19.2196 C   0  0  0  0  0  0  0  0  0  0  0  0
   -8.2879  -15.7263   19.9332 C   0  0  0  0  0  0  0  0  0  0  0  0
   -7.6390  -14.7933   18.9681 C   0  0  0  0  0  0  0  0  0  0  0  0
  -13.6389  -11.0185    4.5505 C   0  0  0  0  0  0  0  0  0  0  0  0
  -14.7519  -11.5448    6.5714 N   0  0  0  0  0  0  0  0  0  0  0  0
  -12.2845  -12.5246    7.6486 N   0  0  0  0  0  0  0  0  0  0  0  0
  -14.3311  -15.9951   13.7823 N   0  0  1  0  0  4  0  0  0  0  0  0
  -13.5816  -18.9195   16.7162 N   0  0  0  0  0  0  0  0  0  0  0  0
  -13.8223  -20.8289   17.6696 N   0  0  0  0  0  0  0  0  0  0  0  0
  -10.3205  -17.2414   19.9443 N   0  0  0  0  0  0  0  0  0  0  0  0
   -9.3424  -16.5178   17.9744 O   0  0  0  0  0  0  0  0  0  0  0  0
  -15.0769  -20.4720   15.7590 O   0  0  0  0  0  0  0  0  0  0  0  0
  -11.2799  -11.9661    5.6059 O   0  0  0  0  0  0  0  0  0  0  0  0
  1  2  1  0
 35  1  1  0
  1 42  2  0
  2 33  2  0
 34  2  1  0
  4  3  2  0
  3  5  1  0
  3 34  1  0
  6  4  1  0
  4 35  1  0
  5  7  2  0
  5 11  1  0
 12  6  2  0
 16  6  1  0
  7  8  1  0
  8  9  2  0
 10  9  1  0
 11 10  2  0
 13 12  1  0
 14 13  2  0
 14 15  1  0
 17 14  1  1
 15 16  2  0
 36 17  1  1
 19 18  1  1
 18 36  1  6
 20 19  1  0
 21 20  1  1
 20 37  1  1
 22 21  1  1
 22 36  1  0
 37 23  1  0
 23 38  1  0
 23 41  2  0
 25 24  2  0
 26 24  1  0
 24 38  1  0
 29 25  1  0
 25 37  1  0
 27 26  2  0
 28 27  1  0
 28 29  2  0
 39 28  1  0
 31 30  1  1
 30 39  1  0
 30 40  2  0
 32 31  1  6
M  CHG  1  36   1
M  END
$$$$
