
     RDKit          3D

 42 47  0  0  0  0  0  0  0  0999 V2000
  -19.4755  -20.3631    8.1035 C   0  0  0  0  0  0  0  0  0  0  0  0
  -19.3471  -19.7985    6.7571 C   0  0  0  0  0  0  0  0  0  0  0  0
  -17.7973  -18.1403    7.6851 C   0  0  0  0  0  0  0  0  0  0  0  0
  -17.9162  -18.6497    8.8862 C   0  0  0  0  0  0  0  0  0  0  0  0
  -16.9492  -16.9923    7.4154 C   0  0  0  0  0  0  0  0  0  0  0  0
  -17.1574  -18.0390    9.9883 C   0  0  0  0  0  0  0  0  0  0  0  0
  -17.4494  -15.7626    7.0615 C   0  0  0  0  0  0  0  0  0  0  0  0
  -16.5658  -14.7176    6.8334 C   0  0  0  0  0  0  0  0  0  0  0  0
  -15.2107  -14.9028    6.9573 C   0  0  0  0  0  0  0  0  0  0  0  0
  -14.6925  -16.1168    7.3077 C   0  0  0  0  0  0  0  0  0  0  0  0
  -15.5870  -17.1468    7.5314 C   0  0  0  0  0  0  0  0  0  0  0  0
  -16.3161  -18.7228   10.8181 C   0  0  0  0  0  0  0  0  0  0  0  0
  -15.6371  -18.0690   11.8202 C   0  0  0  0  0  0  0  0  0  0  0  0
  -15.7543  -16.7161   12.0519 C   0  0  0  0  0  0  0  0  0  0  0  0
  -16.6066  -16.0196   11.2126 C   0  0  0  0  0  0  0  0  0  0  0  0
  -17.2907  -16.6632   10.2072 C   0  0  0  0  0  0  0  0  0  0  0  0
  -15.0365  -16.0153   13.1248 C   0  0  0  0  0  0  0  0  0  0  0  0
  -14.3032  -13.8687   13.5526 C   0  0  0  0  0  0  0  0  0  0  0  0
  -13.0754  -13.0347   13.6475 C   0  0  0  0  0  0  0  0  0  0  0  0
  -11.9746  -14.0089   14.0981 C   0  0  1  0  0  0  0  0  0  0  0  0
  -11.7065  -14.8015   12.8381 C   0  0  0  0  0  0  0  0  0  0  0  0
  -12.9333  -15.4726   12.3169 C   0  0  0  0  0  0  0  0  0  0  0  0
  -10.1677  -12.3384   14.0521 C   0  0  0  0  0  0  0  0  0  0  0  0
   -9.1479  -12.8993   15.9298 C   0  0  0  0  0  0  0  0  0  0  0  0
  -10.2206  -13.7505   15.7776 C   0  0  0  0  0  0  0  0  0  0  0  0
   -8.3483  -13.0348   17.0170 C   0  0  0  0  0  0  0  0  0  0  0  0
   -8.6091  -14.0228   17.9678 C   0  0  0  0  0  0  0  0  0  0  0  0
   -9.6819  -14.8618   17.7996 C   0  0  0  0  0  0  0  0  0  0  0  0
  -10.5032  -14.7331   16.6964 C   0  0  0  0  0  0  0  0  0  0  0  0
  -10.0525  -17.2762   18.4778 C   0  0  0  0  0  0  0  0  0  0  0  0
   -9.8685  -18.2563   19.6035 C   0  0  0  0  0  0  0  0  0  0  0  0
   -9.5181  -19.5915   19.0399 C   0  0  0  0  0  0  0  0  0  0  0  0
  -20.0159  -20.3325    5.7460 C   0  0  0  0  0  0  0  0  0  0  0  0
  -18.5118  -18.6921    6.5502 N   0  0  0  0  0  0  0  0  0  0  0  0
  -18.7579  -19.7908    9.1847 N   0  0  0  0  0  0  0  0  0  0  0  0
  -14.1870  -14.9187   12.6162 N   0  0  1  0  0  4  0  0  0  0  0  0
  -10.8183  -13.3676   14.6083 N   0  0  0  0  0  0  0  0  0  0  0  0
   -9.1413  -12.0506   14.8642 N   0  0  0  0  0  0  0  0  0  0  0  0
  -10.0114  -15.8856   18.7168 N   0  0  0  0  0  0  0  0  0  0  0  0
  -10.2417  -17.7273   17.3327 O   0  0  0  0  0  0  0  0  0  0  0  0
  -10.4265  -11.7171   12.9697 O   0  0  0  0  0  0  0  0  0  0  0  0
  -20.2376  -21.3706    8.2855 O   0  0  0  0  0  0  0  0  0  0  0  0
  1  2  1  0
 35  1  1  0
  1 42  2  0
  2 33  2  0
 34  2  1  0
  4  3  2  0
  3  5  1  0
  3 34  1  0
  6  4  1  0
  4 35  1  0
  5  7  2  0
  5 11  1  0
 12  6  2  0
 16  6  1  0
  7  8  1  0
  8  9  2  0
 10  9  1  0
 11 10  2  0
 13 12  1  0
 14 13  2  0
 14 15  1  0
 17 14  1  1
 15 16  2  0
 36 17  1  1
 19 18  1  1
 18 36  1  6
 20 19  1  0
 21 20  1  1
 20 37  1  6
 22 21  1  1
 22 36  1  0
 37 23  1  0
 23 38  1  0
 23 41  2  0
 25 24  2  0
 26 24  1  0
 24 38  1  0
 29 25  1  0
 25 37  1  0
 27 26  2  0
 28 27  1  0
 28 29  2  0
 39 28  1  0
 31 30  1  1
 30 39  1  0
 30 40  2  0
 32 31  1  6
M  CHG  1  36   1
M  END
$$$$
