
     RDKit          3D

 42 47  0  0  0  0  0  0  0  0999 V2000
  -12.6213  -14.0706   18.1240 C   0  0  0  0  0  0  0  0  0  0  0  0
  -11.2987  -14.5321   18.5564 C   0  0  0  0  0  0  0  0  0  0  0  0
  -10.8852  -15.0679   16.2059 C   0  0  0  0  0  0  0  0  0  0  0  0
  -12.0745  -14.6529   15.8157 C   0  0  0  0  0  0  0  0  0  0  0  0
   -9.9236  -15.6126   15.2360 C   0  0  0  0  0  0  0  0  0  0  0  0
  -12.5145  -14.6986   14.4043 C   0  0  0  0  0  0  0  0  0  0  0  0
   -9.5940  -14.8798   14.1076 C   0  0  0  0  0  0  0  0  0  0  0  0
   -8.6734  -15.3430   13.1863 C   0  0  0  0  0  0  0  0  0  0  0  0
   -8.0645  -16.5656   13.3913 C   0  0  0  0  0  0  0  0  0  0  0  0
   -8.3821  -17.3080   14.5112 C   0  0  0  0  0  0  0  0  0  0  0  0
   -9.3111  -16.8332   15.4348 C   0  0  0  0  0  0  0  0  0  0  0  0
  -13.0425  -13.5956   13.7753 C   0  0  0  0  0  0  0  0  0  0  0  0
  -13.4426  -13.6276   12.4403 C   0  0  0  0  0  0  0  0  0  0  0  0
  -13.3070  -14.7887   11.7311 C   0  0  0  0  0  0  0  0  0  0  0  0
  -12.7831  -15.8999   12.3351 C   0  0  0  0  0  0  0  0  0  0  0  0
  -12.3963  -15.8437   13.6514 C   0  0  0  0  0  0  0  0  0  0  0  0
  -13.7323  -14.8533   10.3216 C   0  0  0  0  0  0  0  0  0  0  0  0
  -15.4020  -14.1527    8.7725 C   0  0  0  0  0  0  0  0  0  0  0  0
  -15.8300  -15.3960    7.9964 C   0  0  0  0  0  0  0  0  0  0  0  0
  -17.0724  -15.9414    8.6045 C   0  0  1  0  0  0  0  0  0  0  0  0
  -17.3590  -15.2084    9.9256 C   0  0  0  0  0  0  0  0  0  0  0  0
  -16.0533  -15.3856   10.7262 C   0  0  0  0  0  0  0  0  0  0  0  0
  -19.0052  -15.0743    7.3587 C   0  0  0  0  0  0  0  0  0  0  0  0
  -19.8446  -16.8371    6.5172 C   0  0  0  0  0  0  0  0  0  0  0  0
  -18.7310  -17.2362    7.2428 C   0  0  0  0  0  0  0  0  0  0  0  0
  -20.5577  -17.8228    5.8786 C   0  0  0  0  0  0  0  0  0  0  0  0
  -20.1847  -19.1499    5.9544 C   0  0  0  0  0  0  0  0  0  0  0  0
  -19.0817  -19.5396    6.6739 C   0  0  0  0  0  0  0  0  0  0  0  0
  -18.3517  -18.5454    7.3248 C   0  0  0  0  0  0  0  0  0  0  0  0
  -17.9000  -21.3648    7.9486 C   0  0  0  0  0  0  0  0  0  0  0  0
  -17.6576  -22.8281    8.1191 C   0  0  0  0  0  0  0  0  0  0  0  0
  -16.7939  -23.0369    9.3370 C   0  0  0  0  0  0  0  0  0  0  0  0
  -10.9284  -14.4807   19.8203 C   0  0  0  0  0  0  0  0  0  0  0  0
  -10.4295  -15.0382   17.5524 N   0  0  0  0  0  0  0  0  0  0  0  0
  -13.0152  -14.1259   16.7707 N   0  0  0  0  0  0  0  0  0  0  0  0
  -15.1081  -14.4866   10.1608 N   0  0  1  0  0  4  0  0  0  0  0  0
  -18.2053  -16.1076    7.7740 N   0  0  0  0  0  0  0  0  0  0  0  0
  -19.9944  -15.5025    6.6021 N   0  0  0  0  0  0  0  0  0  0  0  0
  -18.6136  -20.8583    6.8345 N   0  0  0  0  0  0  0  0  0  0  0  0
  -17.4534  -20.5954    8.8197 O   0  0  0  0  0  0  0  0  0  0  0  0
  -18.8069  -13.8625    7.6708 O   0  0  0  0  0  0  0  0  0  0  0  0
  -13.3853  -13.6215   19.0325 O   0  0  0  0  0  0  0  0  0  0  0  0
  1  2  1  0
 35  1  1  0
  1 42  2  0
  2 33  2  0
 34  2  1  0
  4  3  2  0
  3  5  1  0
  3 34  1  0
  6  4  1  0
  4 35  1  0
  5  7  2  0
  5 11  1  0
 12  6  2  0
 16  6  1  0
  7  8  1  0
  8  9  2  0
 10  9  1  0
 11 10  2  0
 13 12  1  0
 14 13  2  0
 14 15  1  0
 17 14  1  0
 15 16  2  0
 36 17  1  6
 19 18  1  0
 18 36  1  0
 20 19  1  0
 20 21  1  0
 20 37  1  6
 21 22  1  0
 22 36  1  0
 37 23  1  0
 23 38  1  0
 23 41  2  0
 25 24  2  0
 26 24  1  0
 24 38  1  0
 29 25  1  0
 25 37  1  0
 27 26  2  0
 28 27  1  0
 28 29  2  0
 39 28  1  0
 30 31  1  0
 30 39  1  0
 30 40  2  0
 31 32  1  0
M  CHG  1  36   1
M  END
$$$$
