
     RDKit          3D

 42 47  0  0  0  0  0  0  0  0999 V2000
  -19.8410  -23.7673    8.2079 C   0  0  0  0  0  0  0  0  0  0  0  0
  -20.7560  -23.3274    7.1509 C   0  0  0  0  0  0  0  0  0  0  0  0
  -19.5505  -21.1925    7.1044 C   0  0  0  0  0  0  0  0  0  0  0  0
  -18.7358  -21.5918    8.0494 C   0  0  0  0  0  0  0  0  0  0  0  0
  -19.4475  -19.8736    6.5045 C   0  0  0  0  0  0  0  0  0  0  0  0
  -17.6818  -20.6727    8.5052 C   0  0  0  0  0  0  0  0  0  0  0  0
  -19.3197  -19.6784    5.1504 C   0  0  0  0  0  0  0  0  0  0  0  0
  -19.2394  -18.3822    4.6626 C   0  0  0  0  0  0  0  0  0  0  0  0
  -19.2857  -17.3061    5.5146 C   0  0  0  0  0  0  0  0  0  0  0  0
  -19.4120  -17.4777    6.8636 C   0  0  0  0  0  0  0  0  0  0  0  0
  -19.4909  -18.7758    7.3325 C   0  0  0  0  0  0  0  0  0  0  0  0
  -16.8365  -19.9949    7.6746 C   0  0  0  0  0  0  0  0  0  0  0  0
  -15.8829  -19.1460    8.1873 C   0  0  0  0  0  0  0  0  0  0  0  0
  -15.7171  -18.9255    9.5370 C   0  0  0  0  0  0  0  0  0  0  0  0
  -16.5724  -19.6112   10.3821 C   0  0  0  0  0  0  0  0  0  0  0  0
  -17.5297  -20.4627    9.8805 C   0  0  0  0  0  0  0  0  0  0  0  0
  -14.6960  -18.0253   10.0887 C   0  0  0  0  0  0  0  0  0  0  0  0
  -15.8896  -16.3482   11.1333 C   0  0  0  0  0  0  0  0  0  0  0  0
  -15.7833  -14.9463   11.6187 C   0  0  0  0  0  0  0  0  0  0  0  0
  -14.3008  -14.7711   11.9866 C   0  0  1  0  0  0  0  0  0  0  0  0
  -13.6387  -14.6737   10.6302 C   0  0  0  0  0  0  0  0  0  0  0  0
  -13.9143  -15.8662    9.7763 C   0  0  0  0  0  0  0  0  0  0  0  0
  -13.6118  -13.6708   14.0775 C   0  0  0  0  0  0  0  0  0  0  0  0
  -13.8759  -11.5690   13.4504 C   0  0  0  0  0  0  0  0  0  0  0  0
  -14.2245  -12.3619   12.3788 C   0  0  0  0  0  0  0  0  0  0  0  0
  -13.9508  -10.2207   13.3243 C   0  0  0  0  0  0  0  0  0  0  0  0
  -14.3750   -9.6451   12.1256 C   0  0  0  0  0  0  0  0  0  0  0  0
  -14.7184  -10.4504   11.0689 C   0  0  0  0  0  0  0  0  0  0  0  0
  -14.6460  -11.8249   11.1857 C   0  0  0  0  0  0  0  0  0  0  0  0
  -15.5339  -10.6792    8.6794 C   0  0  0  0  0  0  0  0  0  0  0  0
  -15.8948   -9.9779    7.3990 C   0  0  0  0  0  0  0  0  0  0  0  0
  -16.5927   -8.6997    7.7189 C   0  0  0  0  0  0  0  0  0  0  0  0
  -21.7110  -24.1373    6.7189 C   0  0  0  0  0  0  0  0  0  0  0  0
  -20.6105  -22.0456    6.6026 N   0  0  0  0  0  0  0  0  0  0  0  0
  -18.8184  -22.8993    8.6685 N   0  0  0  0  0  0  0  0  0  0  0  0
  -15.0868  -16.6032   10.0006 N   0  0  1  0  0  4  0  0  0  0  0  0
  -14.0462  -13.6473   12.8116 N   0  0  0  0  0  0  0  0  0  0  0  0
  -13.5070  -12.3937   14.4701 N   0  0  0  0  0  0  0  0  0  0  0  0
  -15.1570   -9.9442    9.8241 N   0  0  0  0  0  0  0  0  0  0  0  0
  -15.5775  -11.9234    8.6988 O   0  0  0  0  0  0  0  0  0  0  0  0
  -13.3366  -14.6754   14.8121 O   0  0  0  0  0  0  0  0  0  0  0  0
  -19.9784  -24.9357    8.7031 O   0  0  0  0  0  0  0  0  0  0  0  0
  1  2  1  0
 35  1  1  0
  1 42  2  0
  2 33  2  0
 34  2  1  0
  4  3  2  0
  3  5  1  0
  3 34  1  0
  6  4  1  0
  4 35  1  0
  5  7  2  0
  5 11  1  0
 12  6  2  0
 16  6  1  0
  7  8  1  0
  8  9  2  0
 10  9  1  0
 11 10  2  0
 13 12  1  0
 14 13  2  0
 14 15  1  0
 17 14  1  1
 15 16  2  0
 36 17  1  1
 19 18  1  1
 18 36  1  6
 20 19  1  0
 21 20  1  1
 20 37  1  1
 22 21  1  1
 22 36  1  0
 37 23  1  0
 23 38  1  0
 23 41  2  0
 25 24  2  0
 26 24  1  0
 24 38  1  0
 29 25  1  0
 25 37  1  0
 27 26  2  0
 28 27  1  0
 28 29  2  0
 39 28  1  0
 31 30  1  1
 30 39  1  0
 30 40  2  0
 32 31  1  6
M  CHG  1  36   1
M  END
$$$$
