
     RDKit          3D

 42 47  0  0  0  0  0  0  0  0999 V2000
   -7.7369  -14.0215   14.1511 C   0  0  0  0  0  0  0  0  0  0  0  0
   -7.6811  -14.1515   15.6099 C   0  0  0  0  0  0  0  0  0  0  0  0
  -10.0682  -14.7112   15.5728 C   0  0  0  0  0  0  0  0  0  0  0  0
  -10.1114  -14.5936   14.2688 C   0  0  0  0  0  0  0  0  0  0  0  0
  -11.2417  -15.0602   16.3544 C   0  0  0  0  0  0  0  0  0  0  0  0
  -11.3902  -14.8322   13.5823 C   0  0  0  0  0  0  0  0  0  0  0  0
  -12.2794  -14.1863   16.5724 C   0  0  0  0  0  0  0  0  0  0  0  0
  -13.3676  -14.6083   17.3222 C   0  0  0  0  0  0  0  0  0  0  0  0
  -13.4133  -15.8787   17.8420 C   0  0  0  0  0  0  0  0  0  0  0  0
  -12.3927  -16.7630   17.6376 C   0  0  0  0  0  0  0  0  0  0  0  0
  -11.3164  -16.3261   16.8882 C   0  0  0  0  0  0  0  0  0  0  0  0
  -11.6119  -15.8444   12.6934 C   0  0  0  0  0  0  0  0  0  0  0  0
  -12.8448  -16.0001   12.1031 C   0  0  0  0  0  0  0  0  0  0  0  0
  -13.9134  -15.1692   12.3589 C   0  0  0  0  0  0  0  0  0  0  0  0
  -13.6922  -14.1417   13.2595 C   0  0  0  0  0  0  0  0  0  0  0  0
  -12.4633  -13.9766   13.8559 C   0  0  0  0  0  0  0  0  0  0  0  0
  -15.2293  -15.3278   11.7258 C   0  0  0  0  0  0  0  0  0  0  0  0
  -14.9044  -14.5245    9.5863 C   0  0  0  0  0  0  0  0  0  0  0  0
  -15.6274  -14.0030    8.3957 C   0  0  0  0  0  0  0  0  0  0  0  0
  -17.0000  -14.6944    8.4377 C   0  0  1  0  0  0  0  0  0  0  0  0
  -17.6984  -13.9621    9.5618 C   0  0  0  0  0  0  0  0  0  0  0  0
  -16.9421  -14.0382   10.8461 C   0  0  0  0  0  0  0  0  0  0  0  0
  -17.6894  -13.6271    6.3299 C   0  0  0  0  0  0  0  0  0  0  0  0
  -19.0146  -15.2216    5.5672 C   0  0  0  0  0  0  0  0  0  0  0  0
  -18.5177  -15.6485    6.7793 C   0  0  0  0  0  0  0  0  0  0  0  0
  -19.8642  -16.0274    4.8827 C   0  0  0  0  0  0  0  0  0  0  0  0
  -20.2295  -17.2714    5.3996 C   0  0  0  0  0  0  0  0  0  0  0  0
  -19.7248  -17.6801    6.6085 C   0  0  0  0  0  0  0  0  0  0  0  0
  -18.8587  -16.8679    7.3144 C   0  0  0  0  0  0  0  0  0  0  0  0
  -19.1634  -19.8482    7.7963 C   0  0  0  0  0  0  0  0  0  0  0  0
  -19.6461  -21.2057    8.2272 C   0  0  0  0  0  0  0  0  0  0  0  0
  -18.5091  -21.9656    8.8213 C   0  0  0  0  0  0  0  0  0  0  0  0
   -6.5409  -13.9466   16.2523 C   0  0  0  0  0  0  0  0  0  0  0  0
   -8.8421  -14.4946   16.3164 N   0  0  0  0  0  0  0  0  0  0  0  0
   -8.9582  -14.2423   13.4648 N   0  0  0  0  0  0  0  0  0  0  0  0
  -15.5516  -14.2197   10.8032 N   0  0  1  0  0  4  0  0  0  0  0  0
  -17.7072  -14.6346    7.2111 N   0  0  0  0  0  0  0  0  0  0  0  0
  -18.4927  -13.9878    5.3197 N   0  0  0  0  0  0  0  0  0  0  0  0
  -20.0466  -18.9239    7.1978 N   0  0  0  0  0  0  0  0  0  0  0  0
  -17.9652  -19.5656    7.9828 O   0  0  0  0  0  0  0  0  0  0  0  0
  -17.0551  -12.5230    6.3872 O   0  0  0  0  0  0  0  0  0  0  0  0
   -6.6763  -13.7090   13.5134 O   0  0  0  0  0  0  0  0  0  0  0  0
  1  2  1  0
 35  1  1  0
  1 42  2  0
  2 33  2  0
 34  2  1  0
  4  3  2  0
  3  5  1  0
  3 34  1  0
  6  4  1  0
  4 35  1  0
  5  7  2  0
  5 11  1  0
 12  6  2  0
 16  6  1  0
  7  8  1  0
  8  9  2  0
 10  9  1  0
 11 10  2  0
 13 12  1  0
 14 13  2  0
 14 15  1  0
 17 14  1  1
 15 16  2  0
 36 17  1  1
 19 18  1  1
 18 36  1  6
 20 19  1  0
 21 20  1  1
 20 37  1  6
 22 21  1  1
 22 36  1  0
 37 23  1  0
 23 38  1  0
 23 41  2  0
 25 24  2  0
 26 24  1  0
 24 38  1  0
 29 25  1  0
 25 37  1  0
 27 26  2  0
 28 27  1  0
 28 29  2  0
 39 28  1  0
 31 30  1  1
 30 39  1  0
 30 40  2  0
 32 31  1  6
M  CHG  1  36   1
M  END
$$$$
