
     RDKit          3D

 42 47  0  0  0  0  0  0  0  0999 V2000
  -17.9859  -17.2155    7.2840 C   0  0  0  0  0  0  0  0  0  0  0  0
  -18.4350  -16.2720    6.2559 C   0  0  0  0  0  0  0  0  0  0  0  0
  -17.0505  -14.6077    7.3945 C   0  0  0  0  0  0  0  0  0  0  0  0
  -16.6457  -15.4556    8.3198 C   0  0  0  0  0  0  0  0  0  0  0  0
  -16.5939  -13.2101    7.4041 C   0  0  0  0  0  0  0  0  0  0  0  0
  -15.7185  -15.0714    9.4062 C   0  0  0  0  0  0  0  0  0  0  0  0
  -17.4892  -12.1954    7.7005 C   0  0  0  0  0  0  0  0  0  0  0  0
  -17.0940  -10.8716    7.7481 C   0  0  0  0  0  0  0  0  0  0  0  0
  -15.7756  -10.5474    7.4948 C   0  0  0  0  0  0  0  0  0  0  0  0
  -14.8709  -11.5473    7.1980 C   0  0  0  0  0  0  0  0  0  0  0  0
  -15.2780  -12.8791    7.1524 C   0  0  0  0  0  0  0  0  0  0  0  0
  -14.3679  -15.3170    9.3249 C   0  0  0  0  0  0  0  0  0  0  0  0
  -13.4865  -14.9415   10.3376 C   0  0  0  0  0  0  0  0  0  0  0  0
  -13.9758  -14.3091   11.4469 C   0  0  0  0  0  0  0  0  0  0  0  0
  -15.3165  -14.0528   11.5504 C   0  0  0  0  0  0  0  0  0  0  0  0
  -16.1647  -14.4324   10.5396 C   0  0  0  0  0  0  0  0  0  0  0  0
  -13.0679  -13.9114   12.5374 C   0  0  0  0  0  0  0  0  0  0  0  0
  -13.7193  -15.7210   13.9442 C   0  0  0  0  0  0  0  0  0  0  0  0
  -12.4334  -16.3395   14.4874 C   0  0  0  0  0  0  0  0  0  0  0  0
  -12.1703  -15.7934   15.8450 C   0  0  1  0  0  0  0  0  0  0  0  0
  -13.1456  -14.6389   16.1291 C   0  0  0  0  0  0  0  0  0  0  0  0
  -12.9295  -13.6840   14.9381 C   0  0  0  0  0  0  0  0  0  0  0  0
  -13.0758  -17.2769   17.5826 C   0  0  0  0  0  0  0  0  0  0  0  0
  -11.3185  -18.0419   18.5027 C   0  0  0  0  0  0  0  0  0  0  0  0
  -10.8972  -17.1877   17.4934 C   0  0  0  0  0  0  0  0  0  0  0  0
  -10.3405  -18.6585   19.2451 C   0  0  0  0  0  0  0  0  0  0  0  0
   -8.9998  -18.4393   18.9994 C   0  0  0  0  0  0  0  0  0  0  0  0
   -8.5881  -17.5931   17.9993 C   0  0  0  0  0  0  0  0  0  0  0  0
   -9.5743  -16.9634   17.2403 C   0  0  0  0  0  0  0  0  0  0  0  0
   -6.0924  -17.8477   18.2430 C   0  0  0  0  0  0  0  0  0  0  0  0
   -4.7256  -17.4179   17.8232 C   0  0  0  0  0  0  0  0  0  0  0  0
   -3.8618  -18.6428   17.6607 C   0  0  0  0  0  0  0  0  0  0  0  0
  -19.2614  -16.6377    5.2964 C   0  0  0  0  0  0  0  0  0  0  0  0
  -17.9399  -14.9423    6.3368 N   0  0  0  0  0  0  0  0  0  0  0  0
  -17.1008  -16.8221    8.3095 N   0  0  0  0  0  0  0  0  0  0  0  0
  -13.5853  -14.2744   13.8233 N   0  0  1  0  0  4  0  0  0  0  0  0
  -12.0226  -16.7065   16.9152 N   0  0  0  0  0  0  0  0  0  0  0  0
  -12.6630  -18.0819   18.5396 N   0  0  0  0  0  0  0  0  0  0  0  0
   -7.2556  -17.2818   17.6654 N   0  0  0  0  0  0  0  0  0  0  0  0
   -6.1824  -18.7243   19.1227 O   0  0  0  0  0  0  0  0  0  0  0  0
  -14.2907  -17.0497   17.3038 O   0  0  0  0  0  0  0  0  0  0  0  0
  -18.4370  -18.3987    7.1976 O   0  0  0  0  0  0  0  0  0  0  0  0
  1  2  1  0
 35  1  1  0
  1 42  2  0
  2 33  2  0
 34  2  1  0
  4  3  2  0
  3  5  1  0
  3 34  1  0
  6  4  1  0
  4 35  1  0
  5  7  2  0
  5 11  1  0
 12  6  2  0
 16  6  1  0
  7  8  1  0
  8  9  2  0
 10  9  1  0
 11 10  2  0
 13 12  1  0
 14 13  2  0
 14 15  1  0
 17 14  1  0
 15 16  2  0
 36 17  1  6
 19 18  1  0
 18 36  1  0
 20 19  1  0
 20 21  1  0
 20 37  1  1
 21 22  1  0
 22 36  1  0
 37 23  1  0
 23 38  1  0
 23 41  2  0
 25 24  2  0
 26 24  1  0
 24 38  1  0
 29 25  1  0
 25 37  1  0
 27 26  2  0
 28 27  1  0
 28 29  2  0
 39 28  1  0
 30 31  1  0
 30 39  1  0
 30 40  2  0
 31 32  1  0
M  CHG  1  36   1
M  END
$$$$
