
     RDKit          3D

 42 47  0  0  0  0  0  0  0  0999 V2000
  -19.4169  -21.5901    4.6918 C   0  0  0  0  0  0  0  0  0  0  0  0
  -19.3549  -23.0310    4.9550 C   0  0  0  0  0  0  0  0  0  0  0  0
  -18.2810  -22.4439    7.0727 C   0  0  0  0  0  0  0  0  0  0  0  0
  -18.3364  -21.1476    6.8373 C   0  0  0  0  0  0  0  0  0  0  0  0
  -17.6847  -22.9576    8.3147 C   0  0  0  0  0  0  0  0  0  0  0  0
  -17.8195  -20.1391    7.7878 C   0  0  0  0  0  0  0  0  0  0  0  0
  -18.1356  -22.4918    9.5389 C   0  0  0  0  0  0  0  0  0  0  0  0
  -17.6217  -22.9697   10.7299 C   0  0  0  0  0  0  0  0  0  0  0  0
  -16.6344  -23.9351   10.7041 C   0  0  0  0  0  0  0  0  0  0  0  0
  -16.1743  -24.4098    9.4920 C   0  0  0  0  0  0  0  0  0  0  0  0
  -16.6983  -23.9225    8.2963 C   0  0  0  0  0  0  0  0  0  0  0  0
  -16.5867  -20.2708    8.3825 C   0  0  0  0  0  0  0  0  0  0  0  0
  -16.0866  -19.3150    9.2655 C   0  0  0  0  0  0  0  0  0  0  0  0
  -16.8415  -18.2112    9.5511 C   0  0  0  0  0  0  0  0  0  0  0  0
  -18.0717  -18.0572    8.9705 C   0  0  0  0  0  0  0  0  0  0  0  0
  -18.5427  -19.0125    8.1041 C   0  0  0  0  0  0  0  0  0  0  0  0
  -16.3418  -17.1908   10.4896 C   0  0  0  0  0  0  0  0  0  0  0  0
  -16.9092  -14.9631   11.1170 C   0  0  0  0  0  0  0  0  0  0  0  0
  -15.6415  -14.3314   11.6872 C   0  0  0  0  0  0  0  0  0  0  0  0
  -14.9821  -13.5273   10.6245 C   0  0  1  0  0  0  0  0  0  0  0  0
  -15.6726  -13.7971    9.2772 C   0  0  0  0  0  0  0  0  0  0  0  0
  -15.6025  -15.3309    9.1375 C   0  0  0  0  0  0  0  0  0  0  0  0
  -15.6314  -11.1572   10.6526 C   0  0  0  0  0  0  0  0  0  0  0  0
  -13.8901  -10.2073   11.4179 C   0  0  0  0  0  0  0  0  0  0  0  0
  -13.6120  -11.5661   11.3717 C   0  0  0  0  0  0  0  0  0  0  0  0
  -12.8942   -9.3835   11.8840 C   0  0  0  0  0  0  0  0  0  0  0  0
  -11.6723   -9.8831   12.2882 C   0  0  0  0  0  0  0  0  0  0  0  0
  -11.4021  -11.2287   12.2406 C   0  0  0  0  0  0  0  0  0  0  0  0
  -12.4078  -12.0724   11.7693 C   0  0  0  0  0  0  0  0  0  0  0  0
  -10.0617  -13.0456   13.3610 C   0  0  0  0  0  0  0  0  0  0  0  0
   -8.7339  -13.5071   13.8639 C   0  0  0  0  0  0  0  0  0  0  0  0
   -8.8934  -14.8830   14.4589 C   0  0  0  0  0  0  0  0  0  0  0  0
  -19.8230  -23.9113    4.0929 C   0  0  0  0  0  0  0  0  0  0  0  0
  -18.7678  -23.4402    6.1828 N   0  0  0  0  0  0  0  0  0  0  0  0
  -18.9159  -20.6498    5.6163 N   0  0  0  0  0  0  0  0  0  0  0  0
  -16.5875  -15.8615   10.0148 N   0  0  1  0  0  4  0  0  0  0  0  0
  -14.7257  -12.1605   10.8832 N   0  0  0  0  0  0  0  0  0  0  0  0
  -15.1385   -9.9783   10.9710 N   0  0  0  0  0  0  0  0  0  0  0  0
  -10.1940  -11.8508   12.6112 N   0  0  0  0  0  0  0  0  0  0  0  0
  -11.0581  -13.7453   13.6213 O   0  0  0  0  0  0  0  0  0  0  0  0
  -16.7948  -11.3529   10.1905 O   0  0  0  0  0  0  0  0  0  0  0  0
  -19.9441  -21.2413    3.5914 O   0  0  0  0  0  0  0  0  0  0  0  0
  1  2  1  0
 35  1  1  0
  1 42  2  0
  2 33  2  0
 34  2  1  0
  4  3  2  0
  3  5  1  0
  3 34  1  0
  6  4  1  0
  4 35  1  0
  5  7  2  0
  5 11  1  0
 12  6  2  0
 16  6  1  0
  7  8  1  0
  8  9  2  0
 10  9  1  0
 11 10  2  0
 13 12  1  0
 14 13  2  0
 14 15  1  0
 17 14  1  0
 15 16  2  0
 36 17  1  1
 19 18  1  0
 18 36  1  0
 20 19  1  0
 20 21  1  0
 20 37  1  1
 21 22  1  0
 22 36  1  0
 37 23  1  0
 23 38  1  0
 23 41  2  0
 25 24  2  0
 26 24  1  0
 24 38  1  0
 29 25  1  0
 25 37  1  0
 27 26  2  0
 28 27  1  0
 28 29  2  0
 39 28  1  0
 30 31  1  0
 30 39  1  0
 30 40  2  0
 31 32  1  0
M  CHG  1  36   1
M  END
$$$$
