
     RDKit          3D

 42 47  0  0  0  0  0  0  0  0999 V2000
  -16.4673  -11.2894    6.0781 C   0  0  0  0  0  0  0  0  0  0  0  0
  -17.4935  -12.1744    5.5188 C   0  0  0  0  0  0  0  0  0  0  0  0
  -16.8121  -13.7908    7.2234 C   0  0  0  0  0  0  0  0  0  0  0  0
  -15.8889  -12.9956    7.7276 C   0  0  0  0  0  0  0  0  0  0  0  0
  -17.0373  -15.1314    7.7840 C   0  0  0  0  0  0  0  0  0  0  0  0
  -15.0366  -13.3841    8.8723 C   0  0  0  0  0  0  0  0  0  0  0  0
  -15.9594  -15.9692    8.0190 C   0  0  0  0  0  0  0  0  0  0  0  0
  -16.1253  -17.2255    8.5714 C   0  0  0  0  0  0  0  0  0  0  0  0
  -17.3946  -17.6607    8.8987 C   0  0  0  0  0  0  0  0  0  0  0  0
  -18.4792  -16.8373    8.6708 C   0  0  0  0  0  0  0  0  0  0  0  0
  -18.3027  -15.5724    8.1139 C   0  0  0  0  0  0  0  0  0  0  0  0
  -13.6671  -13.2683    8.8263 C   0  0  0  0  0  0  0  0  0  0  0  0
  -12.8597  -13.6161    9.9082 C   0  0  0  0  0  0  0  0  0  0  0  0
  -13.4433  -14.0866   11.0518 C   0  0  0  0  0  0  0  0  0  0  0  0
  -14.8049  -14.2099   11.1220 C   0  0  0  0  0  0  0  0  0  0  0  0
  -15.5791  -13.8609   10.0430 C   0  0  0  0  0  0  0  0  0  0  0  0
  -12.6127  -14.4722   12.2064 C   0  0  0  0  0  0  0  0  0  0  0  0
  -12.7435  -16.5749   13.3199 C   0  0  0  0  0  0  0  0  0  0  0  0
  -11.6903  -16.5525   14.4250 C   0  0  0  0  0  0  0  0  0  0  0  0
  -12.3451  -16.1885   15.7094 C   0  0  1  0  0  0  0  0  0  0  0  0
  -13.7910  -15.7414   15.4369 C   0  0  0  0  0  0  0  0  0  0  0  0
  -13.6299  -14.6190   14.3922 C   0  0  0  0  0  0  0  0  0  0  0  0
  -12.9547  -18.2112   16.9651 C   0  0  0  0  0  0  0  0  0  0  0  0
  -11.6577  -18.1225   18.6473 C   0  0  0  0  0  0  0  0  0  0  0  0
  -11.3759  -17.0074   17.8708 C   0  0  0  0  0  0  0  0  0  0  0  0
  -10.9323  -18.2751   19.8042 C   0  0  0  0  0  0  0  0  0  0  0  0
   -9.9670  -17.3617   20.1783 C   0  0  0  0  0  0  0  0  0  0  0  0
   -9.6919  -16.2598   19.4063 C   0  0  0  0  0  0  0  0  0  0  0  0
  -10.4232  -16.0974   18.2298 C   0  0  0  0  0  0  0  0  0  0  0  0
   -7.4696  -15.4507   20.2778 C   0  0  0  0  0  0  0  0  0  0  0  0
   -6.4948  -14.3278   20.4121 C   0  0  0  0  0  0  0  0  0  0  0  0
   -5.3153  -14.6010   19.5139 C   0  0  0  0  0  0  0  0  0  0  0  0
  -18.2419  -11.8058    4.4984 C   0  0  0  0  0  0  0  0  0  0  0  0
  -17.6486  -13.4503    6.1252 N   0  0  0  0  0  0  0  0  0  0  0  0
  -15.6680  -11.6857    7.1707 N   0  0  0  0  0  0  0  0  0  0  0  0
  -13.3460  -15.2578   13.1541 N   0  0  1  0  0  4  0  0  0  0  0  0
  -12.2066  -17.0735   16.8041 N   0  0  0  0  0  0  0  0  0  0  0  0
  -12.6323  -18.8496   18.0709 N   0  0  0  0  0  0  0  0  0  0  0  0
   -8.7442  -15.2573   19.6906 N   0  0  0  0  0  0  0  0  0  0  0  0
   -7.1286  -16.5712   20.7002 O   0  0  0  0  0  0  0  0  0  0  0  0
  -13.8427  -18.5906   16.1448 O   0  0  0  0  0  0  0  0  0  0  0  0
  -16.3416  -10.1538    5.5255 O   0  0  0  0  0  0  0  0  0  0  0  0
  1  2  1  0
 35  1  1  0
  1 42  2  0
  2 33  2  0
 34  2  1  0
  4  3  2  0
  3  5  1  0
  3 34  1  0
  6  4  1  0
  4 35  1  0
  5  7  2  0
  5 11  1  0
 12  6  2  0
 16  6  1  0
  7  8  1  0
  8  9  2  0
 10  9  1  0
 11 10  2  0
 13 12  1  0
 14 13  2  0
 14 15  1  0
 17 14  1  0
 15 16  2  0
 36 17  1  6
 19 18  1  0
 18 36  1  0
 20 19  1  0
 20 21  1  0
 20 37  1  1
 21 22  1  0
 22 36  1  0
 37 23  1  0
 23 38  1  0
 23 41  2  0
 25 24  2  0
 26 24  1  0
 24 38  1  0
 29 25  1  0
 25 37  1  0
 27 26  2  0
 28 27  1  0
 28 29  2  0
 39 28  1  0
 30 31  1  0
 30 39  1  0
 30 40  2  0
 31 32  1  0
M  CHG  1  36   1
M  END
$$$$
