
     RDKit          3D

 42 47  0  0  0  0  0  0  0  0999 V2000
  -19.4133  -12.2976    4.3158 C   0  0  0  0  0  0  0  0  0  0  0  0
  -19.1160  -10.9201    4.7197 C   0  0  0  0  0  0  0  0  0  0  0  0
  -17.7307  -11.8973    6.4829 C   0  0  0  0  0  0  0  0  0  0  0  0
  -17.9972  -13.1368    6.1204 C   0  0  0  0  0  0  0  0  0  0  0  0
  -16.8505  -11.6217    7.6280 C   0  0  0  0  0  0  0  0  0  0  0  0
  -17.4369  -14.3131    6.8205 C   0  0  0  0  0  0  0  0  0  0  0  0
  -17.3715  -11.0413    8.7728 C   0  0  0  0  0  0  0  0  0  0  0  0
  -16.5843  -10.7921    9.8815 C   0  0  0  0  0  0  0  0  0  0  0  0
  -15.2450  -11.1282    9.8521 C   0  0  0  0  0  0  0  0  0  0  0  0
  -14.7105  -11.7075    8.7185 C   0  0  0  0  0  0  0  0  0  0  0  0
  -15.5115  -11.9553    7.6056 C   0  0  0  0  0  0  0  0  0  0  0  0
  -17.6753  -14.5414    8.1555 C   0  0  0  0  0  0  0  0  0  0  0  0
  -17.1647  -15.6575    8.8166 C   0  0  0  0  0  0  0  0  0  0  0  0
  -16.4038  -16.5550    8.1201 C   0  0  0  0  0  0  0  0  0  0  0  0
  -16.1535  -16.3499    6.7900 C   0  0  0  0  0  0  0  0  0  0  0  0
  -16.6674  -15.2430    6.1608 C   0  0  0  0  0  0  0  0  0  0  0  0
  -15.8423  -17.7374    8.7971 C   0  0  0  0  0  0  0  0  0  0  0  0
  -16.1145  -20.0670    8.3757 C   0  0  0  0  0  0  0  0  0  0  0  0
  -15.5037  -20.8026    9.5661 C   0  0  0  0  0  0  0  0  0  0  0  0
  -16.5876  -21.1698   10.5153 C   0  0  1  0  0  0  0  0  0  0  0  0
  -17.8964  -20.4864   10.0852 C   0  0  0  0  0  0  0  0  0  0  0  0
  -17.5141  -18.9950   10.0045 C   0  0  0  0  0  0  0  0  0  0  0  0
  -17.3433  -23.4665   10.0754 C   0  0  0  0  0  0  0  0  0  0  0  0
  -16.7355  -24.5001   11.8311 C   0  0  0  0  0  0  0  0  0  0  0  0
  -16.3400  -23.1797   11.9920 C   0  0  0  0  0  0  0  0  0  0  0  0
  -16.4461  -25.3663   12.8577 C   0  0  0  0  0  0  0  0  0  0  0  0
  -15.7919  -24.9438   13.9976 C   0  0  0  0  0  0  0  0  0  0  0  0
  -15.4025  -23.6359   14.1519 C   0  0  0  0  0  0  0  0  0  0  0  0
  -15.6918  -22.7500   13.1143 C   0  0  0  0  0  0  0  0  0  0  0  0
  -13.5332  -22.3527   15.2528 C   0  0  0  0  0  0  0  0  0  0  0  0
  -12.8793  -21.8984   16.5159 C   0  0  0  0  0  0  0  0  0  0  0  0
  -11.3979  -22.1592   16.4147 C   0  0  0  0  0  0  0  0  0  0  0  0
  -19.6266   -9.8872    4.0796 C   0  0  0  0  0  0  0  0  0  0  0  0
  -18.2508  -10.7444    5.8334 N   0  0  0  0  0  0  0  0  0  0  0  0
  -18.8651  -13.4015    5.0018 N   0  0  0  0  0  0  0  0  0  0  0  0
  -16.7633  -18.8351    8.8078 N   0  0  1  0  0  4  0  0  0  0  0  0
  -16.7318  -22.5314   10.8702 N   0  0  0  0  0  0  0  0  0  0  0  0
  -17.3508  -24.6542   10.6443 N   0  0  0  0  0  0  0  0  0  0  0  0
  -14.7442  -23.0877   15.2699 N   0  0  0  0  0  0  0  0  0  0  0  0
  -12.9798  -22.0659   14.1750 O   0  0  0  0  0  0  0  0  0  0  0  0
  -17.8359  -23.2078    8.9371 O   0  0  0  0  0  0  0  0  0  0  0  0
  -20.1872  -12.4373    3.3196 O   0  0  0  0  0  0  0  0  0  0  0  0
  1  2  1  0
 35  1  1  0
  1 42  2  0
  2 33  2  0
 34  2  1  0
  4  3  2  0
  3  5  1  0
  3 34  1  0
  6  4  1  0
  4 35  1  0
  5  7  2  0
  5 11  1  0
 12  6  2  0
 16  6  1  0
  7  8  1  0
  8  9  2  0
 10  9  1  0
 11 10  2  0
 13 12  1  0
 14 13  2  0
 14 15  1  0
 17 14  1  0
 15 16  2  0
 36 17  1  1
 19 18  1  0
 18 36  1  0
 20 19  1  0
 20 21  1  0
 20 37  1  6
 21 22  1  0
 22 36  1  0
 37 23  1  0
 23 38  1  0
 23 41  2  0
 25 24  2  0
 26 24  1  0
 24 38  1  0
 29 25  1  0
 25 37  1  0
 27 26  2  0
 28 27  1  0
 28 29  2  0
 39 28  1  0
 30 31  1  0
 30 39  1  0
 30 40  2  0
 31 32  1  0
M  CHG  1  36   1
M  END
$$$$
