
     RDKit          3D

 42 47  0  0  0  0  0  0  0  0999 V2000
  -15.4995  -11.2655    5.1311 C   0  0  0  0  0  0  0  0  0  0  0  0
  -14.9565  -10.1702    5.9401 C   0  0  0  0  0  0  0  0  0  0  0  0
  -15.4230  -11.5782    7.8850 C   0  0  0  0  0  0  0  0  0  0  0  0
  -15.9115  -12.5642    7.1584 C   0  0  0  0  0  0  0  0  0  0  0  0
  -15.3622  -11.6829    9.3504 C   0  0  0  0  0  0  0  0  0  0  0  0
  -16.4165  -13.8214    7.7519 C   0  0  0  0  0  0  0  0  0  0  0  0
  -14.1951  -11.3468   10.0167 C   0  0  0  0  0  0  0  0  0  0  0  0
  -14.1057  -11.4039   11.3950 C   0  0  0  0  0  0  0  0  0  0  0  0
  -15.2038  -11.8051   12.1303 C   0  0  0  0  0  0  0  0  0  0  0  0
  -16.3744  -12.1433   11.4810 C   0  0  0  0  0  0  0  0  0  0  0  0
  -16.4557  -12.0826   10.0913 C   0  0  0  0  0  0  0  0  0  0  0  0
  -15.6626  -14.5580    8.6351 C   0  0  0  0  0  0  0  0  0  0  0  0
  -16.1397  -15.7343    9.2114 C   0  0  0  0  0  0  0  0  0  0  0  0
  -17.3952  -16.1719    8.8919 C   0  0  0  0  0  0  0  0  0  0  0  0
  -18.1651  -15.4551    8.0159 C   0  0  0  0  0  0  0  0  0  0  0  0
  -17.6730  -14.2996    7.4611 C   0  0  0  0  0  0  0  0  0  0  0  0
  -17.9200  -17.4180    9.4780 C   0  0  0  0  0  0  0  0  0  0  0  0
  -17.3903  -18.9188    7.7045 C   0  0  0  0  0  0  0  0  0  0  0  0
  -16.9440  -20.2262    8.3545 C   0  0  0  0  0  0  0  0  0  0  0  0
  -18.0941  -21.1681    8.3849 C   0  0  1  0  0  0  0  0  0  0  0  0
  -19.3742  -20.4248    7.9681 C   0  0  0  0  0  0  0  0  0  0  0  0
  -19.4265  -19.2269    8.9372 C   0  0  0  0  0  0  0  0  0  0  0  0
  -17.9630  -22.6444    6.4245 C   0  0  0  0  0  0  0  0  0  0  0  0
  -17.6599  -24.5568    7.3023 C   0  0  0  0  0  0  0  0  0  0  0  0
  -17.7416  -23.6493    8.3489 C   0  0  0  0  0  0  0  0  0  0  0  0
  -17.4652  -25.8756    7.6355 C   0  0  0  0  0  0  0  0  0  0  0  0
  -17.3557  -26.2806    8.9507 C   0  0  0  0  0  0  0  0  0  0  0  0
  -17.4371  -25.3784    9.9829 C   0  0  0  0  0  0  0  0  0  0  0  0
  -17.6341  -24.0375    9.6536 C   0  0  0  0  0  0  0  0  0  0  0  0
  -16.2087  -25.5284   12.1787 C   0  0  0  0  0  0  0  0  0  0  0  0
  -16.2308  -25.9105   13.6218 C   0  0  0  0  0  0  0  0  0  0  0  0
  -15.0445  -25.2814   14.3071 C   0  0  0  0  0  0  0  0  0  0  0  0
  -14.5113   -9.0590    5.3884 C   0  0  0  0  0  0  0  0  0  0  0  0
  -14.9292  -10.3575    7.3486 N   0  0  0  0  0  0  0  0  0  0  0  0
  -15.9747  -12.4542    5.7236 N   0  0  0  0  0  0  0  0  0  0  0  0
  -18.4559  -18.2945    8.4791 N   0  0  1  0  0  4  0  0  0  0  0  0
  -17.9348  -22.4365    7.7795 N   0  0  0  0  0  0  0  0  0  0  0  0
  -17.7986  -23.9166    6.1269 N   0  0  0  0  0  0  0  0  0  0  0  0
  -17.3541  -25.6735   11.3576 N   0  0  0  0  0  0  0  0  0  0  0  0
  -15.1468  -25.0754   11.7126 O   0  0  0  0  0  0  0  0  0  0  0  0
  -18.1275  -21.7192    5.5746 O   0  0  0  0  0  0  0  0  0  0  0  0
  -15.5167  -11.0826    3.8753 O   0  0  0  0  0  0  0  0  0  0  0  0
  1  2  1  0
 35  1  1  0
  1 42  2  0
  2 33  2  0
 34  2  1  0
  4  3  2  0
  3  5  1  0
  3 34  1  0
  6  4  1  0
  4 35  1  0
  5  7  2  0
  5 11  1  0
 12  6  2  0
 16  6  1  0
  7  8  1  0
  8  9  2  0
 10  9  1  0
 11 10  2  0
 13 12  1  0
 14 13  2  0
 14 15  1  0
 17 14  1  0
 15 16  2  0
 36 17  1  1
 19 18  1  0
 18 36  1  0
 20 19  1  0
 20 21  1  0
 20 37  1  6
 21 22  1  0
 22 36  1  0
 37 23  1  0
 23 38  1  0
 23 41  2  0
 25 24  2  0
 26 24  1  0
 24 38  1  0
 29 25  1  0
 25 37  1  0
 27 26  2  0
 28 27  1  0
 28 29  2  0
 39 28  1  0
 30 31  1  0
 30 39  1  0
 30 40  2  0
 31 32  1  0
M  CHG  1  36   1
M  END
$$$$
