
     RDKit          3D

 42 47  0  0  0  0  0  0  0  0999 V2000
  -18.2048  -22.6525    4.6043 C   0  0  0  0  0  0  0  0  0  0  0  0
  -18.3352  -23.7504    5.5664 C   0  0  0  0  0  0  0  0  0  0  0  0
  -18.2093  -22.0864    7.3631 C   0  0  0  0  0  0  0  0  0  0  0  0
  -18.0932  -21.1096    6.4980 C   0  0  0  0  0  0  0  0  0  0  0  0
  -18.2130  -21.8502    8.7964 C   0  0  0  0  0  0  0  0  0  0  0  0
  -17.9715  -19.7332    7.0022 C   0  0  0  0  0  0  0  0  0  0  0  0
  -17.3474  -22.4796    9.6580 C   0  0  0  0  0  0  0  0  0  0  0  0
  -17.4135  -22.1848   11.0120 C   0  0  0  0  0  0  0  0  0  0  0  0
  -18.3281  -21.2790   11.4906 C   0  0  0  0  0  0  0  0  0  0  0  0
  -19.1978  -20.6424   10.6517 C   0  0  0  0  0  0  0  0  0  0  0  0
  -19.1181  -20.9478    9.3058 C   0  0  0  0  0  0  0  0  0  0  0  0
  -19.0286  -18.9053    7.2490 C   0  0  0  0  0  0  0  0  0  0  0  0
  -18.8236  -17.6327    7.7299 C   0  0  0  0  0  0  0  0  0  0  0  0
  -17.5727  -17.1171    7.9891 C   0  0  0  0  0  0  0  0  0  0  0  0
  -16.4986  -17.9537    7.7399 C   0  0  0  0  0  0  0  0  0  0  0  0
  -16.6917  -19.2283    7.2589 C   0  0  0  0  0  0  0  0  0  0  0  0
  -17.3490  -15.7568    8.4961 C   0  0  0  0  0  0  0  0  0  0  0  0
  -15.3669  -14.6244    8.8385 C   0  0  0  0  0  0  0  0  0  0  0  0
  -14.5771  -13.9086    9.8759 C   0  0  0  0  0  0  0  0  0  0  0  0
  -15.6283  -13.3215   10.8320 C   0  0  1  0  0  0  0  0  0  0  0  0
  -16.0932  -14.5429   11.5935 C   0  0  0  0  0  0  0  0  0  0  0  0
  -16.6220  -15.6077   10.6915 C   0  0  0  0  0  0  0  0  0  0  0  0
  -15.6194  -11.0615   11.8067 C   0  0  0  0  0  0  0  0  0  0  0  0
  -13.8651  -11.2776   13.1320 C   0  0  0  0  0  0  0  0  0  0  0  0
  -14.0346  -12.4792   12.4795 C   0  0  0  0  0  0  0  0  0  0  0  0
  -12.8437  -11.1451   14.0144 C   0  0  0  0  0  0  0  0  0  0  0  0
  -11.9767  -12.2116   14.2576 C   0  0  0  0  0  0  0  0  0  0  0  0
  -12.1606  -13.4011   13.5984 C   0  0  0  0  0  0  0  0  0  0  0  0
  -13.1975  -13.5475   12.6976 C   0  0  0  0  0  0  0  0  0  0  0  0
  -10.1048  -14.5828   14.4952 C   0  0  0  0  0  0  0  0  0  0  0  0
   -9.5815  -15.8898   15.0239 C   0  0  0  0  0  0  0  0  0  0  0  0
   -8.2382  -16.1558   14.4340 C   0  0  0  0  0  0  0  0  0  0  0  0
  -18.4511  -24.9987    5.1387 C   0  0  0  0  0  0  0  0  0  0  0  0
  -18.3372  -23.4674    6.9392 N   0  0  0  0  0  0  0  0  0  0  0  0
  -18.0819  -21.3165    5.0639 N   0  0  0  0  0  0  0  0  0  0  0  0
  -16.1599  -15.6652    9.3681 N   0  0  1  0  0  4  0  0  0  0  0  0
  -15.1258  -12.2988   11.6746 N   0  0  0  0  0  0  0  0  0  0  0  0
  -14.8448  -10.4340   12.7023 N   0  0  0  0  0  0  0  0  0  0  0  0
  -11.3263  -14.5259   13.7900 N   0  0  0  0  0  0  0  0  0  0  0  0
   -9.4300  -13.5561   14.6978 O   0  0  0  0  0  0  0  0  0  0  0  0
  -16.6215  -10.5318   11.2239 O   0  0  0  0  0  0  0  0  0  0  0  0
  -18.2038  -22.9166    3.3555 O   0  0  0  0  0  0  0  0  0  0  0  0
  1  2  1  0
 35  1  1  0
  1 42  2  0
  2 33  2  0
 34  2  1  0
  4  3  2  0
  3  5  1  0
  3 34  1  0
  6  4  1  0
  4 35  1  0
  5  7  2  0
  5 11  1  0
 12  6  2  0
 16  6  1  0
  7  8  1  0
  8  9  2  0
 10  9  1  0
 11 10  2  0
 13 12  1  0
 14 13  2  0
 14 15  1  0
 17 14  1  1
 15 16  2  0
 36 17  1  6
 19 18  1  1
 18 36  1  6
 20 19  1  0
 21 20  1  1
 20 37  1  1
 22 21  1  1
 22 36  1  0
 37 23  1  0
 23 38  1  0
 23 41  2  0
 25 24  2  0
 26 24  1  0
 24 38  1  0
 29 25  1  0
 25 37  1  0
 27 26  2  0
 28 27  1  0
 28 29  2  0
 39 28  1  0
 31 30  1  1
 30 39  1  0
 30 40  2  0
 32 31  1  6
M  CHG  1  36   1
M  END
$$$$
