
     RDKit          3D

 42 47  0  0  0  0  0  0  0  0999 V2000
  -18.3399  -13.6356    6.7739 C   0  0  0  0  0  0  0  0  0  0  0  0
  -17.4056  -13.0388    5.8153 C   0  0  0  0  0  0  0  0  0  0  0  0
  -15.5691  -13.7993    7.2512 C   0  0  0  0  0  0  0  0  0  0  0  0
  -16.4094  -14.3309    8.1041 C   0  0  0  0  0  0  0  0  0  0  0  0
  -14.1314  -13.8516    7.4515 C   0  0  0  0  0  0  0  0  0  0  0  0
  -15.8714  -15.0067    9.2946 C   0  0  0  0  0  0  0  0  0  0  0  0
  -13.2496  -13.0844    6.7293 C   0  0  0  0  0  0  0  0  0  0  0  0
  -11.8921  -13.1901    6.9952 C   0  0  0  0  0  0  0  0  0  0  0  0
  -11.4300  -14.0469    7.9639 C   0  0  0  0  0  0  0  0  0  0  0  0
  -12.2890  -14.8186    8.6931 C   0  0  0  0  0  0  0  0  0  0  0  0
  -13.6381  -14.7007    8.4152 C   0  0  0  0  0  0  0  0  0  0  0  0
  -15.0343  -14.4229   10.2014 C   0  0  0  0  0  0  0  0  0  0  0  0
  -14.5851  -15.1275   11.2943 C   0  0  0  0  0  0  0  0  0  0  0  0
  -14.9374  -16.4355   11.5448 C   0  0  0  0  0  0  0  0  0  0  0  0
  -15.7859  -17.0307   10.6274 C   0  0  0  0  0  0  0  0  0  0  0  0
  -16.2413  -16.3356    9.5308 C   0  0  0  0  0  0  0  0  0  0  0  0
  -14.4548  -17.1935   12.7066 C   0  0  0  0  0  0  0  0  0  0  0  0
  -14.8104  -16.5310   14.8891 C   0  0  0  0  0  0  0  0  0  0  0  0
  -14.1274  -16.3558   16.1987 C   0  0  0  0  0  0  0  0  0  0  0  0
  -13.0096  -17.4114   16.2013 C   0  0  1  0  0  0  0  0  0  0  0  0
  -11.9973  -16.8150   15.2487 C   0  0  0  0  0  0  0  0  0  0  0  0
  -12.5754  -16.5479   13.8990 C   0  0  0  0  0  0  0  0  0  0  0  0
  -12.4914  -18.8474   18.1318 C   0  0  0  0  0  0  0  0  0  0  0  0
  -11.4814  -17.3475   19.4008 C   0  0  0  0  0  0  0  0  0  0  0  0
  -11.8574  -16.7118   18.2376 C   0  0  0  0  0  0  0  0  0  0  0  0
  -10.8346  -16.6389   20.3595 C   0  0  0  0  0  0  0  0  0  0  0  0
  -10.5541  -15.2849   20.1697 C   0  0  0  0  0  0  0  0  0  0  0  0
  -10.9362  -14.6682   19.0049 C   0  0  0  0  0  0  0  0  0  0  0  0
  -11.5955  -15.3798   18.0215 C   0  0  0  0  0  0  0  0  0  0  0  0
  -10.5288  -12.6851   17.4790 C   0  0  0  0  0  0  0  0  0  0  0  0
   -9.9224  -11.3137   17.3655 C   0  0  0  0  0  0  0  0  0  0  0  0
  -10.8588  -10.4225   16.6224 C   0  0  0  0  0  0  0  0  0  0  0  0
  -17.8637  -12.4284    4.7326 C   0  0  0  0  0  0  0  0  0  0  0  0
  -16.0268  -13.1208    6.0541 N   0  0  0  0  0  0  0  0  0  0  0  0
  -17.8476  -14.2896    7.9321 N   0  0  0  0  0  0  0  0  0  0  0  0
  -13.9548  -16.3181   13.7867 N   0  0  1  0  0  4  0  0  0  0  0  0
  -12.4754  -17.6742   17.4873 N   0  0  0  0  0  0  0  0  0  0  0  0
  -11.8805  -18.6467   19.3075 N   0  0  0  0  0  0  0  0  0  0  0  0
  -10.6889  -13.3022   18.7384 N   0  0  0  0  0  0  0  0  0  0  0  0
  -10.8839  -13.2577   16.4318 O   0  0  0  0  0  0  0  0  0  0  0  0
  -12.9759  -19.9637   17.7527 O   0  0  0  0  0  0  0  0  0  0  0  0
  -19.5942  -13.5578    6.5509 O   0  0  0  0  0  0  0  0  0  0  0  0
  1  2  1  0
 35  1  1  0
  1 42  2  0
  2 33  2  0
 34  2  1  0
  4  3  2  0
  3  5  1  0
  3 34  1  0
  6  4  1  0
  4 35  1  0
  5  7  2  0
  5 11  1  0
 12  6  2  0
 16  6  1  0
  7  8  1  0
  8  9  2  0
 10  9  1  0
 11 10  2  0
 13 12  1  0
 14 13  2  0
 14 15  1  0
 17 14  1  1
 15 16  2  0
 36 17  1  6
 19 18  1  1
 18 36  1  6
 20 19  1  0
 21 20  1  1
 20 37  1  1
 22 21  1  1
 22 36  1  0
 37 23  1  0
 23 38  1  0
 23 41  2  0
 25 24  2  0
 26 24  1  0
 24 38  1  0
 29 25  1  0
 25 37  1  0
 27 26  2  0
 28 27  1  0
 28 29  2  0
 39 28  1  0
 31 30  1  1
 30 39  1  0
 30 40  2  0
 32 31  1  6
M  CHG  1  36   1
M  END
$$$$
