
     RDKit          3D

 42 47  0  0  0  0  0  0  0  0999 V2000
  -16.0640  -11.1275    6.0848 C   0  0  0  0  0  0  0  0  0  0  0  0
  -17.1645  -11.9737    5.6146 C   0  0  0  0  0  0  0  0  0  0  0  0
  -16.6255  -13.5426    7.4203 C   0  0  0  0  0  0  0  0  0  0  0  0
  -15.6433  -12.7818    7.8358 C   0  0  0  0  0  0  0  0  0  0  0  0
  -16.9544  -14.7995    8.0700 C   0  0  0  0  0  0  0  0  0  0  0  0
  -14.8598  -13.2174    9.0018 C   0  0  0  0  0  0  0  0  0  0  0  0
  -17.1712  -15.9642    7.3740 C   0  0  0  0  0  0  0  0  0  0  0  0
  -17.4692  -17.1223    8.0773 C   0  0  0  0  0  0  0  0  0  0  0  0
  -17.5483  -17.1116    9.4484 C   0  0  0  0  0  0  0  0  0  0  0  0
  -17.3366  -15.9650   10.1595 C   0  0  0  0  0  0  0  0  0  0  0  0
  -17.0407  -14.8205    9.4430 C   0  0  0  0  0  0  0  0  0  0  0  0
  -14.4134  -14.4924    9.1992 C   0  0  0  0  0  0  0  0  0  0  0  0
  -13.6770  -14.8112   10.3167 C   0  0  0  0  0  0  0  0  0  0  0  0
  -13.3471  -13.8930   11.2893 C   0  0  0  0  0  0  0  0  0  0  0  0
  -13.7981  -12.5993   11.0926 C   0  0  0  0  0  0  0  0  0  0  0  0
  -14.5353  -12.2692    9.9787 C   0  0  0  0  0  0  0  0  0  0  0  0
  -12.5670  -14.2306   12.4872 C   0  0  0  0  0  0  0  0  0  0  0  0
  -13.8547  -15.9031   13.4213 C   0  0  0  0  0  0  0  0  0  0  0  0
  -14.0790  -16.6592   14.6824 C   0  0  0  0  0  0  0  0  0  0  0  0
  -12.7087  -16.6725   15.3794 C   0  0  1  0  0  0  0  0  0  0  0  0
  -12.5913  -15.2544   15.8924 C   0  0  0  0  0  0  0  0  0  0  0  0
  -12.7058  -14.2437   14.8004 C   0  0  0  0  0  0  0  0  0  0  0  0
  -13.1956  -18.8432   16.4323 C   0  0  0  0  0  0  0  0  0  0  0  0
  -11.9822  -18.6048   18.2629 C   0  0  0  0  0  0  0  0  0  0  0  0
  -11.8337  -17.4530   17.5216 C   0  0  0  0  0  0  0  0  0  0  0  0
  -11.3319  -18.7142   19.4481 C   0  0  0  0  0  0  0  0  0  0  0  0
  -10.5236  -17.6740   19.9097 C   0  0  0  0  0  0  0  0  0  0  0  0
  -10.3876  -16.5340   19.1581 C   0  0  0  0  0  0  0  0  0  0  0  0
  -11.0450  -16.4115   17.9494 C   0  0  0  0  0  0  0  0  0  0  0  0
   -9.4142  -14.9283   20.8614 C   0  0  0  0  0  0  0  0  0  0  0  0
   -8.4182  -13.8350   21.1336 C   0  0  0  0  0  0  0  0  0  0  0  0
   -8.8731  -13.0375   22.3084 C   0  0  0  0  0  0  0  0  0  0  0  0
  -17.8887  -11.6023    4.5695 C   0  0  0  0  0  0  0  0  0  0  0  0
  -17.4428  -13.1756    6.2800 N   0  0  0  0  0  0  0  0  0  0  0  0
  -15.2903  -11.5262    7.2044 N   0  0  0  0  0  0  0  0  0  0  0  0
  -13.4218  -14.5777   13.6411 N   0  0  1  0  0  4  0  0  0  0  0  0
  -12.5987  -17.6453   16.4040 N   0  0  0  0  0  0  0  0  0  0  0  0
  -12.8167  -19.4328   17.5745 N   0  0  0  0  0  0  0  0  0  0  0  0
   -9.5886  -15.4383   19.5567 N   0  0  0  0  0  0  0  0  0  0  0  0
  -10.0780  -15.3684   21.8186 O   0  0  0  0  0  0  0  0  0  0  0  0
  -13.9771  -19.3698   15.5741 O   0  0  0  0  0  0  0  0  0  0  0  0
  -15.8156  -10.0342    5.4747 O   0  0  0  0  0  0  0  0  0  0  0  0
  1  2  1  0
 35  1  1  0
  1 42  2  0
  2 33  2  0
 34  2  1  0
  4  3  2  0
  3  5  1  0
  3 34  1  0
  6  4  1  0
  4 35  1  0
  5  7  2  0
  5 11  1  0
 12  6  2  0
 16  6  1  0
  7  8  1  0
  8  9  2  0
 10  9  1  0
 11 10  2  0
 13 12  1  0
 14 13  2  0
 14 15  1  0
 17 14  1  1
 15 16  2  0
 36 17  1  6
 19 18  1  1
 18 36  1  6
 20 19  1  0
 21 20  1  1
 20 37  1  1
 22 21  1  1
 22 36  1  0
 37 23  1  0
 23 38  1  0
 23 41  2  0
 25 24  2  0
 26 24  1  0
 24 38  1  0
 29 25  1  0
 25 37  1  0
 27 26  2  0
 28 27  1  0
 28 29  2  0
 39 28  1  0
 31 30  1  1
 30 39  1  0
 30 40  2  0
 32 31  1  6
M  CHG  1  36   1
M  END
$$$$
