
     RDKit          3D

 42 47  0  0  0  0  0  0  0  0999 V2000
  -13.3195  -18.3280   17.1086 C   0  0  0  0  0  0  0  0  0  0  0  0
  -12.1580  -17.5038   17.4560 C   0  0  0  0  0  0  0  0  0  0  0  0
  -12.4840  -16.4032   15.2961 C   0  0  0  0  0  0  0  0  0  0  0  0
  -13.5290  -17.1438   14.9824 C   0  0  0  0  0  0  0  0  0  0  0  0
  -11.9901  -15.3708   14.3730 C   0  0  0  0  0  0  0  0  0  0  0  0
  -14.2671  -16.9881   13.7102 C   0  0  0  0  0  0  0  0  0  0  0  0
  -12.6536  -14.1585   14.2773 C   0  0  0  0  0  0  0  0  0  0  0  0
  -12.2056  -13.1512   13.4433 C   0  0  0  0  0  0  0  0  0  0  0  0
  -11.0691  -13.3533   12.6849 C   0  0  0  0  0  0  0  0  0  0  0  0
  -10.3964  -14.5561   12.7691 C   0  0  0  0  0  0  0  0  0  0  0  0
  -10.8550  -15.5658   13.6126 C   0  0  0  0  0  0  0  0  0  0  0  0
  -13.6382  -17.0928   12.4918 C   0  0  0  0  0  0  0  0  0  0  0  0
  -14.3315  -16.9646   11.2892 C   0  0  0  0  0  0  0  0  0  0  0  0
  -15.6780  -16.7280   11.3177 C   0  0  0  0  0  0  0  0  0  0  0  0
  -16.3266  -16.6208   12.5184 C   0  0  0  0  0  0  0  0  0  0  0  0
  -15.6219  -16.7507   13.6896 C   0  0  0  0  0  0  0  0  0  0  0  0
  -16.4333  -16.5771   10.0613 C   0  0  0  0  0  0  0  0  0  0  0  0
  -18.4398  -17.1125    8.8925 C   0  0  0  0  0  0  0  0  0  0  0  0
  -18.0257  -17.8757    7.6366 C   0  0  0  0  0  0  0  0  0  0  0  0
  -18.1590  -19.3344    7.8916 C   0  0  1  0  0  0  0  0  0  0  0  0
  -18.4411  -19.5683    9.3851 C   0  0  0  0  0  0  0  0  0  0  0  0
  -17.2793  -18.8394   10.0892 C   0  0  0  0  0  0  0  0  0  0  0  0
  -20.3240  -20.2649    7.1937 C   0  0  0  0  0  0  0  0  0  0  0  0
  -19.8185  -21.3514    5.4376 C   0  0  0  0  0  0  0  0  0  0  0  0
  -18.6420  -20.7812    5.9027 C   0  0  0  0  0  0  0  0  0  0  0  0
  -19.7330  -22.1127    4.2969 C   0  0  0  0  0  0  0  0  0  0  0  0
  -18.5323  -22.3026    3.6426 C   0  0  0  0  0  0  0  0  0  0  0  0
  -17.3707  -21.7360    4.1070 C   0  0  0  0  0  0  0  0  0  0  0  0
  -17.4486  -20.9611    5.2640 C   0  0  0  0  0  0  0  0  0  0  0  0
  -15.0274  -20.9380    3.6325 C   0  0  0  0  0  0  0  0  0  0  0  0
  -13.7602  -21.1185    2.8640 C   0  0  0  0  0  0  0  0  0  0  0  0
  -12.8584  -19.9411    3.1345 C   0  0  0  0  0  0  0  0  0  0  0  0
  -11.5165  -17.6603   18.5967 C   0  0  0  0  0  0  0  0  0  0  0  0
  -11.7518  -16.5253   16.5088 N   0  0  0  0  0  0  0  0  0  0  0  0
  -14.0051  -18.1581   15.8875 N   0  0  0  0  0  0  0  0  0  0  0  0
  -17.5689  -17.4496   10.0120 N   0  0  1  0  0  4  0  0  0  0  0  0
  -18.9748  -20.0931    7.0199 N   0  0  0  0  0  0  0  0  0  0  0  0
  -20.8411  -21.0204    6.2472 N   0  0  0  0  0  0  0  0  0  0  0  0
  -16.0905  -21.8693    3.5351 N   0  0  0  0  0  0  0  0  0  0  0  0
  -15.1252  -19.9375    4.3672 O   0  0  0  0  0  0  0  0  0  0  0  0
  -20.9801  -19.7550    8.1501 O   0  0  0  0  0  0  0  0  0  0  0  0
  -13.6694  -19.1967   17.9650 O   0  0  0  0  0  0  0  0  0  0  0  0
  1  2  1  0
 35  1  1  0
  1 42  2  0
  2 33  2  0
 34  2  1  0
  4  3  2  0
  3  5  1  0
  3 34  1  0
  6  4  1  0
  4 35  1  0
  5  7  2  0
  5 11  1  0
 12  6  2  0
 16  6  1  0
  7  8  1  0
  8  9  2  0
 10  9  1  0
 11 10  2  0
 13 12  1  0
 14 13  2  0
 14 15  1  0
 17 14  1  0
 15 16  2  0
 36 17  1  6
 19 18  1  0
 18 36  1  0
 20 19  1  0
 20 21  1  0
 20 37  1  6
 21 22  1  0
 22 36  1  0
 37 23  1  0
 23 38  1  0
 23 41  2  0
 25 24  2  0
 26 24  1  0
 24 38  1  0
 29 25  1  0
 25 37  1  0
 27 26  2  0
 28 27  1  0
 28 29  2  0
 39 28  1  0
 30 31  1  0
 30 39  1  0
 30 40  2  0
 31 32  1  0
M  CHG  1  36   1
M  END
$$$$
