
     RDKit          3D

 42 47  0  0  0  0  0  0  0  0999 V2000
  -18.5815  -23.6100    7.5394 C   0  0  0  0  0  0  0  0  0  0  0  0
  -18.9019  -23.4121    6.1226 C   0  0  0  0  0  0  0  0  0  0  0  0
  -18.5811  -21.0235    6.5405 C   0  0  0  0  0  0  0  0  0  0  0  0
  -18.2925  -21.2003    7.8150 C   0  0  0  0  0  0  0  0  0  0  0  0
  -18.6031  -19.6751    5.9547 C   0  0  0  0  0  0  0  0  0  0  0  0
  -17.9710  -20.0798    8.7253 C   0  0  0  0  0  0  0  0  0  0  0  0
  -17.4689  -18.8817    6.0107 C   0  0  0  0  0  0  0  0  0  0  0  0
  -17.4390  -17.6198    5.4471 C   0  0  0  0  0  0  0  0  0  0  0  0
  -18.5647  -17.1335    4.8115 C   0  0  0  0  0  0  0  0  0  0  0  0
  -19.7030  -17.9121    4.7471 C   0  0  0  0  0  0  0  0  0  0  0  0
  -19.7242  -19.1831    5.3178 C   0  0  0  0  0  0  0  0  0  0  0  0
  -16.8539  -20.0972    9.5271 C   0  0  0  0  0  0  0  0  0  0  0  0
  -16.5361  -19.0365   10.3741 C   0  0  0  0  0  0  0  0  0  0  0  0
  -17.3569  -17.9436   10.4112 C   0  0  0  0  0  0  0  0  0  0  0  0
  -18.4743  -17.9025    9.6214 C   0  0  0  0  0  0  0  0  0  0  0  0
  -18.7664  -18.9597    8.7954 C   0  0  0  0  0  0  0  0  0  0  0  0
  -17.0505  -16.8133   11.3057 C   0  0  0  0  0  0  0  0  0  0  0  0
  -16.7173  -14.4538   11.2845 C   0  0  0  0  0  0  0  0  0  0  0  0
  -15.6118  -14.1576   12.2951 C   0  0  0  0  0  0  0  0  0  0  0  0
  -14.3186  -14.0287   11.5727 C   0  0  1  0  0  0  0  0  0  0  0  0
  -14.5055  -14.4623   10.1092 C   0  0  0  0  0  0  0  0  0  0  0  0
  -15.1016  -15.8793   10.2270 C   0  0  0  0  0  0  0  0  0  0  0  0
  -13.8939  -11.6513   11.1173 C   0  0  0  0  0  0  0  0  0  0  0  0
  -12.1503  -11.2616   12.2696 C   0  0  0  0  0  0  0  0  0  0  0  0
  -12.4690  -12.5968   12.4730 C   0  0  0  0  0  0  0  0  0  0  0  0
  -11.0413  -10.7798   12.9223 C   0  0  0  0  0  0  0  0  0  0  0  0
  -10.2782  -11.5859   13.7432 C   0  0  0  0  0  0  0  0  0  0  0  0
  -10.5980  -12.9067   13.9412 C   0  0  0  0  0  0  0  0  0  0  0  0
  -11.7225  -13.4039   13.2829 C   0  0  0  0  0  0  0  0  0  0  0  0
   -8.8577  -13.5163   15.6595 C   0  0  0  0  0  0  0  0  0  0  0  0
   -8.2774  -14.5571   16.5590 C   0  0  0  0  0  0  0  0  0  0  0  0
   -6.8514  -14.1834   16.8745 C   0  0  0  0  0  0  0  0  0  0  0  0
  -19.1846  -24.4267    5.3302 C   0  0  0  0  0  0  0  0  0  0  0  0
  -18.8943  -22.0763    5.6376 N   0  0  0  0  0  0  0  0  0  0  0  0
  -18.2785  -22.5228    8.3855 N   0  0  0  0  0  0  0  0  0  0  0  0
  -16.4644  -15.7144   10.5972 N   0  0  1  0  0  4  0  0  0  0  0  0
  -13.5789  -12.8340   11.7353 N   0  0  0  0  0  0  0  0  0  0  0  0
  -13.0406  -10.6989   11.4320 N   0  0  0  0  0  0  0  0  0  0  0  0
   -9.8907  -13.8256   14.7407 N   0  0  0  0  0  0  0  0  0  0  0  0
   -8.4046  -12.3594   15.7395 O   0  0  0  0  0  0  0  0  0  0  0  0
  -14.8854  -11.5055   10.3420 O   0  0  0  0  0  0  0  0  0  0  0  0
  -18.5924  -24.8086    7.9567 O   0  0  0  0  0  0  0  0  0  0  0  0
  1  2  1  0
 35  1  1  0
  1 42  2  0
  2 33  2  0
 34  2  1  0
  4  3  2  0
  3  5  1  0
  3 34  1  0
  6  4  1  0
  4 35  1  0
  5  7  2  0
  5 11  1  0
 12  6  2  0
 16  6  1  0
  7  8  1  0
  8  9  2  0
 10  9  1  0
 11 10  2  0
 13 12  1  0
 14 13  2  0
 14 15  1  0
 17 14  1  0
 15 16  2  0
 36 17  1  1
 19 18  1  0
 18 36  1  0
 20 19  1  0
 20 21  1  0
 20 37  1  6
 21 22  1  0
 22 36  1  0
 37 23  1  0
 23 38  1  0
 23 41  2  0
 25 24  2  0
 26 24  1  0
 24 38  1  0
 29 25  1  0
 25 37  1  0
 27 26  2  0
 28 27  1  0
 28 29  2  0
 39 28  1  0
 30 31  1  0
 30 39  1  0
 30 40  2  0
 31 32  1  0
M  CHG  1  36   1
M  END
$$$$
