
     RDKit          3D

 42 47  0  0  0  0  0  0  0  0999 V2000
  -18.6752  -16.4092    6.3749 C   0  0  0  0  0  0  0  0  0  0  0  0
  -18.4167  -15.4905    5.2621 C   0  0  0  0  0  0  0  0  0  0  0  0
  -17.0831  -14.1886    6.8462 C   0  0  0  0  0  0  0  0  0  0  0  0
  -17.3147  -15.0144    7.8479 C   0  0  0  0  0  0  0  0  0  0  0  0
  -16.2518  -12.9908    7.0362 C   0  0  0  0  0  0  0  0  0  0  0  0
  -16.7617  -14.8028    9.2033 C   0  0  0  0  0  0  0  0  0  0  0  0
  -16.7819  -11.7371    6.7789 C   0  0  0  0  0  0  0  0  0  0  0  0
  -16.0433  -10.5846    6.9723 C   0  0  0  0  0  0  0  0  0  0  0  0
  -14.7448  -10.6801    7.4329 C   0  0  0  0  0  0  0  0  0  0  0  0
  -14.2020  -11.9225    7.6942 C   0  0  0  0  0  0  0  0  0  0  0  0
  -14.9539  -13.0788    7.4967 C   0  0  0  0  0  0  0  0  0  0  0  0
  -16.1831  -15.8266    9.9162 C   0  0  0  0  0  0  0  0  0  0  0  0
  -15.6443  -15.6296   11.1867 C   0  0  0  0  0  0  0  0  0  0  0  0
  -15.6899  -14.3819   11.7443 C   0  0  0  0  0  0  0  0  0  0  0  0
  -16.2598  -13.3464   11.0537 C   0  0  0  0  0  0  0  0  0  0  0  0
  -16.7840  -13.5654    9.8036 C   0  0  0  0  0  0  0  0  0  0  0  0
  -15.1378  -14.1483   13.0905 C   0  0  0  0  0  0  0  0  0  0  0  0
  -13.3055  -13.2868   14.3471 C   0  0  0  0  0  0  0  0  0  0  0  0
  -12.7545  -14.4477   15.1716 C   0  0  0  0  0  0  0  0  0  0  0  0
  -11.5848  -15.0313   14.4632 C   0  0  1  0  0  0  0  0  0  0  0  0
  -11.4826  -14.4198   13.0559 C   0  0  0  0  0  0  0  0  0  0  0  0
  -12.8732  -14.6865   12.4458 C   0  0  0  0  0  0  0  0  0  0  0  0
   -9.2587  -14.3390   14.8504 C   0  0  0  0  0  0  0  0  0  0  0  0
   -8.6723  -15.5712   16.4806 C   0  0  0  0  0  0  0  0  0  0  0  0
   -9.9909  -15.8949   16.1940 C   0  0  0  0  0  0  0  0  0  0  0  0
   -8.0738  -16.2537   17.5121 C   0  0  0  0  0  0  0  0  0  0  0  0
   -8.7519  -17.2174   18.2313 C   0  0  0  0  0  0  0  0  0  0  0  0
  -10.0569  -17.5340   17.9436 C   0  0  0  0  0  0  0  0  0  0  0  0
  -10.6724  -16.8456   16.8984 C   0  0  0  0  0  0  0  0  0  0  0  0
  -10.6644  -18.9773   19.9186 C   0  0  0  0  0  0  0  0  0  0  0  0
  -11.7989  -19.5519   20.7009 C   0  0  0  0  0  0  0  0  0  0  0  0
  -11.6255  -21.0476   20.7774 C   0  0  0  0  0  0  0  0  0  0  0  0
  -18.9200  -15.7003    4.0621 C   0  0  0  0  0  0  0  0  0  0  0  0
  -17.5976  -14.3610    5.5319 N   0  0  0  0  0  0  0  0  0  0  0  0
  -18.1349  -16.1831    7.6581 N   0  0  0  0  0  0  0  0  0  0  0  0
  -13.7620  -13.7510   13.0426 N   0  0  1  0  0  4  0  0  0  0  0  0
  -10.3536  -15.1059   15.1556 N   0  0  0  0  0  0  0  0  0  0  0  0
   -8.2419  -14.6112   15.6417 N   0  0  0  0  0  0  0  0  0  0  0  0
  -10.8435  -18.5037   18.5955 N   0  0  0  0  0  0  0  0  0  0  0  0
   -9.5472  -18.9260   20.4656 O   0  0  0  0  0  0  0  0  0  0  0  0
   -9.2401  -13.4787   13.9204 O   0  0  0  0  0  0  0  0  0  0  0  0
  -19.4082  -17.4128    6.1174 O   0  0  0  0  0  0  0  0  0  0  0  0
  1  2  1  0
 35  1  1  0
  1 42  2  0
  2 33  2  0
 34  2  1  0
  4  3  2  0
  3  5  1  0
  3 34  1  0
  6  4  1  0
  4 35  1  0
  5  7  2  0
  5 11  1  0
 12  6  2  0
 16  6  1  0
  7  8  1  0
  8  9  2  0
 10  9  1  0
 11 10  2  0
 13 12  1  0
 14 13  2  0
 14 15  1  0
 17 14  1  0
 15 16  2  0
 36 17  1  1
 19 18  1  0
 18 36  1  0
 20 19  1  0
 20 21  1  0
 20 37  1  1
 21 22  1  0
 22 36  1  0
 37 23  1  0
 23 38  1  0
 23 41  2  0
 25 24  2  0
 26 24  1  0
 24 38  1  0
 29 25  1  0
 25 37  1  0
 27 26  2  0
 28 27  1  0
 28 29  2  0
 39 28  1  0
 30 31  1  0
 30 39  1  0
 30 40  2  0
 31 32  1  0
M  CHG  1  36   1
M  END
$$$$
