
     RDKit          3D

 42 47  0  0  0  0  0  0  0  0999 V2000
  -17.2373  -17.0866    6.7230 C   0  0  0  0  0  0  0  0  0  0  0  0
  -17.9508  -16.0069    6.0343 C   0  0  0  0  0  0  0  0  0  0  0  0
  -16.7380  -14.4735    7.5043 C   0  0  0  0  0  0  0  0  0  0  0  0
  -16.0954  -15.4438    8.1243 C   0  0  0  0  0  0  0  0  0  0  0  0
  -16.5199  -13.0684    7.8784 C   0  0  0  0  0  0  0  0  0  0  0  0
  -15.1256  -15.1933    9.2126 C   0  0  0  0  0  0  0  0  0  0  0  0
  -16.2424  -12.1300    6.8979 C   0  0  0  0  0  0  0  0  0  0  0  0
  -16.0594  -10.7945    7.2043 C   0  0  0  0  0  0  0  0  0  0  0  0
  -16.1544  -10.3805    8.5185 C   0  0  0  0  0  0  0  0  0  0  0  0
  -16.4306  -11.3036    9.5074 C   0  0  0  0  0  0  0  0  0  0  0  0
  -16.6139  -12.6477    9.1894 C   0  0  0  0  0  0  0  0  0  0  0  0
  -15.0510  -16.0095   10.3168 C   0  0  0  0  0  0  0  0  0  0  0  0
  -14.1272  -15.7889   11.3373 C   0  0  0  0  0  0  0  0  0  0  0  0
  -13.2671  -14.7303   11.2409 C   0  0  0  0  0  0  0  0  0  0  0  0
  -13.3214  -13.9042   10.1507 C   0  0  0  0  0  0  0  0  0  0  0  0
  -14.2402  -14.1420    9.1584 C   0  0  0  0  0  0  0  0  0  0  0  0
  -12.2882  -14.4676   12.3107 C   0  0  0  0  0  0  0  0  0  0  0  0
  -13.4974  -15.3984   14.1410 C   0  0  0  0  0  0  0  0  0  0  0  0
  -12.4760  -16.1087   15.0260 C   0  0  0  0  0  0  0  0  0  0  0  0
  -12.0964  -15.2067   16.1455 C   0  0  1  0  0  0  0  0  0  0  0  0
  -12.6815  -13.8069   15.8946 C   0  0  0  0  0  0  0  0  0  0  0  0
  -12.1528  -13.4416   14.4932 C   0  0  0  0  0  0  0  0  0  0  0  0
  -12.9501  -14.9974   18.4405 C   0  0  0  0  0  0  0  0  0  0  0  0
  -12.2483  -16.7802   19.3619 C   0  0  0  0  0  0  0  0  0  0  0  0
  -11.8114  -16.8166   18.0452 C   0  0  0  0  0  0  0  0  0  0  0  0
  -11.9054  -17.8439   20.1612 C   0  0  0  0  0  0  0  0  0  0  0  0
  -11.1604  -18.9010   19.6781 C   0  0  0  0  0  0  0  0  0  0  0  0
  -10.7305  -18.9322   18.3742 C   0  0  0  0  0  0  0  0  0  0  0  0
  -11.0746  -17.8567   17.5555 C   0  0  0  0  0  0  0  0  0  0  0  0
   -9.0602  -20.8187   18.4376 C   0  0  0  0  0  0  0  0  0  0  0  0
   -8.7771  -22.1885   17.9153 C   0  0  0  0  0  0  0  0  0  0  0  0
   -8.3692  -23.0709   19.0676 C   0  0  0  0  0  0  0  0  0  0  0  0
  -18.8103  -16.2546    5.0663 C   0  0  0  0  0  0  0  0  0  0  0  0
  -17.6756  -14.6776    6.4550 N   0  0  0  0  0  0  0  0  0  0  0  0
  -16.3173  -16.8191    7.7583 N   0  0  0  0  0  0  0  0  0  0  0  0
  -12.9265  -14.1880   13.5627 N   0  0  1  0  0  4  0  0  0  0  0  0
  -12.2627  -15.6780   17.4687 N   0  0  0  0  0  0  0  0  0  0  0  0
  -12.9473  -15.6519   19.5832 N   0  0  0  0  0  0  0  0  0  0  0  0
   -9.9570  -19.9452   17.7746 N   0  0  0  0  0  0  0  0  0  0  0  0
   -8.4810  -20.4621   19.4805 O   0  0  0  0  0  0  0  0  0  0  0  0
  -13.5136  -13.8786   18.2502 O   0  0  0  0  0  0  0  0  0  0  0  0
  -17.4941  -18.2675    6.3355 O   0  0  0  0  0  0  0  0  0  0  0  0
  1  2  1  0
 35  1  1  0
  1 42  2  0
  2 33  2  0
 34  2  1  0
  4  3  2  0
  3  5  1  0
  3 34  1  0
  6  4  1  0
  4 35  1  0
  5  7  2  0
  5 11  1  0
 12  6  2  0
 16  6  1  0
  7  8  1  0
  8  9  2  0
 10  9  1  0
 11 10  2  0
 13 12  1  0
 14 13  2  0
 14 15  1  0
 17 14  1  0
 15 16  2  0
 36 17  1  6
 19 18  1  0
 18 36  1  0
 20 19  1  0
 20 21  1  0
 20 37  1  1
 21 22  1  0
 22 36  1  0
 37 23  1  0
 23 38  1  0
 23 41  2  0
 25 24  2  0
 26 24  1  0
 24 38  1  0
 29 25  1  0
 25 37  1  0
 27 26  2  0
 28 27  1  0
 28 29  2  0
 39 28  1  0
 30 31  1  0
 30 39  1  0
 30 40  2  0
 31 32  1  0
M  CHG  1  36   1
M  END
$$$$
