
     RDKit          3D

 39 45  0  0  0  0  0  0  0  0999 V2000
   16.7937   15.0563  -19.4389 C   0  0  0  0  0  0  0  0  0  0  0  0
   16.2954   16.1124  -20.1518 C   0  0  0  0  0  0  0  0  0  0  0  0
   15.0183   16.5878  -19.8579 C   0  0  0  0  0  0  0  0  0  0  0  0
   13.8032   14.5057  -17.1350 C   0  0  0  0  0  0  0  0  0  0  0  0
   14.2543   16.0160  -18.8680 C   0  0  0  0  0  0  0  0  0  0  0  0
   11.8782   16.3299  -19.4176 C   0  0  0  0  0  0  0  0  0  0  0  0
   11.2790   17.5333  -19.8359 C   0  0  0  0  0  0  0  0  0  0  0  0
    9.7968   19.5479  -21.0655 C   0  0  0  0  0  0  0  0  0  0  0  0
    9.6824   18.2216  -21.4708 C   0  0  0  0  0  0  0  0  0  0  0  0
   10.0356    9.9022  -23.9444 C   0  0  0  0  0  0  0  0  0  0  0  0
   10.3603   11.0559  -21.8921 C   0  0  0  0  0  0  0  0  0  0  0  0
   12.1798   10.7372  -23.3611 C   0  0  0  0  0  0  0  0  0  0  0  0
   12.8715   16.2974  -18.3573 C   0  0  1  0  0  0  0  0  0  0  0  0
   11.6517   13.9150  -20.1567 C   0  0  0  0  0  0  0  0  0  0  0  0
   11.3608   15.3375  -20.1991 C   0  0  0  0  0  0  0  0  0  0  0  0
   10.4130   17.2169  -20.8670 C   0  0  0  0  0  0  0  0  0  0  0  0
   11.3830   18.8484  -19.4444 C   0  0  0  0  0  0  0  0  0  0  0  0
   10.6602   19.8629  -20.0372 C   0  0  0  0  0  0  0  0  0  0  0  0
   11.3784   10.0718  -24.2544 C   0  0  0  0  0  0  0  0  0  0  0  0
    9.5277   10.3948  -22.7625 C   0  0  0  0  0  0  0  0  0  0  0  0
   11.6929   11.2387  -22.1721 C   0  0  0  0  0  0  0  0  0  0  0  0
   12.6014   11.9645  -21.2133 C   0  0  0  0  0  0  0  0  0  0  0  0
   16.0383   14.4751  -18.4446 C   0  0  0  0  0  0  0  0  0  0  0  0
    9.4629    9.2147  -24.9910 C   0  0  0  0  0  0  0  0  0  0  0  0
   10.4556    8.9801  -25.9101 C   0  0  0  0  0  0  0  0  0  0  0  0
   12.8960    9.4786  -26.1031 C   0  0  0  0  0  0  0  0  0  0  0  0
   13.8516    8.5283  -25.4792 C   0  0  0  0  0  0  0  0  0  0  0  0
   15.0236    8.9899  -24.8666 C   0  0  0  0  0  0  0  0  0  0  0  0
   15.9363    8.1455  -24.2748 C   0  0  0  0  0  0  0  0  0  0  0  0
   15.7104    6.7833  -24.2713 C   0  0  0  0  0  0  0  0  0  0  0  0
   14.5787    6.3057  -24.8597 C   0  0  0  0  0  0  0  0  0  0  0  0
   13.6694    7.1636  -25.4511 C   0  0  0  0  0  0  0  0  0  0  0  0
   14.7601   14.9521  -18.1508 C   0  0  0  0  0  0  0  0  0  0  0  0
   10.4738   15.8954  -21.0727 N   0  0  0  0  0  0  0  0  0  0  0  0
   12.4066   13.3810  -21.2501 N   0  0  0  0  0  4  0  0  0  0  0  0
   11.6080    9.5031  -25.4529 N   0  0  0  0  0  0  0  0  0  0  0  0
   12.6754   15.3850  -17.2892 N   0  0  0  0  0  0  0  0  0  0  0  0
   17.0797   16.6785  -21.1477 O   0  0  0  0  0  0  0  0  0  0  0  0
   13.9374   13.5607  -16.3085 O   0  0  0  0  0  0  0  0  0  0  0  0
  2  1  2  0
 23  1  1  0
  3  2  1  0
  2 38  1  0
  5  3  2  0
  4 33  1  0
 37  4  1  0
  4 39  2  0
 13  5  1  0
  5 33  1  0
  6  7  1  0
 13  6  1  6
 15  6  2  0
 16  7  2  0
  7 17  1  0
  9  8  2  0
  8 18  1  0
 16  9  1  0
 19 10  2  0
 10 20  1  0
 24 10  1  0
 20 11  2  0
 21 11  1  0
 19 12  1  0
 12 21  2  0
 13 37  1  0
 14 15  1  0
 35 14  1  0
 15 34  1  0
 34 16  1  0
 17 18  2  0
 36 19  1  0
 21 22  1  0
 22 35  1  0
 33 23  2  0
 25 24  2  0
 36 25  1  0
 26 27  1  0
 26 36  1  0
 27 28  2  0
 27 32  1  0
 28 29  1  0
 29 30  2  0
 30 31  1  0
 31 32  2  0
M  CHG  1  35   1
M  END
$$$$
