
     RDKit          3D

 39 45  0  0  0  0  0  0  0  0999 V2000
   13.1557   12.8168  -23.8116 C   0  0  0  0  0  0  0  0  0  0  0  0
   14.3155   12.5465  -23.1380 C   0  0  0  0  0  0  0  0  0  0  0  0
   14.4063   12.8708  -21.7853 C   0  0  0  0  0  0  0  0  0  0  0  0
   11.1894   14.3240  -20.9106 C   0  0  0  0  0  0  0  0  0  0  0  0
   13.3548   13.4550  -21.1194 C   0  0  0  0  0  0  0  0  0  0  0  0
   14.2412   14.8116  -19.2699 C   0  0  0  0  0  0  0  0  0  0  0  0
   15.0441   14.5178  -18.1513 C   0  0  0  0  0  0  0  0  0  0  0  0
   16.9131   14.4693  -16.0844 C   0  0  0  0  0  0  0  0  0  0  0  0
   16.8872   15.5117  -17.0061 C   0  0  0  0  0  0  0  0  0  0  0  0
    8.9928   20.4274  -21.2867 C   0  0  0  0  0  0  0  0  0  0  0  0
   10.8217   19.2558  -20.3218 C   0  0  0  0  0  0  0  0  0  0  0  0
   10.8579   19.8053  -22.6169 C   0  0  0  0  0  0  0  0  0  0  0  0
   13.1777   13.9212  -19.7039 C   0  0  1  0  0  0  0  0  0  0  0  0
   14.1958   16.7226  -20.9357 C   0  0  0  0  0  0  0  0  0  0  0  0
   14.6961   15.9911  -19.7849 C   0  0  0  0  0  0  0  0  0  0  0  0
   15.9644   15.5437  -18.0333 C   0  0  0  0  0  0  0  0  0  0  0  0
   15.0802   13.4930  -17.2336 C   0  0  0  0  0  0  0  0  0  0  0  0
   15.9953   13.4468  -16.2022 C   0  0  0  0  0  0  0  0  0  0  0  0
    9.6290   20.4082  -22.5207 C   0  0  0  0  0  0  0  0  0  0  0  0
    9.5905   19.8506  -20.1878 C   0  0  0  0  0  0  0  0  0  0  0  0
   11.4749   19.2217  -21.5302 C   0  0  0  0  0  0  0  0  0  0  0  0
   12.8254   18.5676  -21.6713 C   0  0  0  0  0  0  0  0  0  0  0  0
   12.0951   13.4014  -23.1556 C   0  0  0  0  0  0  0  0  0  0  0  0
    7.7944   21.0829  -21.4599 C   0  0  0  0  0  0  0  0  0  0  0  0
    7.7221   21.4477  -22.7817 C   0  0  0  0  0  0  0  0  0  0  0  0
    9.1672   21.2079  -24.8054 C   0  0  0  0  0  0  0  0  0  0  0  0
   10.2236   22.2257  -25.0367 C   0  0  0  0  0  0  0  0  0  0  0  0
   10.0668   23.5386  -24.5743 C   0  0  0  0  0  0  0  0  0  0  0  0
   11.0203   24.5137  -24.7647 C   0  0  0  0  0  0  0  0  0  0  0  0
   12.1883   24.2107  -25.4360 C   0  0  0  0  0  0  0  0  0  0  0  0
   12.3683   22.9418  -25.8970 C   0  0  0  0  0  0  0  0  0  0  0  0
   11.4034   21.9709  -25.6998 C   0  0  0  0  0  0  0  0  0  0  0  0
   12.1869   13.7251  -21.8012 C   0  0  0  0  0  0  0  0  0  0  0  0
   15.7421   16.4197  -19.0211 N   0  0  0  0  0  0  0  0  0  0  0  0
   13.0108   17.5013  -20.7361 N   0  0  0  0  0  4  0  0  0  0  0  0
    8.8369   21.0340  -23.4115 N   0  0  0  0  0  0  0  0  0  0  0  0
   11.8425   14.3941  -19.6310 N   0  0  0  0  0  0  0  0  0  0  0  0
   15.3677   11.9564  -23.8251 O   0  0  0  0  0  0  0  0  0  0  0  0
   10.0181   14.6958  -21.2004 O   0  0  0  0  0  0  0  0  0  0  0  0
  2  1  2  0
 23  1  1  0
  3  2  1  0
  2 38  1  0
  5  3  2  0
  4 33  1  0
 37  4  1  0
  4 39  2  0
 13  5  1  0
  5 33  1  0
  6  7  1  0
 13  6  1  6
 15  6  2  0
 16  7  2  0
  7 17  1  0
  9  8  2  0
  8 18  1  0
 16  9  1  0
 19 10  2  0
 10 20  1  0
 24 10  1  0
 20 11  2  0
 21 11  1  0
 19 12  1  0
 12 21  2  0
 13 37  1  0
 14 15  1  0
 35 14  1  0
 15 34  1  0
 34 16  1  0
 17 18  2  0
 36 19  1  0
 21 22  1  0
 22 35  1  0
 33 23  2  0
 25 24  2  0
 36 25  1  0
 26 27  1  0
 26 36  1  0
 27 28  2  0
 27 32  1  0
 28 29  1  0
 29 30  2  0
 30 31  1  0
 31 32  2  0
M  CHG  1  35   1
M  END
$$$$
