
     RDKit          3D

 39 45  0  0  0  0  0  0  0  0999 V2000
   13.0652   13.0168  -24.0294 C   0  0  0  0  0  0  0  0  0  0  0  0
   14.3437   12.7971  -23.5947 C   0  0  0  0  0  0  0  0  0  0  0  0
   14.6260   12.9047  -22.2339 C   0  0  0  0  0  0  0  0  0  0  0  0
   11.4669   13.7527  -20.6443 C   0  0  0  0  0  0  0  0  0  0  0  0
   13.6458   13.2263  -21.3249 C   0  0  0  0  0  0  0  0  0  0  0  0
   14.6825   14.3678  -19.4094 C   0  0  0  0  0  0  0  0  0  0  0  0
   15.0795   14.4693  -18.0624 C   0  0  0  0  0  0  0  0  0  0  0  0
   16.2544   15.1001  -15.6151 C   0  0  0  0  0  0  0  0  0  0  0  0
   16.6528   15.7334  -16.7885 C   0  0  0  0  0  0  0  0  0  0  0  0
   10.5704   17.7911  -25.0187 C   0  0  0  0  0  0  0  0  0  0  0  0
   12.0588   17.6590  -23.1706 C   0  0  0  0  0  0  0  0  0  0  0  0
   12.7402   16.8663  -25.2867 C   0  0  0  0  0  0  0  0  0  0  0  0
   13.6612   13.4267  -19.8377 C   0  0  1  0  0  0  0  0  0  0  0  0
   15.4082   15.5376  -21.5388 C   0  0  0  0  0  0  0  0  0  0  0  0
   15.4418   15.2568  -20.1140 C   0  0  0  0  0  0  0  0  0  0  0  0
   16.0759   15.4271  -18.0055 C   0  0  0  0  0  0  0  0  0  0  0  0
   14.6945   13.8504  -16.8952 C   0  0  0  0  0  0  0  0  0  0  0  0
   15.2608   14.1454  -15.6723 C   0  0  0  0  0  0  0  0  0  0  0  0
   11.5303   17.2092  -25.8359 C   0  0  0  0  0  0  0  0  0  0  0  0
   10.8360   18.0155  -23.6858 C   0  0  0  0  0  0  0  0  0  0  0  0
   13.0278   17.0816  -23.9551 C   0  0  0  0  0  0  0  0  0  0  0  0
   14.3673   16.6924  -23.3842 C   0  0  0  0  0  0  0  0  0  0  0  0
   12.0743   13.3393  -23.1287 C   0  0  0  0  0  0  0  0  0  0  0  0
    9.4658   18.0356  -25.8037 C   0  0  0  0  0  0  0  0  0  0  0  0
    9.7686   17.6032  -27.0712 C   0  0  0  0  0  0  0  0  0  0  0  0
   11.7295   16.5447  -28.2006 C   0  0  0  0  0  0  0  0  0  0  0  0
   11.7324   15.0596  -28.2117 C   0  0  0  0  0  0  0  0  0  0  0  0
   12.8643   14.3426  -27.8033 C   0  0  0  0  0  0  0  0  0  0  0  0
   12.9109   12.9663  -27.7958 C   0  0  0  0  0  0  0  0  0  0  0  0
   11.8097   12.2394  -28.2029 C   0  0  0  0  0  0  0  0  0  0  0  0
   10.6947   12.9101  -28.6054 C   0  0  0  0  0  0  0  0  0  0  0  0
   10.6598   14.2926  -28.6086 C   0  0  0  0  0  0  0  0  0  0  0  0
   12.3579   13.4462  -21.7664 C   0  0  0  0  0  0  0  0  0  0  0  0
   16.2814   15.8899  -19.2448 N   0  0  0  0  0  0  0  0  0  0  0  0
   14.2712   16.2601  -22.0242 N   0  0  0  0  0  4  0  0  0  0  0  0
   11.0190   17.1061  -27.0771 N   0  0  0  0  0  0  0  0  0  0  0  0
   12.3150   13.6988  -19.4838 N   0  0  0  0  0  0  0  0  0  0  0  0
   15.3217   12.4731  -24.5254 O   0  0  0  0  0  0  0  0  0  0  0  0
   10.2310   14.0072  -20.6856 O   0  0  0  0  0  0  0  0  0  0  0  0
  2  1  2  0
 23  1  1  0
  3  2  1  0
  2 38  1  0
  5  3  2  0
  4 33  1  0
 37  4  1  0
  4 39  2  0
 13  5  1  0
  5 33  1  0
  6  7  1  0
 13  6  1  6
 15  6  2  0
 16  7  2  0
  7 17  1  0
  9  8  2  0
  8 18  1  0
 16  9  1  0
 19 10  2  0
 10 20  1  0
 24 10  1  0
 20 11  2  0
 21 11  1  0
 19 12  1  0
 12 21  2  0
 13 37  1  0
 14 15  1  0
 35 14  1  0
 15 34  1  0
 34 16  1  0
 17 18  2  0
 36 19  1  0
 21 22  1  0
 22 35  1  0
 33 23  2  0
 25 24  2  0
 36 25  1  0
 26 27  1  0
 26 36  1  0
 27 28  2  0
 27 32  1  0
 28 29  1  0
 29 30  2  0
 30 31  1  0
 31 32  2  0
M  CHG  1  35   1
M  END
$$$$
