
     RDKit          3D

 39 45  0  0  0  0  0  0  0  0999 V2000
   17.8703   18.2570  -21.9946 C   0  0  0  0  0  0  0  0  0  0  0  0
   17.7174   18.0910  -20.6452 C   0  0  0  0  0  0  0  0  0  0  0  0
   17.3750   16.8335  -20.1504 C   0  0  0  0  0  0  0  0  0  0  0  0
   17.1257   14.6714  -23.0640 C   0  0  0  0  0  0  0  0  0  0  0  0
   17.1893   15.7619  -20.9917 C   0  0  0  0  0  0  0  0  0  0  0  0
   15.6001   14.2009  -19.9504 C   0  0  0  0  0  0  0  0  0  0  0  0
   15.6509   13.9253  -18.5707 C   0  0  0  0  0  0  0  0  0  0  0  0
   15.1341   13.4128  -15.8804 C   0  0  0  0  0  0  0  0  0  0  0  0
   14.0979   13.6407  -16.7809 C   0  0  0  0  0  0  0  0  0  0  0  0
    7.7486   13.4709  -20.6275 C   0  0  0  0  0  0  0  0  0  0  0  0
    9.8368   14.6014  -20.5272 C   0  0  0  0  0  0  0  0  0  0  0  0
    9.2305   13.4249  -22.4814 C   0  0  0  0  0  0  0  0  0  0  0  0
   16.8066   14.3310  -20.7500 C   0  0  1  0  0  0  0  0  0  0  0  0
   13.7030   14.6022  -21.5842 C   0  0  0  0  0  0  0  0  0  0  0  0
   14.2815   14.3263  -20.2807 C   0  0  0  0  0  0  0  0  0  0  0  0
   14.3450   13.8953  -18.1158 C   0  0  0  0  0  0  0  0  0  0  0  0
   16.6665   13.6983  -17.6702 C   0  0  0  0  0  0  0  0  0  0  0  0
   16.4360   13.4425  -16.3343 C   0  0  0  0  0  0  0  0  0  0  0  0
    8.0358   13.0509  -21.9194 C   0  0  0  0  0  0  0  0  0  0  0  0
    8.6503   14.2463  -19.9323 C   0  0  0  0  0  0  0  0  0  0  0  0
   10.1480   14.2007  -21.8041 C   0  0  0  0  0  0  0  0  0  0  0  0
   11.4512   14.5931  -22.4515 C   0  0  0  0  0  0  0  0  0  0  0  0
   17.6874   17.1913  -22.8477 C   0  0  0  0  0  0  0  0  0  0  0  0
    6.5076   12.9686  -20.3057 C   0  0  0  0  0  0  0  0  0  0  0  0
    6.0653   12.2593  -21.3950 C   0  0  0  0  0  0  0  0  0  0  0  0
    6.9384   11.7074  -23.6697 C   0  0  0  0  0  0  0  0  0  0  0  0
    7.1092   12.6789  -24.7799 C   0  0  0  0  0  0  0  0  0  0  0  0
    6.1794   13.7070  -24.9813 C   0  0  0  0  0  0  0  0  0  0  0  0
    6.2988   14.6302  -25.9960 C   0  0  0  0  0  0  0  0  0  0  0  0
    7.3700   14.5618  -26.8646 C   0  0  0  0  0  0  0  0  0  0  0  0
    8.2902   13.5724  -26.6929 C   0  0  0  0  0  0  0  0  0  0  0  0
    8.1596   12.6509  -25.6700 C   0  0  0  0  0  0  0  0  0  0  0  0
   17.3452   15.9327  -22.3512 C   0  0  0  0  0  0  0  0  0  0  0  0
   13.5355   14.1377  -19.1542 N   0  0  0  0  0  0  0  0  0  0  0  0
   12.5543   13.8310  -21.9532 N   0  0  0  0  0  4  0  0  0  0  0  0
    6.9980   12.3170  -22.3631 N   0  0  0  0  0  0  0  0  0  0  0  0
   16.8267   13.7183  -22.0291 N   0  0  0  0  0  0  0  0  0  0  0  0
   17.9086   19.1830  -19.8096 O   0  0  0  0  0  0  0  0  0  0  0  0
   17.1855   14.4659  -24.3083 O   0  0  0  0  0  0  0  0  0  0  0  0
  2  1  2  0
 23  1  1  0
  3  2  1  0
  2 38  1  0
  5  3  2  0
  4 33  1  0
 37  4  1  0
  4 39  2  0
 13  5  1  0
  5 33  1  0
  6  7  1  0
 13  6  1  6
 15  6  2  0
 16  7  2  0
  7 17  1  0
  9  8  2  0
  8 18  1  0
 16  9  1  0
 19 10  2  0
 10 20  1  0
 24 10  1  0
 20 11  2  0
 21 11  1  0
 19 12  1  0
 12 21  2  0
 13 37  1  0
 14 15  1  0
 35 14  1  0
 15 34  1  0
 34 16  1  0
 17 18  2  0
 36 19  1  0
 21 22  1  0
 22 35  1  0
 33 23  2  0
 25 24  2  0
 36 25  1  0
 26 27  1  0
 26 36  1  0
 27 28  2  0
 27 32  1  0
 28 29  1  0
 29 30  2  0
 30 31  1  0
 31 32  2  0
M  CHG  1  35   1
M  END
$$$$
