
     RDKit          3D

 39 45  0  0  0  0  0  0  0  0999 V2000
   18.6813   18.6463  -21.3342 C   0  0  0  0  0  0  0  0  0  0  0  0
   18.4561   18.3937  -20.0085 C   0  0  0  0  0  0  0  0  0  0  0  0
   17.8756   17.1819  -19.6374 C   0  0  0  0  0  0  0  0  0  0  0  0
   17.3362   15.3653  -22.7414 C   0  0  0  0  0  0  0  0  0  0  0  0
   17.5272   16.2402  -20.5767 C   0  0  0  0  0  0  0  0  0  0  0  0
   15.6480   14.9118  -19.7103 C   0  0  0  0  0  0  0  0  0  0  0  0
   15.5767   14.4040  -18.3991 C   0  0  0  0  0  0  0  0  0  0  0  0
   14.8447   13.5820  -15.8386 C   0  0  0  0  0  0  0  0  0  0  0  0
   13.9272   14.1944  -16.6870 C   0  0  0  0  0  0  0  0  0  0  0  0
    7.9938   14.6299  -20.5812 C   0  0  0  0  0  0  0  0  0  0  0  0
    9.6576   16.3080  -20.3277 C   0  0  0  0  0  0  0  0  0  0  0  0
    9.8643   14.6980  -22.0412 C   0  0  0  0  0  0  0  0  0  0  0  0
   16.8840   14.8881  -20.4743 C   0  0  1  0  0  0  0  0  0  0  0  0
   13.9639   16.0153  -21.2516 C   0  0  0  0  0  0  0  0  0  0  0  0
   14.4087   15.3963  -20.0151 C   0  0  0  0  0  0  0  0  0  0  0  0
   14.2814   14.6048  -17.9574 C   0  0  0  0  0  0  0  0  0  0  0  0
   16.4744   13.7973  -17.5507 C   0  0  0  0  0  0  0  0  0  0  0  0
   16.1360   13.3817  -16.2795 C   0  0  0  0  0  0  0  0  0  0  0  0
    8.6905   14.0991  -21.6586 C   0  0  0  0  0  0  0  0  0  0  0  0
    8.4786   15.7347  -19.9165 C   0  0  0  0  0  0  0  0  0  0  0  0
   10.3684   15.8046  -21.3903 C   0  0  0  0  0  0  0  0  0  0  0  0
   11.6613   16.4376  -21.8368 C   0  0  0  0  0  0  0  0  0  0  0  0
   18.3370   17.7109  -22.2847 C   0  0  0  0  0  0  0  0  0  0  0  0
    6.8679   13.8565  -20.4074 C   0  0  0  0  0  0  0  0  0  0  0  0
    6.8979   12.8789  -21.3711 C   0  0  0  0  0  0  0  0  0  0  0  0
    8.4247   12.2259  -23.2376 C   0  0  0  0  0  0  0  0  0  0  0  0
    8.2202   10.7714  -23.0181 C   0  0  0  0  0  0  0  0  0  0  0  0
    9.1709   10.0110  -22.3254 C   0  0  0  0  0  0  0  0  0  0  0  0
    9.0219    8.6611  -22.0975 C   0  0  0  0  0  0  0  0  0  0  0  0
    7.8979    8.0062  -22.5606 C   0  0  0  0  0  0  0  0  0  0  0  0
    6.9563    8.7203  -23.2377 C   0  0  0  0  0  0  0  0  0  0  0  0
    7.1171   10.0757  -23.4605 C   0  0  0  0  0  0  0  0  0  0  0  0
   17.7564   16.4978  -21.9120 C   0  0  0  0  0  0  0  0  0  0  0  0
   13.5933   15.2012  -18.9389 N   0  0  0  0  0  0  0  0  0  0  0  0
   12.7510   15.5113  -21.8219 N   0  0  0  0  0  4  0  0  0  0  0  0
    8.0044   13.0368  -22.1204 N   0  0  0  0  0  0  0  0  0  0  0  0
   16.8354   14.3964  -21.8038 N   0  0  0  0  0  0  0  0  0  0  0  0
   18.8140   19.3549  -19.0728 O   0  0  0  0  0  0  0  0  0  0  0  0
   17.3991   15.2620  -23.9982 O   0  0  0  0  0  0  0  0  0  0  0  0
  2  1  2  0
 23  1  1  0
  3  2  1  0
  2 38  1  0
  5  3  2  0
  4 33  1  0
 37  4  1  0
  4 39  2  0
 13  5  1  0
  5 33  1  0
  6  7  1  0
 13  6  1  6
 15  6  2  0
 16  7  2  0
  7 17  1  0
  9  8  2  0
  8 18  1  0
 16  9  1  0
 19 10  2  0
 10 20  1  0
 24 10  1  0
 20 11  2  0
 21 11  1  0
 19 12  1  0
 12 21  2  0
 13 37  1  0
 14 15  1  0
 35 14  1  0
 15 34  1  0
 34 16  1  0
 17 18  2  0
 36 19  1  0
 21 22  1  0
 22 35  1  0
 33 23  2  0
 25 24  2  0
 36 25  1  0
 26 27  1  0
 26 36  1  0
 27 28  2  0
 27 32  1  0
 28 29  1  0
 29 30  2  0
 30 31  1  0
 31 32  2  0
M  CHG  1  35   1
M  END
$$$$
