
     RDKit          3D

 39 45  0  0  0  0  0  0  0  0999 V2000
   17.7549   15.1811  -23.5253 C   0  0  0  0  0  0  0  0  0  0  0  0
   16.3949   15.0350  -23.5540 C   0  0  0  0  0  0  0  0  0  0  0  0
   15.6300   15.5985  -22.5338 C   0  0  0  0  0  0  0  0  0  0  0  0
   18.0069   17.2304  -20.3174 C   0  0  0  0  0  0  0  0  0  0  0  0
   16.2164   16.2955  -21.5039 C   0  0  0  0  0  0  0  0  0  0  0  0
   14.7918   16.1117  -19.5080 C   0  0  0  0  0  0  0  0  0  0  0  0
   15.3065   15.0903  -18.6871 C   0  0  0  0  0  0  0  0  0  0  0  0
   15.7282   12.9699  -16.9282 C   0  0  0  0  0  0  0  0  0  0  0  0
   14.4447   13.4329  -17.2016 C   0  0  0  0  0  0  0  0  0  0  0  0
    9.1674   15.6616  -25.3341 C   0  0  0  0  0  0  0  0  0  0  0  0
    9.5873   17.5499  -23.9533 C   0  0  0  0  0  0  0  0  0  0  0  0
   10.5786   15.4717  -23.4347 C   0  0  0  0  0  0  0  0  0  0  0  0
   15.6601   16.9774  -20.2882 C   0  0  1  0  0  0  0  0  0  0  0  0
   12.4474   16.9383  -20.0079 C   0  0  0  0  0  0  0  0  0  0  0  0
   13.4345   16.0885  -19.3648 C   0  0  0  0  0  0  0  0  0  0  0  0
   14.2266   14.4830  -18.0720 C   0  0  0  0  0  0  0  0  0  0  0  0
   16.5705   14.6231  -18.4084 C   0  0  0  0  0  0  0  0  0  0  0  0
   16.8047   13.5755  -17.5418 C   0  0  0  0  0  0  0  0  0  0  0  0
    9.9802   14.8835  -24.5205 C   0  0  0  0  0  0  0  0  0  0  0  0
    8.9718   16.9951  -25.0492 C   0  0  0  0  0  0  0  0  0  0  0  0
   10.3968   16.8046  -23.1305 C   0  0  0  0  0  0  0  0  0  0  0  0
   11.0692   17.4187  -21.9295 C   0  0  0  0  0  0  0  0  0  0  0  0
   18.3543   15.8774  -22.4992 C   0  0  0  0  0  0  0  0  0  0  0  0
    8.6983   14.8436  -26.3375 C   0  0  0  0  0  0  0  0  0  0  0  0
    9.2275   13.5954  -26.1201 C   0  0  0  0  0  0  0  0  0  0  0  0
   10.7405   12.5410  -24.4349 C   0  0  0  0  0  0  0  0  0  0  0  0
    9.9529   11.7577  -23.4492 C   0  0  0  0  0  0  0  0  0  0  0  0
    9.0074   10.8157  -23.8742 C   0  0  0  0  0  0  0  0  0  0  0  0
    8.2564   10.0665  -22.9962 C   0  0  0  0  0  0  0  0  0  0  0  0
    8.4231   10.2314  -21.6354 C   0  0  0  0  0  0  0  0  0  0  0  0
    9.3358   11.1405  -21.1929 C   0  0  0  0  0  0  0  0  0  0  0  0
   10.0842   11.8872  -22.0844 C   0  0  0  0  0  0  0  0  0  0  0  0
   17.5875   16.4416  -21.4787 C   0  0  0  0  0  0  0  0  0  0  0  0
   13.1107   15.0937  -18.4893 N   0  0  0  0  0  0  0  0  0  0  0  0
   11.9634   16.5073  -21.2848 N   0  0  0  0  0  4  0  0  0  0  0  0
   10.0002   13.6331  -25.0192 N   0  0  0  0  0  0  0  0  0  0  0  0
   16.7809   17.5555  -19.6391 N   0  0  0  0  0  0  0  0  0  0  0  0
   15.8185   14.3285  -24.6009 O   0  0  0  0  0  0  0  0  0  0  0  0
   19.1814   17.5533  -19.9853 O   0  0  0  0  0  0  0  0  0  0  0  0
  2  1  2  0
 23  1  1  0
  3  2  1  0
  2 38  1  0
  5  3  2  0
  4 33  1  0
 37  4  1  0
  4 39  2  0
 13  5  1  0
  5 33  1  0
  6  7  1  0
 13  6  1  1
 15  6  2  0
 16  7  2  0
  7 17  1  0
  9  8  2  0
  8 18  1  0
 16  9  1  0
 19 10  2  0
 10 20  1  0
 24 10  1  0
 20 11  2  0
 21 11  1  0
 19 12  1  0
 12 21  2  0
 13 37  1  0
 14 15  1  0
 35 14  1  0
 15 34  1  0
 34 16  1  0
 17 18  2  0
 36 19  1  0
 21 22  1  0
 22 35  1  0
 33 23  2  0
 25 24  2  0
 36 25  1  0
 26 27  1  0
 26 36  1  0
 27 28  2  0
 27 32  1  0
 28 29  1  0
 29 30  2  0
 30 31  1  0
 31 32  2  0
M  CHG  1  35   1
M  END
$$$$
