
     RDKit          3D

 39 45  0  0  0  0  0  0  0  0999 V2000
   17.6937   17.2132  -23.4643 C   0  0  0  0  0  0  0  0  0  0  0  0
   17.3115   17.7117  -22.2335 C   0  0  0  0  0  0  0  0  0  0  0  0
   17.1073   16.8576  -21.1950 C   0  0  0  0  0  0  0  0  0  0  0  0
   17.7641   13.5507  -22.5282 C   0  0  0  0  0  0  0  0  0  0  0  0
   17.2786   15.4862  -21.3562 C   0  0  0  0  0  0  0  0  0  0  0  0
   15.8627   14.3279  -19.6794 C   0  0  0  0  0  0  0  0  0  0  0  0
   15.7897   14.3094  -18.2811 C   0  0  0  0  0  0  0  0  0  0  0  0
   15.0645   14.2696  -15.6237 C   0  0  0  0  0  0  0  0  0  0  0  0
   14.0851   14.2772  -16.5888 C   0  0  0  0  0  0  0  0  0  0  0  0
    8.4594   12.8034  -22.1570 C   0  0  0  0  0  0  0  0  0  0  0  0
   10.6700   11.9891  -22.2266 C   0  0  0  0  0  0  0  0  0  0  0  0
   10.2199   14.1872  -22.9669 C   0  0  0  0  0  0  0  0  0  0  0  0
   17.1457   14.3475  -20.4398 C   0  0  1  0  0  0  0  0  0  0  0  0
   14.1054   14.3660  -21.5183 C   0  0  0  0  0  0  0  0  0  0  0  0
   14.5715   14.3274  -20.1274 C   0  0  0  0  0  0  0  0  0  0  0  0
   14.4805   14.2972  -17.9245 C   0  0  0  0  0  0  0  0  0  0  0  0
   16.7862   14.3021  -17.3209 C   0  0  0  0  0  0  0  0  0  0  0  0
   16.4018   14.2822  -15.9978 C   0  0  0  0  0  0  0  0  0  0  0  0
    8.8729   14.0321  -22.6827 C   0  0  0  0  0  0  0  0  0  0  0  0
    9.3475   11.7774  -21.9256 C   0  0  0  0  0  0  0  0  0  0  0  0
   11.1217   13.1769  -22.7435 C   0  0  0  0  0  0  0  0  0  0  0  0
   12.5537   13.3306  -23.0337 C   0  0  0  0  0  0  0  0  0  0  0  0
   17.8774   15.8656  -23.6808 C   0  0  0  0  0  0  0  0  0  0  0  0
    7.0856   12.9237  -21.9674 C   0  0  0  0  0  0  0  0  0  0  0  0
    6.7287   14.1736  -22.3696 C   0  0  0  0  0  0  0  0  0  0  0  0
    7.8332   16.2016  -23.3106 C   0  0  0  0  0  0  0  0  0  0  0  0
    8.1988   17.1863  -22.2654 C   0  0  0  0  0  0  0  0  0  0  0  0
    9.4760   17.6912  -22.1759 C   0  0  0  0  0  0  0  0  0  0  0  0
    9.8078   18.6157  -21.1904 C   0  0  0  0  0  0  0  0  0  0  0  0
    8.8727   19.0494  -20.2814 C   0  0  0  0  0  0  0  0  0  0  0  0
    7.5804   18.5545  -20.3524 C   0  0  0  0  0  0  0  0  0  0  0  0
    7.2713   17.6390  -21.3363 C   0  0  0  0  0  0  0  0  0  0  0  0
   17.6581   15.0178  -22.5899 C   0  0  0  0  0  0  0  0  0  0  0  0
   13.7790   14.3083  -19.0466 N   0  0  0  0  0  0  0  0  0  0  0  0
   13.4193   13.1545  -21.9197 N   0  0  0  0  0  4  0  0  0  0  0  0
    7.8199   14.8584  -22.8094 N   0  0  0  0  0  0  0  0  0  0  0  0
   17.4266   13.1941  -21.2017 N   0  0  0  0  0  0  0  0  0  0  0  0
   17.1234   19.0870  -22.0105 O   0  0  0  0  0  0  0  0  0  0  0  0
   18.0944   12.7737  -23.4848 O   0  0  0  0  0  0  0  0  0  0  0  0
  2  1  2  0
 23  1  1  0
  3  2  1  0
  2 38  1  0
  5  3  2  0
  4 33  1  0
 37  4  1  0
  4 39  2  0
 13  5  1  0
  5 33  1  0
  6  7  1  0
 13  6  1  6
 15  6  2  0
 16  7  2  0
  7 17  1  0
  9  8  2  0
  8 18  1  0
 16  9  1  0
 19 10  2  0
 10 20  1  0
 24 10  1  0
 20 11  2  0
 21 11  1  0
 19 12  1  0
 12 21  2  0
 13 37  1  0
 14 15  1  1
 35 14  1  1
 15 34  1  0
 34 16  1  0
 17 18  2  0
 36 19  1  0
 22 21  1  1
 22 35  1  0
 33 23  2  0
 25 24  2  0
 36 25  1  0
 26 27  1  0
 26 36  1  6
 27 28  2  0
 27 32  1  0
 28 29  1  0
 29 30  2  0
 30 31  1  0
 31 32  2  0
M  CHG  1  35   1
M  END
$$$$
