
     RDKit          3D

 39 45  0  0  0  0  0  0  0  0999 V2000
   17.0180   17.6553  -23.4283 C   0  0  0  0  0  0  0  0  0  0  0  0
   17.2113   17.8100  -22.0688 C   0  0  0  0  0  0  0  0  0  0  0  0
   17.0596   16.7414  -21.2412 C   0  0  0  0  0  0  0  0  0  0  0  0
   16.1546   13.9744  -23.4020 C   0  0  0  0  0  0  0  0  0  0  0  0
   16.7118   15.4927  -21.7466 C   0  0  0  0  0  0  0  0  0  0  0  0
   15.5679   14.2219  -19.9480 C   0  0  0  0  0  0  0  0  0  0  0  0
   15.9913   14.0961  -18.6192 C   0  0  0  0  0  0  0  0  0  0  0  0
   16.2508   13.9067  -15.8831 C   0  0  0  0  0  0  0  0  0  0  0  0
   15.0017   14.0835  -16.4303 C   0  0  0  0  0  0  0  0  0  0  0  0
    7.3459   12.6149  -21.9256 C   0  0  0  0  0  0  0  0  0  0  0  0
    8.7782   14.0581  -20.7337 C   0  0  0  0  0  0  0  0  0  0  0  0
    9.4540   13.2353  -22.8428 C   0  0  0  0  0  0  0  0  0  0  0  0
   16.4931   14.1849  -21.1173 C   0  0  1  0  0  0  0  0  0  0  0  0
   13.2919   14.5724  -21.0287 C   0  0  0  0  0  0  0  0  0  0  0  0
   14.2108   14.3774  -19.9014 C   0  0  0  0  0  0  0  0  0  0  0  0
   14.9000   14.1760  -17.8166 C   0  0  0  0  0  0  0  0  0  0  0  0
   17.2545   13.9183  -18.0827 C   0  0  0  0  0  0  0  0  0  0  0  0
   17.3619   13.8260  -16.7120 C   0  0  0  0  0  0  0  0  0  0  0  0
    8.2713   12.5255  -22.9710 C   0  0  0  0  0  0  0  0  0  0  0  0
    7.5887   13.3766  -20.8050 C   0  0  0  0  0  0  0  0  0  0  0  0
    9.7155   14.0006  -21.7338 C   0  0  0  0  0  0  0  0  0  0  0  0
   10.9624   14.7638  -21.5885 C   0  0  0  0  0  0  0  0  0  0  0  0
   16.6726   16.4431  -23.9830 C   0  0  0  0  0  0  0  0  0  0  0  0
    6.2703   11.8207  -22.3126 C   0  0  0  0  0  0  0  0  0  0  0  0
    6.5702   11.2978  -23.5324 C   0  0  0  0  0  0  0  0  0  0  0  0
    8.4465   11.3836  -25.1727 C   0  0  0  0  0  0  0  0  0  0  0  0
    8.5314   12.5353  -26.1011 C   0  0  0  0  0  0  0  0  0  0  0  0
    9.7418   13.1087  -26.4182 C   0  0  0  0  0  0  0  0  0  0  0  0
    9.8094   14.1897  -27.2916 C   0  0  0  0  0  0  0  0  0  0  0  0
    8.6735   14.7139  -27.8604 C   0  0  0  0  0  0  0  0  0  0  0  0
    7.4438   14.1527  -27.5555 C   0  0  0  0  0  0  0  0  0  0  0  0
    7.3976   13.0818  -26.6878 C   0  0  0  0  0  0  0  0  0  0  0  0
   16.5252   15.3671  -23.1011 C   0  0  0  0  0  0  0  0  0  0  0  0
   13.8540   14.3434  -18.6099 N   0  0  0  0  0  0  0  0  0  0  0  0
   11.9298   14.1837  -20.7231 N   0  0  0  0  0  4  0  0  0  0  0  0
    7.7959   11.7260  -23.9418 N   0  0  0  0  0  0  0  0  0  0  0  0
   16.1345   13.3023  -22.1575 N   0  0  0  0  0  0  0  0  0  0  0  0
   17.5639   19.0466  -21.5005 O   0  0  0  0  0  0  0  0  0  0  0  0
   15.9057   13.4884  -24.5550 O   0  0  0  0  0  0  0  0  0  0  0  0
  2  1  2  0
 23  1  1  0
  3  2  1  0
  2 38  1  0
  5  3  2  0
  4 33  1  0
 37  4  1  0
  4 39  2  0
 13  5  1  0
  5 33  1  0
  6  7  1  0
 13  6  1  1
 15  6  2  0
 16  7  2  0
  7 17  1  0
  9  8  2  0
  8 18  1  0
 16  9  1  0
 19 10  2  0
 10 20  1  0
 24 10  1  0
 20 11  2  0
 21 11  1  0
 19 12  1  0
 12 21  2  0
 13 37  1  0
 14 15  1  1
 35 14  1  1
 15 34  1  0
 34 16  1  0
 17 18  2  0
 36 19  1  0
 22 21  1  1
 22 35  1  0
 33 23  2  0
 25 24  2  0
 36 25  1  0
 26 27  1  0
 26 36  1  6
 27 28  2  0
 27 32  1  0
 28 29  1  0
 29 30  2  0
 30 31  1  0
 31 32  2  0
M  CHG  1  35   1
M  END
$$$$
