
     RDKit          3D

 39 45  0  0  0  0  0  0  0  0999 V2000
   11.0377   19.2412  -21.0907 C   0  0  0  0  0  0  0  0  0  0  0  0
   11.6962   18.2113  -21.7052 C   0  0  0  0  0  0  0  0  0  0  0  0
   10.9560   17.2114  -22.3342 C   0  0  0  0  0  0  0  0  0  0  0  0
    7.4701   18.1405  -21.8749 C   0  0  0  0  0  0  0  0  0  0  0  0
    9.5815   17.2425  -22.3477 C   0  0  0  0  0  0  0  0  0  0  0  0
    8.7364   14.9380  -22.4947 C   0  0  0  0  0  0  0  0  0  0  0  0
    7.6490   14.0634  -22.3077 C   0  0  0  0  0  0  0  0  0  0  0  0
    5.9397   11.9222  -21.7968 C   0  0  0  0  0  0  0  0  0  0  0  0
    7.3200   11.7822  -21.6879 C   0  0  0  0  0  0  0  0  0  0  0  0
   15.4603   14.4554  -17.4630 C   0  0  0  0  0  0  0  0  0  0  0  0
   13.6877   15.5614  -18.5956 C   0  0  0  0  0  0  0  0  0  0  0  0
   15.0984   14.0856  -19.7798 C   0  0  0  0  0  0  0  0  0  0  0  0
    8.5468   16.3159  -22.9160 C   0  0  1  0  0  0  0  0  0  0  0  0
   11.2491   14.6740  -22.2808 C   0  0  0  0  0  0  0  0  0  0  0  0
    9.8694   14.2220  -22.2357 C   0  0  0  0  0  0  0  0  0  0  0  0
    8.1743   12.8380  -21.9391 C   0  0  0  0  0  0  0  0  0  0  0  0
    6.2826   14.1889  -22.4117 C   0  0  0  0  0  0  0  0  0  0  0  0
    5.4163   13.1442  -22.1640 C   0  0  0  0  0  0  0  0  0  0  0  0
   15.8244   13.8243  -18.6450 C   0  0  0  0  0  0  0  0  0  0  0  0
   14.3915   15.3239  -17.4397 C   0  0  0  0  0  0  0  0  0  0  0  0
   14.0248   14.9515  -19.7797 C   0  0  0  0  0  0  0  0  0  0  0  0
   13.2492   15.2161  -21.0446 C   0  0  0  0  0  0  0  0  0  0  0  0
    9.6611   19.2839  -21.0977 C   0  0  0  0  0  0  0  0  0  0  0  0
   16.3349   14.0263  -16.4899 C   0  0  0  0  0  0  0  0  0  0  0  0
   17.2068   13.1511  -17.0892 C   0  0  0  0  0  0  0  0  0  0  0  0
   17.5475   12.2252  -19.3844 C   0  0  0  0  0  0  0  0  0  0  0  0
   18.0940   13.0118  -20.5193 C   0  0  0  0  0  0  0  0  0  0  0  0
   19.0711   13.9926  -20.3061 C   0  0  0  0  0  0  0  0  0  0  0  0
   19.6068   14.7441  -21.3281 C   0  0  0  0  0  0  0  0  0  0  0  0
   19.1804   14.5421  -22.6258 C   0  0  0  0  0  0  0  0  0  0  0  0
   18.2311   13.5947  -22.8632 C   0  0  0  0  0  0  0  0  0  0  0  0
   17.7004   12.8462  -21.8285 C   0  0  0  0  0  0  0  0  0  0  0  0
    8.9210   18.2827  -21.7282 C   0  0  0  0  0  0  0  0  0  0  0  0
    9.5079   12.9500  -21.9005 N   0  0  0  0  0  0  0  0  0  0  0  0
   12.0311   14.4684  -21.0991 N   0  0  0  0  0  4  0  0  0  0  0  0
   16.8874   13.0380  -18.3914 N   0  0  0  0  0  0  0  0  0  0  0  0
    7.3002   16.9319  -22.6361 N   0  0  0  0  0  0  0  0  0  0  0  0
   13.0843   18.1949  -21.6825 O   0  0  0  0  0  0  0  0  0  0  0  0
    6.5694   18.9068  -21.4326 O   0  0  0  0  0  0  0  0  0  0  0  0
  2  1  2  0
 23  1  1  0
  3  2  1  0
  2 38  1  0
  5  3  2  0
  4 33  1  0
 37  4  1  0
  4 39  2  0
 13  5  1  0
  5 33  1  0
  6  7  1  0
 13  6  1  1
 15  6  2  0
 16  7  2  0
  7 17  1  0
  9  8  2  0
  8 18  1  0
 16  9  1  0
 19 10  2  0
 10 20  1  0
 24 10  1  0
 20 11  2  0
 21 11  1  0
 19 12  1  0
 12 21  2  0
 13 37  1  0
 14 15  1  0
 35 14  1  0
 15 34  1  0
 34 16  1  0
 17 18  2  0
 36 19  1  0
 21 22  1  0
 22 35  1  0
 33 23  2  0
 25 24  2  0
 36 25  1  0
 26 27  1  0
 26 36  1  0
 27 28  2  0
 27 32  1  0
 28 29  1  0
 29 30  2  0
 30 31  1  0
 31 32  2  0
M  CHG  1  35   1
M  END
$$$$
