
     RDKit          3D

 39 45  0  0  0  0  0  0  0  0999 V2000
   13.1351   12.7050  -23.5520 C   0  0  0  0  0  0  0  0  0  0  0  0
   13.9415   12.1155  -22.5972 C   0  0  0  0  0  0  0  0  0  0  0  0
   14.1205   12.7276  -21.3959 C   0  0  0  0  0  0  0  0  0  0  0  0
   12.1712   15.7794  -21.5736 C   0  0  0  0  0  0  0  0  0  0  0  0
   13.5010   13.9416  -21.1157 C   0  0  0  0  0  0  0  0  0  0  0  0
   14.8566   15.1247  -19.4065 C   0  0  0  0  0  0  0  0  0  0  0  0
   15.3667   14.5950  -18.2149 C   0  0  0  0  0  0  0  0  0  0  0  0
   16.8467   13.8715  -16.0068 C   0  0  0  0  0  0  0  0  0  0  0  0
   17.3919   14.7321  -16.9303 C   0  0  0  0  0  0  0  0  0  0  0  0
   19.6870   21.4354  -22.3319 C   0  0  0  0  0  0  0  0  0  0  0  0
   17.9841   20.0798  -21.4279 C   0  0  0  0  0  0  0  0  0  0  0  0
   18.8376   19.5914  -23.5762 C   0  0  0  0  0  0  0  0  0  0  0  0
   13.4969   14.8127  -19.9344 C   0  0  1  0  0  0  0  0  0  0  0  0
   15.8090   16.6942  -21.1674 C   0  0  0  0  0  0  0  0  0  0  0  0
   15.8388   15.9262  -19.9174 C   0  0  0  0  0  0  0  0  0  0  0  0
   16.6211   15.0810  -18.0371 C   0  0  0  0  0  0  0  0  0  0  0  0
   14.8050   13.7281  -17.2940 C   0  0  0  0  0  0  0  0  0  0  0  0
   15.5623   13.3791  -16.1969 C   0  0  0  0  0  0  0  0  0  0  0  0
   19.7128   20.6623  -23.4976 C   0  0  0  0  0  0  0  0  0  0  0  0
   18.8286   21.1536  -21.2933 C   0  0  0  0  0  0  0  0  0  0  0  0
   17.9738   19.2934  -22.5520 C   0  0  0  0  0  0  0  0  0  0  0  0
   17.0458   18.1565  -22.6195 C   0  0  0  0  0  0  0  0  0  0  0  0
   12.4980   13.9054  -23.3290 C   0  0  0  0  0  0  0  0  0  0  0  0
   20.6511   22.4219  -22.5188 C   0  0  0  0  0  0  0  0  0  0  0  0
   21.2061   22.2196  -23.7445 C   0  0  0  0  0  0  0  0  0  0  0  0
   20.9609   20.6271  -25.6478 C   0  0  0  0  0  0  0  0  0  0  0  0
   22.1452   19.7372  -25.6166 C   0  0  0  0  0  0  0  0  0  0  0  0
   23.4142   20.2306  -25.8177 C   0  0  0  0  0  0  0  0  0  0  0  0
   24.5191   19.3855  -25.7858 C   0  0  0  0  0  0  0  0  0  0  0  0
   24.3751   18.0386  -25.5536 C   0  0  0  0  0  0  0  0  0  0  0  0
   23.1068   17.5196  -25.3486 C   0  0  0  0  0  0  0  0  0  0  0  0
   22.0245   18.3735  -25.3839 C   0  0  0  0  0  0  0  0  0  0  0  0
   12.7057   14.5055  -22.0825 C   0  0  0  0  0  0  0  0  0  0  0  0
   16.8741   15.8715  -19.0679 N   0  0  0  0  0  0  0  0  0  0  0  0
   17.0944   17.2688  -21.5100 N   0  0  0  0  0  4  0  0  0  0  0  0
   20.6352   21.1422  -24.3500 N   0  0  0  0  0  0  0  0  0  0  0  0
   12.6967   15.9252  -20.2684 N   0  0  0  0  0  0  0  0  0  0  0  0
   14.5928   10.8902  -22.8229 O   0  0  0  0  0  0  0  0  0  0  0  0
   11.3939   16.5776  -22.1952 O   0  0  0  0  0  0  0  0  0  0  0  0
  2  1  2  0
 23  1  1  0
  3  2  1  0
  2 38  1  0
  5  3  2  0
  4 33  1  0
 37  4  1  0
  4 39  2  0
 13  5  1  0
  5 33  1  0
  6  7  1  0
 13  6  1  6
 15  6  2  0
 16  7  2  0
  7 17  1  0
  9  8  2  0
  8 18  1  0
 16  9  1  0
 19 10  2  0
 10 20  1  0
 24 10  1  0
 20 11  2  0
 21 11  1  0
 19 12  1  0
 12 21  2  0
 13 37  1  0
 14 15  1  1
 35 14  1  1
 15 34  1  0
 34 16  1  0
 17 18  2  0
 36 19  1  0
 22 21  1  1
 22 35  1  0
 33 23  2  0
 25 24  2  0
 36 25  1  0
 26 27  1  0
 26 36  1  6
 27 28  2  0
 27 32  1  0
 28 29  1  0
 29 30  2  0
 30 31  1  0
 31 32  2  0
M  CHG  1  35   1
M  END
$$$$
