
     RDKit          3D

 39 45  0  0  0  0  0  0  0  0999 V2000
   18.0571   17.7357  -22.5887 C   0  0  0  0  0  0  0  0  0  0  0  0
   18.3117   17.4528  -21.2603 C   0  0  0  0  0  0  0  0  0  0  0  0
   17.7127   16.3821  -20.6731 C   0  0  0  0  0  0  0  0  0  0  0  0
   15.6612   14.8897  -23.2631 C   0  0  0  0  0  0  0  0  0  0  0  0
   16.8457   15.5669  -21.3939 C   0  0  0  0  0  0  0  0  0  0  0  0
   15.2762   14.5019  -19.7937 C   0  0  0  0  0  0  0  0  0  0  0  0
   15.7923   14.2793  -18.5111 C   0  0  0  0  0  0  0  0  0  0  0  0
   16.2618   13.9779  -15.8133 C   0  0  0  0  0  0  0  0  0  0  0  0
   15.0084   14.3474  -16.2414 C   0  0  0  0  0  0  0  0  0  0  0  0
    7.4822   12.0976  -21.5472 C   0  0  0  0  0  0  0  0  0  0  0  0
    9.3181   12.9673  -20.3523 C   0  0  0  0  0  0  0  0  0  0  0  0
    8.7381   13.9143  -22.4376 C   0  0  0  0  0  0  0  0  0  0  0  0
   16.0794   14.3653  -21.0430 C   0  0  1  0  0  0  0  0  0  0  0  0
   12.9890   15.2055  -20.6566 C   0  0  0  0  0  0  0  0  0  0  0  0
   13.9656   14.8491  -19.6210 C   0  0  0  0  0  0  0  0  0  0  0  0
   14.7993   14.4924  -17.6112 C   0  0  0  0  0  0  0  0  0  0  0  0
   17.0585   13.9072  -18.0950 C   0  0  0  0  0  0  0  0  0  0  0  0
   17.2719   13.7620  -16.7414 C   0  0  0  0  0  0  0  0  0  0  0  0
    7.6855   13.0243  -22.5754 C   0  0  0  0  0  0  0  0  0  0  0  0
    8.2908   12.0605  -20.4337 C   0  0  0  0  0  0  0  0  0  0  0  0
    9.5559   13.8940  -21.3355 C   0  0  0  0  0  0  0  0  0  0  0  0
   10.6709   14.8368  -21.1735 C   0  0  0  0  0  0  0  0  0  0  0  0
   17.2079   16.9634  -23.3495 C   0  0  0  0  0  0  0  0  0  0  0  0
    6.3785   11.3449  -21.9381 C   0  0  0  0  0  0  0  0  0  0  0  0
    5.9674   11.8237  -23.1435 C   0  0  0  0  0  0  0  0  0  0  0  0
    6.6391   13.6043  -24.7550 C   0  0  0  0  0  0  0  0  0  0  0  0
    6.1148   14.9698  -24.5185 C   0  0  0  0  0  0  0  0  0  0  0  0
    5.1082   15.2002  -23.6085 C   0  0  0  0  0  0  0  0  0  0  0  0
    4.6240   16.4869  -23.3943 C   0  0  0  0  0  0  0  0  0  0  0  0
    5.1352   17.5607  -24.0832 C   0  0  0  0  0  0  0  0  0  0  0  0
    6.1491   17.3524  -25.0044 C   0  0  0  0  0  0  0  0  0  0  0  0
    6.6155   16.0699  -25.2024 C   0  0  0  0  0  0  0  0  0  0  0  0
   16.6101   15.8711  -22.7119 C   0  0  0  0  0  0  0  0  0  0  0  0
   13.7229   14.8304  -18.3030 N   0  0  0  0  0  0  0  0  0  0  0  0
   11.9004   14.2547  -20.7600 N   0  0  0  0  0  4  0  0  0  0  0  0
    6.7646   12.8535  -23.5401 N   0  0  0  0  0  0  0  0  0  0  0  0
   15.3589   14.0057  -22.2011 N   0  0  0  0  0  0  0  0  0  0  0  0
   19.1782   18.2399  -20.4818 O   0  0  0  0  0  0  0  0  0  0  0  0
   15.2127   14.8568  -24.4570 O   0  0  0  0  0  0  0  0  0  0  0  0
  2  1  2  0
 23  1  1  0
  3  2  1  0
  2 38  1  0
  5  3  2  0
  4 33  1  0
 37  4  1  0
  4 39  2  0
 13  5  1  0
  5 33  1  0
  6  7  1  0
 13  6  1  1
 15  6  2  0
 16  7  2  0
  7 17  1  0
  9  8  2  0
  8 18  1  0
 16  9  1  0
 19 10  2  0
 10 20  1  0
 24 10  1  0
 20 11  2  0
 21 11  1  0
 19 12  1  0
 12 21  2  0
 13 37  1  0
 14 15  1  1
 35 14  1  1
 15 34  1  0
 34 16  1  0
 17 18  2  0
 36 19  1  0
 22 21  1  1
 22 35  1  0
 33 23  2  0
 25 24  2  0
 36 25  1  0
 26 27  1  0
 26 36  1  6
 27 28  2  0
 27 32  1  0
 28 29  1  0
 29 30  2  0
 30 31  1  0
 31 32  2  0
M  CHG  1  35   1
M  END
$$$$
