
     RDKit          3D

 39 45  0  0  0  0  0  0  0  0999 V2000
   17.1005   19.6667  -20.8235 C   0  0  0  0  0  0  0  0  0  0  0  0
   17.0172   19.0554  -19.5871 C   0  0  0  0  0  0  0  0  0  0  0  0
   16.9611   17.6987  -19.5091 C   0  0  0  0  0  0  0  0  0  0  0  0
   17.0687   16.5346  -22.9410 C   0  0  0  0  0  0  0  0  0  0  0  0
   16.9866   16.9174  -20.6601 C   0  0  0  0  0  0  0  0  0  0  0  0
   15.8536   14.7669  -20.1600 C   0  0  0  0  0  0  0  0  0  0  0  0
   16.0482   14.0170  -18.9935 C   0  0  0  0  0  0  0  0  0  0  0  0
   15.8497   12.4537  -16.7339 C   0  0  0  0  0  0  0  0  0  0  0  0
   14.7169   12.7311  -17.4623 C   0  0  0  0  0  0  0  0  0  0  0  0
    8.1964   16.7457  -20.9521 C   0  0  0  0  0  0  0  0  0  0  0  0
   10.2480   17.9058  -20.9556 C   0  0  0  0  0  0  0  0  0  0  0  0
   10.0762   15.8501  -22.1074 C   0  0  0  0  0  0  0  0  0  0  0  0
   16.9527   15.4674  -20.8852 C   0  0  1  0  0  0  0  0  0  0  0  0
   13.7973   15.3401  -21.5434 C   0  0  0  0  0  0  0  0  0  0  0  0
   14.5166   14.7008  -20.4356 C   0  0  0  0  0  0  0  0  0  0  0  0
   14.8467   13.5240  -18.6004 C   0  0  0  0  0  0  0  0  0  0  0  0
   17.1967   13.7462  -18.2704 C   0  0  0  0  0  0  0  0  0  0  0  0
   17.0752   12.9624  -17.1436 C   0  0  0  0  0  0  0  0  0  0  0  0
    8.7473   15.7263  -21.7360 C   0  0  0  0  0  0  0  0  0  0  0  0
    8.9361   17.8374  -20.5572 C   0  0  0  0  0  0  0  0  0  0  0  0
   10.8311   16.9306  -21.7242 C   0  0  0  0  0  0  0  0  0  0  0  0
   12.2390   17.0777  -22.1172 C   0  0  0  0  0  0  0  0  0  0  0  0
   17.1288   18.9432  -21.9949 C   0  0  0  0  0  0  0  0  0  0  0  0
    6.8735   16.3723  -20.7329 C   0  0  0  0  0  0  0  0  0  0  0  0
    6.6768   15.1849  -21.3676 C   0  0  0  0  0  0  0  0  0  0  0  0
    7.9975   13.5831  -22.7490 C   0  0  0  0  0  0  0  0  0  0  0  0
    8.1139   13.8552  -24.2009 C   0  0  0  0  0  0  0  0  0  0  0  0
    9.2083   13.4328  -24.9207 C   0  0  0  0  0  0  0  0  0  0  0  0
    9.3067   13.6937  -26.2839 C   0  0  0  0  0  0  0  0  0  0  0  0
    8.3173   14.3785  -26.9480 C   0  0  0  0  0  0  0  0  0  0  0  0
    7.2063   14.8135  -26.2434 C   0  0  0  0  0  0  0  0  0  0  0  0
    7.1273   14.5450  -24.8931 C   0  0  0  0  0  0  0  0  0  0  0  0
   17.0691   17.5506  -21.8756 C   0  0  0  0  0  0  0  0  0  0  0  0
   13.9535   13.9486  -19.4799 N   0  0  0  0  0  0  0  0  0  0  0  0
   13.1850   16.5991  -21.1697 N   0  0  0  0  0  4  0  0  0  0  0  0
    7.8219   14.7832  -21.9846 N   0  0  0  0  0  0  0  0  0  0  0  0
   16.9805   15.2852  -22.2836 N   0  0  0  0  0  0  0  0  0  0  0  0
   16.9881   19.7921  -18.3901 O   0  0  0  0  0  0  0  0  0  0  0  0
   17.1350   16.7525  -24.1963 O   0  0  0  0  0  0  0  0  0  0  0  0
  2  1  2  0
 23  1  1  0
  3  2  1  0
  2 38  1  0
  5  3  2  0
  4 33  1  0
 37  4  1  0
  4 39  2  0
 13  5  1  0
  5 33  1  0
  6  7  1  0
 13  6  1  6
 15  6  2  0
 16  7  2  0
  7 17  1  0
  9  8  2  0
  8 18  1  0
 16  9  1  0
 19 10  2  0
 10 20  1  0
 24 10  1  0
 20 11  2  0
 21 11  1  0
 19 12  1  0
 12 21  2  0
 13 37  1  0
 14 15  1  1
 35 14  1  1
 15 34  1  0
 34 16  1  0
 17 18  2  0
 36 19  1  0
 22 21  1  1
 22 35  1  0
 33 23  2  0
 25 24  2  0
 36 25  1  0
 26 27  1  0
 26 36  1  6
 27 28  2  0
 27 32  1  0
 28 29  1  0
 29 30  2  0
 30 31  1  0
 31 32  2  0
M  CHG  1  35   1
M  END
$$$$
