
     RDKit          3D

 39 45  0  0  0  0  0  0  0  0999 V2000
   16.6198   18.7535  -20.9758 C   0  0  0  0  0  0  0  0  0  0  0  0
   16.9189   17.9638  -19.8821 C   0  0  0  0  0  0  0  0  0  0  0  0
   16.6519   16.6307  -19.9209 C   0  0  0  0  0  0  0  0  0  0  0  0
   15.1892   16.0392  -23.1851 C   0  0  0  0  0  0  0  0  0  0  0  0
   16.0806   16.0512  -21.0494 C   0  0  0  0  0  0  0  0  0  0  0  0
   14.8639   14.0087  -20.3378 C   0  0  0  0  0  0  0  0  0  0  0  0
   15.3000   13.7766  -19.0275 C   0  0  0  0  0  0  0  0  0  0  0  0
   15.6236   13.0813  -16.3815 C   0  0  0  0  0  0  0  0  0  0  0  0
   14.4348   12.7977  -17.0116 C   0  0  0  0  0  0  0  0  0  0  0  0
    7.0028   16.2167  -21.9259 C   0  0  0  0  0  0  0  0  0  0  0  0
    9.3482   16.4078  -21.7950 C   0  0  0  0  0  0  0  0  0  0  0  0
    8.3944   14.4796  -22.7719 C   0  0  0  0  0  0  0  0  0  0  0  0
   15.6975   14.6736  -21.3807 C   0  0  1  0  0  0  0  0  0  0  0  0
   12.6843   13.5361  -21.5612 C   0  0  0  0  0  0  0  0  0  0  0  0
   13.5906   13.5168  -20.4074 C   0  0  0  0  0  0  0  0  0  0  0  0
   14.2988   13.1605  -18.3498 C   0  0  0  0  0  0  0  0  0  0  0  0
   16.5018   14.0684  -18.4065 C   0  0  0  0  0  0  0  0  0  0  0  0
   16.6428   13.7121  -17.0828 C   0  0  0  0  0  0  0  0  0  0  0  0
    7.1179   14.9686  -22.5472 C   0  0  0  0  0  0  0  0  0  0  0  0
    8.1088   16.9431  -21.5466 C   0  0  0  0  0  0  0  0  0  0  0  0
    9.5102   15.1880  -22.4014 C   0  0  0  0  0  0  0  0  0  0  0  0
   10.8694   14.6842  -22.6404 C   0  0  0  0  0  0  0  0  0  0  0  0
   16.0536   18.2335  -22.1184 C   0  0  0  0  0  0  0  0  0  0  0  0
    5.6354   16.4589  -21.8290 C   0  0  0  0  0  0  0  0  0  0  0  0
    4.9946   15.3896  -22.3743 C   0  0  0  0  0  0  0  0  0  0  0  0
    5.5961   13.2198  -23.4459 C   0  0  0  0  0  0  0  0  0  0  0  0
    5.3972   12.1309  -22.4609 C   0  0  0  0  0  0  0  0  0  0  0  0
    6.3009   11.0992  -22.3452 C   0  0  0  0  0  0  0  0  0  0  0  0
    6.1040   10.0822  -21.4162 C   0  0  0  0  0  0  0  0  0  0  0  0
    5.0052   10.0789  -20.5907 C   0  0  0  0  0  0  0  0  0  0  0  0
    4.0821   11.1075  -20.6896 C   0  0  0  0  0  0  0  0  0  0  0  0
    4.2950   12.1062  -21.6165 C   0  0  0  0  0  0  0  0  0  0  0  0
   15.7930   16.8591  -22.1217 C   0  0  0  0  0  0  0  0  0  0  0  0
   13.2935   13.0192  -19.1989 N   0  0  0  0  0  0  0  0  0  0  0  0
   11.6914   14.5886  -21.4842 N   0  0  0  0  0  4  0  0  0  0  0  0
    5.8978   14.4721  -22.8165 N   0  0  0  0  0  0  0  0  0  0  0  0
   15.1403   14.7205  -22.6756 N   0  0  0  0  0  0  0  0  0  0  0  0
   17.4969   18.4926  -18.7147 O   0  0  0  0  0  0  0  0  0  0  0  0
   14.7957   16.4492  -24.3273 O   0  0  0  0  0  0  0  0  0  0  0  0
  2  1  2  0
 23  1  1  0
  3  2  1  0
  2 38  1  0
  5  3  2  0
  4 33  1  0
 37  4  1  0
  4 39  2  0
 13  5  1  0
  5 33  1  0
  6  7  1  0
 13  6  1  1
 15  6  2  0
 16  7  2  0
  7 17  1  0
  9  8  2  0
  8 18  1  0
 16  9  1  0
 19 10  2  0
 10 20  1  0
 24 10  1  0
 20 11  2  0
 21 11  1  0
 19 12  1  0
 12 21  2  0
 13 37  1  0
 14 15  1  1
 35 14  1  1
 15 34  1  0
 34 16  1  0
 17 18  2  0
 36 19  1  0
 22 21  1  1
 22 35  1  0
 33 23  2  0
 25 24  2  0
 36 25  1  0
 26 27  1  0
 26 36  1  6
 27 28  2  0
 27 32  1  0
 28 29  1  0
 29 30  2  0
 30 31  1  0
 31 32  2  0
M  CHG  1  35   1
M  END
$$$$
