
     RDKit          3D

 39 45  0  0  0  0  0  0  0  0999 V2000
   15.3601   10.6612  -21.9314 C   0  0  0  0  0  0  0  0  0  0  0  0
   16.0979   11.0207  -20.8367 C   0  0  0  0  0  0  0  0  0  0  0  0
   15.6371   12.0481  -20.0150 C   0  0  0  0  0  0  0  0  0  0  0  0
   12.4940   13.1389  -21.4836 C   0  0  0  0  0  0  0  0  0  0  0  0
   14.4588   12.7034  -20.2846 C   0  0  0  0  0  0  0  0  0  0  0  0
   14.5970   14.9881  -19.3858 C   0  0  0  0  0  0  0  0  0  0  0  0
   15.3537   15.1384  -18.2080 C   0  0  0  0  0  0  0  0  0  0  0  0
   17.0431   15.9587  -16.1488 C   0  0  0  0  0  0  0  0  0  0  0  0
   16.9025   16.7156  -17.3081 C   0  0  0  0  0  0  0  0  0  0  0  0
    8.7297   15.7061  -20.1934 C   0  0  0  0  0  0  0  0  0  0  0  0
   10.2741   17.4033  -20.8123 C   0  0  0  0  0  0  0  0  0  0  0  0
   10.5083   15.2250  -21.6901 C   0  0  0  0  0  0  0  0  0  0  0  0
   13.7423   13.8332  -19.6044 C   0  0  1  0  0  0  0  0  0  0  0  0
   14.3395   16.3821  -21.4880 C   0  0  0  0  0  0  0  0  0  0  0  0
   14.8739   16.0672  -20.1746 C   0  0  0  0  0  0  0  0  0  0  0  0
   16.0674   16.3166  -18.3334 C   0  0  0  0  0  0  0  0  0  0  0  0
   15.5015   14.3991  -17.0568 C   0  0  0  0  0  0  0  0  0  0  0  0
   16.3312   14.7842  -16.0240 C   0  0  0  0  0  0  0  0  0  0  0  0
    9.4051   14.7962  -20.9958 C   0  0  0  0  0  0  0  0  0  0  0  0
    9.1654   17.0097  -20.1025 C   0  0  0  0  0  0  0  0  0  0  0  0
   10.9623   16.5252  -21.6141 C   0  0  0  0  0  0  0  0  0  0  0  0
   12.1780   16.9626  -22.3902 C   0  0  0  0  0  0  0  0  0  0  0  0
   14.1779   11.3097  -22.2119 C   0  0  0  0  0  0  0  0  0  0  0  0
    7.6761   15.0325  -19.6170 C   0  0  0  0  0  0  0  0  0  0  0  0
    7.7274   13.7385  -20.0732 C   0  0  0  0  0  0  0  0  0  0  0  0
    9.1958   12.4169  -21.6023 C   0  0  0  0  0  0  0  0  0  0  0  0
    8.8441   12.4252  -23.0452 C   0  0  0  0  0  0  0  0  0  0  0  0
    9.1910   13.5100  -23.8606 C   0  0  0  0  0  0  0  0  0  0  0  0
    8.8868   13.5594  -25.2028 C   0  0  0  0  0  0  0  0  0  0  0  0
    8.2126   12.5091  -25.7936 C   0  0  0  0  0  0  0  0  0  0  0  0
    7.8625   11.4406  -25.0250 C   0  0  0  0  0  0  0  0  0  0  0  0
    8.1735   11.4023  -23.6779 C   0  0  0  0  0  0  0  0  0  0  0  0
   13.7171   12.3378  -21.3883 C   0  0  0  0  0  0  0  0  0  0  0  0
   15.7683   16.8618  -19.5190 N   0  0  0  0  0  0  0  0  0  0  0  0
   13.2644   17.3269  -21.5342 N   0  0  0  0  0  4  0  0  0  0  0  0
    8.7767   13.6090  -20.9054 N   0  0  0  0  0  0  0  0  0  0  0  0
   12.5489   14.0196  -20.3477 N   0  0  0  0  0  0  0  0  0  0  0  0
   17.2852   10.3490  -20.5786 O   0  0  0  0  0  0  0  0  0  0  0  0
   11.5926   13.0720  -22.3652 O   0  0  0  0  0  0  0  0  0  0  0  0
  2  1  2  0
 23  1  1  0
  3  2  1  0
  2 38  1  0
  5  3  2  0
  4 33  1  0
 37  4  1  0
  4 39  2  0
 13  5  1  0
  5 33  1  0
  6  7  1  0
 13  6  1  6
 15  6  2  0
 16  7  2  0
  7 17  1  0
  9  8  2  0
  8 18  1  0
 16  9  1  0
 19 10  2  0
 10 20  1  0
 24 10  1  0
 20 11  2  0
 21 11  1  0
 19 12  1  0
 12 21  2  0
 13 37  1  0
 14 15  1  0
 35 14  1  0
 15 34  1  0
 34 16  1  0
 17 18  2  0
 36 19  1  0
 21 22  1  0
 22 35  1  0
 33 23  2  0
 25 24  2  0
 36 25  1  0
 26 27  1  0
 26 36  1  0
 27 28  2  0
 27 32  1  0
 28 29  1  0
 29 30  2  0
 30 31  1  0
 31 32  2  0
M  CHG  1  35   1
M  END
$$$$
