
     RDKit          3D

 39 45  0  0  0  0  0  0  0  0999 V2000
   11.9623   14.9416  -23.9364 C   0  0  0  0  0  0  0  0  0  0  0  0
   12.6285   13.8010  -23.5798 C   0  0  0  0  0  0  0  0  0  0  0  0
   13.0795   13.6601  -22.2683 C   0  0  0  0  0  0  0  0  0  0  0  0
   12.0550   16.6975  -20.5507 C   0  0  0  0  0  0  0  0  0  0  0  0
   12.8671   14.6434  -21.3311 C   0  0  0  0  0  0  0  0  0  0  0  0
   14.6638   14.5445  -19.6551 C   0  0  0  0  0  0  0  0  0  0  0  0
   15.1491   14.0784  -18.4184 C   0  0  0  0  0  0  0  0  0  0  0  0
   16.6599   13.1821  -16.2547 C   0  0  0  0  0  0  0  0  0  0  0  0
   17.2610   13.5004  -17.4687 C   0  0  0  0  0  0  0  0  0  0  0  0
   19.2473   20.4433  -22.0819 C   0  0  0  0  0  0  0  0  0  0  0  0
   17.7262   18.8972  -21.1103 C   0  0  0  0  0  0  0  0  0  0  0  0
   17.8968   19.0593  -23.4587 C   0  0  0  0  0  0  0  0  0  0  0  0
   13.2469   14.7719  -19.8849 C   0  0  1  0  0  0  0  0  0  0  0  0
   15.7721   15.1334  -21.8583 C   0  0  0  0  0  0  0  0  0  0  0  0
   15.7436   14.6771  -20.4796 C   0  0  0  0  0  0  0  0  0  0  0  0
   16.5200   13.9454  -18.5460 C   0  0  0  0  0  0  0  0  0  0  0  0
   14.5668   13.7605  -17.2128 C   0  0  0  0  0  0  0  0  0  0  0  0
   15.2931   13.3151  -16.1277 C   0  0  0  0  0  0  0  0  0  0  0  0
   18.8542   20.0362  -23.3499 C   0  0  0  0  0  0  0  0  0  0  0  0
   18.6823   19.8728  -20.9627 C   0  0  0  0  0  0  0  0  0  0  0  0
   17.3176   18.4743  -22.3521 C   0  0  0  0  0  0  0  0  0  0  0  0
   16.2682   17.4038  -22.5078 C   0  0  0  0  0  0  0  0  0  0  0  0
   11.7430   15.9338  -23.0066 C   0  0  0  0  0  0  0  0  0  0  0  0
   20.2056   21.4178  -22.2494 C   0  0  0  0  0  0  0  0  0  0  0  0
   20.3778   21.5855  -23.6012 C   0  0  0  0  0  0  0  0  0  0  0  0
   19.4141   20.5969  -25.6833 C   0  0  0  0  0  0  0  0  0  0  0  0
   18.5007   21.5982  -26.2906 C   0  0  0  0  0  0  0  0  0  0  0  0
   17.4955   22.2061  -25.5277 C   0  0  0  0  0  0  0  0  0  0  0  0
   16.6279   23.1401  -26.0484 C   0  0  0  0  0  0  0  0  0  0  0  0
   16.7320   23.5102  -27.3747 C   0  0  0  0  0  0  0  0  0  0  0  0
   17.7004   22.9356  -28.1408 C   0  0  0  0  0  0  0  0  0  0  0  0
   18.5660   21.9986  -27.6066 C   0  0  0  0  0  0  0  0  0  0  0  0
   12.1945   15.7914  -21.6938 C   0  0  0  0  0  0  0  0  0  0  0  0
   16.8608   14.3087  -19.7887 N   0  0  0  0  0  0  0  0  0  0  0  0
   16.7716   16.1025  -22.1935 N   0  0  0  0  0  4  0  0  0  0  0  0
   19.5553   20.7448  -24.2549 N   0  0  0  0  0  0  0  0  0  0  0  0
   12.6941   16.0078  -19.4623 N   0  0  0  0  0  0  0  0  0  0  0  0
   12.8345   12.8178  -24.5381 O   0  0  0  0  0  0  0  0  0  0  0  0
   11.4986   17.8306  -20.5257 O   0  0  0  0  0  0  0  0  0  0  0  0
  2  1  2  0
 23  1  1  0
  3  2  1  0
  2 38  1  0
  5  3  2  0
  4 33  1  0
 37  4  1  0
  4 39  2  0
 13  5  1  0
  5 33  1  0
  6  7  1  0
 13  6  1  6
 15  6  2  0
 16  7  2  0
  7 17  1  0
  9  8  2  0
  8 18  1  0
 16  9  1  0
 19 10  2  0
 10 20  1  0
 24 10  1  0
 20 11  2  0
 21 11  1  0
 19 12  1  0
 12 21  2  0
 13 37  1  0
 14 15  1  0
 35 14  1  0
 15 34  1  0
 34 16  1  0
 17 18  2  0
 36 19  1  0
 21 22  1  0
 22 35  1  0
 33 23  2  0
 25 24  2  0
 36 25  1  0
 26 27  1  0
 26 36  1  0
 27 28  2  0
 27 32  1  0
 28 29  1  0
 29 30  2  0
 30 31  1  0
 31 32  2  0
M  CHG  1  35   1
M  END
$$$$
