
     RDKit          3D

 39 45  0  0  0  0  0  0  0  0999 V2000
   11.7401   15.8521  -21.4837 C   0  0  0  0  0  0  0  0  0  0  0  0
   12.4603   14.9211  -22.2076 C   0  0  0  0  0  0  0  0  0  0  0  0
   12.4925   15.0020  -23.5649 C   0  0  0  0  0  0  0  0  0  0  0  0
   10.4542   17.8805  -24.4038 C   0  0  0  0  0  0  0  0  0  0  0  0
   11.8084   16.0115  -24.2348 C   0  0  0  0  0  0  0  0  0  0  0  0
   11.2801   15.2023  -26.5205 C   0  0  0  0  0  0  0  0  0  0  0  0
   10.2657   15.2646  -27.4838 C   0  0  0  0  0  0  0  0  0  0  0  0
    8.4139   14.8240  -29.4754 C   0  0  0  0  0  0  0  0  0  0  0  0
    9.2498   13.8007  -29.0948 C   0  0  0  0  0  0  0  0  0  0  0  0
   15.7719   16.3430  -20.9226 C   0  0  0  0  0  0  0  0  0  0  0  0
   15.4853   16.1377  -23.2529 C   0  0  0  0  0  0  0  0  0  0  0  0
   14.9342   14.3170  -21.8518 C   0  0  0  0  0  0  0  0  0  0  0  0
   11.6703   16.3531  -25.6555 C   0  0  1  0  0  0  0  0  0  0  0  0
   12.8741   13.3629  -25.7811 C   0  0  0  0  0  0  0  0  0  0  0  0
   11.7786   13.9309  -26.5751 C   0  0  0  0  0  0  0  0  0  0  0  0
   10.1764   14.0515  -28.0852 C   0  0  0  0  0  0  0  0  0  0  0  0
    9.4312   16.3038  -27.8564 C   0  0  0  0  0  0  0  0  0  0  0  0
    8.5123   16.0622  -28.8544 C   0  0  0  0  0  0  0  0  0  0  0  0
   15.3041   15.0389  -20.7288 C   0  0  0  0  0  0  0  0  0  0  0  0
   15.8664   16.9010  -22.1775 C   0  0  0  0  0  0  0  0  0  0  0  0
   15.0206   14.8547  -23.1117 C   0  0  0  0  0  0  0  0  0  0  0  0
   14.6249   14.1027  -24.3101 C   0  0  0  0  0  0  0  0  0  0  0  0
   11.0443   16.8717  -22.0942 C   0  0  0  0  0  0  0  0  0  0  0  0
   16.0634   16.8262  -19.6501 C   0  0  0  0  0  0  0  0  0  0  0  0
   15.7730   15.8355  -18.7638 C   0  0  0  0  0  0  0  0  0  0  0  0
   14.9011   13.4999  -18.8181 C   0  0  0  0  0  0  0  0  0  0  0  0
   15.6725   13.1930  -17.5908 C   0  0  0  0  0  0  0  0  0  0  0  0
   16.8122   12.4228  -17.6380 C   0  0  0  0  0  0  0  0  0  0  0  0
   17.5288   12.1414  -16.4790 C   0  0  0  0  0  0  0  0  0  0  0  0
   17.1202   12.6228  -15.2583 C   0  0  0  0  0  0  0  0  0  0  0  0
   15.9756   13.4003  -15.1867 C   0  0  0  0  0  0  0  0  0  0  0  0
   15.2792   13.6681  -16.3466 C   0  0  0  0  0  0  0  0  0  0  0  0
   11.1003   16.9229  -23.4911 C   0  0  0  0  0  0  0  0  0  0  0  0
   11.0907   13.2779  -27.5221 N   0  0  0  0  0  0  0  0  0  0  0  0
   13.2489   14.1953  -24.6558 N   0  0  0  0  0  4  0  0  0  0  0  0
   15.3069   14.7368  -19.4187 N   0  0  0  0  0  0  0  0  0  0  0  0
   10.8214   17.4783  -25.7092 N   0  0  0  0  0  0  0  0  0  0  0  0
   13.1712   13.8794  -21.5864 O   0  0  0  0  0  0  0  0  0  0  0  0
    9.7168   18.8666  -24.0699 O   0  0  0  0  0  0  0  0  0  0  0  0
  2  1  2  0
 23  1  1  0
  3  2  1  0
  2 38  1  0
  5  3  2  0
  4 33  1  0
 37  4  1  0
  4 39  2  0
 13  5  1  0
  5 33  1  0
  6  7  1  0
 13  6  1  6
 15  6  2  0
 16  7  2  0
  7 17  1  0
  9  8  2  0
  8 18  1  0
 16  9  1  0
 19 10  2  0
 10 20  1  0
 24 10  1  0
 20 11  2  0
 21 11  1  0
 19 12  1  0
 12 21  2  0
 13 37  1  0
 14 15  1  1
 35 14  1  1
 15 34  1  0
 34 16  1  0
 17 18  2  0
 36 19  1  0
 22 21  1  1
 22 35  1  0
 33 23  2  0
 25 24  2  0
 36 25  1  0
 26 27  1  0
 26 36  1  6
 27 28  2  0
 27 32  1  0
 28 29  1  0
 29 30  2  0
 30 31  1  0
 31 32  2  0
M  CHG  1  35   1
M  END
$$$$
