
     RDKit          3D

 39 45  0  0  0  0  0  0  0  0999 V2000
   19.4694   14.3093  -21.9642 C   0  0  0  0  0  0  0  0  0  0  0  0
   18.3643   13.4954  -22.1245 C   0  0  0  0  0  0  0  0  0  0  0  0
   17.1397   13.9373  -21.7308 C   0  0  0  0  0  0  0  0  0  0  0  0
   17.7017   17.2615  -20.3973 C   0  0  0  0  0  0  0  0  0  0  0  0
   16.9853   15.2003  -21.1679 C   0  0  0  0  0  0  0  0  0  0  0  0
   14.9701   15.1602  -19.7202 C   0  0  0  0  0  0  0  0  0  0  0  0
   15.4412   14.6372  -18.5097 C   0  0  0  0  0  0  0  0  0  0  0  0
   15.8160   13.4109  -16.0715 C   0  0  0  0  0  0  0  0  0  0  0  0
   14.5760   13.3662  -16.6640 C   0  0  0  0  0  0  0  0  0  0  0  0
    8.3668   11.5078  -23.3781 C   0  0  0  0  0  0  0  0  0  0  0  0
   10.6202   12.1647  -23.5916 C   0  0  0  0  0  0  0  0  0  0  0  0
    9.0848   13.6148  -22.5323 C   0  0  0  0  0  0  0  0  0  0  0  0
   15.8175   15.9371  -20.6705 C   0  0  1  0  0  0  0  0  0  0  0  0
   12.6982   15.1380  -20.8644 C   0  0  0  0  0  0  0  0  0  0  0  0
   13.6511   14.8103  -19.7977 C   0  0  0  0  0  0  0  0  0  0  0  0
   14.4151   13.9948  -17.8969 C   0  0  0  0  0  0  0  0  0  0  0  0
   16.6945   14.6904  -17.9253 C   0  0  0  0  0  0  0  0  0  0  0  0
   16.8604   14.0706  -16.7059 C   0  0  0  0  0  0  0  0  0  0  0  0
    8.0568   12.7070  -22.7277 C   0  0  0  0  0  0  0  0  0  0  0  0
    9.6423   11.2272  -23.8132 C   0  0  0  0  0  0  0  0  0  0  0  0
   10.3633   13.3543  -22.9583 C   0  0  0  0  0  0  0  0  0  0  0  0
   11.4640   14.3050  -22.7510 C   0  0  0  0  0  0  0  0  0  0  0  0
   19.3750   15.5677  -21.4129 C   0  0  0  0  0  0  0  0  0  0  0  0
    7.1716   10.7968  -23.4362 C   0  0  0  0  0  0  0  0  0  0  0  0
    6.2157   11.5610  -22.8416 C   0  0  0  0  0  0  0  0  0  0  0  0
    6.0513   13.7885  -21.7325 C   0  0  0  0  0  0  0  0  0  0  0  0
    4.7157   13.3592  -21.2556 C   0  0  0  0  0  0  0  0  0  0  0  0
    4.5728   12.6201  -20.1034 C   0  0  0  0  0  0  0  0  0  0  0  0
    3.3135   12.2228  -19.6649 C   0  0  0  0  0  0  0  0  0  0  0  0
    2.1803   12.5560  -20.3676 C   0  0  0  0  0  0  0  0  0  0  0  0
    2.3001   13.2996  -21.5307 C   0  0  0  0  0  0  0  0  0  0  0  0
    3.5569   13.6838  -21.9487 C   0  0  0  0  0  0  0  0  0  0  0  0
   18.1000   15.9881  -21.0196 C   0  0  0  0  0  0  0  0  0  0  0  0
   13.3617   14.1151  -18.6889 N   0  0  0  0  0  0  0  0  0  0  0  0
   12.3396   13.9920  -21.6755 N   0  0  0  0  0  4  0  0  0  0  0  0
    6.7519   12.7337  -22.4049 N   0  0  0  0  0  0  0  0  0  0  0  0
   16.3051   17.1711  -20.1919 N   0  0  0  0  0  0  0  0  0  0  0  0
   18.4584   12.2104  -22.6871 O   0  0  0  0  0  0  0  0  0  0  0  0
   18.4711   18.2374  -20.1087 O   0  0  0  0  0  0  0  0  0  0  0  0
  2  1  2  0
 23  1  1  0
  3  2  1  0
  2 38  1  0
  5  3  2  0
  4 33  1  0
 37  4  1  0
  4 39  2  0
 13  5  1  0
  5 33  1  0
  6  7  1  0
 13  6  1  1
 15  6  2  0
 16  7  2  0
  7 17  1  0
  9  8  2  0
  8 18  1  0
 16  9  1  0
 19 10  2  0
 10 20  1  0
 24 10  1  0
 20 11  2  0
 21 11  1  0
 19 12  1  0
 12 21  2  0
 13 37  1  0
 14 15  1  1
 35 14  1  1
 15 34  1  0
 34 16  1  0
 17 18  2  0
 36 19  1  0
 22 21  1  1
 22 35  1  0
 33 23  2  0
 25 24  2  0
 36 25  1  0
 26 27  1  0
 26 36  1  6
 27 28  2  0
 27 32  1  0
 28 29  1  0
 29 30  2  0
 30 31  1  0
 31 32  2  0
M  CHG  1  35   1
M  END
$$$$
