
     RDKit          3D

 39 45  0  0  0  0  0  0  0  0999 V2000
   16.5342   18.6870  -21.8397 C   0  0  0  0  0  0  0  0  0  0  0  0
   16.7462   18.3660  -20.5125 C   0  0  0  0  0  0  0  0  0  0  0  0
   16.7165   17.0636  -20.1217 C   0  0  0  0  0  0  0  0  0  0  0  0
   16.0216   15.1725  -23.1359 C   0  0  0  0  0  0  0  0  0  0  0  0
   16.4750   16.0489  -21.0426 C   0  0  0  0  0  0  0  0  0  0  0  0
   15.5012   14.1171  -19.8267 C   0  0  0  0  0  0  0  0  0  0  0  0
   15.8997   14.0189  -18.4878 C   0  0  0  0  0  0  0  0  0  0  0  0
   16.1326   13.6351  -15.7698 C   0  0  0  0  0  0  0  0  0  0  0  0
   14.9360   13.3595  -16.3885 C   0  0  0  0  0  0  0  0  0  0  0  0
    7.1442   15.1514  -21.3572 C   0  0  0  0  0  0  0  0  0  0  0  0
    9.3996   15.7401  -21.0085 C   0  0  0  0  0  0  0  0  0  0  0  0
    8.8849   13.8581  -22.3409 C   0  0  0  0  0  0  0  0  0  0  0  0
   16.3962   14.5882  -20.9229 C   0  0  1  0  0  0  0  0  0  0  0  0
   13.3117   13.6503  -21.0345 C   0  0  0  0  0  0  0  0  0  0  0  0
   14.1969   13.7105  -19.8658 C   0  0  0  0  0  0  0  0  0  0  0  0
   14.8466   13.5627  -17.7639 C   0  0  0  0  0  0  0  0  0  0  0  0
   17.1100   14.3005  -17.8788 C   0  0  0  0  0  0  0  0  0  0  0  0
   17.2051   14.1016  -16.5185 C   0  0  0  0  0  0  0  0  0  0  0  0
    7.5285   14.0641  -22.1492 C   0  0  0  0  0  0  0  0  0  0  0  0
    8.0694   15.9938  -20.7834 C   0  0  0  0  0  0  0  0  0  0  0  0
    9.8235   14.6863  -21.7777 C   0  0  0  0  0  0  0  0  0  0  0  0
   11.2646   14.4834  -21.9789 C   0  0  0  0  0  0  0  0  0  0  0  0
   16.2904   17.7241  -22.7935 C   0  0  0  0  0  0  0  0  0  0  0  0
    5.7527   15.1226  -21.3362 C   0  0  0  0  0  0  0  0  0  0  0  0
    5.3577   14.0592  -22.0876 C   0  0  0  0  0  0  0  0  0  0  0  0
    6.4186   12.2403  -23.4235 C   0  0  0  0  0  0  0  0  0  0  0  0
    6.9176   12.5195  -24.7904 C   0  0  0  0  0  0  0  0  0  0  0  0
    8.0168   11.8640  -25.2967 C   0  0  0  0  0  0  0  0  0  0  0  0
    8.4764   12.1341  -26.5820 C   0  0  0  0  0  0  0  0  0  0  0  0
    7.8479   13.0601  -27.3797 C   0  0  0  0  0  0  0  0  0  0  0  0
    6.7393   13.7324  -26.8907 C   0  0  0  0  0  0  0  0  0  0  0  0
    6.2993   13.4506  -25.6145 C   0  0  0  0  0  0  0  0  0  0  0  0
   16.2671   16.3959  -22.3547 C   0  0  0  0  0  0  0  0  0  0  0  0
   13.8465   13.3881  -18.6129 N   0  0  0  0  0  0  0  0  0  0  0  0
   12.0140   14.2484  -20.7938 N   0  0  0  0  0  4  0  0  0  0  0  0
    6.4417   13.4059  -22.5890 N   0  0  0  0  0  0  0  0  0  0  0  0
   16.0960   14.1031  -22.2130 N   0  0  0  0  0  0  0  0  0  0  0  0
   16.9952   19.3475  -19.5372 O   0  0  0  0  0  0  0  0  0  0  0  0
   15.7905   15.1067  -24.3889 O   0  0  0  0  0  0  0  0  0  0  0  0
  2  1  2  0
 23  1  1  0
  3  2  1  0
  2 38  1  0
  5  3  2  0
  4 33  1  0
 37  4  1  0
  4 39  2  0
 13  5  1  0
  5 33  1  0
  6  7  1  0
 13  6  1  1
 15  6  2  0
 16  7  2  0
  7 17  1  0
  9  8  2  0
  8 18  1  0
 16  9  1  0
 19 10  2  0
 10 20  1  0
 24 10  1  0
 20 11  2  0
 21 11  1  0
 19 12  1  0
 12 21  2  0
 13 37  1  0
 14 15  1  1
 35 14  1  1
 15 34  1  0
 34 16  1  0
 17 18  2  0
 36 19  1  0
 22 21  1  1
 22 35  1  0
 33 23  2  0
 25 24  2  0
 36 25  1  0
 26 27  1  0
 26 36  1  6
 27 28  2  0
 27 32  1  0
 28 29  1  0
 29 30  2  0
 30 31  1  0
 31 32  2  0
M  CHG  1  35   1
M  END
$$$$
