
     RDKit          3D

 39 45  0  0  0  0  0  0  0  0999 V2000
   15.6199   17.0581  -24.2578 C   0  0  0  0  0  0  0  0  0  0  0  0
   14.6078   16.1686  -24.0198 C   0  0  0  0  0  0  0  0  0  0  0  0
   14.3602   15.7561  -22.7115 C   0  0  0  0  0  0  0  0  0  0  0  0
   16.7913   17.5138  -20.6558 C   0  0  0  0  0  0  0  0  0  0  0  0
   15.1121   16.2260  -21.6607 C   0  0  0  0  0  0  0  0  0  0  0  0
   15.1371   14.5294  -19.8808 C   0  0  0  0  0  0  0  0  0  0  0  0
   15.6776   14.0489  -18.6729 C   0  0  0  0  0  0  0  0  0  0  0  0
   16.5907   12.5441  -16.5119 C   0  0  0  0  0  0  0  0  0  0  0  0
   16.0011   11.9341  -17.6151 C   0  0  0  0  0  0  0  0  0  0  0  0
    8.6159   15.7882  -20.4251 C   0  0  0  0  0  0  0  0  0  0  0  0
   10.9551   15.4282  -20.6415 C   0  0  0  0  0  0  0  0  0  0  0  0
    9.4898   14.6797  -22.3336 C   0  0  0  0  0  0  0  0  0  0  0  0
   15.0871   15.9495  -20.1858 C   0  0  1  0  0  0  0  0  0  0  0  0
   14.0758   13.4053  -21.8906 C   0  0  0  0  0  0  0  0  0  0  0  0
   14.7023   13.4410  -20.5806 C   0  0  0  0  0  0  0  0  0  0  0  0
   15.5460   12.6720  -18.6902 C   0  0  0  0  0  0  0  0  0  0  0  0
   16.2624   14.6400  -17.5764 C   0  0  0  0  0  0  0  0  0  0  0  0
   16.7220   13.9169  -16.4951 C   0  0  0  0  0  0  0  0  0  0  0  0
    8.4043   15.1600  -21.6452 C   0  0  0  0  0  0  0  0  0  0  0  0
    9.8921   15.9216  -19.9243 C   0  0  0  0  0  0  0  0  0  0  0  0
   10.7762   14.8021  -21.8514 C   0  0  0  0  0  0  0  0  0  0  0  0
   11.9461   14.2626  -22.6336 C   0  0  0  0  0  0  0  0  0  0  0  0
   16.3800   17.5363  -23.2135 C   0  0  0  0  0  0  0  0  0  0  0  0
    7.3822   16.1724  -19.9491 C   0  0  0  0  0  0  0  0  0  0  0  0
    6.4511   15.7760  -20.8771 C   0  0  0  0  0  0  0  0  0  0  0  0
    6.4810   14.5960  -23.0788 C   0  0  0  0  0  0  0  0  0  0  0  0
    5.9947   13.2069  -22.8799 C   0  0  0  0  0  0  0  0  0  0  0  0
    4.7491   12.9621  -22.2878 C   0  0  0  0  0  0  0  0  0  0  0  0
    4.2581   11.6915  -22.0854 C   0  0  0  0  0  0  0  0  0  0  0  0
    5.0046   10.5966  -22.4732 C   0  0  0  0  0  0  0  0  0  0  0  0
    6.2200   10.8044  -23.0519 C   0  0  0  0  0  0  0  0  0  0  0  0
    6.7027   12.0851  -23.2499 C   0  0  0  0  0  0  0  0  0  0  0  0
   16.1308   17.1232  -21.9040 C   0  0  0  0  0  0  0  0  0  0  0  0
   14.9589   12.3233  -19.8418 N   0  0  0  0  0  0  0  0  0  0  0  0
   12.6531   13.2459  -21.9180 N   0  0  0  0  0  4  0  0  0  0  0  0
    7.0818   15.1656  -21.8970 N   0  0  0  0  0  0  0  0  0  0  0  0
   16.0911   16.7847  -19.6325 N   0  0  0  0  0  0  0  0  0  0  0  0
   13.8580   15.7040  -25.0919 O   0  0  0  0  0  0  0  0  0  0  0  0
   17.7588   18.3118  -20.5098 O   0  0  0  0  0  0  0  0  0  0  0  0
  2  1  2  0
 23  1  1  0
  3  2  1  0
  2 38  1  0
  5  3  2  0
  4 33  1  0
 37  4  1  0
  4 39  2  0
 13  5  1  0
  5 33  1  0
  6  7  1  0
 13  6  1  6
 15  6  2  0
 16  7  2  0
  7 17  1  0
  9  8  2  0
  8 18  1  0
 16  9  1  0
 19 10  2  0
 10 20  1  0
 24 10  1  0
 20 11  2  0
 21 11  1  0
 19 12  1  0
 12 21  2  0
 13 37  1  0
 14 15  1  0
 35 14  1  0
 15 34  1  0
 34 16  1  0
 17 18  2  0
 36 19  1  0
 21 22  1  0
 22 35  1  0
 33 23  2  0
 25 24  2  0
 36 25  1  0
 26 27  1  0
 26 36  1  0
 27 28  2  0
 27 32  1  0
 28 29  1  0
 29 30  2  0
 30 31  1  0
 31 32  2  0
M  CHG  1  35   1
M  END
$$$$
