
     RDKit          3D

 39 45  0  0  0  0  0  0  0  0999 V2000
   13.5641   13.6315  -25.0884 C   0  0  0  0  0  0  0  0  0  0  0  0
   12.9869   13.0232  -24.0073 C   0  0  0  0  0  0  0  0  0  0  0  0
   12.0096   13.7066  -23.2855 C   0  0  0  0  0  0  0  0  0  0  0  0
   11.6309   16.9175  -24.9505 C   0  0  0  0  0  0  0  0  0  0  0  0
   11.6175   14.9759  -23.6399 C   0  0  0  0  0  0  0  0  0  0  0  0
   10.8353   16.1560  -21.6294 C   0  0  0  0  0  0  0  0  0  0  0  0
   10.4509   15.2007  -20.6691 C   0  0  0  0  0  0  0  0  0  0  0  0
    9.9254   13.7196  -18.3674 C   0  0  0  0  0  0  0  0  0  0  0  0
   10.5479   14.9623  -18.2964 C   0  0  0  0  0  0  0  0  0  0  0  0
   17.7259   16.2777  -21.0680 C   0  0  0  0  0  0  0  0  0  0  0  0
   16.7784   18.4362  -21.3703 C   0  0  0  0  0  0  0  0  0  0  0  0
   15.3847   16.6039  -20.8498 C   0  0  0  0  0  0  0  0  0  0  0  0
   10.6279   15.9385  -23.0512 C   0  0  1  0  0  0  0  0  0  0  0  0
   11.9588   18.4246  -21.4860 C   0  0  0  0  0  0  0  0  0  0  0  0
   11.4084   17.1919  -20.9498 C   0  0  0  0  0  0  0  0  0  0  0  0
   10.8120   15.7029  -19.4319 C   0  0  0  0  0  0  0  0  0  0  0  0
    9.8360   13.9710  -20.7259 C   0  0  0  0  0  0  0  0  0  0  0  0
    9.5653   13.2194  -19.6012 C   0  0  0  0  0  0  0  0  0  0  0  0
   16.4637   15.7567  -20.8162 C   0  0  0  0  0  0  0  0  0  0  0  0
   17.8818   17.6180  -21.3451 C   0  0  0  0  0  0  0  0  0  0  0  0
   15.5174   17.9488  -21.1250 C   0  0  0  0  0  0  0  0  0  0  0  0
   14.3105   18.8512  -21.1542 C   0  0  0  0  0  0  0  0  0  0  0  0
   13.1797   14.9026  -25.4537 C   0  0  0  0  0  0  0  0  0  0  0  0
   18.6199   15.2347  -20.9730 C   0  0  0  0  0  0  0  0  0  0  0  0
   17.8949   14.1092  -20.6683 C   0  0  0  0  0  0  0  0  0  0  0  0
   15.4899   13.5582  -20.2766 C   0  0  0  0  0  0  0  0  0  0  0  0
   15.0405   13.6392  -18.8634 C   0  0  0  0  0  0  0  0  0  0  0  0
   15.8762   13.2187  -17.8210 C   0  0  0  0  0  0  0  0  0  0  0  0
   15.5017   13.2771  -16.4971 C   0  0  0  0  0  0  0  0  0  0  0  0
   14.2563   13.7665  -16.1564 C   0  0  0  0  0  0  0  0  0  0  0  0
   13.4222   14.1829  -17.1494 C   0  0  0  0  0  0  0  0  0  0  0  0
   13.8094   14.1192  -18.4755 C   0  0  0  0  0  0  0  0  0  0  0  0
   12.2008   15.5856  -24.7307 C   0  0  0  0  0  0  0  0  0  0  0  0
   11.3852   16.8984  -19.6177 N   0  0  0  0  0  0  0  0  0  0  0  0
   13.2855   18.3564  -22.0204 N   0  0  0  0  0  4  0  0  0  0  0  0
   16.5935   14.4383  -20.5764 N   0  0  0  0  0  0  0  0  0  0  0  0
   10.6517   17.0686  -23.9079 N   0  0  0  0  0  0  0  0  0  0  0  0
   13.3940   11.7414  -23.6629 O   0  0  0  0  0  0  0  0  0  0  0  0
   11.9314   17.7477  -25.8530 O   0  0  0  0  0  0  0  0  0  0  0  0
  2  1  2  0
 23  1  1  0
  3  2  1  0
  2 38  1  0
  5  3  2  0
  4 33  1  0
 37  4  1  0
  4 39  2  0
 13  5  1  0
  5 33  1  0
  6  7  1  0
 13  6  1  1
 15  6  2  0
 16  7  2  0
  7 17  1  0
  9  8  2  0
  8 18  1  0
 16  9  1  0
 19 10  2  0
 10 20  1  0
 24 10  1  0
 20 11  2  0
 21 11  1  0
 19 12  1  0
 12 21  2  0
 13 37  1  0
 14 15  1  0
 35 14  1  0
 15 34  1  0
 34 16  1  0
 17 18  2  0
 36 19  1  0
 21 22  1  0
 22 35  1  0
 33 23  2  0
 25 24  2  0
 36 25  1  0
 26 27  1  0
 26 36  1  0
 27 28  2  0
 27 32  1  0
 28 29  1  0
 29 30  2  0
 30 31  1  0
 31 32  2  0
M  CHG  1  35   1
M  END
$$$$
