
     RDKit          3D

 39 45  0  0  0  0  0  0  0  0999 V2000
   11.3061   16.6315  -22.5785 C   0  0  0  0  0  0  0  0  0  0  0  0
   10.9539   15.5185  -21.8651 C   0  0  0  0  0  0  0  0  0  0  0  0
   11.6996   15.1689  -20.7404 C   0  0  0  0  0  0  0  0  0  0  0  0
   14.2861   17.7093  -20.4542 C   0  0  0  0  0  0  0  0  0  0  0  0
   12.7783   15.9203  -20.3375 C   0  0  0  0  0  0  0  0  0  0  0  0
   14.3667   14.4605  -19.1573 C   0  0  0  0  0  0  0  0  0  0  0  0
   15.3409   14.1310  -18.1958 C   0  0  0  0  0  0  0  0  0  0  0  0
   17.2559   12.9246  -16.5694 C   0  0  0  0  0  0  0  0  0  0  0  0
   16.6387   12.2193  -17.5982 C   0  0  0  0  0  0  0  0  0  0  0  0
   16.0823   14.9016  -26.3632 C   0  0  0  0  0  0  0  0  0  0  0  0
   14.8522   13.1946  -25.2582 C   0  0  0  0  0  0  0  0  0  0  0  0
   14.5841   15.4465  -24.6044 C   0  0  0  0  0  0  0  0  0  0  0  0
   13.7542   15.7775  -19.2063 C   0  0  1  0  0  0  0  0  0  0  0  0
   13.2582   13.1687  -21.0366 C   0  0  0  0  0  0  0  0  0  0  0  0
   14.1605   13.3415  -19.9114 C   0  0  0  0  0  0  0  0  0  0  0  0
   15.6889   12.8093  -18.4089 C   0  0  0  0  0  0  0  0  0  0  0  0
   15.9584   14.8174  -17.1754 C   0  0  0  0  0  0  0  0  0  0  0  0
   16.9089   14.2424  -16.3574 C   0  0  0  0  0  0  0  0  0  0  0  0
   15.4891   15.8582  -25.5501 C   0  0  0  0  0  0  0  0  0  0  0  0
   15.7628   13.5698  -26.2161 C   0  0  0  0  0  0  0  0  0  0  0  0
   14.2493   14.1187  -24.4395 C   0  0  0  0  0  0  0  0  0  0  0  0
   13.2512   13.7011  -23.3902 C   0  0  0  0  0  0  0  0  0  0  0  0
   12.3844   17.3927  -22.1849 C   0  0  0  0  0  0  0  0  0  0  0  0
   16.9361   15.5676  -27.2138 C   0  0  0  0  0  0  0  0  0  0  0  0
   16.8492   16.9032  -26.9076 C   0  0  0  0  0  0  0  0  0  0  0  0
   15.5852   18.3047  -25.2707 C   0  0  0  0  0  0  0  0  0  0  0  0
   16.3838   18.6225  -24.0596 C   0  0  0  0  0  0  0  0  0  0  0  0
   15.7803   19.1988  -22.9347 C   0  0  0  0  0  0  0  0  0  0  0  0
   16.4812   19.5085  -21.7905 C   0  0  0  0  0  0  0  0  0  0  0  0
   17.8360   19.2502  -21.7237 C   0  0  0  0  0  0  0  0  0  0  0  0
   18.4498   18.6899  -22.8028 C   0  0  0  0  0  0  0  0  0  0  0  0
   17.7353   18.3834  -23.9465 C   0  0  0  0  0  0  0  0  0  0  0  0
   13.1300   17.0421  -21.0585 C   0  0  0  0  0  0  0  0  0  0  0  0
   14.9716   12.3502  -19.4419 N   0  0  0  0  0  0  0  0  0  0  0  0
   13.8624   12.9748  -22.3203 N   0  0  0  0  0  4  0  0  0  0  0  0
   15.9715   17.0652  -25.9006 N   0  0  0  0  0  0  0  0  0  0  0  0
   14.6083   16.9054  -19.3058 N   0  0  0  0  0  0  0  0  0  0  0  0
    9.8621   14.7709  -22.2851 O   0  0  0  0  0  0  0  0  0  0  0  0
   14.8698   18.7559  -20.8518 O   0  0  0  0  0  0  0  0  0  0  0  0
  2  1  2  0
 23  1  1  0
  3  2  1  0
  2 38  1  0
  5  3  2  0
  4 33  1  0
 37  4  1  0
  4 39  2  0
 13  5  1  0
  5 33  1  0
  6  7  1  0
 13  6  1  6
 15  6  2  0
 16  7  2  0
  7 17  1  0
  9  8  2  0
  8 18  1  0
 16  9  1  0
 19 10  2  0
 10 20  1  0
 24 10  1  0
 20 11  2  0
 21 11  1  0
 19 12  1  0
 12 21  2  0
 13 37  1  0
 14 15  1  0
 35 14  1  0
 15 34  1  0
 34 16  1  0
 17 18  2  0
 36 19  1  0
 21 22  1  0
 22 35  1  0
 33 23  2  0
 25 24  2  0
 36 25  1  0
 26 27  1  0
 26 36  1  0
 27 28  2  0
 27 32  1  0
 28 29  1  0
 29 30  2  0
 30 31  1  0
 31 32  2  0
M  CHG  1  35   1
M  END
$$$$
