
     RDKit          3D

 39 45  0  0  0  0  0  0  0  0999 V2000
   11.8287   17.6610  -21.2560 C   0  0  0  0  0  0  0  0  0  0  0  0
   11.8402   17.0055  -20.0396 C   0  0  0  0  0  0  0  0  0  0  0  0
   12.9699   16.3699  -19.6279 C   0  0  0  0  0  0  0  0  0  0  0  0
   15.3846   16.8881  -22.2822 C   0  0  0  0  0  0  0  0  0  0  0  0
   14.1159   16.3714  -20.4170 C   0  0  0  0  0  0  0  0  0  0  0  0
   15.4484   14.3564  -19.8487 C   0  0  0  0  0  0  0  0  0  0  0  0
   16.1199   13.8523  -18.7281 C   0  0  0  0  0  0  0  0  0  0  0  0
   17.2210   12.3441  -16.7026 C   0  0  0  0  0  0  0  0  0  0  0  0
   16.4479   11.7269  -17.6577 C   0  0  0  0  0  0  0  0  0  0  0  0
    8.2098   14.9260  -21.2625 C   0  0  0  0  0  0  0  0  0  0  0  0
    9.8785   13.2985  -20.9140 C   0  0  0  0  0  0  0  0  0  0  0  0
    9.9875   14.6800  -22.8275 C   0  0  0  0  0  0  0  0  0  0  0  0
   15.4543   15.7965  -20.2372 C   0  0  1  0  0  0  0  0  0  0  0  0
   13.9892   13.2862  -21.6365 C   0  0  0  0  0  0  0  0  0  0  0  0
   14.8378   13.2858  -20.4394 C   0  0  0  0  0  0  0  0  0  0  0  0
   15.9038   12.5139  -18.6704 C   0  0  0  0  0  0  0  0  0  0  0  0
   16.8955   14.4871  -17.7739 C   0  0  0  0  0  0  0  0  0  0  0  0
   17.4368   13.7143  -16.7696 C   0  0  0  0  0  0  0  0  0  0  0  0
    8.8270   15.3352  -22.4494 C   0  0  0  0  0  0  0  0  0  0  0  0
    8.7259   13.9110  -20.4889 C   0  0  0  0  0  0  0  0  0  0  0  0
   10.5186   13.6657  -22.0705 C   0  0  0  0  0  0  0  0  0  0  0  0
   11.7524   12.9676  -22.4562 C   0  0  0  0  0  0  0  0  0  0  0  0
   12.9334   17.6945  -22.0774 C   0  0  0  0  0  0  0  0  0  0  0  0
    7.0886   15.7397  -21.1269 C   0  0  0  0  0  0  0  0  0  0  0  0
    7.0667   16.5813  -22.1958 C   0  0  0  0  0  0  0  0  0  0  0  0
    8.4376   17.0252  -24.2310 C   0  0  0  0  0  0  0  0  0  0  0  0
    8.0065   16.2636  -25.4267 C   0  0  0  0  0  0  0  0  0  0  0  0
    6.7330   16.3907  -25.9330 C   0  0  0  0  0  0  0  0  0  0  0  0
    6.3393   15.6708  -27.0567 C   0  0  0  0  0  0  0  0  0  0  0  0
    7.2080   14.8151  -27.6907 C   0  0  0  0  0  0  0  0  0  0  0  0
    8.4953   14.6711  -27.1985 C   0  0  0  0  0  0  0  0  0  0  0  0
    8.8663   15.3934  -26.0838 C   0  0  0  0  0  0  0  0  0  0  0  0
   14.0767   17.0298  -21.6212 C   0  0  0  0  0  0  0  0  0  0  0  0
   15.1364   12.2060  -19.7037 N   0  0  0  0  0  0  0  0  0  0  0  0
   12.6714   12.7331  -21.3971 N   0  0  0  0  0  4  0  0  0  0  0  0
    8.1298   16.3385  -23.0106 N   0  0  0  0  0  0  0  0  0  0  0  0
   16.1799   16.1157  -21.4039 N   0  0  0  0  0  0  0  0  0  0  0  0
   10.7134   16.9700  -19.1996 O   0  0  0  0  0  0  0  0  0  0  0  0
   15.7170   17.3697  -23.4159 O   0  0  0  0  0  0  0  0  0  0  0  0
  2  1  2  0
 23  1  1  0
  3  2  1  0
  2 38  1  0
  5  3  2  0
  4 33  1  0
 37  4  1  0
  4 39  2  0
 13  5  1  0
  5 33  1  0
  6  7  1  0
 13  6  1  6
 15  6  2  0
 16  7  2  0
  7 17  1  0
  9  8  2  0
  8 18  1  0
 16  9  1  0
 19 10  2  0
 10 20  1  0
 24 10  1  0
 20 11  2  0
 21 11  1  0
 19 12  1  0
 12 21  2  0
 13 37  1  0
 14 15  1  1
 35 14  1  1
 15 34  1  0
 34 16  1  0
 17 18  2  0
 36 19  1  0
 22 21  1  1
 22 35  1  0
 33 23  2  0
 25 24  2  0
 36 25  1  0
 26 27  1  0
 26 36  1  6
 27 28  2  0
 27 32  1  0
 28 29  1  0
 29 30  2  0
 30 31  1  0
 31 32  2  0
M  CHG  1  35   1
M  END
$$$$
