
     RDKit          3D

 39 45  0  0  0  0  0  0  0  0999 V2000
   17.2028   13.9776  -19.4676 C   0  0  0  0  0  0  0  0  0  0  0  0
   16.8618   15.1278  -20.1533 C   0  0  0  0  0  0  0  0  0  0  0  0
   15.6859   15.7529  -19.8769 C   0  0  0  0  0  0  0  0  0  0  0  0
   14.1205   13.7530  -17.2895 C   0  0  0  0  0  0  0  0  0  0  0  0
   14.8207   15.2482  -18.9111 C   0  0  0  0  0  0  0  0  0  0  0  0
   12.5211   15.9988  -19.4653 C   0  0  0  0  0  0  0  0  0  0  0  0
   12.1414   17.2964  -19.8300 C   0  0  0  0  0  0  0  0  0  0  0  0
   11.0454   19.5710  -20.9320 C   0  0  0  0  0  0  0  0  0  0  0  0
   10.6525   18.3393  -21.4004 C   0  0  0  0  0  0  0  0  0  0  0  0
    8.2135    9.9141  -23.7781 C   0  0  0  0  0  0  0  0  0  0  0  0
    9.2342   10.4152  -21.7137 C   0  0  0  0  0  0  0  0  0  0  0  0
   10.2364   11.1688  -23.7161 C   0  0  0  0  0  0  0  0  0  0  0  0
   13.5208   15.6989  -18.3998 C   0  0  1  0  0  0  0  0  0  0  0  0
   11.8590   13.6879  -20.2972 C   0  0  0  0  0  0  0  0  0  0  0  0
   11.8069   15.1540  -20.2679 C   0  0  0  0  0  0  0  0  0  0  0  0
   11.2230   17.2061  -20.8248 C   0  0  0  0  0  0  0  0  0  0  0  0
   12.5463   18.5290  -19.3486 C   0  0  0  0  0  0  0  0  0  0  0  0
   11.9858   19.6539  -19.9136 C   0  0  0  0  0  0  0  0  0  0  0  0
    9.2267   10.5893  -24.4670 C   0  0  0  0  0  0  0  0  0  0  0  0
    8.2075    9.8212  -22.4047 C   0  0  0  0  0  0  0  0  0  0  0  0
   10.2490   11.0877  -22.3460 C   0  0  0  0  0  0  0  0  0  0  0  0
   11.3097   11.7038  -21.5375 C   0  0  0  0  0  0  0  0  0  0  0  0
   16.3849   13.4338  -18.5024 C   0  0  0  0  0  0  0  0  0  0  0  0
    7.3471    9.4422  -24.7601 C   0  0  0  0  0  0  0  0  0  0  0  0
    7.8469    9.8332  -25.9637 C   0  0  0  0  0  0  0  0  0  0  0  0
    9.8084   11.1074  -26.8282 C   0  0  0  0  0  0  0  0  0  0  0  0
    9.6752   12.5816  -26.8962 C   0  0  0  0  0  0  0  0  0  0  0  0
   10.7564   13.4064  -26.6846 C   0  0  0  0  0  0  0  0  0  0  0  0
   10.6196   14.7895  -26.7513 C   0  0  0  0  0  0  0  0  0  0  0  0
    9.4050   15.3692  -27.0293 C   0  0  0  0  0  0  0  0  0  0  0  0
    8.3024   14.5583  -27.2458 C   0  0  0  0  0  0  0  0  0  0  0  0
    8.4585   13.1899  -27.1754 C   0  0  0  0  0  0  0  0  0  0  0  0
   15.1839   14.1037  -18.2453 C   0  0  0  0  0  0  0  0  0  0  0  0
   11.0444   15.9167  -21.0637 N   0  0  0  0  0  0  0  0  0  0  0  0
   11.3021   13.1253  -21.5109 N   0  0  0  0  0  4  0  0  0  0  0  0
    8.9993   10.5370  -25.7911 N   0  0  0  0  0  0  0  0  0  0  0  0
   13.1257   14.7479  -17.4360 N   0  0  0  0  0  0  0  0  0  0  0  0
   17.6953   15.6845  -21.1391 O   0  0  0  0  0  0  0  0  0  0  0  0
   14.1127   12.7527  -16.4977 O   0  0  0  0  0  0  0  0  0  0  0  0
  2  1  2  0
 23  1  1  0
  3  2  1  0
  2 38  1  0
  5  3  2  0
  4 33  1  0
 37  4  1  0
  4 39  2  0
 13  5  1  0
  5 33  1  0
  6  7  1  0
 13  6  1  6
 15  6  2  0
 16  7  2  0
  7 17  1  0
  9  8  2  0
  8 18  1  0
 16  9  1  0
 19 10  2  0
 10 20  1  0
 24 10  1  0
 20 11  2  0
 21 11  1  0
 19 12  1  0
 12 21  2  0
 13 37  1  0
 14 15  1  1
 35 14  1  1
 15 34  1  0
 34 16  1  0
 17 18  2  0
 36 19  1  0
 22 21  1  1
 22 35  1  0
 33 23  2  0
 25 24  2  0
 36 25  1  0
 26 27  1  0
 26 36  1  6
 27 28  2  0
 27 32  1  0
 28 29  1  0
 29 30  2  0
 30 31  1  0
 31 32  2  0
M  CHG  1  35   1
M  END
$$$$
