
     RDKit          3D

 39 45  0  0  0  0  0  0  0  0999 V2000
   17.9162   16.8140  -23.2258 C   0  0  0  0  0  0  0  0  0  0  0  0
   17.8466   17.1899  -21.8978 C   0  0  0  0  0  0  0  0  0  0  0  0
   17.4893   16.2750  -20.9570 C   0  0  0  0  0  0  0  0  0  0  0  0
   16.9037   13.1983  -22.7831 C   0  0  0  0  0  0  0  0  0  0  0  0
   17.1926   14.9637  -21.3150 C   0  0  0  0  0  0  0  0  0  0  0  0
   15.6646   14.0214  -19.6015 C   0  0  0  0  0  0  0  0  0  0  0  0
   15.8208   14.1643  -18.2173 C   0  0  0  0  0  0  0  0  0  0  0  0
   15.5429   14.5125  -15.4987 C   0  0  0  0  0  0  0  0  0  0  0  0
   14.4262   14.5515  -16.3001 C   0  0  0  0  0  0  0  0  0  0  0  0
    7.6798   12.0592  -22.1570 C   0  0  0  0  0  0  0  0  0  0  0  0
    9.9611   11.6324  -21.7471 C   0  0  0  0  0  0  0  0  0  0  0  0
    9.3251   13.6764  -22.7469 C   0  0  0  0  0  0  0  0  0  0  0  0
   16.7980   13.7808  -20.5407 C   0  0  1  0  0  0  0  0  0  0  0  0
   13.6463   14.1041  -21.1477 C   0  0  0  0  0  0  0  0  0  0  0  0
   14.3266   14.1516  -19.8485 C   0  0  0  0  0  0  0  0  0  0  0  0
   14.5962   14.3723  -17.6712 C   0  0  0  0  0  0  0  0  0  0  0  0
   16.9535   14.1226  -17.4233 C   0  0  0  0  0  0  0  0  0  0  0  0
   16.7922   14.2991  -16.0663 C   0  0  0  0  0  0  0  0  0  0  0  0
    7.9900   13.3093  -22.7030 C   0  0  0  0  0  0  0  0  0  0  0  0
    8.6553   11.2148  -21.6773 C   0  0  0  0  0  0  0  0  0  0  0  0
   10.3130   12.8492  -22.2738 C   0  0  0  0  0  0  0  0  0  0  0  0
   11.7317   13.2292  -22.3078 C   0  0  0  0  0  0  0  0  0  0  0  0
   17.6330   15.5306  -23.6368 C   0  0  0  0  0  0  0  0  0  0  0  0
    6.2940   11.9532  -22.2349 C   0  0  0  0  0  0  0  0  0  0  0  0
    5.8309   13.0992  -22.8036 C   0  0  0  0  0  0  0  0  0  0  0  0
    6.7657   15.2307  -23.6988 C   0  0  0  0  0  0  0  0  0  0  0  0
    6.4238   16.2845  -22.7150 C   0  0  0  0  0  0  0  0  0  0  0  0
    5.1141   16.5879  -22.4202 C   0  0  0  0  0  0  0  0  0  0  0  0
    4.8049   17.5793  -21.4942 C   0  0  0  0  0  0  0  0  0  0  0  0
    5.7951   18.2815  -20.8499 C   0  0  0  0  0  0  0  0  0  0  0  0
    7.1209   17.9931  -21.1310 C   0  0  0  0  0  0  0  0  0  0  0  0
    7.4069   17.0071  -22.0517 C   0  0  0  0  0  0  0  0  0  0  0  0
   17.2690   14.6174  -22.6414 C   0  0  0  0  0  0  0  0  0  0  0  0
   13.7261   14.3593  -18.6683 N   0  0  0  0  0  0  0  0  0  0  0  0
   12.2845   13.6173  -21.0567 N   0  0  0  0  0  4  0  0  0  0  0  0
    6.8657   13.9350  -23.0932 N   0  0  0  0  0  0  0  0  0  0  0  0
   16.6112   12.7421  -21.4765 N   0  0  0  0  0  0  0  0  0  0  0  0
   18.1352   18.4996  -21.4762 O   0  0  0  0  0  0  0  0  0  0  0  0
   16.8638   12.5306  -23.8695 O   0  0  0  0  0  0  0  0  0  0  0  0
  2  1  2  0
 23  1  1  0
  3  2  1  0
  2 38  1  0
  5  3  2  0
  4 33  1  0
 37  4  1  0
  4 39  2  0
 13  5  1  0
  5 33  1  0
  6  7  1  0
 13  6  1  6
 15  6  2  0
 16  7  2  0
  7 17  1  0
  9  8  2  0
  8 18  1  0
 16  9  1  0
 19 10  2  0
 10 20  1  0
 24 10  1  0
 20 11  2  0
 21 11  1  0
 19 12  1  0
 12 21  2  0
 13 37  1  0
 14 15  1  1
 35 14  1  1
 15 34  1  0
 34 16  1  0
 17 18  2  0
 36 19  1  0
 22 21  1  1
 22 35  1  0
 33 23  2  0
 25 24  2  0
 36 25  1  0
 26 27  1  0
 26 36  1  6
 27 28  2  0
 27 32  1  0
 28 29  1  0
 29 30  2  0
 30 31  1  0
 31 32  2  0
M  CHG  1  35   1
M  END
$$$$
