
     RDKit          3D

 39 45  0  0  0  0  0  0  0  0999 V2000
   15.9528   13.9078  -18.5506 C   0  0  0  0  0  0  0  0  0  0  0  0
   15.9027   14.5766  -19.7431 C   0  0  0  0  0  0  0  0  0  0  0  0
   14.6951   15.1365  -20.1572 C   0  0  0  0  0  0  0  0  0  0  0  0
   12.3088   14.3730  -17.5214 C   0  0  0  0  0  0  0  0  0  0  0  0
   13.5586   15.0288  -19.3910 C   0  0  0  0  0  0  0  0  0  0  0  0
   11.5947   15.0976  -20.8692 C   0  0  0  0  0  0  0  0  0  0  0  0
   10.4860   14.2345  -20.9587 C   0  0  0  0  0  0  0  0  0  0  0  0
    8.3640   12.6081  -21.7459 C   0  0  0  0  0  0  0  0  0  0  0  0
    9.1492   13.2703  -22.6848 C   0  0  0  0  0  0  0  0  0  0  0  0
   19.0875   16.1093  -21.6637 C   0  0  0  0  0  0  0  0  0  0  0  0
   16.9296   15.2320  -22.1352 C   0  0  0  0  0  0  0  0  0  0  0  0
   17.5431   17.3531  -22.9687 C   0  0  0  0  0  0  0  0  0  0  0  0
   12.1482   15.5024  -19.5879 C   0  0  1  0  0  0  0  0  0  0  0  0
   13.0259   16.2892  -22.5900 C   0  0  0  0  0  0  0  0  0  0  0  0
   11.9416   15.4302  -22.1469 C   0  0  0  0  0  0  0  0  0  0  0  0
   10.2026   14.0781  -22.3036 C   0  0  0  0  0  0  0  0  0  0  0  0
    9.7022   13.5743  -20.0403 C   0  0  0  0  0  0  0  0  0  0  0  0
    8.6469   12.7641  -20.4051 C   0  0  0  0  0  0  0  0  0  0  0  0
   18.7819   17.2547  -22.3867 C   0  0  0  0  0  0  0  0  0  0  0  0
   18.1601   15.0985  -21.5387 C   0  0  0  0  0  0  0  0  0  0  0  0
   16.5993   16.3537  -22.8566 C   0  0  0  0  0  0  0  0  0  0  0  0
   15.2478   16.4947  -23.5086 C   0  0  0  0  0  0  0  0  0  0  0  0
   14.8212   13.7934  -17.7737 C   0  0  0  0  0  0  0  0  0  0  0  0
   20.3724   16.2598  -21.1922 C   0  0  0  0  0  0  0  0  0  0  0  0
   20.8222   17.4806  -21.6312 C   0  0  0  0  0  0  0  0  0  0  0  0
   19.9046   19.3628  -22.9937 C   0  0  0  0  0  0  0  0  0  0  0  0
   19.1344   20.4090  -22.2742 C   0  0  0  0  0  0  0  0  0  0  0  0
   18.1281   21.1331  -22.9261 C   0  0  0  0  0  0  0  0  0  0  0  0
   17.3883   22.1102  -22.2982 C   0  0  0  0  0  0  0  0  0  0  0  0
   17.6287   22.4077  -20.9714 C   0  0  0  0  0  0  0  0  0  0  0  0
   18.6015   21.7195  -20.3118 C   0  0  0  0  0  0  0  0  0  0  0  0
   19.3380   20.7403  -20.9531 C   0  0  0  0  0  0  0  0  0  0  0  0
   13.6129   14.3549  -18.1890 C   0  0  0  0  0  0  0  0  0  0  0  0
   11.0852   14.8020  -23.0031 N   0  0  0  0  0  0  0  0  0  0  0  0
   14.2656   15.6465  -22.9073 N   0  0  0  0  0  4  0  0  0  0  0  0
   19.8516   18.0715  -22.3518 N   0  0  0  0  0  0  0  0  0  0  0  0
   11.4568   15.1146  -18.4118 N   0  0  0  0  0  0  0  0  0  0  0  0
   17.0592   14.6763  -20.5047 O   0  0  0  0  0  0  0  0  0  0  0  0
   12.0006   13.8540  -16.4124 O   0  0  0  0  0  0  0  0  0  0  0  0
  2  1  2  0
 23  1  1  0
  3  2  1  0
  2 38  1  0
  5  3  2  0
  4 33  1  0
 37  4  1  0
  4 39  2  0
 13  5  1  0
  5 33  1  0
  6  7  1  0
 13  6  1  6
 15  6  2  0
 16  7  2  0
  7 17  1  0
  9  8  2  0
  8 18  1  0
 16  9  1  0
 19 10  2  0
 10 20  1  0
 24 10  1  0
 20 11  2  0
 21 11  1  0
 19 12  1  0
 12 21  2  0
 13 37  1  0
 14 15  1  0
 35 14  1  0
 15 34  1  0
 34 16  1  0
 17 18  2  0
 36 19  1  0
 21 22  1  0
 22 35  1  0
 33 23  2  0
 25 24  2  0
 36 25  1  0
 26 27  1  0
 26 36  1  0
 27 28  2  0
 27 32  1  0
 28 29  1  0
 29 30  2  0
 30 31  1  0
 31 32  2  0
M  CHG  1  35   1
M  END
$$$$
