
     RDKit          3D

 39 45  0  0  0  0  0  0  0  0999 V2000
   10.3886   16.4928  -20.1680 C   0  0  0  0  0  0  0  0  0  0  0  0
   10.7267   15.5969  -19.1718 C   0  0  0  0  0  0  0  0  0  0  0  0
   12.0372   15.3614  -18.8943 C   0  0  0  0  0  0  0  0  0  0  0  0
   13.8973   17.4492  -21.2020 C   0  0  0  0  0  0  0  0  0  0  0  0
   13.0432   16.0120  -19.6018 C   0  0  0  0  0  0  0  0  0  0  0  0
   15.0783   14.5934  -19.5330 C   0  0  0  0  0  0  0  0  0  0  0  0
   15.7728   14.0323  -18.4543 C   0  0  0  0  0  0  0  0  0  0  0  0
   17.1836   12.4597  -16.6863 C   0  0  0  0  0  0  0  0  0  0  0  0
   16.8612   11.9572  -17.9250 C   0  0  0  0  0  0  0  0  0  0  0  0
    8.5033   11.5134  -22.4774 C   0  0  0  0  0  0  0  0  0  0  0  0
   10.8190   11.3582  -22.0669 C   0  0  0  0  0  0  0  0  0  0  0  0
    9.9918   13.1338  -23.3880 C   0  0  0  0  0  0  0  0  0  0  0  0
   14.5082   15.9717  -19.5220 C   0  0  1  0  0  0  0  0  0  0  0  0
   14.4272   13.7221  -21.8325 C   0  0  0  0  0  0  0  0  0  0  0  0
   15.0558   13.6372  -20.5094 C   0  0  0  0  0  0  0  0  0  0  0  0
   16.1474   12.7744  -18.7988 C   0  0  0  0  0  0  0  0  0  0  0  0
   16.0902   14.5512  -17.2113 C   0  0  0  0  0  0  0  0  0  0  0  0
   16.7962   13.7481  -16.3423 C   0  0  0  0  0  0  0  0  0  0  0  0
    8.6948   12.6696  -23.2415 C   0  0  0  0  0  0  0  0  0  0  0  0
    9.5560   10.8514  -21.8870 C   0  0  0  0  0  0  0  0  0  0  0  0
   11.0552   12.4885  -22.8076 C   0  0  0  0  0  0  0  0  0  0  0  0
   12.4345   12.9742  -22.9490 C   0  0  0  0  0  0  0  0  0  0  0  0
   11.3424   17.1644  -20.9000 C   0  0  0  0  0  0  0  0  0  0  0  0
    7.1312   11.2797  -22.4946 C   0  0  0  0  0  0  0  0  0  0  0  0
    6.5613   12.2648  -23.2402 C   0  0  0  0  0  0  0  0  0  0  0  0
    7.2926   14.2763  -24.5199 C   0  0  0  0  0  0  0  0  0  0  0  0
    7.2534   15.5266  -23.7257 C   0  0  0  0  0  0  0  0  0  0  0  0
    7.9021   16.6633  -24.1515 C   0  0  0  0  0  0  0  0  0  0  0  0
    7.8581   17.8319  -23.3976 C   0  0  0  0  0  0  0  0  0  0  0  0
    7.1680   17.8841  -22.2102 C   0  0  0  0  0  0  0  0  0  0  0  0
    6.5074   16.7516  -21.7617 C   0  0  0  0  0  0  0  0  0  0  0  0
    6.5629   15.6032  -22.5233 C   0  0  0  0  0  0  0  0  0  0  0  0
   12.6793   16.8966  -20.5868 C   0  0  0  0  0  0  0  0  0  0  0  0
   15.7058   12.5680  -20.0292 N   0  0  0  0  0  0  0  0  0  0  0  0
   12.9862   13.5770  -21.7855 N   0  0  0  0  0  4  0  0  0  0  0  0
    7.5145   13.1204  -23.7012 N   0  0  0  0  0  0  0  0  0  0  0  0
   14.9814   16.8409  -20.5270 N   0  0  0  0  0  0  0  0  0  0  0  0
    9.7546   14.9102  -18.4235 O   0  0  0  0  0  0  0  0  0  0  0  0
   13.9481   18.3019  -22.1496 O   0  0  0  0  0  0  0  0  0  0  0  0
  2  1  2  0
 23  1  1  0
  3  2  1  0
  2 38  1  0
  5  3  2  0
  4 33  1  0
 37  4  1  0
  4 39  2  0
 13  5  1  0
  5 33  1  0
  6  7  1  0
 13  6  1  6
 15  6  2  0
 16  7  2  0
  7 17  1  0
  9  8  2  0
  8 18  1  0
 16  9  1  0
 19 10  2  0
 10 20  1  0
 24 10  1  0
 20 11  2  0
 21 11  1  0
 19 12  1  0
 12 21  2  0
 13 37  1  0
 14 15  1  1
 35 14  1  1
 15 34  1  0
 34 16  1  0
 17 18  2  0
 36 19  1  0
 22 21  1  1
 22 35  1  0
 33 23  2  0
 25 24  2  0
 36 25  1  0
 26 27  1  0
 26 36  1  6
 27 28  2  0
 27 32  1  0
 28 29  1  0
 29 30  2  0
 30 31  1  0
 31 32  2  0
M  CHG  1  35   1
M  END
$$$$
