
     RDKit          3D

 14 14  0  0  0  0  0  0  0  0999 V2000
  -22.7265   18.2090  -11.3449 C   0  0  0  0  0  0  0  0  0  0  0  0
  -22.6782   17.2130  -10.3981 C   0  0  0  0  0  0  0  0  0  0  0  0
  -22.5972   15.8772  -10.8342 C   0  0  0  0  0  0  0  0  0  0  0  0
  -22.6963   17.9064  -12.6879 C   0  0  0  0  0  0  0  0  0  0  0  0
  -22.6169   16.6039  -13.1140 C   0  0  0  0  0  0  0  0  0  0  0  0
  -22.5645   15.5458  -12.1631 C   0  0  0  0  0  0  0  0  0  0  0  0
  -21.9448   18.9627  -14.7633 C   0  0  0  0  0  0  0  0  0  0  0  0
  -22.4441   14.2082  -12.6588 C   0  0  0  0  0  0  0  0  0  0  0  0
  -22.4328   13.6013  -13.7695 C   0  0  0  0  0  0  0  0  0  0  0  0
  -22.0996   12.3055  -14.2613 C   0  0  0  0  0  0  0  0  0  0  0  0
  -21.9243   12.1822  -15.5658 O   0  0  0  0  0  0  0  0  0  0  0  0
  -21.9115   11.1043  -13.6395 O   0  0  0  0  0  0  0  0  0  0  0  0
  -22.8061   19.5300  -10.9619 O   0  0  0  0  0  0  0  0  0  0  0  0
  -22.7482   18.9499  -13.6058 O   0  0  0  0  0  0  0  0  0  0  0  0
  1  2  2  0
  1  4  1  0
  1 13  1  0
  2  3  1  0
  3  6  2  0
  4  5  2  0
  4 14  1  0
  5  6  1  0
  6  8  1  0
  7 14  1  6
  8  9  2  0
  9 10  1  0
 10 11  2  0
 10 12  1  0
M  END
$$$$
