
     RDKit          3D

 14 14  0  0  0  0  0  0  0  0999 V2000
  -22.7430   17.9653  -11.4686 C   0  0  0  0  0  0  0  0  0  0  0  0
  -22.7660   16.9237  -10.5711 C   0  0  0  0  0  0  0  0  0  0  0  0
  -22.6929   15.6090  -11.0683 C   0  0  0  0  0  0  0  0  0  0  0  0
  -22.6506   17.7273  -12.8217 C   0  0  0  0  0  0  0  0  0  0  0  0
  -22.5788   16.4453  -13.3073 C   0  0  0  0  0  0  0  0  0  0  0  0
  -22.5994   15.3415  -12.4086 C   0  0  0  0  0  0  0  0  0  0  0  0
  -21.9396   18.7763  -14.9150 C   0  0  0  0  0  0  0  0  0  0  0  0
  -22.4839   14.0268  -12.9634 C   0  0  0  0  0  0  0  0  0  0  0  0
  -22.0935   13.4754  -14.0338 C   0  0  0  0  0  0  0  0  0  0  0  0
  -21.9044   12.1535  -14.5323 C   0  0  0  0  0  0  0  0  0  0  0  0
  -22.0823   11.9667  -15.8289 O   0  0  0  0  0  0  0  0  0  0  0  0
  -21.5592   10.9802  -13.9248 O   0  0  0  0  0  0  0  0  0  0  0  0
  -22.8124   19.2678  -11.0251 O   0  0  0  0  0  0  0  0  0  0  0  0
  -22.6316   18.8149  -13.6882 O   0  0  0  0  0  0  0  0  0  0  0  0
  1  2  2  0
  1  4  1  0
  1 13  1  0
  2  3  1  0
  3  6  2  0
  4  5  2  0
  4 14  1  0
  5  6  1  0
  6  8  1  0
  7 14  1  6
  8  9  2  0
  9 10  1  0
 10 11  2  0
 10 12  1  0
M  END
$$$$
