
     RDKit          3D

 14 14  0  0  0  0  0  0  0  0999 V2000
  -22.8126   17.7933  -11.1531 C   0  0  0  0  0  0  0  0  0  0  0  0
  -22.8012   16.6329  -10.4154 C   0  0  0  0  0  0  0  0  0  0  0  0
  -22.7727   15.4036  -11.1003 C   0  0  0  0  0  0  0  0  0  0  0  0
  -22.7966   17.7532  -12.5295 C   0  0  0  0  0  0  0  0  0  0  0  0
  -22.7683   16.5546  -13.1981 C   0  0  0  0  0  0  0  0  0  0  0  0
  -22.7552   15.3325  -12.4683 C   0  0  0  0  0  0  0  0  0  0  0  0
  -22.3417   20.1541  -12.6574 C   0  0  0  0  0  0  0  0  0  0  0  0
  -22.6875   14.1114  -13.2124 C   0  0  0  0  0  0  0  0  0  0  0  0
  -22.4161   12.8905  -13.0171 C   0  0  0  0  0  0  0  0  0  0  0  0
  -22.3244   11.6934  -13.7853 C   0  0  0  0  0  0  0  0  0  0  0  0
  -21.9126   10.6046  -13.1586 O   0  0  0  0  0  0  0  0  0  0  0  0
  -22.5867   11.4178  -15.0968 O   0  0  0  0  0  0  0  0  0  0  0  0
  -22.8404   19.0183  -10.5233 O   0  0  0  0  0  0  0  0  0  0  0  0
  -22.8097   18.9546  -13.2297 O   0  0  0  0  0  0  0  0  0  0  0  0
  1  2  2  0
  1  4  1  0
  1 13  1  0
  2  3  1  0
  3  6  2  0
  4  5  2  0
  4 14  1  0
  5  6  1  0
  6  8  1  0
  7 14  1  6
  8  9  2  0
  9 10  1  0
 10 11  2  0
 10 12  1  0
M  END
$$$$
