
     RDKit          3D

 14 14  0  0  0  0  0  0  0  0999 V2000
  -22.9299   18.0217  -11.4418 C   0  0  0  0  0  0  0  0  0  0  0  0
  -22.9103   17.0361  -10.4832 C   0  0  0  0  0  0  0  0  0  0  0  0
  -22.8561   15.6938  -10.9033 C   0  0  0  0  0  0  0  0  0  0  0  0
  -22.8973   17.7028  -12.7811 C   0  0  0  0  0  0  0  0  0  0  0  0
  -22.8440   16.3939  -13.1914 C   0  0  0  0  0  0  0  0  0  0  0  0
  -22.8217   15.3461  -12.2280 C   0  0  0  0  0  0  0  0  0  0  0  0
  -21.9526   19.7610  -13.7078 C   0  0  0  0  0  0  0  0  0  0  0  0
  -22.7277   14.0005  -12.7073 C   0  0  0  0  0  0  0  0  0  0  0  0
  -22.5710   13.3887  -13.8043 C   0  0  0  0  0  0  0  0  0  0  0  0
  -22.3131   12.0573  -14.2431 C   0  0  0  0  0  0  0  0  0  0  0  0
  -22.1060   11.8780  -15.5365 O   0  0  0  0  0  0  0  0  0  0  0  0
  -22.2283   10.8679  -13.5776 O   0  0  0  0  0  0  0  0  0  0  0  0
  -22.9827   19.3486  -11.0748 O   0  0  0  0  0  0  0  0  0  0  0  0
  -22.9197   18.7363  -13.7113 O   0  0  0  0  0  0  0  0  0  0  0  0
  1  2  2  0
  1  4  1  0
  1 13  1  0
  2  3  1  0
  3  6  2  0
  4  5  2  0
  4 14  1  0
  5  6  1  0
  6  8  1  0
  7 14  1  6
  8  9  2  0
  9 10  1  0
 10 11  2  0
 10 12  1  0
M  END
$$$$
