
     RDKit          3D

 14 14  0  0  0  0  0  0  0  0999 V2000
  -22.7046   18.5978  -13.8591 C   0  0  0  0  0  0  0  0  0  0  0  0
  -22.6386   17.8947  -15.0390 C   0  0  0  0  0  0  0  0  0  0  0  0
  -22.5204   16.4935  -14.9784 C   0  0  0  0  0  0  0  0  0  0  0  0
  -22.6561   17.9461  -12.6470 C   0  0  0  0  0  0  0  0  0  0  0  0
  -22.5414   16.5794  -12.5872 C   0  0  0  0  0  0  0  0  0  0  0  0
  -22.4709   15.8177  -13.7878 C   0  0  0  0  0  0  0  0  0  0  0  0
  -22.9417   18.1097  -10.2223 C   0  0  0  0  0  0  0  0  0  0  0  0
  -22.3899   14.3932  -13.6707 C   0  0  0  0  0  0  0  0  0  0  0  0
  -22.4644   13.3706  -14.4129 C   0  0  0  0  0  0  0  0  0  0  0  0
  -22.1367   11.9854  -14.3378 C   0  0  0  0  0  0  0  0  0  0  0  0
  -22.1526   11.2997  -15.4680 O   0  0  0  0  0  0  0  0  0  0  0  0
  -21.7903   11.1758  -13.2940 O   0  0  0  0  0  0  0  0  0  0  0  0
  -22.8206   19.9705  -13.8724 O   0  0  0  0  0  0  0  0  0  0  0  0
  -22.7260   18.7025  -11.4822 O   0  0  0  0  0  0  0  0  0  0  0  0
  1  2  2  0
  1  4  1  0
  1 13  1  0
  2  3  1  0
  3  6  2  0
  4  5  2  0
  4 14  1  0
  5  6  1  0
  6  8  1  0
  7 14  1  6
  8  9  2  0
  9 10  1  0
 10 11  2  0
 10 12  1  0
M  END
$$$$
