
     RDKit          3D

 14 14  0  0  0  0  0  0  0  0999 V2000
  -22.8055   18.4172  -13.9471 C   0  0  0  0  0  0  0  0  0  0  0  0
  -22.7188   17.5552  -15.0151 C   0  0  0  0  0  0  0  0  0  0  0  0
  -22.5604   16.1809  -14.7558 C   0  0  0  0  0  0  0  0  0  0  0  0
  -22.7390   17.9465  -12.6547 C   0  0  0  0  0  0  0  0  0  0  0  0
  -22.5851   16.6062  -12.4012 C   0  0  0  0  0  0  0  0  0  0  0  0
  -22.4921   15.6835  -13.4812 C   0  0  0  0  0  0  0  0  0  0  0  0
  -21.9127   19.9175  -11.4630 C   0  0  0  0  0  0  0  0  0  0  0  0
  -22.3703   14.2931  -13.1626 C   0  0  0  0  0  0  0  0  0  0  0  0
  -22.8767   13.1874  -13.5135 C   0  0  0  0  0  0  0  0  0  0  0  0
  -22.4555   11.8342  -13.6659 C   0  0  0  0  0  0  0  0  0  0  0  0
  -21.9096   11.4990  -14.8223 O   0  0  0  0  0  0  0  0  0  0  0  0
  -22.4961   10.7566  -12.8279 O   0  0  0  0  0  0  0  0  0  0  0  0
  -22.9610   19.7701  -14.1556 O   0  0  0  0  0  0  0  0  0  0  0  0
  -22.8312   18.8591  -11.6094 O   0  0  0  0  0  0  0  0  0  0  0  0
  1  2  2  0
  1  4  1  0
  1 13  1  0
  2  3  1  0
  3  6  2  0
  4  5  2  0
  4 14  1  0
  5  6  1  0
  6  8  1  0
  7 14  1  6
  8  9  2  0
  9 10  1  0
 10 11  2  0
 10 12  1  0
M  END
$$$$
