
     RDKit          3D

 14 14  0  0  0  0  0  0  0  0999 V2000
  -22.7991   18.0450  -11.1790 C   0  0  0  0  0  0  0  0  0  0  0  0
  -23.0415   17.0350  -10.2779 C   0  0  0  0  0  0  0  0  0  0  0  0
  -22.9596   15.7032  -10.7261 C   0  0  0  0  0  0  0  0  0  0  0  0
  -22.4836   17.7599  -12.4888 C   0  0  0  0  0  0  0  0  0  0  0  0
  -22.4030   16.4613  -12.9263 C   0  0  0  0  0  0  0  0  0  0  0  0
  -22.6470   15.3890  -12.0223 C   0  0  0  0  0  0  0  0  0  0  0  0
  -22.6858   18.7883  -14.6999 C   0  0  0  0  0  0  0  0  0  0  0  0
  -22.5132   14.0532  -12.5195 C   0  0  0  0  0  0  0  0  0  0  0  0
  -22.4077   13.4564  -13.6307 C   0  0  0  0  0  0  0  0  0  0  0  0
  -22.2088   12.1250  -14.0994 C   0  0  0  0  0  0  0  0  0  0  0  0
  -22.3439   11.9162  -15.3978 O   0  0  0  0  0  0  0  0  0  0  0  0
  -21.8903   10.9611  -13.4601 O   0  0  0  0  0  0  0  0  0  0  0  0
  -22.8686   19.3627  -10.7829 O   0  0  0  0  0  0  0  0  0  0  0  0
  -22.2478   18.8171  -13.3610 O   0  0  0  0  0  0  0  0  0  0  0  0
  1  2  2  0
  1  4  1  0
  1 13  1  0
  2  3  1  0
  3  6  2  0
  4  5  2  0
  4 14  1  0
  5  6  1  0
  6  8  1  0
  7 14  1  6
  8  9  2  0
  9 10  1  0
 10 11  2  0
 10 12  1  0
M  END
$$$$
