
     RDKit          3D

 14 14  0  0  0  0  0  0  0  0999 V2000
  -22.7755   18.2801  -13.6909 C   0  0  0  0  0  0  0  0  0  0  0  0
  -23.1810   18.0101  -12.4049 C   0  0  0  0  0  0  0  0  0  0  0  0
  -23.1343   16.6778  -11.9534 C   0  0  0  0  0  0  0  0  0  0  0  0
  -22.3341   17.2706  -14.5170 C   0  0  0  0  0  0  0  0  0  0  0  0
  -22.2878   15.9711  -14.0769 C   0  0  0  0  0  0  0  0  0  0  0  0
  -22.6991   15.6531  -12.7517 C   0  0  0  0  0  0  0  0  0  0  0  0
  -21.8567   16.6263  -16.8288 C   0  0  0  0  0  0  0  0  0  0  0  0
  -22.5957   14.2890  -12.3299 C   0  0  0  0  0  0  0  0  0  0  0  0
  -22.5124   13.1361  -12.8457 C   0  0  0  0  0  0  0  0  0  0  0  0
  -22.3617   12.5690  -14.1447 C   0  0  0  0  0  0  0  0  0  0  0  0
  -21.6470   11.4609  -14.2399 O   0  0  0  0  0  0  0  0  0  0  0  0
  -22.8239   12.9450  -15.3735 O   0  0  0  0  0  0  0  0  0  0  0  0
  -22.8050   19.5701  -14.1736 O   0  0  0  0  0  0  0  0  0  0  0  0
  -21.9354   17.5955  -15.8090 O   0  0  0  0  0  0  0  0  0  0  0  0
  1  2  2  0
  1  4  1  0
  1 13  1  0
  2  3  1  0
  3  6  2  0
  4  5  2  0
  4 14  1  0
  5  6  1  0
  6  8  1  0
  7 14  1  6
  8  9  2  0
  9 10  1  0
 10 11  2  0
 10 12  1  0
M  END
$$$$
