
     RDKit          3D

 14 14  0  0  0  0  0  0  0  0999 V2000
  -23.0693   17.7260  -11.0569 C   0  0  0  0  0  0  0  0  0  0  0  0
  -23.1423   16.5938  -10.2764 C   0  0  0  0  0  0  0  0  0  0  0  0
  -22.9922   15.3635  -10.8711 C   0  0  0  0  0  0  0  0  0  0  0  0
  -22.8493   17.5973  -12.4044 C   0  0  0  0  0  0  0  0  0  0  0  0
  -22.7004   16.3584  -12.9898 C   0  0  0  0  0  0  0  0  0  0  0  0
  -22.7695   15.2169  -12.2308 C   0  0  0  0  0  0  0  0  0  0  0  0
  -22.0587   18.7046  -14.4317 C   0  0  0  0  0  0  0  0  0  0  0  0
  -22.6232   13.8683  -12.7680 C   0  0  0  0  0  0  0  0  0  0  0  0
  -22.6326   13.6052  -14.0611 C   0  0  0  0  0  0  0  0  0  0  0  0
  -22.3522   12.2419  -14.4971 C   0  0  0  0  0  0  0  0  0  0  0  0
  -22.3111   11.9200  -15.7057 O   0  0  0  0  0  0  0  0  0  0  0  0
  -22.1229   11.2673  -13.5451 O   0  0  0  0  0  0  0  0  0  0  0  0
  -23.2230   18.9707  -10.4437 O   0  0  0  0  0  0  0  0  0  0  0  0
  -22.7705   18.7172  -13.2179 O   0  0  0  0  0  0  0  0  0  0  0  0
  1  2  2  0
  1  4  1  0
  1 13  1  0
  2  3  1  0
  3  6  2  0
  4  5  2  0
  4 14  1  0
  5  6  1  0
  6  8  1  0
 14  7  1  0
  8  9  2  0
  9 10  1  0
 10 11  2  0
 10 12  1  0
M  END
$$$$
