
     RDKit          3D

 14 14  0  0  0  0  0  0  0  0999 V2000
  -22.6729   17.9472  -11.5934 C   0  0  0  0  0  0  0  0  0  0  0  0
  -22.6922   16.9421  -10.6552 C   0  0  0  0  0  0  0  0  0  0  0  0
  -22.6476   15.6079  -11.1015 C   0  0  0  0  0  0  0  0  0  0  0  0
  -22.6116   17.6551  -12.9377 C   0  0  0  0  0  0  0  0  0  0  0  0
  -22.5676   16.3541  -13.3736 C   0  0  0  0  0  0  0  0  0  0  0  0
  -22.5853   15.2867  -12.4318 C   0  0  0  0  0  0  0  0  0  0  0  0
  -21.6494   19.7486  -13.7617 C   0  0  0  0  0  0  0  0  0  0  0  0
  -22.4995   13.9498  -12.9364 C   0  0  0  0  0  0  0  0  0  0  0  0
  -22.5517   13.3457  -14.0475 C   0  0  0  0  0  0  0  0  0  0  0  0
  -22.3545   12.0228  -14.5402 C   0  0  0  0  0  0  0  0  0  0  0  0
  -21.8386   11.1383  -13.7040 O   0  0  0  0  0  0  0  0  0  0  0  0
  -22.5996   11.4453  -15.7532 O   0  0  0  0  0  0  0  0  0  0  0  0
  -22.7150   19.2670  -11.2005 O   0  0  0  0  0  0  0  0  0  0  0  0
  -22.5950   18.7074  -13.8466 O   0  0  0  0  0  0  0  0  0  0  0  0
  1  2  2  0
  1  4  1  0
  1 13  1  0
  2  3  1  0
  3  6  2  0
  4  5  2  0
  4 14  1  0
  5  6  1  0
  6  8  1  0
  7 14  1  6
  8  9  2  0
  9 10  1  0
 10 11  2  0
 10 12  1  0
M  END
$$$$
