
     RDKit          3D

 14 14  0  0  0  0  0  0  0  0999 V2000
  -22.8525   17.7917  -11.4475 C   0  0  0  0  0  0  0  0  0  0  0  0
  -22.8666   16.7547  -10.5444 C   0  0  0  0  0  0  0  0  0  0  0  0
  -22.7720   15.4385  -11.0341 C   0  0  0  0  0  0  0  0  0  0  0  0
  -22.7483   17.5478  -12.7987 C   0  0  0  0  0  0  0  0  0  0  0  0
  -22.6555   16.2643  -13.2768 C   0  0  0  0  0  0  0  0  0  0  0  0
  -22.6663   15.1651  -12.3723 C   0  0  0  0  0  0  0  0  0  0  0  0
  -21.9687   18.6290  -14.8507 C   0  0  0  0  0  0  0  0  0  0  0  0
  -22.5289   13.8493  -12.9191 C   0  0  0  0  0  0  0  0  0  0  0  0
  -22.4865   13.2885  -14.0531 C   0  0  0  0  0  0  0  0  0  0  0  0
  -22.1817   12.0011  -14.5835 C   0  0  0  0  0  0  0  0  0  0  0  0
  -22.0391   11.9072  -15.8945 O   0  0  0  0  0  0  0  0  0  0  0  0
  -21.9942   10.7830  -13.9954 O   0  0  0  0  0  0  0  0  0  0  0  0
  -22.9428   19.0954  -11.0115 O   0  0  0  0  0  0  0  0  0  0  0  0
  -22.7391   18.6308  -13.6709 O   0  0  0  0  0  0  0  0  0  0  0  0
  1  2  2  0
  1  4  1  0
  1 13  1  0
  2  3  1  0
  3  6  2  0
  4  5  2  0
  4 14  1  0
  5  6  1  0
  6  8  1  0
  7 14  1  6
  8  9  2  0
  9 10  1  0
 10 11  2  0
 10 12  1  0
M  END
$$$$
