
     RDKit          3D

 14 14  0  0  0  0  0  0  0  0999 V2000
  -22.6674   18.8355  -13.7794 C   0  0  0  0  0  0  0  0  0  0  0  0
  -22.7341   18.0919  -14.9365 C   0  0  0  0  0  0  0  0  0  0  0  0
  -22.7858   16.7211  -14.8459 C   0  0  0  0  0  0  0  0  0  0  0  0
  -22.6543   18.1908  -12.5690 C   0  0  0  0  0  0  0  0  0  0  0  0
  -22.7065   16.8158  -12.4904 C   0  0  0  0  0  0  0  0  0  0  0  0
  -22.7734   16.0551  -13.6309 C   0  0  0  0  0  0  0  0  0  0  0  0
  -21.3588   19.3008  -10.8224 C   0  0  0  0  0  0  0  0  0  0  0  0
  -22.8317   14.5974  -13.6387 C   0  0  0  0  0  0  0  0  0  0  0  0
  -21.8555   13.8369  -13.1803 C   0  0  0  0  0  0  0  0  0  0  0  0
  -21.9266   12.3982  -13.4091 C   0  0  0  0  0  0  0  0  0  0  0  0
  -20.9624   11.6345  -13.1783 O   0  0  0  0  0  0  0  0  0  0  0  0
  -23.0984   11.8541  -13.8983 O   0  0  0  0  0  0  0  0  0  0  0  0
  -22.6152   20.2268  -13.8819 O   0  0  0  0  0  0  0  0  0  0  0  0
  -22.5877   18.9101  -11.3857 O   0  0  0  0  0  0  0  0  0  0  0  0
  1  2  2  0
  1  4  1  0
  1 13  1  0
  2  3  1  0
  3  6  2  0
  4  5  2  0
  4 14  1  0
  5  6  1  0
  6  8  1  0
 14  7  1  0
  8  9  2  0
  9 10  1  0
 10 11  2  0
 10 12  1  0
M  END
$$$$
