
     RDKit          3D

 14 14  0  0  0  0  0  0  0  0999 V2000
  -22.1703   12.0102  -14.0072 C   0  0  0  0  0  0  0  0  0  0  0  0
  -22.3230   12.2392  -12.6579 C   0  0  0  0  0  0  0  0  0  0  0  0
  -22.4386   13.5340  -12.2106 C   0  0  0  0  0  0  0  0  0  0  0  0
  -22.1375   13.0772  -14.8680 C   0  0  0  0  0  0  0  0  0  0  0  0
  -22.2543   14.3712  -14.4080 C   0  0  0  0  0  0  0  0  0  0  0  0
  -22.4073   14.6225  -13.0674 C   0  0  0  0  0  0  0  0  0  0  0  0
  -21.3124   13.8112  -17.0455 C   0  0  0  0  0  0  0  0  0  0  0  0
  -22.5381   15.9585  -12.4961 C   0  0  0  0  0  0  0  0  0  0  0  0
  -22.5243   17.0570  -13.2272 C   0  0  0  0  0  0  0  0  0  0  0  0
  -22.5643   18.3470  -12.5479 C   0  0  0  0  0  0  0  0  0  0  0  0
  -22.8066   18.4531  -11.3248 O   0  0  0  0  0  0  0  0  0  0  0  0
  -22.3268   19.4963  -13.2769 O   0  0  0  0  0  0  0  0  0  0  0  0
  -22.0537   10.6919  -14.4515 O   0  0  0  0  0  0  0  0  0  0  0  0
  -21.9850   12.8807  -16.2319 O   0  0  0  0  0  0  0  0  0  0  0  0
  1  2  2  0
  1  4  1  0
  1 13  1  0
  2  3  1  0
  3  6  2  0
  4  5  2  0
  4 14  1  0
  5  6  1  0
  6  8  1  0
 14  7  1  0
  8  9  2  0
  9 10  1  0
 10 11  2  0
 10 12  1  0
M  END
$$$$
