
     RDKit          3D

 14 14  0  0  0  0  0  0  0  0999 V2000
  -22.9042   18.2947  -11.3693 C   0  0  0  0  0  0  0  0  0  0  0  0
  -22.9830   17.2739  -10.4513 C   0  0  0  0  0  0  0  0  0  0  0  0
  -22.8882   15.9480  -10.9139 C   0  0  0  0  0  0  0  0  0  0  0  0
  -22.7366   18.0257  -12.7094 C   0  0  0  0  0  0  0  0  0  0  0  0
  -22.6437   16.7327  -13.1611 C   0  0  0  0  0  0  0  0  0  0  0  0
  -22.7204   15.6497  -12.2404 C   0  0  0  0  0  0  0  0  0  0  0  0
  -22.3715   18.9056  -14.9633 C   0  0  0  0  0  0  0  0  0  0  0  0
  -22.5800   14.3224  -12.7580 C   0  0  0  0  0  0  0  0  0  0  0  0
  -22.4611   13.7440  -13.8776 C   0  0  0  0  0  0  0  0  0  0  0  0
  -22.1596   12.4389  -14.3650 C   0  0  0  0  0  0  0  0  0  0  0  0
  -22.1413   12.2743  -15.6766 O   0  0  0  0  0  0  0  0  0  0  0  0
  -21.8690   11.2637  -13.7331 O   0  0  0  0  0  0  0  0  0  0  0  0
  -22.9922   19.6072  -10.9600 O   0  0  0  0  0  0  0  0  0  0  0  0
  -22.6633   19.0932  -13.5976 O   0  0  0  0  0  0  0  0  0  0  0  0
  1  2  2  0
  1  4  1  0
  1 13  1  0
  2  3  1  0
  3  6  2  0
  4  5  2  0
  4 14  1  0
  5  6  1  0
  6  8  1  0
  7 14  1  6
  8  9  2  0
  9 10  1  0
 10 11  2  0
 10 12  1  0
M  END
$$$$
