
     RDKit          3D

 14 14  0  0  0  0  0  0  0  0999 V2000
  -22.8512   17.6558  -10.9363 C   0  0  0  0  0  0  0  0  0  0  0  0
  -22.8355   16.5211  -10.1563 C   0  0  0  0  0  0  0  0  0  0  0  0
  -22.7470   15.2930  -10.7678 C   0  0  0  0  0  0  0  0  0  0  0  0
  -22.7784   17.5319  -12.3001 C   0  0  0  0  0  0  0  0  0  0  0  0
  -22.6899   16.2952  -12.9023 C   0  0  0  0  0  0  0  0  0  0  0  0
  -22.6727   15.1512  -12.1441 C   0  0  0  0  0  0  0  0  0  0  0  0
  -21.9178   18.7886  -14.2082 C   0  0  0  0  0  0  0  0  0  0  0  0
  -22.5814   13.8048  -12.6985 C   0  0  0  0  0  0  0  0  0  0  0  0
  -22.3509   13.5680  -13.9760 C   0  0  0  0  0  0  0  0  0  0  0  0
  -22.1670   12.1867  -14.4068 C   0  0  0  0  0  0  0  0  0  0  0  0
  -21.9729   11.8784  -15.6040 O   0  0  0  0  0  0  0  0  0  0  0  0
  -22.2078   11.1789  -13.4629 O   0  0  0  0  0  0  0  0  0  0  0  0
  -22.9413   18.8981  -10.3059 O   0  0  0  0  0  0  0  0  0  0  0  0
  -22.7918   18.6544  -13.1137 O   0  0  0  0  0  0  0  0  0  0  0  0
  1  2  2  0
  1  4  1  0
  1 13  1  0
  2  3  1  0
  3  6  2  0
  4  5  2  0
  4 14  1  0
  5  6  1  0
  6  8  1  0
 14  7  1  0
  8  9  2  0
  9 10  1  0
 10 11  2  0
 10 12  1  0
M  END
$$$$
