
     RDKit          3D

 14 14  0  0  0  0  0  0  0  0999 V2000
  -22.9181   18.1387  -11.6370 C   0  0  0  0  0  0  0  0  0  0  0  0
  -23.1787   17.1371  -10.7316 C   0  0  0  0  0  0  0  0  0  0  0  0
  -23.0804   15.8011  -11.1635 C   0  0  0  0  0  0  0  0  0  0  0  0
  -22.5694   17.8414  -12.9355 C   0  0  0  0  0  0  0  0  0  0  0  0
  -22.4728   16.5385  -13.3573 C   0  0  0  0  0  0  0  0  0  0  0  0
  -22.7347   15.4748  -12.4483 C   0  0  0  0  0  0  0  0  0  0  0  0
  -22.7959   18.8839  -15.1377 C   0  0  0  0  0  0  0  0  0  0  0  0
  -22.5833   14.1344  -12.9280 C   0  0  0  0  0  0  0  0  0  0  0  0
  -22.6506   13.5007  -14.0216 C   0  0  0  0  0  0  0  0  0  0  0  0
  -22.2641   12.2257  -14.5285 C   0  0  0  0  0  0  0  0  0  0  0  0
  -22.2898   12.0653  -15.8405 O   0  0  0  0  0  0  0  0  0  0  0  0
  -21.8502   11.0775  -13.9160 O   0  0  0  0  0  0  0  0  0  0  0  0
  -23.0026   19.4601  -11.2566 O   0  0  0  0  0  0  0  0  0  0  0  0
  -22.3164   18.8903  -13.8128 O   0  0  0  0  0  0  0  0  0  0  0  0
  1  2  2  0
  1  4  1  0
  1 13  1  0
  2  3  1  0
  3  6  2  0
  4  5  2  0
  4 14  1  0
  5  6  1  0
  6  8  1  0
  7 14  1  6
  8  9  2  0
  9 10  1  0
 10 11  2  0
 10 12  1  0
M  END
$$$$
