
     RDKit          3D

 14 14  0  0  0  0  0  0  0  0999 V2000
  -23.0194   18.0637  -11.4786 C   0  0  0  0  0  0  0  0  0  0  0  0
  -23.2046   17.0824  -10.5333 C   0  0  0  0  0  0  0  0  0  0  0  0
  -23.0560   15.7386  -10.9246 C   0  0  0  0  0  0  0  0  0  0  0  0
  -22.6962   17.7390  -12.7773 C   0  0  0  0  0  0  0  0  0  0  0  0
  -22.5507   16.4286  -13.1593 C   0  0  0  0  0  0  0  0  0  0  0  0
  -22.7341   15.3852  -12.2084 C   0  0  0  0  0  0  0  0  0  0  0  0
  -22.9239   18.6429  -15.0397 C   0  0  0  0  0  0  0  0  0  0  0  0
  -22.5338   14.0379  -12.6489 C   0  0  0  0  0  0  0  0  0  0  0  0
  -22.7052   13.3410  -13.6915 C   0  0  0  0  0  0  0  0  0  0  0  0
  -22.3757   12.0334  -14.1534 C   0  0  0  0  0  0  0  0  0  0  0  0
  -22.5134   11.7981  -15.4470 O   0  0  0  0  0  0  0  0  0  0  0  0
  -21.9232   10.9162  -13.5114 O   0  0  0  0  0  0  0  0  0  0  0  0
  -23.1551   19.3920  -11.1388 O   0  0  0  0  0  0  0  0  0  0  0  0
  -22.5200   18.7683  -13.6957 O   0  0  0  0  0  0  0  0  0  0  0  0
  1  2  2  0
  1  4  1  0
  1 13  1  0
  2  3  1  0
  3  6  2  0
  4  5  2  0
  4 14  1  0
  5  6  1  0
  6  8  1  0
  7 14  1  6
  8  9  2  0
  9 10  1  0
 10 11  2  0
 10 12  1  0
M  END
$$$$
