
     RDKit          3D

 14 14  0  0  0  0  0  0  0  0999 V2000
  -23.0226   17.5645  -11.1584 C   0  0  0  0  0  0  0  0  0  0  0  0
  -23.0453   16.4341  -10.3722 C   0  0  0  0  0  0  0  0  0  0  0  0
  -22.9144   15.2034  -10.9706 C   0  0  0  0  0  0  0  0  0  0  0  0
  -22.8702   17.4338  -12.5149 C   0  0  0  0  0  0  0  0  0  0  0  0
  -22.7398   16.1945  -13.1039 C   0  0  0  0  0  0  0  0  0  0  0  0
  -22.7597   15.0547  -12.3395 C   0  0  0  0  0  0  0  0  0  0  0  0
  -21.9752   18.6426  -14.4381 C   0  0  0  0  0  0  0  0  0  0  0  0
  -22.6286   13.7059  -12.8799 C   0  0  0  0  0  0  0  0  0  0  0  0
  -22.5626   13.4535  -14.1735 C   0  0  0  0  0  0  0  0  0  0  0  0
  -22.2355   12.0989  -14.6037 C   0  0  0  0  0  0  0  0  0  0  0  0
  -22.1115   11.7904  -15.8101 O   0  0  0  0  0  0  0  0  0  0  0  0
  -22.0550   11.1172  -13.6485 O   0  0  0  0  0  0  0  0  0  0  0  0
  -23.1563   18.8096  -10.5413 O   0  0  0  0  0  0  0  0  0  0  0  0
  -22.8432   18.5518  -13.3343 O   0  0  0  0  0  0  0  0  0  0  0  0
  1  2  2  0
  1  4  1  0
  1 13  1  0
  2  3  1  0
  3  6  2  0
  4  5  2  0
  4 14  1  0
  5  6  1  0
  6  8  1  0
 14  7  1  0
  8  9  2  0
  9 10  1  0
 10 11  2  0
 10 12  1  0
M  END
$$$$
