
     RDKit          3D

 14 14  0  0  0  0  0  0  0  0999 V2000
  -23.1625   17.6959  -11.0718 C   0  0  0  0  0  0  0  0  0  0  0  0
  -23.2261   16.4440  -10.5018 C   0  0  0  0  0  0  0  0  0  0  0  0
  -23.1717   15.3375  -11.3158 C   0  0  0  0  0  0  0  0  0  0  0  0
  -23.0466   17.8065  -12.4338 C   0  0  0  0  0  0  0  0  0  0  0  0
  -22.9929   16.6899  -13.2401 C   0  0  0  0  0  0  0  0  0  0  0  0
  -23.0547   15.4325  -12.6932 C   0  0  0  0  0  0  0  0  0  0  0  0
  -22.5077   19.2143  -14.3543 C   0  0  0  0  0  0  0  0  0  0  0  0
  -23.0048   14.1995  -13.4715 C   0  0  0  0  0  0  0  0  0  0  0  0
  -22.3604   13.1210  -13.0682 C   0  0  0  0  0  0  0  0  0  0  0  0
  -22.2799   11.9784  -13.9712 C   0  0  0  0  0  0  0  0  0  0  0  0
  -21.7006   10.9148  -13.6563 O   0  0  0  0  0  0  0  0  0  0  0  0
  -22.8628   12.0689  -15.2204 O   0  0  0  0  0  0  0  0  0  0  0  0
  -23.2186   18.8132  -10.2367 O   0  0  0  0  0  0  0  0  0  0  0  0
  -22.9801   19.0521  -13.0388 O   0  0  0  0  0  0  0  0  0  0  0  0
  1  2  2  0
  1  4  1  0
  1 13  1  0
  2  3  1  0
  3  6  2  0
  4  5  2  0
  4 14  1  0
  5  6  1  0
  6  8  1  0
 14  7  1  0
  8  9  2  0
  9 10  1  0
 10 11  2  0
 10 12  1  0
M  END
$$$$
