
     RDKit          3D

 14 14  0  0  0  0  0  0  0  0999 V2000
  -22.7739   18.1324  -11.5005 C   0  0  0  0  0  0  0  0  0  0  0  0
  -23.0053   17.1676  -10.5485 C   0  0  0  0  0  0  0  0  0  0  0  0
  -22.9300   15.8156  -10.9325 C   0  0  0  0  0  0  0  0  0  0  0  0
  -22.4756   17.7838  -12.7989 C   0  0  0  0  0  0  0  0  0  0  0  0
  -22.4016   16.4654  -13.1740 C   0  0  0  0  0  0  0  0  0  0  0  0
  -22.6345   15.4385  -12.2160 C   0  0  0  0  0  0  0  0  0  0  0  0
  -22.8519   18.7878  -14.9985 C   0  0  0  0  0  0  0  0  0  0  0  0
  -22.5081   14.0800  -12.6495 C   0  0  0  0  0  0  0  0  0  0  0  0
  -22.5534   13.4154  -13.7258 C   0  0  0  0  0  0  0  0  0  0  0  0
  -22.1142   12.1456  -14.2017 C   0  0  0  0  0  0  0  0  0  0  0  0
  -22.1333   11.9521  -15.5094 O   0  0  0  0  0  0  0  0  0  0  0  0
  -21.6526   11.0310  -13.5618 O   0  0  0  0  0  0  0  0  0  0  0  0
  -22.8373   19.4679  -11.1678 O   0  0  0  0  0  0  0  0  0  0  0  0
  -22.2505   18.7971  -13.7243 O   0  0  0  0  0  0  0  0  0  0  0  0
  1  2  2  0
  1  4  1  0
  1 13  1  0
  2  3  1  0
  3  6  2  0
  4  5  2  0
  4 14  1  0
  5  6  1  0
  6  8  1  0
  7 14  1  6
  8  9  2  0
  9 10  1  0
 10 11  2  0
 10 12  1  0
M  END
$$$$
