
     RDKit          3D

 14 14  0  0  0  0  0  0  0  0999 V2000
  -23.2011   17.6120  -11.3004 C   0  0  0  0  0  0  0  0  0  0  0  0
  -23.3235   16.4802  -10.5256 C   0  0  0  0  0  0  0  0  0  0  0  0
  -23.0934   15.2520  -11.0988 C   0  0  0  0  0  0  0  0  0  0  0  0
  -22.8537   17.4852  -12.6209 C   0  0  0  0  0  0  0  0  0  0  0  0
  -22.6254   16.2484  -13.1849 C   0  0  0  0  0  0  0  0  0  0  0  0
  -22.7417   15.1072  -12.4312 C   0  0  0  0  0  0  0  0  0  0  0  0
  -23.8111   19.4512  -13.7066 C   0  0  0  0  0  0  0  0  0  0  0  0
  -22.5184   13.7609  -12.9470 C   0  0  0  0  0  0  0  0  0  0  0  0
  -22.5863   13.4630  -14.2307 C   0  0  0  0  0  0  0  0  0  0  0  0
  -22.2743   12.1007  -14.6476 C   0  0  0  0  0  0  0  0  0  0  0  0
  -22.3555   11.7295  -15.8400 O   0  0  0  0  0  0  0  0  0  0  0  0
  -21.8742   11.1831  -13.6955 O   0  0  0  0  0  0  0  0  0  0  0  0
  -23.4368   18.8545  -10.7091 O   0  0  0  0  0  0  0  0  0  0  0  0
  -22.7221   18.6048  -13.4280 O   0  0  0  0  0  0  0  0  0  0  0  0
  1  2  2  0
  1  4  1  0
  1 13  1  0
  2  3  1  0
  3  6  2  0
  4  5  2  0
  4 14  1  0
  5  6  1  0
  6  8  1  0
 14  7  1  0
  8  9  2  0
  9 10  1  0
 10 11  2  0
 10 12  1  0
M  END
$$$$
