
     RDKit          3D

 14 14  0  0  0  0  0  0  0  0999 V2000
  -22.9224   18.2958  -11.4429 C   0  0  0  0  0  0  0  0  0  0  0  0
  -22.9571   17.2883  -10.5077 C   0  0  0  0  0  0  0  0  0  0  0  0
  -22.7970   15.9606  -10.9468 C   0  0  0  0  0  0  0  0  0  0  0  0
  -22.7355   18.0121  -12.7774 C   0  0  0  0  0  0  0  0  0  0  0  0
  -22.5789   16.7175  -13.2062 C   0  0  0  0  0  0  0  0  0  0  0  0
  -22.6085   15.6480  -12.2672 C   0  0  0  0  0  0  0  0  0  0  0  0
  -22.1729   18.9206  -14.9787 C   0  0  0  0  0  0  0  0  0  0  0  0
  -22.4026   14.3202  -12.7611 C   0  0  0  0  0  0  0  0  0  0  0  0
  -22.6683   13.6353  -13.7919 C   0  0  0  0  0  0  0  0  0  0  0  0
  -22.3018   12.3734  -14.3443 C   0  0  0  0  0  0  0  0  0  0  0  0
  -22.2253   12.2910  -15.6616 O   0  0  0  0  0  0  0  0  0  0  0  0
  -21.9954   11.1714  -13.7731 O   0  0  0  0  0  0  0  0  0  0  0  0
  -23.0748   19.6094  -11.0567 O   0  0  0  0  0  0  0  0  0  0  0  0
  -22.7087   19.0665  -13.6837 O   0  0  0  0  0  0  0  0  0  0  0  0
  1  2  2  0
  1  4  1  0
  1 13  1  0
  2  3  1  0
  3  6  2  0
  4  5  2  0
  4 14  1  0
  5  6  1  0
  6  8  1  0
  7 14  1  6
  8  9  2  0
  9 10  1  0
 10 11  2  0
 10 12  1  0
M  END
$$$$
