
     RDKit          3D

 14 14  0  0  0  0  0  0  0  0999 V2000
  -22.6414   18.8670  -14.0421 C   0  0  0  0  0  0  0  0  0  0  0  0
  -22.4168   18.0407  -15.1181 C   0  0  0  0  0  0  0  0  0  0  0  0
  -22.3790   16.6509  -14.8991 C   0  0  0  0  0  0  0  0  0  0  0  0
  -22.8248   18.3467  -12.7804 C   0  0  0  0  0  0  0  0  0  0  0  0
  -22.7885   16.9912  -12.5663 C   0  0  0  0  0  0  0  0  0  0  0  0
  -22.5589   16.1043  -13.6559 C   0  0  0  0  0  0  0  0  0  0  0  0
  -21.9915   19.9043  -11.0871 C   0  0  0  0  0  0  0  0  0  0  0  0
  -22.5681   14.6985  -13.3856 C   0  0  0  0  0  0  0  0  0  0  0  0
  -22.6331   13.6064  -14.0222 C   0  0  0  0  0  0  0  0  0  0  0  0
  -22.2756   12.2419  -13.8171 C   0  0  0  0  0  0  0  0  0  0  0  0
  -22.4555   11.4123  -14.8306 O   0  0  0  0  0  0  0  0  0  0  0  0
  -21.7587   11.5764  -12.7425 O   0  0  0  0  0  0  0  0  0  0  0  0
  -22.6863   20.2336  -14.2114 O   0  0  0  0  0  0  0  0  0  0  0  0
  -23.0480   19.2246  -11.7253 O   0  0  0  0  0  0  0  0  0  0  0  0
  1  2  2  0
  1  4  1  0
  1 13  1  0
  2  3  1  0
  3  6  2  0
  4  5  2  0
  4 14  1  0
  5  6  1  0
  6  8  1  0
  7 14  1  6
  8  9  2  0
  9 10  1  0
 10 11  2  0
 10 12  1  0
M  END
$$$$
