
     RDKit          3D

 14 14  0  0  0  0  0  0  0  0999 V2000
  -22.9780   17.5380  -11.1727 C   0  0  0  0  0  0  0  0  0  0  0  0
  -23.1170   16.4029  -10.4055 C   0  0  0  0  0  0  0  0  0  0  0  0
  -22.9512   15.1735  -10.9979 C   0  0  0  0  0  0  0  0  0  0  0  0
  -22.6784   17.4130  -12.5050 C   0  0  0  0  0  0  0  0  0  0  0  0
  -22.5144   16.1750  -13.0883 C   0  0  0  0  0  0  0  0  0  0  0  0
  -22.6484   15.0307  -12.3425 C   0  0  0  0  0  0  0  0  0  0  0  0
  -22.8228   18.5101  -14.6814 C   0  0  0  0  0  0  0  0  0  0  0  0
  -22.4918   13.6828  -12.8785 C   0  0  0  0  0  0  0  0  0  0  0  0
  -22.5451   13.4123  -14.1690 C   0  0  0  0  0  0  0  0  0  0  0  0
  -22.2433   12.0551  -14.6097 C   0  0  0  0  0  0  0  0  0  0  0  0
  -22.2579   11.7235  -15.8163 O   0  0  0  0  0  0  0  0  0  0  0  0
  -21.9294   11.0975  -13.6648 O   0  0  0  0  0  0  0  0  0  0  0  0
  -23.1483   18.7816  -10.5618 O   0  0  0  0  0  0  0  0  0  0  0  0
  -22.5317   18.5359  -13.3050 O   0  0  0  0  0  0  0  0  0  0  0  0
  1  2  2  0
  1  4  1  0
  1 13  1  0
  2  3  1  0
  3  6  2  0
  4  5  2  0
  4 14  1  0
  5  6  1  0
  6  8  1  0
 14  7  1  0
  8  9  2  0
  9 10  1  0
 10 11  2  0
 10 12  1  0
M  END
$$$$
