
     RDKit          3D

 14 14  0  0  0  0  0  0  0  0999 V2000
  -22.9080   17.7148  -10.7067 C   0  0  0  0  0  0  0  0  0  0  0  0
  -22.7964   16.4367  -10.2063 C   0  0  0  0  0  0  0  0  0  0  0  0
  -22.5188   15.4044  -11.0706 C   0  0  0  0  0  0  0  0  0  0  0  0
  -22.7396   17.9244  -12.0515 C   0  0  0  0  0  0  0  0  0  0  0  0
  -22.4615   16.8815  -12.9087 C   0  0  0  0  0  0  0  0  0  0  0  0
  -22.3460   15.5998  -12.4315 C   0  0  0  0  0  0  0  0  0  0  0  0
  -22.4208   19.4917  -13.8962 C   0  0  0  0  0  0  0  0  0  0  0  0
  -22.0542   14.4399  -13.2670 C   0  0  0  0  0  0  0  0  0  0  0  0
  -22.4917   13.2263  -12.9894 C   0  0  0  0  0  0  0  0  0  0  0  0
  -22.2229   12.1539  -13.9407 C   0  0  0  0  0  0  0  0  0  0  0  0
  -22.6530   10.9901  -13.7777 O   0  0  0  0  0  0  0  0  0  0  0  0
  -21.4665   12.4279  -15.0638 O   0  0  0  0  0  0  0  0  0  0  0  0
  -23.1901   18.7563   -9.8210 O   0  0  0  0  0  0  0  0  0  0  0  0
  -22.8454   19.1988  -12.5870 O   0  0  0  0  0  0  0  0  0  0  0  0
  1  2  2  0
  1  4  1  0
  1 13  1  0
  2  3  1  0
  3  6  2  0
  4  5  2  0
  4 14  1  0
  5  6  1  0
  6  8  1  0
 14  7  1  0
  8  9  2  0
  9 10  1  0
 10 11  2  0
 10 12  1  0
M  END
$$$$
