
     RDKit          3D

 14 14  0  0  0  0  0  0  0  0999 V2000
  -22.1362   12.0162  -14.2882 C   0  0  0  0  0  0  0  0  0  0  0  0
  -22.4108   11.9963  -12.9409 C   0  0  0  0  0  0  0  0  0  0  0  0
  -22.5187   13.2240  -12.2609 C   0  0  0  0  0  0  0  0  0  0  0  0
  -21.9707   13.2091  -14.9559 C   0  0  0  0  0  0  0  0  0  0  0  0
  -22.0763   14.4067  -14.2934 C   0  0  0  0  0  0  0  0  0  0  0  0
  -22.3602   14.4260  -12.8985 C   0  0  0  0  0  0  0  0  0  0  0  0
  -22.5493   12.5331  -17.2354 C   0  0  0  0  0  0  0  0  0  0  0  0
  -22.4974   15.7014  -12.2629 C   0  0  0  0  0  0  0  0  0  0  0  0
  -22.4381   16.9287  -12.5670 C   0  0  0  0  0  0  0  0  0  0  0  0
  -22.5704   18.1867  -11.9100 C   0  0  0  0  0  0  0  0  0  0  0  0
  -22.5526   19.2686  -12.6695 O   0  0  0  0  0  0  0  0  0  0  0  0
  -22.7212   18.5289  -10.5966 O   0  0  0  0  0  0  0  0  0  0  0  0
  -22.0221   10.8378  -14.9927 O   0  0  0  0  0  0  0  0  0  0  0  0
  -21.6938   13.1754  -16.3183 O   0  0  0  0  0  0  0  0  0  0  0  0
  1  2  2  0
  1  4  1  0
  1 13  1  0
  2  3  1  0
  3  6  2  0
  4  5  2  0
  4 14  1  0
  5  6  1  0
  6  8  1  0
  7 14  1  6
  8  9  2  0
  9 10  1  0
 10 11  2  0
 10 12  1  0
M  END
$$$$
