
     RDKit          3D

 14 14  0  0  0  0  0  0  0  0999 V2000
  -22.7760   18.0731  -11.5039 C   0  0  0  0  0  0  0  0  0  0  0  0
  -22.8155   17.0257  -10.6138 C   0  0  0  0  0  0  0  0  0  0  0  0
  -22.8601   15.7145  -11.1236 C   0  0  0  0  0  0  0  0  0  0  0  0
  -22.7801   17.8442  -12.8618 C   0  0  0  0  0  0  0  0  0  0  0  0
  -22.8232   16.5656  -13.3596 C   0  0  0  0  0  0  0  0  0  0  0  0
  -22.8643   15.4559  -12.4689 C   0  0  0  0  0  0  0  0  0  0  0  0
  -22.4556   18.7949  -15.0930 C   0  0  0  0  0  0  0  0  0  0  0  0
  -22.8701   14.1426  -13.0385 C   0  0  0  0  0  0  0  0  0  0  0  0
  -22.0614   13.3394  -13.5890 C   0  0  0  0  0  0  0  0  0  0  0  0
  -22.0906   12.0270  -14.1445 C   0  0  0  0  0  0  0  0  0  0  0  0
  -20.9415   11.5223  -14.5601 O   0  0  0  0  0  0  0  0  0  0  0  0
  -23.1041   11.1344  -14.3470 O   0  0  0  0  0  0  0  0  0  0  0  0
  -22.7316   19.3725  -11.0482 O   0  0  0  0  0  0  0  0  0  0  0  0
  -22.7397   18.9375  -13.7203 O   0  0  0  0  0  0  0  0  0  0  0  0
  1  2  2  0
  1  4  1  0
  1 13  1  0
  2  3  1  0
  3  6  2  0
  4  5  2  0
  4 14  1  0
  5  6  1  0
  6  8  1  0
  7 14  1  6
  8  9  2  0
  9 10  1  0
 10 11  2  0
 10 12  1  0
M  END
$$$$
