
     RDKit          3D

 14 14  0  0  0  0  0  0  0  0999 V2000
  -23.4025   18.5109  -13.4061 C   0  0  0  0  0  0  0  0  0  0  0  0
  -24.4168   17.5839  -13.3535 C   0  0  0  0  0  0  0  0  0  0  0  0
  -24.0783   16.2298  -13.1722 C   0  0  0  0  0  0  0  0  0  0  0  0
  -22.0868   18.1232  -13.2843 C   0  0  0  0  0  0  0  0  0  0  0  0
  -21.7560   16.8028  -13.1069 C   0  0  0  0  0  0  0  0  0  0  0  0
  -22.7789   15.8145  -13.0469 C   0  0  0  0  0  0  0  0  0  0  0  0
  -21.0937   20.0926  -14.3439 C   0  0  0  0  0  0  0  0  0  0  0  0
  -22.3831   14.4571  -12.8228 C   0  0  0  0  0  0  0  0  0  0  0  0
  -22.7354   13.2922  -13.1710 C   0  0  0  0  0  0  0  0  0  0  0  0
  -22.1278   12.0158  -13.3535 C   0  0  0  0  0  0  0  0  0  0  0  0
  -22.2645   11.4467  -14.5389 O   0  0  0  0  0  0  0  0  0  0  0  0
  -21.3958   11.2165  -12.5227 O   0  0  0  0  0  0  0  0  0  0  0  0
  -23.6891   19.8469  -13.5823 O   0  0  0  0  0  0  0  0  0  0  0  0
  -21.0979   19.0991  -13.3447 O   0  0  0  0  0  0  0  0  0  0  0  0
  1  2  2  0
  1  4  1  0
  1 13  1  0
  2  3  1  0
  3  6  2  0
  4  5  2  0
  4 14  1  0
  5  6  1  0
  6  8  1  0
  7 14  1  6
  8  9  2  0
  9 10  1  0
 10 11  2  0
 10 12  1  0
M  END
$$$$
