
     RDKit          3D

 14 14  0  0  0  0  0  0  0  0999 V2000
  -22.8903   17.8984  -11.2830 C   0  0  0  0  0  0  0  0  0  0  0  0
  -22.9046   16.7400  -10.5422 C   0  0  0  0  0  0  0  0  0  0  0  0
  -22.8954   15.5086  -11.2238 C   0  0  0  0  0  0  0  0  0  0  0  0
  -22.8676   17.8544  -12.6591 C   0  0  0  0  0  0  0  0  0  0  0  0
  -22.8582   16.6536  -13.3245 C   0  0  0  0  0  0  0  0  0  0  0  0
  -22.8719   15.4334  -12.5914 C   0  0  0  0  0  0  0  0  0  0  0  0
  -22.3462   19.1416  -14.6738 C   0  0  0  0  0  0  0  0  0  0  0  0
  -22.8230   14.2093  -13.3320 C   0  0  0  0  0  0  0  0  0  0  0  0
  -22.3070   13.0575  -13.2356 C   0  0  0  0  0  0  0  0  0  0  0  0
  -22.1796   11.8871  -14.0391 C   0  0  0  0  0  0  0  0  0  0  0  0
  -21.6223   10.8278  -13.4778 O   0  0  0  0  0  0  0  0  0  0  0  0
  -22.5305   11.6130  -15.3302 O   0  0  0  0  0  0  0  0  0  0  0  0
  -22.8986   19.1254  -10.6565 O   0  0  0  0  0  0  0  0  0  0  0  0
  -22.8545   19.0539  -13.3625 O   0  0  0  0  0  0  0  0  0  0  0  0
  1  2  2  0
  1  4  1  0
  1 13  1  0
  2  3  1  0
  3  6  2  0
  4  5  2  0
  4 14  1  0
  5  6  1  0
  6  8  1  0
  7 14  1  6
  8  9  2  0
  9 10  1  0
 10 11  2  0
 10 12  1  0
M  END
$$$$
