
     RDKit          3D

 14 14  0  0  0  0  0  0  0  0999 V2000
  -23.2725   17.7160  -11.3991 C   0  0  0  0  0  0  0  0  0  0  0  0
  -23.3225   16.4670  -10.8213 C   0  0  0  0  0  0  0  0  0  0  0  0
  -23.2672   15.3562  -11.6293 C   0  0  0  0  0  0  0  0  0  0  0  0
  -23.1690   17.8193  -12.7627 C   0  0  0  0  0  0  0  0  0  0  0  0
  -23.1143   16.6984  -13.5629 C   0  0  0  0  0  0  0  0  0  0  0  0
  -23.1626   15.4439  -13.0082 C   0  0  0  0  0  0  0  0  0  0  0  0
  -22.0192   19.9267  -13.2074 C   0  0  0  0  0  0  0  0  0  0  0  0
  -23.1107   14.2067  -13.7797 C   0  0  0  0  0  0  0  0  0  0  0  0
  -22.6075   13.0837  -13.3034 C   0  0  0  0  0  0  0  0  0  0  0  0
  -22.4777   11.9419  -14.2015 C   0  0  0  0  0  0  0  0  0  0  0  0
  -22.0084   10.8441  -13.8264 O   0  0  0  0  0  0  0  0  0  0  0  0
  -22.8863   12.0720  -15.5148 O   0  0  0  0  0  0  0  0  0  0  0  0
  -23.3293   18.8378  -10.5702 O   0  0  0  0  0  0  0  0  0  0  0  0
  -23.1163   19.0619  -13.3755 O   0  0  0  0  0  0  0  0  0  0  0  0
  1  2  2  0
  1  4  1  0
  1 13  1  0
  2  3  1  0
  3  6  2  0
  4  5  2  0
  4 14  1  0
  5  6  1  0
  6  8  1  0
 14  7  1  0
  8  9  2  0
  9 10  1  0
 10 11  2  0
 10 12  1  0
M  END
$$$$
