
     RDKit          3D

 14 14  0  0  0  0  0  0  0  0999 V2000
  -23.0254   18.2037  -11.6670 C   0  0  0  0  0  0  0  0  0  0  0  0
  -23.0779   17.2343  -10.6931 C   0  0  0  0  0  0  0  0  0  0  0  0
  -22.9984   15.8850  -11.0859 C   0  0  0  0  0  0  0  0  0  0  0  0
  -22.8981   17.8622  -12.9949 C   0  0  0  0  0  0  0  0  0  0  0  0
  -22.8201   16.5464  -13.3785 C   0  0  0  0  0  0  0  0  0  0  0  0
  -22.8705   15.5150  -12.3987 C   0  0  0  0  0  0  0  0  0  0  0  0
  -21.9444   19.9538  -13.8335 C   0  0  0  0  0  0  0  0  0  0  0  0
  -22.7471   14.1612  -12.8476 C   0  0  0  0  0  0  0  0  0  0  0  0
  -22.6372   13.5248  -13.9362 C   0  0  0  0  0  0  0  0  0  0  0  0
  -22.3864   12.1858  -14.3556 C   0  0  0  0  0  0  0  0  0  0  0  0
  -22.3683   11.9549  -15.6572 O   0  0  0  0  0  0  0  0  0  0  0  0
  -22.1467   11.0331  -13.6638 O   0  0  0  0  0  0  0  0  0  0  0  0
  -23.0998   19.5367  -11.3268 O   0  0  0  0  0  0  0  0  0  0  0  0
  -22.8502   18.8799  -13.9414 O   0  0  0  0  0  0  0  0  0  0  0  0
  1  2  2  0
  1  4  1  0
  1 13  1  0
  2  3  1  0
  3  6  2  0
  4  5  2  0
  4 14  1  0
  5  6  1  0
  6  8  1  0
  7 14  1  6
  8  9  2  0
  9 10  1  0
 10 11  2  0
 10 12  1  0
M  END
$$$$
