
     RDKit          3D

 24 27  0  0  0  0  0  0  0  0999 V2000
  -22.3130   18.6246  -12.3468 C   0  0  0  0  0  0  0  0  0  0  0  0
  -23.2538   21.6535  -10.6600 C   0  0  0  0  0  0  0  0  0  0  0  0
  -22.7649   23.0678   -8.8283 C   0  0  0  0  0  0  0  0  0  0  0  0
  -24.4578   21.3558  -10.0634 C   0  0  0  0  0  0  0  0  0  0  0  0
  -24.3628   19.0496  -11.7733 C   0  0  0  0  0  0  0  0  0  0  0  0
  -24.2685   17.6914  -11.9316 C   0  0  0  0  0  0  0  0  0  0  0  0
  -17.9879   16.5704  -13.6918 C   0  0  0  0  0  0  0  0  0  0  0  0
  -15.5646   16.4064  -14.3419 N   0  0  0  0  0  0  0  0  0  0  0  0
  -16.7294   17.1254  -13.9514 C   0  0  0  0  0  0  0  0  0  0  0  0
  -16.8937   18.4452  -13.7478 N   0  0  0  0  0  0  0  0  0  0  0  0
  -18.1479   18.7105  -13.3893 N   0  0  0  0  0  0  0  0  0  0  0  0
  -18.8624   17.5753  -13.3419 C   0  0  0  0  0  0  0  0  0  0  0  0
  -20.2814   17.4854  -12.9838 C   0  0  0  0  0  0  0  0  0  0  0  0
  -20.9464   16.2868  -12.9297 C   0  0  0  0  0  0  0  0  0  0  0  0
  -22.2806   16.2441  -12.5889 C   0  0  0  0  0  0  0  0  0  0  0  0
  -22.9692   17.4207  -12.2952 C   0  0  0  0  0  0  0  0  0  0  0  0
  -23.1600   19.6382  -12.0274 N   0  0  0  0  0  0  0  0  0  0  0  0
  -22.8590   21.0545  -11.9699 C   0  0  0  0  0  0  0  0  0  0  0  0
  -22.4035   22.5209  -10.0277 C   0  0  0  0  0  0  0  0  0  0  0  0
  -23.9623   22.7861   -8.2120 C   0  0  0  0  0  0  0  0  0  0  0  0
  -24.3270   23.3520   -6.9794 O   0  0  0  0  0  0  0  0  0  0  0  0
  -23.3135   24.0018   -6.2497 C   0  0  0  0  0  0  0  0  0  0  0  0
  -24.8247   21.9172   -8.8360 C   0  0  0  0  0  0  0  0  0  0  0  0
  -20.9829   18.6340  -12.6897 C   0  0  0  0  0  0  0  0  0  0  0  0
  1 16  2  0
 17  1  1  0
  1 24  1  0
  2  4  2  0
 18  2  1  0
  2 19  1  0
 19  3  2  0
  3 20  1  0
  4 23  1  0
  5  6  2  0
 17  5  1  0
  6 16  1  0
  7  9  2  0
 12  7  1  0
  9  8  1  0
 10  9  1  0
 11 10  1  0
 12 11  2  0
 13 12  1  0
 13 14  1  0
 24 13  2  0
 15 14  2  0
 16 15  1  0
 18 17  1  6
 20 21  1  0
 20 23  2  0
 22 21  1  1
M  END
$$$$
