
     RDKit          3D

 24 27  0  0  0  0  0  0  0  0999 V2000
  -22.4821   19.0693  -13.1749 C   0  0  0  0  0  0  0  0  0  0  0  0
  -24.4655   19.9195  -10.5961 C   0  0  0  0  0  0  0  0  0  0  0  0
  -26.7529   19.4590   -9.9578 C   0  0  0  0  0  0  0  0  0  0  0  0
  -24.0754   19.1193   -9.5475 C   0  0  0  0  0  0  0  0  0  0  0  0
  -24.4430   19.9638  -13.7219 C   0  0  0  0  0  0  0  0  0  0  0  0
  -24.0576   19.1581  -14.7775 C   0  0  0  0  0  0  0  0  0  0  0  0
  -17.9076   17.6565  -13.0260 C   0  0  0  0  0  0  0  0  0  0  0  0
  -15.5804   17.1232  -12.2315 N   0  0  0  0  0  0  0  0  0  0  0  0
  -16.9897   17.0767  -12.1435 C   0  0  0  0  0  0  0  0  0  0  0  0
  -17.7367   16.4668  -11.1949 N   0  0  0  0  0  0  0  0  0  0  0  0
  -19.0230   16.6494  -11.4612 N   0  0  0  0  0  0  0  0  0  0  0  0
  -19.1685   17.3768  -12.5804 C   0  0  0  0  0  0  0  0  0  0  0  0
  -20.4274   17.7983  -13.2151 C   0  0  0  0  0  0  0  0  0  0  0  0
  -20.7916   17.3426  -14.4653 C   0  0  0  0  0  0  0  0  0  0  0  0
  -21.9827   17.7433  -15.0624 C   0  0  0  0  0  0  0  0  0  0  0  0
  -22.8439   18.6071  -14.4341 C   0  0  0  0  0  0  0  0  0  0  0  0
  -23.4700   19.8864  -12.7740 N   0  0  0  0  0  0  0  0  0  0  0  0
  -23.5266   20.6071  -11.5132 C   0  0  0  0  0  0  0  0  0  0  0  0
  -25.8413   20.0786  -10.7866 C   0  0  0  0  0  0  0  0  0  0  0  0
  -26.3325   18.6639   -8.9164 C   0  0  0  0  0  0  0  0  0  0  0  0
  -27.2843   18.0472   -8.0909 O   0  0  0  0  0  0  0  0  0  0  0  0
  -28.5048   18.6530   -7.7726 C   0  0  0  0  0  0  0  0  0  0  0  0
  -24.9853   18.4955   -8.7132 C   0  0  0  0  0  0  0  0  0  0  0  0
  -21.2945   18.6660  -12.5863 C   0  0  0  0  0  0  0  0  0  0  0  0
  1 16  2  0
 17  1  1  0
  1 24  1  0
  2  4  2  0
 18  2  1  0
  2 19  1  0
 19  3  2  0
  3 20  1  0
  4 23  1  0
  5  6  2  0
 17  5  1  0
  6 16  1  0
  7  9  2  0
 12  7  1  0
  9  8  1  0
 10  9  1  0
 11 10  1  0
 12 11  2  0
 13 12  1  0
 13 14  1  0
 24 13  2  0
 15 14  2  0
 16 15  1  0
 17 18  1  0
 20 21  1  0
 20 23  2  0
 21 22  1  0
M  END
$$$$
