
     RDKit          3D

 24 27  0  0  0  0  0  0  0  0999 V2000
  -12.7830    8.7230  -27.9307 C   0  0  0  0  0  0  0  0  0  0  0  0
  -11.7725    5.4317  -28.7780 C   0  0  0  0  0  0  0  0  0  0  0  0
  -10.8453    3.3490  -29.4079 C   0  0  0  0  0  0  0  0  0  0  0  0
  -10.5117    5.9776  -28.8586 C   0  0  0  0  0  0  0  0  0  0  0  0
  -12.6126    8.1431  -30.0154 C   0  0  0  0  0  0  0  0  0  0  0  0
  -12.4947    9.5079  -29.9723 C   0  0  0  0  0  0  0  0  0  0  0  0
  -12.8466   11.0730  -23.5526 C   0  0  0  0  0  0  0  0  0  0  0  0
  -13.0230   11.4111  -21.0674 N   0  0  0  0  0  0  0  0  0  0  0  0
  -13.1090   10.6268  -22.2522 C   0  0  0  0  0  0  0  0  0  0  0  0
  -13.4463    9.3328  -22.4007 N   0  0  0  0  0  0  0  0  0  0  0  0
  -13.4031    8.9826  -23.6843 N   0  0  0  0  0  0  0  0  0  0  0  0
  -13.0353   10.0325  -24.4351 C   0  0  0  0  0  0  0  0  0  0  0  0
  -12.8824   10.0152  -25.8932 C   0  0  0  0  0  0  0  0  0  0  0  0
  -12.7018   11.1632  -26.6222 C   0  0  0  0  0  0  0  0  0  0  0  0
  -12.5619   11.1051  -27.9916 C   0  0  0  0  0  0  0  0  0  0  0  0
  -12.6026    9.8768  -28.6510 C   0  0  0  0  0  0  0  0  0  0  0  0
  -12.7913    7.6457  -28.7590 N   0  0  0  0  0  0  0  0  0  0  0  0
  -12.9590    6.2534  -28.3940 C   0  0  0  0  0  0  0  0  0  0  0  0
  -11.9318    4.1007  -29.0577 C   0  0  0  0  0  0  0  0  0  0  0  0
   -9.5753    3.8712  -29.4955 C   0  0  0  0  0  0  0  0  0  0  0  0
   -8.4635    3.0926  -29.8560 O   0  0  0  0  0  0  0  0  0  0  0  0
   -7.2592    3.3424  -29.1711 C   0  0  0  0  0  0  0  0  0  0  0  0
   -9.4018    5.2057  -29.2173 C   0  0  0  0  0  0  0  0  0  0  0  0
  -12.9192    8.8141  -26.5669 C   0  0  0  0  0  0  0  0  0  0  0  0
  1 16  2  0
 17  1  1  0
  1 24  1  0
  2  4  2  0
 18  2  1  0
  2 19  1  0
 19  3  2  0
  3 20  1  0
  4 23  1  0
  5  6  2  0
 17  5  1  0
  6 16  1  0
  7  9  2  0
 12  7  1  0
  9  8  1  0
 10  9  1  0
 11 10  1  0
 12 11  2  0
 13 12  1  0
 13 14  1  0
 24 13  2  0
 15 14  2  0
 16 15  1  0
 18 17  1  6
 20 21  1  0
 20 23  2  0
 22 21  1  1
M  END
$$$$
