
     RDKit          3D

 24 27  0  0  0  0  0  0  0  0999 V2000
  -22.9664   21.8491   -9.8572 C   0  0  0  0  0  0  0  0  0  0  0  0
  -21.5454   24.1098   -7.4802 C   0  0  0  0  0  0  0  0  0  0  0  0
  -19.5305   24.9825   -6.6011 C   0  0  0  0  0  0  0  0  0  0  0  0
  -21.7983   25.3449   -8.0322 C   0  0  0  0  0  0  0  0  0  0  0  0
  -23.6731   23.8925   -9.6671 C   0  0  0  0  0  0  0  0  0  0  0  0
  -24.0216   23.4674  -10.9226 C   0  0  0  0  0  0  0  0  0  0  0  0
  -21.5804   17.6970   -9.2979 C   0  0  0  0  0  0  0  0  0  0  0  0
  -20.5822   15.4986   -8.5966 N   0  0  0  0  0  0  0  0  0  0  0  0
  -21.0174   16.4442   -9.5673 C   0  0  0  0  0  0  0  0  0  0  0  0
  -20.9941   16.3662  -10.9103 N   0  0  0  0  0  0  0  0  0  0  0  0
  -21.4982   17.4728  -11.4519 N   0  0  0  0  0  0  0  0  0  0  0  0
  -21.8749   18.3264  -10.4871 C   0  0  0  0  0  0  0  0  0  0  0  0
  -22.4724   19.6460  -10.7137 C   0  0  0  0  0  0  0  0  0  0  0  0
  -23.0819   19.9783  -11.8969 C   0  0  0  0  0  0  0  0  0  0  0  0
  -23.6318   21.2295  -12.0709 C   0  0  0  0  0  0  0  0  0  0  0  0
  -23.5741   22.1718  -11.0444 C   0  0  0  0  0  0  0  0  0  0  0  0
  -23.0198   22.9008   -8.9982 N   0  0  0  0  0  0  0  0  0  0  0  0
  -22.4915   22.9668   -7.6506 C   0  0  0  0  0  0  0  0  0  0  0  0
  -20.3953   23.9357   -6.7576 C   0  0  0  0  0  0  0  0  0  0  0  0
  -19.7608   26.2262   -7.1428 C   0  0  0  0  0  0  0  0  0  0  0  0
  -18.8675   27.2973   -6.9778 O   0  0  0  0  0  0  0  0  0  0  0  0
  -18.2733   27.4444   -5.7101 C   0  0  0  0  0  0  0  0  0  0  0  0
  -20.9113   26.4141   -7.8703 C   0  0  0  0  0  0  0  0  0  0  0  0
  -22.4278   20.5936   -9.7147 C   0  0  0  0  0  0  0  0  0  0  0  0
  1 16  2  0
 17  1  1  0
  1 24  1  0
  2  4  2  0
 18  2  1  0
  2 19  1  0
 19  3  2  0
  3 20  1  0
  4 23  1  0
  5  6  2  0
 17  5  1  0
  6 16  1  0
  7  9  2  0
 12  7  1  0
  9  8  1  0
 10  9  1  0
 11 10  1  0
 12 11  2  0
 13 12  1  0
 13 14  1  0
 24 13  2  0
 15 14  2  0
 16 15  1  0
 18 17  1  6
 20 21  1  0
 20 23  2  0
 22 21  1  1
M  END
$$$$
