
     RDKit          3D

 24 27  0  0  0  0  0  0  0  0999 V2000
  -11.4715    6.6020  -27.6797 C   0  0  0  0  0  0  0  0  0  0  0  0
  -10.8988    3.1003  -27.9711 C   0  0  0  0  0  0  0  0  0  0  0  0
  -12.8742    1.8321  -28.2609 C   0  0  0  0  0  0  0  0  0  0  0  0
  -10.1718    1.9526  -28.1905 C   0  0  0  0  0  0  0  0  0  0  0  0
  -11.2285    5.6726  -29.6261 C   0  0  0  0  0  0  0  0  0  0  0  0
  -11.9197    6.8389  -29.8268 C   0  0  0  0  0  0  0  0  0  0  0  0
  -12.4645    9.5922  -23.8337 C   0  0  0  0  0  0  0  0  0  0  0  0
  -12.5470   10.4245  -21.4626 N   0  0  0  0  0  0  0  0  0  0  0  0
  -12.2450    9.4532  -22.4583 C   0  0  0  0  0  0  0  0  0  0  0  0
  -11.7032    8.2289  -22.3248 N   0  0  0  0  0  0  0  0  0  0  0  0
  -11.5866    7.6371  -23.5115 N   0  0  0  0  0  0  0  0  0  0  0  0
  -12.0473    8.4479  -24.4768 C   0  0  0  0  0  0  0  0  0  0  0  0
  -12.0752    8.1265  -25.9071 C   0  0  0  0  0  0  0  0  0  0  0  0
  -12.6755    8.9469  -26.8283 C   0  0  0  0  0  0  0  0  0  0  0  0
  -12.6805    8.6096  -28.1641 C   0  0  0  0  0  0  0  0  0  0  0  0
  -12.0744    7.4292  -28.5934 C   0  0  0  0  0  0  0  0  0  0  0  0
  -10.9455    5.5145  -28.3022 N   0  0  0  0  0  0  0  0  0  0  0  0
  -10.2335    4.4084  -27.6944 C   0  0  0  0  0  0  0  0  0  0  0  0
  -12.2659    3.0298  -28.0087 C   0  0  0  0  0  0  0  0  0  0  0  0
  -12.1697    0.6713  -28.4833 C   0  0  0  0  0  0  0  0  0  0  0  0
  -12.8017   -0.5560  -28.7418 O   0  0  0  0  0  0  0  0  0  0  0  0
  -12.1234   -1.7217  -28.3381 C   0  0  0  0  0  0  0  0  0  0  0  0
  -10.7972    0.7284  -28.4483 C   0  0  0  0  0  0  0  0  0  0  0  0
  -11.4833    6.9662  -26.3554 C   0  0  0  0  0  0  0  0  0  0  0  0
  1 16  2  0
 17  1  1  0
  1 24  1  0
  2  4  2  0
 18  2  1  0
  2 19  1  0
 19  3  2  0
  3 20  1  0
  4 23  1  0
  5  6  2  0
 17  5  1  0
  6 16  1  0
  7  9  2  0
 12  7  1  0
  9  8  1  0
 10  9  1  0
 11 10  1  0
 12 11  2  0
 13 12  1  0
 13 14  1  0
 24 13  2  0
 15 14  2  0
 16 15  1  0
 18 17  1  6
 20 21  1  0
 20 23  2  0
 22 21  1  1
M  END
$$$$
