
     RDKit          3D

 24 27  0  0  0  0  0  0  0  0999 V2000
  -12.2109    8.8367  -27.9681 C   0  0  0  0  0  0  0  0  0  0  0  0
  -11.2827    5.6521  -28.4062 C   0  0  0  0  0  0  0  0  0  0  0  0
  -13.3089    4.3694  -28.0888 C   0  0  0  0  0  0  0  0  0  0  0  0
  -10.6149    4.4552  -28.5223 C   0  0  0  0  0  0  0  0  0  0  0  0
  -12.1127    8.1736  -30.0882 C   0  0  0  0  0  0  0  0  0  0  0  0
  -13.0408    9.1968  -30.0272 C   0  0  0  0  0  0  0  0  0  0  0  0
  -12.0678    9.3379  -23.6023 C   0  0  0  0  0  0  0  0  0  0  0  0
  -11.6317    9.3442  -21.1241 N   0  0  0  0  0  0  0  0  0  0  0  0
  -12.1100    9.9110  -22.3265 C   0  0  0  0  0  0  0  0  0  0  0  0
  -12.7030   11.1156  -22.4914 N   0  0  0  0  0  0  0  0  0  0  0  0
  -13.0091   11.2853  -23.7706 N   0  0  0  0  0  0  0  0  0  0  0  0
  -12.6339   10.2128  -24.4859 C   0  0  0  0  0  0  0  0  0  0  0  0
  -12.7926   10.0040  -25.9338 C   0  0  0  0  0  0  0  0  0  0  0  0
  -13.6718   10.7624  -26.6789 C   0  0  0  0  0  0  0  0  0  0  0  0
  -13.8192   10.5622  -28.0478 C   0  0  0  0  0  0  0  0  0  0  0  0
  -13.0977    9.6036  -28.7134 C   0  0  0  0  0  0  0  0  0  0  0  0
  -11.6329    7.9833  -28.8294 N   0  0  0  0  0  0  0  0  0  0  0  0
  -10.6334    6.9806  -28.5007 C   0  0  0  0  0  0  0  0  0  0  0  0
  -12.6612    5.5832  -28.1846 C   0  0  0  0  0  0  0  0  0  0  0  0
  -12.6138    3.1879  -28.2091 C   0  0  0  0  0  0  0  0  0  0  0  0
  -13.3011    1.9693  -28.1069 O   0  0  0  0  0  0  0  0  0  0  0  0
  -12.9170    0.8302  -28.8230 C   0  0  0  0  0  0  0  0  0  0  0  0
  -11.2593    3.2350  -28.4270 C   0  0  0  0  0  0  0  0  0  0  0  0
  -12.0691    9.0417  -26.6052 C   0  0  0  0  0  0  0  0  0  0  0  0
  1 16  2  0
 17  1  1  0
  1 24  1  0
  2  4  2  0
 18  2  1  0
  2 19  1  0
 19  3  2  0
  3 20  1  0
  4 23  1  0
  5  6  2  0
 17  5  1  0
  6 16  1  0
  7  9  2  0
 12  7  1  0
  9  8  1  0
 10  9  1  0
 11 10  1  0
 12 11  2  0
 13 12  1  0
 13 14  1  0
 24 13  2  0
 15 14  2  0
 16 15  1  0
 17 18  1  0
 20 21  1  0
 20 23  2  0
 21 22  1  0
M  END
$$$$
