
     RDKit          3D

 24 27  0  0  0  0  0  0  0  0999 V2000
  -11.9999    8.3934  -27.5221 C   0  0  0  0  0  0  0  0  0  0  0  0
   -9.7459    5.5716  -28.5101 C   0  0  0  0  0  0  0  0  0  0  0  0
   -8.0813    4.5533  -29.8467 C   0  0  0  0  0  0  0  0  0  0  0  0
  -10.6123    4.5721  -28.8899 C   0  0  0  0  0  0  0  0  0  0  0  0
  -11.6358    7.4796  -29.4569 C   0  0  0  0  0  0  0  0  0  0  0  0
  -12.6564    8.3781  -29.6282 C   0  0  0  0  0  0  0  0  0  0  0  0
  -13.7773   10.8743  -23.6042 C   0  0  0  0  0  0  0  0  0  0  0  0
  -13.9957   11.6823  -21.2333 N   0  0  0  0  0  0  0  0  0  0  0  0
  -13.3239   10.9990  -22.2859 C   0  0  0  0  0  0  0  0  0  0  0  0
  -12.1502   10.3414  -22.2687 N   0  0  0  0  0  0  0  0  0  0  0  0
  -11.8774    9.8402  -23.4714 N   0  0  0  0  0  0  0  0  0  0  0  0
  -12.8610   10.1471  -24.3313 C   0  0  0  0  0  0  0  0  0  0  0  0
  -12.8978    9.7596  -25.7449 C   0  0  0  0  0  0  0  0  0  0  0  0
  -13.7822   10.3183  -26.6325 C   0  0  0  0  0  0  0  0  0  0  0  0
  -13.7854    9.9272  -27.9535 C   0  0  0  0  0  0  0  0  0  0  0  0
  -12.8883    8.9582  -28.4021 C   0  0  0  0  0  0  0  0  0  0  0  0
  -11.2210    7.4795  -28.1585 N   0  0  0  0  0  0  0  0  0  0  0  0
  -10.1684    6.6654  -27.5851 C   0  0  0  0  0  0  0  0  0  0  0  0
   -8.4669    5.5540  -28.9993 C   0  0  0  0  0  0  0  0  0  0  0  0
   -8.9285    3.5435  -30.2410 C   0  0  0  0  0  0  0  0  0  0  0  0
   -8.5251    2.5184  -31.1123 O   0  0  0  0  0  0  0  0  0  0  0  0
   -9.0770    1.2416  -30.8958 C   0  0  0  0  0  0  0  0  0  0  0  0
  -10.2146    3.5495  -29.7573 C   0  0  0  0  0  0  0  0  0  0  0  0
  -12.0216    8.8046  -26.2116 C   0  0  0  0  0  0  0  0  0  0  0  0
  1 16  2  0
 17  1  1  0
  1 24  1  0
  2  4  2  0
 18  2  1  0
  2 19  1  0
 19  3  2  0
  3 20  1  0
  4 23  1  0
  5  6  2  0
 17  5  1  0
  6 16  1  0
  7  9  2  0
 12  7  1  0
  9  8  1  0
 10  9  1  0
 11 10  1  0
 12 11  2  0
 13 12  1  0
 13 14  1  0
 24 13  2  0
 15 14  2  0
 16 15  1  0
 18 17  1  6
 20 21  1  0
 20 23  2  0
 22 21  1  1
M  END
$$$$
