
     RDKit          3D

 24 27  0  0  0  0  0  0  0  0999 V2000
  -13.2406    8.7935  -28.1622 C   0  0  0  0  0  0  0  0  0  0  0  0
  -12.0576    5.8851  -28.9672 C   0  0  0  0  0  0  0  0  0  0  0  0
   -9.6744    6.1387  -29.2947 C   0  0  0  0  0  0  0  0  0  0  0  0
  -11.7980    4.6159  -28.5047 C   0  0  0  0  0  0  0  0  0  0  0  0
  -13.2515    8.5699  -30.3745 C   0  0  0  0  0  0  0  0  0  0  0  0
  -13.1516    9.9225  -30.1053 C   0  0  0  0  0  0  0  0  0  0  0  0
  -13.0133   10.5262  -23.5379 C   0  0  0  0  0  0  0  0  0  0  0  0
  -12.9748   10.6083  -21.0233 N   0  0  0  0  0  0  0  0  0  0  0  0
  -13.1009    9.9490  -22.2664 C   0  0  0  0  0  0  0  0  0  0  0  0
  -13.3308    8.6335  -22.4823 N   0  0  0  0  0  0  0  0  0  0  0  0
  -13.3834    8.4031  -23.7872 N   0  0  0  0  0  0  0  0  0  0  0  0
  -13.1925    9.5434  -24.4699 C   0  0  0  0  0  0  0  0  0  0  0  0
  -13.1764    9.7186  -25.9308 C   0  0  0  0  0  0  0  0  0  0  0  0
  -13.0820   10.9693  -26.5053 C   0  0  0  0  0  0  0  0  0  0  0  0
  -13.0670   11.1311  -27.8871 C   0  0  0  0  0  0  0  0  0  0  0  0
  -13.1453   10.0555  -28.7353 C   0  0  0  0  0  0  0  0  0  0  0  0
  -13.3029    7.9197  -29.1805 N   0  0  0  0  0  0  0  0  0  0  0  0
  -13.4133    6.4752  -29.0638 C   0  0  0  0  0  0  0  0  0  0  0  0
  -10.9548    6.6460  -29.3659 C   0  0  0  0  0  0  0  0  0  0  0  0
   -9.4456    4.8647  -28.8275 C   0  0  0  0  0  0  0  0  0  0  0  0
   -8.1317    4.3772  -28.7672 O   0  0  0  0  0  0  0  0  0  0  0  0
   -7.8338    3.0765  -28.3461 C   0  0  0  0  0  0  0  0  0  0  0  0
  -10.5160    4.1020  -28.4312 C   0  0  0  0  0  0  0  0  0  0  0  0
  -13.2548    8.6398  -26.7854 C   0  0  0  0  0  0  0  0  0  0  0  0
  1 16  2  0
 17  1  1  0
  1 24  1  0
  2  4  2  0
 18  2  1  0
  2 19  1  0
 19  3  2  0
  3 20  1  0
  4 23  1  0
  5  6  2  0
 17  5  1  0
  6 16  1  0
  7  9  2  0
 12  7  1  0
  9  8  1  0
 10  9  1  0
 11 10  1  0
 12 11  2  0
 13 12  1  0
 13 14  1  0
 24 13  2  0
 15 14  2  0
 16 15  1  0
 17 18  1  0
 20 21  1  0
 20 23  2  0
 21 22  1  0
M  END
$$$$
