
     RDKit          3D

 24 27  0  0  0  0  0  0  0  0999 V2000
  -12.2191    8.6795  -28.1194 C   0  0  0  0  0  0  0  0  0  0  0  0
  -10.7724    5.7276  -28.4757 C   0  0  0  0  0  0  0  0  0  0  0  0
  -10.2560    3.3690  -28.6240 C   0  0  0  0  0  0  0  0  0  0  0  0
  -11.9136    5.3732  -27.7944 C   0  0  0  0  0  0  0  0  0  0  0  0
  -12.2235    7.9611  -30.2237 C   0  0  0  0  0  0  0  0  0  0  0  0
  -13.3145    8.7985  -30.0801 C   0  0  0  0  0  0  0  0  0  0  0  0
  -13.4497   10.4280  -23.6950 C   0  0  0  0  0  0  0  0  0  0  0  0
  -13.3722   10.9829  -21.2419 N   0  0  0  0  0  0  0  0  0  0  0  0
  -12.7886   10.6248  -22.4777 C   0  0  0  0  0  0  0  0  0  0  0  0
  -11.4802   10.3999  -22.7371 N   0  0  0  0  0  0  0  0  0  0  0  0
  -11.3316   10.0865  -24.0171 N   0  0  0  0  0  0  0  0  0  0  0  0
  -12.5212   10.0933  -24.6397 C   0  0  0  0  0  0  0  0  0  0  0  0
  -12.7902    9.8010  -26.0565 C   0  0  0  0  0  0  0  0  0  0  0  0
  -13.8692   10.3548  -26.7140 C   0  0  0  0  0  0  0  0  0  0  0  0
  -14.1205   10.0762  -28.0538 C   0  0  0  0  0  0  0  0  0  0  0  0
  -13.3072    9.2402  -28.7764 C   0  0  0  0  0  0  0  0  0  0  0  0
  -11.5863    7.9126  -29.0225 N   0  0  0  0  0  0  0  0  0  0  0  0
  -10.3882    7.1243  -28.7872 C   0  0  0  0  0  0  0  0  0  0  0  0
   -9.9392    4.6845  -28.8905 C   0  0  0  0  0  0  0  0  0  0  0  0
  -11.4052    3.0451  -27.9400 C   0  0  0  0  0  0  0  0  0  0  0  0
  -11.6998    1.6976  -27.6844 O   0  0  0  0  0  0  0  0  0  0  0  0
  -10.7439    0.6841  -27.8146 C   0  0  0  0  0  0  0  0  0  0  0  0
  -12.2363    4.0556  -27.5244 C   0  0  0  0  0  0  0  0  0  0  0  0
  -11.9749    8.9615  -26.7850 C   0  0  0  0  0  0  0  0  0  0  0  0
  1 16  2  0
 17  1  1  0
  1 24  1  0
  2  4  2  0
 18  2  1  0
  2 19  1  0
 19  3  2  0
  3 20  1  0
  4 23  1  0
  5  6  2  0
 17  5  1  0
  6 16  1  0
  7  9  2  0
 12  7  1  0
  9  8  1  0
 10  9  1  0
 11 10  1  0
 12 11  2  0
 13 12  1  0
 13 14  1  0
 24 13  2  0
 15 14  2  0
 16 15  1  0
 17 18  1  0
 20 21  1  0
 20 23  2  0
 21 22  1  0
M  END
$$$$
