
     RDKit          3D

 24 27  0  0  0  0  0  0  0  0999 V2000
  -22.9220   18.8445  -11.8970 C   0  0  0  0  0  0  0  0  0  0  0  0
  -24.0792   20.5967   -9.1894 C   0  0  0  0  0  0  0  0  0  0  0  0
  -23.5716   20.8179   -6.8346 C   0  0  0  0  0  0  0  0  0  0  0  0
  -25.2505   19.9792   -8.8171 C   0  0  0  0  0  0  0  0  0  0  0  0
  -25.1147   19.1219  -11.6534 C   0  0  0  0  0  0  0  0  0  0  0  0
  -24.9331   17.9726  -12.4006 C   0  0  0  0  0  0  0  0  0  0  0  0
  -18.4149   17.0400  -12.7502 C   0  0  0  0  0  0  0  0  0  0  0  0
  -15.9096   16.8134  -12.8143 N   0  0  0  0  0  0  0  0  0  0  0  0
  -17.1111   17.5357  -12.6394 C   0  0  0  0  0  0  0  0  0  0  0  0
  -17.2481   18.8457  -12.3311 N   0  0  0  0  0  0  0  0  0  0  0  0
  -18.5369   19.1485  -12.2544 N   0  0  0  0  0  0  0  0  0  0  0  0
  -19.2865   18.0633  -12.5060 C   0  0  0  0  0  0  0  0  0  0  0  0
  -20.7553   17.9752  -12.5204 C   0  0  0  0  0  0  0  0  0  0  0  0
  -21.4088   16.9458  -13.1658 C   0  0  0  0  0  0  0  0  0  0  0  0
  -22.7978   16.8657  -13.1773 C   0  0  0  0  0  0  0  0  0  0  0  0
  -23.5748   17.8055  -12.5484 C   0  0  0  0  0  0  0  0  0  0  0  0
  -23.8817   19.6210  -11.3676 N   0  0  0  0  0  0  0  0  0  0  0  0
  -23.6725   20.8337  -10.5944 C   0  0  0  0  0  0  0  0  0  0  0  0
  -23.2356   21.0175   -8.1572 C   0  0  0  0  0  0  0  0  0  0  0  0
  -24.7509   20.1968   -6.4927 C   0  0  0  0  0  0  0  0  0  0  0  0
  -25.0645   20.0083   -5.1385 O   0  0  0  0  0  0  0  0  0  0  0  0
  -24.0938   19.6910   -4.1819 C   0  0  0  0  0  0  0  0  0  0  0  0
  -25.5926   19.7764   -7.4924 C   0  0  0  0  0  0  0  0  0  0  0  0
  -21.5385   18.9180  -11.8895 C   0  0  0  0  0  0  0  0  0  0  0  0
  1 16  2  0
 17  1  1  0
  1 24  1  0
  2  4  2  0
 18  2  1  0
  2 19  1  0
 19  3  2  0
  3 20  1  0
  4 23  1  0
  5  6  2  0
 17  5  1  0
  6 16  1  0
  7  9  2  0
 12  7  1  0
  9  8  1  0
 10  9  1  0
 11 10  1  0
 12 11  2  0
 13 12  1  0
 13 14  1  0
 24 13  2  0
 15 14  2  0
 16 15  1  0
 17 18  1  0
 20 21  1  0
 20 23  2  0
 21 22  1  0
M  END
$$$$
