
     RDKit          3D

 24 27  0  0  0  0  0  0  0  0999 V2000
  -12.6541    8.8805  -28.0571 C   0  0  0  0  0  0  0  0  0  0  0  0
  -10.6010    6.3813  -28.6634 C   0  0  0  0  0  0  0  0  0  0  0  0
   -9.4174    4.4102  -27.9115 C   0  0  0  0  0  0  0  0  0  0  0  0
  -11.7066    5.5801  -28.8302 C   0  0  0  0  0  0  0  0  0  0  0  0
  -12.6632    8.2901  -30.2008 C   0  0  0  0  0  0  0  0  0  0  0  0
  -13.9023    8.8396  -29.9275 C   0  0  0  0  0  0  0  0  0  0  0  0
  -11.7459   10.1810  -23.9422 C   0  0  0  0  0  0  0  0  0  0  0  0
  -10.8480   10.6539  -21.6396 N   0  0  0  0  0  0  0  0  0  0  0  0
  -11.8845   10.4187  -22.5703 C   0  0  0  0  0  0  0  0  0  0  0  0
  -13.2149   10.3750  -22.3291 N   0  0  0  0  0  0  0  0  0  0  0  0
  -13.8608   10.1292  -23.4610 N   0  0  0  0  0  0  0  0  0  0  0  0
  -12.9909   10.0035  -24.4760 C   0  0  0  0  0  0  0  0  0  0  0  0
  -13.2992    9.7293  -25.8885 C   0  0  0  0  0  0  0  0  0  0  0  0
  -14.5262   10.0475  -26.4329 C   0  0  0  0  0  0  0  0  0  0  0  0
  -14.8142    9.7868  -27.7689 C   0  0  0  0  0  0  0  0  0  0  0  0
  -13.8915    9.2032  -28.6000 C   0  0  0  0  0  0  0  0  0  0  0  0
  -11.9370    8.3309  -29.0510 N   0  0  0  0  0  0  0  0  0  0  0  0
  -10.5746    7.8346  -28.9509 C   0  0  0  0  0  0  0  0  0  0  0  0
   -9.4407    5.7603  -28.1921 C   0  0  0  0  0  0  0  0  0  0  0  0
  -10.5396    3.6338  -28.0884 C   0  0  0  0  0  0  0  0  0  0  0  0
  -10.4842    2.2634  -27.7942 O   0  0  0  0  0  0  0  0  0  0  0  0
   -9.5037    1.7152  -26.9599 C   0  0  0  0  0  0  0  0  0  0  0  0
  -11.6889    4.2256  -28.5505 C   0  0  0  0  0  0  0  0  0  0  0  0
  -12.3742    9.1431  -26.7258 C   0  0  0  0  0  0  0  0  0  0  0  0
  1 16  2  0
 17  1  1  0
  1 24  1  0
  2  4  2  0
 18  2  1  0
  2 19  1  0
 19  3  2  0
  3 20  1  0
  4 23  1  0
  5  6  2  0
 17  5  1  0
  6 16  1  0
  7  9  2  0
 12  7  1  0
  9  8  1  0
 10  9  1  0
 11 10  1  0
 12 11  2  0
 13 12  1  0
 13 14  1  0
 24 13  2  0
 15 14  2  0
 16 15  1  0
 17 18  1  0
 20 21  1  0
 20 23  2  0
 21 22  1  0
M  END
$$$$
