
     RDKit          3D

 24 27  0  0  0  0  0  0  0  0999 V2000
  -23.2734   19.4860  -11.8492 C   0  0  0  0  0  0  0  0  0  0  0  0
  -23.5467   20.8807   -8.9150 C   0  0  0  0  0  0  0  0  0  0  0  0
  -22.4238   21.6721   -6.9239 C   0  0  0  0  0  0  0  0  0  0  0  0
  -23.2363   22.0879   -9.4968 C   0  0  0  0  0  0  0  0  0  0  0  0
  -25.1196   20.7203  -11.7380 C   0  0  0  0  0  0  0  0  0  0  0  0
  -24.7353   20.6864  -13.0659 C   0  0  0  0  0  0  0  0  0  0  0  0
  -18.9515   17.5324  -13.0646 C   0  0  0  0  0  0  0  0  0  0  0  0
  -16.7650   16.2948  -12.9251 N   0  0  0  0  0  0  0  0  0  0  0  0
  -18.0966   16.5600  -12.5343 C   0  0  0  0  0  0  0  0  0  0  0  0
  -18.8143   15.9332  -11.5742 N   0  0  0  0  0  0  0  0  0  0  0  0
  -20.0251   16.4703  -11.5070 N   0  0  0  0  0  0  0  0  0  0  0  0
  -20.1476   17.4576  -12.4087 C   0  0  0  0  0  0  0  0  0  0  0  0
  -21.3276   18.3015  -12.6552 C   0  0  0  0  0  0  0  0  0  0  0  0
  -21.6492   18.7369  -13.9241 C   0  0  0  0  0  0  0  0  0  0  0  0
  -22.7658   19.5348  -14.1536 C   0  0  0  0  0  0  0  0  0  0  0  0
  -23.5926   19.9215  -13.1292 C   0  0  0  0  0  0  0  0  0  0  0  0
  -24.2160   19.9865  -11.0336 N   0  0  0  0  0  0  0  0  0  0  0  0
  -24.2927   19.7959   -9.5948 C   0  0  0  0  0  0  0  0  0  0  0  0
  -23.1204   20.6906   -7.5973 C   0  0  0  0  0  0  0  0  0  0  0  0
  -22.1277   22.8702   -7.5324 C   0  0  0  0  0  0  0  0  0  0  0  0
  -21.4177   23.8487   -6.8210 O   0  0  0  0  0  0  0  0  0  0  0  0
  -21.0063   23.6615   -5.4968 C   0  0  0  0  0  0  0  0  0  0  0  0
  -22.5380   23.0757   -8.8262 C   0  0  0  0  0  0  0  0  0  0  0  0
  -22.1600   18.6916  -11.6281 C   0  0  0  0  0  0  0  0  0  0  0  0
  1 16  2  0
 17  1  1  0
  1 24  1  0
  2  4  2  0
 18  2  1  0
  2 19  1  0
 19  3  2  0
  3 20  1  0
  4 23  1  0
  5  6  2  0
 17  5  1  0
  6 16  1  0
  7  9  2  0
 12  7  1  0
  9  8  1  0
 10  9  1  0
 11 10  1  0
 12 11  2  0
 13 12  1  0
 13 14  1  0
 24 13  2  0
 15 14  2  0
 16 15  1  0
 17 18  1  0
 20 21  1  0
 20 23  2  0
 21 22  1  0
M  END
$$$$
