
     RDKit          3D

 24 27  0  0  0  0  0  0  0  0999 V2000
  -22.9775   20.0419  -11.3969 C   0  0  0  0  0  0  0  0  0  0  0  0
  -21.9939   22.9828  -10.1606 C   0  0  0  0  0  0  0  0  0  0  0  0
  -21.3660   22.4939   -7.8762 C   0  0  0  0  0  0  0  0  0  0  0  0
  -21.6337   24.2878   -9.9166 C   0  0  0  0  0  0  0  0  0  0  0  0
  -24.6406   21.3955  -10.8082 C   0  0  0  0  0  0  0  0  0  0  0  0
  -25.1160   20.1013  -10.7029 C   0  0  0  0  0  0  0  0  0  0  0  0
  -19.2184   18.1138  -12.5704 C   0  0  0  0  0  0  0  0  0  0  0  0
  -16.9142   17.4155  -13.3013 N   0  0  0  0  0  0  0  0  0  0  0  0
  -18.2622   17.1689  -12.9581 C   0  0  0  0  0  0  0  0  0  0  0  0
  -18.9019   15.9772  -12.9336 N   0  0  0  0  0  0  0  0  0  0  0  0
  -20.1611   16.1598  -12.5598 N   0  0  0  0  0  0  0  0  0  0  0  0
  -20.3941   17.4616  -12.3273 C   0  0  0  0  0  0  0  0  0  0  0  0
  -21.6575   18.0804  -11.8961 C   0  0  0  0  0  0  0  0  0  0  0  0
  -22.7588   17.3166  -11.5687 C   0  0  0  0  0  0  0  0  0  0  0  0
  -23.9518   17.9052  -11.1613 C   0  0  0  0  0  0  0  0  0  0  0  0
  -24.0833   19.2678  -11.0682 C   0  0  0  0  0  0  0  0  0  0  0  0
  -23.3488   21.3218  -11.2289 N   0  0  0  0  0  0  0  0  0  0  0  0
  -22.5171   22.4917  -11.4569 C   0  0  0  0  0  0  0  0  0  0  0  0
  -21.8481   22.0825   -9.1011 C   0  0  0  0  0  0  0  0  0  0  0  0
  -21.0137   23.8066   -7.6618 C   0  0  0  0  0  0  0  0  0  0  0  0
  -20.5264   24.1940   -6.4048 O   0  0  0  0  0  0  0  0  0  0  0  0
  -19.9115   25.4322   -6.1887 C   0  0  0  0  0  0  0  0  0  0  0  0
  -21.1497   24.7058   -8.6902 C   0  0  0  0  0  0  0  0  0  0  0  0
  -21.7925   19.4490  -11.8017 C   0  0  0  0  0  0  0  0  0  0  0  0
  1 16  2  0
 17  1  1  0
  1 24  1  0
  2  4  2  0
 18  2  1  0
  2 19  1  0
 19  3  2  0
  3 20  1  0
  4 23  1  0
  5  6  2  0
 17  5  1  0
  6 16  1  0
  7  9  2  0
 12  7  1  0
  9  8  1  0
 10  9  1  0
 11 10  1  0
 12 11  2  0
 13 12  1  0
 13 14  1  0
 24 13  2  0
 15 14  2  0
 16 15  1  0
 17 18  1  0
 20 21  1  0
 20 23  2  0
 21 22  1  0
M  END
$$$$
