
     RDKit          3D

 24 27  0  0  0  0  0  0  0  0999 V2000
  -12.8465    9.7494  -27.6895 C   0  0  0  0  0  0  0  0  0  0  0  0
  -11.0361    7.3310  -28.6326 C   0  0  0  0  0  0  0  0  0  0  0  0
   -9.9201    5.3719  -27.7562 C   0  0  0  0  0  0  0  0  0  0  0  0
  -12.1606    6.5519  -28.7762 C   0  0  0  0  0  0  0  0  0  0  0  0
  -13.1106    9.6155  -29.8933 C   0  0  0  0  0  0  0  0  0  0  0  0
  -14.2629   10.1833  -29.3818 C   0  0  0  0  0  0  0  0  0  0  0  0
  -11.4539    9.9469  -23.5256 C   0  0  0  0  0  0  0  0  0  0  0  0
  -10.3090    9.8146  -21.2888 N   0  0  0  0  0  0  0  0  0  0  0  0
  -11.4361    9.9680  -22.1267 C   0  0  0  0  0  0  0  0  0  0  0  0
  -12.7210   10.1653  -21.7524 N   0  0  0  0  0  0  0  0  0  0  0  0
  -13.4854   10.2607  -22.8318 N   0  0  0  0  0  0  0  0  0  0  0  0
  -12.7419   10.1314  -23.9424 C   0  0  0  0  0  0  0  0  0  0  0  0
  -13.2050   10.1767  -25.3384 C   0  0  0  0  0  0  0  0  0  0  0  0
  -14.4432   10.6863  -25.6703 C   0  0  0  0  0  0  0  0  0  0  0  0
  -14.8778   10.7276  -26.9914 C   0  0  0  0  0  0  0  0  0  0  0  0
  -14.0945   10.2639  -28.0180 C   0  0  0  0  0  0  0  0  0  0  0  0
  -12.2791    9.3670  -28.8454 N   0  0  0  0  0  0  0  0  0  0  0  0
  -10.9647    8.7655  -28.9964 C   0  0  0  0  0  0  0  0  0  0  0  0
   -9.9013    6.7051  -28.1083 C   0  0  0  0  0  0  0  0  0  0  0  0
  -11.0604    4.6175  -27.9114 C   0  0  0  0  0  0  0  0  0  0  0  0
  -11.0479    3.2639  -27.5439 O   0  0  0  0  0  0  0  0  0  0  0  0
   -9.9822    2.6874  -26.8440 C   0  0  0  0  0  0  0  0  0  0  0  0
  -12.1851    5.2144  -28.4246 C   0  0  0  0  0  0  0  0  0  0  0  0
  -12.4202    9.7115  -26.3718 C   0  0  0  0  0  0  0  0  0  0  0  0
  1 16  2  0
 17  1  1  0
  1 24  1  0
  2  4  2  0
 18  2  1  0
  2 19  1  0
 19  3  2  0
  3 20  1  0
  4 23  1  0
  5  6  2  0
 17  5  1  0
  6 16  1  0
  7  9  2  0
 12  7  1  0
  9  8  1  0
 10  9  1  0
 11 10  1  0
 12 11  2  0
 13 12  1  0
 13 14  1  0
 24 13  2  0
 15 14  2  0
 16 15  1  0
 17 18  1  0
 20 21  1  0
 20 23  2  0
 21 22  1  0
M  END
$$$$
