
     RDKit          3D

 24 27  0  0  0  0  0  0  0  0999 V2000
  -17.1884   14.2336  -19.1533 C   0  0  0  0  0  0  0  0  0  0  0  0
  -15.2000   11.8872  -21.0916 C   0  0  0  0  0  0  0  0  0  0  0  0
  -15.0005   10.7407  -23.2123 C   0  0  0  0  0  0  0  0  0  0  0  0
  -13.9582   12.4264  -21.3349 C   0  0  0  0  0  0  0  0  0  0  0  0
  -17.2910   13.7166  -21.3135 C   0  0  0  0  0  0  0  0  0  0  0  0
  -18.0094   14.8857  -21.1430 C   0  0  0  0  0  0  0  0  0  0  0  0
  -17.9518   16.1288  -14.6676 C   0  0  0  0  0  0  0  0  0  0  0  0
  -17.8383   16.4883  -12.1797 N   0  0  0  0  0  0  0  0  0  0  0  0
  -17.3938   15.9315  -13.3998 C   0  0  0  0  0  0  0  0  0  0  0  0
  -16.3451   15.0992  -13.5925 N   0  0  0  0  0  0  0  0  0  0  0  0
  -16.2520   14.7975  -14.8806 N   0  0  0  0  0  0  0  0  0  0  0  0
  -17.2234   15.4121  -15.5745 C   0  0  0  0  0  0  0  0  0  0  0  0
  -17.4697   15.3397  -17.0234 C   0  0  0  0  0  0  0  0  0  0  0  0
  -18.2182   16.2977  -17.6756 C   0  0  0  0  0  0  0  0  0  0  0  0
  -18.4490   16.2261  -19.0458 C   0  0  0  0  0  0  0  0  0  0  0  0
  -17.9428   15.2013  -19.8049 C   0  0  0  0  0  0  0  0  0  0  0  0
  -16.8106   13.3522  -20.0939 N   0  0  0  0  0  0  0  0  0  0  0  0
  -16.0043   12.1624  -19.8780 C   0  0  0  0  0  0  0  0  0  0  0  0
  -15.7132   11.0271  -22.0668 C   0  0  0  0  0  0  0  0  0  0  0  0
  -13.7599   11.2955  -23.4281 C   0  0  0  0  0  0  0  0  0  0  0  0
  -13.0598   10.9846  -24.6032 O   0  0  0  0  0  0  0  0  0  0  0  0
  -13.2711    9.7948  -25.3087 C   0  0  0  0  0  0  0  0  0  0  0  0
  -13.2390   12.1426  -22.4818 C   0  0  0  0  0  0  0  0  0  0  0  0
  -16.9625   14.3114  -17.7886 C   0  0  0  0  0  0  0  0  0  0  0  0
  1 16  2  0
 17  1  1  0
  1 24  1  0
  2  4  2  0
 18  2  1  0
  2 19  1  0
 19  3  2  0
  3 20  1  0
  4 23  1  0
  5  6  2  0
 17  5  1  0
  6 16  1  0
  7  9  2  0
 12  7  1  0
  9  8  1  0
 10  9  1  0
 11 10  1  0
 12 11  2  0
 13 12  1  0
 13 14  1  0
 24 13  2  0
 15 14  2  0
 16 15  1  0
 17 18  1  0
 20 21  1  0
 20 23  2  0
 21 22  1  0
M  END
$$$$
