
     RDKit          3D

 24 27  0  0  0  0  0  0  0  0999 V2000
  -22.9771   21.4489   -9.3396 C   0  0  0  0  0  0  0  0  0  0  0  0
  -22.0091   20.0725  -12.3930 C   0  0  0  0  0  0  0  0  0  0  0  0
  -21.3312   18.7878  -14.2596 C   0  0  0  0  0  0  0  0  0  0  0  0
  -21.4560   19.1129  -11.5762 C   0  0  0  0  0  0  0  0  0  0  0  0
  -24.4454   20.2411  -10.3867 C   0  0  0  0  0  0  0  0  0  0  0  0
  -24.7757   20.2031   -9.0571 C   0  0  0  0  0  0  0  0  0  0  0  0
  -20.2191   23.9183   -6.0182 C   0  0  0  0  0  0  0  0  0  0  0  0
  -18.3821   25.3708   -5.1032 N   0  0  0  0  0  0  0  0  0  0  0  0
  -19.0789   24.7178   -6.1588 C   0  0  0  0  0  0  0  0  0  0  0  0
  -18.8228   24.7117   -7.4796 N   0  0  0  0  0  0  0  0  0  0  0  0
  -19.7211   23.9726   -8.1267 N   0  0  0  0  0  0  0  0  0  0  0  0
  -20.6070   23.4608   -7.2581 C   0  0  0  0  0  0  0  0  0  0  0  0
  -21.7368   22.5971   -7.6150 C   0  0  0  0  0  0  0  0  0  0  0  0
  -22.6103   22.1117   -6.6751 C   0  0  0  0  0  0  0  0  0  0  0  0
  -23.6602   21.3026   -7.0508 C   0  0  0  0  0  0  0  0  0  0  0  0
  -23.8455   20.9685   -8.3920 C   0  0  0  0  0  0  0  0  0  0  0  0
  -23.3346   21.0083  -10.5745 N   0  0  0  0  0  0  0  0  0  0  0  0
  -22.6766   21.2865  -11.8351 C   0  0  0  0  0  0  0  0  0  0  0  0
  -21.9412   19.8997  -13.7497 C   0  0  0  0  0  0  0  0  0  0  0  0
  -20.7712   17.8148  -13.4643 C   0  0  0  0  0  0  0  0  0  0  0  0
  -20.1460   16.6748  -13.9954 O   0  0  0  0  0  0  0  0  0  0  0  0
  -19.1790   16.0428  -13.1908 C   0  0  0  0  0  0  0  0  0  0  0  0
  -20.8325   17.9762  -12.1011 C   0  0  0  0  0  0  0  0  0  0  0  0
  -21.9404   22.2533   -8.9333 C   0  0  0  0  0  0  0  0  0  0  0  0
  1 16  2  0
 17  1  1  0
  1 24  1  0
  2  4  2  0
 18  2  1  0
  2 19  1  0
 19  3  2  0
  3 20  1  0
  4 23  1  0
  5  6  2  0
 17  5  1  0
  6 16  1  0
  7  9  2  0
 12  7  1  0
  9  8  1  0
 10  9  1  0
 11 10  1  0
 12 11  2  0
 13 12  1  0
 13 14  1  0
 24 13  2  0
 15 14  2  0
 16 15  1  0
 18 17  1  6
 20 21  1  0
 20 23  2  0
 22 21  1  1
M  END
$$$$
