
     RDKit          3D

 24 27  0  0  0  0  0  0  0  0999 V2000
  -22.8975   19.6908  -12.1138 C   0  0  0  0  0  0  0  0  0  0  0  0
  -24.3275   20.0229   -9.1094 C   0  0  0  0  0  0  0  0  0  0  0  0
  -24.8704   19.3335   -6.8552 C   0  0  0  0  0  0  0  0  0  0  0  0
  -25.2864   19.1386   -9.5462 C   0  0  0  0  0  0  0  0  0  0  0  0
  -24.8068   20.8305  -12.1133 C   0  0  0  0  0  0  0  0  0  0  0  0
  -24.6731   20.2663  -13.3686 C   0  0  0  0  0  0  0  0  0  0  0  0
  -19.0039   17.8306  -11.3320 C   0  0  0  0  0  0  0  0  0  0  0  0
  -16.8221   16.9153  -10.4752 N   0  0  0  0  0  0  0  0  0  0  0  0
  -17.8535   17.0405  -11.4325 C   0  0  0  0  0  0  0  0  0  0  0  0
  -17.9412   16.4269  -12.6349 N   0  0  0  0  0  0  0  0  0  0  0  0
  -19.0590   16.8024  -13.2416 N   0  0  0  0  0  0  0  0  0  0  0  0
  -19.7399   17.6660  -12.4711 C   0  0  0  0  0  0  0  0  0  0  0  0
  -21.0244   18.3155  -12.7766 C   0  0  0  0  0  0  0  0  0  0  0  0
  -21.6176   18.1914  -14.0160 C   0  0  0  0  0  0  0  0  0  0  0  0
  -22.8323   18.8070  -14.3013 C   0  0  0  0  0  0  0  0  0  0  0  0
  -23.4903   19.5622  -13.3637 C   0  0  0  0  0  0  0  0  0  0  0  0
  -23.7189   20.4630  -11.3836 N   0  0  0  0  0  0  0  0  0  0  0  0
  -23.5085   20.8727  -10.0051 C   0  0  0  0  0  0  0  0  0  0  0  0
  -24.1323   20.1054   -7.7277 C   0  0  0  0  0  0  0  0  0  0  0  0
  -25.8232   18.4573   -7.3219 C   0  0  0  0  0  0  0  0  0  0  0  0
  -26.5577   17.6858   -6.4092 O   0  0  0  0  0  0  0  0  0  0  0  0
  -27.3281   16.5872   -6.8063 C   0  0  0  0  0  0  0  0  0  0  0  0
  -26.0295   18.3620   -8.6757 C   0  0  0  0  0  0  0  0  0  0  0  0
  -21.6878   19.0749  -11.8367 C   0  0  0  0  0  0  0  0  0  0  0  0
  1 16  2  0
 17  1  1  0
  1 24  1  0
  2  4  2  0
 18  2  1  0
  2 19  1  0
 19  3  2  0
  3 20  1  0
  4 23  1  0
  5  6  2  0
 17  5  1  0
  6 16  1  0
  7  9  2  0
 12  7  1  0
  9  8  1  0
 10  9  1  0
 11 10  1  0
 12 11  2  0
 13 12  1  0
 13 14  1  0
 24 13  2  0
 15 14  2  0
 16 15  1  0
 17 18  1  0
 20 21  1  0
 20 23  2  0
 21 22  1  0
M  END
$$$$
