
     RDKit          3D

 24 27  0  0  0  0  0  0  0  0999 V2000
  -22.6316   19.5868  -11.1531 C   0  0  0  0  0  0  0  0  0  0  0  0
  -22.8357   21.7496   -8.3037 C   0  0  0  0  0  0  0  0  0  0  0  0
  -23.7681   20.7439   -6.3767 C   0  0  0  0  0  0  0  0  0  0  0  0
  -22.6571   22.9020   -7.5729 C   0  0  0  0  0  0  0  0  0  0  0  0
  -24.5075   20.4733  -10.5158 C   0  0  0  0  0  0  0  0  0  0  0  0
  -24.8242   19.3710  -11.2661 C   0  0  0  0  0  0  0  0  0  0  0  0
  -19.0145   16.9337  -13.2877 C   0  0  0  0  0  0  0  0  0  0  0  0
  -16.6929   16.1942  -13.9081 N   0  0  0  0  0  0  0  0  0  0  0  0
  -17.6210   16.9745  -13.1626 C   0  0  0  0  0  0  0  0  0  0  0  0
  -17.3945   17.8934  -12.2062 N   0  0  0  0  0  0  0  0  0  0  0  0
  -18.5432   18.3959  -11.7591 N   0  0  0  0  0  0  0  0  0  0  0  0
  -19.5749   17.8283  -12.4031 C   0  0  0  0  0  0  0  0  0  0  0  0
  -20.9890   18.1379  -12.1697 C   0  0  0  0  0  0  0  0  0  0  0  0
  -21.9999   17.3656  -12.6831 C   0  0  0  0  0  0  0  0  0  0  0  0
  -23.3169   17.6899  -12.4411 C   0  0  0  0  0  0  0  0  0  0  0  0
  -23.6356   18.8080  -11.6709 C   0  0  0  0  0  0  0  0  0  0  0  0
  -23.1544   20.6177  -10.4385 N   0  0  0  0  0  0  0  0  0  0  0  0
  -22.4329   21.6618   -9.7392 C   0  0  0  0  0  0  0  0  0  0  0  0
  -23.3986   20.6625   -7.6901 C   0  0  0  0  0  0  0  0  0  0  0  0
  -23.6000   21.8840   -5.6251 C   0  0  0  0  0  0  0  0  0  0  0  0
  -23.9821   21.9604   -4.2758 O   0  0  0  0  0  0  0  0  0  0  0  0
  -24.1108   20.7443   -3.5782 C   0  0  0  0  0  0  0  0  0  0  0  0
  -23.0362   22.9821   -6.2289 C   0  0  0  0  0  0  0  0  0  0  0  0
  -21.3288   19.2372  -11.4121 C   0  0  0  0  0  0  0  0  0  0  0  0
  1 16  2  0
 17  1  1  0
  1 24  1  0
  2  4  2  0
 18  2  1  0
  2 19  1  0
 19  3  2  0
  3 20  1  0
  4 23  1  0
  5  6  2  0
 17  5  1  0
  6 16  1  0
  7  9  2  0
 12  7  1  0
  9  8  1  0
 10  9  1  0
 11 10  1  0
 12 11  2  0
 13 12  1  0
 13 14  1  0
 24 13  2  0
 15 14  2  0
 16 15  1  0
 18 17  1  6
 20 21  1  0
 20 23  2  0
 22 21  1  1
M  END
$$$$
