
     RDKit          3D

 24 27  0  0  0  0  0  0  0  0999 V2000
  -11.8146    4.5588  -28.9210 C   0  0  0  0  0  0  0  0  0  0  0  0
  -11.0320    1.2752  -27.9510 C   0  0  0  0  0  0  0  0  0  0  0  0
  -11.6182    0.7754  -25.7147 C   0  0  0  0  0  0  0  0  0  0  0  0
  -10.1760    0.1977  -27.9303 C   0  0  0  0  0  0  0  0  0  0  0  0
  -13.4385    3.1371  -28.6914 C   0  0  0  0  0  0  0  0  0  0  0  0
  -13.9778    4.3859  -28.5238 C   0  0  0  0  0  0  0  0  0  0  0  0
   -8.9484    8.5762  -29.4848 C   0  0  0  0  0  0  0  0  0  0  0  0
   -6.8825    9.9560  -29.8719 N   0  0  0  0  0  0  0  0  0  0  0  0
   -7.5650    8.7301  -29.6323 C   0  0  0  0  0  0  0  0  0  0  0  0
   -7.0704    7.4862  -29.4966 N   0  0  0  0  0  0  0  0  0  0  0  0
   -8.0522    6.6135  -29.2812 N   0  0  0  0  0  0  0  0  0  0  0  0
   -9.2353    7.2470  -29.2660 C   0  0  0  0  0  0  0  0  0  0  0  0
  -10.5353    6.6025  -29.0549 C   0  0  0  0  0  0  0  0  0  0  0  0
  -11.6751    7.3228  -28.8024 C   0  0  0  0  0  0  0  0  0  0  0  0
  -12.8782    6.6798  -28.6095 C   0  0  0  0  0  0  0  0  0  0  0  0
  -12.9491    5.2883  -28.6691 C   0  0  0  0  0  0  0  0  0  0  0  0
  -12.1012    3.2305  -28.9375 N   0  0  0  0  0  0  0  0  0  0  0  0
  -11.1830    2.1327  -29.1644 C   0  0  0  0  0  0  0  0  0  0  0  0
  -11.7578    1.5600  -26.8252 C   0  0  0  0  0  0  0  0  0  0  0  0
  -10.7695   -0.3066  -25.6691 C   0  0  0  0  0  0  0  0  0  0  0  0
  -10.6312   -1.1083  -24.5243 O   0  0  0  0  0  0  0  0  0  0  0  0
  -11.8157   -1.5826  -23.9294 C   0  0  0  0  0  0  0  0  0  0  0  0
  -10.0354   -0.6032  -26.7922 C   0  0  0  0  0  0  0  0  0  0  0  0
  -10.6306    5.2292  -29.1090 C   0  0  0  0  0  0  0  0  0  0  0  0
  1 16  2  0
 17  1  1  0
  1 24  1  0
  2  4  2  0
 18  2  1  0
  2 19  1  0
 19  3  2  0
  3 20  1  0
  4 23  1  0
  5  6  2  0
 17  5  1  0
  6 16  1  0
  7  9  2  0
 12  7  1  0
  9  8  1  0
 10  9  1  0
 11 10  1  0
 12 11  2  0
 13 12  1  0
 13 14  1  0
 24 13  2  0
 15 14  2  0
 16 15  1  0
 18 17  1  6
 20 21  1  0
 20 23  2  0
 22 21  1  1
M  END
$$$$
