
     RDKit          3D

 24 27  0  0  0  0  0  0  0  0999 V2000
  -13.3905   11.6317  -26.7445 C   0  0  0  0  0  0  0  0  0  0  0  0
  -13.4525   14.9359  -27.7561 C   0  0  0  0  0  0  0  0  0  0  0  0
  -13.0266   16.8284  -29.2015 C   0  0  0  0  0  0  0  0  0  0  0  0
  -12.2179   15.1642  -27.1941 C   0  0  0  0  0  0  0  0  0  0  0  0
  -13.4703   12.1488  -28.9057 C   0  0  0  0  0  0  0  0  0  0  0  0
  -12.8971   10.8940  -28.8110 C   0  0  0  0  0  0  0  0  0  0  0  0
  -13.2048    9.3004  -22.4231 C   0  0  0  0  0  0  0  0  0  0  0  0
  -13.3693    8.8277  -19.9570 N   0  0  0  0  0  0  0  0  0  0  0  0
  -13.2586    9.6808  -21.0777 C   0  0  0  0  0  0  0  0  0  0  0  0
  -13.1823   11.0314  -21.0813 N   0  0  0  0  0  0  0  0  0  0  0  0
  -13.0880   11.4648  -22.3311 N   0  0  0  0  0  0  0  0  0  0  0  0
  -13.0986   10.4291  -23.1855 C   0  0  0  0  0  0  0  0  0  0  0  0
  -13.0135   10.4805  -24.6536 C   0  0  0  0  0  0  0  0  0  0  0  0
  -12.4777    9.4380  -25.3811 C   0  0  0  0  0  0  0  0  0  0  0  0
  -12.3989    9.4901  -26.7692 C   0  0  0  0  0  0  0  0  0  0  0  0
  -12.8500   10.5788  -27.4720 C   0  0  0  0  0  0  0  0  0  0  0  0
  -13.7549   12.5629  -27.6413 N   0  0  0  0  0  0  0  0  0  0  0  0
  -14.3675   13.8465  -27.3422 C   0  0  0  0  0  0  0  0  0  0  0  0
  -13.8450   15.8007  -28.7820 C   0  0  0  0  0  0  0  0  0  0  0  0
  -11.7962   17.0321  -28.6200 C   0  0  0  0  0  0  0  0  0  0  0  0
  -10.9867   18.0861  -29.0688 O   0  0  0  0  0  0  0  0  0  0  0  0
  -10.0345   18.7012  -28.2485 C   0  0  0  0  0  0  0  0  0  0  0  0
  -11.3930   16.1933  -27.6109 C   0  0  0  0  0  0  0  0  0  0  0  0
  -13.4659   11.5730  -25.3623 C   0  0  0  0  0  0  0  0  0  0  0  0
  1 16  2  0
 17  1  1  0
  1 24  1  0
  2  4  2  0
 18  2  1  0
  2 19  1  0
 19  3  2  0
  3 20  1  0
  4 23  1  0
  5  6  2  0
 17  5  1  0
  6 16  1  0
  7  9  2  0
 12  7  1  0
  9  8  1  0
 10  9  1  0
 11 10  1  0
 12 11  2  0
 13 12  1  0
 13 14  1  0
 24 13  2  0
 15 14  2  0
 16 15  1  0
 17 18  1  0
 20 21  1  0
 20 23  2  0
 21 22  1  0
M  END
$$$$
