
     RDKit          3D

 24 27  0  0  0  0  0  0  0  0999 V2000
  -11.5327    7.5740  -28.3611 C   0  0  0  0  0  0  0  0  0  0  0  0
   -8.6060    5.7804  -29.2231 C   0  0  0  0  0  0  0  0  0  0  0  0
   -7.0258    4.5065  -30.5391 C   0  0  0  0  0  0  0  0  0  0  0  0
   -9.1039    4.5808  -28.7703 C   0  0  0  0  0  0  0  0  0  0  0  0
  -11.0004    6.9269  -30.4207 C   0  0  0  0  0  0  0  0  0  0  0  0
  -12.3687    7.1256  -30.4003 C   0  0  0  0  0  0  0  0  0  0  0  0
  -11.7078    8.9354  -24.1946 C   0  0  0  0  0  0  0  0  0  0  0  0
  -11.3790    9.6187  -21.7953 N   0  0  0  0  0  0  0  0  0  0  0  0
  -12.1665    9.2860  -22.9201 C   0  0  0  0  0  0  0  0  0  0  0  0
  -13.5162    9.2381  -22.9964 N   0  0  0  0  0  0  0  0  0  0  0  0
  -13.8766    8.8851  -24.2229 N   0  0  0  0  0  0  0  0  0  0  0  0
  -12.7916    8.6900  -24.9894 C   0  0  0  0  0  0  0  0  0  0  0  0
  -12.7575    8.2912  -26.4055 C   0  0  0  0  0  0  0  0  0  0  0  0
  -13.9064    8.2416  -27.1676 C   0  0  0  0  0  0  0  0  0  0  0  0
  -13.8705    7.8641  -28.5063 C   0  0  0  0  0  0  0  0  0  0  0  0
  -12.6929    7.5259  -29.1238 C   0  0  0  0  0  0  0  0  0  0  0  0
  -10.5296    7.2063  -29.1752 N   0  0  0  0  0  0  0  0  0  0  0  0
   -9.1257    7.1060  -28.8129 C   0  0  0  0  0  0  0  0  0  0  0  0
   -7.5422    5.7174  -30.1279 C   0  0  0  0  0  0  0  0  0  0  0  0
   -7.5450    3.3222  -30.0687 C   0  0  0  0  0  0  0  0  0  0  0  0
   -6.9980    2.1068  -30.5058 O   0  0  0  0  0  0  0  0  0  0  0  0
   -7.4565    0.8689  -30.0417 C   0  0  0  0  0  0  0  0  0  0  0  0
   -8.5899    3.3636  -29.1794 C   0  0  0  0  0  0  0  0  0  0  0  0
  -11.5760    7.9509  -27.0286 C   0  0  0  0  0  0  0  0  0  0  0  0
  1 16  2  0
 17  1  1  0
  1 24  1  0
  2  4  2  0
 18  2  1  0
  2 19  1  0
 19  3  2  0
  3 20  1  0
  4 23  1  0
  5  6  2  0
 17  5  1  0
  6 16  1  0
  7  9  2  0
 12  7  1  0
  9  8  1  0
 10  9  1  0
 11 10  1  0
 12 11  2  0
 13 12  1  0
 13 14  1  0
 24 13  2  0
 15 14  2  0
 16 15  1  0
 17 18  1  0
 20 21  1  0
 20 23  2  0
 21 22  1  0
M  END
$$$$
