
     RDKit          3D

 24 27  0  0  0  0  0  0  0  0999 V2000
  -12.1031    7.6514  -27.6726 C   0  0  0  0  0  0  0  0  0  0  0  0
  -11.0416    4.1534  -28.1800 C   0  0  0  0  0  0  0  0  0  0  0  0
  -12.5025    2.5660  -29.1497 C   0  0  0  0  0  0  0  0  0  0  0  0
  -10.0038    3.2743  -28.3901 C   0  0  0  0  0  0  0  0  0  0  0  0
  -11.8420    6.5994  -29.5531 C   0  0  0  0  0  0  0  0  0  0  0  0
  -12.5557    7.7362  -29.8302 C   0  0  0  0  0  0  0  0  0  0  0  0
  -13.1675   10.8653  -24.0310 C   0  0  0  0  0  0  0  0  0  0  0  0
  -13.2703   11.8500  -21.7199 N   0  0  0  0  0  0  0  0  0  0  0  0
  -12.9396   10.8250  -22.6506 C   0  0  0  0  0  0  0  0  0  0  0  0
  -12.3576    9.6305  -22.4390 N   0  0  0  0  0  0  0  0  0  0  0  0
  -12.2252    8.9654  -23.5845 N   0  0  0  0  0  0  0  0  0  0  0  0
  -12.7149    9.6949  -24.5990 C   0  0  0  0  0  0  0  0  0  0  0  0
  -12.7365    9.2786  -26.0047 C   0  0  0  0  0  0  0  0  0  0  0  0
  -13.3525   10.0240  -26.9777 C   0  0  0  0  0  0  0  0  0  0  0  0
  -13.3508    9.5985  -28.2881 C   0  0  0  0  0  0  0  0  0  0  0  0
  -12.7219    8.4041  -28.6386 C   0  0  0  0  0  0  0  0  0  0  0  0
  -11.5560    6.5353  -28.2220 N   0  0  0  0  0  0  0  0  0  0  0  0
  -10.8227    5.4862  -27.5427 C   0  0  0  0  0  0  0  0  0  0  0  0
  -12.3027    3.7864  -28.5676 C   0  0  0  0  0  0  0  0  0  0  0  0
  -11.4819    1.6701  -29.3704 C   0  0  0  0  0  0  0  0  0  0  0  0
  -11.6947    0.4176  -29.9692 O   0  0  0  0  0  0  0  0  0  0  0  0
  -11.0784   -0.6935  -29.3631 C   0  0  0  0  0  0  0  0  0  0  0  0
  -10.2115    2.0261  -28.9861 C   0  0  0  0  0  0  0  0  0  0  0  0
  -12.1221    8.1026  -26.3754 C   0  0  0  0  0  0  0  0  0  0  0  0
  1 16  2  0
 17  1  1  0
  1 24  1  0
  2  4  2  0
 18  2  1  0
  2 19  1  0
 19  3  2  0
  3 20  1  0
  4 23  1  0
  5  6  2  0
 17  5  1  0
  6 16  1  0
  7  9  2  0
 12  7  1  0
  9  8  1  0
 10  9  1  0
 11 10  1  0
 12 11  2  0
 13 12  1  0
 13 14  1  0
 24 13  2  0
 15 14  2  0
 16 15  1  0
 18 17  1  6
 20 21  1  0
 20 23  2  0
 22 21  1  1
M  END
$$$$
