
     RDKit          3D

 24 27  0  0  0  0  0  0  0  0999 V2000
  -12.5796    8.8983  -27.5766 C   0  0  0  0  0  0  0  0  0  0  0  0
  -13.0624    6.0118  -29.7990 C   0  0  0  0  0  0  0  0  0  0  0  0
  -13.0427    4.5108  -31.6269 C   0  0  0  0  0  0  0  0  0  0  0  0
  -14.3313    6.3931  -30.1712 C   0  0  0  0  0  0  0  0  0  0  0  0
  -12.3547    8.8614  -29.7351 C   0  0  0  0  0  0  0  0  0  0  0  0
  -12.4481   10.1787  -29.3683 C   0  0  0  0  0  0  0  0  0  0  0  0
  -12.8996   10.1016  -22.7676 C   0  0  0  0  0  0  0  0  0  0  0  0
  -13.0760    9.8090  -20.2766 N   0  0  0  0  0  0  0  0  0  0  0  0
  -13.0859    9.3278  -21.6162 C   0  0  0  0  0  0  0  0  0  0  0  0
  -13.2675    8.0764  -22.0759 N   0  0  0  0  0  0  0  0  0  0  0  0
  -13.2029    8.0526  -23.4053 N   0  0  0  0  0  0  0  0  0  0  0  0
  -12.9758    9.2885  -23.8767 C   0  0  0  0  0  0  0  0  0  0  0  0
  -12.8451    9.6405  -25.2941 C   0  0  0  0  0  0  0  0  0  0  0  0
  -12.8552   10.9421  -25.7272 C   0  0  0  0  0  0  0  0  0  0  0  0
  -12.7296   11.2319  -27.0682 C   0  0  0  0  0  0  0  0  0  0  0  0
  -12.5908   10.2034  -27.9998 C   0  0  0  0  0  0  0  0  0  0  0  0
  -12.4348    8.0594  -28.6359 N   0  0  0  0  0  0  0  0  0  0  0  0
  -12.3800    6.6116  -28.6137 C   0  0  0  0  0  0  0  0  0  0  0  0
  -12.4180    5.0586  -30.5415 C   0  0  0  0  0  0  0  0  0  0  0  0
  -14.3102    4.8751  -32.0191 C   0  0  0  0  0  0  0  0  0  0  0  0
  -14.9458    4.3079  -33.1356 O   0  0  0  0  0  0  0  0  0  0  0  0
  -14.5620    3.0019  -33.4946 C   0  0  0  0  0  0  0  0  0  0  0  0
  -14.9679    5.8307  -31.2825 C   0  0  0  0  0  0  0  0  0  0  0  0
  -12.7067    8.6420  -26.2331 C   0  0  0  0  0  0  0  0  0  0  0  0
  1 16  2  0
 17  1  1  0
  1 24  1  0
  2  4  2  0
 18  2  1  0
  2 19  1  0
 19  3  2  0
  3 20  1  0
  4 23  1  0
  5  6  2  0
 17  5  1  0
  6 16  1  0
  7  9  2  0
 12  7  1  0
  9  8  1  0
 10  9  1  0
 11 10  1  0
 12 11  2  0
 13 12  1  0
 13 14  1  0
 24 13  2  0
 15 14  2  0
 16 15  1  0
 18 17  1  6
 20 21  1  0
 20 23  2  0
 22 21  1  1
M  END
$$$$
