
     RDKit          3D

 24 27  0  0  0  0  0  0  0  0999 V2000
  -12.1947    7.8199  -28.2843 C   0  0  0  0  0  0  0  0  0  0  0  0
  -10.2229    5.1273  -28.3448 C   0  0  0  0  0  0  0  0  0  0  0  0
  -11.4871    3.4285  -27.1756 C   0  0  0  0  0  0  0  0  0  0  0  0
   -9.1984    4.2143  -28.4392 C   0  0  0  0  0  0  0  0  0  0  0  0
  -12.2606    6.6716  -30.1873 C   0  0  0  0  0  0  0  0  0  0  0  0
  -13.4788    7.3132  -30.0599 C   0  0  0  0  0  0  0  0  0  0  0  0
  -13.3026   10.5078  -24.2922 C   0  0  0  0  0  0  0  0  0  0  0  0
  -13.0947   11.6810  -22.0759 N   0  0  0  0  0  0  0  0  0  0  0  0
  -12.5823   10.9760  -23.1878 C   0  0  0  0  0  0  0  0  0  0  0  0
  -11.2993   10.6109  -23.4126 N   0  0  0  0  0  0  0  0  0  0  0  0
  -11.2205    9.9641  -24.5676 N   0  0  0  0  0  0  0  0  0  0  0  0
  -12.4328    9.8806  -25.1387 C   0  0  0  0  0  0  0  0  0  0  0  0
  -12.7751    9.2440  -26.4204 C   0  0  0  0  0  0  0  0  0  0  0  0
  -14.0031    9.4413  -27.0174 C   0  0  0  0  0  0  0  0  0  0  0  0
  -14.3234    8.8377  -28.2294 C   0  0  0  0  0  0  0  0  0  0  0  0
  -13.4329    8.0222  -28.8809 C   0  0  0  0  0  0  0  0  0  0  0  0
  -11.5119    6.9994  -29.0996 N   0  0  0  0  0  0  0  0  0  0  0  0
  -10.1619    6.5063  -28.8835 C   0  0  0  0  0  0  0  0  0  0  0  0
  -11.3847    4.7024  -27.6937 C   0  0  0  0  0  0  0  0  0  0  0  0
  -10.4450    2.5366  -27.2853 C   0  0  0  0  0  0  0  0  0  0  0  0
  -10.5797    1.2480  -26.7479 O   0  0  0  0  0  0  0  0  0  0  0  0
  -11.7152    0.4601  -26.9666 C   0  0  0  0  0  0  0  0  0  0  0  0
   -9.2957    2.9354  -27.9214 C   0  0  0  0  0  0  0  0  0  0  0  0
  -11.8826    8.4242  -27.0773 C   0  0  0  0  0  0  0  0  0  0  0  0
  1 16  2  0
 17  1  1  0
  1 24  1  0
  2  4  2  0
 18  2  1  0
  2 19  1  0
 19  3  2  0
  3 20  1  0
  4 23  1  0
  5  6  2  0
 17  5  1  0
  6 16  1  0
  7  9  2  0
 12  7  1  0
  9  8  1  0
 10  9  1  0
 11 10  1  0
 12 11  2  0
 13 12  1  0
 13 14  1  0
 24 13  2  0
 15 14  2  0
 16 15  1  0
 17 18  1  0
 20 21  1  0
 20 23  2  0
 21 22  1  0
M  END
$$$$
