
     RDKit          3D

 24 27  0  0  0  0  0  0  0  0999 V2000
  -22.0265   19.1062  -12.2715 C   0  0  0  0  0  0  0  0  0  0  0  0
  -23.8926   21.9232  -10.8988 C   0  0  0  0  0  0  0  0  0  0  0  0
  -25.6179   21.5032   -9.2561 C   0  0  0  0  0  0  0  0  0  0  0  0
  -24.4169   23.1873  -11.0377 C   0  0  0  0  0  0  0  0  0  0  0  0
  -24.2075   19.5393  -12.2758 C   0  0  0  0  0  0  0  0  0  0  0  0
  -24.0574   18.2153  -12.6455 C   0  0  0  0  0  0  0  0  0  0  0  0
  -17.6022   16.9340  -12.2376 C   0  0  0  0  0  0  0  0  0  0  0  0
  -15.1168   16.5880  -12.0519 N   0  0  0  0  0  0  0  0  0  0  0  0
  -16.2778   17.3820  -12.1836 C   0  0  0  0  0  0  0  0  0  0  0  0
  -16.3482   18.7292  -12.2839 N   0  0  0  0  0  0  0  0  0  0  0  0
  -17.6175   19.0979  -12.3923 N   0  0  0  0  0  0  0  0  0  0  0  0
  -18.4193   18.0212  -12.3678 C   0  0  0  0  0  0  0  0  0  0  0  0
  -19.8876   17.9979  -12.4614 C   0  0  0  0  0  0  0  0  0  0  0  0
  -20.5679   16.8551  -12.8282 C   0  0  0  0  0  0  0  0  0  0  0  0
  -21.9564   16.8367  -12.9157 C   0  0  0  0  0  0  0  0  0  0  0  0
  -22.7063   17.9524  -12.6413 C   0  0  0  0  0  0  0  0  0  0  0  0
  -22.9632   20.0449  -12.0582 N   0  0  0  0  0  0  0  0  0  0  0  0
  -22.7213   21.4197  -11.6538 C   0  0  0  0  0  0  0  0  0  0  0  0
  -24.5241   21.0788   -9.9810 C   0  0  0  0  0  0  0  0  0  0  0  0
  -26.1202   22.7742   -9.4166 C   0  0  0  0  0  0  0  0  0  0  0  0
  -27.2340   23.1762   -8.6647 O   0  0  0  0  0  0  0  0  0  0  0  0
  -27.8780   22.3210   -7.7637 C   0  0  0  0  0  0  0  0  0  0  0  0
  -25.5136   23.6182  -10.3134 C   0  0  0  0  0  0  0  0  0  0  0  0
  -20.6437   19.1172  -12.1864 C   0  0  0  0  0  0  0  0  0  0  0  0
  1 16  2  0
 17  1  1  0
  1 24  1  0
  2  4  2  0
 18  2  1  0
  2 19  1  0
 19  3  2  0
  3 20  1  0
  4 23  1  0
  5  6  2  0
 17  5  1  0
  6 16  1  0
  7  9  2  0
 12  7  1  0
  9  8  1  0
 10  9  1  0
 11 10  1  0
 12 11  2  0
 13 12  1  0
 13 14  1  0
 24 13  2  0
 15 14  2  0
 16 15  1  0
 17 18  1  0
 20 21  1  0
 20 23  2  0
 21 22  1  0
M  END
$$$$
