
     RDKit          3D

 24 27  0  0  0  0  0  0  0  0999 V2000
  -22.8116   19.8267  -10.7392 C   0  0  0  0  0  0  0  0  0  0  0  0
  -22.2990   21.8749   -8.0228 C   0  0  0  0  0  0  0  0  0  0  0  0
  -22.5092   23.8528   -6.6462 C   0  0  0  0  0  0  0  0  0  0  0  0
  -21.2902   22.5240   -8.6958 C   0  0  0  0  0  0  0  0  0  0  0  0
  -24.4530   21.1499  -10.0325 C   0  0  0  0  0  0  0  0  0  0  0  0
  -24.6784   20.9078  -11.3751 C   0  0  0  0  0  0  0  0  0  0  0  0
  -19.5227   17.3570  -13.4417 C   0  0  0  0  0  0  0  0  0  0  0  0
  -17.5094   15.9942  -14.0907 N   0  0  0  0  0  0  0  0  0  0  0  0
  -18.4561   16.4935  -13.1686 C   0  0  0  0  0  0  0  0  0  0  0  0
  -18.5263   16.2419  -11.8413 N   0  0  0  0  0  0  0  0  0  0  0  0
  -19.5563   16.8961  -11.3219 N   0  0  0  0  0  0  0  0  0  0  0  0
  -20.1941   17.5937  -12.2756 C   0  0  0  0  0  0  0  0  0  0  0  0
  -21.3812   18.4483  -12.1150 C   0  0  0  0  0  0  0  0  0  0  0  0
  -22.2272   18.7120  -13.1724 C   0  0  0  0  0  0  0  0  0  0  0  0
  -23.3488   19.5205  -13.0169 C   0  0  0  0  0  0  0  0  0  0  0  0
  -23.6602   20.0887  -11.8075 C   0  0  0  0  0  0  0  0  0  0  0  0
  -23.3197   20.4829   -9.6831 N   0  0  0  0  0  0  0  0  0  0  0  0
  -22.7645   20.5044   -8.3401 C   0  0  0  0  0  0  0  0  0  0  0  0
  -22.9083   22.5749   -6.9774 C   0  0  0  0  0  0  0  0  0  0  0  0
  -21.4965   24.4769   -7.3380 C   0  0  0  0  0  0  0  0  0  0  0  0
  -21.1134   25.7771   -6.9772 O   0  0  0  0  0  0  0  0  0  0  0  0
  -20.9339   26.1625   -5.6441 C   0  0  0  0  0  0  0  0  0  0  0  0
  -20.8859   23.8055   -8.3680 C   0  0  0  0  0  0  0  0  0  0  0  0
  -21.6965   19.0205  -10.9012 C   0  0  0  0  0  0  0  0  0  0  0  0
  1 16  2  0
 17  1  1  0
  1 24  1  0
  2  4  2  0
 18  2  1  0
  2 19  1  0
 19  3  2  0
  3 20  1  0
  4 23  1  0
  5  6  2  0
 17  5  1  0
  6 16  1  0
  7  9  2  0
 12  7  1  0
  9  8  1  0
 10  9  1  0
 11 10  1  0
 12 11  2  0
 13 12  1  0
 13 14  1  0
 24 13  2  0
 15 14  2  0
 16 15  1  0
 17 18  1  0
 20 21  1  0
 20 23  2  0
 21 22  1  0
M  END
$$$$
