
     RDKit          3D

 24 27  0  0  0  0  0  0  0  0999 V2000
  -23.1156   19.8680  -11.2180 C   0  0  0  0  0  0  0  0  0  0  0  0
  -22.6536   22.0242   -8.5510 C   0  0  0  0  0  0  0  0  0  0  0  0
  -22.1807   24.2247   -9.2779 C   0  0  0  0  0  0  0  0  0  0  0  0
  -22.1181   22.3514   -7.3262 C   0  0  0  0  0  0  0  0  0  0  0  0
  -24.8252   21.0991  -10.6956 C   0  0  0  0  0  0  0  0  0  0  0  0
  -24.9598   20.7747  -12.0204 C   0  0  0  0  0  0  0  0  0  0  0  0
  -19.3883   17.5175  -13.4380 C   0  0  0  0  0  0  0  0  0  0  0  0
  -17.2226   16.2727  -13.7245 N   0  0  0  0  0  0  0  0  0  0  0  0
  -18.3470   16.7086  -12.9683 C   0  0  0  0  0  0  0  0  0  0  0  0
  -18.6644   16.4611  -11.6844 N   0  0  0  0  0  0  0  0  0  0  0  0
  -19.8089   17.0596  -11.3619 N   0  0  0  0  0  0  0  0  0  0  0  0
  -20.2931   17.7268  -12.4209 C   0  0  0  0  0  0  0  0  0  0  0  0
  -21.5371   18.5029  -12.4328 C   0  0  0  0  0  0  0  0  0  0  0  0
  -22.3045   18.6351  -13.5622 C   0  0  0  0  0  0  0  0  0  0  0  0
  -23.4675   19.3732  -13.5328 C   0  0  0  0  0  0  0  0  0  0  0  0
  -23.8764   19.9941  -12.3529 C   0  0  0  0  0  0  0  0  0  0  0  0
  -23.6884   20.5444  -10.1878 N   0  0  0  0  0  0  0  0  0  0  0  0
  -23.1989   20.6619   -8.8291 C   0  0  0  0  0  0  0  0  0  0  0  0
  -22.6810   22.9785   -9.5327 C   0  0  0  0  0  0  0  0  0  0  0  0
  -21.6404   24.5761   -8.0623 C   0  0  0  0  0  0  0  0  0  0  0  0
  -21.1281   25.8587   -7.8077 O   0  0  0  0  0  0  0  0  0  0  0  0
  -19.9921   25.9405   -6.9803 C   0  0  0  0  0  0  0  0  0  0  0  0
  -21.6068   23.6276   -7.0686 C   0  0  0  0  0  0  0  0  0  0  0  0
  -21.9616   19.1255  -11.2796 C   0  0  0  0  0  0  0  0  0  0  0  0
  1 16  2  0
 17  1  1  0
  1 24  1  0
  2  4  2  0
 18  2  1  0
  2 19  1  0
 19  3  2  0
  3 20  1  0
  4 23  1  0
  5  6  2  0
 17  5  1  0
  6 16  1  0
  7  9  2  0
 12  7  1  0
  9  8  1  0
 10  9  1  0
 11 10  1  0
 12 11  2  0
 13 12  1  0
 13 14  1  0
 24 13  2  0
 15 14  2  0
 16 15  1  0
 18 17  1  6
 20 21  1  0
 20 23  2  0
 22 21  1  1
M  END
$$$$
