
     RDKit          3D

 24 27  0  0  0  0  0  0  0  0999 V2000
  -12.3652    7.9831  -28.4130 C   0  0  0  0  0  0  0  0  0  0  0  0
  -10.2806    5.5482  -28.5603 C   0  0  0  0  0  0  0  0  0  0  0  0
   -9.0756    3.9994  -27.1458 C   0  0  0  0  0  0  0  0  0  0  0  0
  -11.3049    4.6306  -28.5895 C   0  0  0  0  0  0  0  0  0  0  0  0
  -12.4635    7.1145  -30.4576 C   0  0  0  0  0  0  0  0  0  0  0  0
  -13.6983    7.6806  -30.1990 C   0  0  0  0  0  0  0  0  0  0  0  0
  -13.3994    9.6990  -23.9328 C   0  0  0  0  0  0  0  0  0  0  0  0
  -13.1430   10.4378  -21.5412 N   0  0  0  0  0  0  0  0  0  0  0  0
  -12.6594   10.1636  -22.8400 C   0  0  0  0  0  0  0  0  0  0  0  0
  -11.3908   10.2926  -23.2916 N   0  0  0  0  0  0  0  0  0  0  0  0
  -11.3386    9.9368  -24.5681 N   0  0  0  0  0  0  0  0  0  0  0  0
  -12.5550    9.5653  -24.9985 C   0  0  0  0  0  0  0  0  0  0  0  0
  -12.9237    9.1033  -26.3461 C   0  0  0  0  0  0  0  0  0  0  0  0
  -14.1804    9.3322  -26.8673 C   0  0  0  0  0  0  0  0  0  0  0  0
  -14.5255    8.8939  -28.1418 C   0  0  0  0  0  0  0  0  0  0  0  0
  -13.6322    8.2166  -28.9329 C   0  0  0  0  0  0  0  0  0  0  0  0
  -11.6853    7.3155  -29.3598 N   0  0  0  0  0  0  0  0  0  0  0  0
  -10.3110    6.8530  -29.2617 C   0  0  0  0  0  0  0  0  0  0  0  0
   -9.1495    5.2032  -27.8148 C   0  0  0  0  0  0  0  0  0  0  0  0
  -10.1168    3.1010  -27.1935 C   0  0  0  0  0  0  0  0  0  0  0  0
  -10.0114    1.8850  -26.5024 O   0  0  0  0  0  0  0  0  0  0  0  0
  -10.6268    1.6713  -25.2640 C   0  0  0  0  0  0  0  0  0  0  0  0
  -11.2361    3.4219  -27.9206 C   0  0  0  0  0  0  0  0  0  0  0  0
  -12.0283    8.4225  -27.1430 C   0  0  0  0  0  0  0  0  0  0  0  0
  1 16  2  0
 17  1  1  0
  1 24  1  0
  2  4  2  0
 18  2  1  0
  2 19  1  0
 19  3  2  0
  3 20  1  0
  4 23  1  0
  5  6  2  0
 17  5  1  0
  6 16  1  0
  7  9  2  0
 12  7  1  0
  9  8  1  0
 10  9  1  0
 11 10  1  0
 12 11  2  0
 13 12  1  0
 13 14  1  0
 24 13  2  0
 15 14  2  0
 16 15  1  0
 17 18  1  0
 20 21  1  0
 20 23  2  0
 21 22  1  0
M  END
$$$$
