
     RDKit          3D

 24 27  0  0  0  0  0  0  0  0999 V2000
  -14.5541   10.4813  -25.8286 C   0  0  0  0  0  0  0  0  0  0  0  0
  -11.9636   11.1082  -27.7135 C   0  0  0  0  0  0  0  0  0  0  0  0
  -10.2416   12.2507  -28.9709 C   0  0  0  0  0  0  0  0  0  0  0  0
  -11.8970   12.1371  -26.8030 C   0  0  0  0  0  0  0  0  0  0  0  0
  -15.1738   10.7942  -27.9410 C   0  0  0  0  0  0  0  0  0  0  0  0
  -16.2491   11.1492  -27.1474 C   0  0  0  0  0  0  0  0  0  0  0  0
  -14.4224   10.0078  -20.9131 C   0  0  0  0  0  0  0  0  0  0  0  0
  -13.5914    9.5330  -18.5859 N   0  0  0  0  0  0  0  0  0  0  0  0
  -13.4279    9.6955  -19.9798 C   0  0  0  0  0  0  0  0  0  0  0  0
  -12.2847    9.5836  -20.6943 N   0  0  0  0  0  0  0  0  0  0  0  0
  -12.5416    9.8080  -21.9759 N   0  0  0  0  0  0  0  0  0  0  0  0
  -13.8464   10.0726  -22.1502 C   0  0  0  0  0  0  0  0  0  0  0  0
  -14.5360   10.3743  -23.4146 C   0  0  0  0  0  0  0  0  0  0  0  0
  -15.8332   10.8437  -23.4333 C   0  0  0  0  0  0  0  0  0  0  0  0
  -16.4822   11.1280  -24.6308 C   0  0  0  0  0  0  0  0  0  0  0  0
  -15.8605   10.9538  -25.8414 C   0  0  0  0  0  0  0  0  0  0  0  0
  -14.1702   10.3966  -27.1130 N   0  0  0  0  0  0  0  0  0  0  0  0
  -12.8740    9.9456  -27.5913 C   0  0  0  0  0  0  0  0  0  0  0  0
  -11.1068   11.1881  -28.8152 C   0  0  0  0  0  0  0  0  0  0  0  0
  -10.1974   13.2658  -28.0429 C   0  0  0  0  0  0  0  0  0  0  0  0
   -9.3065   14.3331  -28.2294 O   0  0  0  0  0  0  0  0  0  0  0  0
   -8.9050   15.1661  -27.1792 C   0  0  0  0  0  0  0  0  0  0  0  0
  -11.0313   13.2052  -26.9541 C   0  0  0  0  0  0  0  0  0  0  0  0
  -13.9140   10.2003  -24.6324 C   0  0  0  0  0  0  0  0  0  0  0  0
  1 16  2  0
 17  1  1  0
  1 24  1  0
  2  4  2  0
 18  2  1  0
  2 19  1  0
 19  3  2  0
  3 20  1  0
  4 23  1  0
  5  6  2  0
 17  5  1  0
  6 16  1  0
  7  9  2  0
 12  7  1  0
  9  8  1  0
 10  9  1  0
 11 10  1  0
 12 11  2  0
 13 12  1  0
 13 14  1  0
 24 13  2  0
 15 14  2  0
 16 15  1  0
 17 18  1  0
 20 21  1  0
 20 23  2  0
 21 22  1  0
M  END
$$$$
