
     RDKit          3D

 24 27  0  0  0  0  0  0  0  0999 V2000
  -14.3162   10.9722  -24.8596 C   0  0  0  0  0  0  0  0  0  0  0  0
  -11.9290   11.1070  -27.6673 C   0  0  0  0  0  0  0  0  0  0  0  0
  -10.2335   10.9538  -29.3093 C   0  0  0  0  0  0  0  0  0  0  0  0
  -12.6842   10.2335  -28.4161 C   0  0  0  0  0  0  0  0  0  0  0  0
  -14.7647   10.9627  -26.9833 C   0  0  0  0  0  0  0  0  0  0  0  0
  -15.9027   10.5579  -26.3355 C   0  0  0  0  0  0  0  0  0  0  0  0
  -14.4231   10.8857  -19.8952 C   0  0  0  0  0  0  0  0  0  0  0  0
  -13.6157   11.0731  -17.5215 N   0  0  0  0  0  0  0  0  0  0  0  0
  -13.4194   11.0318  -18.9307 C   0  0  0  0  0  0  0  0  0  0  0  0
  -12.2794   11.1189  -19.6400 N   0  0  0  0  0  0  0  0  0  0  0  0
  -12.5327   11.0356  -20.9442 N   0  0  0  0  0  0  0  0  0  0  0  0
  -13.8512   10.8902  -21.1482 C   0  0  0  0  0  0  0  0  0  0  0  0
  -14.4938   10.7662  -22.4602 C   0  0  0  0  0  0  0  0  0  0  0  0
  -15.7961   10.3584  -22.5999 C   0  0  0  0  0  0  0  0  0  0  0  0
  -16.3641   10.2546  -23.8508 C   0  0  0  0  0  0  0  0  0  0  0  0
  -15.6196   10.5635  -24.9889 C   0  0  0  0  0  0  0  0  0  0  0  0
  -13.7761   11.2219  -26.0815 N   0  0  0  0  0  0  0  0  0  0  0  0
  -12.4291   11.6672  -26.3763 C   0  0  0  0  0  0  0  0  0  0  0  0
  -10.6901   11.4659  -28.1271 C   0  0  0  0  0  0  0  0  0  0  0  0
  -10.9692   10.0794  -30.0757 C   0  0  0  0  0  0  0  0  0  0  0  0
  -10.4934    9.5572  -31.2895 O   0  0  0  0  0  0  0  0  0  0  0  0
  -11.1613    8.4308  -31.8061 C   0  0  0  0  0  0  0  0  0  0  0  0
  -12.2142    9.7112  -29.6255 C   0  0  0  0  0  0  0  0  0  0  0  0
  -13.7787   11.0658  -23.5990 C   0  0  0  0  0  0  0  0  0  0  0  0
  1 16  2  0
 17  1  1  0
  1 24  1  0
  2  4  2  0
 18  2  1  0
  2 19  1  0
 19  3  2  0
  3 20  1  0
  4 23  1  0
  5  6  2  0
 17  5  1  0
  6 16  1  0
  7  9  2  0
 12  7  1  0
  9  8  1  0
 10  9  1  0
 11 10  1  0
 12 11  2  0
 13 12  1  0
 13 14  1  0
 24 13  2  0
 15 14  2  0
 16 15  1  0
 18 17  1  6
 20 21  1  0
 20 23  2  0
 22 21  1  1
M  END
$$$$
