
     RDKit          3D

 24 27  0  0  0  0  0  0  0  0999 V2000
  -22.4893   18.7027  -11.9775 C   0  0  0  0  0  0  0  0  0  0  0  0
  -23.3643   21.3298   -9.9073 C   0  0  0  0  0  0  0  0  0  0  0  0
  -22.7390   22.6541   -7.9820 C   0  0  0  0  0  0  0  0  0  0  0  0
  -24.2776   20.6947   -9.0982 C   0  0  0  0  0  0  0  0  0  0  0  0
  -24.6077   19.0064  -11.3739 C   0  0  0  0  0  0  0  0  0  0  0  0
  -24.4630   17.6659  -11.6810 C   0  0  0  0  0  0  0  0  0  0  0  0
  -18.1609   16.8036  -13.4297 C   0  0  0  0  0  0  0  0  0  0  0  0
  -15.7354   16.6207  -14.0739 N   0  0  0  0  0  0  0  0  0  0  0  0
  -16.8860   17.3304  -13.6636 C   0  0  0  0  0  0  0  0  0  0  0  0
  -16.9917   18.6557  -13.4140 N   0  0  0  0  0  0  0  0  0  0  0  0
  -18.2357   18.9387  -13.0518 N   0  0  0  0  0  0  0  0  0  0  0  0
  -18.9853   17.8247  -13.0496 C   0  0  0  0  0  0  0  0  0  0  0  0
  -20.4119   17.7080  -12.7085 C   0  0  0  0  0  0  0  0  0  0  0  0
  -21.0737   16.4998  -12.7825 C   0  0  0  0  0  0  0  0  0  0  0  0
  -22.4227   16.3931  -12.4592 C   0  0  0  0  0  0  0  0  0  0  0  0
  -23.1506   17.4833  -12.0538 C   0  0  0  0  0  0  0  0  0  0  0  0
  -23.3986   19.6006  -11.5639 N   0  0  0  0  0  0  0  0  0  0  0  0
  -23.1634   21.0175  -11.3417 C   0  0  0  0  0  0  0  0  0  0  0  0
  -22.5879   22.3294   -9.3138 C   0  0  0  0  0  0  0  0  0  0  0  0
  -23.6615   22.0010   -7.1972 C   0  0  0  0  0  0  0  0  0  0  0  0
  -23.7916   22.3541   -5.8459 O   0  0  0  0  0  0  0  0  0  0  0  0
  -24.9630   22.1156   -5.1186 C   0  0  0  0  0  0  0  0  0  0  0  0
  -24.4334   21.0163   -7.7620 C   0  0  0  0  0  0  0  0  0  0  0  0
  -21.1457   18.8015  -12.3009 C   0  0  0  0  0  0  0  0  0  0  0  0
  1 16  2  0
 17  1  1  0
  1 24  1  0
  2  4  2  0
 18  2  1  0
  2 19  1  0
 19  3  2  0
  3 20  1  0
  4 23  1  0
  5  6  2  0
 17  5  1  0
  6 16  1  0
  7  9  2  0
 12  7  1  0
  9  8  1  0
 10  9  1  0
 11 10  1  0
 12 11  2  0
 13 12  1  0
 13 14  1  0
 24 13  2  0
 15 14  2  0
 16 15  1  0
 17 18  1  0
 20 21  1  0
 20 23  2  0
 21 22  1  0
M  END
$$$$
