
     RDKit          3D

 24 27  0  0  0  0  0  0  0  0999 V2000
  -23.4028   20.5317  -11.0824 C   0  0  0  0  0  0  0  0  0  0  0  0
  -23.1839   21.3651   -7.9820 C   0  0  0  0  0  0  0  0  0  0  0  0
  -21.4974   21.2914   -6.2493 C   0  0  0  0  0  0  0  0  0  0  0  0
  -22.8212   22.6747   -8.1953 C   0  0  0  0  0  0  0  0  0  0  0  0
  -24.9558   22.0637  -10.6519 C   0  0  0  0  0  0  0  0  0  0  0  0
  -24.6411   22.1730  -11.9939 C   0  0  0  0  0  0  0  0  0  0  0  0
  -19.7933   17.8397  -13.0916 C   0  0  0  0  0  0  0  0  0  0  0  0
  -17.9593   16.1397  -13.3709 N   0  0  0  0  0  0  0  0  0  0  0  0
  -19.0629   16.7123  -12.7001 C   0  0  0  0  0  0  0  0  0  0  0  0
  -19.6371   16.2920  -11.5496 N   0  0  0  0  0  0  0  0  0  0  0  0
  -20.6486   17.0930  -11.2430 N   0  0  0  0  0  0  0  0  0  0  0  0
  -20.7763   18.0576  -12.1681 C   0  0  0  0  0  0  0  0  0  0  0  0
  -21.7708   19.1418  -12.1977 C   0  0  0  0  0  0  0  0  0  0  0  0
  -22.0498   19.8318  -13.3593 C   0  0  0  0  0  0  0  0  0  0  0  0
  -22.9908   20.8563  -13.3836 C   0  0  0  0  0  0  0  0  0  0  0  0
  -23.6798   21.2231  -12.2551 C   0  0  0  0  0  0  0  0  0  0  0  0
  -24.1907   21.0648  -10.1342 N   0  0  0  0  0  0  0  0  0  0  0  0
  -24.2450   20.6608   -8.7391 C   0  0  0  0  0  0  0  0  0  0  0  0
  -22.4923   20.6771   -6.9807 C   0  0  0  0  0  0  0  0  0  0  0  0
  -21.1564   22.6034   -6.4855 C   0  0  0  0  0  0  0  0  0  0  0  0
  -20.1401   23.2001   -5.7248 O   0  0  0  0  0  0  0  0  0  0  0  0
  -19.0528   22.4740   -5.2263 C   0  0  0  0  0  0  0  0  0  0  0  0
  -21.8243   23.2958   -7.4649 C   0  0  0  0  0  0  0  0  0  0  0  0
  -22.4645   19.5124  -11.0656 C   0  0  0  0  0  0  0  0  0  0  0  0
  1 16  2  0
 17  1  1  0
  1 24  1  0
  2  4  2  0
 18  2  1  0
  2 19  1  0
 19  3  2  0
  3 20  1  0
  4 23  1  0
  5  6  2  0
 17  5  1  0
  6 16  1  0
  7  9  2  0
 12  7  1  0
  9  8  1  0
 10  9  1  0
 11 10  1  0
 12 11  2  0
 13 12  1  0
 13 14  1  0
 24 13  2  0
 15 14  2  0
 16 15  1  0
 17 18  1  0
 20 21  1  0
 20 23  2  0
 21 22  1  0
M  END
$$$$
