
     RDKit          3D

 14 14  0  0  0  0  0  0  0  0999 V2000
    3.9095  -12.2008  -37.9724 C   0  0  0  0  0  0  0  0  0  0  0  0
    5.1665  -12.6995  -38.2111 C   0  0  0  0  0  0  0  0  0  0  0  0
    6.1516  -12.4671  -37.2849 C   0  0  0  0  0  0  0  0  0  0  0  0
    5.8707  -11.7491  -36.1483 C   0  0  0  0  0  0  0  0  0  0  0  0
    4.6212  -11.2325  -35.8742 C   0  0  0  0  0  0  0  0  0  0  0  0
    3.6481  -11.4758  -36.8130 C   0  0  0  0  0  0  0  0  0  0  0  0
    4.2944  -10.4711  -34.6548 C   0  0  0  0  0  0  0  0  0  0  0  0
    5.0001  -10.2128  -32.2901 C   0  0  0  0  0  0  0  0  0  0  0  0
    6.5244   -9.7181  -29.1718 C   0  0  0  0  0  0  0  0  0  0  0  0
    5.9998  -10.6398  -31.3482 N   0  0  0  0  0  0  0  0  0  0  0  0
    5.0049  -10.8087  -33.5180 O   0  0  0  0  0  0  0  0  0  0  0  0
    4.1539   -9.3471  -32.0406 O   0  0  0  0  0  0  0  0  0  0  0  0
    5.7405  -10.4857  -30.0118 O   0  0  0  0  0  0  0  0  0  0  0  0
    6.4002   -8.4795  -29.1494 O   0  0  0  0  0  0  0  0  0  0  0  0
  1  2  2  0
  6  1  1  0
  3  2  1  0
  4  3  2  0
  5  4  1  0
  5  6  2  0
  7  5  1  0
 11  7  1  0
 10  8  1  0
  8 11  1  0
  8 12  2  0
 13  9  1  0
  9 14  2  0
 10 13  1  0
M  END
$$$$
