
     RDKit          3D

 14 14  0  0  0  0  0  0  0  0999 V2000
    4.1137  -11.2812  -34.2075 C   0  0  0  0  0  0  0  0  0  0  0  0
    4.4944  -12.5885  -34.3258 C   0  0  0  0  0  0  0  0  0  0  0  0
    5.4918  -13.1071  -33.5011 C   0  0  0  0  0  0  0  0  0  0  0  0
    6.0583  -12.2419  -32.5799 C   0  0  0  0  0  0  0  0  0  0  0  0
    5.6803  -10.9254  -32.4552 C   0  0  0  0  0  0  0  0  0  0  0  0
    4.6847  -10.4413  -33.2915 C   0  0  0  0  0  0  0  0  0  0  0  0
    6.3415  -10.0942  -31.4497 C   0  0  0  0  0  0  0  0  0  0  0  0
    5.8729   -9.1135  -29.2418 C   0  0  0  0  0  0  0  0  0  0  0  0
    3.2290   -8.7393  -26.8793 C   0  0  0  0  0  0  0  0  0  0  0  0
    5.3028   -9.1956  -27.9525 N   0  0  0  0  0  0  0  0  0  0  0  0
    5.4797   -9.8547  -30.3257 O   0  0  0  0  0  0  0  0  0  0  0  0
    6.8235   -8.2914  -29.4166 O   0  0  0  0  0  0  0  0  0  0  0  0
    3.9889   -9.5347  -27.7245 O   0  0  0  0  0  0  0  0  0  0  0  0
    2.2582   -8.1038  -27.3767 O   0  0  0  0  0  0  0  0  0  0  0  0
  1  2  2  0
  6  1  1  0
  3  2  1  0
  4  3  2  0
  5  4  1  0
  5  6  2  0
  7  5  1  0
  7 11  1  6
 10  8  1  0
  8 11  1  0
  8 12  2  0
 13  9  1  0
  9 14  2  0
 10 13  1  0
M  END
$$$$
