
     RDKit          3D

 14 14  0  0  0  0  0  0  0  0999 V2000
    3.7083  -12.3804  -39.6360 C   0  0  0  0  0  0  0  0  0  0  0  0
    2.7806  -12.2171  -38.6367 C   0  0  0  0  0  0  0  0  0  0  0  0
    1.7409  -13.1084  -38.5542 C   0  0  0  0  0  0  0  0  0  0  0  0
    1.6438  -14.1367  -39.4594 C   0  0  0  0  0  0  0  0  0  0  0  0
    2.5555  -14.3328  -40.4761 C   0  0  0  0  0  0  0  0  0  0  0  0
    3.5895  -13.4305  -40.5422 C   0  0  0  0  0  0  0  0  0  0  0  0
    2.4782  -15.4372  -41.4498 C   0  0  0  0  0  0  0  0  0  0  0  0
    1.1060  -16.2351  -43.3568 C   0  0  0  0  0  0  0  0  0  0  0  0
   -2.2435  -14.8715  -44.1747 C   0  0  0  0  0  0  0  0  0  0  0  0
   -0.0597  -15.9161  -44.1368 N   0  0  0  0  0  0  0  0  0  0  0  0
    1.3729  -15.4400  -42.2800 O   0  0  0  0  0  0  0  0  0  0  0  0
    1.8611  -17.1791  -43.6144 O   0  0  0  0  0  0  0  0  0  0  0  0
   -1.0408  -15.1557  -43.5568 O   0  0  0  0  0  0  0  0  0  0  0  0
   -2.8108  -15.7293  -44.8765 O   0  0  0  0  0  0  0  0  0  0  0  0
  1  2  2  0
  6  1  1  0
  3  2  1  0
  4  3  2  0
  5  4  1  0
  5  6  2  0
  7  5  1  0
 11  7  1  0
 10  8  1  0
  8 11  1  0
  8 12  2  0
 13  9  1  0
  9 14  2  0
 10 13  1  0
M  END
$$$$
