
     RDKit          3D

 14 14  0  0  0  0  0  0  0  0999 V2000
    2.7581  -12.4637  -39.0536 C   0  0  0  0  0  0  0  0  0  0  0  0
    3.7651  -13.3684  -39.2843 C   0  0  0  0  0  0  0  0  0  0  0  0
    3.6561  -14.2114  -40.3612 C   0  0  0  0  0  0  0  0  0  0  0  0
    2.5570  -14.1397  -41.1816 C   0  0  0  0  0  0  0  0  0  0  0  0
    1.5261  -13.2449  -40.9819 C   0  0  0  0  0  0  0  0  0  0  0  0
    1.6534  -12.4091  -39.8990 C   0  0  0  0  0  0  0  0  0  0  0  0
    0.3444  -13.1415  -41.8574 C   0  0  0  0  0  0  0  0  0  0  0  0
   -1.3534  -14.5611  -42.9793 C   0  0  0  0  0  0  0  0  0  0  0  0
   -2.5615  -17.3302  -44.8388 C   0  0  0  0  0  0  0  0  0  0  0  0
   -1.8948  -15.8935  -43.0077 N   0  0  0  0  0  0  0  0  0  0  0  0
   -0.3379  -14.3190  -42.1000 O   0  0  0  0  0  0  0  0  0  0  0  0
   -1.7598  -13.6446  -43.7021 O   0  0  0  0  0  0  0  0  0  0  0  0
   -2.7462  -16.2266  -44.0281 O   0  0  0  0  0  0  0  0  0  0  0  0
   -1.7140  -18.1940  -44.5457 O   0  0  0  0  0  0  0  0  0  0  0  0
  1  2  2  0
  6  1  1  0
  3  2  1  0
  4  3  2  0
  5  4  1  0
  5  6  2  0
  7  5  1  0
 11  7  1  0
 10  8  1  0
  8 11  1  0
  8 12  2  0
 13  9  1  0
  9 14  2  0
 10 13  1  0
M  END
$$$$
