
     RDKit          3D

 14 14  0  0  0  0  0  0  0  0999 V2000
    3.5146  -10.7406  -38.2587 C   0  0  0  0  0  0  0  0  0  0  0  0
    3.6143  -12.0469  -38.6702 C   0  0  0  0  0  0  0  0  0  0  0  0
    4.6017  -12.8317  -38.1302 C   0  0  0  0  0  0  0  0  0  0  0  0
    5.4643  -12.3071  -37.1992 C   0  0  0  0  0  0  0  0  0  0  0  0
    5.3955  -11.0005  -36.7616 C   0  0  0  0  0  0  0  0  0  0  0  0
    4.4003  -10.2306  -37.3134 C   0  0  0  0  0  0  0  0  0  0  0  0
    6.3019  -10.4208  -35.7536 C   0  0  0  0  0  0  0  0  0  0  0  0
    7.8574  -11.0845  -33.9380 C   0  0  0  0  0  0  0  0  0  0  0  0
    9.2545  -14.2543  -32.7208 C   0  0  0  0  0  0  0  0  0  0  0  0
    8.8662  -12.0888  -33.7314 N   0  0  0  0  0  0  0  0  0  0  0  0
    6.9336  -11.3199  -34.9148 O   0  0  0  0  0  0  0  0  0  0  0  0
    7.7921  -10.0388  -33.2824 O   0  0  0  0  0  0  0  0  0  0  0  0
    8.4624  -13.3588  -33.4137 O   0  0  0  0  0  0  0  0  0  0  0  0
   10.4309  -13.9651  -32.4332 O   0  0  0  0  0  0  0  0  0  0  0  0
  1  2  2  0
  6  1  1  0
  3  2  1  0
  4  3  2  0
  5  4  1  0
  5  6  2  0
  7  5  1  0
 11  7  1  0
 10  8  1  0
  8 11  1  0
  8 12  2  0
 13  9  1  0
  9 14  2  0
 10 13  1  0
M  END
$$$$
