
     RDKit          3D

 14 14  0  0  0  0  0  0  0  0999 V2000
    7.6048  -14.3882  -34.0201 C   0  0  0  0  0  0  0  0  0  0  0  0
    8.3313  -13.9121  -35.0753 C   0  0  0  0  0  0  0  0  0  0  0  0
    8.0969  -12.6289  -35.5676 C   0  0  0  0  0  0  0  0  0  0  0  0
    7.1107  -11.8857  -34.9405 C   0  0  0  0  0  0  0  0  0  0  0  0
    6.3757  -12.3582  -33.8784 C   0  0  0  0  0  0  0  0  0  0  0  0
    6.6343  -13.6394  -33.4132 C   0  0  0  0  0  0  0  0  0  0  0  0
    5.3560  -11.4930  -33.2861 C   0  0  0  0  0  0  0  0  0  0  0  0
    5.1000  -10.2992  -31.1495 C   0  0  0  0  0  0  0  0  0  0  0  0
    5.0517   -8.4404  -28.0886 C   0  0  0  0  0  0  0  0  0  0  0  0
    5.2830  -10.1166  -29.7612 N   0  0  0  0  0  0  0  0  0  0  0  0
    5.5258  -11.3890  -31.8635 O   0  0  0  0  0  0  0  0  0  0  0  0
    4.4950   -9.3869  -31.7910 O   0  0  0  0  0  0  0  0  0  0  0  0
    4.4688   -9.3223  -28.9869 O   0  0  0  0  0  0  0  0  0  0  0  0
    6.0884   -7.8201  -28.4547 O   0  0  0  0  0  0  0  0  0  0  0  0
  1  2  2  0
  6  1  1  0
  3  2  1  0
  4  3  2  0
  5  4  1  0
  5  6  2  0
  7  5  1  0
  7 11  1  6
 10  8  1  0
  8 11  1  0
  8 12  2  0
 13  9  1  0
  9 14  2  0
 10 13  1  0
M  END
$$$$
