
     RDKit          3D

 14 14  0  0  0  0  0  0  0  0999 V2000
    3.2647  -11.2155  -40.0704 C   0  0  0  0  0  0  0  0  0  0  0  0
    3.7698  -11.9630  -39.0351 C   0  0  0  0  0  0  0  0  0  0  0  0
    3.1043  -13.1037  -38.6634 C   0  0  0  0  0  0  0  0  0  0  0  0
    1.9585  -13.4765  -39.3225 C   0  0  0  0  0  0  0  0  0  0  0  0
    1.4212  -12.7517  -40.3663 C   0  0  0  0  0  0  0  0  0  0  0  0
    2.1017  -11.6132  -40.7240 C   0  0  0  0  0  0  0  0  0  0  0  0
    0.2008  -13.1406  -41.0964 C   0  0  0  0  0  0  0  0  0  0  0  0
   -0.5711  -14.6252  -42.9286 C   0  0  0  0  0  0  0  0  0  0  0  0
    1.6174  -17.1861  -44.4783 C   0  0  0  0  0  0  0  0  0  0  0  0
   -0.1949  -15.7999  -43.6686 N   0  0  0  0  0  0  0  0  0  0  0  0
    0.3603  -14.0957  -42.0829 O   0  0  0  0  0  0  0  0  0  0  0  0
   -1.6789  -14.0854  -43.0235 O   0  0  0  0  0  0  0  0  0  0  0  0
    1.1324  -16.1349  -43.7239 O   0  0  0  0  0  0  0  0  0  0  0  0
    0.8514  -17.8508  -45.2006 O   0  0  0  0  0  0  0  0  0  0  0  0
  1  2  2  0
  6  1  1  0
  3  2  1  0
  4  3  2  0
  5  4  1  0
  5  6  2  0
  7  5  1  0
 11  7  1  0
 10  8  1  0
  8 11  1  0
  8 12  2  0
 13  9  1  0
  9 14  2  0
 10 13  1  0
M  END
$$$$
