
     RDKit          3D

 14 14  0  0  0  0  0  0  0  0999 V2000
    4.1647  -10.5782  -31.6806 C   0  0  0  0  0  0  0  0  0  0  0  0
    4.7951  -11.5267  -30.9134 C   0  0  0  0  0  0  0  0  0  0  0  0
    5.6893  -12.3727  -31.5192 C   0  0  0  0  0  0  0  0  0  0  0  0
    5.9377  -12.2607  -32.8653 C   0  0  0  0  0  0  0  0  0  0  0  0
    5.3241  -11.3213  -33.6680 C   0  0  0  0  0  0  0  0  0  0  0  0
    4.4324  -10.4833  -33.0435 C   0  0  0  0  0  0  0  0  0  0  0  0
    5.5859  -11.1746  -35.1115 C   0  0  0  0  0  0  0  0  0  0  0  0
    6.8910  -12.1961  -36.9580 C   0  0  0  0  0  0  0  0  0  0  0  0
    8.5895  -15.3045  -36.2970 C   0  0  0  0  0  0  0  0  0  0  0  0
    7.4470  -13.4579  -37.3676 N   0  0  0  0  0  0  0  0  0  0  0  0
    6.4508  -12.0971  -35.6698 O   0  0  0  0  0  0  0  0  0  0  0  0
    6.7965  -11.2175  -37.7070 O   0  0  0  0  0  0  0  0  0  0  0  0
    8.4928  -13.9712  -36.6466 O   0  0  0  0  0  0  0  0  0  0  0  0
    7.6827  -16.1032  -36.5972 O   0  0  0  0  0  0  0  0  0  0  0  0
  1  2  2  0
  6  1  1  0
  3  2  1  0
  4  3  2  0
  5  4  1  0
  5  6  2  0
  7  5  1  0
 11  7  1  0
 10  8  1  0
  8 11  1  0
  8 12  2  0
 13  9  1  0
  9 14  2  0
 10 13  1  0
M  END
$$$$
