
     RDKit          3D

 14 14  0  0  0  0  0  0  0  0999 V2000
   -0.5391  -11.0208  -29.4161 C   0  0  0  0  0  0  0  0  0  0  0  0
   -1.2549  -11.5564  -28.3824 C   0  0  0  0  0  0  0  0  0  0  0  0
   -0.9530  -11.2112  -27.0657 C   0  0  0  0  0  0  0  0  0  0  0  0
    0.0873  -10.3174  -26.8732 C   0  0  0  0  0  0  0  0  0  0  0  0
    0.8119   -9.7745  -27.9085 C   0  0  0  0  0  0  0  0  0  0  0  0
    0.4855  -10.1391  -29.2066 C   0  0  0  0  0  0  0  0  0  0  0  0
    1.8923   -8.8387  -27.5982 C   0  0  0  0  0  0  0  0  0  0  0  0
    4.2515   -8.4556  -28.1841 C   0  0  0  0  0  0  0  0  0  0  0  0
    6.7068   -9.7951  -30.5812 C   0  0  0  0  0  0  0  0  0  0  0  0
    5.3790   -8.5801  -29.0252 N   0  0  0  0  0  0  0  0  0  0  0  0
    3.0954   -9.1822  -28.3038 O   0  0  0  0  0  0  0  0  0  0  0  0
    4.3070   -7.6067  -27.2428 O   0  0  0  0  0  0  0  0  0  0  0  0
    5.4602   -9.4890  -30.0550 O   0  0  0  0  0  0  0  0  0  0  0  0
    7.1766  -10.9461  -30.3619 O   0  0  0  0  0  0  0  0  0  0  0  0
  1  2  2  0
  6  1  1  0
  3  2  1  0
  4  3  2  0
  5  4  1  0
  5  6  2  0
  7  5  1  0
  7 11  1  6
 10  8  1  0
  8 11  1  0
  8 12  2  0
 13  9  1  0
  9 14  2  0
 10 13  1  0
M  END
$$$$
