
     RDKit          3D

 14 14  0  0  0  0  0  0  0  0999 V2000
    4.7828  -12.9926  -32.7408 C   0  0  0  0  0  0  0  0  0  0  0  0
    4.1044  -12.0896  -31.9712 C   0  0  0  0  0  0  0  0  0  0  0  0
    3.9938  -10.7612  -32.3799 C   0  0  0  0  0  0  0  0  0  0  0  0
    4.5961  -10.4207  -33.5798 C   0  0  0  0  0  0  0  0  0  0  0  0
    5.2803  -11.3240  -34.3593 C   0  0  0  0  0  0  0  0  0  0  0  0
    5.3714  -12.6379  -33.9233 C   0  0  0  0  0  0  0  0  0  0  0  0
    5.8807  -10.8628  -35.6106 C   0  0  0  0  0  0  0  0  0  0  0  0
    8.1125  -10.4217  -36.5491 C   0  0  0  0  0  0  0  0  0  0  0  0
   11.1863  -10.2393  -34.7951 C   0  0  0  0  0  0  0  0  0  0  0  0
    9.5164  -10.2819  -36.4892 N   0  0  0  0  0  0  0  0  0  0  0  0
    7.3056  -10.7302  -35.4849 O   0  0  0  0  0  0  0  0  0  0  0  0
    7.5486  -10.2494  -37.6725 O   0  0  0  0  0  0  0  0  0  0  0  0
   10.3085  -10.9602  -35.5915 O   0  0  0  0  0  0  0  0  0  0  0  0
   11.9534   -9.4099  -35.3584 O   0  0  0  0  0  0  0  0  0  0  0  0
  1  2  2  0
  6  1  1  0
  3  2  1  0
  4  3  2  0
  5  4  1  0
  5  6  2  0
  7  5  1  0
  7 11  1  6
 10  8  1  0
  8 11  1  0
  8 12  2  0
 13  9  1  0
  9 14  2  0
 10 13  1  0
M  END
$$$$
