
     RDKit          3D

 14 14  0  0  0  0  0  0  0  0999 V2000
    6.8538  -13.3986  -34.2974 C   0  0  0  0  0  0  0  0  0  0  0  0
    6.6828  -13.2202  -35.6482 C   0  0  0  0  0  0  0  0  0  0  0  0
    5.6577  -12.4167  -36.0796 C   0  0  0  0  0  0  0  0  0  0  0  0
    4.8289  -11.8109  -35.1673 C   0  0  0  0  0  0  0  0  0  0  0  0
    4.9692  -11.9664  -33.8037 C   0  0  0  0  0  0  0  0  0  0  0  0
    6.0012  -12.7742  -33.3912 C   0  0  0  0  0  0  0  0  0  0  0  0
    4.0999  -11.3151  -32.8068 C   0  0  0  0  0  0  0  0  0  0  0  0
    4.2300   -9.9807  -30.7190 C   0  0  0  0  0  0  0  0  0  0  0  0
    5.4278   -7.6620  -28.0962 C   0  0  0  0  0  0  0  0  0  0  0  0
    5.1571   -9.3183  -29.8412 N   0  0  0  0  0  0  0  0  0  0  0  0
    4.7390  -10.5462  -31.8522 O   0  0  0  0  0  0  0  0  0  0  0  0
    3.0168  -10.0583  -30.4960 O   0  0  0  0  0  0  0  0  0  0  0  0
    4.7202   -8.2246  -29.1412 O   0  0  0  0  0  0  0  0  0  0  0  0
    5.8420   -8.3711  -27.1603 O   0  0  0  0  0  0  0  0  0  0  0  0
  1  2  2  0
  6  1  1  0
  3  2  1  0
  4  3  2  0
  5  4  1  0
  5  6  2  0
  7  5  1  0
 11  7  1  0
 10  8  1  0
  8 11  1  0
  8 12  2  0
 13  9  1  0
  9 14  2  0
 10 13  1  0
M  END
$$$$
