
     RDKit          3D

 14 14  0  0  0  0  0  0  0  0999 V2000
    4.1312  -11.8076  -39.2944 C   0  0  0  0  0  0  0  0  0  0  0  0
    4.6719  -10.6038  -39.6501 C   0  0  0  0  0  0  0  0  0  0  0  0
    5.9446  -10.2467  -39.2066 C   0  0  0  0  0  0  0  0  0  0  0  0
    6.6101  -11.1600  -38.4057 C   0  0  0  0  0  0  0  0  0  0  0  0
    6.0723  -12.3730  -38.0438 C   0  0  0  0  0  0  0  0  0  0  0  0
    4.8037  -12.6971  -38.5023 C   0  0  0  0  0  0  0  0  0  0  0  0
    6.8579  -13.2669  -37.1936 C   0  0  0  0  0  0  0  0  0  0  0  0
    7.9712  -13.2366  -34.9991 C   0  0  0  0  0  0  0  0  0  0  0  0
    7.6959  -11.0467  -32.2310 C   0  0  0  0  0  0  0  0  0  0  0  0
    8.4796  -12.6190  -33.8354 N   0  0  0  0  0  0  0  0  0  0  0  0
    7.3333  -12.5847  -36.0222 O   0  0  0  0  0  0  0  0  0  0  0  0
    8.1131  -14.4924  -35.1120 O   0  0  0  0  0  0  0  0  0  0  0  0
    7.7126  -12.3421  -32.7271 O   0  0  0  0  0  0  0  0  0  0  0  0
    6.6963  -10.6854  -31.5498 O   0  0  0  0  0  0  0  0  0  0  0  0
  1  2  2  0
  6  1  1  0
  3  2  1  0
  4  3  2  0
  5  4  1  0
  5  6  2  0
  7  5  1  0
  7 11  1  6
 10  8  1  0
  8 11  1  0
  8 12  2  0
 13  9  1  0
  9 14  2  0
 10 13  1  0
M  END
$$$$
