
     RDKit          3D

 14 14  0  0  0  0  0  0  0  0999 V2000
   -2.4034  -10.8660  -29.1342 C   0  0  0  0  0  0  0  0  0  0  0  0
   -2.0344  -12.1464  -29.4380 C   0  0  0  0  0  0  0  0  0  0  0  0
   -0.8108  -12.6484  -28.9967 C   0  0  0  0  0  0  0  0  0  0  0  0
   -0.0133  -11.7952  -28.2522 C   0  0  0  0  0  0  0  0  0  0  0  0
   -0.3781  -10.5057  -27.9426 C   0  0  0  0  0  0  0  0  0  0  0  0
   -1.6023  -10.0376  -28.3974 C   0  0  0  0  0  0  0  0  0  0  0  0
    0.5369   -9.6853  -27.1497 C   0  0  0  0  0  0  0  0  0  0  0  0
    2.8413   -8.8289  -27.2612 C   0  0  0  0  0  0  0  0  0  0  0  0
    6.0388   -7.5289  -28.4685 C   0  0  0  0  0  0  0  0  0  0  0  0
    4.1678   -8.8082  -27.7452 N   0  0  0  0  0  0  0  0  0  0  0  0
    1.8277   -9.5962  -27.7737 O   0  0  0  0  0  0  0  0  0  0  0  0
    2.5599   -8.0811  -26.2756 O   0  0  0  0  0  0  0  0  0  0  0  0
    5.0334   -7.7584  -27.5405 O   0  0  0  0  0  0  0  0  0  0  0  0
    5.9614   -8.1151  -29.5838 O   0  0  0  0  0  0  0  0  0  0  0  0
  1  2  2  0
  6  1  1  0
  3  2  1  0
  4  3  2  0
  5  4  1  0
  5  6  2  0
  7  5  1  0
  7 11  1  6
 10  8  1  0
  8 11  1  0
  8 12  2  0
 13  9  1  0
  9 14  2  0
 10 13  1  0
M  END
$$$$
