
     RDKit          3D

 14 14  0  0  0  0  0  0  0  0999 V2000
    7.0180  -12.6546  -36.4517 C   0  0  0  0  0  0  0  0  0  0  0  0
    7.4451  -13.9421  -36.2381 C   0  0  0  0  0  0  0  0  0  0  0  0
    7.0099  -14.6004  -35.1159 C   0  0  0  0  0  0  0  0  0  0  0  0
    6.1653  -13.9713  -34.2343 C   0  0  0  0  0  0  0  0  0  0  0  0
    5.7153  -12.6797  -34.4149 C   0  0  0  0  0  0  0  0  0  0  0  0
    6.1616  -12.0372  -35.5442 C   0  0  0  0  0  0  0  0  0  0  0  0
    4.7981  -11.9902  -33.4890 C   0  0  0  0  0  0  0  0  0  0  0  0
    4.8078  -10.6489  -31.4016 C   0  0  0  0  0  0  0  0  0  0  0  0
    5.7799   -8.6512  -28.4652 C   0  0  0  0  0  0  0  0  0  0  0  0
    5.6953  -10.0082  -30.4685 N   0  0  0  0  0  0  0  0  0  0  0  0
    5.3746  -11.4376  -32.3607 O   0  0  0  0  0  0  0  0  0  0  0  0
    3.5791  -10.5188  -31.3732 O   0  0  0  0  0  0  0  0  0  0  0  0
    5.1915   -9.6204  -29.2549 O   0  0  0  0  0  0  0  0  0  0  0  0
    6.7002   -7.9434  -28.9152 O   0  0  0  0  0  0  0  0  0  0  0  0
  1  2  2  0
  6  1  1  0
  3  2  1  0
  4  3  2  0
  5  4  1  0
  5  6  2  0
  7  5  1  0
 11  7  1  0
 10  8  1  0
  8 11  1  0
  8 12  2  0
 13  9  1  0
  9 14  2  0
 10 13  1  0
M  END
$$$$
