
     RDKit          3D

 14 14  0  0  0  0  0  0  0  0999 V2000
    6.4127  -12.6293  -36.2363 C   0  0  0  0  0  0  0  0  0  0  0  0
    6.1127  -11.7260  -37.2261 C   0  0  0  0  0  0  0  0  0  0  0  0
    5.2135  -10.7266  -36.9522 C   0  0  0  0  0  0  0  0  0  0  0  0
    4.6343  -10.6450  -35.7096 C   0  0  0  0  0  0  0  0  0  0  0  0
    4.9104  -11.5335  -34.6908 C   0  0  0  0  0  0  0  0  0  0  0  0
    5.8132  -12.5267  -34.9841 C   0  0  0  0  0  0  0  0  0  0  0  0
    4.3109  -11.4565  -33.3461 C   0  0  0  0  0  0  0  0  0  0  0  0
    4.5328  -10.2457  -31.1917 C   0  0  0  0  0  0  0  0  0  0  0  0
    6.2038   -8.6735  -28.3764 C   0  0  0  0  0  0  0  0  0  0  0  0
    5.2555   -9.1835  -30.5448 N   0  0  0  0  0  0  0  0  0  0  0  0
    4.8777  -10.5413  -32.4788 O   0  0  0  0  0  0  0  0  0  0  0  0
    3.6312  -10.8892  -30.6435 O   0  0  0  0  0  0  0  0  0  0  0  0
    5.1525   -9.0631  -29.1840 O   0  0  0  0  0  0  0  0  0  0  0  0
    6.9505   -7.7382  -28.7197 O   0  0  0  0  0  0  0  0  0  0  0  0
  1  2  2  0
  6  1  1  0
  3  2  1  0
  4  3  2  0
  5  4  1  0
  5  6  2  0
  7  5  1  0
 11  7  1  0
 10  8  1  0
  8 11  1  0
  8 12  2  0
 13  9  1  0
  9 14  2  0
 10 13  1  0
M  END
$$$$
