
     RDKit          3D

 14 14  0  0  0  0  0  0  0  0999 V2000
    4.5808   -8.4000  -38.8440 C   0  0  0  0  0  0  0  0  0  0  0  0
    4.9363   -9.1647  -39.9277 C   0  0  0  0  0  0  0  0  0  0  0  0
    5.7004  -10.2849  -39.7184 C   0  0  0  0  0  0  0  0  0  0  0  0
    6.0934  -10.6206  -38.4460 C   0  0  0  0  0  0  0  0  0  0  0  0
    5.7562   -9.8776  -37.3335 C   0  0  0  0  0  0  0  0  0  0  0  0
    4.9907   -8.7601  -37.5632 C   0  0  0  0  0  0  0  0  0  0  0  0
    6.1556  -10.2269  -35.9580 C   0  0  0  0  0  0  0  0  0  0  0  0
    6.8006  -12.1746  -34.5626 C   0  0  0  0  0  0  0  0  0  0  0  0
    7.8442  -15.5622  -33.4706 C   0  0  0  0  0  0  0  0  0  0  0  0
    6.9901  -13.5999  -34.6026 N   0  0  0  0  0  0  0  0  0  0  0  0
    6.4115  -11.5643  -35.7199 O   0  0  0  0  0  0  0  0  0  0  0  0
    6.9713  -11.4924  -33.5463 O   0  0  0  0  0  0  0  0  0  0  0  0
    7.5888  -14.2055  -33.5293 O   0  0  0  0  0  0  0  0  0  0  0  0
    8.1874  -16.1847  -34.4928 O   0  0  0  0  0  0  0  0  0  0  0  0
  1  2  2  0
  6  1  1  0
  3  2  1  0
  4  3  2  0
  5  4  1  0
  5  6  2  0
  7  5  1  0
 11  7  1  0
 10  8  1  0
  8 11  1  0
  8 12  2  0
 13  9  1  0
  9 14  2  0
 10 13  1  0
M  END
$$$$
