
     RDKit          3D

 14 14  0  0  0  0  0  0  0  0999 V2000
    2.9131  -13.0268  -32.5832 C   0  0  0  0  0  0  0  0  0  0  0  0
    3.8861  -13.2724  -33.5206 C   0  0  0  0  0  0  0  0  0  0  0  0
    4.8299  -12.3048  -33.7559 C   0  0  0  0  0  0  0  0  0  0  0  0
    4.7887  -11.1211  -33.0606 C   0  0  0  0  0  0  0  0  0  0  0  0
    3.8273  -10.8385  -32.1124 C   0  0  0  0  0  0  0  0  0  0  0  0
    2.8914  -11.8194  -31.8905 C   0  0  0  0  0  0  0  0  0  0  0  0
    3.7723   -9.5808  -31.3450 C   0  0  0  0  0  0  0  0  0  0  0  0
    4.7925   -8.6374  -29.2893 C   0  0  0  0  0  0  0  0  0  0  0  0
    4.9610  -10.2424  -26.1149 C   0  0  0  0  0  0  0  0  0  0  0  0
    5.5442   -9.0288  -28.1271 N   0  0  0  0  0  0  0  0  0  0  0  0
    4.2582   -9.6353  -30.0520 O   0  0  0  0  0  0  0  0  0  0  0  0
    4.6132   -7.4602  -29.6206 O   0  0  0  0  0  0  0  0  0  0  0  0
    5.1826  -10.1796  -27.4774 O   0  0  0  0  0  0  0  0  0  0  0  0
    4.3059   -9.3531  -25.5403 O   0  0  0  0  0  0  0  0  0  0  0  0
  1  2  2  0
  6  1  1  0
  3  2  1  0
  4  3  2  0
  5  4  1  0
  5  6  2  0
  7  5  1  0
 11  7  1  0
 10  8  1  0
  8 11  1  0
  8 12  2  0
 13  9  1  0
  9 14  2  0
 10 13  1  0
M  END
$$$$
