
     RDKit          3D

 14 14  0  0  0  0  0  0  0  0999 V2000
    4.7871  -11.5854  -38.0759 C   0  0  0  0  0  0  0  0  0  0  0  0
    3.7663  -11.3755  -37.1917 C   0  0  0  0  0  0  0  0  0  0  0  0
    4.0203  -10.7925  -35.9510 C   0  0  0  0  0  0  0  0  0  0  0  0
    5.3333  -10.4481  -35.6755 C   0  0  0  0  0  0  0  0  0  0  0  0
    6.3655  -10.6563  -36.5604 C   0  0  0  0  0  0  0  0  0  0  0  0
    6.0781  -11.2387  -37.7863 C   0  0  0  0  0  0  0  0  0  0  0  0
    7.7179  -10.2564  -36.1727 C   0  0  0  0  0  0  0  0  0  0  0  0
    9.7030  -11.3156  -35.1761 C   0  0  0  0  0  0  0  0  0  0  0  0
   10.6393  -13.1841  -32.4307 C   0  0  0  0  0  0  0  0  0  0  0  0
   10.4115  -12.4299  -34.6756 N   0  0  0  0  0  0  0  0  0  0  0  0
    8.3465  -11.2651  -35.3660 O   0  0  0  0  0  0  0  0  0  0  0  0
   10.3685  -10.2775  -35.4749 O   0  0  0  0  0  0  0  0  0  0  0  0
    9.9586  -13.2134  -33.6391 O   0  0  0  0  0  0  0  0  0  0  0  0
   10.2935  -12.3218  -31.5760 O   0  0  0  0  0  0  0  0  0  0  0  0
  1  2  2  0
  6  1  1  0
  3  2  1  0
  4  3  2  0
  5  4  1  0
  5  6  2  0
  7  5  1  0
  7 11  1  6
 10  8  1  0
  8 11  1  0
  8 12  2  0
 13  9  1  0
  9 14  2  0
 10 13  1  0
M  END
$$$$
