
     RDKit          3D

 14 14  0  0  0  0  0  0  0  0999 V2000
    8.7873  -13.6711  -35.5133 C   0  0  0  0  0  0  0  0  0  0  0  0
    8.1137  -14.8678  -35.5027 C   0  0  0  0  0  0  0  0  0  0  0  0
    6.7982  -14.8771  -35.1131 C   0  0  0  0  0  0  0  0  0  0  0  0
    6.1824  -13.7062  -34.7443 C   0  0  0  0  0  0  0  0  0  0  0  0
    6.8260  -12.4858  -34.7421 C   0  0  0  0  0  0  0  0  0  0  0  0
    8.1422  -12.4967  -35.1355 C   0  0  0  0  0  0  0  0  0  0  0  0
    6.1808  -11.2154  -34.3634 C   0  0  0  0  0  0  0  0  0  0  0  0
    5.8341   -9.8027  -32.3533 C   0  0  0  0  0  0  0  0  0  0  0  0
    5.7670   -9.2802  -28.8314 C   0  0  0  0  0  0  0  0  0  0  0  0
    6.5255   -9.6084  -31.1070 N   0  0  0  0  0  0  0  0  0  0  0  0
    6.0469  -10.9815  -33.0076 O   0  0  0  0  0  0  0  0  0  0  0  0
    5.0712   -8.9652  -32.8474 O   0  0  0  0  0  0  0  0  0  0  0  0
    5.9169   -8.8554  -30.1376 O   0  0  0  0  0  0  0  0  0  0  0  0
    6.2912   -8.6457  -27.8971 O   0  0  0  0  0  0  0  0  0  0  0  0
  1  2  2  0
  6  1  1  0
  3  2  1  0
  4  3  2  0
  5  4  1  0
  5  6  2  0
  7  5  1  0
 11  7  1  0
 10  8  1  0
  8 11  1  0
  8 12  2  0
 13  9  1  0
  9 14  2  0
 10 13  1  0
M  END
$$$$
