
     RDKit          3D

 14 14  0  0  0  0  0  0  0  0999 V2000
    6.1262  -11.3863  -32.6482 C   0  0  0  0  0  0  0  0  0  0  0  0
    5.9613  -12.6890  -32.2461 C   0  0  0  0  0  0  0  0  0  0  0  0
    5.7067  -12.9398  -30.9215 C   0  0  0  0  0  0  0  0  0  0  0  0
    5.6218  -11.8994  -30.0290 C   0  0  0  0  0  0  0  0  0  0  0  0
    5.7817  -10.5789  -30.3952 C   0  0  0  0  0  0  0  0  0  0  0  0
    6.0355  -10.3478  -31.7255 C   0  0  0  0  0  0  0  0  0  0  0  0
    5.6810   -9.4462  -29.4569 C   0  0  0  0  0  0  0  0  0  0  0  0
    4.0354   -8.2507  -28.0359 C   0  0  0  0  0  0  0  0  0  0  0  0
    0.7657   -9.1627  -26.8765 C   0  0  0  0  0  0  0  0  0  0  0  0
    2.6258   -7.9988  -27.8996 N   0  0  0  0  0  0  0  0  0  0  0  0
    4.4174   -9.1712  -28.9685 O   0  0  0  0  0  0  0  0  0  0  0  0
    4.8983   -7.6810  -27.3587 O   0  0  0  0  0  0  0  0  0  0  0  0
    1.7801   -9.0730  -27.8104 O   0  0  0  0  0  0  0  0  0  0  0  0
    0.8921   -9.8920  -25.8753 O   0  0  0  0  0  0  0  0  0  0  0  0
  1  2  2  0
  6  1  1  0
  3  2  1  0
  4  3  2  0
  5  4  1  0
  5  6  2  0
  7  5  1  0
 11  7  1  0
 10  8  1  0
  8 11  1  0
  8 12  2  0
 13  9  1  0
  9 14  2  0
 10 13  1  0
M  END
$$$$
