
     RDKit          3D

 14 14  0  0  0  0  0  0  0  0999 V2000
    6.2903  -14.5749  -35.8790 C   0  0  0  0  0  0  0  0  0  0  0  0
    6.3871  -14.5035  -37.2470 C   0  0  0  0  0  0  0  0  0  0  0  0
    6.2281  -13.2832  -37.8535 C   0  0  0  0  0  0  0  0  0  0  0  0
    5.9777  -12.1661  -37.0947 C   0  0  0  0  0  0  0  0  0  0  0  0
    5.8735  -12.1986  -35.7194 C   0  0  0  0  0  0  0  0  0  0  0  0
    6.0360  -13.4291  -35.1304 C   0  0  0  0  0  0  0  0  0  0  0  0
    5.6190  -11.0102  -34.8846 C   0  0  0  0  0  0  0  0  0  0  0  0
    7.0361  -10.7691  -32.8622 C   0  0  0  0  0  0  0  0  0  0  0  0
   10.3440   -9.4839  -33.4967 C   0  0  0  0  0  0  0  0  0  0  0  0
    8.3506  -10.3641  -32.4416 N   0  0  0  0  0  0  0  0  0  0  0  0
    6.6964  -10.5318  -34.1627 O   0  0  0  0  0  0  0  0  0  0  0  0
    6.2173  -11.3117  -32.1120 O   0  0  0  0  0  0  0  0  0  0  0  0
    9.0019   -9.4089  -33.1767 O   0  0  0  0  0  0  0  0  0  0  0  0
   10.9220  -10.5858  -33.5398 O   0  0  0  0  0  0  0  0  0  0  0  0
  1  2  2  0
  6  1  1  0
  3  2  1  0
  4  3  2  0
  5  4  1  0
  5  6  2  0
  7  5  1  0
 11  7  1  0
 10  8  1  0
  8 11  1  0
  8 12  2  0
 13  9  1  0
  9 14  2  0
 10 13  1  0
M  END
$$$$
