
     RDKit          3D

 14 14  0  0  0  0  0  0  0  0999 V2000
    7.6101  -13.7684  -36.4824 C   0  0  0  0  0  0  0  0  0  0  0  0
    7.2317  -15.0225  -36.0704 C   0  0  0  0  0  0  0  0  0  0  0  0
    7.1449  -15.2728  -34.7242 C   0  0  0  0  0  0  0  0  0  0  0  0
    7.4338  -14.2797  -33.8206 C   0  0  0  0  0  0  0  0  0  0  0  0
    7.8171  -13.0088  -34.1963 C   0  0  0  0  0  0  0  0  0  0  0  0
    7.8979  -12.7773  -35.5481 C   0  0  0  0  0  0  0  0  0  0  0  0
    8.1185  -11.9243  -33.2439 C   0  0  0  0  0  0  0  0  0  0  0  0
    6.9999  -10.3143  -31.7230 C   0  0  0  0  0  0  0  0  0  0  0  0
    3.5291  -10.6921  -30.6749 C   0  0  0  0  0  0  0  0  0  0  0  0
    5.7062   -9.8424  -31.3073 N   0  0  0  0  0  0  0  0  0  0  0  0
    7.0301  -11.3381  -32.6253 O   0  0  0  0  0  0  0  0  0  0  0  0
    8.0637   -9.8424  -31.3070 O   0  0  0  0  0  0  0  0  0  0  0  0
    4.6209  -10.6508  -31.5208 O   0  0  0  0  0  0  0  0  0  0  0  0
    3.6878  -10.7138  -29.4401 O   0  0  0  0  0  0  0  0  0  0  0  0
  1  2  2  0
  6  1  1  0
  3  2  1  0
  4  3  2  0
  5  4  1  0
  5  6  2  0
  7  5  1  0
 11  7  1  0
 10  8  1  0
  8 11  1  0
  8 12  2  0
 13  9  1  0
  9 14  2  0
 10 13  1  0
M  END
$$$$
