
     RDKit          3D

 14 14  0  0  0  0  0  0  0  0999 V2000
    6.3692  -13.6826  -35.8533 C   0  0  0  0  0  0  0  0  0  0  0  0
    6.6044  -14.9697  -35.4365 C   0  0  0  0  0  0  0  0  0  0  0  0
    7.2164  -15.1656  -34.2243 C   0  0  0  0  0  0  0  0  0  0  0  0
    7.5803  -14.0870  -33.4559 C   0  0  0  0  0  0  0  0  0  0  0  0
    7.3608  -12.7805  -33.8410 C   0  0  0  0  0  0  0  0  0  0  0  0
    6.7467  -12.6046  -35.0573 C   0  0  0  0  0  0  0  0  0  0  0  0
    7.7306  -11.6087  -33.0262 C   0  0  0  0  0  0  0  0  0  0  0  0
    6.6724   -9.9014  -31.5695 C   0  0  0  0  0  0  0  0  0  0  0  0
    5.0094   -8.4377  -28.8413 C   0  0  0  0  0  0  0  0  0  0  0  0
    5.4472   -9.7430  -30.8328 N   0  0  0  0  0  0  0  0  0  0  0  0
    6.6835  -10.8305  -32.5694 O   0  0  0  0  0  0  0  0  0  0  0  0
    7.6950   -9.2459  -31.3409 O   0  0  0  0  0  0  0  0  0  0  0  0
    5.2185   -8.5481  -30.2027 O   0  0  0  0  0  0  0  0  0  0  0  0
    5.9550   -8.1691  -28.0772 O   0  0  0  0  0  0  0  0  0  0  0  0
  1  2  2  0
  6  1  1  0
  3  2  1  0
  4  3  2  0
  5  4  1  0
  5  6  2  0
  7  5  1  0
 11  7  1  0
 10  8  1  0
  8 11  1  0
  8 12  2  0
 13  9  1  0
  9 14  2  0
 10 13  1  0
M  END
$$$$
