
     RDKit          3D

 14 14  0  0  0  0  0  0  0  0999 V2000
    3.7040  -11.4747  -35.7637 C   0  0  0  0  0  0  0  0  0  0  0  0
    5.0467  -11.5245  -36.0472 C   0  0  0  0  0  0  0  0  0  0  0  0
    5.9377  -11.5382  -35.0041 C   0  0  0  0  0  0  0  0  0  0  0  0
    5.4808  -11.5024  -33.7094 C   0  0  0  0  0  0  0  0  0  0  0  0
    4.1407  -11.4519  -33.3856 C   0  0  0  0  0  0  0  0  0  0  0  0
    3.2640  -11.4392  -34.4433 C   0  0  0  0  0  0  0  0  0  0  0  0
    3.6279  -11.4267  -32.0035 C   0  0  0  0  0  0  0  0  0  0  0  0
    3.6297  -10.0148  -29.9632 C   0  0  0  0  0  0  0  0  0  0  0  0
    5.3670   -7.7862  -27.6863 C   0  0  0  0  0  0  0  0  0  0  0  0
    4.0264   -8.7225  -29.4717 N   0  0  0  0  0  0  0  0  0  0  0  0
    3.9999  -10.3386  -31.2364 O   0  0  0  0  0  0  0  0  0  0  0  0
    2.9811  -10.8282  -29.2960 O   0  0  0  0  0  0  0  0  0  0  0  0
    4.3530   -8.6043  -28.1464 O   0  0  0  0  0  0  0  0  0  0  0  0
    6.5414   -7.9661  -28.0590 O   0  0  0  0  0  0  0  0  0  0  0  0
  1  2  2  0
  6  1  1  0
  3  2  1  0
  4  3  2  0
  5  4  1  0
  5  6  2  0
  7  5  1  0
 11  7  1  0
 10  8  1  0
  8 11  1  0
  8 12  2  0
 13  9  1  0
  9 14  2  0
 10 13  1  0
M  END
$$$$
