
     RDKit          3D

 14 14  0  0  0  0  0  0  0  0999 V2000
    1.7618  -12.2325  -34.1717 C   0  0  0  0  0  0  0  0  0  0  0  0
    1.9829  -11.6488  -35.3876 C   0  0  0  0  0  0  0  0  0  0  0  0
    2.9677  -10.6722  -35.5294 C   0  0  0  0  0  0  0  0  0  0  0  0
    3.6892  -10.3380  -34.3953 C   0  0  0  0  0  0  0  0  0  0  0  0
    3.4723  -10.9212  -33.1687 C   0  0  0  0  0  0  0  0  0  0  0  0
    2.4846  -11.8896  -33.0623 C   0  0  0  0  0  0  0  0  0  0  0  0
    4.2894  -10.4972  -32.0321 C   0  0  0  0  0  0  0  0  0  0  0  0
    6.7470  -10.4095  -32.1264 C   0  0  0  0  0  0  0  0  0  0  0  0
    9.1948  -12.8882  -32.5534 C   0  0  0  0  0  0  0  0  0  0  0  0
    7.9480  -10.8680  -32.7108 N   0  0  0  0  0  0  0  0  0  0  0  0
    5.5806  -11.1263  -32.0576 O   0  0  0  0  0  0  0  0  0  0  0  0
    6.7410   -9.2443  -31.6243 O   0  0  0  0  0  0  0  0  0  0  0  0
    8.1480  -12.1690  -33.1115 O   0  0  0  0  0  0  0  0  0  0  0  0
    9.3769  -12.7999  -31.3074 O   0  0  0  0  0  0  0  0  0  0  0  0
  1  2  2  0
  6  1  1  0
  3  2  1  0
  4  3  2  0
  5  4  1  0
  5  6  2  0
  7  5  1  0
  7 11  1  6
 10  8  1  0
  8 11  1  0
  8 12  2  0
 13  9  1  0
  9 14  2  0
 10 13  1  0
M  END
$$$$
