
     RDKit          3D

 14 14  0  0  0  0  0  0  0  0999 V2000
    4.0919  -12.2297  -37.7135 C   0  0  0  0  0  0  0  0  0  0  0  0
    4.1553  -10.8655  -37.5693 C   0  0  0  0  0  0  0  0  0  0  0  0
    5.2183  -10.3260  -36.8901 C   0  0  0  0  0  0  0  0  0  0  0  0
    6.1900  -11.1462  -36.3712 C   0  0  0  0  0  0  0  0  0  0  0  0
    6.1604  -12.5199  -36.4956 C   0  0  0  0  0  0  0  0  0  0  0  0
    5.0887  -13.0413  -37.1790 C   0  0  0  0  0  0  0  0  0  0  0  0
    7.1992  -13.4179  -35.9586 C   0  0  0  0  0  0  0  0  0  0  0  0
    9.0027  -12.3840  -34.6041 C   0  0  0  0  0  0  0  0  0  0  0  0
   11.2546  -10.3259  -33.5319 C   0  0  0  0  0  0  0  0  0  0  0  0
   10.4388  -12.3792  -34.5219 N   0  0  0  0  0  0  0  0  0  0  0  0
    8.4455  -12.8548  -35.7578 O   0  0  0  0  0  0  0  0  0  0  0  0
    8.2664  -11.9883  -33.6937 O   0  0  0  0  0  0  0  0  0  0  0  0
   11.0899  -11.1768  -34.6080 O   0  0  0  0  0  0  0  0  0  0  0  0
   11.6217   -9.1492  -33.7080 O   0  0  0  0  0  0  0  0  0  0  0  0
  1  2  2  0
  6  1  1  0
  3  2  1  0
  4  3  2  0
  5  4  1  0
  5  6  2  0
  7  5  1  0
 11  7  1  0
 10  8  1  0
  8 11  1  0
  8 12  2  0
 13  9  1  0
  9 14  2  0
 10 13  1  0
M  END
$$$$
