
     RDKit          3D

 46 53  0  0  0  0  0  0  0  0999 V2000
  -13.1431  223.1176   76.5254 O   0  0  0  0  0  0  0  0  0  0  0  0
  -12.6285  222.1635   77.1558 C   0  0  0  0  0  0  0  0  0  0  0  0
  -12.1453  220.9685   76.5751 N   0  0  0  0  0  0  0  0  0  0  0  0
  -12.0799  220.4833   75.2167 C   0  0  0  0  0  0  0  0  0  0  0  0
  -10.6213  220.2350   74.8902 C   0  0  0  0  0  0  0  0  0  0  0  0
   -9.7164  220.4979   76.0718 C   0  0  0  0  0  0  0  0  0  0  0  0
  -10.1914  219.8070   77.3305 C   0  0  0  0  0  0  0  0  0  0  0  0
  -11.6371  220.1344   77.6332 C   0  0  1  0  0  0  0  0  0  0  0  0
  -11.8177  220.8523   78.9035 C   0  0  0  0  0  0  0  0  0  0  0  0
  -12.4133  222.0636   78.5922 C   0  0  0  0  0  0  0  0  0  0  0  0
  -12.7076  222.9585   79.5961 C   0  0  0  0  0  0  0  0  0  0  0  0
  -12.4056  222.6374   80.8977 C   0  0  0  0  0  0  0  0  0  0  0  0
  -11.8121  221.4267   81.1924 C   0  0  0  0  0  0  0  0  0  0  0  0
  -11.5054  220.5089   80.2055 C   0  0  0  0  0  0  0  0  0  0  0  0
  -10.8941  219.2632   80.5151 N   0  0  0  0  0  0  0  0  0  0  0  0
  -11.5077  218.3280   81.3728 C   0  0  0  0  0  0  0  0  0  0  0  0
  -12.4519  218.7105   82.1052 O   0  0  0  0  0  0  0  0  0  0  0  0
  -11.0925  216.9551   81.4391 N   0  0  0  0  0  0  0  0  0  0  0  0
   -9.8121  216.6137   80.9299 C   0  0  0  0  0  0  0  0  0  0  0  0
   -8.8995  215.9449   81.7177 C   0  0  0  0  0  0  0  0  0  0  0  0
   -9.4365  216.9205   79.6778 N   0  0  0  0  0  0  0  0  0  0  0  0
   -8.2124  216.5913   79.1962 C   0  0  0  0  0  0  0  0  0  0  0  0
   -7.2833  215.9216   79.9678 C   0  0  0  0  0  0  0  0  0  0  0  0
   -7.6444  215.5952   81.2568 C   0  0  0  0  0  0  0  0  0  0  0  0
   -6.7075  214.8871   82.1243 C   0  0  0  0  0  0  0  0  0  0  0  0
   -5.7189  214.0477   81.6999 C   0  0  0  0  0  0  0  0  0  0  0  0
   -6.6571  214.9379   83.4682 N   0  0  0  0  0  0  0  0  0  0  0  0
   -5.6691  214.1521   83.8188 N   0  0  0  0  0  0  0  0  0  0  0  0
   -5.0696  213.5915   82.8082 N   0  0  0  0  0  0  0  0  0  0  0  0
   -3.9457  212.6614   82.7658 C   0  0  0  0  0  0  0  0  0  0  0  0
   -4.0939  211.6609   83.8609 C   0  0  0  0  0  0  0  0  0  0  0  0
   -4.3316  210.3301   83.4313 N   0  0  0  0  0  0  0  0  0  0  0  0
   -3.5145  209.7297   82.4355 C   0  0  0  0  0  0  0  0  0  0  0  0
   -2.1340  209.7636   82.6754 C   0  0  0  0  0  0  0  0  0  0  0  0
   -1.5752  210.4005   83.9050 C   0  0  0  0  0  0  0  0  0  0  0  0
   -0.4938  211.3448   83.4923 C   0  0  0  0  0  0  0  0  0  0  0  0
    0.4613  210.7955   82.4824 C   0  0  0  0  0  0  0  0  0  0  0  0
    0.2168  209.3230   82.1768 C   0  0  0  0  0  0  0  0  0  0  0  0
   -1.2263  209.2175   81.7997 C   0  0  0  0  0  0  0  0  0  0  0  0
   -1.6551  208.6328   80.6819 N   0  0  0  0  0  0  0  0  0  0  0  0
   -2.9840  208.5820   80.4200 C   0  0  0  0  0  0  0  0  0  0  0  0
   -3.9319  209.1298   81.2943 C   0  0  0  0  0  0  0  0  0  0  0  0
   -5.2699  209.0589   81.0237 C   0  0  0  0  0  0  0  0  0  0  0  0
   -5.7141  208.4432   79.8730 C   0  0  0  0  0  0  0  0  0  0  0  0
   -4.8042  207.8925   78.9857 C   0  0  0  0  0  0  0  0  0  0  0  0
   -3.4661  207.9748   79.2797 C   0  0  0  0  0  0  0  0  0  0  0  0
  1  2  2  0
  2  3  1  0
  2 10  1  0
  4  3  1  1
  3  8  1  0
  5  4  1  1
  6  5  1  1
  6  7  1  0
  7  8  1  6
  8  9  1  1
  9 10  2  0
  9 14  1  0
 10 11  1  0
 11 12  2  0
 12 13  1  0
 13 14  2  0
 14 15  1  0
 15 16  1  0
 16 17  2  0
 16 18  1  0
 18 19  1  0
 19 20  2  0
 19 21  1  0
 20 24  1  0
 21 22  2  0
 22 23  1  0
 23 24  2  0
 24 25  1  0
 25 26  2  0
 25 27  1  0
 26 29  1  0
 27 28  2  0
 28 29  1  0
 30 29  1  1
 30 31  1  0
 31 32  1  6
 32 33  1  0
 33 34  1  0
 33 42  2  0
 35 34  1  1
 34 39  2  0
 36 35  1  1
 36 37  1  0
 37 38  1  6
 38 39  1  6
 39 40  1  0
 40 41  2  0
 41 42  1  0
 41 46  1  0
 42 43  1  0
 43 44  2  0
 44 45  1  0
 45 46  2  0
M  END
$$$$
