
     RDKit          3D

 46 53  0  0  0  0  0  0  0  0999 V2000
  -14.0223  224.9748   82.1637 O   0  0  0  0  0  0  0  0  0  0  0  0
  -13.3244  223.9330   82.1587 C   0  0  0  0  0  0  0  0  0  0  0  0
  -12.4728  223.5166   83.2076 N   0  0  0  0  0  0  0  0  0  0  0  0
  -12.1458  224.0747   84.4986 C   0  0  0  0  0  0  0  0  0  0  0  0
  -12.5390  223.0561   85.5492 C   0  0  0  0  0  0  0  0  0  0  0  0
  -13.0728  221.7803   84.9395 C   0  0  0  0  0  0  0  0  0  0  0  0
  -12.1682  221.2318   83.8587 C   0  0  0  0  0  0  0  0  0  0  0  0
  -11.8538  222.2781   82.8120 C   0  0  1  0  0  0  0  0  0  0  0  0
  -12.3509  221.9295   81.4730 C   0  0  0  0  0  0  0  0  0  0  0  0
  -13.2289  222.9351   81.1029 C   0  0  0  0  0  0  0  0  0  0  0  0
  -13.8576  222.8773   79.8795 C   0  0  0  0  0  0  0  0  0  0  0  0
  -13.6051  221.8197   79.0391 C   0  0  0  0  0  0  0  0  0  0  0  0
  -12.7278  220.8252   79.4218 C   0  0  0  0  0  0  0  0  0  0  0  0
  -12.0824  220.8569   80.6436 C   0  0  0  0  0  0  0  0  0  0  0  0
  -11.1796  219.8298   81.0324 N   0  0  0  0  0  0  0  0  0  0  0  0
  -10.8515  218.7642   80.1701 C   0  0  0  0  0  0  0  0  0  0  0  0
  -10.9718  218.9311   78.9325 O   0  0  0  0  0  0  0  0  0  0  0  0
  -10.3851  217.4958   80.6555 N   0  0  0  0  0  0  0  0  0  0  0  0
   -9.1780  216.9733   80.1216 C   0  0  0  0  0  0  0  0  0  0  0  0
   -8.6598  215.7852   80.5912 C   0  0  0  0  0  0  0  0  0  0  0  0
   -8.4962  217.6010   79.1500 N   0  0  0  0  0  0  0  0  0  0  0  0
   -7.3438  217.0970   78.6431 C   0  0  0  0  0  0  0  0  0  0  0  0
   -6.8073  215.9089   79.0987 C   0  0  0  0  0  0  0  0  0  0  0  0
   -7.4881  215.2451   80.0958 C   0  0  0  0  0  0  0  0  0  0  0  0
   -6.9736  213.9838   80.6213 C   0  0  0  0  0  0  0  0  0  0  0  0
   -7.3177  213.4290   81.8195 C   0  0  0  0  0  0  0  0  0  0  0  0
   -6.0869  213.1644   80.0265 N   0  0  0  0  0  0  0  0  0  0  0  0
   -5.9178  212.1611   80.8520 N   0  0  0  0  0  0  0  0  0  0  0  0
   -6.6252  212.2610   81.9404 N   0  0  0  0  0  0  0  0  0  0  0  0
   -6.7219  211.3754   83.0964 C   0  0  0  0  0  0  0  0  0  0  0  0
   -5.3514  210.9743   83.5244 C   0  0  0  0  0  0  0  0  0  0  0  0
   -4.3374  211.1668   82.5514 N   0  0  0  0  0  0  0  0  0  0  0  0
   -3.5013  210.0905   82.1486 C   0  0  0  0  0  0  0  0  0  0  0  0
   -2.1802  210.1352   82.6147 C   0  0  0  0  0  0  0  0  0  0  0  0
   -1.6986  211.2557   83.4764 C   0  0  0  0  0  0  0  0  0  0  0  0
   -0.4303  211.7845   82.8902 C   0  0  0  0  0  0  0  0  0  0  0  0
    0.5511  210.7349   82.4787 C   0  0  0  0  0  0  0  0  0  0  0  0
    0.1121  209.3291   82.8692 C   0  0  0  0  0  0  0  0  0  0  0  0
   -1.2630  209.1589   82.3071 C   0  0  0  0  0  0  0  0  0  0  0  0
   -1.6245  208.1294   81.5424 N   0  0  0  0  0  0  0  0  0  0  0  0
   -2.8949  208.0552   81.0759 C   0  0  0  0  0  0  0  0  0  0  0  0
   -3.8508  209.0353   81.3735 C   0  0  0  0  0  0  0  0  0  0  0  0
   -5.1322  208.9402   80.9072 C   0  0  0  0  0  0  0  0  0  0  0  0
   -5.5093  207.8687   80.1261 C   0  0  0  0  0  0  0  0  0  0  0  0
   -4.5892  206.8824   79.8111 C   0  0  0  0  0  0  0  0  0  0  0  0
   -3.3090  206.9991   80.2920 C   0  0  0  0  0  0  0  0  0  0  0  0
  1  2  2  0
  2  3  1  0
  2 10  1  0
  4  3  1  1
  3  8  1  0
  5  4  1  1
  6  5  1  1
  6  7  1  0
  7  8  1  6
  8  9  1  6
  9 10  2  0
  9 14  1  0
 10 11  1  0
 11 12  2  0
 12 13  1  0
 13 14  2  0
 14 15  1  0
 15 16  1  0
 16 17  2  0
 16 18  1  0
 18 19  1  0
 19 20  2  0
 19 21  1  0
 20 24  1  0
 21 22  2  0
 22 23  1  0
 23 24  2  0
 24 25  1  0
 25 26  2  0
 25 27  1  0
 26 29  1  0
 27 28  2  0
 28 29  1  0
 30 29  1  1
 30 31  1  0
 31 32  1  6
 32 33  1  0
 33 34  1  0
 33 42  2  0
 35 34  1  1
 34 39  2  0
 36 35  1  1
 36 37  1  0
 37 38  1  6
 38 39  1  6
 39 40  1  0
 40 41  2  0
 41 42  1  0
 41 46  1  0
 42 43  1  0
 43 44  2  0
 44 45  1  0
 45 46  2  0
M  END
$$$$
