
     RDKit          3D

 46 53  0  0  0  0  0  0  0  0999 V2000
  -12.5531  223.7057   80.4292 O   0  0  0  0  0  0  0  0  0  0  0  0
  -12.0144  222.6083   80.1826 C   0  0  0  0  0  0  0  0  0  0  0  0
  -11.8661  221.5385   81.0651 N   0  0  0  0  0  0  0  0  0  0  0  0
  -12.2073  221.3721   82.4580 C   0  0  0  0  0  0  0  0  0  0  0  0
  -13.1585  220.1962   82.5807 C   0  0  0  0  0  0  0  0  0  0  0  0
  -12.7803  219.0168   81.7486 C   0  0  0  0  0  0  0  0  0  0  0  0
  -12.3643  219.3570   80.3353 C   0  0  0  0  0  0  0  0  0  0  0  0
  -11.2573  220.4263   80.3794 C   0  0  1  0  0  0  0  0  0  0  0  0
  -10.9314  220.9149   79.0442 C   0  0  0  0  0  0  0  0  0  0  0  0
  -11.4220  222.2007   78.9216 C   0  0  0  0  0  0  0  0  0  0  0  0
  -11.2839  222.9055   77.7428 C   0  0  0  0  0  0  0  0  0  0  0  0
  -10.6479  222.3152   76.6810 C   0  0  0  0  0  0  0  0  0  0  0  0
  -10.1537  221.0106   76.8220 C   0  0  0  0  0  0  0  0  0  0  0  0
  -10.2782  220.2937   77.9765 C   0  0  0  0  0  0  0  0  0  0  0  0
   -9.7699  218.9943   78.1706 N   0  0  0  0  0  0  0  0  0  0  0  0
   -9.4106  218.0765   77.1734 C   0  0  0  0  0  0  0  0  0  0  0  0
   -9.5956  218.3140   75.9816 O   0  0  0  0  0  0  0  0  0  0  0  0
   -8.8053  216.8034   77.4707 N   0  0  0  0  0  0  0  0  0  0  0  0
   -8.5367  216.4121   78.8074 C   0  0  0  0  0  0  0  0  0  0  0  0
   -8.2239  215.1164   79.1481 C   0  0  0  0  0  0  0  0  0  0  0  0
   -8.5867  217.3440   79.8043 N   0  0  0  0  0  0  0  0  0  0  0  0
   -8.3420  217.0273   81.0840 C   0  0  0  0  0  0  0  0  0  0  0  0
   -8.0308  215.7213   81.3970 C   0  0  0  0  0  0  0  0  0  0  0  0
   -7.9624  214.7311   80.4456 C   0  0  0  0  0  0  0  0  0  0  0  0
   -7.6322  213.3685   80.8150 C   0  0  0  0  0  0  0  0  0  0  0  0
   -7.6159  212.8298   82.0837 C   0  0  0  0  0  0  0  0  0  0  0  0
   -7.2746  212.3489   80.0125 N   0  0  0  0  0  0  0  0  0  0  0  0
   -7.0580  211.2684   80.7549 N   0  0  0  0  0  0  0  0  0  0  0  0
   -7.2609  211.5358   82.0346 N   0  0  0  0  0  0  0  0  0  0  0  0
   -7.1244  210.5983   83.1761 C   0  0  0  0  0  0  0  0  0  0  0  0
   -6.0178  209.6443   82.8230 C   0  0  0  0  0  0  0  0  0  0  0  0
   -4.6919  210.1459   82.8735 N   0  0  0  0  0  0  0  0  0  0  0  0
   -3.5953  209.5820   82.1623 C   0  0  0  0  0  0  0  0  0  0  0  0
   -2.2865  210.0283   82.3598 C   0  0  0  0  0  0  0  0  0  0  0  0
   -2.0688  211.1013   83.3406 C   0  0  0  0  0  0  0  0  0  0  0  0
   -0.6953  211.6897   83.3186 C   0  0  0  0  0  0  0  0  0  0  0  0
    0.0210  211.4308   82.0336 C   0  0  0  0  0  0  0  0  0  0  0  0
    0.1513  209.9157   81.8181 C   0  0  0  0  0  0  0  0  0  0  0  0
   -1.2718  209.4462   81.6356 C   0  0  0  0  0  0  0  0  0  0  0  0
   -1.5457  208.4672   80.7578 N   0  0  0  0  0  0  0  0  0  0  0  0
   -2.7997  208.0083   80.5367 C   0  0  0  0  0  0  0  0  0  0  0  0
   -3.8405  208.5820   81.2558 C   0  0  0  0  0  0  0  0  0  0  0  0
   -5.1223  208.1373   81.0202 C   0  0  0  0  0  0  0  0  0  0  0  0
   -5.3648  207.1521   80.1036 C   0  0  0  0  0  0  0  0  0  0  0  0
   -4.3260  206.5853   79.3956 C   0  0  0  0  0  0  0  0  0  0  0  0
   -3.0316  207.0113   79.6081 C   0  0  0  0  0  0  0  0  0  0  0  0
  1  2  2  0
  2  3  1  0
  2 10  1  0
  3  4  1  0
  3  8  1  0
  4  5  1  0
  5  6  1  0
  6  7  1  0
  8  7  1  6
  8  9  1  0
  9 10  2  0
  9 14  1  0
 10 11  1  0
 11 12  2  0
 12 13  1  0
 13 14  2  0
 14 15  1  0
 15 16  1  0
 16 17  2  0
 16 18  1  0
 18 19  1  0
 19 20  2  0
 19 21  1  0
 20 24  1  0
 21 22  2  0
 22 23  1  0
 23 24  2  0
 24 25  1  0
 25 26  2  0
 25 27  1  0
 26 29  1  0
 27 28  2  0
 28 29  1  0
 29 30  1  0
 30 31  1  0
 31 32  1  0
 32 33  1  0
 33 34  1  0
 33 42  2  0
 34 35  1  0
 34 39  2  0
 35 36  1  0
 36 37  1  0
 37 38  1  0
 38 39  1  0
 39 40  1  0
 40 41  2  0
 41 42  1  0
 41 46  1  0
 42 43  1  0
 43 44  2  0
 44 45  1  0
 45 46  2  0
M  END
$$$$
