
     RDKit          3D

 46 53  0  0  0  0  0  0  0  0999 V2000
  -12.0919  222.7639   78.5233 O   0  0  0  0  0  0  0  0  0  0  0  0
  -11.4432  221.6975   78.6434 C   0  0  0  0  0  0  0  0  0  0  0  0
  -11.1755  221.0389   79.8654 N   0  0  0  0  0  0  0  0  0  0  0  0
  -11.5140  221.3251   81.2397 C   0  0  0  0  0  0  0  0  0  0  0  0
  -12.3256  220.1575   81.7628 C   0  0  0  0  0  0  0  0  0  0  0  0
  -12.4694  219.0548   80.7393 C   0  0  0  0  0  0  0  0  0  0  0  0
  -11.1456  218.6579   80.1250 C   0  0  0  0  0  0  0  0  0  0  0  0
  -10.4061  219.8571   79.5737 C   0  0  1  0  0  0  0  0  0  0  0  0
  -10.2013  219.7964   78.1191 C   0  0  0  0  0  0  0  0  0  0  0  0
  -10.8305  220.9086   77.5843 C   0  0  0  0  0  0  0  0  0  0  0  0
  -10.8050  221.1201   76.2241 C   0  0  0  0  0  0  0  0  0  0  0  0
  -10.1539  220.2225   75.4126 C   0  0  0  0  0  0  0  0  0  0  0  0
   -9.5316  219.1188   75.9601 C   0  0  0  0  0  0  0  0  0  0  0  0
   -9.5408  218.8809   77.3215 C   0  0  0  0  0  0  0  0  0  0  0  0
   -8.8979  217.7424   77.8799 N   0  0  0  0  0  0  0  0  0  0  0  0
   -8.2835  216.7654   77.0708 C   0  0  0  0  0  0  0  0  0  0  0  0
   -8.5481  216.7447   75.8445 O   0  0  0  0  0  0  0  0  0  0  0  0
   -7.3668  215.7939   77.5977 N   0  0  0  0  0  0  0  0  0  0  0  0
   -7.3617  215.5634   78.9984 C   0  0  0  0  0  0  0  0  0  0  0  0
   -6.9274  214.3588   79.5094 C   0  0  0  0  0  0  0  0  0  0  0  0
   -7.7722  216.4926   79.8765 N   0  0  0  0  0  0  0  0  0  0  0  0
   -7.7646  216.2674   81.2137 C   0  0  0  0  0  0  0  0  0  0  0  0
   -7.3337  215.0685   81.7468 C   0  0  0  0  0  0  0  0  0  0  0  0
   -6.9073  214.0982   80.8665 C   0  0  0  0  0  0  0  0  0  0  0  0
   -6.4396  212.8085   81.3662 C   0  0  0  0  0  0  0  0  0  0  0  0
   -6.3473  212.4581   82.6817 C   0  0  0  0  0  0  0  0  0  0  0  0
   -6.0256  211.7607   80.6299 N   0  0  0  0  0  0  0  0  0  0  0  0
   -5.7013  210.8262   81.4890 N   0  0  0  0  0  0  0  0  0  0  0  0
   -5.8710  211.1817   82.7299 N   0  0  0  0  0  0  0  0  0  0  0  0
   -5.6293  210.4513   83.9700 C   0  0  0  0  0  0  0  0  0  0  0  0
   -4.4737  209.5289   83.7801 C   0  0  0  0  0  0  0  0  0  0  0  0
   -3.2553  210.1586   83.4179 N   0  0  0  0  0  0  0  0  0  0  0  0
   -2.7935  210.1321   82.0742 C   0  0  0  0  0  0  0  0  0  0  0  0
   -2.2368  211.3260   81.5954 C   0  0  0  0  0  0  0  0  0  0  0  0
   -2.1480  212.5417   82.4581 C   0  0  0  0  0  0  0  0  0  0  0  0
   -2.7157  213.6962   81.6988 C   0  0  0  0  0  0  0  0  0  0  0  0
   -2.2527  213.7979   80.2812 C   0  0  0  0  0  0  0  0  0  0  0  0
   -1.1802  212.7728   79.9343 C   0  0  0  0  0  0  0  0  0  0  0  0
   -1.7464  211.4428   80.3168 C   0  0  0  0  0  0  0  0  0  0  0  0
   -1.7935  210.3972   79.4924 N   0  0  0  0  0  0  0  0  0  0  0  0
   -2.3246  209.2273   79.9242 C   0  0  0  0  0  0  0  0  0  0  0  0
   -2.8316  209.0792   81.2219 C   0  0  0  0  0  0  0  0  0  0  0  0
   -3.3518  207.8891   81.6479 C   0  0  0  0  0  0  0  0  0  0  0  0
   -3.3893  206.8038   80.7987 C   0  0  0  0  0  0  0  0  0  0  0  0
   -2.8983  206.9156   79.5084 C   0  0  0  0  0  0  0  0  0  0  0  0
   -2.3796  208.1203   79.1040 C   0  0  0  0  0  0  0  0  0  0  0  0
  1  2  2  0
  2  3  1  0
  2 10  1  0
  4  3  1  1
  3  8  1  0
  5  4  1  1
  6  5  1  1
  6  7  1  0
  7  8  1  6
  8  9  1  6
  9 10  2  0
  9 14  1  0
 10 11  1  0
 11 12  2  0
 12 13  1  0
 13 14  2  0
 14 15  1  0
 15 16  1  0
 16 17  2  0
 16 18  1  0
 18 19  1  0
 19 20  2  0
 19 21  1  0
 20 24  1  0
 21 22  2  0
 22 23  1  0
 23 24  2  0
 24 25  1  0
 25 26  2  0
 25 27  1  0
 26 29  1  0
 27 28  2  0
 28 29  1  0
 30 29  1  1
 30 31  1  0
 31 32  1  6
 32 33  1  0
 33 34  1  0
 33 42  2  0
 35 34  1  1
 34 39  2  0
 36 35  1  1
 36 37  1  0
 37 38  1  6
 38 39  1  6
 39 40  1  0
 40 41  2  0
 41 42  1  0
 41 46  1  0
 42 43  1  0
 43 44  2  0
 44 45  1  0
 45 46  2  0
M  END
$$$$
