
     RDKit          3D

 46 53  0  0  0  0  0  0  0  0999 V2000
  -13.6270  222.7007   80.7570 O   0  0  0  0  0  0  0  0  0  0  0  0
  -12.8862  221.6963   80.6355 C   0  0  0  0  0  0  0  0  0  0  0  0
  -12.5289  220.8150   81.6815 N   0  0  0  0  0  0  0  0  0  0  0  0
  -12.8522  220.7645   83.0880 C   0  0  0  0  0  0  0  0  0  0  0  0
  -13.5457  219.4431   83.3500 C   0  0  0  0  0  0  0  0  0  0  0  0
  -13.6229  218.5805   82.1114 C   0  0  0  0  0  0  0  0  0  0  0  0
  -12.2877  218.4469   81.4140 C   0  0  0  0  0  0  0  0  0  0  0  0
  -11.6694  219.7987   81.1320 C   0  0  1  0  0  0  0  0  0  0  0  0
  -11.5009  220.0738   79.6976 C   0  0  0  0  0  0  0  0  0  0  0  0
  -12.2378  221.2145   79.4243 C   0  0  0  0  0  0  0  0  0  0  0  0
  -12.2686  221.7175   78.1431 C   0  0  0  0  0  0  0  0  0  0  0  0
  -11.5658  221.0796   77.1494 C   0  0  0  0  0  0  0  0  0  0  0  0
  -10.8360  219.9439   77.4370 C   0  0  0  0  0  0  0  0  0  0  0  0
  -10.7867  219.4163   78.7135 C   0  0  0  0  0  0  0  0  0  0  0  0
  -10.0332  218.2462   79.0039 N   0  0  0  0  0  0  0  0  0  0  0  0
  -10.4439  216.9710   78.5658 C   0  0  0  0  0  0  0  0  0  0  0  0
  -11.5672  216.5429   78.9249 O   0  0  0  0  0  0  0  0  0  0  0  0
   -9.6247  216.1446   77.7245 N   0  0  0  0  0  0  0  0  0  0  0  0
   -8.2151  216.2197   77.8742 C   0  0  0  0  0  0  0  0  0  0  0  0
   -7.5909  215.6209   78.9478 C   0  0  0  0  0  0  0  0  0  0  0  0
   -7.4366  216.8662   76.9916 N   0  0  0  0  0  0  0  0  0  0  0  0
   -6.0903  216.9343   77.1391 C   0  0  0  0  0  0  0  0  0  0  0  0
   -5.4448  216.3418   78.2065 C   0  0  0  0  0  0  0  0  0  0  0  0
   -6.2214  215.6720   79.1267 C   0  0  0  0  0  0  0  0  0  0  0  0
   -5.6001  215.0241   80.2781 C   0  0  0  0  0  0  0  0  0  0  0  0
   -6.2715  214.4431   81.3143 C   0  0  0  0  0  0  0  0  0  0  0  0
   -4.2818  214.8898   80.5134 N   0  0  0  0  0  0  0  0  0  0  0  0
   -4.1855  214.2497   81.6525 N   0  0  0  0  0  0  0  0  0  0  0  0
   -5.3386  213.9552   82.1803 N   0  0  0  0  0  0  0  0  0  0  0  0
   -5.6670  213.2632   83.4226 C   0  0  0  0  0  0  0  0  0  0  0  0
   -5.1834  211.8553   83.3438 C   0  0  0  0  0  0  0  0  0  0  0  0
   -4.3989  211.5523   82.2015 N   0  0  0  0  0  0  0  0  0  0  0  0
   -3.9879  210.2186   81.9336 C   0  0  0  0  0  0  0  0  0  0  0  0
   -2.8168  209.7984   82.5791 C   0  0  0  0  0  0  0  0  0  0  0  0
   -2.0591  210.7125   83.4848 C   0  0  0  0  0  0  0  0  0  0  0  0
   -0.6228  210.6920   83.0747 C   0  0  0  0  0  0  0  0  0  0  0  0
   -0.0673  209.3284   82.8181 C   0  0  0  0  0  0  0  0  0  0  0  0
   -1.0495  208.2154   83.1618 C   0  0  0  0  0  0  0  0  0  0  0  0
   -2.3056  208.5332   82.4154 C   0  0  0  0  0  0  0  0  0  0  0  0
   -2.9308  207.6650   81.6213 N   0  0  0  0  0  0  0  0  0  0  0  0
   -4.0664  208.0389   80.9828 C   0  0  0  0  0  0  0  0  0  0  0  0
   -4.6105  209.3214   81.1311 C   0  0  0  0  0  0  0  0  0  0  0  0
   -5.7642  209.6800   80.4917 C   0  0  0  0  0  0  0  0  0  0  0  0
   -6.4175  208.7777   79.6796 C   0  0  0  0  0  0  0  0  0  0  0  0
   -5.9064  207.5017   79.5092 C   0  0  0  0  0  0  0  0  0  0  0  0
   -4.7475  207.1644   80.1627 C   0  0  0  0  0  0  0  0  0  0  0  0
  1  2  2  0
  2  3  1  0
  2 10  1  0
  4  3  1  1
  3  8  1  0
  5  4  1  1
  6  5  1  1
  6  7  1  0
  7  8  1  6
  8  9  1  6
  9 10  2  0
  9 14  1  0
 10 11  1  0
 11 12  2  0
 12 13  1  0
 13 14  2  0
 14 15  1  0
 15 16  1  0
 16 17  2  0
 16 18  1  0
 18 19  1  0
 19 20  2  0
 19 21  1  0
 20 24  1  0
 21 22  2  0
 22 23  1  0
 23 24  2  0
 24 25  1  0
 25 26  2  0
 25 27  1  0
 26 29  1  0
 27 28  2  0
 28 29  1  0
 30 29  1  1
 30 31  1  0
 31 32  1  6
 32 33  1  0
 33 34  1  0
 33 42  2  0
 35 34  1  1
 34 39  2  0
 36 35  1  1
 36 37  1  0
 37 38  1  6
 38 39  1  6
 39 40  1  0
 40 41  2  0
 41 42  1  0
 41 46  1  0
 42 43  1  0
 43 44  2  0
 44 45  1  0
 45 46  2  0
M  END
$$$$
