
     RDKit          3D

 46 53  0  0  0  0  0  0  0  0999 V2000
  -13.4848  224.7019   82.5821 O   0  0  0  0  0  0  0  0  0  0  0  0
  -13.1912  223.7515   81.8297 C   0  0  0  0  0  0  0  0  0  0  0  0
  -13.8238  223.4125   80.6337 N   0  0  0  0  0  0  0  0  0  0  0  0
  -14.9674  223.9653   79.9476 C   0  0  0  0  0  0  0  0  0  0  0  0
  -14.5276  224.4090   78.5648 C   0  0  0  0  0  0  0  0  0  0  0  0
  -13.6247  223.4432   77.8730 C   0  0  0  0  0  0  0  0  0  0  0  0
  -12.5232  222.8836   78.7447 C   0  0  0  0  0  0  0  0  0  0  0  0
  -13.1434  222.2965   80.0258 C   0  0  1  0  0  0  0  0  0  0  0  0
  -12.1175  221.8909   80.9802 C   0  0  0  0  0  0  0  0  0  0  0  0
  -12.1255  222.7869   82.0319 C   0  0  0  0  0  0  0  0  0  0  0  0
  -11.2312  222.6659   83.0764 C   0  0  0  0  0  0  0  0  0  0  0  0
  -10.3241  221.6377   83.0646 C   0  0  0  0  0  0  0  0  0  0  0  0
  -10.3301  220.7355   81.9912 C   0  0  0  0  0  0  0  0  0  0  0  0
  -11.2036  220.8343   80.9475 C   0  0  0  0  0  0  0  0  0  0  0  0
  -11.2644  219.9332   79.8664 N   0  0  0  0  0  0  0  0  0  0  0  0
  -10.3033  218.9730   79.5198 C   0  0  0  0  0  0  0  0  0  0  0  0
   -9.6436  219.0648   78.4867 O   0  0  0  0  0  0  0  0  0  0  0  0
  -10.0230  217.8227   80.3405 N   0  0  0  0  0  0  0  0  0  0  0  0
   -9.1310  216.8094   79.9050 C   0  0  0  0  0  0  0  0  0  0  0  0
   -8.8812  215.6778   80.6465 C   0  0  0  0  0  0  0  0  0  0  0  0
   -8.4885  216.9476   78.7079 N   0  0  0  0  0  0  0  0  0  0  0  0
   -7.6353  216.0202   78.2499 C   0  0  0  0  0  0  0  0  0  0  0  0
   -7.4037  214.8961   79.0136 C   0  0  0  0  0  0  0  0  0  0  0  0
   -8.0150  214.6905   80.2278 C   0  0  0  0  0  0  0  0  0  0  0  0
   -7.7446  213.4947   81.0018 C   0  0  0  0  0  0  0  0  0  0  0  0
   -7.2523  212.2944   80.5361 C   0  0  0  0  0  0  0  0  0  0  0  0
   -7.9135  213.2988   82.3226 N   0  0  0  0  0  0  0  0  0  0  0  0
   -7.5452  212.0590   82.6275 N   0  0  0  0  0  0  0  0  0  0  0  0
   -7.1336  211.4176   81.5461 N   0  0  0  0  0  0  0  0  0  0  0  0
   -6.6425  210.0199   81.4687 C   0  0  0  0  0  0  0  0  0  0  0  0
   -5.9512  209.7311   82.7718 C   0  0  0  0  0  0  0  0  0  0  0  0
   -4.5717  210.0509   82.8559 N   0  0  0  0  0  0  0  0  0  0  0  0
   -3.5441  209.3505   82.1634 C   0  0  0  0  0  0  0  0  0  0  0  0
   -2.2018  209.7200   82.2753 C   0  0  0  0  0  0  0  0  0  0  0  0
   -1.8745  210.8585   83.1456 C   0  0  0  0  0  0  0  0  0  0  0  0
   -0.4667  211.3450   83.0239 C   0  0  0  0  0  0  0  0  0  0  0  0
    0.1794  210.9229   81.7450 C   0  0  0  0  0  0  0  0  0  0  0  0
    0.1998  209.3892   81.6653 C   0  0  0  0  0  0  0  0  0  0  0  0
   -1.2575  209.0060   81.5743 C   0  0  0  0  0  0  0  0  0  0  0  0
   -1.6306  207.9740   80.7997 N   0  0  0  0  0  0  0  0  0  0  0  0
   -2.9201  207.5859   80.6637 C   0  0  0  0  0  0  0  0  0  0  0  0
   -3.8911  208.2930   81.3614 C   0  0  0  0  0  0  0  0  0  0  0  0
   -5.2079  207.9198   81.2104 C   0  0  0  0  0  0  0  0  0  0  0  0
   -5.5516  206.8760   80.3968 C   0  0  0  0  0  0  0  0  0  0  0  0
   -4.5817  206.1769   79.7096 C   0  0  0  0  0  0  0  0  0  0  0  0
   -3.2545  206.5286   79.8388 C   0  0  0  0  0  0  0  0  0  0  0  0
  1  2  2  0
  2  3  1  0
  2 10  1  0
  3  4  1  0
  3  8  1  0
  4  5  1  0
  5  6  1  0
  6  7  1  0
  8  7  1  6
  8  9  1  0
  9 10  2  0
  9 14  1  0
 10 11  1  0
 11 12  2  0
 12 13  1  0
 13 14  2  0
 14 15  1  0
 15 16  1  0
 16 17  2  0
 16 18  1  0
 18 19  1  0
 19 20  2  0
 19 21  1  0
 20 24  1  0
 21 22  2  0
 22 23  1  0
 23 24  2  0
 24 25  1  0
 25 26  2  0
 25 27  1  0
 26 29  1  0
 27 28  2  0
 28 29  1  0
 29 30  1  0
 30 31  1  0
 31 32  1  0
 32 33  1  0
 33 34  1  0
 33 42  2  0
 34 35  1  0
 34 39  2  0
 35 36  1  0
 36 37  1  0
 37 38  1  0
 38 39  1  0
 39 40  1  0
 40 41  2  0
 41 42  1  0
 41 46  1  0
 42 43  1  0
 43 44  2  0
 44 45  1  0
 45 46  2  0
M  END
$$$$
