
     RDKit          3D

 46 53  0  0  0  0  0  0  0  0999 V2000
    1.2095  211.5667   84.7429 O   0  0  0  0  0  0  0  0  0  0  0  0
    0.1229  211.4415   84.1438 C   0  0  0  0  0  0  0  0  0  0  0  0
   -0.0660  210.9111   82.8676 N   0  0  0  0  0  0  0  0  0  0  0  0
    0.8570  210.4200   81.8721 C   0  0  0  0  0  0  0  0  0  0  0  0
    0.5051  208.9765   81.5639 C   0  0  0  0  0  0  0  0  0  0  0  0
   -0.9588  208.7210   81.4294 C   0  0  0  0  0  0  0  0  0  0  0  0
   -1.8071  209.3708   82.4992 C   0  0  0  0  0  0  0  0  0  0  0  0
   -1.4744  210.8728   82.5630 C   0  0  1  0  0  0  0  0  0  0  0  0
   -2.1402  211.5214   83.6873 C   0  0  0  0  0  0  0  0  0  0  0  0
   -1.1870  211.8198   84.6419 C   0  0  0  0  0  0  0  0  0  0  0  0
   -1.5386  212.4158   85.8363 C   0  0  0  0  0  0  0  0  0  0  0  0
   -2.8558  212.7149   86.0724 C   0  0  0  0  0  0  0  0  0  0  0  0
   -3.8109  212.4077   85.0928 C   0  0  0  0  0  0  0  0  0  0  0  0
   -3.4882  211.8186   83.9050 C   0  0  0  0  0  0  0  0  0  0  0  0
   -4.4102  211.5215   82.8821 N   0  0  0  0  0  0  0  0  0  0  0  0
   -5.7066  212.0378   82.7456 C   0  0  0  0  0  0  0  0  0  0  0  0
   -6.6652  211.5363   83.3291 O   0  0  0  0  0  0  0  0  0  0  0  0
   -6.0048  213.1807   81.9207 N   0  0  0  0  0  0  0  0  0  0  0  0
   -7.1939  213.2396   81.1496 C   0  0  0  0  0  0  0  0  0  0  0  0
   -7.7284  214.4278   80.7075 C   0  0  0  0  0  0  0  0  0  0  0  0
   -7.8440  212.0832   80.8259 N   0  0  0  0  0  0  0  0  0  0  0  0
   -8.9714  212.0827   80.1000 C   0  0  0  0  0  0  0  0  0  0  0  0
   -9.4847  213.2878   79.6701 C   0  0  0  0  0  0  0  0  0  0  0  0
   -8.8838  214.4904   79.9582 C   0  0  0  0  0  0  0  0  0  0  0  0
   -9.4553  215.7371   79.4879 C   0  0  0  0  0  0  0  0  0  0  0  0
  -10.7540  215.9577   79.0821 C   0  0  0  0  0  0  0  0  0  0  0  0
   -8.8518  216.9317   79.3466 N   0  0  0  0  0  0  0  0  0  0  0  0
   -9.7343  217.8114   78.8852 N   0  0  0  0  0  0  0  0  0  0  0  0
  -10.9144  217.2387   78.7130 N   0  0  0  0  0  0  0  0  0  0  0  0
  -12.1556  217.8813   78.2161 C   0  0  0  0  0  0  0  0  0  0  0  0
  -13.0856  217.9936   79.3916 C   0  0  0  0  0  0  0  0  0  0  0  0
  -12.6588  218.7997   80.4781 N   0  0  0  0  0  0  0  0  0  0  0  0
  -12.4662  220.2081   80.4025 C   0  0  0  0  0  0  0  0  0  0  0  0
  -12.8716  221.0594   81.4329 C   0  0  0  0  0  0  0  0  0  0  0  0
  -13.5003  220.4536   82.6154 C   0  0  0  0  0  0  0  0  0  0  0  0
  -14.1238  221.4343   83.5550 C   0  0  0  0  0  0  0  0  0  0  0  0
  -14.4113  222.7491   82.9069 C   0  0  0  0  0  0  0  0  0  0  0  0
  -13.1013  223.3589   82.3864 C   0  0  0  0  0  0  0  0  0  0  0  0
  -12.6628  222.4123   81.2951 C   0  0  0  0  0  0  0  0  0  0  0  0
  -12.0787  222.8949   80.1861 N   0  0  0  0  0  0  0  0  0  0  0  0
  -11.6735  222.1037   79.1654 C   0  0  0  0  0  0  0  0  0  0  0  0
  -11.8750  220.7342   79.2820 C   0  0  0  0  0  0  0  0  0  0  0  0
  -11.4871  219.9242   78.2382 C   0  0  0  0  0  0  0  0  0  0  0  0
  -10.9136  220.4539   77.1157 C   0  0  0  0  0  0  0  0  0  0  0  0
  -10.7141  221.8142   77.0085 C   0  0  0  0  0  0  0  0  0  0  0  0
  -11.0942  222.6514   78.0363 C   0  0  0  0  0  0  0  0  0  0  0  0
  1  2  2  0
  2  3  1  0
  2 10  1  0
  3  4  1  0
  3  8  1  0
  4  5  1  0
  5  6  1  0
  6  7  1  0
  8  7  1  1
  8  9  1  0
  9 10  2  0
  9 14  1  0
 10 11  1  0
 11 12  2  0
 12 13  1  0
 13 14  2  0
 14 15  1  0
 15 16  1  0
 16 17  2  0
 16 18  1  0
 18 19  1  0
 19 20  2  0
 19 21  1  0
 20 24  1  0
 21 22  2  0
 22 23  1  0
 23 24  2  0
 24 25  1  0
 25 26  2  0
 25 27  1  0
 26 29  1  0
 27 28  2  0
 28 29  1  0
 29 30  1  0
 30 31  1  0
 31 32  1  0
 32 33  1  0
 33 34  1  0
 33 42  2  0
 34 35  1  0
 34 39  2  0
 35 36  1  0
 36 37  1  0
 37 38  1  0
 38 39  1  0
 39 40  1  0
 40 41  2  0
 41 42  1  0
 41 46  1  0
 42 43  1  0
 43 44  2  0
 44 45  1  0
 45 46  2  0
M  END
$$$$
