
     RDKit          3D

 46 53  0  0  0  0  0  0  0  0999 V2000
  -13.6421  222.9843   79.8300 O   0  0  0  0  0  0  0  0  0  0  0  0
  -12.8964  221.9847   79.8409 C   0  0  0  0  0  0  0  0  0  0  0  0
  -12.4636  221.2831   80.9660 N   0  0  0  0  0  0  0  0  0  0  0  0
  -12.6696  221.4898   82.3799 C   0  0  0  0  0  0  0  0  0  0  0  0
  -13.3344  220.2520   82.9527 C   0  0  0  0  0  0  0  0  0  0  0  0
  -12.7656  218.9669   82.4513 C   0  0  0  0  0  0  0  0  0  0  0  0
  -12.5256  218.9302   80.9589 C   0  0  0  0  0  0  0  0  0  0  0  0
  -11.6750  220.1486   80.5551 C   0  0  1  0  0  0  0  0  0  0  0  0
  -11.5498  220.2576   79.1059 C   0  0  0  0  0  0  0  0  0  0  0  0
  -12.3133  221.3292   78.6844 C   0  0  0  0  0  0  0  0  0  0  0  0
  -12.4076  221.6528   77.3458 C   0  0  0  0  0  0  0  0  0  0  0  0
  -11.7296  220.8957   76.4252 C   0  0  0  0  0  0  0  0  0  0  0  0
  -10.9573  219.8127   76.8691 C   0  0  0  0  0  0  0  0  0  0  0  0
  -10.8488  219.4730   78.1863 C   0  0  0  0  0  0  0  0  0  0  0  0
  -10.0605  218.4138   78.6775 N   0  0  0  0  0  0  0  0  0  0  0  0
   -8.7821  218.0447   78.2355 C   0  0  0  0  0  0  0  0  0  0  0  0
   -8.4297  218.2120   77.0699 O   0  0  0  0  0  0  0  0  0  0  0  0
   -7.8008  217.4493   79.1061 N   0  0  0  0  0  0  0  0  0  0  0  0
   -7.4714  216.0730   79.0090 C   0  0  0  0  0  0  0  0  0  0  0  0
   -7.2453  215.2887   80.1166 C   0  0  0  0  0  0  0  0  0  0  0  0
   -7.3710  215.4904   77.7782 N   0  0  0  0  0  0  0  0  0  0  0  0
   -7.0620  214.1940   77.6303 C   0  0  0  0  0  0  0  0  0  0  0  0
   -6.8406  213.4315   78.7573 C   0  0  0  0  0  0  0  0  0  0  0  0
   -6.9245  213.9510   80.0275 C   0  0  0  0  0  0  0  0  0  0  0  0
   -6.6841  213.1160   81.1881 C   0  0  0  0  0  0  0  0  0  0  0  0
   -5.7436  213.3136   82.1763 C   0  0  0  0  0  0  0  0  0  0  0  0
   -7.3162  211.9835   81.5477 N   0  0  0  0  0  0  0  0  0  0  0  0
   -6.7868  211.5322   82.6798 N   0  0  0  0  0  0  0  0  0  0  0  0
   -5.8160  212.3320   83.0897 N   0  0  0  0  0  0  0  0  0  0  0  0
   -4.9826  212.1749   84.3069 C   0  0  0  0  0  0  0  0  0  0  0  0
   -4.7690  210.6994   84.4978 C   0  0  0  0  0  0  0  0  0  0  0  0
   -4.7834  209.8887   83.3338 N   0  0  0  0  0  0  0  0  0  0  0  0
   -3.6145  209.4120   82.6760 C   0  0  0  0  0  0  0  0  0  0  0  0
   -3.6888  208.5115   81.6108 C   0  0  0  0  0  0  0  0  0  0  0  0
   -5.0226  208.0725   81.1761 C   0  0  0  0  0  0  0  0  0  0  0  0
   -5.0137  206.9347   80.2073 C   0  0  0  0  0  0  0  0  0  0  0  0
   -3.7332  206.1660   80.2344 C   0  0  0  0  0  0  0  0  0  0  0  0
   -2.5686  207.1013   79.8772 C   0  0  0  0  0  0  0  0  0  0  0  0
   -2.5211  208.0839   81.0222 C   0  0  0  0  0  0  0  0  0  0  0  0
   -1.3367  208.5307   81.4714 N   0  0  0  0  0  0  0  0  0  0  0  0
   -1.2226  209.4016   82.5012 C   0  0  0  0  0  0  0  0  0  0  0  0
   -2.3883  209.8463   83.1117 C   0  0  0  0  0  0  0  0  0  0  0  0
   -2.2804  210.7143   84.1752 C   0  0  0  0  0  0  0  0  0  0  0  0
   -1.0559  211.1317   84.6175 C   0  0  0  0  0  0  0  0  0  0  0  0
    0.0970  210.6881   84.0046 C   0  0  0  0  0  0  0  0  0  0  0  0
    0.0212  209.8167   82.9384 C   0  0  0  0  0  0  0  0  0  0  0  0
  1  2  2  0
  2  3  1  0
  2 10  1  0
  3  4  1  0
  3  8  1  0
  4  5  1  0
  5  6  1  0
  6  7  1  0
  8  7  1  6
  8  9  1  0
  9 10  2  0
  9 14  1  0
 10 11  1  0
 11 12  2  0
 12 13  1  0
 13 14  2  0
 14 15  1  0
 15 16  1  0
 16 17  2  0
 16 18  1  0
 18 19  1  0
 19 20  2  0
 19 21  1  0
 20 24  1  0
 21 22  2  0
 22 23  1  0
 23 24  2  0
 24 25  1  0
 25 26  2  0
 25 27  1  0
 26 29  1  0
 27 28  2  0
 28 29  1  0
 29 30  1  0
 30 31  1  0
 31 32  1  0
 32 33  1  0
 33 34  1  0
 33 42  2  0
 34 35  1  0
 34 39  2  0
 35 36  1  0
 36 37  1  0
 37 38  1  0
 38 39  1  0
 39 40  1  0
 40 41  2  0
 41 42  1  0
 41 46  1  0
 42 43  1  0
 43 44  2  0
 44 45  1  0
 45 46  2  0
M  END
$$$$
