
     RDKit          3D

 46 53  0  0  0  0  0  0  0  0999 V2000
  -12.4136  223.8831   77.1117 O   0  0  0  0  0  0  0  0  0  0  0  0
  -12.0986  222.6850   77.3058 C   0  0  0  0  0  0  0  0  0  0  0  0
  -11.0798  221.9876   76.6171 N   0  0  0  0  0  0  0  0  0  0  0  0
  -10.1534  222.3625   75.5747 C   0  0  0  0  0  0  0  0  0  0  0  0
   -8.7522  222.1663   76.1168 C   0  0  0  0  0  0  0  0  0  0  0  0
   -8.7534  221.5914   77.5145 C   0  0  0  0  0  0  0  0  0  0  0  0
   -9.6376  220.3707   77.6384 C   0  0  0  0  0  0  0  0  0  0  0  0
  -11.0365  220.6431   77.1307 C   0  0  1  0  0  0  0  0  0  0  0  0
  -12.0675  220.5216   78.1719 C   0  0  0  0  0  0  0  0  0  0  0  0
  -12.6900  221.7560   78.2580 C   0  0  0  0  0  0  0  0  0  0  0  0
  -13.7119  221.9445   79.1612 C   0  0  0  0  0  0  0  0  0  0  0  0
  -14.1019  220.9025   79.9677 C   0  0  0  0  0  0  0  0  0  0  0  0
  -13.4720  219.6782   79.8704 C   0  0  0  0  0  0  0  0  0  0  0  0
  -12.4436  219.4599   78.9732 C   0  0  0  0  0  0  0  0  0  0  0  0
  -11.7985  218.1966   78.8773 N   0  0  0  0  0  0  0  0  0  0  0  0
  -12.5004  216.9886   79.0635 C   0  0  0  0  0  0  0  0  0  0  0  0
  -13.6700  216.8962   78.6191 O   0  0  0  0  0  0  0  0  0  0  0  0
  -11.9267  215.8609   79.7424 N   0  0  0  0  0  0  0  0  0  0  0  0
  -10.5237  215.8474   79.9582 C   0  0  0  0  0  0  0  0  0  0  0  0
   -9.9651  214.9957   80.8873 C   0  0  0  0  0  0  0  0  0  0  0  0
   -9.6888  216.6497   79.2783 N   0  0  0  0  0  0  0  0  0  0  0  0
   -8.3492  216.6323   79.4880 C   0  0  0  0  0  0  0  0  0  0  0  0
   -7.7689  215.7873   80.4134 C   0  0  0  0  0  0  0  0  0  0  0  0
   -8.6042  214.9537   81.1244 C   0  0  0  0  0  0  0  0  0  0  0  0
   -8.0534  214.0364   82.1179 C   0  0  0  0  0  0  0  0  0  0  0  0
   -6.8643  214.1975   82.7674 C   0  0  0  0  0  0  0  0  0  0  0  0
   -8.6123  212.8936   82.5574 N   0  0  0  0  0  0  0  0  0  0  0  0
   -7.7752  212.4017   83.4371 N   0  0  0  0  0  0  0  0  0  0  0  0
   -6.7124  213.1343   83.6069 N   0  0  0  0  0  0  0  0  0  0  0  0
   -5.5549  212.9439   84.4752 C   0  0  0  0  0  0  0  0  0  0  0  0
   -4.3773  212.5574   83.6468 C   0  0  0  0  0  0  0  0  0  0  0  0
   -4.2300  211.1642   83.4245 N   0  0  0  0  0  0  0  0  0  0  0  0
   -3.0127  210.6321   82.9198 C   0  0  0  0  0  0  0  0  0  0  0  0
   -2.9804  210.3811   81.5412 C   0  0  0  0  0  0  0  0  0  0  0  0
   -4.1641  210.6575   80.6739 C   0  0  0  0  0  0  0  0  0  0  0  0
   -4.4387  209.4385   79.8551 C   0  0  0  0  0  0  0  0  0  0  0  0
   -3.2292  208.8234   79.2282 C   0  0  0  0  0  0  0  0  0  0  0  0
   -1.9673  209.6502   79.4415 C   0  0  0  0  0  0  0  0  0  0  0  0
   -1.8672  209.8709   80.9170 C   0  0  0  0  0  0  0  0  0  0  0  0
   -0.7747  209.6007   81.6303 N   0  0  0  0  0  0  0  0  0  0  0  0
   -0.7723  209.8328   82.9656 C   0  0  0  0  0  0  0  0  0  0  0  0
   -1.8920  210.3525   83.6283 C   0  0  0  0  0  0  0  0  0  0  0  0
   -1.8703  210.5943   84.9735 C   0  0  0  0  0  0  0  0  0  0  0  0
   -0.7357  210.3261   85.7092 C   0  0  0  0  0  0  0  0  0  0  0  0
    0.3887  209.8102   85.0864 C   0  0  0  0  0  0  0  0  0  0  0  0
    0.3435  209.5771   83.7345 C   0  0  0  0  0  0  0  0  0  0  0  0
  1  2  2  0
  2  3  1  0
  2 10  1  0
  4  3  1  1
  3  8  1  0
  5  4  1  1
  6  5  1  1
  6  7  1  0
  7  8  1  6
  8  9  1  1
  9 10  2  0
  9 14  1  0
 10 11  1  0
 11 12  2  0
 12 13  1  0
 13 14  2  0
 14 15  1  0
 15 16  1  0
 16 17  2  0
 16 18  1  0
 18 19  1  0
 19 20  2  0
 19 21  1  0
 20 24  1  0
 21 22  2  0
 22 23  1  0
 23 24  2  0
 24 25  1  0
 25 26  2  0
 25 27  1  0
 26 29  1  0
 27 28  2  0
 28 29  1  0
 30 29  1  1
 30 31  1  0
 31 32  1  6
 32 33  1  0
 33 34  1  0
 33 42  2  0
 35 34  1  1
 34 39  2  0
 36 35  1  1
 36 37  1  0
 37 38  1  6
 38 39  1  6
 39 40  1  0
 40 41  2  0
 41 42  1  0
 41 46  1  0
 42 43  1  0
 43 44  2  0
 44 45  1  0
 45 46  2  0
M  END
$$$$
