
     RDKit          3D

 46 53  0  0  0  0  0  0  0  0999 V2000
  -13.5043  224.9940   79.9294 O   0  0  0  0  0  0  0  0  0  0  0  0
  -13.3059  223.8171   80.2914 C   0  0  0  0  0  0  0  0  0  0  0  0
  -13.6191  223.2659   81.5338 N   0  0  0  0  0  0  0  0  0  0  0  0
  -14.1802  223.8342   82.7364 C   0  0  0  0  0  0  0  0  0  0  0  0
  -15.4576  223.0856   83.0686 C   0  0  0  0  0  0  0  0  0  0  0  0
  -15.3567  221.6057   82.9072 C   0  0  0  0  0  0  0  0  0  0  0  0
  -14.6682  221.1615   81.6364 C   0  0  0  0  0  0  0  0  0  0  0  0
  -13.3000  221.8602   81.5338 C   0  0  1  0  0  0  0  0  0  0  0  0
  -12.6606  221.5994   80.2489 C   0  0  0  0  0  0  0  0  0  0  0  0
  -12.7051  222.7592   79.4995 C   0  0  0  0  0  0  0  0  0  0  0  0
  -12.1963  222.7975   78.2169 C   0  0  0  0  0  0  0  0  0  0  0  0
  -11.6383  221.6637   77.6845 C   0  0  0  0  0  0  0  0  0  0  0  0
  -11.5988  220.4952   78.4585 C   0  0  0  0  0  0  0  0  0  0  0  0
  -12.0952  220.4325   79.7281 C   0  0  0  0  0  0  0  0  0  0  0  0
  -12.0481  219.2897   80.5505 N   0  0  0  0  0  0  0  0  0  0  0  0
  -11.7826  217.9743   80.1442 C   0  0  0  0  0  0  0  0  0  0  0  0
  -12.6239  217.2993   79.5548 O   0  0  0  0  0  0  0  0  0  0  0  0
  -10.5186  217.3266   80.3857 N   0  0  0  0  0  0  0  0  0  0  0  0
  -10.3864  215.9172   80.2952 C   0  0  0  0  0  0  0  0  0  0  0  0
   -9.2126  215.2655   80.5959 C   0  0  0  0  0  0  0  0  0  0  0  0
  -11.4543  215.1654   79.8962 N   0  0  0  0  0  0  0  0  0  0  0  0
  -11.3828  213.8304   79.7934 C   0  0  0  0  0  0  0  0  0  0  0  0
  -10.1942  213.2035   80.1010 C   0  0  0  0  0  0  0  0  0  0  0  0
   -9.0790  213.8963   80.5091 C   0  0  0  0  0  0  0  0  0  0  0  0
   -7.8466  213.2001   80.8233 C   0  0  0  0  0  0  0  0  0  0  0  0
   -6.6957  213.7417   81.3543 C   0  0  0  0  0  0  0  0  0  0  0  0
   -7.5620  211.8939   80.6669 N   0  0  0  0  0  0  0  0  0  0  0  0
   -6.3188  211.6689   81.0785 N   0  0  0  0  0  0  0  0  0  0  0  0
   -5.7614  212.7895   81.5071 N   0  0  0  0  0  0  0  0  0  0  0  0
   -4.3891  212.9562   82.0452 C   0  0  0  0  0  0  0  0  0  0  0  0
   -4.4533  212.6162   83.5079 C   0  0  0  0  0  0  0  0  0  0  0  0
   -3.9561  211.3463   83.8984 N   0  0  0  0  0  0  0  0  0  0  0  0
   -2.5959  210.9461   83.7724 C   0  0  0  0  0  0  0  0  0  0  0  0
   -2.2153  209.8980   82.9312 C   0  0  0  0  0  0  0  0  0  0  0  0
   -3.2684  209.2185   82.1632 C   0  0  0  0  0  0  0  0  0  0  0  0
   -2.8256  207.9636   81.4830 C   0  0  0  0  0  0  0  0  0  0  0  0
   -1.5814  207.3932   82.0813 C   0  0  0  0  0  0  0  0  0  0  0  0
   -0.4442  208.4193   81.9690 C   0  0  0  0  0  0  0  0  0  0  0  0
   -0.8847  209.5559   82.8597 C   0  0  0  0  0  0  0  0  0  0  0  0
    0.0236  210.2243   83.5894 N   0  0  0  0  0  0  0  0  0  0  0  0
   -0.3050  211.2438   84.4167 C   0  0  0  0  0  0  0  0  0  0  0  0
   -1.6430  211.6062   84.5060 C   0  0  0  0  0  0  0  0  0  0  0  0
   -1.9891  212.6269   85.3630 C   0  0  0  0  0  0  0  0  0  0  0  0
   -1.0387  213.2712   86.1054 C   0  0  0  0  0  0  0  0  0  0  0  0
    0.2880  212.9077   86.0093 C   0  0  0  0  0  0  0  0  0  0  0  0
    0.6652  211.8877   85.1613 C   0  0  0  0  0  0  0  0  0  0  0  0
  1  2  2  0
  2  3  1  0
  2 10  1  0
  3  4  1  0
  3  8  1  0
  4  5  1  0
  5  6  1  0
  6  7  1  0
  8  7  1  6
  8  9  1  0
  9 10  2  0
  9 14  1  0
 10 11  1  0
 11 12  2  0
 12 13  1  0
 13 14  2  0
 14 15  1  0
 15 16  1  0
 16 17  2  0
 16 18  1  0
 18 19  1  0
 19 20  2  0
 19 21  1  0
 20 24  1  0
 21 22  2  0
 22 23  1  0
 23 24  2  0
 24 25  1  0
 25 26  2  0
 25 27  1  0
 26 29  1  0
 27 28  2  0
 28 29  1  0
 29 30  1  0
 30 31  1  0
 31 32  1  0
 32 33  1  0
 33 34  1  0
 33 42  2  0
 34 35  1  0
 34 39  2  0
 35 36  1  0
 36 37  1  0
 37 38  1  0
 38 39  1  0
 39 40  1  0
 40 41  2  0
 41 42  1  0
 41 46  1  0
 42 43  1  0
 43 44  2  0
 44 45  1  0
 45 46  2  0
M  END
$$$$
