
     RDKit          3D

 46 53  0  0  0  0  0  0  0  0999 V2000
  -13.1902  225.0884   77.8063 O   0  0  0  0  0  0  0  0  0  0  0  0
  -13.0101  223.9099   78.1723 C   0  0  0  0  0  0  0  0  0  0  0  0
  -13.8199  223.1759   79.0390 N   0  0  0  0  0  0  0  0  0  0  0  0
  -15.0079  223.5184   79.7843 C   0  0  0  0  0  0  0  0  0  0  0  0
  -16.1246  222.5820   79.3618 C   0  0  0  0  0  0  0  0  0  0  0  0
  -15.7049  221.1571   79.2207 C   0  0  0  0  0  0  0  0  0  0  0  0
  -14.3959  220.9610   78.4896 C   0  0  0  0  0  0  0  0  0  0  0  0
  -13.3128  221.8314   79.1530 C   0  0  1  0  0  0  0  0  0  0  0  0
  -12.0690  221.8115   78.3912 C   0  0  0  0  0  0  0  0  0  0  0  0
  -11.9173  223.0399   77.7772 C   0  0  0  0  0  0  0  0  0  0  0  0
  -10.8352  223.2980   76.9600 C   0  0  0  0  0  0  0  0  0  0  0  0
   -9.8992  222.3161   76.7594 C   0  0  0  0  0  0  0  0  0  0  0  0
  -10.0664  221.0755   77.3913 C   0  0  0  0  0  0  0  0  0  0  0  0
  -11.1272  220.7965   78.2030 C   0  0  0  0  0  0  0  0  0  0  0  0
  -11.3173  219.5763   78.8809 N   0  0  0  0  0  0  0  0  0  0  0  0
  -10.6578  219.1507   80.0427 C   0  0  0  0  0  0  0  0  0  0  0  0
  -11.2096  219.1693   81.1410 O   0  0  0  0  0  0  0  0  0  0  0  0
   -9.3010  218.6663   80.0328 N   0  0  0  0  0  0  0  0  0  0  0  0
   -9.0158  217.2838   79.8938 C   0  0  0  0  0  0  0  0  0  0  0  0
   -8.1613  216.6179   80.7420 C   0  0  0  0  0  0  0  0  0  0  0  0
   -9.6027  216.5736   78.8859 N   0  0  0  0  0  0  0  0  0  0  0  0
   -9.3671  215.2654   78.7097 C   0  0  0  0  0  0  0  0  0  0  0  0
   -8.5066  214.6234   79.5745 C   0  0  0  0  0  0  0  0  0  0  0  0
   -7.8806  215.2747   80.6109 C   0  0  0  0  0  0  0  0  0  0  0  0
   -6.9816  214.5639   81.4991 C   0  0  0  0  0  0  0  0  0  0  0  0
   -7.0974  213.2610   81.9337 C   0  0  0  0  0  0  0  0  0  0  0  0
   -5.8563  215.0144   82.0840 N   0  0  0  0  0  0  0  0  0  0  0  0
   -5.3322  214.0418   82.8221 N   0  0  0  0  0  0  0  0  0  0  0  0
   -6.0760  212.9503   82.7481 N   0  0  0  0  0  0  0  0  0  0  0  0
   -5.8297  211.6533   83.4248 C   0  0  0  0  0  0  0  0  0  0  0  0
   -5.1003  210.7829   82.4401 C   0  0  0  0  0  0  0  0  0  0  0  0
   -3.7963  210.3545   82.7987 N   0  0  0  0  0  0  0  0  0  0  0  0
   -2.6106  210.7375   82.1105 C   0  0  0  0  0  0  0  0  0  0  0  0
   -1.3486  210.3146   82.5340 C   0  0  0  0  0  0  0  0  0  0  0  0
   -1.2782  209.4452   83.7171 C   0  0  0  0  0  0  0  0  0  0  0  0
    0.1022  209.2378   84.2507 C   0  0  0  0  0  0  0  0  0  0  0  0
    1.0570  210.2958   83.8032 C   0  0  0  0  0  0  0  0  0  0  0  0
    1.1372  210.2954   82.2694 C   0  0  0  0  0  0  0  0  0  0  0  0
   -0.2411  210.7258   81.8287 C   0  0  0  0  0  0  0  0  0  0  0  0
   -0.3824  211.5190   80.7540 N   0  0  0  0  0  0  0  0  0  0  0  0
   -1.5868  211.9512   80.3130 C   0  0  0  0  0  0  0  0  0  0  0  0
   -2.7192  211.5496   81.0101 C   0  0  0  0  0  0  0  0  0  0  0  0
   -3.9467  212.0037   80.5824 C   0  0  0  0  0  0  0  0  0  0  0  0
   -4.0495  212.8267   79.4955 C   0  0  0  0  0  0  0  0  0  0  0  0
   -2.9211  213.2189   78.8067 C   0  0  0  0  0  0  0  0  0  0  0  0
   -1.6774  212.7823   79.2124 C   0  0  0  0  0  0  0  0  0  0  0  0
  1  2  2  0
  2  3  1  0
  2 10  1  0
  3  4  1  0
  3  8  1  0
  4  5  1  0
  5  6  1  0
  6  7  1  0
  8  7  1  6
  8  9  1  0
  9 10  2  0
  9 14  1  0
 10 11  1  0
 11 12  2  0
 12 13  1  0
 13 14  2  0
 14 15  1  0
 15 16  1  0
 16 17  2  0
 16 18  1  0
 18 19  1  0
 19 20  2  0
 19 21  1  0
 20 24  1  0
 21 22  2  0
 22 23  1  0
 23 24  2  0
 24 25  1  0
 25 26  2  0
 25 27  1  0
 26 29  1  0
 27 28  2  0
 28 29  1  0
 29 30  1  0
 30 31  1  0
 31 32  1  0
 32 33  1  0
 33 34  1  0
 33 42  2  0
 34 35  1  0
 34 39  2  0
 35 36  1  0
 36 37  1  0
 37 38  1  0
 38 39  1  0
 39 40  1  0
 40 41  2  0
 41 42  1  0
 41 46  1  0
 42 43  1  0
 43 44  2  0
 44 45  1  0
 45 46  2  0
M  END
$$$$
