
     RDKit          3D

 46 53  0  0  0  0  0  0  0  0999 V2000
  -14.2085  223.8986   79.3408 O   0  0  0  0  0  0  0  0  0  0  0  0
  -13.2688  223.1347   79.0426 C   0  0  0  0  0  0  0  0  0  0  0  0
  -12.4970  223.1807   77.8816 N   0  0  0  0  0  0  0  0  0  0  0  0
  -12.5537  224.0204   76.7086 C   0  0  0  0  0  0  0  0  0  0  0  0
  -11.2225  224.7345   76.5665 C   0  0  0  0  0  0  0  0  0  0  0  0
  -10.0351  223.8669   76.8187 C   0  0  0  0  0  0  0  0  0  0  0  0
  -10.1571  222.9799   78.0372 C   0  0  0  0  0  0  0  0  0  0  0  0
  -11.4665  222.1749   77.9455 C   0  0  1  0  0  0  0  0  0  0  0  0
  -11.7208  221.4249   79.1705 C   0  0  0  0  0  0  0  0  0  0  0  0
  -12.7695  222.0279   79.8380 C   0  0  0  0  0  0  0  0  0  0  0  0
  -13.2106  221.5452   81.0536 C   0  0  0  0  0  0  0  0  0  0  0  0
  -12.5949  220.4492   81.6014 C   0  0  0  0  0  0  0  0  0  0  0  0
  -11.5335  219.8472   80.9107 C   0  0  0  0  0  0  0  0  0  0  0  0
  -11.0794  220.3059   79.7083 C   0  0  0  0  0  0  0  0  0  0  0  0
  -10.0383  219.7135   78.9669 N   0  0  0  0  0  0  0  0  0  0  0  0
   -9.6648  218.3621   78.9775 C   0  0  0  0  0  0  0  0  0  0  0  0
  -10.4988  217.4621   78.9055 O   0  0  0  0  0  0  0  0  0  0  0  0
   -8.2918  217.9362   79.0725 N   0  0  0  0  0  0  0  0  0  0  0  0
   -7.9057  216.6179   78.7189 C   0  0  0  0  0  0  0  0  0  0  0  0
   -7.6097  215.6584   79.6595 C   0  0  0  0  0  0  0  0  0  0  0  0
   -7.8196  216.2728   77.4005 N   0  0  0  0  0  0  0  0  0  0  0  0
   -7.4589  215.0411   77.0120 C   0  0  0  0  0  0  0  0  0  0  0  0
   -7.1680  214.0994   77.9758 C   0  0  0  0  0  0  0  0  0  0  0  0
   -7.2337  214.3761   79.3209 C   0  0  0  0  0  0  0  0  0  0  0  0
   -6.9195  213.3580   80.3042 C   0  0  0  0  0  0  0  0  0  0  0  0
   -6.8383  213.5166   81.6711 C   0  0  0  0  0  0  0  0  0  0  0  0
   -6.6423  212.0569   80.1000 N   0  0  0  0  0  0  0  0  0  0  0  0
   -6.4099  211.4742   81.2713 N   0  0  0  0  0  0  0  0  0  0  0  0
   -6.5238  212.3498   82.2564 N   0  0  0  0  0  0  0  0  0  0  0  0
   -6.3421  212.0928   83.7061 C   0  0  0  0  0  0  0  0  0  0  0  0
   -5.3510  210.9691   83.8257 C   0  0  0  0  0  0  0  0  0  0  0  0
   -4.0866  211.1546   83.2098 N   0  0  0  0  0  0  0  0  0  0  0  0
   -3.2830  210.0972   82.6976 C   0  0  0  0  0  0  0  0  0  0  0  0
   -1.8881  210.1684   82.7028 C   0  0  0  0  0  0  0  0  0  0  0  0
   -1.2653  211.3743   83.2673 C   0  0  0  0  0  0  0  0  0  0  0  0
    0.2037  211.4865   83.0168 C   0  0  0  0  0  0  0  0  0  0  0  0
    0.6583  210.6414   81.8720 C   0  0  0  0  0  0  0  0  0  0  0  0
    0.3394  209.1683   82.1668 C   0  0  0  0  0  0  0  0  0  0  0  0
   -1.1692  209.1151   82.1864 C   0  0  0  0  0  0  0  0  0  0  0  0
   -1.8072  208.0427   81.6893 N   0  0  0  0  0  0  0  0  0  0  0  0
   -3.1562  207.9364   81.6647 C   0  0  0  0  0  0  0  0  0  0  0  0
   -3.9030  208.9884   82.1798 C   0  0  0  0  0  0  0  0  0  0  0  0
   -5.2763  208.8988   82.1374 C   0  0  0  0  0  0  0  0  0  0  0  0
   -5.8908  207.7995   81.6050 C   0  0  0  0  0  0  0  0  0  0  0  0
   -5.1428  206.7578   81.0982 C   0  0  0  0  0  0  0  0  0  0  0  0
   -3.7653  206.8195   81.1246 C   0  0  0  0  0  0  0  0  0  0  0  0
  1  2  2  0
  2  3  1  0
  2 10  1  0
  3  4  1  0
  3  8  1  0
  4  5  1  0
  5  6  1  0
  6  7  1  0
  8  7  1  1
  8  9  1  0
  9 10  2  0
  9 14  1  0
 10 11  1  0
 11 12  2  0
 12 13  1  0
 13 14  2  0
 14 15  1  0
 15 16  1  0
 16 17  2  0
 16 18  1  0
 18 19  1  0
 19 20  2  0
 19 21  1  0
 20 24  1  0
 21 22  2  0
 22 23  1  0
 23 24  2  0
 24 25  1  0
 25 26  2  0
 25 27  1  0
 26 29  1  0
 27 28  2  0
 28 29  1  0
 29 30  1  0
 30 31  1  0
 31 32  1  0
 32 33  1  0
 33 34  1  0
 33 42  2  0
 34 35  1  0
 34 39  2  0
 35 36  1  0
 36 37  1  0
 37 38  1  0
 38 39  1  0
 39 40  1  0
 40 41  2  0
 41 42  1  0
 41 46  1  0
 42 43  1  0
 43 44  2  0
 44 45  1  0
 45 46  2  0
M  END
$$$$
