
     RDKit          3D

 46 53  0  0  0  0  0  0  0  0999 V2000
  -13.5598  219.4817   80.6049 O   0  0  0  0  0  0  0  0  0  0  0  0
  -12.6787  219.1375   79.7817 C   0  0  0  0  0  0  0  0  0  0  0  0
  -12.8972  218.8971   78.4058 N   0  0  0  0  0  0  0  0  0  0  0  0
  -14.0688  218.9567   77.5638 C   0  0  0  0  0  0  0  0  0  0  0  0
  -13.7985  219.9772   76.4769 C   0  0  0  0  0  0  0  0  0  0  0  0
  -12.4034  220.5519   76.5640 C   0  0  0  0  0  0  0  0  0  0  0  0
  -11.3418  219.4811   76.6805 C   0  0  0  0  0  0  0  0  0  0  0  0
  -11.6382  218.5245   77.8145 C   0  0  1  0  0  0  0  0  0  0  0  0
  -10.6172  218.5417   78.8723 C   0  0  0  0  0  0  0  0  0  0  0  0
  -11.2640  218.9107   80.0404 C   0  0  0  0  0  0  0  0  0  0  0  0
  -10.5510  219.0120   81.2137 C   0  0  0  0  0  0  0  0  0  0  0  0
   -9.2030  218.7449   81.2106 C   0  0  0  0  0  0  0  0  0  0  0  0
   -8.5723  218.3784   80.0388 C   0  0  0  0  0  0  0  0  0  0  0  0
   -9.2625  218.2686   78.8464 C   0  0  0  0  0  0  0  0  0  0  0  0
   -8.6076  217.8905   77.6424 N   0  0  0  0  0  0  0  0  0  0  0  0
   -7.3170  217.3239   77.6457 C   0  0  0  0  0  0  0  0  0  0  0  0
   -6.4557  217.7816   76.8565 O   0  0  0  0  0  0  0  0  0  0  0  0
   -6.9520  216.2434   78.5179 N   0  0  0  0  0  0  0  0  0  0  0  0
   -5.5722  215.9900   78.7349 C   0  0  0  0  0  0  0  0  0  0  0  0
   -5.1600  215.2156   79.7984 C   0  0  0  0  0  0  0  0  0  0  0  0
   -4.6198  216.4840   77.9274 N   0  0  0  0  0  0  0  0  0  0  0  0
   -3.3031  216.2383   78.1388 C   0  0  0  0  0  0  0  0  0  0  0  0
   -2.8684  215.4655   79.1975 C   0  0  0  0  0  0  0  0  0  0  0  0
   -3.8263  214.9467   80.0412 C   0  0  0  0  0  0  0  0  0  0  0  0
   -3.4323  214.1215   81.1794 C   0  0  0  0  0  0  0  0  0  0  0  0
   -4.2339  213.7990   82.2355 C   0  0  0  0  0  0  0  0  0  0  0  0
   -2.2324  213.5463   81.3812 N   0  0  0  0  0  0  0  0  0  0  0  0
   -2.3297  212.9070   82.5206 N   0  0  0  0  0  0  0  0  0  0  0  0
   -3.5001  213.0196   83.0795 N   0  0  0  0  0  0  0  0  0  0  0  0
   -4.0116  212.4753   84.3334 C   0  0  0  0  0  0  0  0  0  0  0  0
   -4.8606  211.2849   84.0425 C   0  0  0  0  0  0  0  0  0  0  0  0
   -4.1789  210.0411   84.0628 N   0  0  0  0  0  0  0  0  0  0  0  0
   -3.9153  209.3356   82.8577 C   0  0  0  0  0  0  0  0  0  0  0  0
   -2.5628  209.1238   82.5567 C   0  0  0  0  0  0  0  0  0  0  0  0
   -1.4802  209.6210   83.4570 C   0  0  0  0  0  0  0  0  0  0  0  0
   -0.4922  210.3750   82.6281 C   0  0  0  0  0  0  0  0  0  0  0  0
   -0.0996  209.6963   81.3556 C   0  0  0  0  0  0  0  0  0  0  0  0
   -0.6884  208.2970   81.2256 C   0  0  0  0  0  0  0  0  0  0  0  0
   -2.1619  208.4528   81.4262 C   0  0  0  0  0  0  0  0  0  0  0  0
   -3.0751  207.9816   80.5781 N   0  0  0  0  0  0  0  0  0  0  0  0
   -4.3918  208.1684   80.8400 C   0  0  0  0  0  0  0  0  0  0  0  0
   -4.8295  208.8479   81.9843 C   0  0  0  0  0  0  0  0  0  0  0  0
   -6.1611  209.0168   82.2423 C   0  0  0  0  0  0  0  0  0  0  0  0
   -7.1061  208.5184   81.3710 C   0  0  0  0  0  0  0  0  0  0  0  0
   -6.7084  207.8429   80.2291 C   0  0  0  0  0  0  0  0  0  0  0  0
   -5.3658  207.6847   79.9922 C   0  0  0  0  0  0  0  0  0  0  0  0
  1  2  2  0
  2  3  1  0
  2 10  1  0
  4  3  1  1
  3  8  1  0
  5  4  1  1
  6  5  1  1
  6  7  1  0
  7  8  1  6
  8  9  1  1
  9 10  2  0
  9 14  1  0
 10 11  1  0
 11 12  2  0
 12 13  1  0
 13 14  2  0
 14 15  1  0
 15 16  1  0
 16 17  2  0
 16 18  1  0
 18 19  1  0
 19 20  2  0
 19 21  1  0
 20 24  1  0
 21 22  2  0
 22 23  1  0
 23 24  2  0
 24 25  1  0
 25 26  2  0
 25 27  1  0
 26 29  1  0
 27 28  2  0
 28 29  1  0
 30 29  1  1
 30 31  1  0
 31 32  1  6
 32 33  1  0
 33 34  1  0
 33 42  2  0
 35 34  1  1
 34 39  2  0
 36 35  1  1
 36 37  1  0
 37 38  1  6
 38 39  1  6
 39 40  1  0
 40 41  2  0
 41 42  1  0
 41 46  1  0
 42 43  1  0
 43 44  2  0
 44 45  1  0
 45 46  2  0
M  END
$$$$
