
     RDKit          3D

 46 53  0  0  0  0  0  0  0  0999 V2000
   -9.8501  223.1070   75.9972 O   0  0  0  0  0  0  0  0  0  0  0  0
  -10.2377  222.2757   76.8522 C   0  0  0  0  0  0  0  0  0  0  0  0
  -11.3356  222.4547   77.7248 N   0  0  0  0  0  0  0  0  0  0  0  0
  -12.2841  223.5265   77.9162 C   0  0  0  0  0  0  0  0  0  0  0  0
  -13.6670  222.9643   77.6567 C   0  0  0  0  0  0  0  0  0  0  0  0
  -13.6365  221.4840   77.3536 C   0  0  0  0  0  0  0  0  0  0  0  0
  -12.8345  220.7009   78.3688 C   0  0  0  0  0  0  0  0  0  0  0  0
  -11.4468  221.2771   78.5461 C   0  0  1  0  0  0  0  0  0  0  0  0
  -10.3765  220.3481   78.1549 C   0  0  0  0  0  0  0  0  0  0  0  0
   -9.6659  220.9681   77.1401 C   0  0  0  0  0  0  0  0  0  0  0  0
   -8.5900  220.3268   76.5688 C   0  0  0  0  0  0  0  0  0  0  0  0
   -8.2340  219.0764   77.0141 C   0  0  0  0  0  0  0  0  0  0  0  0
   -8.9517  218.4714   78.0260 C   0  0  0  0  0  0  0  0  0  0  0  0
  -10.0360  219.0911   78.6180 C   0  0  0  0  0  0  0  0  0  0  0  0
  -10.7715  218.4631   79.6601 N   0  0  0  0  0  0  0  0  0  0  0  0
  -10.2048  217.4543   80.4650 C   0  0  0  0  0  0  0  0  0  0  0  0
   -9.1469  216.8998   80.0810 O   0  0  0  0  0  0  0  0  0  0  0  0
  -10.7929  217.0384   81.7071 N   0  0  0  0  0  0  0  0  0  0  0  0
  -10.5853  215.7011   82.1358 C   0  0  0  0  0  0  0  0  0  0  0  0
   -9.3368  215.2807   82.5420 C   0  0  0  0  0  0  0  0  0  0  0  0
  -11.5789  214.7985   82.1659 N   0  0  0  0  0  0  0  0  0  0  0  0
  -11.3752  213.5224   82.5771 C   0  0  0  0  0  0  0  0  0  0  0  0
  -10.1332  213.0803   82.9880 C   0  0  0  0  0  0  0  0  0  0  0  0
   -9.0964  213.9875   82.9664 C   0  0  0  0  0  0  0  0  0  0  0  0
   -7.7585  213.5831   83.3885 C   0  0  0  0  0  0  0  0  0  0  0  0
   -7.4193  212.3486   83.8607 C   0  0  0  0  0  0  0  0  0  0  0  0
   -6.6479  214.3434   83.3854 N   0  0  0  0  0  0  0  0  0  0  0  0
   -5.6887  213.5765   83.8419 N   0  0  0  0  0  0  0  0  0  0  0  0
   -6.0860  212.3739   84.1432 N   0  0  0  0  0  0  0  0  0  0  0  0
   -5.3472  211.2341   84.6770 C   0  0  0  0  0  0  0  0  0  0  0  0
   -4.9374  210.3440   83.5535 C   0  0  0  0  0  0  0  0  0  0  0  0
   -4.6485  211.0092   82.3344 N   0  0  0  0  0  0  0  0  0  0  0  0
   -3.3097  211.1399   81.8760 C   0  0  0  0  0  0  0  0  0  0  0  0
   -3.1473  211.2567   80.4887 C   0  0  0  0  0  0  0  0  0  0  0  0
   -4.3208  211.2377   79.5655 C   0  0  0  0  0  0  0  0  0  0  0  0
   -4.0500  210.2418   78.4854 C   0  0  0  0  0  0  0  0  0  0  0  0
   -2.6815  210.3247   77.8902 C   0  0  0  0  0  0  0  0  0  0  0  0
   -1.8785  211.5081   78.4160 C   0  0  0  0  0  0  0  0  0  0  0  0
   -1.9098  211.3939   79.9066 C   0  0  0  0  0  0  0  0  0  0  0  0
   -0.8187  211.4187   80.6708 N   0  0  0  0  0  0  0  0  0  0  0  0
   -0.9406  211.3091   82.0162 C   0  0  0  0  0  0  0  0  0  0  0  0
   -2.1888  211.1686   82.6369 C   0  0  0  0  0  0  0  0  0  0  0  0
   -2.2974  211.0730   83.9961 C   0  0  0  0  0  0  0  0  0  0  0  0
   -1.1693  211.1110   84.7875 C   0  0  0  0  0  0  0  0  0  0  0  0
    0.0808  211.2472   84.2068 C   0  0  0  0  0  0  0  0  0  0  0  0
    0.1645  211.3428   82.8402 C   0  0  0  0  0  0  0  0  0  0  0  0
  1  2  2  0
  2  3  1  0
  2 10  1  0
  4  3  1  1
  3  8  1  0
  5  4  1  1
  6  5  1  1
  6  7  1  0
  7  8  1  6
  8  9  1  6
  9 10  2  0
  9 14  1  0
 10 11  1  0
 11 12  2  0
 12 13  1  0
 13 14  2  0
 14 15  1  0
 15 16  1  0
 16 17  2  0
 16 18  1  0
 18 19  1  0
 19 20  2  0
 19 21  1  0
 20 24  1  0
 21 22  2  0
 22 23  1  0
 23 24  2  0
 24 25  1  0
 25 26  2  0
 25 27  1  0
 26 29  1  0
 27 28  2  0
 28 29  1  0
 30 29  1  1
 30 31  1  0
 31 32  1  6
 32 33  1  0
 33 34  1  0
 33 42  2  0
 35 34  1  1
 34 39  2  0
 36 35  1  1
 36 37  1  0
 37 38  1  6
 38 39  1  6
 39 40  1  0
 40 41  2  0
 41 42  1  0
 41 46  1  0
 42 43  1  0
 43 44  2  0
 44 45  1  0
 45 46  2  0
M  END
$$$$
