
     RDKit          3D

 46 53  0  0  0  0  0  0  0  0999 V2000
  -15.6616  224.6461   78.3867 O   0  0  0  0  0  0  0  0  0  0  0  0
  -14.7403  223.8373   78.6157 C   0  0  0  0  0  0  0  0  0  0  0  0
  -13.6579  223.5532   77.7832 N   0  0  0  0  0  0  0  0  0  0  0  0
  -13.2965  224.0179   76.4650 C   0  0  0  0  0  0  0  0  0  0  0  0
  -11.9301  224.6727   76.5462 C   0  0  0  0  0  0  0  0  0  0  0  0
  -10.9447  223.9257   77.3813 C   0  0  0  0  0  0  0  0  0  0  0  0
  -11.4935  223.4273   78.6992 C   0  0  0  0  0  0  0  0  0  0  0  0
  -12.7770  222.6181   78.4369 C   0  0  1  0  0  0  0  0  0  0  0  0
  -13.4425  222.2514   79.6821 C   0  0  0  0  0  0  0  0  0  0  0  0
  -14.5900  223.0119   79.8003 C   0  0  0  0  0  0  0  0  0  0  0  0
  -15.4090  222.8968   80.9054 C   0  0  0  0  0  0  0  0  0  0  0  0
  -15.0736  222.0113   81.8973 C   0  0  0  0  0  0  0  0  0  0  0  0
  -13.9071  221.2452   81.7615 C   0  0  0  0  0  0  0  0  0  0  0  0
  -13.0816  221.3413   80.6791 C   0  0  0  0  0  0  0  0  0  0  0  0
  -11.9185  220.5696   80.4883 N   0  0  0  0  0  0  0  0  0  0  0  0
  -11.8435  219.1720   80.4054 C   0  0  0  0  0  0  0  0  0  0  0  0
  -12.7501  218.5059   79.9101 O   0  0  0  0  0  0  0  0  0  0  0  0
  -10.7111  218.4246   80.8895 N   0  0  0  0  0  0  0  0  0  0  0  0
  -10.1123  217.4069   80.1034 C   0  0  0  0  0  0  0  0  0  0  0  0
   -8.9577  216.7633   80.4849 C   0  0  0  0  0  0  0  0  0  0  0  0
  -10.6909  217.0414   78.9218 N   0  0  0  0  0  0  0  0  0  0  0  0
  -10.1660  216.0862   78.1408 C   0  0  0  0  0  0  0  0  0  0  0  0
   -9.0084  215.4576   78.5475 C   0  0  0  0  0  0  0  0  0  0  0  0
   -8.3718  215.7740   79.7243 C   0  0  0  0  0  0  0  0  0  0  0  0
   -7.1552  215.0900   80.1171 C   0  0  0  0  0  0  0  0  0  0  0  0
   -6.3733  215.3492   81.2223 C   0  0  0  0  0  0  0  0  0  0  0  0
   -6.5337  214.0695   79.4977 N   0  0  0  0  0  0  0  0  0  0  0  0
   -5.4481  213.7393   80.1891 N   0  0  0  0  0  0  0  0  0  0  0  0
   -5.3247  214.5113   81.2564 N   0  0  0  0  0  0  0  0  0  0  0  0
   -4.2500  214.4590   82.2777 C   0  0  0  0  0  0  0  0  0  0  0  0
   -4.2734  213.0736   82.8603 C   0  0  0  0  0  0  0  0  0  0  0  0
   -3.0485  212.3580   82.8743 N   0  0  0  0  0  0  0  0  0  0  0  0
   -2.9146  210.9932   82.4930 C   0  0  0  0  0  0  0  0  0  0  0  0
   -1.9398  210.1670   83.0571 C   0  0  0  0  0  0  0  0  0  0  0  0
   -1.0526  210.7493   84.0741 C   0  0  0  0  0  0  0  0  0  0  0  0
    0.1093  209.8870   84.4479 C   0  0  0  0  0  0  0  0  0  0  0  0
    0.4155  208.8541   83.4131 C   0  0  0  0  0  0  0  0  0  0  0  0
   -0.8072  207.9446   83.2222 C   0  0  0  0  0  0  0  0  0  0  0  0
   -1.8584  208.8585   82.6400 C   0  0  0  0  0  0  0  0  0  0  0  0
   -2.7059  208.3941   81.7072 N   0  0  0  0  0  0  0  0  0  0  0  0
   -3.6624  209.1626   81.1358 C   0  0  0  0  0  0  0  0  0  0  0  0
   -3.7627  210.4876   81.5405 C   0  0  0  0  0  0  0  0  0  0  0  0
   -4.7175  211.2829   80.9474 C   0  0  0  0  0  0  0  0  0  0  0  0
   -5.5499  210.7801   79.9863 C   0  0  0  0  0  0  0  0  0  0  0  0
   -5.4462  209.4628   79.5916 C   0  0  0  0  0  0  0  0  0  0  0  0
   -4.4981  208.6422   80.1657 C   0  0  0  0  0  0  0  0  0  0  0  0
  1  2  2  0
  2  3  1  0
  2 10  1  0
  3  4  1  0
  3  8  1  0
  4  5  1  0
  5  6  1  0
  6  7  1  0
  8  7  1  1
  8  9  1  0
  9 10  2  0
  9 14  1  0
 10 11  1  0
 11 12  2  0
 12 13  1  0
 13 14  2  0
 14 15  1  0
 15 16  1  0
 16 17  2  0
 16 18  1  0
 18 19  1  0
 19 20  2  0
 19 21  1  0
 20 24  1  0
 21 22  2  0
 22 23  1  0
 23 24  2  0
 24 25  1  0
 25 26  2  0
 25 27  1  0
 26 29  1  0
 27 28  2  0
 28 29  1  0
 29 30  1  0
 30 31  1  0
 31 32  1  0
 32 33  1  0
 33 34  1  0
 33 42  2  0
 34 35  1  0
 34 39  2  0
 35 36  1  0
 36 37  1  0
 37 38  1  0
 38 39  1  0
 39 40  1  0
 40 41  2  0
 41 42  1  0
 41 46  1  0
 42 43  1  0
 43 44  2  0
 44 45  1  0
 45 46  2  0
M  END
$$$$
