
     RDKit          3D

 46 53  0  0  0  0  0  0  0  0999 V2000
  -14.7306  222.7877   80.6175 O   0  0  0  0  0  0  0  0  0  0  0  0
  -13.8490  222.0455   80.1406 C   0  0  0  0  0  0  0  0  0  0  0  0
  -13.5787  221.8395   78.7878 N   0  0  0  0  0  0  0  0  0  0  0  0
  -14.2077  222.3302   77.5846 C   0  0  0  0  0  0  0  0  0  0  0  0
  -13.1680  223.0796   76.7724 C   0  0  0  0  0  0  0  0  0  0  0  0
  -11.8396  222.4030   76.7094 C   0  0  0  0  0  0  0  0  0  0  0  0
  -11.3489  221.8655   78.0348 C   0  0  0  0  0  0  0  0  0  0  0  0
  -12.4389  220.9681   78.6493 C   0  0  1  0  0  0  0  0  0  0  0  0
  -12.0905  220.5538   80.0039 C   0  0  0  0  0  0  0  0  0  0  0  0
  -12.9080  221.2313   80.8880 C   0  0  0  0  0  0  0  0  0  0  0  0
  -12.7801  221.0574   82.2513 C   0  0  0  0  0  0  0  0  0  0  0  0
  -11.8257  220.1965   82.7292 C   0  0  0  0  0  0  0  0  0  0  0  0
  -11.0053  219.5148   81.8191 C   0  0  0  0  0  0  0  0  0  0  0  0
  -11.1123  219.6702   80.4676 C   0  0  0  0  0  0  0  0  0  0  0  0
  -10.3307  218.9828   79.5184 N   0  0  0  0  0  0  0  0  0  0  0  0
   -9.4235  217.9444   79.7727 C   0  0  0  0  0  0  0  0  0  0  0  0
   -9.7849  216.8795   80.2690 O   0  0  0  0  0  0  0  0  0  0  0  0
   -8.0181  218.0498   79.4738 N   0  0  0  0  0  0  0  0  0  0  0  0
   -7.3317  217.0109   78.7945 C   0  0  0  0  0  0  0  0  0  0  0  0
   -6.9250  215.8587   79.4270 C   0  0  0  0  0  0  0  0  0  0  0  0
   -7.0568  217.1441   77.4636 N   0  0  0  0  0  0  0  0  0  0  0  0
   -6.4105  216.1928   76.7742 C   0  0  0  0  0  0  0  0  0  0  0  0
   -6.0145  215.0485   77.4332 C   0  0  0  0  0  0  0  0  0  0  0  0
   -6.2574  214.8465   78.7713 C   0  0  0  0  0  0  0  0  0  0  0  0
   -5.8243  213.6289   79.4286 C   0  0  0  0  0  0  0  0  0  0  0  0
   -6.4853  212.9372   80.4209 C   0  0  0  0  0  0  0  0  0  0  0  0
   -4.6999  212.9200   79.2169 N   0  0  0  0  0  0  0  0  0  0  0  0
   -4.6893  211.8705   80.0317 N   0  0  0  0  0  0  0  0  0  0  0  0
   -5.7770  211.8560   80.7846 N   0  0  0  0  0  0  0  0  0  0  0  0
   -6.1371  210.8519   81.8155 C   0  0  0  0  0  0  0  0  0  0  0  0
   -5.2042  211.0673   82.9742 C   0  0  0  0  0  0  0  0  0  0  0  0
   -3.8769  211.4648   82.6697 N   0  0  0  0  0  0  0  0  0  0  0  0
   -2.7186  210.9482   83.3159 C   0  0  0  0  0  0  0  0  0  0  0  0
   -1.5986  210.5339   82.5913 C   0  0  0  0  0  0  0  0  0  0  0  0
   -1.6455  210.6568   81.1273 C   0  0  0  0  0  0  0  0  0  0  0  0
   -0.5246  209.9733   80.4133 C   0  0  0  0  0  0  0  0  0  0  0  0
    0.1351  208.9251   81.2483 C   0  0  0  0  0  0  0  0  0  0  0  0
    0.7068  209.5701   82.5195 C   0  0  0  0  0  0  0  0  0  0  0  0
   -0.5134  210.0374   83.2757 C   0  0  0  0  0  0  0  0  0  0  0  0
   -0.5407  209.9572   84.6162 N   0  0  0  0  0  0  0  0  0  0  0  0
   -1.6066  210.3465   85.3539 C   0  0  0  0  0  0  0  0  0  0  0  0
   -2.7145  210.8502   84.6842 C   0  0  0  0  0  0  0  0  0  0  0  0
   -3.8123  211.2268   85.4253 C   0  0  0  0  0  0  0  0  0  0  0  0
   -3.8109  211.1118   86.7877 C   0  0  0  0  0  0  0  0  0  0  0  0
   -2.7063  210.6135   87.4458 C   0  0  0  0  0  0  0  0  0  0  0  0
   -1.5926  210.2260   86.7307 C   0  0  0  0  0  0  0  0  0  0  0  0
  1  2  2  0
  2  3  1  0
  2 10  1  0
  3  4  1  0
  3  8  1  0
  4  5  1  0
  5  6  1  0
  6  7  1  0
  8  7  1  1
  8  9  1  0
  9 10  2  0
  9 14  1  0
 10 11  1  0
 11 12  2  0
 12 13  1  0
 13 14  2  0
 14 15  1  0
 15 16  1  0
 16 17  2  0
 16 18  1  0
 18 19  1  0
 19 20  2  0
 19 21  1  0
 20 24  1  0
 21 22  2  0
 22 23  1  0
 23 24  2  0
 24 25  1  0
 25 26  2  0
 25 27  1  0
 26 29  1  0
 27 28  2  0
 28 29  1  0
 29 30  1  0
 30 31  1  0
 31 32  1  0
 32 33  1  0
 33 34  1  0
 33 42  2  0
 34 35  1  0
 34 39  2  0
 35 36  1  0
 36 37  1  0
 37 38  1  0
 38 39  1  0
 39 40  1  0
 40 41  2  0
 41 42  1  0
 41 46  1  0
 42 43  1  0
 43 44  2  0
 44 45  1  0
 45 46  2  0
M  END
$$$$
