
     RDKit          3D

 46 53  0  0  0  0  0  0  0  0999 V2000
  -13.6260  225.0337   79.7071 O   0  0  0  0  0  0  0  0  0  0  0  0
  -13.1889  223.8941   79.9636 C   0  0  0  0  0  0  0  0  0  0  0  0
  -13.2459  223.2398   81.1941 N   0  0  0  0  0  0  0  0  0  0  0  0
  -13.7381  223.6450   82.4893 C   0  0  0  0  0  0  0  0  0  0  0  0
  -14.8196  222.6703   82.9167 C   0  0  0  0  0  0  0  0  0  0  0  0
  -14.4930  221.2398   82.6455 C   0  0  0  0  0  0  0  0  0  0  0  0
  -13.9057  220.9820   81.2763 C   0  0  0  0  0  0  0  0  0  0  0  0
  -12.6981  221.9130   81.0624 C   0  0  1  0  0  0  0  0  0  0  0  0
  -12.1913  221.8277   79.6973 C   0  0  0  0  0  0  0  0  0  0  0  0
  -12.5240  222.9953   79.0378 C   0  0  0  0  0  0  0  0  0  0  0  0
  -12.1947  223.1812   77.7102 C   0  0  0  0  0  0  0  0  0  0  0  0
  -11.5261  222.1881   77.0415 C   0  0  0  0  0  0  0  0  0  0  0  0
  -11.1938  221.0100   77.7253 C   0  0  0  0  0  0  0  0  0  0  0  0
  -11.5085  220.8028   79.0369 C   0  0  0  0  0  0  0  0  0  0  0  0
  -11.1669  219.6490   79.7695 N   0  0  0  0  0  0  0  0  0  0  0  0
  -10.1832  218.7063   79.4389 C   0  0  0  0  0  0  0  0  0  0  0  0
   -9.5915  218.7422   78.3621 O   0  0  0  0  0  0  0  0  0  0  0  0
   -9.7994  217.6395   80.3279 N   0  0  0  0  0  0  0  0  0  0  0  0
   -8.9543  216.5874   79.8908 C   0  0  0  0  0  0  0  0  0  0  0  0
   -8.5478  215.5723   80.7259 C   0  0  0  0  0  0  0  0  0  0  0  0
   -8.5195  216.5672   78.5965 N   0  0  0  0  0  0  0  0  0  0  0  0
   -7.7193  215.5965   78.1324 C   0  0  0  0  0  0  0  0  0  0  0  0
   -7.3275  214.5917   78.9910 C   0  0  0  0  0  0  0  0  0  0  0  0
   -7.7264  214.5480   80.3060 C   0  0  0  0  0  0  0  0  0  0  0  0
   -7.2922  213.4740   81.1780 C   0  0  0  0  0  0  0  0  0  0  0  0
   -6.7099  212.2817   80.8049 C   0  0  0  0  0  0  0  0  0  0  0  0
   -7.3625  213.4080   82.5204 N   0  0  0  0  0  0  0  0  0  0  0  0
   -6.8542  212.2488   82.9246 N   0  0  0  0  0  0  0  0  0  0  0  0
   -6.4445  211.5350   81.8889 N   0  0  0  0  0  0  0  0  0  0  0  0
   -5.8208  210.1894   81.9214 C   0  0  0  0  0  0  0  0  0  0  0  0
   -4.7238  210.2453   82.9475 C   0  0  0  0  0  0  0  0  0  0  0  0
   -3.8675  211.3759   82.9167 N   0  0  0  0  0  0  0  0  0  0  0  0
   -2.4531  211.3048   82.7731 C   0  0  0  0  0  0  0  0  0  0  0  0
   -1.7308  212.3102   82.1262 C   0  0  0  0  0  0  0  0  0  0  0  0
   -2.4784  213.4615   81.6007 C   0  0  0  0  0  0  0  0  0  0  0  0
   -1.6815  214.3646   80.7160 C   0  0  0  0  0  0  0  0  0  0  0  0
   -0.4670  213.6978   80.1576 C   0  0  0  0  0  0  0  0  0  0  0  0
    0.4404  213.2421   81.3098 C   0  0  0  0  0  0  0  0  0  0  0  0
   -0.3659  212.1780   82.0146 C   0  0  0  0  0  0  0  0  0  0  0  0
    0.2507  211.0982   82.5223 N   0  0  0  0  0  0  0  0  0  0  0  0
   -0.4133  210.1024   83.1544 C   0  0  0  0  0  0  0  0  0  0  0  0
   -1.7923  210.2137   83.2780 C   0  0  0  0  0  0  0  0  0  0  0  0
   -2.4785  209.1940   83.8988 C   0  0  0  0  0  0  0  0  0  0  0  0
   -1.8185  208.1001   84.3857 C   0  0  0  0  0  0  0  0  0  0  0  0
   -0.4489  207.9979   84.2618 C   0  0  0  0  0  0  0  0  0  0  0  0
    0.2656  209.0020   83.6429 C   0  0  0  0  0  0  0  0  0  0  0  0
  1  2  2  0
  2  3  1  0
  2 10  1  0
  3  4  1  0
  3  8  1  0
  4  5  1  0
  5  6  1  0
  6  7  1  0
  8  7  1  6
  8  9  1  0
  9 10  2  0
  9 14  1  0
 10 11  1  0
 11 12  2  0
 12 13  1  0
 13 14  2  0
 14 15  1  0
 15 16  1  0
 16 17  2  0
 16 18  1  0
 18 19  1  0
 19 20  2  0
 19 21  1  0
 20 24  1  0
 21 22  2  0
 22 23  1  0
 23 24  2  0
 24 25  1  0
 25 26  2  0
 25 27  1  0
 26 29  1  0
 27 28  2  0
 28 29  1  0
 29 30  1  0
 30 31  1  0
 31 32  1  0
 32 33  1  0
 33 34  1  0
 33 42  2  0
 34 35  1  0
 34 39  2  0
 35 36  1  0
 36 37  1  0
 37 38  1  0
 38 39  1  0
 39 40  1  0
 40 41  2  0
 41 42  1  0
 41 46  1  0
 42 43  1  0
 43 44  2  0
 44 45  1  0
 45 46  2  0
M  END
$$$$
