
     RDKit          3D

 46 53  0  0  0  0  0  0  0  0999 V2000
  -12.0662  224.3357   74.9230 O   0  0  0  0  0  0  0  0  0  0  0  0
  -11.9904  223.2783   75.5800 C   0  0  0  0  0  0  0  0  0  0  0  0
  -13.0124  222.3512   75.7831 N   0  0  0  0  0  0  0  0  0  0  0  0
  -14.3993  222.3290   75.3825 C   0  0  0  0  0  0  0  0  0  0  0  0
  -14.6361  221.0852   74.5463 C   0  0  0  0  0  0  0  0  0  0  0  0
  -13.9846  219.8554   75.0845 C   0  0  0  0  0  0  0  0  0  0  0  0
  -12.5577  220.0544   75.5434 C   0  0  0  0  0  0  0  0  0  0  0  0
  -12.5068  221.2306   76.5358 C   0  0  1  0  0  0  0  0  0  0  0  0
  -11.1337  221.5765   76.8862 C   0  0  0  0  0  0  0  0  0  0  0  0
  -10.8209  222.7776   76.2792 C   0  0  0  0  0  0  0  0  0  0  0  0
   -9.5661  223.3369   76.4130 C   0  0  0  0  0  0  0  0  0  0  0  0
   -8.6200  222.6859   77.1623 C   0  0  0  0  0  0  0  0  0  0  0  0
   -8.9536  221.4689   77.7738 C   0  0  0  0  0  0  0  0  0  0  0  0
  -10.1866  220.8961   77.6560 C   0  0  0  0  0  0  0  0  0  0  0  0
  -10.5727  219.6925   78.2779 N   0  0  0  0  0  0  0  0  0  0  0  0
  -10.7865  219.4875   79.6484 C   0  0  0  0  0  0  0  0  0  0  0  0
  -11.9140  219.5188   80.1369 O   0  0  0  0  0  0  0  0  0  0  0  0
   -9.7118  219.2283   80.5721 N   0  0  0  0  0  0  0  0  0  0  0  0
   -9.7291  218.0901   81.4184 C   0  0  0  0  0  0  0  0  0  0  0  0
   -8.6933  217.1853   81.4593 C   0  0  0  0  0  0  0  0  0  0  0  0
  -10.8063  217.8700   82.2282 N   0  0  0  0  0  0  0  0  0  0  0  0
  -10.8736  216.8098   83.0464 C   0  0  0  0  0  0  0  0  0  0  0  0
   -9.8215  215.9193   83.0671 C   0  0  0  0  0  0  0  0  0  0  0  0
   -8.7056  216.0775   82.2796 C   0  0  0  0  0  0  0  0  0  0  0  0
   -7.6197  215.1182   82.3298 C   0  0  0  0  0  0  0  0  0  0  0  0
   -7.4077  214.1489   83.2867 C   0  0  0  0  0  0  0  0  0  0  0  0
   -6.5976  214.9677   81.4672 N   0  0  0  0  0  0  0  0  0  0  0  0
   -5.8231  213.9710   81.8823 N   0  0  0  0  0  0  0  0  0  0  0  0
   -6.2984  213.4485   83.0009 N   0  0  0  0  0  0  0  0  0  0  0  0
   -5.7234  212.3218   83.7760 C   0  0  0  0  0  0  0  0  0  0  0  0
   -4.7273  211.6426   82.8783 C   0  0  0  0  0  0  0  0  0  0  0  0
   -4.8766  210.2447   82.6886 N   0  0  0  0  0  0  0  0  0  0  0  0
   -3.8261  209.3759   82.2789 C   0  0  0  0  0  0  0  0  0  0  0  0
   -4.0866  208.1626   81.6380 C   0  0  0  0  0  0  0  0  0  0  0  0
   -5.4907  207.8080   81.3862 C   0  0  0  0  0  0  0  0  0  0  0  0
   -5.7003  206.4017   80.9261 C   0  0  0  0  0  0  0  0  0  0  0  0
   -4.5508  205.5090   81.2625 C   0  0  0  0  0  0  0  0  0  0  0  0
   -3.2768  206.0421   80.5906 C   0  0  0  0  0  0  0  0  0  0  0  0
   -3.0265  207.3650   81.2736 C   0  0  0  0  0  0  0  0  0  0  0  0
   -1.7680  207.7557   81.5338 N   0  0  0  0  0  0  0  0  0  0  0  0
   -1.4743  208.9224   82.1538 C   0  0  0  0  0  0  0  0  0  0  0  0
   -2.5289  209.7437   82.5320 C   0  0  0  0  0  0  0  0  0  0  0  0
   -2.2402  210.9214   83.1843 C   0  0  0  0  0  0  0  0  0  0  0  0
   -0.9468  211.2766   83.4500 C   0  0  0  0  0  0  0  0  0  0  0  0
    0.0950  210.4575   83.0689 C   0  0  0  0  0  0  0  0  0  0  0  0
   -0.1627  209.2704   82.4159 C   0  0  0  0  0  0  0  0  0  0  0  0
  1  2  2  0
  2  3  1  0
  2 10  1  0
  3  4  1  0
  3  8  1  0
  4  5  1  0
  5  6  1  0
  6  7  1  0
  8  7  1  6
  8  9  1  0
  9 10  2  0
  9 14  1  0
 10 11  1  0
 11 12  2  0
 12 13  1  0
 13 14  2  0
 14 15  1  0
 15 16  1  0
 16 17  2  0
 16 18  1  0
 18 19  1  0
 19 20  2  0
 19 21  1  0
 20 24  1  0
 21 22  2  0
 22 23  1  0
 23 24  2  0
 24 25  1  0
 25 26  2  0
 25 27  1  0
 26 29  1  0
 27 28  2  0
 28 29  1  0
 29 30  1  0
 30 31  1  0
 31 32  1  0
 32 33  1  0
 33 34  1  0
 33 42  2  0
 34 35  1  0
 34 39  2  0
 35 36  1  0
 36 37  1  0
 37 38  1  0
 38 39  1  0
 39 40  1  0
 40 41  2  0
 41 42  1  0
 41 46  1  0
 42 43  1  0
 43 44  2  0
 44 45  1  0
 45 46  2  0
M  END
$$$$
