
     RDKit          3D

 46 53  0  0  0  0  0  0  0  0999 V2000
  -15.2507  224.4404   80.4719 O   0  0  0  0  0  0  0  0  0  0  0  0
  -14.4444  223.4972   80.5974 C   0  0  0  0  0  0  0  0  0  0  0  0
  -14.0747  222.8731   81.7888 N   0  0  0  0  0  0  0  0  0  0  0  0
  -14.4274  223.1206   83.1666 C   0  0  0  0  0  0  0  0  0  0  0  0
  -15.0597  221.8626   83.7323 C   0  0  0  0  0  0  0  0  0  0  0  0
  -14.3614  220.6021   83.3451 C   0  0  0  0  0  0  0  0  0  0  0  0
  -13.9787  220.5233   81.8844 C   0  0  0  0  0  0  0  0  0  0  0  0
  -13.1768  221.7818   81.5050 C   0  0  1  0  0  0  0  0  0  0  0  0
  -12.9220  221.8418   80.0700 C   0  0  0  0  0  0  0  0  0  0  0  0
  -13.7117  222.8392   79.5310 C   0  0  0  0  0  0  0  0  0  0  0  0
  -13.6997  223.1021   78.1759 C   0  0  0  0  0  0  0  0  0  0  0  0
  -12.8884  222.3588   77.3576 C   0  0  0  0  0  0  0  0  0  0  0  0
  -12.0913  221.3516   77.9201 C   0  0  0  0  0  0  0  0  0  0  0  0
  -12.0860  221.0729   79.2559 C   0  0  0  0  0  0  0  0  0  0  0  0
  -11.2791  220.0924   79.8659 N   0  0  0  0  0  0  0  0  0  0  0  0
  -10.4015  219.2088   79.2217 C   0  0  0  0  0  0  0  0  0  0  0  0
   -9.6922  219.5724   78.2860 O   0  0  0  0  0  0  0  0  0  0  0  0
  -10.2696  217.8267   79.6061 N   0  0  0  0  0  0  0  0  0  0  0  0
   -8.9981  217.2016   79.6746 C   0  0  0  0  0  0  0  0  0  0  0  0
   -8.7586  216.1015   80.4654 C   0  0  0  0  0  0  0  0  0  0  0  0
   -7.9634  217.6981   78.9347 N   0  0  0  0  0  0  0  0  0  0  0  0
   -6.7420  217.1456   78.9632 C   0  0  0  0  0  0  0  0  0  0  0  0
   -6.5301  216.0439   79.7644 C   0  0  0  0  0  0  0  0  0  0  0  0
   -7.5248  215.4907   80.5358 C   0  0  0  0  0  0  0  0  0  0  0  0
   -7.2619  214.3315   81.3660 C   0  0  0  0  0  0  0  0  0  0  0  0
   -6.2360  214.1711   82.2724 C   0  0  0  0  0  0  0  0  0  0  0  0
   -7.9512  213.1772   81.4312 N   0  0  0  0  0  0  0  0  0  0  0  0
   -7.3734  212.3770   82.3207 N   0  0  0  0  0  0  0  0  0  0  0  0
   -6.3145  212.9636   82.8544 N   0  0  0  0  0  0  0  0  0  0  0  0
   -5.4051  212.4018   83.8829 C   0  0  0  0  0  0  0  0  0  0  0  0
   -5.1274  210.9792   83.4848 C   0  0  0  0  0  0  0  0  0  0  0  0
   -4.2178  210.7733   82.4159 N   0  0  0  0  0  0  0  0  0  0  0  0
   -3.5893  209.5290   82.1282 C   0  0  0  0  0  0  0  0  0  0  0  0
   -2.2097  209.3567   82.2620 C   0  0  0  0  0  0  0  0  0  0  0  0
   -1.4169  210.5055   82.7229 C   0  0  0  0  0  0  0  0  0  0  0  0
    0.0618  210.3229   82.6064 C   0  0  0  0  0  0  0  0  0  0  0  0
    0.4344  209.2533   81.6325 C   0  0  0  0  0  0  0  0  0  0  0  0
   -0.1736  207.9173   82.0843 C   0  0  0  0  0  0  0  0  0  0  0  0
   -1.6631  208.1304   81.9614 C   0  0  0  0  0  0  0  0  0  0  0  0
   -2.4508  207.1241   81.5481 N   0  0  0  0  0  0  0  0  0  0  0  0
   -3.7906  207.2514   81.4043 C   0  0  0  0  0  0  0  0  0  0  0  0
   -4.3647  208.4810   81.7011 C   0  0  0  0  0  0  0  0  0  0  0  0
   -5.7239  208.6262   81.5351 C   0  0  0  0  0  0  0  0  0  0  0  0
   -6.4911  207.5843   81.0929 C   0  0  0  0  0  0  0  0  0  0  0  0
   -5.9145  206.3657   80.8031 C   0  0  0  0  0  0  0  0  0  0  0  0
   -4.5553  206.1904   80.9573 C   0  0  0  0  0  0  0  0  0  0  0  0
  1  2  2  0
  2  3  1  0
  2 10  1  0
  3  4  1  0
  3  8  1  0
  4  5  1  0
  5  6  1  0
  6  7  1  0
  8  7  1  6
  8  9  1  0
  9 10  2  0
  9 14  1  0
 10 11  1  0
 11 12  2  0
 12 13  1  0
 13 14  2  0
 14 15  1  0
 15 16  1  0
 16 17  2  0
 16 18  1  0
 18 19  1  0
 19 20  2  0
 19 21  1  0
 20 24  1  0
 21 22  2  0
 22 23  1  0
 23 24  2  0
 24 25  1  0
 25 26  2  0
 25 27  1  0
 26 29  1  0
 27 28  2  0
 28 29  1  0
 29 30  1  0
 30 31  1  0
 31 32  1  0
 32 33  1  0
 33 34  1  0
 33 42  2  0
 34 35  1  0
 34 39  2  0
 35 36  1  0
 36 37  1  0
 37 38  1  0
 38 39  1  0
 39 40  1  0
 40 41  2  0
 41 42  1  0
 41 46  1  0
 42 43  1  0
 43 44  2  0
 44 45  1  0
 45 46  2  0
M  END
$$$$
