
     RDKit          3D

 46 53  0  0  0  0  0  0  0  0999 V2000
  -16.3571  222.2307   82.6214 O   0  0  0  0  0  0  0  0  0  0  0  0
  -15.5102  221.3180   82.4721 C   0  0  0  0  0  0  0  0  0  0  0  0
  -15.5499  220.0564   83.1090 N   0  0  0  0  0  0  0  0  0  0  0  0
  -16.4679  219.4461   84.0417 C   0  0  0  0  0  0  0  0  0  0  0  0
  -17.0126  218.1908   83.3912 C   0  0  0  0  0  0  0  0  0  0  0  0
  -16.3957  217.9334   82.0357 C   0  0  0  0  0  0  0  0  0  0  0  0
  -14.8853  218.0066   82.0630 C   0  0  0  0  0  0  0  0  0  0  0  0
  -14.4020  219.3033   82.6745 C   0  0  1  0  0  0  0  0  0  0  0  0
  -13.6385  220.1399   81.7371 C   0  0  0  0  0  0  0  0  0  0  0  0
  -14.3210  221.3408   81.6326 C   0  0  0  0  0  0  0  0  0  0  0  0
  -13.8345  222.3343   80.8131 C   0  0  0  0  0  0  0  0  0  0  0  0
  -12.6747  222.1209   80.1075 C   0  0  0  0  0  0  0  0  0  0  0  0
  -12.0058  220.9191   80.2218 C   0  0  0  0  0  0  0  0  0  0  0  0
  -12.4705  219.9040   81.0366 C   0  0  0  0  0  0  0  0  0  0  0  0
  -11.7771  218.6680   81.1505 N   0  0  0  0  0  0  0  0  0  0  0  0
  -10.4983  218.4797   80.5887 C   0  0  0  0  0  0  0  0  0  0  0  0
   -9.9817  219.4191   79.9370 O   0  0  0  0  0  0  0  0  0  0  0  0
   -9.7656  217.2534   80.7344 N   0  0  0  0  0  0  0  0  0  0  0  0
   -8.6331  217.0432   79.9047 C   0  0  0  0  0  0  0  0  0  0  0  0
   -7.9958  215.8209   79.8843 C   0  0  0  0  0  0  0  0  0  0  0  0
   -8.1383  218.0088   79.1137 N   0  0  0  0  0  0  0  0  0  0  0  0
   -7.0565  217.8024   78.3224 C   0  0  0  0  0  0  0  0  0  0  0  0
   -6.4032  216.5862   78.2865 C   0  0  0  0  0  0  0  0  0  0  0  0
   -6.8915  215.5786   79.0894 C   0  0  0  0  0  0  0  0  0  0  0  0
   -6.2459  214.2690   79.0977 C   0  0  0  0  0  0  0  0  0  0  0  0
   -5.1668  213.9162   78.3407 C   0  0  0  0  0  0  0  0  0  0  0  0
   -6.5965  213.2020   79.8394 N   0  0  0  0  0  0  0  0  0  0  0  0
   -5.7480  212.2543   79.5255 N   0  0  0  0  0  0  0  0  0  0  0  0
   -4.8699  212.6189   78.6360 N   0  0  0  0  0  0  0  0  0  0  0  0
   -3.7737  211.8766   78.0219 C   0  0  0  0  0  0  0  0  0  0  0  0
   -2.7829  211.5046   79.0717 C   0  0  0  0  0  0  0  0  0  0  0  0
   -3.2394  211.6484   80.4070 N   0  0  0  0  0  0  0  0  0  0  0  0
   -3.1093  210.5839   81.3395 C   0  0  0  0  0  0  0  0  0  0  0  0
   -1.9511  210.6009   82.1288 C   0  0  0  0  0  0  0  0  0  0  0  0
   -0.9264  211.6768   81.9805 C   0  0  0  0  0  0  0  0  0  0  0  0
    0.4127  211.0305   81.8360 C   0  0  0  0  0  0  0  0  0  0  0  0
    0.6799  209.9267   82.8077 C   0  0  0  0  0  0  0  0  0  0  0  0
   -0.4238  209.7733   83.8468 C   0  0  0  0  0  0  0  0  0  0  0  0
   -1.6968  209.6364   83.0745 C   0  0  0  0  0  0  0  0  0  0  0  0
   -2.5688  208.6463   83.2603 N   0  0  0  0  0  0  0  0  0  0  0  0
   -3.6996  208.6009   82.5142 C   0  0  0  0  0  0  0  0  0  0  0  0
   -3.9851  209.5702   81.5437 C   0  0  0  0  0  0  0  0  0  0  0  0
   -5.1361  209.5191   80.8083 C   0  0  0  0  0  0  0  0  0  0  0  0
   -6.0441  208.5014   81.0092 C   0  0  0  0  0  0  0  0  0  0  0  0
   -5.7927  207.5255   81.9594 C   0  0  0  0  0  0  0  0  0  0  0  0
   -4.6309  207.5987   82.6864 C   0  0  0  0  0  0  0  0  0  0  0  0
  1  2  2  0
  2  3  1  0
  2 10  1  0
  4  3  1  1
  3  8  1  0
  5  4  1  1
  6  5  1  1
  6  7  1  0
  7  8  1  6
  8  9  1  6
  9 10  2  0
  9 14  1  0
 10 11  1  0
 11 12  2  0
 12 13  1  0
 13 14  2  0
 14 15  1  0
 15 16  1  0
 16 17  2  0
 16 18  1  0
 18 19  1  0
 19 20  2  0
 19 21  1  0
 20 24  1  0
 21 22  2  0
 22 23  1  0
 23 24  2  0
 24 25  1  0
 25 26  2  0
 25 27  1  0
 26 29  1  0
 27 28  2  0
 28 29  1  0
 30 29  1  1
 30 31  1  0
 31 32  1  6
 32 33  1  0
 33 34  1  0
 33 42  2  0
 35 34  1  1
 34 39  2  0
 36 35  1  1
 36 37  1  0
 37 38  1  6
 38 39  1  6
 39 40  1  0
 40 41  2  0
 41 42  1  0
 41 46  1  0
 42 43  1  0
 43 44  2  0
 44 45  1  0
 45 46  2  0
M  END
$$$$
