
     RDKit          3D

 46 53  0  0  0  0  0  0  0  0999 V2000
  -14.4029  223.2626   79.1664 O   0  0  0  0  0  0  0  0  0  0  0  0
  -13.6364  222.2729   79.0928 C   0  0  0  0  0  0  0  0  0  0  0  0
  -13.4394  221.4777   77.9406 N   0  0  0  0  0  0  0  0  0  0  0  0
  -13.9833  221.5193   76.6036 C   0  0  0  0  0  0  0  0  0  0  0  0
  -12.8242  221.6986   75.6444 C   0  0  0  0  0  0  0  0  0  0  0  0
  -11.4896  221.7099   76.3535 C   0  0  0  0  0  0  0  0  0  0  0  0
  -11.3278  220.5438   77.3029 C   0  0  0  0  0  0  0  0  0  0  0  0
  -12.4881  220.4478   78.2691 C   0  0  1  0  0  0  0  0  0  0  0  0
  -12.0922  220.6268   79.6737 C   0  0  0  0  0  0  0  0  0  0  0  0
  -12.7930  221.7247   80.1453 C   0  0  0  0  0  0  0  0  0  0  0  0
  -12.6232  222.1357   81.4482 C   0  0  0  0  0  0  0  0  0  0  0  0
  -11.7581  221.4493   82.2662 C   0  0  0  0  0  0  0  0  0  0  0  0
  -11.0667  220.3573   81.7819 C   0  0  0  0  0  0  0  0  0  0  0  0
  -11.2172  219.9220   80.4788 C   0  0  0  0  0  0  0  0  0  0  0  0
  -10.5025  218.7963   79.9855 N   0  0  0  0  0  0  0  0  0  0  0  0
   -9.4285  218.2277   80.6995 C   0  0  0  0  0  0  0  0  0  0  0  0
   -9.6567  217.7054   81.8172 O   0  0  0  0  0  0  0  0  0  0  0  0
   -8.0840  218.2243   80.1954 N   0  0  0  0  0  0  0  0  0  0  0  0
   -7.0309  217.8954   81.0887 C   0  0  0  0  0  0  0  0  0  0  0  0
   -6.8298  216.5906   81.4857 C   0  0  0  0  0  0  0  0  0  0  0  0
   -6.1950  218.8242   81.5801 N   0  0  0  0  0  0  0  0  0  0  0  0
   -5.1901  218.5044   82.4326 C   0  0  0  0  0  0  0  0  0  0  0  0
   -4.9708  217.2043   82.8431 C   0  0  0  0  0  0  0  0  0  0  0  0
   -5.8152  216.2320   82.3530 C   0  0  0  0  0  0  0  0  0  0  0  0
   -5.6369  214.8379   82.7484 C   0  0  0  0  0  0  0  0  0  0  0  0
   -6.5570  213.8450   82.5772 C   0  0  0  0  0  0  0  0  0  0  0  0
   -4.5541  214.2998   83.3396 N   0  0  0  0  0  0  0  0  0  0  0  0
   -4.8329  213.0309   83.5088 N   0  0  0  0  0  0  0  0  0  0  0  0
   -6.0140  212.6976   83.0741 N   0  0  0  0  0  0  0  0  0  0  0  0
   -6.6999  211.4093   83.0768 C   0  0  0  0  0  0  0  0  0  0  0  0
   -5.8785  210.4136   82.3310 C   0  0  0  0  0  0  0  0  0  0  0  0
   -4.4761  210.6117   82.4094 N   0  0  0  0  0  0  0  0  0  0  0  0
   -3.5739  209.6419   81.8945 C   0  0  0  0  0  0  0  0  0  0  0  0
   -2.2848  209.6533   82.4446 C   0  0  0  0  0  0  0  0  0  0  0  0
   -1.9008  210.6351   83.5021 C   0  0  0  0  0  0  0  0  0  0  0  0
   -0.6242  211.2919   83.0890 C   0  0  0  0  0  0  0  0  0  0  0  0
    0.4222  210.3544   82.5789 C   0  0  0  0  0  0  0  0  0  0  0  0
    0.0208  208.8907   82.7123 C   0  0  0  0  0  0  0  0  0  0  0  0
   -1.3115  208.7692   82.0444 C   0  0  0  0  0  0  0  0  0  0  0  0
   -1.5851  207.8654   81.1045 N   0  0  0  0  0  0  0  0  0  0  0  0
   -2.8224  207.8266   80.5525 C   0  0  0  0  0  0  0  0  0  0  0  0
   -3.8340  208.7148   80.9410 C   0  0  0  0  0  0  0  0  0  0  0  0
   -5.0813  208.6549   80.3852 C   0  0  0  0  0  0  0  0  0  0  0  0
   -5.3679  207.7117   79.4215 C   0  0  0  0  0  0  0  0  0  0  0  0
   -4.3907  206.8192   79.0127 C   0  0  0  0  0  0  0  0  0  0  0  0
   -3.1463  206.8979   79.5862 C   0  0  0  0  0  0  0  0  0  0  0  0
  1  2  2  0
  2  3  1  0
  2 10  1  0
  4  3  1  1
  3  8  1  0
  5  4  1  1
  6  5  1  1
  6  7  1  0
  7  8  1  6
  8  9  1  1
  9 10  2  0
  9 14  1  0
 10 11  1  0
 11 12  2  0
 12 13  1  0
 13 14  2  0
 14 15  1  0
 15 16  1  0
 16 17  2  0
 16 18  1  0
 18 19  1  0
 19 20  2  0
 19 21  1  0
 20 24  1  0
 21 22  2  0
 22 23  1  0
 23 24  2  0
 24 25  1  0
 25 26  2  0
 25 27  1  0
 26 29  1  0
 27 28  2  0
 28 29  1  0
 30 29  1  1
 30 31  1  0
 31 32  1  6
 32 33  1  0
 33 34  1  0
 33 42  2  0
 35 34  1  1
 34 39  2  0
 36 35  1  1
 36 37  1  0
 37 38  1  6
 38 39  1  6
 39 40  1  0
 40 41  2  0
 41 42  1  0
 41 46  1  0
 42 43  1  0
 43 44  2  0
 44 45  1  0
 45 46  2  0
M  END
$$$$
