
     RDKit          3D

 46 53  0  0  0  0  0  0  0  0999 V2000
  -13.6071  224.1919   80.8557 O   0  0  0  0  0  0  0  0  0  0  0  0
  -13.0394  223.0789   80.7494 C   0  0  0  0  0  0  0  0  0  0  0  0
  -12.7583  222.2010   81.8213 N   0  0  0  0  0  0  0  0  0  0  0  0
  -12.9971  222.2665   83.2439 C   0  0  0  0  0  0  0  0  0  0  0  0
  -13.8689  221.0842   83.6155 C   0  0  0  0  0  0  0  0  0  0  0  0
  -14.1556  220.1888   82.4322 C   0  0  0  0  0  0  0  0  0  0  0  0
  -12.9031  219.8148   81.6715 C   0  0  0  0  0  0  0  0  0  0  0  0
  -12.1021  221.0380   81.2825 C   0  0  1  0  0  0  0  0  0  0  0  0
  -11.9827  221.2171   79.8281 C   0  0  0  0  0  0  0  0  0  0  0  0
  -12.5501  222.4460   79.5331 C   0  0  0  0  0  0  0  0  0  0  0  0
  -12.5825  222.8885   78.2298 C   0  0  0  0  0  0  0  0  0  0  0  0
  -12.0500  222.1030   77.2358 C   0  0  0  0  0  0  0  0  0  0  0  0
  -11.4882  220.8809   77.5453 C   0  0  0  0  0  0  0  0  0  0  0  0
  -11.4415  220.4111   78.8442 C   0  0  0  0  0  0  0  0  0  0  0  0
  -10.8614  219.1514   79.1571 N   0  0  0  0  0  0  0  0  0  0  0  0
  -10.3869  218.2828   78.1535 C   0  0  0  0  0  0  0  0  0  0  0  0
  -10.5712  218.5923   76.9517 O   0  0  0  0  0  0  0  0  0  0  0  0
   -9.7010  217.0581   78.4556 N   0  0  0  0  0  0  0  0  0  0  0  0
   -9.5875  216.6679   79.8158 C   0  0  0  0  0  0  0  0  0  0  0  0
   -8.9336  215.5038   80.1593 C   0  0  0  0  0  0  0  0  0  0  0  0
  -10.1026  217.4025   80.8148 N   0  0  0  0  0  0  0  0  0  0  0  0
   -9.9907  217.0255   82.1126 C   0  0  0  0  0  0  0  0  0  0  0  0
   -9.3401  215.8638   82.4788 C   0  0  0  0  0  0  0  0  0  0  0  0
   -8.8025  215.0919   81.4720 C   0  0  0  0  0  0  0  0  0  0  0  0
   -8.1021  213.8516   81.7927 C   0  0  0  0  0  0  0  0  0  0  0  0
   -7.7449  212.8912   80.8916 C   0  0  0  0  0  0  0  0  0  0  0  0
   -7.6948  213.4474   83.0101 N   0  0  0  0  0  0  0  0  0  0  0  0
   -7.1169  212.2859   82.8262 N   0  0  0  0  0  0  0  0  0  0  0  0
   -7.1149  211.8995   81.5830 N   0  0  0  0  0  0  0  0  0  0  0  0
   -6.5861  210.6879   80.9645 C   0  0  0  0  0  0  0  0  0  0  0  0
   -5.1887  210.9379   80.5094 C   0  0  0  0  0  0  0  0  0  0  0  0
   -4.2535  211.1839   81.5472 N   0  0  0  0  0  0  0  0  0  0  0  0
   -2.8921  211.4624   81.2494 C   0  0  0  0  0  0  0  0  0  0  0  0
   -1.9656  210.4960   81.6643 C   0  0  0  0  0  0  0  0  0  0  0  0
   -2.4013  209.2590   82.3784 C   0  0  0  0  0  0  0  0  0  0  0  0
   -1.5675  209.1113   83.6091 C   0  0  0  0  0  0  0  0  0  0  0  0
   -0.1038  209.3304   83.4002 C   0  0  0  0  0  0  0  0  0  0  0  0
    0.2613  209.5279   81.9341 C   0  0  0  0  0  0  0  0  0  0  0  0
   -0.6166  210.6323   81.4389 C   0  0  0  0  0  0  0  0  0  0  0  0
   -0.1576  211.7117   80.8069 N   0  0  0  0  0  0  0  0  0  0  0  0
   -1.0270  212.6649   80.3914 C   0  0  0  0  0  0  0  0  0  0  0  0
   -2.4068  212.5524   80.6070 C   0  0  0  0  0  0  0  0  0  0  0  0
   -3.2731  213.5153   80.1702 C   0  0  0  0  0  0  0  0  0  0  0  0
   -2.7992  214.6261   79.5054 C   0  0  0  0  0  0  0  0  0  0  0  0
   -1.4407  214.7702   79.2768 C   0  0  0  0  0  0  0  0  0  0  0  0
   -0.5906  213.7896   79.7236 C   0  0  0  0  0  0  0  0  0  0  0  0
  1  2  2  0
  2  3  1  0
  2 10  1  0
  4  3  1  1
  3  8  1  0
  5  4  1  1
  6  5  1  1
  6  7  1  0
  7  8  1  6
  8  9  1  6
  9 10  2  0
  9 14  1  0
 10 11  1  0
 11 12  2  0
 12 13  1  0
 13 14  2  0
 14 15  1  0
 15 16  1  0
 16 17  2  0
 16 18  1  0
 18 19  1  0
 19 20  2  0
 19 21  1  0
 20 24  1  0
 21 22  2  0
 22 23  1  0
 23 24  2  0
 24 25  1  0
 25 26  2  0
 25 27  1  0
 26 29  1  0
 27 28  2  0
 28 29  1  0
 30 29  1  1
 30 31  1  0
 31 32  1  6
 32 33  1  0
 33 34  1  0
 33 42  2  0
 35 34  1  1
 34 39  2  0
 36 35  1  1
 36 37  1  0
 37 38  1  6
 38 39  1  6
 39 40  1  0
 40 41  2  0
 41 42  1  0
 41 46  1  0
 42 43  1  0
 43 44  2  0
 44 45  1  0
 45 46  2  0
M  END
$$$$
