
     RDKit          3D

 46 53  0  0  0  0  0  0  0  0999 V2000
  -12.3960  221.5705   76.0425 O   0  0  0  0  0  0  0  0  0  0  0  0
  -11.7189  220.6874   76.6205 C   0  0  0  0  0  0  0  0  0  0  0  0
  -10.7445  219.8712   76.0016 N   0  0  0  0  0  0  0  0  0  0  0  0
  -10.2441  219.7777   74.6503 C   0  0  0  0  0  0  0  0  0  0  0  0
   -8.7564  220.0617   74.6936 C   0  0  0  0  0  0  0  0  0  0  0  0
   -8.2553  220.2813   76.1024 C   0  0  0  0  0  0  0  0  0  0  0  0
   -8.7019  219.1928   77.0527 C   0  0  0  0  0  0  0  0  0  0  0  0
  -10.2006  218.9915   77.0035 C   0  0  1  0  0  0  0  0  0  0  0  0
  -10.8698  219.2872   78.2788 C   0  0  0  0  0  0  0  0  0  0  0  0
  -11.7744  220.3049   78.0242 C   0  0  0  0  0  0  0  0  0  0  0  0
  -12.5560  220.7959   79.0456 C   0  0  0  0  0  0  0  0  0  0  0  0
  -12.4281  220.2683   80.3080 C   0  0  0  0  0  0  0  0  0  0  0  0
  -11.5223  219.2545   80.5464 C   0  0  0  0  0  0  0  0  0  0  0  0
  -10.7247  218.7420   79.5407 C   0  0  0  0  0  0  0  0  0  0  0  0
   -9.7934  217.6976   79.7920 N   0  0  0  0  0  0  0  0  0  0  0  0
  -10.0574  216.6768   80.7274 C   0  0  0  0  0  0  0  0  0  0  0  0
  -11.1881  216.1330   80.7234 O   0  0  0  0  0  0  0  0  0  0  0  0
   -9.0810  216.2368   81.6838 N   0  0  0  0  0  0  0  0  0  0  0  0
   -7.7211  216.1806   81.2803 C   0  0  0  0  0  0  0  0  0  0  0  0
   -6.8315  215.3491   81.9268 C   0  0  0  0  0  0  0  0  0  0  0  0
   -7.2458  216.9217   80.2665 N   0  0  0  0  0  0  0  0  0  0  0  0
   -5.9459  216.8636   79.8847 C   0  0  0  0  0  0  0  0  0  0  0  0
   -5.0381  216.0380   80.5182 C   0  0  0  0  0  0  0  0  0  0  0  0
   -5.5010  215.2669   81.5621 C   0  0  0  0  0  0  0  0  0  0  0  0
   -4.5918  214.3731   82.2735 C   0  0  0  0  0  0  0  0  0  0  0  0
   -4.9458  213.5293   83.2857 C   0  0  0  0  0  0  0  0  0  0  0  0
   -3.2710  214.2287   82.0587 N   0  0  0  0  0  0  0  0  0  0  0  0
   -2.8654  213.3279   82.9192 N   0  0  0  0  0  0  0  0  0  0  0  0
   -3.8185  212.8721   83.6800 N   0  0  0  0  0  0  0  0  0  0  0  0
   -3.7888  211.8810   84.7509 C   0  0  0  0  0  0  0  0  0  0  0  0
   -4.3668  210.6006   84.2519 C   0  0  0  0  0  0  0  0  0  0  0  0
   -3.4583  209.7612   83.5576 N   0  0  0  0  0  0  0  0  0  0  0  0
   -3.5713  209.5695   82.1540 C   0  0  0  0  0  0  0  0  0  0  0  0
   -2.5563  210.1420   81.3752 C   0  0  0  0  0  0  0  0  0  0  0  0
   -1.4363  210.9068   82.0000 C   0  0  0  0  0  0  0  0  0  0  0  0
   -1.3130  212.2169   81.2929 C   0  0  0  0  0  0  0  0  0  0  0  0
   -1.3646  212.1275   79.8018 C   0  0  0  0  0  0  0  0  0  0  0  0
   -1.3961  210.6905   79.2962 C   0  0  0  0  0  0  0  0  0  0  0  0
   -2.5361  210.0321   80.0053 C   0  0  0  0  0  0  0  0  0  0  0  0
   -3.5046  209.3631   79.3812 N   0  0  0  0  0  0  0  0  0  0  0  0
   -4.5008  208.7964   80.1048 C   0  0  0  0  0  0  0  0  0  0  0  0
   -4.5469  208.8919   81.5019 C   0  0  0  0  0  0  0  0  0  0  0  0
   -5.5505  208.3035   82.2195 C   0  0  0  0  0  0  0  0  0  0  0  0
   -6.5459  207.6009   81.5745 C   0  0  0  0  0  0  0  0  0  0  0  0
   -6.5321  207.4881   80.1941 C   0  0  0  0  0  0  0  0  0  0  0  0
   -5.5135  208.0862   79.4953 C   0  0  0  0  0  0  0  0  0  0  0  0
  1  2  2  0
  2  3  1  0
  2 10  1  0
  4  3  1  1
  3  8  1  0
  5  4  1  1
  6  5  1  1
  6  7  1  0
  7  8  1  6
  8  9  1  1
  9 10  2  0
  9 14  1  0
 10 11  1  0
 11 12  2  0
 12 13  1  0
 13 14  2  0
 14 15  1  0
 15 16  1  0
 16 17  2  0
 16 18  1  0
 18 19  1  0
 19 20  2  0
 19 21  1  0
 20 24  1  0
 21 22  2  0
 22 23  1  0
 23 24  2  0
 24 25  1  0
 25 26  2  0
 25 27  1  0
 26 29  1  0
 27 28  2  0
 28 29  1  0
 30 29  1  1
 30 31  1  0
 31 32  1  6
 32 33  1  0
 33 34  1  0
 33 42  2  0
 35 34  1  1
 34 39  2  0
 36 35  1  1
 36 37  1  0
 37 38  1  6
 38 39  1  6
 39 40  1  0
 40 41  2  0
 41 42  1  0
 41 46  1  0
 42 43  1  0
 43 44  2  0
 44 45  1  0
 45 46  2  0
M  END
$$$$
