
     RDKit          3D

 46 53  0  0  0  0  0  0  0  0999 V2000
  -13.4539  220.9126   77.9572 O   0  0  0  0  0  0  0  0  0  0  0  0
  -12.4761  220.1388   78.0888 C   0  0  0  0  0  0  0  0  0  0  0  0
  -11.8919  219.7647   79.3207 N   0  0  0  0  0  0  0  0  0  0  0  0
  -12.1801  220.0992   80.6956 C   0  0  0  0  0  0  0  0  0  0  0  0
  -12.4999  218.8087   81.4222 C   0  0  0  0  0  0  0  0  0  0  0  0
  -12.3569  217.5975   80.5296 C   0  0  0  0  0  0  0  0  0  0  0  0
  -11.0387  217.5760   79.7886 C   0  0  0  0  0  0  0  0  0  0  0  0
  -10.7996  218.8692   79.0406 C   0  0  1  0  0  0  0  0  0  0  0  0
  -10.7200  218.6924   77.5832 C   0  0  0  0  0  0  0  0  0  0  0  0
  -11.7328  219.4624   77.0354 C   0  0  0  0  0  0  0  0  0  0  0  0
  -11.9043  219.4947   75.6698 C   0  0  0  0  0  0  0  0  0  0  0  0
  -11.0659  218.7605   74.8657 C   0  0  0  0  0  0  0  0  0  0  0  0
  -10.0612  217.9980   75.4262 C   0  0  0  0  0  0  0  0  0  0  0  0
   -9.8654  217.9463   76.7934 C   0  0  0  0  0  0  0  0  0  0  0  0
   -8.8287  217.1591   77.3651 N   0  0  0  0  0  0  0  0  0  0  0  0
   -7.5321  217.1253   76.8134 C   0  0  0  0  0  0  0  0  0  0  0  0
   -7.3278  217.7015   75.7178 O   0  0  0  0  0  0  0  0  0  0  0  0
   -6.4375  216.4563   77.4585 N   0  0  0  0  0  0  0  0  0  0  0  0
   -6.3978  216.4446   78.8775 C   0  0  0  0  0  0  0  0  0  0  0  0
   -5.6751  215.4830   79.5510 C   0  0  0  0  0  0  0  0  0  0  0  0
   -7.0508  217.3549   79.6177 N   0  0  0  0  0  0  0  0  0  0  0  0
   -7.0088  217.3396   80.9730 C   0  0  0  0  0  0  0  0  0  0  0  0
   -6.2913  216.3858   81.6676 C   0  0  0  0  0  0  0  0  0  0  0  0
   -5.6122  215.4400   80.9309 C   0  0  0  0  0  0  0  0  0  0  0  0
   -4.8349  214.4041   81.6050 C   0  0  0  0  0  0  0  0  0  0  0  0
   -4.9175  214.0925   82.9310 C   0  0  0  0  0  0  0  0  0  0  0  0
   -3.9187  213.5918   81.0464 N   0  0  0  0  0  0  0  0  0  0  0  0
   -3.4792  212.8284   82.0163 N   0  0  0  0  0  0  0  0  0  0  0  0
   -4.0369  213.0787   83.1658 N   0  0  0  0  0  0  0  0  0  0  0  0
   -3.8306  212.4694   84.4758 C   0  0  0  0  0  0  0  0  0  0  0  0
   -4.3198  211.0615   84.4456 C   0  0  0  0  0  0  0  0  0  0  0  0
   -3.4155  210.1228   83.8861 N   0  0  0  0  0  0  0  0  0  0  0  0
   -3.4780  209.7844   82.5072 C   0  0  0  0  0  0  0  0  0  0  0  0
   -2.3090  210.0124   81.7683 C   0  0  0  0  0  0  0  0  0  0  0  0
   -1.0852  210.5812   82.4075 C   0  0  0  0  0  0  0  0  0  0  0  0
   -0.6147  211.7301   81.5766 C   0  0  0  0  0  0  0  0  0  0  0  0
   -0.5881  211.4658   80.1058 C   0  0  0  0  0  0  0  0  0  0  0  0
   -0.9196  210.0197   79.7587 C   0  0  0  0  0  0  0  0  0  0  0  0
   -2.2253  209.7277   80.4263 C   0  0  0  0  0  0  0  0  0  0  0  0
   -3.2799  209.2178   79.7915 N   0  0  0  0  0  0  0  0  0  0  0  0
   -4.4257  208.9841   80.4769 C   0  0  0  0  0  0  0  0  0  0  0  0
   -4.5396  209.2641   81.8449 C   0  0  0  0  0  0  0  0  0  0  0  0
   -5.6972  209.0104   82.5261 C   0  0  0  0  0  0  0  0  0  0  0  0
   -6.7843  208.4715   81.8718 C   0  0  0  0  0  0  0  0  0  0  0  0
   -6.7068  208.1840   80.5191 C   0  0  0  0  0  0  0  0  0  0  0  0
   -5.5336  208.4462   79.8568 C   0  0  0  0  0  0  0  0  0  0  0  0
  1  2  2  0
  2  3  1  0
  2 10  1  0
  4  3  1  1
  3  8  1  0
  5  4  1  1
  6  5  1  1
  6  7  1  0
  7  8  1  6
  8  9  1  6
  9 10  2  0
  9 14  1  0
 10 11  1  0
 11 12  2  0
 12 13  1  0
 13 14  2  0
 14 15  1  0
 15 16  1  0
 16 17  2  0
 16 18  1  0
 18 19  1  0
 19 20  2  0
 19 21  1  0
 20 24  1  0
 21 22  2  0
 22 23  1  0
 23 24  2  0
 24 25  1  0
 25 26  2  0
 25 27  1  0
 26 29  1  0
 27 28  2  0
 28 29  1  0
 30 29  1  1
 30 31  1  0
 31 32  1  6
 32 33  1  0
 33 34  1  0
 33 42  2  0
 35 34  1  1
 34 39  2  0
 36 35  1  1
 36 37  1  0
 37 38  1  6
 38 39  1  6
 39 40  1  0
 40 41  2  0
 41 42  1  0
 41 46  1  0
 42 43  1  0
 43 44  2  0
 44 45  1  0
 45 46  2  0
M  END
$$$$
