
     RDKit          3D

 46 53  0  0  0  0  0  0  0  0999 V2000
  -12.5514  223.4414   79.3665 O   0  0  0  0  0  0  0  0  0  0  0  0
  -12.2058  222.2554   79.1951 C   0  0  0  0  0  0  0  0  0  0  0  0
  -12.0784  221.5953   77.9730 N   0  0  0  0  0  0  0  0  0  0  0  0
  -12.3334  222.0081   76.6134 C   0  0  0  0  0  0  0  0  0  0  0  0
  -11.0470  221.8669   75.8211 C   0  0  0  0  0  0  0  0  0  0  0  0
  -10.2933  220.6100   76.1010 C   0  0  0  0  0  0  0  0  0  0  0  0
  -10.1811  220.2625   77.5683 C   0  0  0  0  0  0  0  0  0  0  0  0
  -11.5879  220.2580   78.1942 C   0  0  1  0  0  0  0  0  0  0  0  0
  -11.5292  220.0923   79.6422 C   0  0  0  0  0  0  0  0  0  0  0  0
  -11.8590  221.2984   80.2301 C   0  0  0  0  0  0  0  0  0  0  0  0
  -11.8563  221.4452   81.6026 C   0  0  0  0  0  0  0  0  0  0  0  0
  -11.5213  220.3732   82.3893 C   0  0  0  0  0  0  0  0  0  0  0  0
  -11.1911  219.1554   81.7777 C   0  0  0  0  0  0  0  0  0  0  0  0
  -11.1863  218.9858   80.4237 C   0  0  0  0  0  0  0  0  0  0  0  0
  -10.8915  217.7733   79.7698 N   0  0  0  0  0  0  0  0  0  0  0  0
  -11.3891  216.5031   80.0939 C   0  0  0  0  0  0  0  0  0  0  0  0
  -12.2378  215.9468   79.4002 O   0  0  0  0  0  0  0  0  0  0  0  0
  -10.9464  215.7670   81.2504 N   0  0  0  0  0  0  0  0  0  0  0  0
  -10.8268  214.3539   81.2201 C   0  0  0  0  0  0  0  0  0  0  0  0
   -9.6986  213.6994   81.6581 C   0  0  0  0  0  0  0  0  0  0  0  0
  -11.8606  213.6012   80.7412 N   0  0  0  0  0  0  0  0  0  0  0  0
  -11.7991  212.2627   80.6901 C   0  0  0  0  0  0  0  0  0  0  0  0
  -10.6566  211.6331   81.1357 C   0  0  0  0  0  0  0  0  0  0  0  0
   -9.5773  212.3266   81.6304 C   0  0  0  0  0  0  0  0  0  0  0  0
   -8.3929  211.6274   82.0891 C   0  0  0  0  0  0  0  0  0  0  0  0
   -7.2506  212.1847   82.6225 C   0  0  0  0  0  0  0  0  0  0  0  0
   -8.1541  210.3029   82.0936 N   0  0  0  0  0  0  0  0  0  0  0  0
   -6.9448  210.0821   82.5979 N   0  0  0  0  0  0  0  0  0  0  0  0
   -6.3655  211.2236   82.9321 N   0  0  0  0  0  0  0  0  0  0  0  0
   -5.0180  211.4015   83.5264 C   0  0  0  0  0  0  0  0  0  0  0  0
   -4.2445  210.1475   83.2288 C   0  0  0  0  0  0  0  0  0  0  0  0
   -3.4312  210.1508   82.0665 N   0  0  0  0  0  0  0  0  0  0  0  0
   -2.5027  211.1798   81.7423 C   0  0  0  0  0  0  0  0  0  0  0  0
   -1.1959  211.1697   82.2356 C   0  0  0  0  0  0  0  0  0  0  0  0
   -0.7983  210.0495   83.1002 C   0  0  0  0  0  0  0  0  0  0  0  0
    0.5192  210.2318   83.7816 C   0  0  0  0  0  0  0  0  0  0  0  0
    0.9417  211.6632   83.8433 C   0  0  0  0  0  0  0  0  0  0  0  0
    1.0647  212.2211   82.4177 C   0  0  0  0  0  0  0  0  0  0  0  0
   -0.3496  212.1979   81.8901 C   0  0  0  0  0  0  0  0  0  0  0  0
   -0.7820  213.1880   81.0922 N   0  0  0  0  0  0  0  0  0  0  0  0
   -2.0402  213.2348   80.5954 C   0  0  0  0  0  0  0  0  0  0  0  0
   -2.9129  212.2077   80.9317 C   0  0  0  0  0  0  0  0  0  0  0  0
   -4.2018  212.2596   80.4498 C   0  0  0  0  0  0  0  0  0  0  0  0
   -4.6120  213.2945   79.6561 C   0  0  0  0  0  0  0  0  0  0  0  0
   -3.7391  214.3091   79.3241 C   0  0  0  0  0  0  0  0  0  0  0  0
   -2.4425  214.2860   79.7934 C   0  0  0  0  0  0  0  0  0  0  0  0
  1  2  2  0
  2  3  1  0
  2 10  1  0
  3  4  1  0
  3  8  1  0
  4  5  1  0
  5  6  1  0
  6  7  1  0
  8  7  1  1
  8  9  1  0
  9 10  2  0
  9 14  1  0
 10 11  1  0
 11 12  2  0
 12 13  1  0
 13 14  2  0
 14 15  1  0
 15 16  1  0
 16 17  2  0
 16 18  1  0
 18 19  1  0
 19 20  2  0
 19 21  1  0
 20 24  1  0
 21 22  2  0
 22 23  1  0
 23 24  2  0
 24 25  1  0
 25 26  2  0
 25 27  1  0
 26 29  1  0
 27 28  2  0
 28 29  1  0
 29 30  1  0
 30 31  1  0
 31 32  1  0
 32 33  1  0
 33 34  1  0
 33 42  2  0
 34 35  1  0
 34 39  2  0
 35 36  1  0
 36 37  1  0
 37 38  1  0
 38 39  1  0
 39 40  1  0
 40 41  2  0
 41 42  1  0
 41 46  1  0
 42 43  1  0
 43 44  2  0
 44 45  1  0
 45 46  2  0
M  END
$$$$
