
     RDKit          3D

 46 53  0  0  0  0  0  0  0  0999 V2000
  -15.0448  222.9615   78.2642 O   0  0  0  0  0  0  0  0  0  0  0  0
  -14.2421  222.1895   78.8405 C   0  0  0  0  0  0  0  0  0  0  0  0
  -14.4769  221.5420   80.0751 N   0  0  0  0  0  0  0  0  0  0  0  0
  -15.5887  221.5395   80.9965 C   0  0  0  0  0  0  0  0  0  0  0  0
  -16.0773  220.1105   81.1189 C   0  0  0  0  0  0  0  0  0  0  0  0
  -15.2343  219.1457   80.3172 C   0  0  0  0  0  0  0  0  0  0  0  0
  -13.7542  219.3144   80.5779 C   0  0  0  0  0  0  0  0  0  0  0  0
  -13.3159  220.7501   80.3892 C   0  0  1  0  0  0  0  0  0  0  0  0
  -12.3410  220.9229   79.3023 C   0  0  0  0  0  0  0  0  0  0  0  0
  -12.9176  221.7890   78.3878 C   0  0  0  0  0  0  0  0  0  0  0  0
  -12.2267  222.1406   77.2500 C   0  0  0  0  0  0  0  0  0  0  0  0
  -10.9705  221.6262   77.0360 C   0  0  0  0  0  0  0  0  0  0  0  0
  -10.4091  220.7643   77.9563 C   0  0  0  0  0  0  0  0  0  0  0  0
  -11.0790  220.3938   79.1071 C   0  0  0  0  0  0  0  0  0  0  0  0
  -10.4957  219.5057   80.0517 N   0  0  0  0  0  0  0  0  0  0  0  0
   -9.1876  219.6965   80.5406 C   0  0  0  0  0  0  0  0  0  0  0  0
   -8.8456  220.8437   80.9162 O   0  0  0  0  0  0  0  0  0  0  0  0
   -8.2328  218.6273   80.6245 N   0  0  0  0  0  0  0  0  0  0  0  0
   -8.7185  217.2997   80.7544 C   0  0  0  0  0  0  0  0  0  0  0  0
   -7.9507  216.3282   81.3605 C   0  0  0  0  0  0  0  0  0  0  0  0
   -9.9285  216.9344   80.3013 N   0  0  0  0  0  0  0  0  0  0  0  0
  -10.3878  215.6649   80.4287 C   0  0  0  0  0  0  0  0  0  0  0  0
   -9.6356  214.6765   81.0322 C   0  0  0  0  0  0  0  0  0  0  0  0
   -8.3898  215.0258   81.5058 C   0  0  0  0  0  0  0  0  0  0  0  0
   -7.5447  214.0272   82.1541 C   0  0  0  0  0  0  0  0  0  0  0  0
   -6.5645  214.2941   83.0651 C   0  0  0  0  0  0  0  0  0  0  0  0
   -7.5846  212.6947   81.9692 N   0  0  0  0  0  0  0  0  0  0  0  0
   -6.6560  212.1978   82.7485 N   0  0  0  0  0  0  0  0  0  0  0  0
   -6.0120  213.1021   83.4286 N   0  0  0  0  0  0  0  0  0  0  0  0
   -4.9207  212.9719   84.3889 C   0  0  0  0  0  0  0  0  0  0  0  0
   -3.6252  212.9034   83.6545 C   0  0  0  0  0  0  0  0  0  0  0  0
   -3.3347  211.6469   83.0639 N   0  0  0  0  0  0  0  0  0  0  0  0
   -2.6273  211.5666   81.8340 C   0  0  0  0  0  0  0  0  0  0  0  0
   -1.4794  210.7623   81.8405 C   0  0  0  0  0  0  0  0  0  0  0  0
   -1.0404  210.0460   83.0750 C   0  0  0  0  0  0  0  0  0  0  0  0
    0.4072  210.3409   83.2969 C   0  0  0  0  0  0  0  0  0  0  0  0
    1.2598  210.2328   82.0741 C   0  0  0  0  0  0  0  0  0  0  0  0
    0.4961  209.7061   80.8653 C   0  0  0  0  0  0  0  0  0  0  0  0
   -0.7012  210.5901   80.7208 C   0  0  0  0  0  0  0  0  0  0  0  0
   -1.0342  211.1998   79.5838 N   0  0  0  0  0  0  0  0  0  0  0  0
   -2.1390  211.9841   79.5432 C   0  0  0  0  0  0  0  0  0  0  0  0
   -2.9508  212.1774   80.6685 C   0  0  0  0  0  0  0  0  0  0  0  0
   -4.0698  212.9603   80.6089 C   0  0  0  0  0  0  0  0  0  0  0  0
   -4.4210  213.5813   79.4293 C   0  0  0  0  0  0  0  0  0  0  0  0
   -3.6399  213.4131   78.2979 C   0  0  0  0  0  0  0  0  0  0  0  0
   -2.5219  212.6213   78.3819 C   0  0  0  0  0  0  0  0  0  0  0  0
  1  2  2  0
  2  3  1  0
  2 10  1  0
  4  3  1  1
  3  8  1  0
  5  4  1  1
  6  5  1  1
  6  7  1  0
  7  8  1  6
  8  9  1  6
  9 10  2  0
  9 14  1  0
 10 11  1  0
 11 12  2  0
 12 13  1  0
 13 14  2  0
 14 15  1  0
 15 16  1  0
 16 17  2  0
 16 18  1  0
 18 19  1  0
 19 20  2  0
 19 21  1  0
 20 24  1  0
 21 22  2  0
 22 23  1  0
 23 24  2  0
 24 25  1  0
 25 26  2  0
 25 27  1  0
 26 29  1  0
 27 28  2  0
 28 29  1  0
 30 29  1  1
 30 31  1  0
 31 32  1  6
 32 33  1  0
 33 34  1  0
 33 42  2  0
 35 34  1  1
 34 39  2  0
 36 35  1  1
 36 37  1  0
 37 38  1  6
 38 39  1  6
 39 40  1  0
 40 41  2  0
 41 42  1  0
 41 46  1  0
 42 43  1  0
 43 44  2  0
 44 45  1  0
 45 46  2  0
M  END
$$$$
