
     RDKit          3D

 46 53  0  0  0  0  0  0  0  0999 V2000
  -15.0205  223.6063   79.8958 O   0  0  0  0  0  0  0  0  0  0  0  0
  -14.2228  222.6725   80.1490 C   0  0  0  0  0  0  0  0  0  0  0  0
  -14.0019  222.1128   81.4283 N   0  0  0  0  0  0  0  0  0  0  0  0
  -14.5505  222.3840   82.7362 C   0  0  0  0  0  0  0  0  0  0  0  0
  -15.2141  221.1128   83.2257 C   0  0  0  0  0  0  0  0  0  0  0  0
  -15.0442  219.9670   82.2549 C   0  0  0  0  0  0  0  0  0  0  0  0
  -13.6071  219.7832   81.8210 C   0  0  0  0  0  0  0  0  0  0  0  0
  -13.0159  221.0721   81.2935 C   0  0  1  0  0  0  0  0  0  0  0  0
  -12.6257  220.9970   79.8780 C   0  0  0  0  0  0  0  0  0  0  0  0
  -13.3608  221.9648   79.2132 C   0  0  0  0  0  0  0  0  0  0  0  0
  -13.2032  222.1301   77.8556 C   0  0  0  0  0  0  0  0  0  0  0  0
  -12.3161  221.3304   77.1758 C   0  0  0  0  0  0  0  0  0  0  0  0
  -11.5907  220.3704   77.8519 C   0  0  0  0  0  0  0  0  0  0  0  0
  -11.7281  220.1819   79.2142 C   0  0  0  0  0  0  0  0  0  0  0  0
  -10.9781  219.1915   79.9054 N   0  0  0  0  0  0  0  0  0  0  0  0
   -9.8928  218.5257   79.3008 C   0  0  0  0  0  0  0  0  0  0  0  0
   -9.6914  218.6920   78.0737 O   0  0  0  0  0  0  0  0  0  0  0  0
   -9.0101  217.6650   80.0369 N   0  0  0  0  0  0  0  0  0  0  0  0
   -8.3843  216.5937   79.3469 C   0  0  0  0  0  0  0  0  0  0  0  0
   -7.8131  215.5498   80.0429 C   0  0  0  0  0  0  0  0  0  0  0  0
   -8.3213  216.5476   78.0065 N   0  0  0  0  0  0  0  0  0  0  0  0
   -7.7229  215.5215   77.3524 C   0  0  0  0  0  0  0  0  0  0  0  0
   -7.1446  214.4660   78.0296 C   0  0  0  0  0  0  0  0  0  0  0  0
   -7.1959  214.4896   79.4063 C   0  0  0  0  0  0  0  0  0  0  0  0
   -6.6030  213.4037   80.1814 C   0  0  0  0  0  0  0  0  0  0  0  0
   -6.6232  213.3027   81.5421 C   0  0  0  0  0  0  0  0  0  0  0  0
   -5.9456  212.3335   79.6978 N   0  0  0  0  0  0  0  0  0  0  0  0
   -5.5922  211.6283   80.7439 N   0  0  0  0  0  0  0  0  0  0  0  0
   -5.9676  212.1545   81.8741 N   0  0  0  0  0  0  0  0  0  0  0  0
   -5.7739  211.6977   83.2466 C   0  0  0  0  0  0  0  0  0  0  0  0
   -4.4429  212.1584   83.7348 C   0  0  0  0  0  0  0  0  0  0  0  0
   -3.3660  211.2744   83.4684 N   0  0  0  0  0  0  0  0  0  0  0  0
   -2.5330  211.4634   82.3326 C   0  0  0  0  0  0  0  0  0  0  0  0
   -2.0115  210.2970   81.7561 C   0  0  0  0  0  0  0  0  0  0  0  0
   -2.3198  208.9485   82.3185 C   0  0  0  0  0  0  0  0  0  0  0  0
   -1.0327  208.2120   82.4994 C   0  0  0  0  0  0  0  0  0  0  0  0
   -0.0969  208.2979   81.3372 C   0  0  0  0  0  0  0  0  0  0  0  0
   -0.7073  209.0127   80.1380 C   0  0  0  0  0  0  0  0  0  0  0  0
   -1.1947  210.3298   80.6512 C   0  0  0  0  0  0  0  0  0  0  0  0
   -0.8784  211.4995   80.0972 N   0  0  0  0  0  0  0  0  0  0  0  0
   -1.3667  212.6465   80.6293 C   0  0  0  0  0  0  0  0  0  0  0  0
   -2.2015  212.6434   81.7546 C   0  0  0  0  0  0  0  0  0  0  0  0
   -2.6976  213.8072   82.2720 C   0  0  0  0  0  0  0  0  0  0  0  0
   -2.3801  215.0165   81.6913 C   0  0  0  0  0  0  0  0  0  0  0  0
   -1.5560  215.0563   80.5788 C   0  0  0  0  0  0  0  0  0  0  0  0
   -1.0712  213.8746   80.0765 C   0  0  0  0  0  0  0  0  0  0  0  0
  1  2  2  0
  2  3  1  0
  2 10  1  0
  4  3  1  1
  3  8  1  0
  5  4  1  1
  6  5  1  1
  6  7  1  0
  7  8  1  6
  8  9  1  6
  9 10  2  0
  9 14  1  0
 10 11  1  0
 11 12  2  0
 12 13  1  0
 13 14  2  0
 14 15  1  0
 15 16  1  0
 16 17  2  0
 16 18  1  0
 18 19  1  0
 19 20  2  0
 19 21  1  0
 20 24  1  0
 21 22  2  0
 22 23  1  0
 23 24  2  0
 24 25  1  0
 25 26  2  0
 25 27  1  0
 26 29  1  0
 27 28  2  0
 28 29  1  0
 30 29  1  1
 30 31  1  0
 31 32  1  6
 32 33  1  0
 33 34  1  0
 33 42  2  0
 35 34  1  1
 34 39  2  0
 36 35  1  1
 36 37  1  0
 37 38  1  6
 38 39  1  6
 39 40  1  0
 40 41  2  0
 41 42  1  0
 41 46  1  0
 42 43  1  0
 43 44  2  0
 44 45  1  0
 45 46  2  0
M  END
$$$$
