
     RDKit          3D

 46 53  0  0  0  0  0  0  0  0999 V2000
  -13.7740  224.2245   80.5589 O   0  0  0  0  0  0  0  0  0  0  0  0
  -13.3421  223.0623   80.4247 C   0  0  0  0  0  0  0  0  0  0  0  0
  -13.6300  221.9693   81.2420 N   0  0  0  0  0  0  0  0  0  0  0  0
  -14.4135  221.8356   82.4471 C   0  0  0  0  0  0  0  0  0  0  0  0
  -15.5076  220.8147   82.1958 C   0  0  0  0  0  0  0  0  0  0  0  0
  -15.0528  219.6042   81.4514 C   0  0  0  0  0  0  0  0  0  0  0  0
  -14.1685  219.8988   80.2608 C   0  0  0  0  0  0  0  0  0  0  0  0
  -12.9955  220.7884   80.7121 C   0  0  1  0  0  0  0  0  0  0  0  0
  -12.2000  221.2422   79.5768 C   0  0  0  0  0  0  0  0  0  0  0  0
  -12.4439  222.5888   79.3873 C   0  0  0  0  0  0  0  0  0  0  0  0
  -11.8442  223.2822   78.3553 C   0  0  0  0  0  0  0  0  0  0  0  0
  -10.9933  222.6186   77.5092 C   0  0  0  0  0  0  0  0  0  0  0  0
  -10.7543  221.2525   77.7160 C   0  0  0  0  0  0  0  0  0  0  0  0
  -11.3353  220.5455   78.7284 C   0  0  0  0  0  0  0  0  0  0  0  0
  -11.0993  219.1816   78.9904 N   0  0  0  0  0  0  0  0  0  0  0  0
  -11.3725  218.1039   78.1361 C   0  0  0  0  0  0  0  0  0  0  0  0
  -12.4082  218.0507   77.4762 O   0  0  0  0  0  0  0  0  0  0  0  0
  -10.4689  216.9939   77.9722 N   0  0  0  0  0  0  0  0  0  0  0  0
  -10.2849  216.0381   79.0040 C   0  0  0  0  0  0  0  0  0  0  0  0
   -9.0903  215.8933   79.6710 C   0  0  0  0  0  0  0  0  0  0  0  0
  -11.3219  215.2241   79.3599 N   0  0  0  0  0  0  0  0  0  0  0  0
  -11.2013  214.3040   80.3277 C   0  0  0  0  0  0  0  0  0  0  0  0
   -9.9929  214.1805   80.9796 C   0  0  0  0  0  0  0  0  0  0  0  0
   -8.9064  214.9657   80.6740 C   0  0  0  0  0  0  0  0  0  0  0  0
   -7.6518  214.8050   81.3827 C   0  0  0  0  0  0  0  0  0  0  0  0
   -7.2781  213.7494   82.1865 C   0  0  0  0  0  0  0  0  0  0  0  0
   -6.5953  215.6385   81.4103 N   0  0  0  0  0  0  0  0  0  0  0  0
   -5.6495  215.1141   82.1822 N   0  0  0  0  0  0  0  0  0  0  0  0
   -6.0431  213.9506   82.6735 N   0  0  0  0  0  0  0  0  0  0  0  0
   -5.2765  213.0556   83.5746 C   0  0  0  0  0  0  0  0  0  0  0  0
   -4.6678  211.9880   82.7092 C   0  0  0  0  0  0  0  0  0  0  0  0
   -3.3332  211.6044   82.9992 N   0  0  0  0  0  0  0  0  0  0  0  0
   -2.3254  211.4058   82.0137 C   0  0  0  0  0  0  0  0  0  0  0  0
   -1.3831  210.3809   82.1254 C   0  0  0  0  0  0  0  0  0  0  0  0
   -1.4676  209.4967   83.2966 C   0  0  0  0  0  0  0  0  0  0  0  0
   -0.2924  208.5906   83.4733 C   0  0  0  0  0  0  0  0  0  0  0  0
    0.9190  209.0705   82.7429 C   0  0  0  0  0  0  0  0  0  0  0  0
    0.6089  209.1565   81.2411 C   0  0  0  0  0  0  0  0  0  0  0  0
   -0.4305  210.2468   81.1418 C   0  0  0  0  0  0  0  0  0  0  0  0
   -0.4163  211.0912   80.0974 N   0  0  0  0  0  0  0  0  0  0  0  0
   -1.3103  212.0972   79.9537 C   0  0  0  0  0  0  0  0  0  0  0  0
   -2.2809  212.2525   80.9352 C   0  0  0  0  0  0  0  0  0  0  0  0
   -3.1800  213.2878   80.8090 C   0  0  0  0  0  0  0  0  0  0  0  0
   -3.1219  214.1400   79.7414 C   0  0  0  0  0  0  0  0  0  0  0  0
   -2.1573  213.9778   78.7694 C   0  0  0  0  0  0  0  0  0  0  0  0
   -1.2415  212.9515   78.8694 C   0  0  0  0  0  0  0  0  0  0  0  0
  1  2  2  0
  2  3  1  0
  2 10  1  0
  3  4  1  0
  3  8  1  0
  4  5  1  0
  5  6  1  0
  6  7  1  0
  8  7  1  6
  8  9  1  0
  9 10  2  0
  9 14  1  0
 10 11  1  0
 11 12  2  0
 12 13  1  0
 13 14  2  0
 14 15  1  0
 15 16  1  0
 16 17  2  0
 16 18  1  0
 18 19  1  0
 19 20  2  0
 19 21  1  0
 20 24  1  0
 21 22  2  0
 22 23  1  0
 23 24  2  0
 24 25  1  0
 25 26  2  0
 25 27  1  0
 26 29  1  0
 27 28  2  0
 28 29  1  0
 29 30  1  0
 30 31  1  0
 31 32  1  0
 32 33  1  0
 33 34  1  0
 33 42  2  0
 34 35  1  0
 34 39  2  0
 35 36  1  0
 36 37  1  0
 37 38  1  0
 38 39  1  0
 39 40  1  0
 40 41  2  0
 41 42  1  0
 41 46  1  0
 42 43  1  0
 43 44  2  0
 44 45  1  0
 45 46  2  0
M  END
$$$$
