
     RDKit          3D

 46 53  0  0  0  0  0  0  0  0999 V2000
  -13.2671  223.7119   80.3746 O   0  0  0  0  0  0  0  0  0  0  0  0
  -12.8707  222.5226   80.3430 C   0  0  0  0  0  0  0  0  0  0  0  0
  -13.0736  221.5677   81.3656 N   0  0  0  0  0  0  0  0  0  0  0  0
  -13.7301  221.6172   82.6508 C   0  0  0  0  0  0  0  0  0  0  0  0
  -14.8432  220.5894   82.6348 C   0  0  0  0  0  0  0  0  0  0  0  0
  -14.8804  219.8043   81.3439 C   0  0  0  0  0  0  0  0  0  0  0  0
  -13.5256  219.2501   80.9635 C   0  0  0  0  0  0  0  0  0  0  0  0
  -12.4672  220.3311   80.9453 C   0  0  1  0  0  0  0  0  0  0  0  0
  -11.8758  220.5443   79.6162 C   0  0  0  0  0  0  0  0  0  0  0  0
  -12.1296  221.8633   79.2773 C   0  0  0  0  0  0  0  0  0  0  0  0
  -11.6875  222.3559   78.0702 C   0  0  0  0  0  0  0  0  0  0  0  0
  -10.9983  221.5302   77.2148 C   0  0  0  0  0  0  0  0  0  0  0  0
  -10.7531  220.2182   77.5664 C   0  0  0  0  0  0  0  0  0  0  0  0
  -11.1847  219.6964   78.7712 C   0  0  0  0  0  0  0  0  0  0  0  0
  -10.9291  218.3442   79.1281 N   0  0  0  0  0  0  0  0  0  0  0  0
   -9.7705  217.6684   78.6950 C   0  0  0  0  0  0  0  0  0  0  0  0
   -8.7169  218.3275   78.5227 O   0  0  0  0  0  0  0  0  0  0  0  0
   -9.7516  216.2547   78.4440 N   0  0  0  0  0  0  0  0  0  0  0  0
   -9.6704  215.3747   79.5549 C   0  0  0  0  0  0  0  0  0  0  0  0
   -8.4633  215.1424   80.1789 C   0  0  0  0  0  0  0  0  0  0  0  0
  -10.7479  214.7387   80.0423 N   0  0  0  0  0  0  0  0  0  0  0  0
  -10.6649  213.8996   81.1044 C   0  0  0  0  0  0  0  0  0  0  0  0
   -9.4662  213.6527   81.7441 C   0  0  0  0  0  0  0  0  0  0  0  0
   -8.3452  214.2934   81.2630 C   0  0  0  0  0  0  0  0  0  0  0  0
   -7.0473  214.0750   81.8950 C   0  0  0  0  0  0  0  0  0  0  0  0
   -5.8884  214.7121   81.5587 C   0  0  0  0  0  0  0  0  0  0  0  0
   -6.7732  213.2230   82.9002 N   0  0  0  0  0  0  0  0  0  0  0  0
   -5.4930  213.3580   83.1440 N   0  0  0  0  0  0  0  0  0  0  0  0
   -4.9089  214.2322   82.3762 N   0  0  0  0  0  0  0  0  0  0  0  0
   -3.5176  214.6695   82.3200 C   0  0  0  0  0  0  0  0  0  0  0  0
   -2.6470  213.5002   82.0081 C   0  0  0  0  0  0  0  0  0  0  0  0
   -3.2252  212.2325   82.2740 N   0  0  0  0  0  0  0  0  0  0  0  0
   -2.5227  211.0344   81.9728 C   0  0  0  0  0  0  0  0  0  0  0  0
   -3.2151  210.1000   81.1905 C   0  0  0  0  0  0  0  0  0  0  0  0
   -4.6065  210.3634   80.7167 C   0  0  0  0  0  0  0  0  0  0  0  0
   -5.4486  209.1771   81.0563 C   0  0  0  0  0  0  0  0  0  0  0  0
   -4.8268  207.8577   80.7299 C   0  0  0  0  0  0  0  0  0  0  0  0
   -3.5049  207.9949   79.9849 C   0  0  0  0  0  0  0  0  0  0  0  0
   -2.6567  208.9001   80.8197 C   0  0  0  0  0  0  0  0  0  0  0  0
   -1.4180  208.5993   81.2075 N   0  0  0  0  0  0  0  0  0  0  0  0
   -0.7203  209.4814   81.9640 C   0  0  0  0  0  0  0  0  0  0  0  0
   -1.2638  210.7116   82.3565 C   0  0  0  0  0  0  0  0  0  0  0  0
   -0.5431  211.5972   83.1081 C   0  0  0  0  0  0  0  0  0  0  0  0
    0.7429  211.2910   83.4989 C   0  0  0  0  0  0  0  0  0  0  0  0
    1.3107  210.0827   83.1300 C   0  0  0  0  0  0  0  0  0  0  0  0
    0.5681  209.2104   82.3741 C   0  0  0  0  0  0  0  0  0  0  0  0
  1  2  2  0
  2  3  1  0
  2 10  1  0
  4  3  1  1
  3  8  1  0
  5  4  1  1
  6  5  1  1
  6  7  1  0
  7  8  1  6
  8  9  1  6
  9 10  2  0
  9 14  1  0
 10 11  1  0
 11 12  2  0
 12 13  1  0
 13 14  2  0
 14 15  1  0
 15 16  1  0
 16 17  2  0
 16 18  1  0
 18 19  1  0
 19 20  2  0
 19 21  1  0
 20 24  1  0
 21 22  2  0
 22 23  1  0
 23 24  2  0
 24 25  1  0
 25 26  2  0
 25 27  1  0
 26 29  1  0
 27 28  2  0
 28 29  1  0
 30 29  1  1
 30 31  1  0
 31 32  1  6
 32 33  1  0
 33 34  1  0
 33 42  2  0
 35 34  1  1
 34 39  2  0
 36 35  1  1
 36 37  1  0
 37 38  1  6
 38 39  1  6
 39 40  1  0
 40 41  2  0
 41 42  1  0
 41 46  1  0
 42 43  1  0
 43 44  2  0
 44 45  1  0
 45 46  2  0
M  END
$$$$
