
     RDKit          3D

 46 53  0  0  0  0  0  0  0  0999 V2000
  -15.2468  223.1755   81.2938 O   0  0  0  0  0  0  0  0  0  0  0  0
  -14.3968  222.2648   81.3513 C   0  0  0  0  0  0  0  0  0  0  0  0
  -14.1889  221.3881   82.4161 N   0  0  0  0  0  0  0  0  0  0  0  0
  -14.7972  221.2812   83.7209 C   0  0  0  0  0  0  0  0  0  0  0  0
  -15.4080  219.8984   83.8524 C   0  0  0  0  0  0  0  0  0  0  0  0
  -14.5468  218.7989   83.3272 C   0  0  0  0  0  0  0  0  0  0  0  0
  -13.9091  219.0907   81.9876 C   0  0  0  0  0  0  0  0  0  0  0  0
  -13.1645  220.4362   82.0663 C   0  0  1  0  0  0  0  0  0  0  0  0
  -12.6686  220.8510   80.7587 C   0  0  0  0  0  0  0  0  0  0  0  0
  -13.4348  221.9146   80.3221 C   0  0  0  0  0  0  0  0  0  0  0  0
  -13.2085  222.4965   79.0910 C   0  0  0  0  0  0  0  0  0  0  0  0
  -12.2055  222.0073   78.2941 C   0  0  0  0  0  0  0  0  0  0  0  0
  -11.4354  220.9288   78.7523 C   0  0  0  0  0  0  0  0  0  0  0  0
  -11.6400  220.3369   79.9647 C   0  0  0  0  0  0  0  0  0  0  0  0
  -10.8709  219.2731   80.4762 N   0  0  0  0  0  0  0  0  0  0  0  0
  -10.3204  218.2098   79.7468 C   0  0  0  0  0  0  0  0  0  0  0  0
  -10.9342  217.6723   78.8275 O   0  0  0  0  0  0  0  0  0  0  0  0
   -9.0100  217.6767   80.0195 N   0  0  0  0  0  0  0  0  0  0  0  0
   -8.4470  216.6598   79.2065 C   0  0  0  0  0  0  0  0  0  0  0  0
   -7.3060  215.9782   79.5621 C   0  0  0  0  0  0  0  0  0  0  0  0
   -9.0476  216.3339   78.0243 N   0  0  0  0  0  0  0  0  0  0  0  0
   -8.5566  215.3813   77.2184 C   0  0  0  0  0  0  0  0  0  0  0  0
   -7.4120  214.7142   77.5995 C   0  0  0  0  0  0  0  0  0  0  0  0
   -6.7547  214.9896   78.7753 C   0  0  0  0  0  0  0  0  0  0  0  0
   -5.5527  214.2658   79.1407 C   0  0  0  0  0  0  0  0  0  0  0  0
   -4.9745  214.1874   80.3894 C   0  0  0  0  0  0  0  0  0  0  0  0
   -4.7518  213.5249   78.3525 N   0  0  0  0  0  0  0  0  0  0  0  0
   -3.7571  213.0345   79.0842 N   0  0  0  0  0  0  0  0  0  0  0  0
   -3.8691  213.4265   80.3428 N   0  0  0  0  0  0  0  0  0  0  0  0
   -2.9610  213.0923   81.4672 C   0  0  0  0  0  0  0  0  0  0  0  0
   -3.8230  212.9382   82.6888 C   0  0  0  0  0  0  0  0  0  0  0  0
   -4.0683  211.6171   83.1438 N   0  0  0  0  0  0  0  0  0  0  0  0
   -3.2177  210.5076   82.8762 C   0  0  0  0  0  0  0  0  0  0  0  0
   -3.6555  209.4122   82.1282 C   0  0  0  0  0  0  0  0  0  0  0  0
   -5.0309  209.4414   81.6105 C   0  0  0  0  0  0  0  0  0  0  0  0
   -5.5035  208.1445   81.0378 C   0  0  0  0  0  0  0  0  0  0  0  0
   -4.7045  206.9778   81.5192 C   0  0  0  0  0  0  0  0  0  0  0  0
   -3.2342  207.1652   81.1170 C   0  0  0  0  0  0  0  0  0  0  0  0
   -2.7859  208.3684   81.9110 C   0  0  0  0  0  0  0  0  0  0  0  0
   -1.5409  208.4123   82.4133 N   0  0  0  0  0  0  0  0  0  0  0  0
   -1.0798  209.4541   83.1438 C   0  0  0  0  0  0  0  0  0  0  0  0
   -1.9405  210.5192   83.3769 C   0  0  0  0  0  0  0  0  0  0  0  0
   -1.4873  211.5727   84.1390 C   0  0  0  0  0  0  0  0  0  0  0  0
   -0.2193  211.5730   84.6507 C   0  0  0  0  0  0  0  0  0  0  0  0
    0.6305  210.5134   84.4126 C   0  0  0  0  0  0  0  0  0  0  0  0
    0.2044  209.4428   83.6549 C   0  0  0  0  0  0  0  0  0  0  0  0
  1  2  2  0
  2  3  1  0
  2 10  1  0
  3  4  1  0
  3  8  1  0
  4  5  1  0
  5  6  1  0
  6  7  1  0
  8  7  1  6
  8  9  1  0
  9 10  2  0
  9 14  1  0
 10 11  1  0
 11 12  2  0
 12 13  1  0
 13 14  2  0
 14 15  1  0
 15 16  1  0
 16 17  2  0
 16 18  1  0
 18 19  1  0
 19 20  2  0
 19 21  1  0
 20 24  1  0
 21 22  2  0
 22 23  1  0
 23 24  2  0
 24 25  1  0
 25 26  2  0
 25 27  1  0
 26 29  1  0
 27 28  2  0
 28 29  1  0
 29 30  1  0
 30 31  1  0
 31 32  1  0
 32 33  1  0
 33 34  1  0
 33 42  2  0
 34 35  1  0
 34 39  2  0
 35 36  1  0
 36 37  1  0
 37 38  1  0
 38 39  1  0
 39 40  1  0
 40 41  2  0
 41 42  1  0
 41 46  1  0
 42 43  1  0
 43 44  2  0
 44 45  1  0
 45 46  2  0
M  END
$$$$
