
     RDKit          3D

 46 53  0  0  0  0  0  0  0  0999 V2000
   -3.7673  206.9273   82.3649 O   0  0  0  0  0  0  0  0  0  0  0  0
   -3.6301  208.1587   82.1719 C   0  0  0  0  0  0  0  0  0  0  0  0
   -2.4730  208.9091   82.4831 N   0  0  0  0  0  0  0  0  0  0  0  0
   -1.1953  208.5653   83.0613 C   0  0  0  0  0  0  0  0  0  0  0  0
   -0.1253  208.9222   82.0496 C   0  0  0  0  0  0  0  0  0  0  0  0
   -0.7003  209.5717   80.8119 C   0  0  0  0  0  0  0  0  0  0  0  0
   -1.6422  210.7089   81.1384 C   0  0  0  0  0  0  0  0  0  0  0  0
   -2.7184  210.2784   82.1109 C   0  0  1  0  0  0  0  0  0  0  0  0
   -4.0754  210.3605   81.5511 C   0  0  0  0  0  0  0  0  0  0  0  0
   -4.6011  209.0798   81.5988 C   0  0  0  0  0  0  0  0  0  0  0  0
   -5.8764  208.8468   81.1356 C   0  0  0  0  0  0  0  0  0  0  0  0
   -6.6133  209.8911   80.6306 C   0  0  0  0  0  0  0  0  0  0  0  0
   -6.0760  211.1617   80.5896 C   0  0  0  0  0  0  0  0  0  0  0  0
   -4.7988  211.4252   81.0474 C   0  0  0  0  0  0  0  0  0  0  0  0
   -4.2504  212.7362   81.0027 N   0  0  0  0  0  0  0  0  0  0  0  0
   -4.9398  213.8091   80.4025 C   0  0  0  0  0  0  0  0  0  0  0  0
   -4.2793  214.7868   79.9758 O   0  0  0  0  0  0  0  0  0  0  0  0
   -6.3686  213.8246   80.2617 N   0  0  0  0  0  0  0  0  0  0  0  0
   -7.0964  214.8652   80.8961 C   0  0  0  0  0  0  0  0  0  0  0  0
   -8.3213  215.2645   80.4053 C   0  0  0  0  0  0  0  0  0  0  0  0
   -6.6339  215.4983   81.9861 N   0  0  0  0  0  0  0  0  0  0  0  0
   -7.3336  216.4914   82.5887 C   0  0  0  0  0  0  0  0  0  0  0  0
   -8.5620  216.9069   82.1140 C   0  0  0  0  0  0  0  0  0  0  0  0
   -9.0589  216.2729   80.9961 C   0  0  0  0  0  0  0  0  0  0  0  0
  -10.3524  216.6654   80.4441 C   0  0  0  0  0  0  0  0  0  0  0  0
  -11.3808  217.2122   81.1549 C   0  0  0  0  0  0  0  0  0  0  0  0
  -10.7478  216.5580   79.1621 N   0  0  0  0  0  0  0  0  0  0  0  0
  -11.9703  217.0278   79.1247 N   0  0  0  0  0  0  0  0  0  0  0  0
  -12.4048  217.4339   80.2828 N   0  0  0  0  0  0  0  0  0  0  0  0
  -13.6896  218.0092   80.6682 C   0  0  0  0  0  0  0  0  0  0  0  0
  -13.9012  219.2828   79.9229 C   0  0  0  0  0  0  0  0  0  0  0  0
  -12.8476  220.2262   80.0333 N   0  0  0  0  0  0  0  0  0  0  0  0
  -12.2155  220.7506   78.8736 C   0  0  0  0  0  0  0  0  0  0  0  0
  -10.9749  220.1867   78.5458 C   0  0  0  0  0  0  0  0  0  0  0  0
  -10.3690  219.1059   79.3791 C   0  0  0  0  0  0  0  0  0  0  0  0
   -8.9607  219.4923   79.6941 C   0  0  0  0  0  0  0  0  0  0  0  0
   -8.1810  220.0097   78.5287 C   0  0  0  0  0  0  0  0  0  0  0  0
   -8.9452  219.9096   77.2144 C   0  0  0  0  0  0  0  0  0  0  0  0
  -10.2538  220.5939   77.4488 C   0  0  0  0  0  0  0  0  0  0  0  0
  -10.7349  221.5545   76.6606 N   0  0  0  0  0  0  0  0  0  0  0  0
  -11.9324  222.1203   76.9488 C   0  0  0  0  0  0  0  0  0  0  0  0
  -12.6892  221.7251   78.0597 C   0  0  0  0  0  0  0  0  0  0  0  0
  -13.9017  222.2952   78.3301 C   0  0  0  0  0  0  0  0  0  0  0  0
  -14.4049  223.2804   77.5076 C   0  0  0  0  0  0  0  0  0  0  0  0
  -13.6822  223.6964   76.4017 C   0  0  0  0  0  0  0  0  0  0  0  0
  -12.4679  223.1083   76.1499 C   0  0  0  0  0  0  0  0  0  0  0  0
  1  2  2  0
  2  3  1  0
  2 10  1  0
  4  3  1  1
  3  8  1  0
  5  4  1  1
  6  5  1  1
  6  7  1  0
  7  8  1  6
  8  9  1  6
  9 10  2  0
  9 14  1  0
 10 11  1  0
 11 12  2  0
 12 13  1  0
 13 14  2  0
 14 15  1  0
 15 16  1  0
 16 17  2  0
 16 18  1  0
 18 19  1  0
 19 20  2  0
 19 21  1  0
 20 24  1  0
 21 22  2  0
 22 23  1  0
 23 24  2  0
 24 25  1  0
 25 26  2  0
 25 27  1  0
 26 29  1  0
 27 28  2  0
 28 29  1  0
 30 29  1  1
 30 31  1  0
 31 32  1  6
 32 33  1  0
 33 34  1  0
 33 42  2  0
 35 34  1  1
 34 39  2  0
 36 35  1  1
 36 37  1  0
 37 38  1  6
 38 39  1  6
 39 40  1  0
 40 41  2  0
 41 42  1  0
 41 46  1  0
 42 43  1  0
 43 44  2  0
 44 45  1  0
 45 46  2  0
M  END
$$$$
