
     RDKit          3D

 46 53  0  0  0  0  0  0  0  0999 V2000
   -9.9945  221.9449   74.2000 O   0  0  0  0  0  0  0  0  0  0  0  0
  -10.6139  221.3338   75.1030 C   0  0  0  0  0  0  0  0  0  0  0  0
  -12.0134  221.1376   75.1430 N   0  0  0  0  0  0  0  0  0  0  0  0
  -13.0931  221.5232   74.2651 C   0  0  0  0  0  0  0  0  0  0  0  0
  -13.7796  220.2546   73.8012 C   0  0  0  0  0  0  0  0  0  0  0  0
  -13.1858  219.0171   74.4337 C   0  0  0  0  0  0  0  0  0  0  0  0
  -13.0631  219.1361   75.9364 C   0  0  0  0  0  0  0  0  0  0  0  0
  -12.3237  220.3940   76.3364 C   0  0  1  0  0  0  0  0  0  0  0  0
  -11.0637  220.1277   77.0458 C   0  0  0  0  0  0  0  0  0  0  0  0
  -10.0548  220.7003   76.2887 C   0  0  0  0  0  0  0  0  0  0  0  0
   -8.7478  220.6102   76.7117 C   0  0  0  0  0  0  0  0  0  0  0  0
   -8.4604  219.9513   77.8829 C   0  0  0  0  0  0  0  0  0  0  0  0
   -9.4763  219.3857   78.6265 C   0  0  0  0  0  0  0  0  0  0  0  0
  -10.7972  219.4604   78.2267 C   0  0  0  0  0  0  0  0  0  0  0  0
  -11.8396  218.8760   78.9968 N   0  0  0  0  0  0  0  0  0  0  0  0
  -11.5754  218.1616   80.1828 C   0  0  0  0  0  0  0  0  0  0  0  0
  -12.4420  218.1578   81.0901 O   0  0  0  0  0  0  0  0  0  0  0  0
  -10.3523  217.4387   80.3906 N   0  0  0  0  0  0  0  0  0  0  0  0
  -10.2160  216.6738   81.5786 C   0  0  0  0  0  0  0  0  0  0  0  0
   -9.0274  216.0399   81.8722 C   0  0  0  0  0  0  0  0  0  0  0  0
  -11.2213  216.5348   82.4578 N   0  0  0  0  0  0  0  0  0  0  0  0
  -11.0854  215.8035   83.5916 C   0  0  0  0  0  0  0  0  0  0  0  0
   -9.9042  215.1605   83.9051 C   0  0  0  0  0  0  0  0  0  0  0  0
   -8.8569  215.2875   83.0188 C   0  0  0  0  0  0  0  0  0  0  0  0
   -7.5810  214.6322   83.2919 C   0  0  0  0  0  0  0  0  0  0  0  0
   -6.3538  215.2198   83.1884 C   0  0  0  0  0  0  0  0  0  0  0  0
   -7.3969  213.3584   83.6856 N   0  0  0  0  0  0  0  0  0  0  0  0
   -6.1015  213.2061   83.8085 N   0  0  0  0  0  0  0  0  0  0  0  0
   -5.4243  214.2814   83.5257 N   0  0  0  0  0  0  0  0  0  0  0  0
   -3.9859  214.5287   83.5321 C   0  0  0  0  0  0  0  0  0  0  0  0
   -3.2728  213.2725   83.9005 C   0  0  0  0  0  0  0  0  0  0  0  0
   -3.8509  212.0816   83.3911 N   0  0  0  0  0  0  0  0  0  0  0  0
   -3.4009  211.5203   82.1655 C   0  0  0  0  0  0  0  0  0  0  0  0
   -2.2733  210.6920   82.2501 C   0  0  0  0  0  0  0  0  0  0  0  0
   -1.5975  210.4318   83.5560 C   0  0  0  0  0  0  0  0  0  0  0  0
   -0.1351  210.6837   83.3841 C   0  0  0  0  0  0  0  0  0  0  0  0
    0.4586  210.0887   82.1481 C   0  0  0  0  0  0  0  0  0  0  0  0
   -0.5285  209.2222   81.3758 C   0  0  0  0  0  0  0  0  0  0  0  0
   -1.7320  210.0792   81.1454 C   0  0  0  0  0  0  0  0  0  0  0  0
   -2.2844  210.2673   79.9476 N   0  0  0  0  0  0  0  0  0  0  0  0
   -3.3765  211.0616   79.8310 C   0  0  0  0  0  0  0  0  0  0  0  0
   -3.9498  211.6985   80.9394 C   0  0  0  0  0  0  0  0  0  0  0  0
   -5.0595  212.4859   80.8087 C   0  0  0  0  0  0  0  0  0  0  0  0
   -5.6382  212.6706   79.5712 C   0  0  0  0  0  0  0  0  0  0  0  0
   -5.0963  212.0572   78.4538 C   0  0  0  0  0  0  0  0  0  0  0  0
   -3.9827  211.2702   78.6103 C   0  0  0  0  0  0  0  0  0  0  0  0
  1  2  2  0
  2  3  1  0
  2 10  1  0
  4  3  1  1
  3  8  1  0
  5  4  1  1
  6  5  1  1
  6  7  1  0
  7  8  1  6
  8  9  1  6
  9 10  2  0
  9 14  1  0
 10 11  1  0
 11 12  2  0
 12 13  1  0
 13 14  2  0
 14 15  1  0
 15 16  1  0
 16 17  2  0
 16 18  1  0
 18 19  1  0
 19 20  2  0
 19 21  1  0
 20 24  1  0
 21 22  2  0
 22 23  1  0
 23 24  2  0
 24 25  1  0
 25 26  2  0
 25 27  1  0
 26 29  1  0
 27 28  2  0
 28 29  1  0
 30 29  1  1
 30 31  1  0
 31 32  1  6
 32 33  1  0
 33 34  1  0
 33 42  2  0
 35 34  1  1
 34 39  2  0
 36 35  1  1
 36 37  1  0
 37 38  1  6
 38 39  1  6
 39 40  1  0
 40 41  2  0
 41 42  1  0
 41 46  1  0
 42 43  1  0
 43 44  2  0
 44 45  1  0
 45 46  2  0
M  END
$$$$
