
     RDKit          3D

 46 53  0  0  0  0  0  0  0  0999 V2000
  -12.8657  223.4916   80.8081 O   0  0  0  0  0  0  0  0  0  0  0  0
  -12.3171  222.3756   80.9035 C   0  0  0  0  0  0  0  0  0  0  0  0
  -12.1417  221.6330   82.0711 N   0  0  0  0  0  0  0  0  0  0  0  0
  -12.4591  221.9042   83.4531 C   0  0  0  0  0  0  0  0  0  0  0  0
  -13.3933  220.8175   83.9518 C   0  0  0  0  0  0  0  0  0  0  0  0
  -13.0135  219.4409   83.5191 C   0  0  0  0  0  0  0  0  0  0  0  0
  -12.6238  219.3293   82.0624 C   0  0  0  0  0  0  0  0  0  0  0  0
  -11.5298  220.3674   81.7524 C   0  0  1  0  0  0  0  0  0  0  0  0
  -11.2309  220.4205   80.3256 C   0  0  0  0  0  0  0  0  0  0  0  0
  -11.7395  221.6014   79.8199 C   0  0  0  0  0  0  0  0  0  0  0  0
  -11.6286  221.9071   78.4784 C   0  0  0  0  0  0  0  0  0  0  0  0
  -11.0019  221.0213   77.6400 C   0  0  0  0  0  0  0  0  0  0  0  0
  -10.4892  219.8281   78.1689 C   0  0  0  0  0  0  0  0  0  0  0  0
  -10.5867  219.5035   79.4908 C   0  0  0  0  0  0  0  0  0  0  0  0
  -10.0592  218.3319   80.0684 N   0  0  0  0  0  0  0  0  0  0  0  0
   -9.2943  217.3498   79.4233 C   0  0  0  0  0  0  0  0  0  0  0  0
   -8.6447  217.6005   78.4104 O   0  0  0  0  0  0  0  0  0  0  0  0
   -9.2156  215.9912   79.8962 N   0  0  0  0  0  0  0  0  0  0  0  0
   -8.5158  214.9981   79.1641 C   0  0  0  0  0  0  0  0  0  0  0  0
   -8.0174  213.8600   79.7550 C   0  0  0  0  0  0  0  0  0  0  0  0
   -8.3214  215.1630   77.8226 N   0  0  0  0  0  0  0  0  0  0  0  0
   -7.6666  214.2554   77.0841 C   0  0  0  0  0  0  0  0  0  0  0  0
   -7.1777  213.1242   77.7021 C   0  0  0  0  0  0  0  0  0  0  0  0
   -7.3364  212.8921   79.0480 C   0  0  0  0  0  0  0  0  0  0  0  0
   -6.8070  211.6897   79.6612 C   0  0  0  0  0  0  0  0  0  0  0  0
   -6.9080  211.3151   80.9839 C   0  0  0  0  0  0  0  0  0  0  0  0
   -6.1120  210.6932   79.0820 N   0  0  0  0  0  0  0  0  0  0  0  0
   -5.8159  209.7802   80.0008 N   0  0  0  0  0  0  0  0  0  0  0  0
   -6.2939  210.1374   81.1815 N   0  0  0  0  0  0  0  0  0  0  0  0
   -6.1753  209.3896   82.4572 C   0  0  0  0  0  0  0  0  0  0  0  0
   -4.7059  209.2380   82.7351 C   0  0  0  0  0  0  0  0  0  0  0  0
   -4.0787  210.2720   83.4766 N   0  0  0  0  0  0  0  0  0  0  0  0
   -3.1654  211.2131   82.9228 C   0  0  0  0  0  0  0  0  0  0  0  0
   -1.8013  210.9334   82.8137 C   0  0  0  0  0  0  0  0  0  0  0  0
   -1.3307  209.6220   83.2823 C   0  0  0  0  0  0  0  0  0  0  0  0
    0.1558  209.4908   83.3617 C   0  0  0  0  0  0  0  0  0  0  0  0
    0.8479  210.8133   83.4183 C   0  0  0  0  0  0  0  0  0  0  0  0
    0.5105  211.6204   82.1559 C   0  0  0  0  0  0  0  0  0  0  0  0
   -0.9703  211.8887   82.2754 C   0  0  0  0  0  0  0  0  0  0  0  0
   -1.4721  213.0651   81.8651 N   0  0  0  0  0  0  0  0  0  0  0  0
   -2.7866  213.3746   81.9552 C   0  0  0  0  0  0  0  0  0  0  0  0
   -3.6446  212.4257   82.4965 C   0  0  0  0  0  0  0  0  0  0  0  0
   -4.9798  212.7413   82.6136 C   0  0  0  0  0  0  0  0  0  0  0  0
   -5.4510  213.9575   82.2032 C   0  0  0  0  0  0  0  0  0  0  0  0
   -4.5937  214.8933   81.6641 C   0  0  0  0  0  0  0  0  0  0  0  0
   -3.2507  214.6072   81.5361 C   0  0  0  0  0  0  0  0  0  0  0  0
  1  2  2  0
  2  3  1  0
  2 10  1  0
  3  4  1  0
  3  8  1  0
  4  5  1  0
  5  6  1  0
  6  7  1  0
  8  7  1  6
  8  9  1  0
  9 10  2  0
  9 14  1  0
 10 11  1  0
 11 12  2  0
 12 13  1  0
 13 14  2  0
 14 15  1  0
 15 16  1  0
 16 17  2  0
 16 18  1  0
 18 19  1  0
 19 20  2  0
 19 21  1  0
 20 24  1  0
 21 22  2  0
 22 23  1  0
 23 24  2  0
 24 25  1  0
 25 26  2  0
 25 27  1  0
 26 29  1  0
 27 28  2  0
 28 29  1  0
 29 30  1  0
 30 31  1  0
 31 32  1  0
 32 33  1  0
 33 34  1  0
 33 42  2  0
 34 35  1  0
 34 39  2  0
 35 36  1  0
 36 37  1  0
 37 38  1  0
 38 39  1  0
 39 40  1  0
 40 41  2  0
 41 42  1  0
 41 46  1  0
 42 43  1  0
 43 44  2  0
 44 45  1  0
 45 46  2  0
M  END
$$$$
