
     RDKit          3D

 46 53  0  0  0  0  0  0  0  0999 V2000
  -12.2708  223.0711   75.4784 O   0  0  0  0  0  0  0  0  0  0  0  0
  -11.5544  222.3824   76.2319 C   0  0  0  0  0  0  0  0  0  0  0  0
  -10.2246  222.0224   76.0138 N   0  0  0  0  0  0  0  0  0  0  0  0
   -9.3212  222.2581   74.9127 C   0  0  0  0  0  0  0  0  0  0  0  0
   -8.1108  223.0069   75.4385 C   0  0  0  0  0  0  0  0  0  0  0  0
   -7.5964  222.4954   76.7425 C   0  0  0  0  0  0  0  0  0  0  0  0
   -8.6694  222.2140   77.7700 C   0  0  0  0  0  0  0  0  0  0  0  0
   -9.7301  221.2859   77.1500 C   0  0  1  0  0  0  0  0  0  0  0  0
  -10.8744  221.1123   78.0377 C   0  0  0  0  0  0  0  0  0  0  0  0
  -11.9456  221.8027   77.5040 C   0  0  0  0  0  0  0  0  0  0  0  0
  -13.1631  221.8395   78.1533 C   0  0  0  0  0  0  0  0  0  0  0  0
  -13.3055  221.1776   79.3458 C   0  0  0  0  0  0  0  0  0  0  0  0
  -12.2097  220.4797   79.8733 C   0  0  0  0  0  0  0  0  0  0  0  0
  -10.9965  220.4289   79.2505 C   0  0  0  0  0  0  0  0  0  0  0  0
   -9.8802  219.7152   79.7291 N   0  0  0  0  0  0  0  0  0  0  0  0
   -9.5692  218.3727   79.4704 C   0  0  0  0  0  0  0  0  0  0  0  0
   -8.4629  218.0358   79.0539 O   0  0  0  0  0  0  0  0  0  0  0  0
  -10.5136  217.3036   79.6721 N   0  0  0  0  0  0  0  0  0  0  0  0
  -10.3591  216.3781   80.7359 C   0  0  0  0  0  0  0  0  0  0  0  0
   -9.1767  215.7153   80.9713 C   0  0  0  0  0  0  0  0  0  0  0  0
  -11.4136  216.1247   81.5657 N   0  0  0  0  0  0  0  0  0  0  0  0
  -11.3213  215.2591   82.5856 C   0  0  0  0  0  0  0  0  0  0  0  0
  -10.1245  214.6089   82.7984 C   0  0  0  0  0  0  0  0  0  0  0  0
   -9.0217  214.8148   82.0035 C   0  0  0  0  0  0  0  0  0  0  0  0
   -7.7803  214.1110   82.2598 C   0  0  0  0  0  0  0  0  0  0  0  0
   -7.5989  213.0081   83.0665 C   0  0  0  0  0  0  0  0  0  0  0  0
   -6.5536  214.3773   81.7742 N   0  0  0  0  0  0  0  0  0  0  0  0
   -5.6928  213.4894   82.2601 N   0  0  0  0  0  0  0  0  0  0  0  0
   -6.3094  212.6340   83.0591 N   0  0  0  0  0  0  0  0  0  0  0  0
   -5.7000  211.4977   83.7926 C   0  0  0  0  0  0  0  0  0  0  0  0
   -5.2576  210.5015   82.7576 C   0  0  0  0  0  0  0  0  0  0  0  0
   -4.6346  211.0153   81.5913 N   0  0  0  0  0  0  0  0  0  0  0  0
   -3.2260  211.0680   81.3935 C   0  0  0  0  0  0  0  0  0  0  0  0
   -2.6230  212.1155   80.6935 C   0  0  0  0  0  0  0  0  0  0  0  0
   -3.4915  213.1792   80.1693 C   0  0  0  0  0  0  0  0  0  0  0  0
   -2.8137  214.1249   79.2314 C   0  0  0  0  0  0  0  0  0  0  0  0
   -1.5652  213.5547   78.6422 C   0  0  0  0  0  0  0  0  0  0  0  0
   -0.5777  213.2157   79.7686 C   0  0  0  0  0  0  0  0  0  0  0  0
   -1.2568  212.1038   80.5312 C   0  0  0  0  0  0  0  0  0  0  0  0
   -0.5258  211.0989   81.0410 N   0  0  0  0  0  0  0  0  0  0  0  0
   -1.0722  210.0658   81.7236 C   0  0  0  0  0  0  0  0  0  0  0  0
   -2.4501  210.0558   81.8990 C   0  0  0  0  0  0  0  0  0  0  0  0
   -3.0169  208.9965   82.5719 C   0  0  0  0  0  0  0  0  0  0  0  0
   -2.2421  207.9809   83.0596 C   0  0  0  0  0  0  0  0  0  0  0  0
   -0.8745  207.9992   82.8841 C   0  0  0  0  0  0  0  0  0  0  0  0
   -0.2781  209.0456   82.2123 C   0  0  0  0  0  0  0  0  0  0  0  0
  1  2  2  0
  2  3  1  0
  2 10  1  0
  3  4  1  0
  3  8  1  0
  4  5  1  0
  5  6  1  0
  6  7  1  0
  8  7  1  1
  8  9  1  0
  9 10  2  0
  9 14  1  0
 10 11  1  0
 11 12  2  0
 12 13  1  0
 13 14  2  0
 14 15  1  0
 15 16  1  0
 16 17  2  0
 16 18  1  0
 18 19  1  0
 19 20  2  0
 19 21  1  0
 20 24  1  0
 21 22  2  0
 22 23  1  0
 23 24  2  0
 24 25  1  0
 25 26  2  0
 25 27  1  0
 26 29  1  0
 27 28  2  0
 28 29  1  0
 29 30  1  0
 30 31  1  0
 31 32  1  0
 32 33  1  0
 33 34  1  0
 33 42  2  0
 34 35  1  0
 34 39  2  0
 35 36  1  0
 36 37  1  0
 37 38  1  0
 38 39  1  0
 39 40  1  0
 40 41  2  0
 41 42  1  0
 41 46  1  0
 42 43  1  0
 43 44  2  0
 44 45  1  0
 45 46  2  0
M  END
$$$$
