
     RDKit          3D

 46 53  0  0  0  0  0  0  0  0999 V2000
  -14.6435  223.2285   79.8639 O   0  0  0  0  0  0  0  0  0  0  0  0
  -13.8955  222.2258   79.9509 C   0  0  0  0  0  0  0  0  0  0  0  0
  -13.3081  221.7474   81.1446 N   0  0  0  0  0  0  0  0  0  0  0  0
  -13.3566  222.1891   82.5185 C   0  0  0  0  0  0  0  0  0  0  0  0
  -13.9290  221.0541   83.3431 C   0  0  0  0  0  0  0  0  0  0  0  0
  -14.2013  219.8218   82.5116 C   0  0  0  0  0  0  0  0  0  0  0  0
  -13.0177  219.4258   81.6575 C   0  0  0  0  0  0  0  0  0  0  0  0
  -12.5243  220.5843   80.8187 C   0  0  1  0  0  0  0  0  0  0  0  0
  -12.6427  220.3477   79.3725 C   0  0  0  0  0  0  0  0  0  0  0  0
  -13.4676  221.3431   78.8750 C   0  0  0  0  0  0  0  0  0  0  0  0
  -13.7626  221.3779   77.5308 C   0  0  0  0  0  0  0  0  0  0  0  0
  -13.2333  220.4218   76.6976 C   0  0  0  0  0  0  0  0  0  0  0  0
  -12.4129  219.4361   77.2079 C   0  0  0  0  0  0  0  0  0  0  0  0
  -12.0996  219.3762   78.5527 C   0  0  0  0  0  0  0  0  0  0  0  0
  -11.2538  218.3586   79.0727 N   0  0  0  0  0  0  0  0  0  0  0  0
  -10.7291  217.3388   78.2534 C   0  0  0  0  0  0  0  0  0  0  0  0
  -10.8563  217.4397   77.0093 O   0  0  0  0  0  0  0  0  0  0  0  0
  -10.0552  216.1898   78.7895 N   0  0  0  0  0  0  0  0  0  0  0  0
   -8.6398  216.2268   78.8924 C   0  0  0  0  0  0  0  0  0  0  0  0
   -7.9838  215.4500   79.8234 C   0  0  0  0  0  0  0  0  0  0  0  0
   -7.8863  217.0065   78.1004 N   0  0  0  0  0  0  0  0  0  0  0  0
   -6.5345  217.0374   78.2024 C   0  0  0  0  0  0  0  0  0  0  0  0
   -5.8573  216.2677   79.1276 C   0  0  0  0  0  0  0  0  0  0  0  0
   -6.6078  215.4587   79.9525 C   0  0  0  0  0  0  0  0  0  0  0  0
   -5.9523  214.6203   80.9521 C   0  0  0  0  0  0  0  0  0  0  0  0
   -6.5843  213.9586   81.9644 C   0  0  0  0  0  0  0  0  0  0  0  0
   -4.6354  214.3594   81.0473 N   0  0  0  0  0  0  0  0  0  0  0  0
   -4.5017  213.5691   82.0837 N   0  0  0  0  0  0  0  0  0  0  0  0
   -5.6290  213.2931   82.6736 N   0  0  0  0  0  0  0  0  0  0  0  0
   -5.9131  212.4692   83.8443 C   0  0  0  0  0  0  0  0  0  0  0  0
   -5.4732  211.0697   83.5789 C   0  0  0  0  0  0  0  0  0  0  0  0
   -4.1464  210.9383   83.0947 N   0  0  0  0  0  0  0  0  0  0  0  0
   -3.8084  209.9178   82.1653 C   0  0  0  0  0  0  0  0  0  0  0  0
   -2.5444  209.3350   82.3303 C   0  0  0  0  0  0  0  0  0  0  0  0
   -1.6222  209.7764   83.4186 C   0  0  0  0  0  0  0  0  0  0  0  0
   -0.2855  210.0574   82.8136 C   0  0  0  0  0  0  0  0  0  0  0  0
    0.1962  209.0161   81.8556 C   0  0  0  0  0  0  0  0  0  0  0  0
   -0.7205  207.8007   81.7929 C   0  0  0  0  0  0  0  0  0  0  0  0
   -2.0879  208.3338   81.5066 C   0  0  0  0  0  0  0  0  0  0  0  0
   -2.8588  207.8909   80.5143 N   0  0  0  0  0  0  0  0  0  0  0  0
   -4.0873  208.4323   80.3278 C   0  0  0  0  0  0  0  0  0  0  0  0
   -4.5787  209.4534   81.1518 C   0  0  0  0  0  0  0  0  0  0  0  0
   -5.8252  209.9804   80.9601 C   0  0  0  0  0  0  0  0  0  0  0  0
   -6.6276  209.5135   79.9409 C   0  0  0  0  0  0  0  0  0  0  0  0
   -6.1726  208.5061   79.1064 C   0  0  0  0  0  0  0  0  0  0  0  0
   -4.9181  207.9916   79.3194 C   0  0  0  0  0  0  0  0  0  0  0  0
  1  2  2  0
  2  3  1  0
  2 10  1  0
  4  3  1  1
  3  8  1  0
  5  4  1  1
  6  5  1  1
  6  7  1  0
  7  8  1  6
  8  9  1  6
  9 10  2  0
  9 14  1  0
 10 11  1  0
 11 12  2  0
 12 13  1  0
 13 14  2  0
 14 15  1  0
 15 16  1  0
 16 17  2  0
 16 18  1  0
 18 19  1  0
 19 20  2  0
 19 21  1  0
 20 24  1  0
 21 22  2  0
 22 23  1  0
 23 24  2  0
 24 25  1  0
 25 26  2  0
 25 27  1  0
 26 29  1  0
 27 28  2  0
 28 29  1  0
 30 29  1  1
 30 31  1  0
 31 32  1  6
 32 33  1  0
 33 34  1  0
 33 42  2  0
 35 34  1  1
 34 39  2  0
 36 35  1  1
 36 37  1  0
 37 38  1  6
 38 39  1  6
 39 40  1  0
 40 41  2  0
 41 42  1  0
 41 46  1  0
 42 43  1  0
 43 44  2  0
 44 45  1  0
 45 46  2  0
M  END
$$$$
