
     RDKit          3D

 46 53  0  0  0  0  0  0  0  0999 V2000
  -14.4338  224.1251   76.1482 O   0  0  0  0  0  0  0  0  0  0  0  0
  -13.8647  223.2152   76.7835 C   0  0  0  0  0  0  0  0  0  0  0  0
  -12.8439  222.3880   76.3154 N   0  0  0  0  0  0  0  0  0  0  0  0
  -12.1934  222.2773   75.0313 C   0  0  0  0  0  0  0  0  0  0  0  0
  -10.7080  222.5196   75.2247 C   0  0  0  0  0  0  0  0  0  0  0  0
  -10.1316  221.8462   76.4250 C   0  0  0  0  0  0  0  0  0  0  0  0
  -10.9686  221.9780   77.6774 C   0  0  0  0  0  0  0  0  0  0  0  0
  -12.4052  221.5141   77.3745 C   0  0  1  0  0  0  0  0  0  0  0  0
  -13.2995  221.7732   78.4974 C   0  0  0  0  0  0  0  0  0  0  0  0
  -14.1383  222.8152   78.1518 C   0  0  0  0  0  0  0  0  0  0  0  0
  -15.0767  223.2983   79.0414 C   0  0  0  0  0  0  0  0  0  0  0  0
  -15.1736  222.7300   80.2856 C   0  0  0  0  0  0  0  0  0  0  0  0
  -14.3166  221.6718   80.6204 C   0  0  0  0  0  0  0  0  0  0  0  0
  -13.3812  221.1773   79.7587 C   0  0  0  0  0  0  0  0  0  0  0  0
  -12.5227  220.0971   80.0428 N   0  0  0  0  0  0  0  0  0  0  0  0
  -12.4904  219.3391   81.2219 C   0  0  0  0  0  0  0  0  0  0  0  0
  -13.4256  219.3471   82.0195 O   0  0  0  0  0  0  0  0  0  0  0  0
  -11.3710  218.5056   81.5793 N   0  0  0  0  0  0  0  0  0  0  0  0
  -10.5210  217.9525   80.5875 C   0  0  0  0  0  0  0  0  0  0  0  0
   -9.5975  216.9727   80.8703 C   0  0  0  0  0  0  0  0  0  0  0  0
  -10.6101  218.3986   79.3000 N   0  0  0  0  0  0  0  0  0  0  0  0
   -9.8302  217.9102   78.3247 C   0  0  0  0  0  0  0  0  0  0  0  0
   -8.9135  216.9288   78.6362 C   0  0  0  0  0  0  0  0  0  0  0  0
   -8.7689  216.4323   79.9102 C   0  0  0  0  0  0  0  0  0  0  0  0
   -7.7924  215.3999   80.1979 C   0  0  0  0  0  0  0  0  0  0  0  0
   -7.6915  214.6454   81.3470 C   0  0  0  0  0  0  0  0  0  0  0  0
   -6.7871  214.9606   79.4182 N   0  0  0  0  0  0  0  0  0  0  0  0
   -6.1265  214.0035   80.0610 N   0  0  0  0  0  0  0  0  0  0  0  0
   -6.6619  213.7888   81.2515 N   0  0  0  0  0  0  0  0  0  0  0  0
   -6.2158  212.8044   82.2677 C   0  0  0  0  0  0  0  0  0  0  0  0
   -4.7179  212.7279   82.1681 C   0  0  0  0  0  0  0  0  0  0  0  0
   -4.0902  211.5891   82.7348 N   0  0  0  0  0  0  0  0  0  0  0  0
   -2.7230  211.2464   82.5352 C   0  0  0  0  0  0  0  0  0  0  0  0
   -2.2600  209.9418   82.7208 C   0  0  0  0  0  0  0  0  0  0  0  0
   -3.2359  208.9186   83.1225 C   0  0  0  0  0  0  0  0  0  0  0  0
   -2.6312  207.6164   83.5371 C   0  0  0  0  0  0  0  0  0  0  0  0
   -1.1931  207.7458   83.9198 C   0  0  0  0  0  0  0  0  0  0  0  0
   -0.3924  208.2800   82.7229 C   0  0  0  0  0  0  0  0  0  0  0  0
   -0.9250  209.6777   82.5181 C   0  0  0  0  0  0  0  0  0  0  0  0
   -0.0912  210.6636   82.1484 N   0  0  0  0  0  0  0  0  0  0  0  0
   -0.5004  211.9400   81.9601 C   0  0  0  0  0  0  0  0  0  0  0  0
   -1.8439  212.2305   82.1600 C   0  0  0  0  0  0  0  0  0  0  0  0
   -2.2644  213.5311   81.9934 C   0  0  0  0  0  0  0  0  0  0  0  0
   -1.3821  214.5124   81.6359 C   0  0  0  0  0  0  0  0  0  0  0  0
   -0.0502  214.2159   81.4364 C   0  0  0  0  0  0  0  0  0  0  0  0
    0.4013  212.9229   81.5979 C   0  0  0  0  0  0  0  0  0  0  0  0
  1  2  2  0
  2  3  1  0
  2 10  1  0
  3  4  1  0
  3  8  1  0
  4  5  1  0
  5  6  1  0
  6  7  1  0
  8  7  1  1
  8  9  1  0
  9 10  2  0
  9 14  1  0
 10 11  1  0
 11 12  2  0
 12 13  1  0
 13 14  2  0
 14 15  1  0
 15 16  1  0
 16 17  2  0
 16 18  1  0
 18 19  1  0
 19 20  2  0
 19 21  1  0
 20 24  1  0
 21 22  2  0
 22 23  1  0
 23 24  2  0
 24 25  1  0
 25 26  2  0
 25 27  1  0
 26 29  1  0
 27 28  2  0
 28 29  1  0
 29 30  1  0
 30 31  1  0
 31 32  1  0
 32 33  1  0
 33 34  1  0
 33 42  2  0
 34 35  1  0
 34 39  2  0
 35 36  1  0
 36 37  1  0
 37 38  1  0
 38 39  1  0
 39 40  1  0
 40 41  2  0
 41 42  1  0
 41 46  1  0
 42 43  1  0
 43 44  2  0
 44 45  1  0
 45 46  2  0
M  END
$$$$
