
     RDKit          3D

 46 53  0  0  0  0  0  0  0  0999 V2000
  -13.9470  223.3645   79.4665 O   0  0  0  0  0  0  0  0  0  0  0  0
  -13.1730  222.4079   79.7079 C   0  0  0  0  0  0  0  0  0  0  0  0
  -13.1167  221.6914   80.9253 N   0  0  0  0  0  0  0  0  0  0  0  0
  -13.8426  221.7939   82.1694 C   0  0  0  0  0  0  0  0  0  0  0  0
  -14.5416  220.4697   82.4006 C   0  0  0  0  0  0  0  0  0  0  0  0
  -14.2196  219.4561   81.3268 C   0  0  0  0  0  0  0  0  0  0  0  0
  -12.7337  219.3317   81.0741 C   0  0  0  0  0  0  0  0  0  0  0  0
  -12.1015  220.6782   80.7978 C   0  0  1  0  0  0  0  0  0  0  0  0
  -11.5217  220.7835   79.4508 C   0  0  0  0  0  0  0  0  0  0  0  0
  -12.1786  221.8260   78.8179 C   0  0  0  0  0  0  0  0  0  0  0  0
  -11.8417  222.1620   77.5260 C   0  0  0  0  0  0  0  0  0  0  0  0
  -10.8554  221.4566   76.8795 C   0  0  0  0  0  0  0  0  0  0  0  0
  -10.2098  220.4203   77.5232 C   0  0  0  0  0  0  0  0  0  0  0  0
  -10.5269  220.0608   78.8195 C   0  0  0  0  0  0  0  0  0  0  0  0
   -9.8584  218.9925   79.4776 N   0  0  0  0  0  0  0  0  0  0  0  0
   -8.8987  218.1985   78.8178 C   0  0  0  0  0  0  0  0  0  0  0  0
   -9.0390  217.9785   77.5906 O   0  0  0  0  0  0  0  0  0  0  0  0
   -7.7677  217.6327   79.4978 N   0  0  0  0  0  0  0  0  0  0  0  0
   -7.3363  216.3338   79.1210 C   0  0  0  0  0  0  0  0  0  0  0  0
   -7.0667  215.3792   80.0784 C   0  0  0  0  0  0  0  0  0  0  0  0
   -7.1743  215.9799   77.8359 N   0  0  0  0  0  0  0  0  0  0  0  0
   -6.7627  214.7374   77.4815 C   0  0  0  0  0  0  0  0  0  0  0  0
   -6.4872  213.7662   78.4238 C   0  0  0  0  0  0  0  0  0  0  0  0
   -6.6458  214.1044   79.7501 C   0  0  0  0  0  0  0  0  0  0  0  0
   -6.3708  213.1229   80.7955 C   0  0  0  0  0  0  0  0  0  0  0  0
   -6.2838  211.7740   80.6087 C   0  0  0  0  0  0  0  0  0  0  0  0
   -6.1595  213.3733   82.1009 N   0  0  0  0  0  0  0  0  0  0  0  0
   -5.9551  212.2062   82.6601 N   0  0  0  0  0  0  0  0  0  0  0  0
   -6.0164  211.2122   81.8215 N   0  0  0  0  0  0  0  0  0  0  0  0
   -5.8550  209.7773   82.0340 C   0  0  0  0  0  0  0  0  0  0  0  0
   -5.0038  209.5512   83.2368 C   0  0  0  0  0  0  0  0  0  0  0  0
   -4.1400  210.6251   83.5724 N   0  0  0  0  0  0  0  0  0  0  0  0
   -2.7336  210.4335   83.6428 C   0  0  0  0  0  0  0  0  0  0  0  0
   -2.0179  210.7226   82.4729 C   0  0  0  0  0  0  0  0  0  0  0  0
   -2.7093  211.1968   81.2372 C   0  0  0  0  0  0  0  0  0  0  0  0
   -2.2493  210.3553   80.0918 C   0  0  0  0  0  0  0  0  0  0  0  0
   -0.7724  210.1322   80.0361 C   0  0  0  0  0  0  0  0  0  0  0  0
   -0.0138  210.9283   81.0907 C   0  0  0  0  0  0  0  0  0  0  0  0
   -0.6522  210.5867   82.3990 C   0  0  0  0  0  0  0  0  0  0  0  0
    0.0293  210.1679   83.4645 N   0  0  0  0  0  0  0  0  0  0  0  0
   -0.6322  209.8806   84.6122 C   0  0  0  0  0  0  0  0  0  0  0  0
   -2.0234  210.0102   84.7165 C   0  0  0  0  0  0  0  0  0  0  0  0
   -2.6755  209.7300   85.8847 C   0  0  0  0  0  0  0  0  0  0  0  0
   -1.9689  209.3084   86.9908 C   0  0  0  0  0  0  0  0  0  0  0  0
   -0.5927  209.1677   86.9221 C   0  0  0  0  0  0  0  0  0  0  0  0
    0.0400  209.4563   85.7388 C   0  0  0  0  0  0  0  0  0  0  0  0
  1  2  2  0
  2  3  1  0
  2 10  1  0
  4  3  1  1
  3  8  1  0
  5  4  1  1
  6  5  1  1
  6  7  1  0
  7  8  1  6
  8  9  1  6
  9 10  2  0
  9 14  1  0
 10 11  1  0
 11 12  2  0
 12 13  1  0
 13 14  2  0
 14 15  1  0
 15 16  1  0
 16 17  2  0
 16 18  1  0
 18 19  1  0
 19 20  2  0
 19 21  1  0
 20 24  1  0
 21 22  2  0
 22 23  1  0
 23 24  2  0
 24 25  1  0
 25 26  2  0
 25 27  1  0
 26 29  1  0
 27 28  2  0
 28 29  1  0
 30 29  1  1
 30 31  1  0
 31 32  1  6
 32 33  1  0
 33 34  1  0
 33 42  2  0
 35 34  1  1
 34 39  2  0
 36 35  1  1
 36 37  1  0
 37 38  1  6
 38 39  1  6
 39 40  1  0
 40 41  2  0
 41 42  1  0
 41 46  1  0
 42 43  1  0
 43 44  2  0
 44 45  1  0
 45 46  2  0
M  END
$$$$
