
     RDKit          3D

 46 53  0  0  0  0  0  0  0  0999 V2000
  -15.1753  223.9815   77.6871 O   0  0  0  0  0  0  0  0  0  0  0  0
  -14.6164  223.1628   78.4439 C   0  0  0  0  0  0  0  0  0  0  0  0
  -15.0933  222.7078   79.6731 N   0  0  0  0  0  0  0  0  0  0  0  0
  -16.2668  223.0414   80.4449 C   0  0  0  0  0  0  0  0  0  0  0  0
  -17.0745  221.7749   80.6595 C   0  0  0  0  0  0  0  0  0  0  0  0
  -16.2529  220.5798   81.0107 C   0  0  0  0  0  0  0  0  0  0  0  0
  -15.0081  220.4086   80.1696 C   0  0  0  0  0  0  0  0  0  0  0  0
  -14.1933  221.7147   80.2037 C   0  0  1  0  0  0  0  0  0  0  0  0
  -13.0665  221.6671   79.2786 C   0  0  0  0  0  0  0  0  0  0  0  0
  -13.3450  222.5014   78.2132 C   0  0  0  0  0  0  0  0  0  0  0  0
  -12.4607  222.6315   77.1612 C   0  0  0  0  0  0  0  0  0  0  0  0
  -11.2888  221.9197   77.1806 C   0  0  0  0  0  0  0  0  0  0  0  0
  -11.0197  221.0789   78.2700 C   0  0  0  0  0  0  0  0  0  0  0  0
  -11.8779  220.9334   79.3210 C   0  0  0  0  0  0  0  0  0  0  0  0
  -11.6332  220.1247   80.4483 N   0  0  0  0  0  0  0  0  0  0  0  0
  -10.3851  219.8343   81.0172 C   0  0  0  0  0  0  0  0  0  0  0  0
   -9.5944  220.7235   81.3254 O   0  0  0  0  0  0  0  0  0  0  0  0
   -9.9446  218.4877   81.2784 N   0  0  0  0  0  0  0  0  0  0  0  0
   -8.5823  218.2001   81.5494 C   0  0  0  0  0  0  0  0  0  0  0  0
   -8.1381  216.9281   81.8281 C   0  0  0  0  0  0  0  0  0  0  0  0
   -7.6656  219.2122   81.5373 N   0  0  0  0  0  0  0  0  0  0  0  0
   -6.3663  218.9950   81.7871 C   0  0  0  0  0  0  0  0  0  0  0  0
   -5.9488  217.7105   82.0632 C   0  0  0  0  0  0  0  0  0  0  0  0
   -6.8155  216.6436   82.0924 C   0  0  0  0  0  0  0  0  0  0  0  0
   -6.3374  215.3070   82.3875 C   0  0  0  0  0  0  0  0  0  0  0  0
   -7.0949  214.1652   82.5370 C   0  0  0  0  0  0  0  0  0  0  0  0
   -5.0698  214.8964   82.5773 N   0  0  0  0  0  0  0  0  0  0  0  0
   -5.0695  213.5909   82.8249 N   0  0  0  0  0  0  0  0  0  0  0  0
   -6.3035  213.1144   82.8062 N   0  0  0  0  0  0  0  0  0  0  0  0
   -6.7227  211.7099   83.0348 C   0  0  0  0  0  0  0  0  0  0  0  0
   -5.8803  210.8540   82.1308 C   0  0  0  0  0  0  0  0  0  0  0  0
   -4.7739  210.1882   82.7180 N   0  0  0  0  0  0  0  0  0  0  0  0
   -4.1526  209.0312   82.1690 C   0  0  0  0  0  0  0  0  0  0  0  0
   -2.8325  208.6931   82.4755 C   0  0  0  0  0  0  0  0  0  0  0  0
   -2.0973  209.5690   83.3990 C   0  0  0  0  0  0  0  0  0  0  0  0
   -0.6324  209.2862   83.4852 C   0  0  0  0  0  0  0  0  0  0  0  0
   -0.1232  208.5246   82.3054 C   0  0  0  0  0  0  0  0  0  0  0  0
   -0.8601  207.1807   82.2085 C   0  0  0  0  0  0  0  0  0  0  0  0
   -2.2884  207.5650   81.9061 C   0  0  0  0  0  0  0  0  0  0  0  0
   -3.0221  206.8096   81.0723 N   0  0  0  0  0  0  0  0  0  0  0  0
   -4.3030  207.1041   80.7492 C   0  0  0  0  0  0  0  0  0  0  0  0
   -4.8732  208.2392   81.3114 C   0  0  0  0  0  0  0  0  0  0  0  0
   -6.1682  208.5591   80.9698 C   0  0  0  0  0  0  0  0  0  0  0  0
   -6.8775  207.7767   80.1014 C   0  0  0  0  0  0  0  0  0  0  0  0
   -6.3057  206.6497   79.5495 C   0  0  0  0  0  0  0  0  0  0  0  0
   -5.0097  206.3046   79.8707 C   0  0  0  0  0  0  0  0  0  0  0  0
  1  2  2  0
  2  3  1  0
  2 10  1  0
  3  4  1  0
  3  8  1  0
  4  5  1  0
  5  6  1  0
  6  7  1  0
  8  7  1  6
  8  9  1  0
  9 10  2  0
  9 14  1  0
 10 11  1  0
 11 12  2  0
 12 13  1  0
 13 14  2  0
 14 15  1  0
 15 16  1  0
 16 17  2  0
 16 18  1  0
 18 19  1  0
 19 20  2  0
 19 21  1  0
 20 24  1  0
 21 22  2  0
 22 23  1  0
 23 24  2  0
 24 25  1  0
 25 26  2  0
 25 27  1  0
 26 29  1  0
 27 28  2  0
 28 29  1  0
 29 30  1  0
 30 31  1  0
 31 32  1  0
 32 33  1  0
 33 34  1  0
 33 42  2  0
 34 35  1  0
 34 39  2  0
 35 36  1  0
 36 37  1  0
 37 38  1  0
 38 39  1  0
 39 40  1  0
 40 41  2  0
 41 42  1  0
 41 46  1  0
 42 43  1  0
 43 44  2  0
 44 45  1  0
 45 46  2  0
M  END
$$$$
