
     RDKit          3D

 46 53  0  0  0  0  0  0  0  0999 V2000
  -13.3636  222.2305   81.9112 O   0  0  0  0  0  0  0  0  0  0  0  0
  -12.8389  221.1989   81.4464 C   0  0  0  0  0  0  0  0  0  0  0  0
  -13.4909  220.0098   81.1200 N   0  0  0  0  0  0  0  0  0  0  0  0
  -14.8653  219.5871   81.2489 C   0  0  0  0  0  0  0  0  0  0  0  0
  -15.3840  219.2191   79.8713 C   0  0  0  0  0  0  0  0  0  0  0  0
  -14.4231  218.4270   79.0494 C   0  0  0  0  0  0  0  0  0  0  0  0
  -13.0020  218.9426   79.0800 C   0  0  0  0  0  0  0  0  0  0  0  0
  -12.5484  219.0833   80.5447 C   0  0  1  0  0  0  0  0  0  0  0  0
  -11.2457  219.7324   80.6418 C   0  0  0  0  0  0  0  0  0  0  0  0
  -11.4328  221.0069   81.1415 C   0  0  0  0  0  0  0  0  0  0  0  0
  -10.3673  221.8676   81.3123 C   0  0  0  0  0  0  0  0  0  0  0  0
   -9.1059  221.4448   80.9800 C   0  0  0  0  0  0  0  0  0  0  0  0
   -8.9322  220.1479   80.4761 C   0  0  0  0  0  0  0  0  0  0  0  0
   -9.9694  219.2791   80.2981 C   0  0  0  0  0  0  0  0  0  0  0  0
   -9.8356  217.9590   79.8248 N   0  0  0  0  0  0  0  0  0  0  0  0
   -8.6877  217.3813   79.2640 C   0  0  0  0  0  0  0  0  0  0  0  0
   -7.5592  217.7078   79.6255 O   0  0  0  0  0  0  0  0  0  0  0  0
   -8.7478  216.3747   78.2351 N   0  0  0  0  0  0  0  0  0  0  0  0
   -7.9272  215.2190   78.2894 C   0  0  0  0  0  0  0  0  0  0  0  0
   -7.7665  214.4816   79.4398 C   0  0  0  0  0  0  0  0  0  0  0  0
   -7.2653  214.8104   77.1671 N   0  0  0  0  0  0  0  0  0  0  0  0
   -6.4769  213.7258   77.1641 C   0  0  0  0  0  0  0  0  0  0  0  0
   -6.3340  213.0056   78.3308 C   0  0  0  0  0  0  0  0  0  0  0  0
   -6.9699  213.3581   79.4978 C   0  0  0  0  0  0  0  0  0  0  0  0
   -6.7937  212.5745   80.7049 C   0  0  0  0  0  0  0  0  0  0  0  0
   -6.5653  211.2180   80.7917 C   0  0  0  0  0  0  0  0  0  0  0  0
   -6.8150  212.9941   81.9835 N   0  0  0  0  0  0  0  0  0  0  0  0
   -6.6122  211.9536   82.7846 N   0  0  0  0  0  0  0  0  0  0  0  0
   -6.4553  210.8466   82.0774 N   0  0  0  0  0  0  0  0  0  0  0  0
   -6.2082  209.4801   82.5993 C   0  0  0  0  0  0  0  0  0  0  0  0
   -4.7202  209.3407   82.7604 C   0  0  0  0  0  0  0  0  0  0  0  0
   -3.9024  210.1743   81.9550 N   0  0  0  0  0  0  0  0  0  0  0  0
   -2.6596  210.7250   82.3775 C   0  0  0  0  0  0  0  0  0  0  0  0
   -1.5607  210.7982   81.5184 C   0  0  0  0  0  0  0  0  0  0  0  0
   -1.7275  210.2945   80.1476 C   0  0  0  0  0  0  0  0  0  0  0  0
   -0.4552  210.1793   79.3722 C   0  0  0  0  0  0  0  0  0  0  0  0
    0.7518  210.1322   80.2509 C   0  0  0  0  0  0  0  0  0  0  0  0
    0.8231  211.4168   81.0896 C   0  0  0  0  0  0  0  0  0  0  0  0
   -0.3855  211.3357   81.9905 C   0  0  0  0  0  0  0  0  0  0  0  0
   -0.3074  211.7793   83.2559 N   0  0  0  0  0  0  0  0  0  0  0  0
   -1.3484  211.7246   84.1192 C   0  0  0  0  0  0  0  0  0  0  0  0
   -2.5450  211.1848   83.6649 C   0  0  0  0  0  0  0  0  0  0  0  0
   -3.6021  211.1038   84.5435 C   0  0  0  0  0  0  0  0  0  0  0  0
   -3.4789  211.5475   85.8309 C   0  0  0  0  0  0  0  0  0  0  0  0
   -2.2887  212.0848   86.2739 C   0  0  0  0  0  0  0  0  0  0  0  0
   -1.2113  212.1772   85.4179 C   0  0  0  0  0  0  0  0  0  0  0  0
  1  2  2  0
  2  3  1  0
  2 10  1  0
  3  4  1  0
  3  8  1  0
  4  5  1  0
  5  6  1  0
  6  7  1  0
  8  7  1  6
  8  9  1  0
  9 10  2  0
  9 14  1  0
 10 11  1  0
 11 12  2  0
 12 13  1  0
 13 14  2  0
 14 15  1  0
 15 16  1  0
 16 17  2  0
 16 18  1  0
 18 19  1  0
 19 20  2  0
 19 21  1  0
 20 24  1  0
 21 22  2  0
 22 23  1  0
 23 24  2  0
 24 25  1  0
 25 26  2  0
 25 27  1  0
 26 29  1  0
 27 28  2  0
 28 29  1  0
 29 30  1  0
 30 31  1  0
 31 32  1  0
 32 33  1  0
 33 34  1  0
 33 42  2  0
 34 35  1  0
 34 39  2  0
 35 36  1  0
 36 37  1  0
 37 38  1  0
 38 39  1  0
 39 40  1  0
 40 41  2  0
 41 42  1  0
 41 46  1  0
 42 43  1  0
 43 44  2  0
 44 45  1  0
 45 46  2  0
M  END
$$$$
