
     RDKit          3D

 32 34  0  0  0  0  0  0  0  0999 V2000
   12.8676   -8.6641   22.6895 C   0  0  0  0  0  0  0  0  0  0  0  0
   11.0741   -9.7101   23.8175 C   0  0  0  0  0  0  0  0  0  0  0  0
   10.9832  -10.6193   22.7840 C   0  0  0  0  0  0  0  0  0  0  0  0
   19.4712  -14.0697   26.4403 C   0  0  0  0  0  0  0  0  0  0  0  0
   16.0685  -12.4210   20.3305 C   0  0  2  0  0  0  0  0  0  0  0  0
   15.6324  -12.9024   18.9911 C   0  0  0  0  0  0  0  0  0  0  0  0
   15.0261  -14.2555   19.1772 C   0  0  0  0  0  0  0  0  0  0  0  0
   11.6925  -11.5522   20.6057 C   0  0  0  0  0  0  0  0  0  0  0  0
   12.7677   -9.5937   21.6426 C   0  0  0  0  0  0  0  0  0  0  0  0
   11.8245  -10.5750   21.6865 C   0  0  0  0  0  0  0  0  0  0  0  0
   20.2798  -15.1775   26.4640 C   0  0  0  0  0  0  0  0  0  0  0  0
   19.8337  -16.4444   25.8629 C   0  0  0  0  0  0  0  0  0  0  0  0
   17.2797  -13.7854   22.0890 C   0  0  0  0  0  0  0  0  0  0  0  0
   15.4276  -14.6370   20.5792 C   0  0  0  0  0  0  0  0  0  0  0  0
   16.3228  -13.6255   21.0675 N   0  0  0  0  0  0  0  0  0  0  0  0
   19.8955  -12.8687   27.0112 C   0  0  0  0  0  0  0  0  0  0  0  0
   21.1353  -12.8178   27.5956 C   0  0  0  0  0  0  0  0  0  0  0  0
   21.9750  -13.9193   27.6352 C   0  0  0  0  0  0  0  0  0  0  0  0
   21.5116  -15.0993   27.0531 C   0  0  0  0  0  0  0  0  0  0  0  0
   17.8632  -17.3809   24.3277 O   0  0  0  0  0  0  0  0  0  0  0  0
   18.2538  -16.1543   25.1042 S   0  0  1  0  0  6  0  0  0  0  0  0
   17.2391  -15.9452   26.1860 O   0  0  0  0  0  0  0  0  0  0  0  0
   18.2476  -14.8166   24.0458 N   0  0  0  0  0  0  0  0  0  0  0  0
   17.4424  -15.0293   22.8735 C   0  0  0  0  0  0  0  0  0  0  0  0
   18.0685  -12.8212   22.3805 O   0  0  0  0  0  0  0  0  0  0  0  0
   15.0615  -11.5518   20.9928 C   0  0  0  0  0  0  0  0  0  0  0  0
   14.2833  -12.0943   21.8166 O   0  0  0  0  0  0  0  0  0  0  0  0
   14.9460  -10.1781   20.7407 N   0  0  0  0  0  0  0  0  0  0  0  0
   13.6987   -9.4909   20.5191 C   0  0  0  0  0  0  0  0  0  0  0  0
   11.7106  -12.8762   21.0393 O   0  0  0  0  0  0  0  0  0  0  0  0
   12.0287   -8.7149   23.7755 C   0  0  0  0  0  0  0  0  0  0  0  0
   12.2118   -7.5189   25.0478 Cl  0  0  0  0  0  0  0  0  0  0  0  0
  9  1  2  0
  1 31  1  0
  3  2  1  0
 31  2  2  0
 10  3  2  0
 11  4  2  0
  4 16  1  0
  5  6  1  0
  5 15  1  0
  5 26  1  1
  6  7  1  0
 14  7  1  0
 10  8  1  0
  8 30  1  0
  9 10  1  0
 29  9  1  0
 12 11  1  0
 11 19  1  0
 21 12  1  1
 15 13  1  0
 13 24  1  0
 13 25  2  0
 15 14  1  0
 16 17  2  0
 18 17  1  0
 19 18  2  0
 21 20  2  0
 21 22  2  0
 23 21  1  0
 24 23  1  0
 26 27  2  0
 28 26  1  0
 28 29  1  0
 31 32  1  0
M  END
$$$$
