
     RDKit          3D

 32 34  0  0  0  0  0  0  0  0999 V2000
   13.2026   -9.0524   22.7639 C   0  0  0  0  0  0  0  0  0  0  0  0
   11.2564   -9.8026   23.9248 C   0  0  0  0  0  0  0  0  0  0  0  0
   11.1182  -10.7680   22.9655 C   0  0  0  0  0  0  0  0  0  0  0  0
   16.3350  -19.5824   23.3434 C   0  0  0  0  0  0  0  0  0  0  0  0
   17.3275  -11.6522   21.3932 C   0  0  2  0  0  0  0  0  0  0  0  0
   18.6737  -11.1536   20.9047 C   0  0  0  0  0  0  0  0  0  0  0  0
   18.8696  -12.1062   19.7158 C   0  0  0  0  0  0  0  0  0  0  0  0
   11.8123  -11.9397   20.9071 C   0  0  0  0  0  0  0  0  0  0  0  0
   13.0790  -10.0188   21.7883 C   0  0  0  0  0  0  0  0  0  0  0  0
   12.0027  -10.8886   21.9109 C   0  0  0  0  0  0  0  0  0  0  0  0
   15.6901  -18.7811   22.4364 C   0  0  0  0  0  0  0  0  0  0  0  0
   15.8582  -17.3128   22.5442 C   0  0  0  0  0  0  0  0  0  0  0  0
   16.9498  -14.0254   22.2728 C   0  0  0  0  0  0  0  0  0  0  0  0
   18.5659  -13.4342   20.4249 C   0  0  0  0  0  0  0  0  0  0  0  0
   17.5703  -13.0818   21.4191 N   0  0  0  0  0  0  0  0  0  0  0  0
   16.1667  -20.9507   23.2252 C   0  0  0  0  0  0  0  0  0  0  0  0
   15.3820  -21.4975   22.2361 C   0  0  0  0  0  0  0  0  0  0  0  0
   14.7308  -20.6986   21.3212 C   0  0  0  0  0  0  0  0  0  0  0  0
   14.9052  -19.3177   21.4464 C   0  0  0  0  0  0  0  0  0  0  0  0
   15.8444  -17.5868   25.1907 O   0  0  0  0  0  0  0  0  0  0  0  0
   16.7045  -17.0082   24.0990 S   0  0  1  0  0  6  0  0  0  0  0  0
   18.0149  -17.7155   24.1423 O   0  0  0  0  0  0  0  0  0  0  0  0
   16.9484  -15.3165   24.3276 N   0  0  0  0  0  0  0  0  0  0  0  0
   17.7547  -14.7806   23.2506 C   0  0  0  0  0  0  0  0  0  0  0  0
   15.7167  -14.2487   22.2290 O   0  0  0  0  0  0  0  0  0  0  0  0
   16.2441  -11.3059   20.4345 C   0  0  0  0  0  0  0  0  0  0  0  0
   16.5825  -11.0151   19.2591 O   0  0  0  0  0  0  0  0  0  0  0  0
   14.8838  -11.2845   20.7619 N   0  0  0  0  0  0  0  0  0  0  0  0
   14.0605  -10.0928   20.6865 C   0  0  0  0  0  0  0  0  0  0  0  0
   12.9044  -12.8134   20.9127 O   0  0  0  0  0  0  0  0  0  0  0  0
   12.3257   -8.9288   23.8144 C   0  0  0  0  0  0  0  0  0  0  0  0
   12.4859   -7.6993   25.0538 Cl  0  0  0  0  0  0  0  0  0  0  0  0
  9  1  2  0
  1 31  1  0
  3  2  1  0
 31  2  2  0
 10  3  2  0
 11  4  2  0
  4 16  1  0
  6  5  1  1
  5 15  1  0
  5 26  1  6
  6  7  1  0
  7 14  1  6
 10  8  1  0
  8 30  1  6
  9 10  1  0
 29  9  1  0
 12 11  1  1
 11 19  1  0
 21 12  1  0
 15 13  1  0
 13 24  1  0
 13 25  2  0
 14 15  1  6
 16 17  2  0
 18 17  1  0
 19 18  2  0
 21 20  2  0
 21 22  2  0
 21 23  1  1
 24 23  1  6
 26 27  2  0
 28 26  1  0
 29 28  1  6
 31 32  1  0
M  END
$$$$
