
     RDKit          3D

 32 34  0  0  0  0  0  0  0  0999 V2000
   13.5294   -9.0257   22.9579 C   0  0  0  0  0  0  0  0  0  0  0  0
   11.4163  -10.0379   23.4144 C   0  0  0  0  0  0  0  0  0  0  0  0
   11.4806  -10.6123   22.1746 C   0  0  0  0  0  0  0  0  0  0  0  0
   20.2606  -15.1094   25.0674 C   0  0  0  0  0  0  0  0  0  0  0  0
   16.9930  -11.5313   20.7140 C   0  0  2  0  0  0  0  0  0  0  0  0
   18.1693  -11.0784   19.8710 C   0  0  0  0  0  0  0  0  0  0  0  0
   18.2435  -12.2651   18.8986 C   0  0  0  0  0  0  0  0  0  0  0  0
   12.5726  -11.0441   20.0037 C   0  0  0  0  0  0  0  0  0  0  0  0
   13.6112   -9.5962   21.7053 C   0  0  0  0  0  0  0  0  0  0  0  0
   12.5495  -10.4066   21.3234 C   0  0  0  0  0  0  0  0  0  0  0  0
   19.3862  -14.2927   25.7376 C   0  0  0  0  0  0  0  0  0  0  0  0
   17.9372  -14.5929   25.6610 C   0  0  0  0  0  0  0  0  0  0  0  0
   17.0282  -13.6573   22.1377 C   0  0  0  0  0  0  0  0  0  0  0  0
   18.2123  -13.4105   19.9211 C   0  0  0  0  0  0  0  0  0  0  0  0
   17.3827  -12.8996   20.9956 N   0  0  0  0  0  0  0  0  0  0  0  0
   21.6095  -14.8133   25.1525 C   0  0  0  0  0  0  0  0  0  0  0  0
   22.0672  -13.7397   25.8811 C   0  0  0  0  0  0  0  0  0  0  0  0
   21.1945  -12.9146   26.5572 C   0  0  0  0  0  0  0  0  0  0  0  0
   19.8337  -13.2194   26.4669 C   0  0  0  0  0  0  0  0  0  0  0  0
   18.5694  -17.1155   25.0987 O   0  0  0  0  0  0  0  0  0  0  0  0
   17.7616  -15.9787   24.5317 S   0  0  1  0  0  6  0  0  0  0  0  0
   16.3445  -16.4325   24.4580 O   0  0  0  0  0  0  0  0  0  0  0  0
   18.3160  -15.5437   22.9579 N   0  0  0  0  0  0  0  0  0  0  0  0
   17.2000  -15.1219   22.1368 C   0  0  0  0  0  0  0  0  0  0  0  0
   16.5640  -13.1206   23.1715 O   0  0  0  0  0  0  0  0  0  0  0  0
   15.7236  -11.4800   19.9400 C   0  0  0  0  0  0  0  0  0  0  0  0
   15.3457  -12.5387   19.3772 O   0  0  0  0  0  0  0  0  0  0  0  0
   14.9341  -10.3329   19.8027 N   0  0  0  0  0  0  0  0  0  0  0  0
   14.7830   -9.3350   20.8445 C   0  0  0  0  0  0  0  0  0  0  0  0
   12.4957  -10.0737   18.9994 O   0  0  0  0  0  0  0  0  0  0  0  0
   12.4688   -9.2274   23.8076 C   0  0  0  0  0  0  0  0  0  0  0  0
   12.3681   -8.5011   25.4000 Cl  0  0  0  0  0  0  0  0  0  0  0  0
  9  1  2  0
  1 31  1  0
  3  2  1  0
 31  2  2  0
 10  3  2  0
 11  4  2  0
  4 16  1  0
  6  5  1  1
  5 15  1  0
  5 26  1  6
  6  7  1  0
  7 14  1  6
 10  8  1  0
  8 30  1  6
  9 10  1  0
 29  9  1  0
 12 11  1  1
 11 19  1  0
 21 12  1  0
 15 13  1  0
 13 24  1  0
 13 25  2  0
 14 15  1  6
 16 17  2  0
 18 17  1  0
 19 18  2  0
 21 20  2  0
 21 22  2  0
 21 23  1  6
 24 23  1  6
 26 27  2  0
 28 26  1  0
 29 28  1  6
 31 32  1  0
M  END
$$$$
