
     RDKit          3D

 32 34  0  0  0  0  0  0  0  0999 V2000
   12.6883  -10.1607   23.5029 C   0  0  0  0  0  0  0  0  0  0  0  0
   11.0890   -8.7182   22.5311 C   0  0  0  0  0  0  0  0  0  0  0  0
   11.6614   -8.9504   21.2977 C   0  0  0  0  0  0  0  0  0  0  0  0
   17.6723  -19.7271   20.6572 C   0  0  0  0  0  0  0  0  0  0  0  0
   17.3984  -12.0668   21.2769 C   0  0  2  0  0  0  0  0  0  0  0  0
   18.5710  -11.6357   20.4675 C   0  0  0  0  0  0  0  0  0  0  0  0
   19.2517  -12.8705   19.9725 C   0  0  0  0  0  0  0  0  0  0  0  0
   13.3370  -10.0018   19.8127 C   0  0  0  0  0  0  0  0  0  0  0  0
   13.2641  -10.3912   22.2437 C   0  0  0  0  0  0  0  0  0  0  0  0
   12.7521   -9.7862   21.1363 C   0  0  0  0  0  0  0  0  0  0  0  0
   17.0493  -18.9292   21.5828 C   0  0  0  0  0  0  0  0  0  0  0  0
   17.4592  -17.5272   21.7611 C   0  0  0  0  0  0  0  0  0  0  0  0
   17.3678  -13.9353   22.9883 C   0  0  0  0  0  0  0  0  0  0  0  0
   18.6242  -13.9743   20.7849 C   0  0  0  0  0  0  0  0  0  0  0  0
   17.7704  -13.3636   21.7653 N   0  0  0  0  0  0  0  0  0  0  0  0
   17.2828  -21.0570   20.4894 C   0  0  0  0  0  0  0  0  0  0  0  0
   16.2662  -21.5498   21.2672 C   0  0  0  0  0  0  0  0  0  0  0  0
   15.6175  -20.7689   22.2103 C   0  0  0  0  0  0  0  0  0  0  0  0
   16.0383  -19.4458   22.3453 C   0  0  0  0  0  0  0  0  0  0  0  0
   15.4813  -15.8475   22.3803 O   0  0  0  0  0  0  0  0  0  0  0  0
   16.4290  -16.8208   23.0243 S   0  0  1  0  0  6  0  0  0  0  0  0
   15.6195  -17.9177   23.6449 O   0  0  0  0  0  0  0  0  0  0  0  0
   17.3089  -16.0022   24.2348 N   0  0  0  0  0  0  0  0  0  0  0  0
   18.1514  -14.9606   23.7122 C   0  0  0  0  0  0  0  0  0  0  0  0
   16.2685  -13.5703   23.5316 O   0  0  0  0  0  0  0  0  0  0  0  0
   16.1326  -12.0944   20.4989 C   0  0  0  0  0  0  0  0  0  0  0  0
   16.0912  -12.8429   19.4907 O   0  0  0  0  0  0  0  0  0  0  0  0
   15.0051  -11.3341   20.8368 N   0  0  0  0  0  0  0  0  0  0  0  0
   14.4094  -11.2959   22.1486 C   0  0  0  0  0  0  0  0  0  0  0  0
   12.7226  -11.0189   19.0851 O   0  0  0  0  0  0  0  0  0  0  0  0
   11.6057   -9.3297   23.6547 C   0  0  0  0  0  0  0  0  0  0  0  0
   10.9376   -9.0886   25.2605 Cl  0  0  0  0  0  0  0  0  0  0  0  0
  9  1  2  0
  1 31  1  0
  3  2  1  0
 31  2  2  0
 10  3  2  0
 11  4  2  0
  4 16  1  0
  5  6  1  0
  5 15  1  0
  5 26  1  6
  6  7  1  0
 14  7  1  0
 10  8  1  0
  8 30  1  0
  9 10  1  0
 29  9  1  0
 12 11  1  0
 11 19  1  0
 21 12  1  6
 15 13  1  0
 13 24  1  0
 13 25  2  0
 15 14  1  0
 16 17  2  0
 18 17  1  0
 19 18  2  0
 21 20  2  0
 21 22  2  0
 23 21  1  0
 24 23  1  0
 26 27  2  0
 28 26  1  0
 28 29  1  0
 31 32  1  0
M  END
$$$$
