
     RDKit          3D

 32 34  0  0  0  0  0  0  0  0999 V2000
   13.3123   -9.6779   22.7462 C   0  0  0  0  0  0  0  0  0  0  0  0
   10.9538   -9.5530   22.6729 C   0  0  0  0  0  0  0  0  0  0  0  0
   10.9393  -10.6952   21.8995 C   0  0  0  0  0  0  0  0  0  0  0  0
   17.8431  -19.9850   23.1173 C   0  0  0  0  0  0  0  0  0  0  0  0
   17.5213  -11.1077   20.8442 C   0  0  2  0  0  0  0  0  0  0  0  0
   18.7068  -10.4474   20.2321 C   0  0  0  0  0  0  0  0  0  0  0  0
   19.6187  -11.5265   19.7452 C   0  0  0  0  0  0  0  0  0  0  0  0
   12.0453  -12.5573   20.7047 C   0  0  0  0  0  0  0  0  0  0  0  0
   13.2877  -10.8397   21.9590 C   0  0  0  0  0  0  0  0  0  0  0  0
   12.1002  -11.3524   21.5328 C   0  0  0  0  0  0  0  0  0  0  0  0
   18.3237  -18.7871   22.6529 C   0  0  0  0  0  0  0  0  0  0  0  0
   18.5398  -17.6588   23.5724 C   0  0  0  0  0  0  0  0  0  0  0  0
   17.5599  -13.1094   22.3973 C   0  0  0  0  0  0  0  0  0  0  0  0
   19.0678  -12.7753   20.3849 C   0  0  0  0  0  0  0  0  0  0  0  0
   18.0194  -12.3795   21.2835 N   0  0  0  0  0  0  0  0  0  0  0  0
   17.6382  -21.0544   22.2439 C   0  0  0  0  0  0  0  0  0  0  0  0
   17.9264  -20.8843   20.9137 C   0  0  0  0  0  0  0  0  0  0  0  0
   18.4131  -19.6869   20.4143 C   0  0  0  0  0  0  0  0  0  0  0  0
   18.6030  -18.6445   21.3217 C   0  0  0  0  0  0  0  0  0  0  0  0
   16.3612  -16.8467   22.2644 O   0  0  0  0  0  0  0  0  0  0  0  0
   17.0545  -16.6843   23.5884 S   0  0  1  0  0  6  0  0  0  0  0  0
   16.1493  -17.2165   24.6566 O   0  0  0  0  0  0  0  0  0  0  0  0
   17.3387  -15.0233   23.8526 N   0  0  0  0  0  0  0  0  0  0  0  0
   18.1227  -14.4133   22.8129 C   0  0  0  0  0  0  0  0  0  0  0  0
   16.6040  -12.6484   23.1117 O   0  0  0  0  0  0  0  0  0  0  0  0
   16.3783  -11.2394   19.9038 C   0  0  0  0  0  0  0  0  0  0  0  0
   16.6472  -11.4407   18.6932 O   0  0  0  0  0  0  0  0  0  0  0  0
   15.0383  -11.1495   20.3040 N   0  0  0  0  0  0  0  0  0  0  0  0
   14.5549  -11.4864   21.6193 C   0  0  0  0  0  0  0  0  0  0  0  0
   12.0871  -13.7436   21.4342 O   0  0  0  0  0  0  0  0  0  0  0  0
   12.1554   -9.0314   23.1060 C   0  0  0  0  0  0  0  0  0  0  0  0
   12.2626   -7.5830   24.0926 Cl  0  0  0  0  0  0  0  0  0  0  0  0
  9  1  2  0
  1 31  1  0
  3  2  1  0
 31  2  2  0
 10  3  2  0
 11  4  2  0
  4 16  1  0
  5  6  1  0
  5 15  1  0
  5 26  1  6
  6  7  1  0
 14  7  1  0
 10  8  1  0
  8 30  1  0
  9 10  1  0
 29  9  1  0
 12 11  1  0
 11 19  1  0
 21 12  1  6
 15 13  1  0
 13 24  1  0
 13 25  2  0
 15 14  1  0
 16 17  2  0
 18 17  1  0
 19 18  2  0
 21 20  2  0
 21 22  2  0
 23 21  1  0
 24 23  1  0
 26 27  2  0
 28 26  1  0
 28 29  1  0
 31 32  1  0
M  END
$$$$
