
     RDKit          3D

 32 34  0  0  0  0  0  0  0  0999 V2000
   12.2813  -11.4149   21.8266 C   0  0  0  0  0  0  0  0  0  0  0  0
   11.1413   -9.7374   23.0855 C   0  0  0  0  0  0  0  0  0  0  0  0
   11.4593   -8.8495   22.0945 C   0  0  0  0  0  0  0  0  0  0  0  0
   21.5897  -14.7267   25.3824 C   0  0  0  0  0  0  0  0  0  0  0  0
   16.9535  -11.3690   20.7021 C   0  0  2  0  0  0  0  0  0  0  0  0
   18.2704  -10.9797   20.0589 C   0  0  0  0  0  0  0  0  0  0  0  0
   18.5313  -12.2565   19.2458 C   0  0  0  0  0  0  0  0  0  0  0  0
   12.4957   -8.2346   19.9407 C   0  0  0  0  0  0  0  0  0  0  0  0
   12.6107  -10.5340   20.8183 C   0  0  0  0  0  0  0  0  0  0  0  0
   12.1791   -9.2230   20.9758 C   0  0  0  0  0  0  0  0  0  0  0  0
   20.3108  -15.1963   25.2256 C   0  0  0  0  0  0  0  0  0  0  0  0
   20.0700  -16.2797   24.2439 C   0  0  0  0  0  0  0  0  0  0  0  0
   16.7136  -13.3399   22.3166 C   0  0  0  0  0  0  0  0  0  0  0  0
   18.3035  -13.2936   20.3553 C   0  0  0  0  0  0  0  0  0  0  0  0
   17.2818  -12.6939   21.1922 N   0  0  0  0  0  0  0  0  0  0  0  0
   21.7942  -13.7161   26.3049 C   0  0  0  0  0  0  0  0  0  0  0  0
   20.7576  -13.1940   27.0437 C   0  0  0  0  0  0  0  0  0  0  0  0
   19.4697  -13.6608   26.8916 C   0  0  0  0  0  0  0  0  0  0  0  0
   19.2704  -14.6815   25.9582 C   0  0  0  0  0  0  0  0  0  0  0  0
   18.0196  -17.3315   22.9139 O   0  0  0  0  0  0  0  0  0  0  0  0
   18.2881  -16.4681   24.1176 S   0  0  1  0  0  6  0  0  0  0  0  0
   17.7398  -17.1785   25.3067 O   0  0  0  0  0  0  0  0  0  0  0  0
   17.5318  -14.9264   23.9606 N   0  0  0  0  0  0  0  0  0  0  0  0
   17.0458  -14.7466   22.6082 C   0  0  0  0  0  0  0  0  0  0  0  0
   15.9222  -12.7503   23.0901 O   0  0  0  0  0  0  0  0  0  0  0  0
   15.8575  -11.4213   19.6976 C   0  0  0  0  0  0  0  0  0  0  0  0
   15.9299  -12.3064   18.8077 O   0  0  0  0  0  0  0  0  0  0  0  0
   14.7621  -10.5507   19.6853 N   0  0  0  0  0  0  0  0  0  0  0  0
   13.3831  -10.9988   19.6479 C   0  0  0  0  0  0  0  0  0  0  0  0
   13.8815   -8.0801   19.8311 O   0  0  0  0  0  0  0  0  0  0  0  0
   11.5657  -11.0482   22.9407 C   0  0  0  0  0  0  0  0  0  0  0  0
   11.1477  -12.1708   24.2207 Cl  0  0  0  0  0  0  0  0  0  0  0  0
  9  1  2  0
  1 31  1  0
  3  2  1  0
 31  2  2  0
 10  3  2  0
 11  4  2  0
  4 16  1  0
  6  5  1  1
  5 15  1  0
  5 26  1  6
  6  7  1  0
  7 14  1  6
 10  8  1  0
  8 30  1  6
  9 10  1  0
 29  9  1  0
 12 11  1  1
 11 19  1  0
 21 12  1  0
 15 13  1  0
 13 24  1  0
 13 25  2  0
 14 15  1  6
 16 17  2  0
 18 17  1  0
 19 18  2  0
 21 20  2  0
 21 22  2  0
 21 23  1  6
 24 23  1  6
 26 27  2  0
 28 26  1  0
 29 28  1  6
 31 32  1  0
M  END
$$$$
