
     RDKit          3D

 32 34  0  0  0  0  0  0  0  0999 V2000
   13.5348   -8.9923   22.6948 C   0  0  0  0  0  0  0  0  0  0  0  0
   12.1949  -10.0066   24.3558 C   0  0  0  0  0  0  0  0  0  0  0  0
   12.0254  -11.0939   23.5239 C   0  0  0  0  0  0  0  0  0  0  0  0
   20.1385  -15.3410   26.0858 C   0  0  0  0  0  0  0  0  0  0  0  0
   17.4808  -11.8333   20.3913 C   0  0  2  0  0  0  0  0  0  0  0  0
   18.2872  -11.8384   19.1400 C   0  0  0  0  0  0  0  0  0  0  0  0
   17.6936  -12.8635   18.2290 C   0  0  0  0  0  0  0  0  0  0  0  0
   12.3922  -12.3252   21.4102 C   0  0  0  0  0  0  0  0  0  0  0  0
   13.3570  -10.1030   21.8553 C   0  0  0  0  0  0  0  0  0  0  0  0
   12.6011  -11.1581   22.2675 C   0  0  0  0  0  0  0  0  0  0  0  0
   19.6117  -14.5308   25.1123 C   0  0  0  0  0  0  0  0  0  0  0  0
   19.2863  -15.0708   23.7826 C   0  0  0  0  0  0  0  0  0  0  0  0
   16.6537  -13.8733   21.6462 C   0  0  0  0  0  0  0  0  0  0  0  0
   16.7573  -13.6361   19.1227 C   0  0  0  0  0  0  0  0  0  0  0  0
   16.9449  -13.1621   20.4655 N   0  0  0  0  0  0  0  0  0  0  0  0
   20.4471  -14.8274   27.3465 C   0  0  0  0  0  0  0  0  0  0  0  0
   20.2136  -13.4983   27.5927 C   0  0  0  0  0  0  0  0  0  0  0  0
   19.6824  -12.6548   26.6302 C   0  0  0  0  0  0  0  0  0  0  0  0
   19.3887  -13.2092   25.3843 C   0  0  0  0  0  0  0  0  0  0  0  0
   17.4487  -16.6995   24.8253 O   0  0  0  0  0  0  0  0  0  0  0  0
   17.5894  -15.5956   23.8144 S   0  0  1  0  0  6  0  0  0  0  0  0
   16.7446  -14.4429   24.2628 O   0  0  0  0  0  0  0  0  0  0  0  0
   17.0295  -16.1649   22.3071 N   0  0  0  0  0  0  0  0  0  0  0  0
   16.1225  -15.2542   21.6624 C   0  0  0  0  0  0  0  0  0  0  0  0
   16.8477  -13.3246   22.7855 O   0  0  0  0  0  0  0  0  0  0  0  0
   16.4205  -10.7920   20.3961 C   0  0  0  0  0  0  0  0  0  0  0  0
   16.7906   -9.5916   20.3775 O   0  0  0  0  0  0  0  0  0  0  0  0
   15.0511  -11.0885   20.4207 N   0  0  0  0  0  0  0  0  0  0  0  0
   14.0050  -10.1048   20.5440 C   0  0  0  0  0  0  0  0  0  0  0  0
   13.3457  -13.3266   21.5812 O   0  0  0  0  0  0  0  0  0  0  0  0
   12.9600   -8.9363   23.9407 C   0  0  0  0  0  0  0  0  0  0  0  0
   13.2260   -7.5148   24.9365 Cl  0  0  0  0  0  0  0  0  0  0  0  0
  9  1  2  0
  1 31  1  0
  3  2  1  0
 31  2  2  0
 10  3  2  0
 11  4  2  0
  4 16  1  0
  5  6  1  0
  5 15  1  0
  5 26  1  6
  6  7  1  0
 14  7  1  0
 10  8  1  0
  8 30  1  0
  9 10  1  0
 29  9  1  0
 12 11  1  0
 11 19  1  0
 21 12  1  6
 15 13  1  0
 13 24  1  0
 13 25  2  0
 15 14  1  0
 16 17  2  0
 18 17  1  0
 19 18  2  0
 21 20  2  0
 21 22  2  0
 23 21  1  0
 24 23  1  0
 26 27  2  0
 28 26  1  0
 28 29  1  0
 31 32  1  0
M  END
$$$$
