
     RDKit          3D

 32 34  0  0  0  0  0  0  0  0999 V2000
   12.9724   -9.5986   23.7291 C   0  0  0  0  0  0  0  0  0  0  0  0
   10.9882   -8.3933   23.1738 C   0  0  0  0  0  0  0  0  0  0  0  0
   11.3254   -8.5448   21.8567 C   0  0  0  0  0  0  0  0  0  0  0  0
   21.4111  -14.5115   26.0136 C   0  0  0  0  0  0  0  0  0  0  0  0
   17.0154  -11.7637   20.4706 C   0  0  2  0  0  0  0  0  0  0  0  0
   18.0378  -11.5426   19.3727 C   0  0  0  0  0  0  0  0  0  0  0  0
   17.6546  -12.7053   18.4451 C   0  0  0  0  0  0  0  0  0  0  0  0
   12.7880   -9.3488   20.0385 C   0  0  0  0  0  0  0  0  0  0  0  0
   13.3280   -9.7610   22.4069 C   0  0  0  0  0  0  0  0  0  0  0  0
   12.4691   -9.2127   21.4627 C   0  0  0  0  0  0  0  0  0  0  0  0
   20.1989  -14.9562   25.5515 C   0  0  0  0  0  0  0  0  0  0  0  0
   20.1171  -15.4753   24.1660 C   0  0  0  0  0  0  0  0  0  0  0  0
   16.9479  -13.8751   21.9149 C   0  0  0  0  0  0  0  0  0  0  0  0
   17.6279  -13.8367   19.4834 C   0  0  0  0  0  0  0  0  0  0  0  0
   17.1794  -13.1864   20.6998 N   0  0  0  0  0  0  0  0  0  0  0  0
   21.4673  -14.0320   27.3103 C   0  0  0  0  0  0  0  0  0  0  0  0
   20.3520  -13.9984   28.1153 C   0  0  0  0  0  0  0  0  0  0  0  0
   19.1306  -14.4436   27.6577 C   0  0  0  0  0  0  0  0  0  0  0  0
   19.0810  -14.9264   26.3473 C   0  0  0  0  0  0  0  0  0  0  0  0
   18.1943  -17.2737   24.5509 O   0  0  0  0  0  0  0  0  0  0  0  0
   18.4023  -15.9355   23.8934 S   0  0  1  0  0  6  0  0  0  0  0  0
   17.4782  -14.9684   24.5492 O   0  0  0  0  0  0  0  0  0  0  0  0
   18.0629  -16.0110   22.2044 N   0  0  0  0  0  0  0  0  0  0  0  0
   16.8099  -15.3432   21.9189 C   0  0  0  0  0  0  0  0  0  0  0  0
   16.8534  -13.2728   23.0107 O   0  0  0  0  0  0  0  0  0  0  0  0
   15.6406  -11.4479   19.9984 C   0  0  0  0  0  0  0  0  0  0  0  0
   15.2277  -12.0496   18.9747 O   0  0  0  0  0  0  0  0  0  0  0  0
   14.7889  -10.5287   20.6210 N   0  0  0  0  0  0  0  0  0  0  0  0
   14.5655  -10.4864   22.0535 C   0  0  0  0  0  0  0  0  0  0  0  0
   12.3682  -10.5977   19.5690 O   0  0  0  0  0  0  0  0  0  0  0  0
   11.8363   -8.9355   24.1256 C   0  0  0  0  0  0  0  0  0  0  0  0
   11.3864   -8.7313   25.8077 Cl  0  0  0  0  0  0  0  0  0  0  0  0
  9  1  2  0
  1 31  1  0
  3  2  1  0
 31  2  2  0
 10  3  2  0
 11  4  2  0
  4 16  1  0
  6  5  1  1
  5 15  1  0
  5 26  1  6
  6  7  1  0
  7 14  1  6
 10  8  1  0
  8 30  1  6
  9 10  1  0
 29  9  1  0
 12 11  1  1
 11 19  1  0
 21 12  1  0
 15 13  1  0
 13 24  1  0
 13 25  2  0
 14 15  1  6
 16 17  2  0
 18 17  1  0
 19 18  2  0
 21 20  2  0
 21 22  2  0
 21 23  1  6
 24 23  1  6
 26 27  2  0
 28 26  1  0
 29 28  1  6
 31 32  1  0
M  END
$$$$
