
     RDKit          3D

 32 34  0  0  0  0  0  0  0  0999 V2000
   13.2037   -9.6071   21.6950 C   0  0  0  0  0  0  0  0  0  0  0  0
   12.1260  -10.6284   23.5641 C   0  0  0  0  0  0  0  0  0  0  0  0
   11.8825  -11.7129   22.7666 C   0  0  0  0  0  0  0  0  0  0  0  0
   18.4333  -17.0605   21.5843 C   0  0  0  0  0  0  0  0  0  0  0  0
   16.4947  -10.9615   20.8344 C   0  0  2  0  0  0  0  0  0  0  0  0
   17.8573  -10.3019   20.7459 C   0  0  0  0  0  0  0  0  0  0  0  0
   18.6456  -11.4556   20.1080 C   0  0  0  0  0  0  0  0  0  0  0  0
   12.0032  -12.9455   20.6318 C   0  0  0  0  0  0  0  0  0  0  0  0
   12.9672  -10.6913   20.8767 C   0  0  0  0  0  0  0  0  0  0  0  0
   12.2879  -11.7607   21.4466 C   0  0  0  0  0  0  0  0  0  0  0  0
   18.0946  -17.7137   22.7416 C   0  0  0  0  0  0  0  0  0  0  0  0
   18.2041  -16.9817   24.0253 C   0  0  0  0  0  0  0  0  0  0  0  0
   16.0381  -13.0446   22.2487 C   0  0  0  0  0  0  0  0  0  0  0  0
   18.2144  -12.5869   21.0529 C   0  0  0  0  0  0  0  0  0  0  0  0
   16.8573  -12.2355   21.4251 N   0  0  0  0  0  0  0  0  0  0  0  0
   18.3228  -17.7605   20.3959 C   0  0  0  0  0  0  0  0  0  0  0  0
   17.8896  -19.0660   20.3661 C   0  0  0  0  0  0  0  0  0  0  0  0
   17.5476  -19.7289   21.5250 C   0  0  0  0  0  0  0  0  0  0  0  0
   17.6615  -19.0160   22.7215 C   0  0  0  0  0  0  0  0  0  0  0  0
   15.6534  -17.5022   24.5753 O   0  0  0  0  0  0  0  0  0  0  0  0
   16.5704  -16.3244   24.3796 S   0  0  1  0  0  6  0  0  0  0  0  0
   16.5713  -15.5447   25.6490 O   0  0  0  0  0  0  0  0  0  0  0  0
   16.0323  -15.3238   23.0823 N   0  0  0  0  0  0  0  0  0  0  0  0
   16.6492  -14.0167   23.1739 C   0  0  0  0  0  0  0  0  0  0  0  0
   14.7869  -12.9655   22.2215 O   0  0  0  0  0  0  0  0  0  0  0  0
   15.8951  -11.1433   19.4852 C   0  0  0  0  0  0  0  0  0  0  0  0
   16.6306  -10.9208   18.4902 O   0  0  0  0  0  0  0  0  0  0  0  0
   14.5729  -11.5429   19.2614 N   0  0  0  0  0  0  0  0  0  0  0  0
   13.4280  -10.6780   19.4731 C   0  0  0  0  0  0  0  0  0  0  0  0
   12.9262  -13.9574   20.9156 O   0  0  0  0  0  0  0  0  0  0  0  0
   12.8026   -9.5550   23.0081 C   0  0  0  0  0  0  0  0  0  0  0  0
   13.1056   -8.1752   24.0462 Cl  0  0  0  0  0  0  0  0  0  0  0  0
  9  1  2  0
  1 31  1  0
  3  2  1  0
 31  2  2  0
 10  3  2  0
 11  4  2  0
  4 16  1  0
  6  5  1  1
  5 15  1  0
  5 26  1  6
  6  7  1  0
  7 14  1  6
 10  8  1  0
  8 30  1  6
  9 10  1  0
 29  9  1  0
 12 11  1  1
 11 19  1  0
 21 12  1  0
 15 13  1  0
 13 24  1  0
 13 25  2  0
 14 15  1  6
 16 17  2  0
 18 17  1  0
 19 18  2  0
 21 20  2  0
 21 22  2  0
 21 23  1  6
 24 23  1  6
 26 27  2  0
 28 26  1  0
 29 28  1  6
 31 32  1  0
M  END
$$$$
