
     RDKit          3D

 32 34  0  0  0  0  0  0  0  0999 V2000
   12.1669  -11.6601   21.7362 C   0  0  0  0  0  0  0  0  0  0  0  0
   10.6559  -10.3273   22.9705 C   0  0  0  0  0  0  0  0  0  0  0  0
   11.2870   -9.2009   22.4850 C   0  0  0  0  0  0  0  0  0  0  0  0
   19.8906  -14.8332   26.2212 C   0  0  0  0  0  0  0  0  0  0  0  0
   16.5409  -13.1709   20.5867 C   0  0  2  0  0  0  0  0  0  0  0  0
   16.0329  -13.9998   19.4594 C   0  0  0  0  0  0  0  0  0  0  0  0
   15.8072  -15.3804   19.9850 C   0  0  0  0  0  0  0  0  0  0  0  0
   13.0134   -8.0569   21.1325 C   0  0  0  0  0  0  0  0  0  0  0  0
   12.8028  -10.5083   21.2471 C   0  0  0  0  0  0  0  0  0  0  0  0
   12.3646   -9.2741   21.6203 C   0  0  0  0  0  0  0  0  0  0  0  0
   20.8174  -15.2909   25.3194 C   0  0  0  0  0  0  0  0  0  0  0  0
   20.5146  -16.4395   24.4507 C   0  0  0  0  0  0  0  0  0  0  0  0
   18.3018  -13.8587   22.2740 C   0  0  0  0  0  0  0  0  0  0  0  0
   16.5000  -15.3705   21.3237 C   0  0  0  0  0  0  0  0  0  0  0  0
   17.1889  -14.1165   21.4496 N   0  0  0  0  0  0  0  0  0  0  0  0
   20.1793  -13.7439   27.0449 C   0  0  0  0  0  0  0  0  0  0  0  0
   21.4063  -13.1407   26.9351 C   0  0  0  0  0  0  0  0  0  0  0  0
   22.3631  -13.5796   26.0340 C   0  0  0  0  0  0  0  0  0  0  0  0
   22.0332  -14.6710   25.2304 C   0  0  0  0  0  0  0  0  0  0  0  0
   18.5074  -18.1380   24.0007 O   0  0  0  0  0  0  0  0  0  0  0  0
   18.7791  -16.7873   24.6023 S   0  0  1  0  0  6  0  0  0  0  0  0
   18.4327  -16.8478   26.0583 O   0  0  0  0  0  0  0  0  0  0  0  0
   17.7886  -15.6370   23.8244 N   0  0  0  0  0  0  0  0  0  0  0  0
   18.4298  -14.3604   23.6602 C   0  0  0  0  0  0  0  0  0  0  0  0
   19.2741  -13.1550   21.8313 O   0  0  0  0  0  0  0  0  0  0  0  0
   15.4684  -12.4112   21.2801 C   0  0  0  0  0  0  0  0  0  0  0  0
   14.8283  -13.0085   22.1811 O   0  0  0  0  0  0  0  0  0  0  0  0
   15.1474  -11.0815   20.9757 N   0  0  0  0  0  0  0  0  0  0  0  0
   13.9299  -10.6634   20.3278 C   0  0  0  0  0  0  0  0  0  0  0  0
   12.2042   -7.2811   20.3051 O   0  0  0  0  0  0  0  0  0  0  0  0
   11.0978  -11.5789   22.5942 C   0  0  0  0  0  0  0  0  0  0  0  0
   10.3517  -13.0621   23.1654 Cl  0  0  0  0  0  0  0  0  0  0  0  0
  9  1  2  0
  1 31  1  0
  3  2  1  0
 31  2  2  0
 10  3  2  0
 11  4  2  0
  4 16  1  0
  5  6  1  0
  5 15  1  0
  5 26  1  1
  6  7  1  0
 14  7  1  0
 10  8  1  0
  8 30  1  0
  9 10  1  0
 29  9  1  0
 12 11  1  0
 11 19  1  0
 21 12  1  1
 15 13  1  0
 13 24  1  0
 13 25  2  0
 15 14  1  0
 16 17  2  0
 18 17  1  0
 19 18  2  0
 21 20  2  0
 21 22  2  0
 23 21  1  0
 24 23  1  0
 26 27  2  0
 28 26  1  0
 28 29  1  0
 31 32  1  0
M  END
$$$$
