
     RDKit          3D

 32 34  0  0  0  0  0  0  0  0999 V2000
   13.2518   -8.2603   23.1111 C   0  0  0  0  0  0  0  0  0  0  0  0
   11.0074   -8.9199   22.7782 C   0  0  0  0  0  0  0  0  0  0  0  0
   11.4589  -10.0484   22.1259 C   0  0  0  0  0  0  0  0  0  0  0  0
   21.2331  -13.8631   24.5778 C   0  0  0  0  0  0  0  0  0  0  0  0
   16.5556  -12.5044   20.3369 C   0  0  2  0  0  0  0  0  0  0  0  0
   16.5544  -12.4884   18.8483 C   0  0  0  0  0  0  0  0  0  0  0  0
   15.8279  -13.7106   18.3881 C   0  0  0  0  0  0  0  0  0  0  0  0
   13.2469  -11.5142   21.2466 C   0  0  0  0  0  0  0  0  0  0  0  0
   13.7019   -9.4115   22.4461 C   0  0  0  0  0  0  0  0  0  0  0  0
   12.8062  -10.3099   21.9510 C   0  0  0  0  0  0  0  0  0  0  0  0
   19.9355  -14.2910   24.6985 C   0  0  0  0  0  0  0  0  0  0  0  0
   19.1825  -14.7437   23.5180 C   0  0  0  0  0  0  0  0  0  0  0  0
   17.0193  -14.5126   21.8109 C   0  0  0  0  0  0  0  0  0  0  0  0
   15.7158  -14.5502   19.6349 C   0  0  0  0  0  0  0  0  0  0  0  0
   16.4675  -13.8971   20.6701 N   0  0  0  0  0  0  0  0  0  0  0  0
   21.9461  -13.4335   25.6983 C   0  0  0  0  0  0  0  0  0  0  0  0
   21.3246  -13.4477   26.9210 C   0  0  0  0  0  0  0  0  0  0  0  0
   20.0153  -13.8744   27.0751 C   0  0  0  0  0  0  0  0  0  0  0  0
   19.3397  -14.2951   25.9295 C   0  0  0  0  0  0  0  0  0  0  0  0
   19.3850  -17.3990   23.6765 O   0  0  0  0  0  0  0  0  0  0  0  0
   18.4064  -16.2869   23.9328 S   0  0  1  0  0  6  0  0  0  0  0  0
   18.0842  -16.2779   25.3956 O   0  0  0  0  0  0  0  0  0  0  0  0
   16.9887  -16.5933   23.0352 N   0  0  0  0  0  0  0  0  0  0  0  0
   16.2545  -15.3988   22.7160 C   0  0  0  0  0  0  0  0  0  0  0  0
   18.2474  -14.3160   22.1105 O   0  0  0  0  0  0  0  0  0  0  0  0
   15.4494  -11.7076   20.9283 C   0  0  0  0  0  0  0  0  0  0  0  0
   14.4189  -12.3295   21.2885 O   0  0  0  0  0  0  0  0  0  0  0  0
   15.5071  -10.3177   21.0972 N   0  0  0  0  0  0  0  0  0  0  0  0
   15.1421   -9.6266   22.3081 C   0  0  0  0  0  0  0  0  0  0  0  0
   13.3489  -12.6381   22.0637 O   0  0  0  0  0  0  0  0  0  0  0  0
   11.9127   -8.0080   23.2806 C   0  0  0  0  0  0  0  0  0  0  0  0
   11.4228   -6.5474   24.1230 Cl  0  0  0  0  0  0  0  0  0  0  0  0
  9  1  2  0
  1 31  1  0
  3  2  1  0
 31  2  2  0
 10  3  2  0
 11  4  2  0
  4 16  1  0
  5  6  1  0
  5 15  1  0
  5 26  1  1
  6  7  1  0
 14  7  1  0
 10  8  1  0
  8 30  1  0
  9 10  1  0
 29  9  1  0
 12 11  1  0
 11 19  1  0
 21 12  1  6
 15 13  1  0
 13 24  1  0
 13 25  2  0
 15 14  1  0
 16 17  2  0
 18 17  1  0
 19 18  2  0
 21 20  2  0
 21 22  2  0
 23 21  1  0
 24 23  1  0
 26 27  2  0
 28 26  1  0
 28 29  1  0
 31 32  1  0
M  END
$$$$
