
     RDKit          3D

 32 34  0  0  0  0  0  0  0  0999 V2000
   13.0540   -8.9734   22.2874 C   0  0  0  0  0  0  0  0  0  0  0  0
   11.0256   -9.7408   23.2255 C   0  0  0  0  0  0  0  0  0  0  0  0
   11.0999  -10.8568   22.4180 C   0  0  0  0  0  0  0  0  0  0  0  0
   20.8262  -17.2360   23.2301 C   0  0  0  0  0  0  0  0  0  0  0  0
   17.0212  -11.7608   20.8670 C   0  0  2  0  0  0  0  0  0  0  0  0
   18.0693  -11.0231   20.1099 C   0  0  0  0  0  0  0  0  0  0  0  0
   19.0873  -12.0225   19.6650 C   0  0  0  0  0  0  0  0  0  0  0  0
   12.1839  -12.2512   20.6863 C   0  0  0  0  0  0  0  0  0  0  0  0
   13.1212  -10.1123   21.4697 C   0  0  0  0  0  0  0  0  0  0  0  0
   12.1436  -11.0583   21.5325 C   0  0  0  0  0  0  0  0  0  0  0  0
   20.3318  -16.7888   24.4289 C   0  0  0  0  0  0  0  0  0  0  0  0
   19.2437  -17.5108   25.1073 C   0  0  0  0  0  0  0  0  0  0  0  0
   17.4192  -13.5665   22.5996 C   0  0  0  0  0  0  0  0  0  0  0  0
   18.7473  -13.2569   20.4606 C   0  0  0  0  0  0  0  0  0  0  0  0
   17.7103  -12.9054   21.3901 N   0  0  0  0  0  0  0  0  0  0  0  0
   21.8580  -16.5498   22.5874 C   0  0  0  0  0  0  0  0  0  0  0  0
   22.3673  -15.4211   23.1772 C   0  0  0  0  0  0  0  0  0  0  0  0
   21.8892  -14.9446   24.3873 C   0  0  0  0  0  0  0  0  0  0  0  0
   20.8578  -15.6605   24.9952 C   0  0  0  0  0  0  0  0  0  0  0  0
   17.6870  -17.6102   22.9432 O   0  0  0  0  0  0  0  0  0  0  0  0
   17.7170  -17.0369   24.3327 S   0  0  1  0  0  6  0  0  0  0  0  0
   16.5849  -17.6368   25.1086 O   0  0  0  0  0  0  0  0  0  0  0  0
   17.5083  -15.3472   24.2276 N   0  0  0  0  0  0  0  0  0  0  0  0
   18.1363  -14.7728   23.0685 C   0  0  0  0  0  0  0  0  0  0  0  0
   16.4888  -13.1260   23.3593 O   0  0  0  0  0  0  0  0  0  0  0  0
   15.8526  -12.1353   20.0288 C   0  0  0  0  0  0  0  0  0  0  0  0
   16.0530  -12.9422   19.0869 O   0  0  0  0  0  0  0  0  0  0  0  0
   14.5612  -11.6346   20.2414 N   0  0  0  0  0  0  0  0  0  0  0  0
   14.2606  -10.2627   20.5649 C   0  0  0  0  0  0  0  0  0  0  0  0
   12.7857  -13.3514   21.2934 O   0  0  0  0  0  0  0  0  0  0  0  0
   12.0146   -8.7808   23.1639 C   0  0  0  0  0  0  0  0  0  0  0  0
   11.9964   -7.3322   24.1558 Cl  0  0  0  0  0  0  0  0  0  0  0  0
  9  1  2  0
  1 31  1  0
  3  2  1  0
 31  2  2  0
 10  3  2  0
 11  4  2  0
  4 16  1  0
  5  6  1  0
  5 15  1  0
  5 26  1  6
  6  7  1  0
 14  7  1  0
 10  8  1  0
  8 30  1  0
  9 10  1  0
 29  9  1  0
 12 11  1  0
 11 19  1  0
 21 12  1  1
 15 13  1  0
 13 24  1  0
 13 25  2  0
 15 14  1  0
 16 17  2  0
 18 17  1  0
 19 18  2  0
 21 20  2  0
 21 22  2  0
 23 21  1  0
 24 23  1  0
 26 27  2  0
 28 26  1  0
 28 29  1  0
 31 32  1  0
M  END
$$$$
