
     RDKit          3D

 32 34  0  0  0  0  0  0  0  0999 V2000
   13.4697  -10.1044   22.9065 C   0  0  0  0  0  0  0  0  0  0  0  0
   11.5701   -8.7106   23.0845 C   0  0  0  0  0  0  0  0  0  0  0  0
   11.2753   -8.9808   21.7643 C   0  0  0  0  0  0  0  0  0  0  0  0
   20.2450  -13.9984   26.5731 C   0  0  0  0  0  0  0  0  0  0  0  0
   17.7176  -11.4386   21.4283 C   0  0  2  0  0  0  0  0  0  0  0  0
   18.8655  -10.8081   20.7208 C   0  0  0  0  0  0  0  0  0  0  0  0
   19.7409  -11.9096   20.2174 C   0  0  0  0  0  0  0  0  0  0  0  0
   11.7223  -10.0691   19.5884 C   0  0  0  0  0  0  0  0  0  0  0  0
   13.1618  -10.3738   21.5638 C   0  0  0  0  0  0  0  0  0  0  0  0
   12.0628   -9.8123   20.9880 C   0  0  0  0  0  0  0  0  0  0  0  0
   20.4719  -15.2953   26.1880 C   0  0  0  0  0  0  0  0  0  0  0  0
   19.5143  -16.3582   26.5328 C   0  0  0  0  0  0  0  0  0  0  0  0
   17.8442  -13.3841   23.0469 C   0  0  0  0  0  0  0  0  0  0  0  0
   19.2256  -13.1313   20.9344 C   0  0  0  0  0  0  0  0  0  0  0  0
   18.2367  -12.6971   21.8813 N   0  0  0  0  0  0  0  0  0  0  0  0
   21.1544  -12.9913   26.2457 C   0  0  0  0  0  0  0  0  0  0  0  0
   22.2778  -13.3232   25.5322 C   0  0  0  0  0  0  0  0  0  0  0  0
   22.5348  -14.6237   25.1288 C   0  0  0  0  0  0  0  0  0  0  0  0
   21.6001  -15.5989   25.4771 C   0  0  0  0  0  0  0  0  0  0  0  0
   19.4715  -17.2531   24.0201 O   0  0  0  0  0  0  0  0  0  0  0  0
   18.5541  -16.7107   25.0804 S   0  0  1  0  0  6  0  0  0  0  0  0
   17.5540  -17.7731   25.4190 O   0  0  0  0  0  0  0  0  0  0  0  0
   17.7487  -15.3436   24.4542 N   0  0  0  0  0  0  0  0  0  0  0  0
   18.5857  -14.5336   23.6109 C   0  0  0  0  0  0  0  0  0  0  0  0
   16.7927  -13.0199   23.6783 O   0  0  0  0  0  0  0  0  0  0  0  0
   16.5178  -11.5964   20.5658 C   0  0  0  0  0  0  0  0  0  0  0  0
   16.5415  -12.5123   19.7062 O   0  0  0  0  0  0  0  0  0  0  0  0
   15.3830  -10.7808   20.6694 N   0  0  0  0  0  0  0  0  0  0  0  0
   14.0350  -11.2714   20.8080 C   0  0  0  0  0  0  0  0  0  0  0  0
   12.3574   -9.2150   18.6893 O   0  0  0  0  0  0  0  0  0  0  0  0
   12.6829   -9.2779   23.6703 C   0  0  0  0  0  0  0  0  0  0  0  0
   13.1294   -8.9866   25.3433 Cl  0  0  0  0  0  0  0  0  0  0  0  0
  9  1  2  0
  1 31  1  0
  3  2  1  0
 31  2  2  0
 10  3  2  0
 11  4  2  0
  4 16  1  0
  5  6  1  0
  5 15  1  0
  5 26  1  6
  6  7  1  0
 14  7  1  0
 10  8  1  0
  8 30  1  0
  9 10  1  0
 29  9  1  0
 12 11  1  0
 11 19  1  0
 21 12  1  1
 15 13  1  0
 13 24  1  0
 13 25  2  0
 15 14  1  0
 16 17  2  0
 18 17  1  0
 19 18  2  0
 21 20  2  0
 21 22  2  0
 23 21  1  0
 24 23  1  0
 26 27  2  0
 28 26  1  0
 28 29  1  0
 31 32  1  0
M  END
$$$$
