
     RDKit          3D

 32 34  0  0  0  0  0  0  0  0999 V2000
   12.5242  -11.0619   22.9156 C   0  0  0  0  0  0  0  0  0  0  0  0
   10.9655   -9.2599   23.0613 C   0  0  0  0  0  0  0  0  0  0  0  0
   11.3450   -8.8963   21.7983 C   0  0  0  0  0  0  0  0  0  0  0  0
   21.5014  -14.7618   24.7703 C   0  0  0  0  0  0  0  0  0  0  0  0
   17.7039  -11.2739   21.0303 C   0  0  2  0  0  0  0  0  0  0  0  0
   18.8135  -10.9839   20.0382 C   0  0  0  0  0  0  0  0  0  0  0  0
   18.8455  -12.3342   19.3068 C   0  0  0  0  0  0  0  0  0  0  0  0
   12.6750   -9.1671   19.7369 C   0  0  0  0  0  0  0  0  0  0  0  0
   12.9190  -10.7102   21.6422 C   0  0  0  0  0  0  0  0  0  0  0  0
   12.3014   -9.5961   21.0879 C   0  0  0  0  0  0  0  0  0  0  0  0
   20.3945  -15.3806   25.2924 C   0  0  0  0  0  0  0  0  0  0  0  0
   19.9688  -16.6763   24.7131 C   0  0  0  0  0  0  0  0  0  0  0  0
   17.8725  -13.0882   22.8270 C   0  0  0  0  0  0  0  0  0  0  0  0
   18.9031  -13.2631   20.5285 C   0  0  0  0  0  0  0  0  0  0  0  0
   18.1368  -12.5608   21.5400 N   0  0  0  0  0  0  0  0  0  0  0  0
   21.8836  -13.5536   25.3258 C   0  0  0  0  0  0  0  0  0  0  0  0
   21.1844  -12.9850   26.3654 C   0  0  0  0  0  0  0  0  0  0  0  0
   20.0711  -13.6010   26.8953 C   0  0  0  0  0  0  0  0  0  0  0  0
   19.6907  -14.8208   26.3295 C   0  0  0  0  0  0  0  0  0  0  0  0
   17.7848  -17.5201   23.4492 O   0  0  0  0  0  0  0  0  0  0  0  0
   18.1780  -16.6158   24.5868 S   0  0  1  0  0  6  0  0  0  0  0  0
   17.5364  -17.1482   25.8214 O   0  0  0  0  0  0  0  0  0  0  0  0
   17.6508  -14.9978   24.3082 N   0  0  0  0  0  0  0  0  0  0  0  0
   18.3833  -14.4202   23.2003 C   0  0  0  0  0  0  0  0  0  0  0  0
   17.2071  -12.4538   23.6797 O   0  0  0  0  0  0  0  0  0  0  0  0
   16.3856  -11.3788   20.3491 C   0  0  0  0  0  0  0  0  0  0  0  0
   16.3376  -12.0375   19.2794 O   0  0  0  0  0  0  0  0  0  0  0  0
   15.2077  -10.7921   20.8249 N   0  0  0  0  0  0  0  0  0  0  0  0
   13.9479  -11.5022   20.9375 C   0  0  0  0  0  0  0  0  0  0  0  0
   12.1661  -10.0622   18.7902 O   0  0  0  0  0  0  0  0  0  0  0  0
   11.5736  -10.3692   23.6258 C   0  0  0  0  0  0  0  0  0  0  0  0
   11.0732  -10.8194   25.2446 Cl  0  0  0  0  0  0  0  0  0  0  0  0
  9  1  2  0
  1 31  1  0
  3  2  1  0
 31  2  2  0
 10  3  2  0
 11  4  2  0
  4 16  1  0
  6  5  1  1
  5 15  1  0
  5 26  1  6
  6  7  1  0
  7 14  1  6
 10  8  1  0
  8 30  1  6
  9 10  1  0
 29  9  1  0
 12 11  1  1
 11 19  1  0
 21 12  1  0
 15 13  1  0
 13 24  1  0
 13 25  2  0
 14 15  1  6
 16 17  2  0
 18 17  1  0
 19 18  2  0
 21 20  2  0
 21 22  2  0
 21 23  1  6
 24 23  1  6
 26 27  2  0
 28 26  1  0
 29 28  1  6
 31 32  1  0
M  END
$$$$
