
     RDKit          3D

 32 34  0  0  0  0  0  0  0  0999 V2000
   13.3551   -8.5699   23.0319 C   0  0  0  0  0  0  0  0  0  0  0  0
   11.1432   -9.0282   23.7252 C   0  0  0  0  0  0  0  0  0  0  0  0
   11.0385   -9.9518   22.7060 C   0  0  0  0  0  0  0  0  0  0  0  0
   20.1798  -14.9541   26.8393 C   0  0  0  0  0  0  0  0  0  0  0  0
   16.8597  -11.4882   20.4431 C   0  0  2  0  0  0  0  0  0  0  0  0
   17.7667  -10.7342   19.5349 C   0  0  0  0  0  0  0  0  0  0  0  0
   18.5220  -11.7362   18.7234 C   0  0  0  0  0  0  0  0  0  0  0  0
   11.9286  -11.1880   20.7572 C   0  0  0  0  0  0  0  0  0  0  0  0
   13.2394   -9.5118   21.9977 C   0  0  0  0  0  0  0  0  0  0  0  0
   12.0799  -10.2062   21.8313 C   0  0  0  0  0  0  0  0  0  0  0  0
   20.1494  -14.4139   25.5788 C   0  0  0  0  0  0  0  0  0  0  0  0
   18.8697  -14.2093   24.8815 C   0  0  0  0  0  0  0  0  0  0  0  0
   17.4619  -13.5541   21.7811 C   0  0  0  0  0  0  0  0  0  0  0  0
   18.2489  -13.0424   19.4244 C   0  0  0  0  0  0  0  0  0  0  0  0
   17.5202  -12.7486   20.6268 N   0  0  0  0  0  0  0  0  0  0  0  0
   21.3944  -15.1481   27.4993 C   0  0  0  0  0  0  0  0  0  0  0  0
   22.5554  -14.7882   26.8638 C   0  0  0  0  0  0  0  0  0  0  0  0
   22.5573  -14.2401   25.5912 C   0  0  0  0  0  0  0  0  0  0  0  0
   21.3218  -14.0637   24.9680 C   0  0  0  0  0  0  0  0  0  0  0  0
   19.5299  -16.6132   23.9318 O   0  0  0  0  0  0  0  0  0  0  0  0
   18.3222  -15.7904   24.2847 S   0  0  1  0  0  6  0  0  0  0  0  0
   17.5905  -16.4875   25.3903 O   0  0  0  0  0  0  0  0  0  0  0  0
   17.3175  -15.6832   22.9104 N   0  0  0  0  0  0  0  0  0  0  0  0
   17.9226  -14.9595   21.8251 C   0  0  0  0  0  0  0  0  0  0  0  0
   16.9902  -13.0753   22.8697 O   0  0  0  0  0  0  0  0  0  0  0  0
   15.4857  -11.6410   19.8981 C   0  0  0  0  0  0  0  0  0  0  0  0
   15.3443  -12.3717   18.8859 O   0  0  0  0  0  0  0  0  0  0  0  0
   14.3628  -11.0150   20.4557 N   0  0  0  0  0  0  0  0  0  0  0  0
   14.3864   -9.7352   21.1179 C   0  0  0  0  0  0  0  0  0  0  0  0
   11.7050  -10.6210   19.5043 O   0  0  0  0  0  0  0  0  0  0  0  0
   12.3167   -8.3232   23.8960 C   0  0  0  0  0  0  0  0  0  0  0  0
   12.5332   -7.1308   25.1667 Cl  0  0  0  0  0  0  0  0  0  0  0  0
  9  1  2  0
  1 31  1  0
  3  2  1  0
 31  2  2  0
 10  3  2  0
 11  4  2  0
  4 16  1  0
  5  6  1  0
  5 15  1  0
  5 26  1  6
  6  7  1  0
 14  7  1  0
 10  8  1  0
  8 30  1  0
  9 10  1  0
 29  9  1  0
 12 11  1  0
 11 19  1  0
 21 12  1  1
 15 13  1  0
 13 24  1  0
 13 25  2  0
 15 14  1  0
 16 17  2  0
 18 17  1  0
 19 18  2  0
 21 20  2  0
 21 22  2  0
 23 21  1  0
 24 23  1  0
 26 27  2  0
 28 26  1  0
 28 29  1  0
 31 32  1  0
M  END
$$$$
