
     RDKit          3D

 32 34  0  0  0  0  0  0  0  0999 V2000
   11.9147  -11.1329   22.8179 C   0  0  0  0  0  0  0  0  0  0  0  0
   10.9457   -8.9523   22.8829 C   0  0  0  0  0  0  0  0  0  0  0  0
   11.7540   -8.6170   21.8314 C   0  0  0  0  0  0  0  0  0  0  0  0
   19.9706  -14.4595   26.8818 C   0  0  0  0  0  0  0  0  0  0  0  0
   17.4332  -12.4550   21.8583 C   0  0  2  0  0  0  0  0  0  0  0  0
   18.5946  -12.1291   20.9393 C   0  0  0  0  0  0  0  0  0  0  0  0
   18.4830  -13.3188   19.9742 C   0  0  0  0  0  0  0  0  0  0  0  0
   13.4840   -9.1102   20.1416 C   0  0  0  0  0  0  0  0  0  0  0  0
   12.7366  -10.8128   21.7582 C   0  0  0  0  0  0  0  0  0  0  0  0
   12.6381   -9.5169   21.2674 C   0  0  0  0  0  0  0  0  0  0  0  0
   20.7479  -15.2512   26.0758 C   0  0  0  0  0  0  0  0  0  0  0  0
   20.5410  -16.7180   26.1132 C   0  0  0  0  0  0  0  0  0  0  0  0
   17.3370  -14.5704   23.2950 C   0  0  0  0  0  0  0  0  0  0  0  0
   18.3975  -14.4528   21.0064 C   0  0  0  0  0  0  0  0  0  0  0  0
   17.6954  -13.8560   22.1265 N   0  0  0  0  0  0  0  0  0  0  0  0
   20.1778  -13.0924   26.8314 C   0  0  0  0  0  0  0  0  0  0  0  0
   21.1277  -12.5374   26.0051 C   0  0  0  0  0  0  0  0  0  0  0  0
   21.9125  -13.3267   25.1924 C   0  0  0  0  0  0  0  0  0  0  0  0
   21.6979  -14.7064   25.2484 C   0  0  0  0  0  0  0  0  0  0  0  0
   18.7710  -18.5240   25.2857 O   0  0  0  0  0  0  0  0  0  0  0  0
   18.9548  -17.0305   25.3304 S   0  0  1  0  0  6  0  0  0  0  0  0
   17.8384  -16.4683   26.1409 O   0  0  0  0  0  0  0  0  0  0  0  0
   18.9236  -16.3504   23.7461 N   0  0  0  0  0  0  0  0  0  0  0  0
   17.5629  -16.0256   23.3713 C   0  0  0  0  0  0  0  0  0  0  0  0
   16.8240  -14.0023   24.2882 O   0  0  0  0  0  0  0  0  0  0  0  0
   16.1297  -12.2728   21.1651 C   0  0  0  0  0  0  0  0  0  0  0  0
   16.0556  -12.6413   19.9655 O   0  0  0  0  0  0  0  0  0  0  0  0
   14.9927  -11.7199   21.7647 N   0  0  0  0  0  0  0  0  0  0  0  0
   13.6599  -11.8230   21.2018 C   0  0  0  0  0  0  0  0  0  0  0  0
   12.8243   -9.3525   18.9323 O   0  0  0  0  0  0  0  0  0  0  0  0
   11.0341  -10.2416   23.3818 C   0  0  0  0  0  0  0  0  0  0  0  0
    9.9898  -10.6519   24.7289 Cl  0  0  0  0  0  0  0  0  0  0  0  0
  9  1  2  0
  1 31  1  0
  3  2  1  0
 31  2  2  0
 10  3  2  0
 11  4  2  0
  4 16  1  0
  6  5  1  1
  5 15  1  0
  5 26  1  6
  6  7  1  0
  7 14  1  6
 10  8  1  0
  8 30  1  6
  9 10  1  0
 29  9  1  0
 12 11  1  1
 11 19  1  0
 21 12  1  0
 15 13  1  0
 13 24  1  0
 13 25  2  0
 14 15  1  6
 16 17  2  0
 18 17  1  0
 19 18  2  0
 21 20  2  0
 21 22  2  0
 21 23  1  6
 24 23  1  6
 26 27  2  0
 28 26  1  0
 29 28  1  6
 31 32  1  0
M  END
$$$$
