
     RDKit          3D

 32 34  0  0  0  0  0  0  0  0999 V2000
   13.5930   -9.7256   23.0480 C   0  0  0  0  0  0  0  0  0  0  0  0
   11.4316   -8.7867   22.8749 C   0  0  0  0  0  0  0  0  0  0  0  0
   11.1396   -9.6974   21.8808 C   0  0  0  0  0  0  0  0  0  0  0  0
   14.8998  -16.6934   20.9345 C   0  0  0  0  0  0  0  0  0  0  0  0
   17.9414  -11.4116   21.1245 C   0  0  2  0  0  0  0  0  0  0  0  0
   18.8445  -10.8078   20.1068 C   0  0  0  0  0  0  0  0  0  0  0  0
   19.6602  -11.9136   19.5196 C   0  0  0  0  0  0  0  0  0  0  0  0
   11.7145  -11.5823   20.3857 C   0  0  0  0  0  0  0  0  0  0  0  0
   13.2868  -10.6486   22.0359 C   0  0  0  0  0  0  0  0  0  0  0  0
   12.0582  -10.6373   21.4485 C   0  0  0  0  0  0  0  0  0  0  0  0
   15.6858  -16.7769   22.0555 C   0  0  0  0  0  0  0  0  0  0  0  0
   16.8397  -15.8806   22.2305 C   0  0  0  0  0  0  0  0  0  0  0  0
   18.5837  -13.1543   22.8482 C   0  0  0  0  0  0  0  0  0  0  0  0
   19.4174  -13.0714   20.4538 C   0  0  0  0  0  0  0  0  0  0  0  0
   18.6440  -12.5838   21.5616 N   0  0  0  0  0  0  0  0  0  0  0  0
   13.8058  -17.5446   20.7695 C   0  0  0  0  0  0  0  0  0  0  0  0
   13.5324  -18.4650   21.7490 C   0  0  0  0  0  0  0  0  0  0  0  0
   14.3075  -18.5736   22.8925 C   0  0  0  0  0  0  0  0  0  0  0  0
   15.3909  -17.7037   23.0170 C   0  0  0  0  0  0  0  0  0  0  0  0
   16.4743  -16.3558   24.8300 O   0  0  0  0  0  0  0  0  0  0  0  0
   17.5711  -16.2451   23.8078 S   0  0  1  0  0  6  0  0  0  0  0  0
   18.2585  -17.5728   23.7166 O   0  0  0  0  0  0  0  0  0  0  0  0
   18.6811  -15.0592   24.3285 N   0  0  0  0  0  0  0  0  0  0  0  0
   19.3247  -14.3734   23.2408 C   0  0  0  0  0  0  0  0  0  0  0  0
   17.8574  -12.6139   23.7522 O   0  0  0  0  0  0  0  0  0  0  0  0
   16.5903  -11.7251   20.5910 C   0  0  0  0  0  0  0  0  0  0  0  0
   16.5008  -12.6657   19.7630 O   0  0  0  0  0  0  0  0  0  0  0  0
   15.4342  -11.0276   20.9660 N   0  0  0  0  0  0  0  0  0  0  0  0
   14.3052  -11.6201   21.6380 C   0  0  0  0  0  0  0  0  0  0  0  0
   11.4567  -10.9777   19.1573 O   0  0  0  0  0  0  0  0  0  0  0  0
   12.6755   -8.7957   23.4715 C   0  0  0  0  0  0  0  0  0  0  0  0
   13.1284   -7.6724   24.7428 Cl  0  0  0  0  0  0  0  0  0  0  0  0
  9  1  2  0
  1 31  1  0
  3  2  1  0
 31  2  2  0
 10  3  2  0
 11  4  2  0
  4 16  1  0
  5  6  1  0
  5 15  1  0
  5 26  1  6
  6  7  1  0
 14  7  1  0
 10  8  1  0
  8 30  1  0
  9 10  1  0
 29  9  1  0
 12 11  1  0
 11 19  1  0
 21 12  1  6
 15 13  1  0
 13 24  1  0
 13 25  2  0
 15 14  1  0
 16 17  2  0
 18 17  1  0
 19 18  2  0
 21 20  2  0
 21 22  2  0
 23 21  1  0
 24 23  1  0
 26 27  2  0
 28 26  1  0
 28 29  1  0
 31 32  1  0
M  END
$$$$
