
     RDKit          3D

 32 34  0  0  0  0  0  0  0  0999 V2000
   12.9976   -9.0142   23.1152 C   0  0  0  0  0  0  0  0  0  0  0  0
   11.0534  -10.1310   23.8608 C   0  0  0  0  0  0  0  0  0  0  0  0
   11.2055  -11.0367   22.8315 C   0  0  0  0  0  0  0  0  0  0  0  0
   21.1940  -15.0075   26.3745 C   0  0  0  0  0  0  0  0  0  0  0  0
   16.8530  -11.4627   21.2299 C   0  0  2  0  0  0  0  0  0  0  0  0
   18.0048  -10.6665   20.7245 C   0  0  0  0  0  0  0  0  0  0  0  0
   19.0183  -11.6300   20.1977 C   0  0  0  0  0  0  0  0  0  0  0  0
   12.3720  -11.9305   20.8418 C   0  0  0  0  0  0  0  0  0  0  0  0
   13.1444   -9.9406   22.0709 C   0  0  0  0  0  0  0  0  0  0  0  0
   12.2481  -10.9555   21.9256 C   0  0  0  0  0  0  0  0  0  0  0  0
   20.3498  -15.1065   25.2979 C   0  0  0  0  0  0  0  0  0  0  0  0
   19.4153  -16.2371   25.1793 C   0  0  0  0  0  0  0  0  0  0  0  0
   16.9910  -13.5736   22.6247 C   0  0  0  0  0  0  0  0  0  0  0  0
   18.5445  -12.9646   20.7140 C   0  0  0  0  0  0  0  0  0  0  0  0
   17.4337  -12.7237   21.5922 N   0  0  0  0  0  0  0  0  0  0  0  0
   22.0802  -13.9348   26.4854 C   0  0  0  0  0  0  0  0  0  0  0  0
   22.0904  -12.9826   25.4981 C   0  0  0  0  0  0  0  0  0  0  0  0
   21.2500  -13.0547   24.3988 C   0  0  0  0  0  0  0  0  0  0  0  0
   20.3804  -14.1432   24.3276 C   0  0  0  0  0  0  0  0  0  0  0  0
   17.0532  -16.4513   26.4004 O   0  0  0  0  0  0  0  0  0  0  0  0
   17.7700  -15.6008   25.3890 S   0  0  1  0  0  6  0  0  0  0  0  0
   17.8654  -14.2091   25.9345 O   0  0  0  0  0  0  0  0  0  0  0  0
   16.8604  -15.5902   23.9461 N   0  0  0  0  0  0  0  0  0  0  0  0
   17.5335  -14.9299   22.8604 C   0  0  0  0  0  0  0  0  0  0  0  0
   16.0697  -13.1827   23.4217 O   0  0  0  0  0  0  0  0  0  0  0  0
   15.7616  -11.6058   20.2315 C   0  0  0  0  0  0  0  0  0  0  0  0
   15.9830  -12.3389   19.2356 O   0  0  0  0  0  0  0  0  0  0  0  0
   14.5195  -10.9684   20.3527 N   0  0  0  0  0  0  0  0  0  0  0  0
   14.2779   -9.7975   21.1576 C   0  0  0  0  0  0  0  0  0  0  0  0
   12.8434  -13.1745   21.2555 O   0  0  0  0  0  0  0  0  0  0  0  0
   11.9599   -9.1018   24.0103 C   0  0  0  0  0  0  0  0  0  0  0  0
   11.8396   -7.9075   25.2917 Cl  0  0  0  0  0  0  0  0  0  0  0  0
  9  1  2  0
  1 31  1  0
  3  2  1  0
 31  2  2  0
 10  3  2  0
 11  4  2  0
  4 16  1  0
  5  6  1  0
  5 15  1  0
  5 26  1  6
  6  7  1  0
 14  7  1  0
 10  8  1  0
  8 30  1  0
  9 10  1  0
 29  9  1  0
 12 11  1  0
 11 19  1  0
 21 12  1  6
 15 13  1  0
 13 24  1  0
 13 25  2  0
 15 14  1  0
 16 17  2  0
 18 17  1  0
 19 18  2  0
 21 20  2  0
 21 22  2  0
 23 21  1  0
 24 23  1  0
 26 27  2  0
 28 26  1  0
 28 29  1  0
 31 32  1  0
M  END
$$$$
