
     RDKit          3D

 32 34  0  0  0  0  0  0  0  0999 V2000
   13.1884   -8.6264   22.7259 C   0  0  0  0  0  0  0  0  0  0  0  0
   10.8192   -8.9147   22.7697 C   0  0  0  0  0  0  0  0  0  0  0  0
   11.0122  -10.1633   22.2451 C   0  0  0  0  0  0  0  0  0  0  0  0
   19.2986  -15.6742   25.7990 C   0  0  0  0  0  0  0  0  0  0  0  0
   17.5080  -11.0541   20.7435 C   0  0  2  0  0  0  0  0  0  0  0  0
   18.7288  -10.7004   19.9163 C   0  0  0  0  0  0  0  0  0  0  0  0
   18.7063  -11.8796   18.9322 C   0  0  0  0  0  0  0  0  0  0  0  0
   12.4276  -11.9985   21.3965 C   0  0  0  0  0  0  0  0  0  0  0  0
   13.4019   -9.8818   22.1972 C   0  0  0  0  0  0  0  0  0  0  0  0
   12.2718  -10.6536   21.9583 C   0  0  0  0  0  0  0  0  0  0  0  0
   20.2253  -16.1131   24.8883 C   0  0  0  0  0  0  0  0  0  0  0  0
   19.7523  -16.8744   23.7083 C   0  0  0  0  0  0  0  0  0  0  0  0
   17.3383  -13.1883   22.1452 C   0  0  0  0  0  0  0  0  0  0  0  0
   18.5622  -13.0274   19.9425 C   0  0  0  0  0  0  0  0  0  0  0  0
   17.7708  -12.4544   21.0144 N   0  0  0  0  0  0  0  0  0  0  0  0
   19.7600  -14.9639   26.8930 C   0  0  0  0  0  0  0  0  0  0  0  0
   21.0990  -14.7022   27.0699 C   0  0  0  0  0  0  0  0  0  0  0  0
   22.0361  -15.1400   26.1590 C   0  0  0  0  0  0  0  0  0  0  0  0
   21.5632  -15.8567   25.0565 C   0  0  0  0  0  0  0  0  0  0  0  0
   17.4641  -17.5615   22.5372 O   0  0  0  0  0  0  0  0  0  0  0  0
   17.9594  -16.7656   23.7152 S   0  0  1  0  0  6  0  0  0  0  0  0
   17.3905  -17.3873   24.9437 O   0  0  0  0  0  0  0  0  0  0  0  0
   17.4581  -15.1190   23.6106 N   0  0  0  0  0  0  0  0  0  0  0  0
   17.6631  -14.6216   22.2660 C   0  0  0  0  0  0  0  0  0  0  0  0
   16.6757  -12.6560   23.0672 O   0  0  0  0  0  0  0  0  0  0  0  0
   16.2564  -10.8818   19.9583 C   0  0  0  0  0  0  0  0  0  0  0  0
   16.2904  -11.1901   18.7400 O   0  0  0  0  0  0  0  0  0  0  0  0
   15.0555  -10.4005   20.4915 N   0  0  0  0  0  0  0  0  0  0  0  0
   14.7757  -10.3453   21.9137 C   0  0  0  0  0  0  0  0  0  0  0  0
   12.5015  -11.9313   20.0014 O   0  0  0  0  0  0  0  0  0  0  0  0
   11.9380   -8.1346   23.0127 C   0  0  0  0  0  0  0  0  0  0  0  0
   11.6698   -6.5382   23.6856 Cl  0  0  0  0  0  0  0  0  0  0  0  0
  9  1  2  0
  1 31  1  0
  3  2  1  0
 31  2  2  0
 10  3  2  0
 11  4  2  0
  4 16  1  0
  6  5  1  1
  5 15  1  0
  5 26  1  6
  6  7  1  0
  7 14  1  6
 10  8  1  0
  8 30  1  6
  9 10  1  0
 29  9  1  0
 12 11  1  1
 11 19  1  0
 21 12  1  0
 15 13  1  0
 13 24  1  0
 13 25  2  0
 14 15  1  6
 16 17  2  0
 18 17  1  0
 19 18  2  0
 21 20  2  0
 21 22  2  0
 21 23  1  6
 24 23  1  6
 26 27  2  0
 28 26  1  0
 29 28  1  6
 31 32  1  0
M  END
$$$$
