
     RDKit          3D

 32 34  0  0  0  0  0  0  0  0999 V2000
   12.4932  -11.7805   20.2561 C   0  0  0  0  0  0  0  0  0  0  0  0
   10.7339  -11.7721   21.8334 C   0  0  0  0  0  0  0  0  0  0  0  0
   11.1926  -10.5600   22.3058 C   0  0  0  0  0  0  0  0  0  0  0  0
   20.1158  -14.5298   25.7614 C   0  0  0  0  0  0  0  0  0  0  0  0
   17.5847  -11.4442   21.0429 C   0  0  2  0  0  0  0  0  0  0  0  0
   18.6856  -11.0849   20.1076 C   0  0  0  0  0  0  0  0  0  0  0  0
   19.1442  -12.3462   19.4503 C   0  0  0  0  0  0  0  0  0  0  0  0
   12.7646   -8.6501   22.3033 C   0  0  0  0  0  0  0  0  0  0  0  0
   12.9525  -10.5468   20.7432 C   0  0  0  0  0  0  0  0  0  0  0  0
   12.3032   -9.9322   21.7704 C   0  0  0  0  0  0  0  0  0  0  0  0
   20.8565  -15.4228   25.0296 C   0  0  0  0  0  0  0  0  0  0  0  0
   20.2433  -16.6537   24.5058 C   0  0  0  0  0  0  0  0  0  0  0  0
   17.5532  -13.4220   22.6267 C   0  0  0  0  0  0  0  0  0  0  0  0
   18.5000  -13.4324   20.2733 C   0  0  0  0  0  0  0  0  0  0  0  0
   17.8594  -12.8073   21.3966 N   0  0  0  0  0  0  0  0  0  0  0  0
   20.6988  -13.3628   26.2581 C   0  0  0  0  0  0  0  0  0  0  0  0
   22.0252  -13.1267   26.0003 C   0  0  0  0  0  0  0  0  0  0  0  0
   22.7994  -14.0092   25.2643 C   0  0  0  0  0  0  0  0  0  0  0  0
   22.1771  -15.1628   24.7871 C   0  0  0  0  0  0  0  0  0  0  0  0
   17.8159  -17.6702   24.0689 O   0  0  0  0  0  0  0  0  0  0  0  0
   18.4983  -16.5655   24.8266 S   0  0  1  0  0  6  0  0  0  0  0  0
   18.2725  -16.7954   26.2894 O   0  0  0  0  0  0  0  0  0  0  0  0
   17.8005  -15.0789   24.3653 N   0  0  0  0  0  0  0  0  0  0  0  0
   17.9037  -14.8217   22.9543 C   0  0  0  0  0  0  0  0  0  0  0  0
   16.9382  -12.7619   23.5338 O   0  0  0  0  0  0  0  0  0  0  0  0
   16.2347  -11.2732   20.4459 C   0  0  0  0  0  0  0  0  0  0  0  0
   15.8772  -12.1090   19.5787 O   0  0  0  0  0  0  0  0  0  0  0  0
   15.3609  -10.2376   20.8033 N   0  0  0  0  0  0  0  0  0  0  0  0
   14.1276   -9.9379   20.1204 C   0  0  0  0  0  0  0  0  0  0  0  0
   12.4048   -7.5541   21.5221 O   0  0  0  0  0  0  0  0  0  0  0  0
   11.3899  -12.3971   20.7930 C   0  0  0  0  0  0  0  0  0  0  0  0
   10.8725  -13.9396   20.1327 Cl  0  0  0  0  0  0  0  0  0  0  0  0
  9  1  2  0
  1 31  1  0
  3  2  1  0
 31  2  2  0
 10  3  2  0
 11  4  2  0
  4 16  1  0
  5  6  1  0
  5 15  1  0
  5 26  1  6
  6  7  1  0
 14  7  1  0
 10  8  1  0
  8 30  1  0
  9 10  1  0
 29  9  1  0
 12 11  1  0
 11 19  1  0
 21 12  1  1
 15 13  1  0
 13 24  1  0
 13 25  2  0
 15 14  1  0
 16 17  2  0
 18 17  1  0
 19 18  2  0
 21 20  2  0
 21 22  2  0
 23 21  1  0
 24 23  1  0
 26 27  2  0
 28 26  1  0
 28 29  1  0
 31 32  1  0
M  END
$$$$
