
     RDKit          3D

 32 34  0  0  0  0  0  0  0  0999 V2000
   13.1702   -9.0923   23.3484 C   0  0  0  0  0  0  0  0  0  0  0  0
   10.8278   -8.9141   23.0942 C   0  0  0  0  0  0  0  0  0  0  0  0
   10.8461  -10.0597   22.3260 C   0  0  0  0  0  0  0  0  0  0  0  0
   20.8460  -15.2263   26.6302 C   0  0  0  0  0  0  0  0  0  0  0  0
   17.3742  -11.5913   21.1351 C   0  0  2  0  0  0  0  0  0  0  0  0
   18.5177  -10.9919   20.3942 C   0  0  0  0  0  0  0  0  0  0  0  0
   19.1263  -12.0722   19.5600 C   0  0  0  0  0  0  0  0  0  0  0  0
   11.9969  -11.9529   21.2260 C   0  0  0  0  0  0  0  0  0  0  0  0
   13.1790  -10.2575   22.5658 C   0  0  0  0  0  0  0  0  0  0  0  0
   12.0161  -10.7452   22.0516 C   0  0  0  0  0  0  0  0  0  0  0  0
   20.2920  -14.4953   25.6102 C   0  0  0  0  0  0  0  0  0  0  0  0
   18.8341  -14.4692   25.4125 C   0  0  0  0  0  0  0  0  0  0  0  0
   17.3653  -13.8360   22.3106 C   0  0  0  0  0  0  0  0  0  0  0  0
   18.5026  -13.3340   20.0993 C   0  0  0  0  0  0  0  0  0  0  0  0
   17.7239  -12.9778   21.2526 N   0  0  0  0  0  0  0  0  0  0  0  0
   22.2292  -15.2506   26.8163 C   0  0  0  0  0  0  0  0  0  0  0  0
   23.0227  -14.5300   25.9605 C   0  0  0  0  0  0  0  0  0  0  0  0
   22.4931  -13.7819   24.9213 C   0  0  0  0  0  0  0  0  0  0  0  0
   21.1063  -13.7857   24.7713 C   0  0  0  0  0  0  0  0  0  0  0  0
   19.5699  -16.6993   24.1470 O   0  0  0  0  0  0  0  0  0  0  0  0
   18.3537  -16.0395   24.7349 S   0  0  1  0  0  6  0  0  0  0  0  0
   17.8484  -16.9029   25.8497 O   0  0  0  0  0  0  0  0  0  0  0  0
   17.1624  -15.9156   23.5203 N   0  0  0  0  0  0  0  0  0  0  0  0
   17.6450  -15.2890   22.3194 C   0  0  0  0  0  0  0  0  0  0  0  0
   16.7631  -13.3660   23.3368 O   0  0  0  0  0  0  0  0  0  0  0  0
   16.0693  -11.3903   20.4531 C   0  0  0  0  0  0  0  0  0  0  0  0
   15.9318  -11.8941   19.3105 O   0  0  0  0  0  0  0  0  0  0  0  0
   15.0063  -10.6753   21.0211 N   0  0  0  0  0  0  0  0  0  0  0  0
   14.4532  -10.9347   22.3265 C   0  0  0  0  0  0  0  0  0  0  0  0
   11.8989  -13.1337   21.9589 O   0  0  0  0  0  0  0  0  0  0  0  0
   12.0044   -8.4177   23.6162 C   0  0  0  0  0  0  0  0  0  0  0  0
   12.0693   -6.9669   24.6031 Cl  0  0  0  0  0  0  0  0  0  0  0  0
  9  1  2  0
  1 31  1  0
  3  2  1  0
 31  2  2  0
 10  3  2  0
 11  4  2  0
  4 16  1  0
  5  6  1  0
  5 15  1  0
  5 26  1  6
  6  7  1  0
 14  7  1  0
 10  8  1  0
  8 30  1  0
  9 10  1  0
 29  9  1  0
 12 11  1  0
 11 19  1  0
 21 12  1  1
 15 13  1  0
 13 24  1  0
 13 25  2  0
 15 14  1  0
 16 17  2  0
 18 17  1  0
 19 18  2  0
 21 20  2  0
 21 22  2  0
 23 21  1  0
 24 23  1  0
 26 27  2  0
 28 26  1  0
 28 29  1  0
 31 32  1  0
M  END
$$$$
