
     RDKit          3D

 32 34  0  0  0  0  0  0  0  0999 V2000
   12.7432  -12.4542   21.4311 C   0  0  0  0  0  0  0  0  0  0  0  0
   11.5552  -11.3727   23.1638 C   0  0  0  0  0  0  0  0  0  0  0  0
   11.9085  -10.1565   22.6171 C   0  0  0  0  0  0  0  0  0  0  0  0
   20.3332  -15.8402   26.6107 C   0  0  0  0  0  0  0  0  0  0  0  0
   17.5430  -11.0408   20.5704 C   0  0  2  0  0  0  0  0  0  0  0  0
   18.7839  -10.4525   19.9960 C   0  0  0  0  0  0  0  0  0  0  0  0
   19.6415  -11.5839   19.5296 C   0  0  0  0  0  0  0  0  0  0  0  0
   13.0423   -8.7500   20.9275 C   0  0  0  0  0  0  0  0  0  0  0  0
   13.0976  -11.2121   20.8818 C   0  0  0  0  0  0  0  0  0  0  0  0
   12.6812  -10.0584   21.4736 C   0  0  0  0  0  0  0  0  0  0  0  0
   20.0011  -16.0301   25.2934 C   0  0  0  0  0  0  0  0  0  0  0  0
   18.8468  -16.8647   24.9241 C   0  0  0  0  0  0  0  0  0  0  0  0
   17.4139  -13.0466   22.1134 C   0  0  0  0  0  0  0  0  0  0  0  0
   18.9968  -12.7986   20.1467 C   0  0  0  0  0  0  0  0  0  0  0  0
   17.9493  -12.3424   21.0171 N   0  0  0  0  0  0  0  0  0  0  0  0
   21.4286  -15.0486   26.9597 C   0  0  0  0  0  0  0  0  0  0  0  0
   22.1656  -14.4649   25.9609 C   0  0  0  0  0  0  0  0  0  0  0  0
   21.8553  -14.6376   24.6215 C   0  0  0  0  0  0  0  0  0  0  0  0
   20.7528  -15.4363   24.3173 C   0  0  0  0  0  0  0  0  0  0  0  0
   16.2073  -16.5458   25.1435 O   0  0  0  0  0  0  0  0  0  0  0  0
   17.4432  -15.7918   24.7382 S   0  0  1  0  0  6  0  0  0  0  0  0
   17.6069  -14.6306   25.6701 O   0  0  0  0  0  0  0  0  0  0  0  0
   17.2338  -15.2226   23.1439 N   0  0  0  0  0  0  0  0  0  0  0  0
   18.1229  -14.1430   22.8097 C   0  0  0  0  0  0  0  0  0  0  0  0
   16.2522  -12.7473   22.5579 O   0  0  0  0  0  0  0  0  0  0  0  0
   16.4216  -11.0987   19.5970 C   0  0  0  0  0  0  0  0  0  0  0  0
   16.6249  -11.7096   18.5181 O   0  0  0  0  0  0  0  0  0  0  0  0
   15.1708  -10.5108   19.8284 N   0  0  0  0  0  0  0  0  0  0  0  0
   13.9083  -11.1865   19.6647 C   0  0  0  0  0  0  0  0  0  0  0  0
   12.3838   -8.4345   19.7410 O   0  0  0  0  0  0  0  0  0  0  0  0
   11.9758  -12.5430   22.5665 C   0  0  0  0  0  0  0  0  0  0  0  0
   11.5710  -14.1310   23.1968 Cl  0  0  0  0  0  0  0  0  0  0  0  0
  9  1  2  0
  1 31  1  0
  3  2  1  0
 31  2  2  0
 10  3  2  0
 11  4  2  0
  4 16  1  0
  5  6  1  0
  5 15  1  0
  5 26  1  6
  6  7  1  0
 14  7  1  0
 10  8  1  0
  8 30  1  0
  9 10  1  0
 29  9  1  0
 12 11  1  0
 11 19  1  0
 21 12  1  6
 15 13  1  0
 13 24  1  0
 13 25  2  0
 15 14  1  0
 16 17  2  0
 18 17  1  0
 19 18  2  0
 21 20  2  0
 21 22  2  0
 23 21  1  0
 24 23  1  0
 26 27  2  0
 28 26  1  0
 28 29  1  0
 31 32  1  0
M  END
$$$$
