
     RDKit          3D

 32 34  0  0  0  0  0  0  0  0999 V2000
   13.3139   -8.6019   22.8032 C   0  0  0  0  0  0  0  0  0  0  0  0
   11.4467   -9.7729   23.6549 C   0  0  0  0  0  0  0  0  0  0  0  0
   11.7457  -10.8207   22.8089 C   0  0  0  0  0  0  0  0  0  0  0  0
   20.1627  -16.9236   24.1725 C   0  0  0  0  0  0  0  0  0  0  0  0
   17.2154  -11.3830   20.8149 C   0  0  2  0  0  0  0  0  0  0  0  0
   18.4583  -10.8852   20.1643 C   0  0  0  0  0  0  0  0  0  0  0  0
   19.2244  -12.0778   19.6911 C   0  0  0  0  0  0  0  0  0  0  0  0
   13.1077  -11.9147   21.0577 C   0  0  0  0  0  0  0  0  0  0  0  0
   13.6106   -9.6731   21.9461 C   0  0  0  0  0  0  0  0  0  0  0  0
   12.8268  -10.7867   21.9461 C   0  0  0  0  0  0  0  0  0  0  0  0
   19.8821  -16.5170   25.4522 C   0  0  0  0  0  0  0  0  0  0  0  0
   18.4893  -16.3678   25.9030 C   0  0  0  0  0  0  0  0  0  0  0  0
   17.0467  -13.3354   22.4213 C   0  0  0  0  0  0  0  0  0  0  0  0
   18.5417  -13.2350   20.3743 C   0  0  0  0  0  0  0  0  0  0  0  0
   17.5670  -12.6940   21.2800 N   0  0  0  0  0  0  0  0  0  0  0  0
   21.4844  -17.0643   23.7460 C   0  0  0  0  0  0  0  0  0  0  0  0
   22.4959  -16.7886   24.6304 C   0  0  0  0  0  0  0  0  0  0  0  0
   22.2446  -16.3763   25.9292 C   0  0  0  0  0  0  0  0  0  0  0  0
   20.9098  -16.2487   26.3138 C   0  0  0  0  0  0  0  0  0  0  0  0
   18.2418  -17.3676   23.4422 O   0  0  0  0  0  0  0  0  0  0  0  0
   17.4347  -16.6799   24.5080 S   0  0  1  0  0  6  0  0  0  0  0  0
   16.3422  -17.6101   24.9378 O   0  0  0  0  0  0  0  0  0  0  0  0
   16.7541  -15.2635   23.8448 N   0  0  0  0  0  0  0  0  0  0  0  0
   17.6955  -14.4901   23.0809 C   0  0  0  0  0  0  0  0  0  0  0  0
   15.9540  -12.9220   22.9427 O   0  0  0  0  0  0  0  0  0  0  0  0
   16.0455  -11.4001   19.8987 C   0  0  0  0  0  0  0  0  0  0  0  0
   16.1231  -12.1274   18.8772 O   0  0  0  0  0  0  0  0  0  0  0  0
   14.8818  -10.6523   20.1227 N   0  0  0  0  0  0  0  0  0  0  0  0
   14.7763   -9.5701   21.0687 C   0  0  0  0  0  0  0  0  0  0  0  0
   12.2663  -11.9807   19.9492 O   0  0  0  0  0  0  0  0  0  0  0  0
   12.2390   -8.6435   23.6568 C   0  0  0  0  0  0  0  0  0  0  0  0
   11.9288   -7.2664   24.7009 Cl  0  0  0  0  0  0  0  0  0  0  0  0
  9  1  2  0
  1 31  1  0
  3  2  1  0
 31  2  2  0
 10  3  2  0
 11  4  2  0
  4 16  1  0
  5  6  1  0
  5 15  1  0
  5 26  1  6
  6  7  1  0
 14  7  1  0
 10  8  1  0
  8 30  1  0
  9 10  1  0
 29  9  1  0
 12 11  1  0
 11 19  1  0
 21 12  1  1
 15 13  1  0
 13 24  1  0
 13 25  2  0
 15 14  1  0
 16 17  2  0
 18 17  1  0
 19 18  2  0
 21 20  2  0
 21 22  2  0
 23 21  1  0
 24 23  1  0
 26 27  2  0
 28 26  1  0
 28 29  1  0
 31 32  1  0
M  END
$$$$
