
     RDKit          3D

 32 34  0  0  0  0  0  0  0  0999 V2000
   13.5643   -8.5753   22.8037 C   0  0  0  0  0  0  0  0  0  0  0  0
   11.7471   -9.7956   23.6936 C   0  0  0  0  0  0  0  0  0  0  0  0
   12.0013  -10.7977   22.7803 C   0  0  0  0  0  0  0  0  0  0  0  0
   18.8499  -13.8720   26.8464 C   0  0  0  0  0  0  0  0  0  0  0  0
   16.9789  -11.6609   19.8758 C   0  0  2  0  0  0  0  0  0  0  0  0
   17.8091  -11.2373   18.7151 C   0  0  0  0  0  0  0  0  0  0  0  0
   18.1202  -12.4616   17.9166 C   0  0  0  0  0  0  0  0  0  0  0  0
   13.2682  -11.7956   20.9048 C   0  0  0  0  0  0  0  0  0  0  0  0
   13.8156   -9.6002   21.8782 C   0  0  0  0  0  0  0  0  0  0  0  0
   13.0342  -10.7155   21.8636 C   0  0  0  0  0  0  0  0  0  0  0  0
   19.4668  -13.8074   25.6230 C   0  0  0  0  0  0  0  0  0  0  0  0
   18.6733  -13.7696   24.3843 C   0  0  0  0  0  0  0  0  0  0  0  0
   17.3794  -13.6896   21.3402 C   0  0  0  0  0  0  0  0  0  0  0  0
   17.7211  -13.5936   18.8285 C   0  0  0  0  0  0  0  0  0  0  0  0
   17.3616  -13.0258   20.0978 N   0  0  0  0  0  0  0  0  0  0  0  0
   19.6038  -13.9083   28.0206 C   0  0  0  0  0  0  0  0  0  0  0  0
   20.9719  -13.8781   27.9274 C   0  0  0  0  0  0  0  0  0  0  0  0
   21.6242  -13.8127   26.7066 C   0  0  0  0  0  0  0  0  0  0  0  0
   20.8326  -13.7784   25.5585 C   0  0  0  0  0  0  0  0  0  0  0  0
   19.4256  -16.3252   24.5238 O   0  0  0  0  0  0  0  0  0  0  0  0
   18.3942  -15.4473   23.8713 S   0  0  1  0  0  6  0  0  0  0  0  0
   17.0437  -15.8741   24.3587 O   0  0  0  0  0  0  0  0  0  0  0  0
   18.4885  -15.6622   22.1818 N   0  0  0  0  0  0  0  0  0  0  0  0
   17.3347  -15.1615   21.4848 C   0  0  0  0  0  0  0  0  0  0  0  0
   17.4373  -13.0127   22.4243 O   0  0  0  0  0  0  0  0  0  0  0  0
   15.5203  -11.5121   19.6333 C   0  0  0  0  0  0  0  0  0  0  0  0
   14.8880  -12.5360   19.2724 O   0  0  0  0  0  0  0  0  0  0  0  0
   14.8345  -10.2999   19.7873 N   0  0  0  0  0  0  0  0  0  0  0  0
   14.9322   -9.4481   20.9458 C   0  0  0  0  0  0  0  0  0  0  0  0
   12.4102  -12.8821   21.0612 O   0  0  0  0  0  0  0  0  0  0  0  0
   12.5370   -8.6645   23.7106 C   0  0  0  0  0  0  0  0  0  0  0  0
   12.2819   -7.3437   24.8389 Cl  0  0  0  0  0  0  0  0  0  0  0  0
  9  1  2  0
  1 31  1  0
  3  2  1  0
 31  2  2  0
 10  3  2  0
 11  4  2  0
  4 16  1  0
  5  6  1  0
  5 15  1  0
  5 26  1  6
  6  7  1  0
 14  7  1  0
 10  8  1  0
  8 30  1  0
  9 10  1  0
 29  9  1  0
 12 11  1  0
 11 19  1  0
 21 12  1  6
 15 13  1  0
 13 24  1  0
 13 25  2  0
 15 14  1  0
 16 17  2  0
 18 17  1  0
 19 18  2  0
 21 20  2  0
 21 22  2  0
 23 21  1  0
 24 23  1  0
 26 27  2  0
 28 26  1  0
 28 29  1  0
 31 32  1  0
M  END
$$$$
