
     RDKit          3D

 32 34  0  0  0  0  0  0  0  0999 V2000
   12.4059  -10.7462   22.9648 C   0  0  0  0  0  0  0  0  0  0  0  0
   10.6678   -9.1543   22.7979 C   0  0  0  0  0  0  0  0  0  0  0  0
   10.8566   -9.1240   21.4317 C   0  0  0  0  0  0  0  0  0  0  0  0
   21.0555  -13.9858   25.8250 C   0  0  0  0  0  0  0  0  0  0  0  0
   17.4594  -11.5427   21.4256 C   0  0  2  0  0  0  0  0  0  0  0  0
   18.3947  -10.8664   20.4855 C   0  0  0  0  0  0  0  0  0  0  0  0
   19.2131  -11.9290   19.8265 C   0  0  0  0  0  0  0  0  0  0  0  0
   11.9920   -9.8321   19.3514 C   0  0  0  0  0  0  0  0  0  0  0  0
   12.5906  -10.7089   21.5739 C   0  0  0  0  0  0  0  0  0  0  0  0
   11.8160   -9.8970   20.8024 C   0  0  0  0  0  0  0  0  0  0  0  0
   20.3290  -15.0456   26.3051 C   0  0  0  0  0  0  0  0  0  0  0  0
   18.8912  -14.9037   26.5846 C   0  0  0  0  0  0  0  0  0  0  0  0
   18.0383  -13.4336   23.0098 C   0  0  0  0  0  0  0  0  0  0  0  0
   18.9339  -13.1586   20.6524 C   0  0  0  0  0  0  0  0  0  0  0  0
   18.1377  -12.7568   21.7784 N   0  0  0  0  0  0  0  0  0  0  0  0
   22.4194  -14.1217   25.5607 C   0  0  0  0  0  0  0  0  0  0  0  0
   23.0182  -15.3342   25.7901 C   0  0  0  0  0  0  0  0  0  0  0  0
   22.3114  -16.4232   26.2744 C   0  0  0  0  0  0  0  0  0  0  0  0
   20.9509  -16.2437   26.5249 C   0  0  0  0  0  0  0  0  0  0  0  0
   18.1304  -17.3173   25.7406 O   0  0  0  0  0  0  0  0  0  0  0  0
   18.0100  -15.8635   25.3771 S   0  0  1  0  0  6  0  0  0  0  0  0
   16.5614  -15.4869   25.4368 O   0  0  0  0  0  0  0  0  0  0  0  0
   18.5928  -15.6509   23.7882 N   0  0  0  0  0  0  0  0  0  0  0  0
   19.0920  -14.3247   23.5438 C   0  0  0  0  0  0  0  0  0  0  0  0
   16.9921  -13.2925   23.7325 O   0  0  0  0  0  0  0  0  0  0  0  0
   16.1190  -11.7921   20.8343 C   0  0  0  0  0  0  0  0  0  0  0  0
   16.0398  -12.6605   19.9299 O   0  0  0  0  0  0  0  0  0  0  0  0
   14.9620  -11.1111   21.2360 N   0  0  0  0  0  0  0  0  0  0  0  0
   13.6179  -11.5623   20.9774 C   0  0  0  0  0  0  0  0  0  0  0  0
   13.0313   -8.9967   18.9477 O   0  0  0  0  0  0  0  0  0  0  0  0
   11.4513   -9.9758   23.5819 C   0  0  0  0  0  0  0  0  0  0  0  0
   11.2766  -10.0742   25.3263 Cl  0  0  0  0  0  0  0  0  0  0  0  0
  9  1  2  0
  1 31  1  0
  3  2  1  0
 31  2  2  0
 10  3  2  0
 11  4  2  0
  4 16  1  0
  5  6  1  0
  5 15  1  0
  5 26  1  6
  6  7  1  0
 14  7  1  0
 10  8  1  0
  8 30  1  0
  9 10  1  0
 29  9  1  0
 12 11  1  0
 11 19  1  0
 21 12  1  1
 15 13  1  0
 13 24  1  0
 13 25  2  0
 15 14  1  0
 16 17  2  0
 18 17  1  0
 19 18  2  0
 21 20  2  0
 21 22  2  0
 23 21  1  0
 24 23  1  0
 26 27  2  0
 28 26  1  0
 28 29  1  0
 31 32  1  0
M  END
$$$$
