
     RDKit          3D

 32 34  0  0  0  0  0  0  0  0999 V2000
   11.4772  -10.8550   21.9878 C   0  0  0  0  0  0  0  0  0  0  0  0
   11.5374   -8.7338   23.0809 C   0  0  0  0  0  0  0  0  0  0  0  0
   12.4384   -8.3286   22.1347 C   0  0  0  0  0  0  0  0  0  0  0  0
   21.6556  -14.2941   26.3477 C   0  0  0  0  0  0  0  0  0  0  0  0
   16.2185  -13.1417   20.5260 C   0  0  2  0  0  0  0  0  0  0  0  0
   17.1382  -13.0789   19.3220 C   0  0  0  0  0  0  0  0  0  0  0  0
   16.7016  -14.3703   18.6142 C   0  0  0  0  0  0  0  0  0  0  0  0
   13.8324   -8.6837   20.1291 C   0  0  0  0  0  0  0  0  0  0  0  0
   12.3843  -10.4639   21.0259 C   0  0  0  0  0  0  0  0  0  0  0  0
   12.8647   -9.1639   21.1199 C   0  0  0  0  0  0  0  0  0  0  0  0
   20.7326  -15.2836   26.1249 C   0  0  0  0  0  0  0  0  0  0  0  0
   19.8019  -15.1386   24.9811 C   0  0  0  0  0  0  0  0  0  0  0  0
   16.3194  -15.0139   22.2676 C   0  0  0  0  0  0  0  0  0  0  0  0
   16.7877  -15.3339   19.8070 C   0  0  0  0  0  0  0  0  0  0  0  0
   16.4314  -14.5128   20.9483 N   0  0  0  0  0  0  0  0  0  0  0  0
   22.5167  -14.4487   27.4196 C   0  0  0  0  0  0  0  0  0  0  0  0
   22.4568  -15.5524   28.2388 C   0  0  0  0  0  0  0  0  0  0  0  0
   21.5319  -16.5508   28.0212 C   0  0  0  0  0  0  0  0  0  0  0  0
   20.6655  -16.3882   26.9369 C   0  0  0  0  0  0  0  0  0  0  0  0
   19.2930  -17.7074   24.5107 O   0  0  0  0  0  0  0  0  0  0  0  0
   18.6284  -16.4931   25.1023 S   0  0  1  0  0  6  0  0  0  0  0  0
   18.3164  -16.8048   26.5253 O   0  0  0  0  0  0  0  0  0  0  0  0
   17.1750  -16.1047   24.2594 N   0  0  0  0  0  0  0  0  0  0  0  0
   17.4850  -15.6322   22.9259 C   0  0  0  0  0  0  0  0  0  0  0  0
   15.2452  -14.9514   22.9115 O   0  0  0  0  0  0  0  0  0  0  0  0
   14.8018  -12.9113   20.1348 C   0  0  0  0  0  0  0  0  0  0  0  0
   14.0827  -13.9241   19.9413 O   0  0  0  0  0  0  0  0  0  0  0  0
   14.2292  -11.6451   19.9705 N   0  0  0  0  0  0  0  0  0  0  0  0
   12.7984  -11.4074   19.9671 C   0  0  0  0  0  0  0  0  0  0  0  0
   13.2216   -8.5703   18.8760 O   0  0  0  0  0  0  0  0  0  0  0  0
   11.0503  -10.0281   22.9986 C   0  0  0  0  0  0  0  0  0  0  0  0
    9.8962  -10.5281   24.2198 Cl  0  0  0  0  0  0  0  0  0  0  0  0
  9  1  2  0
  1 31  1  0
  3  2  1  0
 31  2  2  0
 10  3  2  0
 11  4  2  0
  4 16  1  0
  6  5  1  1
  5 15  1  0
  5 26  1  6
  6  7  1  0
  7 14  1  6
 10  8  1  0
  8 30  1  6
  9 10  1  0
 29  9  1  0
 12 11  1  1
 11 19  1  0
 21 12  1  0
 15 13  1  0
 13 24  1  0
 13 25  2  0
 14 15  1  6
 16 17  2  0
 18 17  1  0
 19 18  2  0
 21 20  2  0
 21 22  2  0
 21 23  1  6
 24 23  1  6
 26 27  2  0
 28 26  1  0
 29 28  1  6
 31 32  1  0
M  END
$$$$
