
     RDKit          3D

 32 34  0  0  0  0  0  0  0  0999 V2000
   13.1987   -9.4798   22.9988 C   0  0  0  0  0  0  0  0  0  0  0  0
   10.8827   -8.9120   22.8903 C   0  0  0  0  0  0  0  0  0  0  0  0
   10.7214   -9.9497   22.0136 C   0  0  0  0  0  0  0  0  0  0  0  0
   20.2225  -14.3411   25.4725 C   0  0  0  0  0  0  0  0  0  0  0  0
   17.5198  -11.2513   21.1548 C   0  0  2  0  0  0  0  0  0  0  0  0
   18.7161  -10.7066   20.3987 C   0  0  0  0  0  0  0  0  0  0  0  0
   18.8890  -11.8347   19.3707 C   0  0  0  0  0  0  0  0  0  0  0  0
   11.5527  -11.8533   20.6807 C   0  0  0  0  0  0  0  0  0  0  0  0
   13.0549  -10.5296   22.1166 C   0  0  0  0  0  0  0  0  0  0  0  0
   11.7756  -10.7532   21.6233 C   0  0  0  0  0  0  0  0  0  0  0  0
   20.7835  -15.4690   24.9303 C   0  0  0  0  0  0  0  0  0  0  0  0
   19.8867  -16.5612   24.4846 C   0  0  0  0  0  0  0  0  0  0  0  0
   17.5751  -13.4485   22.4653 C   0  0  0  0  0  0  0  0  0  0  0  0
   18.8560  -13.0344   20.3290 C   0  0  0  0  0  0  0  0  0  0  0  0
   17.9531  -12.6162   21.3843 N   0  0  0  0  0  0  0  0  0  0  0  0
   21.0764  -13.3320   25.8811 C   0  0  0  0  0  0  0  0  0  0  0  0
   22.4414  -13.4467   25.7523 C   0  0  0  0  0  0  0  0  0  0  0  0
   23.0123  -14.5771   25.2084 C   0  0  0  0  0  0  0  0  0  0  0  0
   22.1441  -15.5922   24.7979 C   0  0  0  0  0  0  0  0  0  0  0  0
   17.5627  -17.1812   25.6221 O   0  0  0  0  0  0  0  0  0  0  0  0
   18.2135  -16.0429   24.8825 S   0  0  1  0  0  6  0  0  0  0  0  0
   18.2210  -14.8652   25.7947 O   0  0  0  0  0  0  0  0  0  0  0  0
   17.3465  -15.6581   23.4424 N   0  0  0  0  0  0  0  0  0  0  0  0
   18.1481  -14.8011   22.5937 C   0  0  0  0  0  0  0  0  0  0  0  0
   16.7548  -13.0726   23.3360 O   0  0  0  0  0  0  0  0  0  0  0  0
   16.2894  -11.2087   20.3197 C   0  0  0  0  0  0  0  0  0  0  0  0
   16.3671  -11.6649   19.1508 O   0  0  0  0  0  0  0  0  0  0  0  0
   15.0629  -10.6949   20.7553 N   0  0  0  0  0  0  0  0  0  0  0  0
   14.2243  -11.3503   21.7407 C   0  0  0  0  0  0  0  0  0  0  0  0
   11.5797  -13.0780   21.3558 O   0  0  0  0  0  0  0  0  0  0  0  0
   12.1535   -8.6783   23.3898 C   0  0  0  0  0  0  0  0  0  0  0  0
   12.3395   -7.3446   24.5123 Cl  0  0  0  0  0  0  0  0  0  0  0  0
  9  1  2  0
  1 31  1  0
  3  2  1  0
 31  2  2  0
 10  3  2  0
 11  4  2  0
  4 16  1  0
  6  5  1  1
  5 15  1  0
  5 26  1  6
  6  7  1  0
  7 14  1  6
 10  8  1  0
  8 30  1  6
  9 10  1  0
 29  9  1  0
 12 11  1  1
 11 19  1  0
 21 12  1  0
 15 13  1  0
 13 24  1  0
 13 25  2  0
 14 15  1  6
 16 17  2  0
 18 17  1  0
 19 18  2  0
 21 20  2  0
 21 22  2  0
 21 23  1  6
 24 23  1  6
 26 27  2  0
 28 26  1  0
 29 28  1  6
 31 32  1  0
M  END
$$$$
