
     RDKit          3D

 32 34  0  0  0  0  0  0  0  0999 V2000
   13.3800   -9.9986   23.2261 C   0  0  0  0  0  0  0  0  0  0  0  0
   11.2256   -8.9751   23.1313 C   0  0  0  0  0  0  0  0  0  0  0  0
   11.1034   -9.4677   21.8609 C   0  0  0  0  0  0  0  0  0  0  0  0
   20.0877  -14.0935   26.3253 C   0  0  0  0  0  0  0  0  0  0  0  0
   17.8631  -11.0747   20.8672 C   0  0  2  0  0  0  0  0  0  0  0  0
   19.0196  -10.8955   19.9029 C   0  0  0  0  0  0  0  0  0  0  0  0
   18.8861  -12.2077   19.1158 C   0  0  0  0  0  0  0  0  0  0  0  0
   11.9208  -10.7246   19.9004 C   0  0  0  0  0  0  0  0  0  0  0  0
   13.2743  -10.5030   21.9473 C   0  0  0  0  0  0  0  0  0  0  0  0
   12.0982  -10.2189   21.2647 C   0  0  0  0  0  0  0  0  0  0  0  0
   20.3248  -15.3521   25.8350 C   0  0  0  0  0  0  0  0  0  0  0  0
   19.2969  -16.3985   26.0449 C   0  0  0  0  0  0  0  0  0  0  0  0
   17.7564  -12.9656   22.5880 C   0  0  0  0  0  0  0  0  0  0  0  0
   18.7974  -13.1841   20.2979 C   0  0  0  0  0  0  0  0  0  0  0  0
   18.1121  -12.4271   21.3280 N   0  0  0  0  0  0  0  0  0  0  0  0
   21.0589  -13.1300   26.1178 C   0  0  0  0  0  0  0  0  0  0  0  0
   22.2245  -13.4149   25.4447 C   0  0  0  0  0  0  0  0  0  0  0  0
   22.4697  -14.6773   24.9491 C   0  0  0  0  0  0  0  0  0  0  0  0
   21.4848  -15.6454   25.1623 C   0  0  0  0  0  0  0  0  0  0  0  0
   18.9320  -16.9392   23.4654 O   0  0  0  0  0  0  0  0  0  0  0  0
   18.1967  -16.3256   24.6269 S   0  0  1  0  0  6  0  0  0  0  0  0
   16.9709  -17.1401   24.8585 O   0  0  0  0  0  0  0  0  0  0  0  0
   17.7557  -14.6923   24.2933 N   0  0  0  0  0  0  0  0  0  0  0  0
   18.2144  -14.3134   22.9729 C   0  0  0  0  0  0  0  0  0  0  0  0
   17.0522  -12.3281   23.4066 O   0  0  0  0  0  0  0  0  0  0  0  0
   16.5554  -10.9759   20.1649 C   0  0  0  0  0  0  0  0  0  0  0  0
   16.5063  -11.3760   18.9741 O   0  0  0  0  0  0  0  0  0  0  0  0
   15.3886  -10.4678   20.7468 N   0  0  0  0  0  0  0  0  0  0  0  0
   14.3760  -11.2994   21.3687 C   0  0  0  0  0  0  0  0  0  0  0  0
   11.4663  -12.0470   19.9331 O   0  0  0  0  0  0  0  0  0  0  0  0
   12.3936   -9.2513   23.8231 C   0  0  0  0  0  0  0  0  0  0  0  0
   12.5308   -8.6119   25.4497 Cl  0  0  0  0  0  0  0  0  0  0  0  0
  9  1  2  0
  1 31  1  0
  3  2  1  0
 31  2  2  0
 10  3  2  0
 11  4  2  0
  4 16  1  0
  6  5  1  1
  5 15  1  0
  5 26  1  6
  6  7  1  0
  7 14  1  6
 10  8  1  0
  8 30  1  6
  9 10  1  0
 29  9  1  0
 12 11  1  1
 11 19  1  0
 21 12  1  0
 15 13  1  0
 13 24  1  0
 13 25  2  0
 14 15  1  6
 16 17  2  0
 18 17  1  0
 19 18  2  0
 21 20  2  0
 21 22  2  0
 21 23  1  6
 24 23  1  6
 26 27  2  0
 28 26  1  0
 29 28  1  6
 31 32  1  0
M  END
$$$$
