
     RDKit          3D

 32 34  0  0  0  0  0  0  0  0999 V2000
   14.2434   -9.3047   22.5947 C   0  0  0  0  0  0  0  0  0  0  0  0
   12.0047   -9.8178   23.2451 C   0  0  0  0  0  0  0  0  0  0  0  0
   11.7648  -10.1808   21.9482 C   0  0  0  0  0  0  0  0  0  0  0  0
   18.0777  -18.8612   23.8157 C   0  0  0  0  0  0  0  0  0  0  0  0
   17.4000  -11.3566   21.3192 C   0  0  2  0  0  0  0  0  0  0  0  0
   18.7231  -11.1412   20.6102 C   0  0  0  0  0  0  0  0  0  0  0  0
   19.0426  -12.5980   20.2427 C   0  0  0  0  0  0  0  0  0  0  0  0
   12.4357  -10.5126   19.5963 C   0  0  0  0  0  0  0  0  0  0  0  0
   14.0198   -9.6661   21.2831 C   0  0  0  0  0  0  0  0  0  0  0  0
   12.7414  -10.1127   20.9730 C   0  0  0  0  0  0  0  0  0  0  0  0
   19.1120  -17.9616   23.7743 C   0  0  0  0  0  0  0  0  0  0  0  0
   18.8101  -16.5261   23.9835 C   0  0  0  0  0  0  0  0  0  0  0  0
   17.1703  -12.7316   23.4651 C   0  0  0  0  0  0  0  0  0  0  0  0
   18.8128  -13.2440   21.6170 C   0  0  0  0  0  0  0  0  0  0  0  0
   17.7516  -12.4495   22.2054 N   0  0  0  0  0  0  0  0  0  0  0  0
   18.3803  -20.1970   23.6195 C   0  0  0  0  0  0  0  0  0  0  0  0
   19.6701  -20.6177   23.3903 C   0  0  0  0  0  0  0  0  0  0  0  0
   20.7145  -19.7195   23.3473 C   0  0  0  0  0  0  0  0  0  0  0  0
   20.4018  -18.3721   23.5462 C   0  0  0  0  0  0  0  0  0  0  0  0
   16.4063  -16.8166   22.8804 O   0  0  0  0  0  0  0  0  0  0  0  0
   17.0296  -16.4029   24.1868 S   0  0  1  0  0  6  0  0  0  0  0  0
   16.5438  -17.3476   25.2311 O   0  0  0  0  0  0  0  0  0  0  0  0
   16.5842  -14.7909   24.6074 N   0  0  0  0  0  0  0  0  0  0  0  0
   17.6514  -13.8745   24.2630 C   0  0  0  0  0  0  0  0  0  0  0  0
   16.2428  -12.0331   23.9386 O   0  0  0  0  0  0  0  0  0  0  0  0
   16.3347  -11.7591   20.3621 C   0  0  0  0  0  0  0  0  0  0  0  0
   16.2183  -12.9847   20.1074 O   0  0  0  0  0  0  0  0  0  0  0  0
   15.4639  -10.8615   19.7343 N   0  0  0  0  0  0  0  0  0  0  0  0
   15.1086   -9.5693   20.2892 C   0  0  0  0  0  0  0  0  0  0  0  0
   12.7020   -9.4568   18.7185 O   0  0  0  0  0  0  0  0  0  0  0  0
   13.2756   -9.3707   23.5677 C   0  0  0  0  0  0  0  0  0  0  0  0
   13.5632   -8.9110   25.2349 Cl  0  0  0  0  0  0  0  0  0  0  0  0
  9  1  2  0
  1 31  1  0
  3  2  1  0
 31  2  2  0
 10  3  2  0
 11  4  2  0
  4 16  1  0
  6  5  1  1
  5 15  1  0
  5 26  1  6
  6  7  1  0
  7 14  1  6
 10  8  1  0
  8 30  1  6
  9 10  1  0
 29  9  1  0
 12 11  1  1
 11 19  1  0
 21 12  1  0
 15 13  1  0
 13 24  1  0
 13 25  2  0
 14 15  1  6
 16 17  2  0
 18 17  1  0
 19 18  2  0
 21 20  2  0
 21 22  2  0
 21 23  1  1
 24 23  1  6
 26 27  2  0
 28 26  1  0
 29 28  1  6
 31 32  1  0
M  END
$$$$
