
     RDKit          3D

 32 34  0  0  0  0  0  0  0  0999 V2000
   12.0564  -11.5100   22.0835 C   0  0  0  0  0  0  0  0  0  0  0  0
   10.7675   -9.6679   22.8104 C   0  0  0  0  0  0  0  0  0  0  0  0
   11.4993   -8.8530   21.9717 C   0  0  0  0  0  0  0  0  0  0  0  0
   16.6278  -19.5145   26.0525 C   0  0  0  0  0  0  0  0  0  0  0  0
   17.5675  -11.9726   21.3058 C   0  0  2  0  0  0  0  0  0  0  0  0
   18.6433  -11.3408   20.4938 C   0  0  0  0  0  0  0  0  0  0  0  0
   19.3687  -12.4362   19.7818 C   0  0  0  0  0  0  0  0  0  0  0  0
   13.2788   -8.4441   20.3029 C   0  0  0  0  0  0  0  0  0  0  0  0
   12.7956  -10.6732   21.2329 C   0  0  0  0  0  0  0  0  0  0  0  0
   12.5193   -9.3410   21.1743 C   0  0  0  0  0  0  0  0  0  0  0  0
   17.0420  -18.9285   24.8835 C   0  0  0  0  0  0  0  0  0  0  0  0
   16.5770  -17.5822   24.5139 C   0  0  0  0  0  0  0  0  0  0  0  0
   17.7948  -14.0589   22.7258 C   0  0  0  0  0  0  0  0  0  0  0  0
   18.8820  -13.6891   20.4639 C   0  0  0  0  0  0  0  0  0  0  0  0
   18.0640  -13.2915   21.5756 N   0  0  0  0  0  0  0  0  0  0  0  0
   17.0693  -20.7918   26.4017 C   0  0  0  0  0  0  0  0  0  0  0  0
   17.9245  -21.4488   25.5541 C   0  0  0  0  0  0  0  0  0  0  0  0
   18.3609  -20.8835   24.3667 C   0  0  0  0  0  0  0  0  0  0  0  0
   17.8952  -19.6057   24.0564 C   0  0  0  0  0  0  0  0  0  0  0  0
   16.8356  -15.3106   25.8886 O   0  0  0  0  0  0  0  0  0  0  0  0
   17.6660  -16.4064   25.2804 S   0  0  1  0  0  6  0  0  0  0  0  0
   18.4077  -17.0959   26.3840 O   0  0  0  0  0  0  0  0  0  0  0  0
   18.7776  -15.7056   24.1928 N   0  0  0  0  0  0  0  0  0  0  0  0
   18.2175  -15.4673   22.8900 C   0  0  0  0  0  0  0  0  0  0  0  0
   17.1511  -13.5403   23.7023 O   0  0  0  0  0  0  0  0  0  0  0  0
   16.2518  -11.9912   20.6152 C   0  0  0  0  0  0  0  0  0  0  0  0
   16.1409  -12.7291   19.6045 O   0  0  0  0  0  0  0  0  0  0  0  0
   15.1509  -11.2335   21.0366 N   0  0  0  0  0  0  0  0  0  0  0  0
   13.8527  -11.2620   20.4112 C   0  0  0  0  0  0  0  0  0  0  0  0
   14.5593   -8.1566   20.7706 O   0  0  0  0  0  0  0  0  0  0  0  0
   11.0455  -11.0178   22.8718 C   0  0  0  0  0  0  0  0  0  0  0  0
   10.1630  -12.1238   23.9114 Cl  0  0  0  0  0  0  0  0  0  0  0  0
  9  1  2  0
  1 31  1  0
  3  2  1  0
 31  2  2  0
 10  3  2  0
 11  4  2  0
  4 16  1  0
  5  6  1  0
  5 15  1  0
  5 26  1  6
  6  7  1  0
 14  7  1  0
 10  8  1  0
  8 30  1  0
  9 10  1  0
 29  9  1  0
 12 11  1  0
 11 19  1  0
 21 12  1  6
 15 13  1  0
 13 24  1  0
 13 25  2  0
 15 14  1  0
 16 17  2  0
 18 17  1  0
 19 18  2  0
 21 20  2  0
 21 22  2  0
 23 21  1  0
 24 23  1  0
 26 27  2  0
 28 26  1  0
 28 29  1  0
 31 32  1  0
M  END
$$$$
