
     RDKit          3D

 32 34  0  0  0  0  0  0  0  0999 V2000
   12.9872   -8.6800   22.3672 C   0  0  0  0  0  0  0  0  0  0  0  0
   10.8336   -9.2474   23.1566 C   0  0  0  0  0  0  0  0  0  0  0  0
   10.8946  -10.4122   22.4201 C   0  0  0  0  0  0  0  0  0  0  0  0
   20.2576  -16.7347   24.1257 C   0  0  0  0  0  0  0  0  0  0  0  0
   17.3622  -12.3059   21.4414 C   0  0  2  0  0  0  0  0  0  0  0  0
   18.6149  -11.8136   20.8055 C   0  0  0  0  0  0  0  0  0  0  0  0
   19.0713  -12.8628   19.8444 C   0  0  0  0  0  0  0  0  0  0  0  0
   12.0183  -11.9796   20.8713 C   0  0  0  0  0  0  0  0  0  0  0  0
   13.0404   -9.8677   21.6212 C   0  0  0  0  0  0  0  0  0  0  0  0
   11.9934  -10.7382   21.6453 C   0  0  0  0  0  0  0  0  0  0  0  0
   19.4588  -17.6624   23.5069 C   0  0  0  0  0  0  0  0  0  0  0  0
   18.4360  -18.3977   24.2676 C   0  0  0  0  0  0  0  0  0  0  0  0
   16.9452  -14.6509   22.3062 C   0  0  0  0  0  0  0  0  0  0  0  0
   18.2314  -14.0628   20.2002 C   0  0  0  0  0  0  0  0  0  0  0  0
   17.4778  -13.7346   21.3781 N   0  0  0  0  0  0  0  0  0  0  0  0
   21.2277  -16.0383   23.4030 C   0  0  0  0  0  0  0  0  0  0  0  0
   21.3665  -16.2993   22.0636 C   0  0  0  0  0  0  0  0  0  0  0  0
   20.5749  -17.2301   21.4102 C   0  0  0  0  0  0  0  0  0  0  0  0
   19.6181  -17.9033   22.1701 C   0  0  0  0  0  0  0  0  0  0  0  0
   16.0902  -17.9687   25.4633 O   0  0  0  0  0  0  0  0  0  0  0  0
   17.0788  -17.2888   24.5575 S   0  0  1  0  0  6  0  0  0  0  0  0
   17.6001  -16.0754   25.2642 O   0  0  0  0  0  0  0  0  0  0  0  0
   16.2730  -16.8188   23.1295 N   0  0  0  0  0  0  0  0  0  0  0  0
   17.1239  -16.1164   22.2073 C   0  0  0  0  0  0  0  0  0  0  0  0
   16.2638  -14.2264   23.3023 O   0  0  0  0  0  0  0  0  0  0  0  0
   16.1337  -11.8052   20.7716 C   0  0  0  0  0  0  0  0  0  0  0  0
   16.0207  -12.0189   19.5388 O   0  0  0  0  0  0  0  0  0  0  0  0
   15.1159  -11.1171   21.4457 N   0  0  0  0  0  0  0  0  0  0  0  0
   14.2397  -10.1506   20.8332 C   0  0  0  0  0  0  0  0  0  0  0  0
   12.3426  -13.1058   21.6248 O   0  0  0  0  0  0  0  0  0  0  0  0
   11.8928   -8.3636   23.1340 C   0  0  0  0  0  0  0  0  0  0  0  0
   11.8962   -6.8604   24.0412 Cl  0  0  0  0  0  0  0  0  0  0  0  0
  9  1  2  0
  1 31  1  0
  3  2  1  0
 31  2  2  0
 10  3  2  0
 11  4  2  0
  4 16  1  0
  5  6  1  0
  5 15  1  0
  5 26  1  6
  6  7  1  0
 14  7  1  0
 10  8  1  0
  8 30  1  0
  9 10  1  0
 29  9  1  0
 12 11  1  0
 11 19  1  0
 21 12  1  6
 15 13  1  0
 13 24  1  0
 13 25  2  0
 15 14  1  0
 16 17  2  0
 18 17  1  0
 19 18  2  0
 21 20  2  0
 21 22  2  0
 23 21  1  0
 24 23  1  0
 26 27  2  0
 28 26  1  0
 28 29  1  0
 31 32  1  0
M  END
$$$$
