
     RDKit          3D

 32 34  0  0  0  0  0  0  0  0999 V2000
   11.9058   -9.5934   21.1416 C   0  0  0  0  0  0  0  0  0  0  0  0
   11.7146   -9.1686   23.4581 C   0  0  0  0  0  0  0  0  0  0  0  0
   13.0749   -9.3610   23.5833 C   0  0  0  0  0  0  0  0  0  0  0  0
   19.9656  -14.5932   26.3010 C   0  0  0  0  0  0  0  0  0  0  0  0
   17.3953  -11.5985   20.5972 C   0  0  2  0  0  0  0  0  0  0  0  0
   18.6389  -11.0251   20.0137 C   0  0  0  0  0  0  0  0  0  0  0  0
   19.3469  -12.1284   19.2962 C   0  0  0  0  0  0  0  0  0  0  0  0
   15.3169   -9.8760   22.6742 C   0  0  0  0  0  0  0  0  0  0  0  0
   13.2892   -9.7871   21.2786 C   0  0  0  0  0  0  0  0  0  0  0  0
   13.8786   -9.6715   22.5008 C   0  0  0  0  0  0  0  0  0  0  0  0
   20.5327  -14.9917   25.1173 C   0  0  0  0  0  0  0  0  0  0  0  0
   19.7682  -15.8003   24.1544 C   0  0  0  0  0  0  0  0  0  0  0  0
   17.1943  -13.8171   21.8047 C   0  0  0  0  0  0  0  0  0  0  0  0
   18.6386  -13.3728   19.7671 C   0  0  0  0  0  0  0  0  0  0  0  0
   17.7089  -12.9851   20.7910 N   0  0  0  0  0  0  0  0  0  0  0  0
   20.6920  -13.8266   27.2136 C   0  0  0  0  0  0  0  0  0  0  0  0
   21.9825  -13.4798   26.9041 C   0  0  0  0  0  0  0  0  0  0  0  0
   22.5830  -13.8668   25.7169 C   0  0  0  0  0  0  0  0  0  0  0  0
   21.8213  -14.6320   24.8335 C   0  0  0  0  0  0  0  0  0  0  0  0
   17.6638  -16.6334   25.5664 O   0  0  0  0  0  0  0  0  0  0  0  0
   18.0442  -15.6064   24.5365 S   0  0  1  0  0  6  0  0  0  0  0  0
   17.8406  -14.2486   25.1353 O   0  0  0  0  0  0  0  0  0  0  0  0
   17.0261  -15.7939   23.1808 N   0  0  0  0  0  0  0  0  0  0  0  0
   17.5810  -15.2348   21.9777 C   0  0  0  0  0  0  0  0  0  0  0  0
   16.3433  -13.3532   22.6398 O   0  0  0  0  0  0  0  0  0  0  0  0
   16.2023  -11.4013   19.7333 C   0  0  0  0  0  0  0  0  0  0  0  0
   16.3912  -11.3461   18.4925 O   0  0  0  0  0  0  0  0  0  0  0  0
   14.9003  -11.2762   20.2363 N   0  0  0  0  0  0  0  0  0  0  0  0
   14.0768  -10.1028   20.0872 C   0  0  0  0  0  0  0  0  0  0  0  0
   15.6368  -10.9613   23.4872 O   0  0  0  0  0  0  0  0  0  0  0  0
   11.1149   -9.2853   22.2211 C   0  0  0  0  0  0  0  0  0  0  0  0
    9.3916   -9.0566   21.9747 Cl  0  0  0  0  0  0  0  0  0  0  0  0
  9  1  2  0
  1 31  1  0
  3  2  1  0
 31  2  2  0
 10  3  2  0
 11  4  2  0
  4 16  1  0
  5  6  1  0
  5 15  1  0
  5 26  1  6
  6  7  1  0
 14  7  1  0
 10  8  1  0
  8 30  1  0
  9 10  1  0
 29  9  1  0
 12 11  1  0
 11 19  1  0
 21 12  1  6
 15 13  1  0
 13 24  1  0
 13 25  2  0
 15 14  1  0
 16 17  2  0
 18 17  1  0
 19 18  2  0
 21 20  2  0
 21 22  2  0
 23 21  1  0
 24 23  1  0
 26 27  2  0
 28 26  1  0
 28 29  1  0
 31 32  1  0
M  END
$$$$
