
     RDKit          3D

 32 34  0  0  0  0  0  0  0  0999 V2000
   12.6819   -8.9188   22.0884 C   0  0  0  0  0  0  0  0  0  0  0  0
   11.1428   -9.9076   23.5838 C   0  0  0  0  0  0  0  0  0  0  0  0
   11.4558  -11.1426   23.0549 C   0  0  0  0  0  0  0  0  0  0  0  0
   15.5987  -19.1129   24.2379 C   0  0  0  0  0  0  0  0  0  0  0  0
   17.6476  -11.5281   20.8697 C   0  0  2  0  0  0  0  0  0  0  0  0
   18.7240  -11.2006   19.8949 C   0  0  0  0  0  0  0  0  0  0  0  0
   19.1019  -12.4696   19.2021 C   0  0  0  0  0  0  0  0  0  0  0  0
   12.6820  -12.6222   21.4974 C   0  0  0  0  0  0  0  0  0  0  0  0
   12.9943  -10.1797   21.5565 C   0  0  0  0  0  0  0  0  0  0  0  0
   12.3817  -11.2964   22.0384 C   0  0  0  0  0  0  0  0  0  0  0  0
   16.9582  -19.2757   24.1556 C   0  0  0  0  0  0  0  0  0  0  0  0
   17.8554  -18.1094   24.1741 C   0  0  0  0  0  0  0  0  0  0  0  0
   17.5965  -13.5270   22.4260 C   0  0  0  0  0  0  0  0  0  0  0  0
   18.4461  -13.5406   20.0359 C   0  0  0  0  0  0  0  0  0  0  0  0
   17.8784  -12.9068   21.1930 N   0  0  0  0  0  0  0  0  0  0  0  0
   14.7487  -20.2200   24.2198 C   0  0  0  0  0  0  0  0  0  0  0  0
   15.2988  -21.4724   24.1184 C   0  0  0  0  0  0  0  0  0  0  0  0
   16.6678  -21.6693   24.0338 C   0  0  0  0  0  0  0  0  0  0  0  0
   17.4804  -20.5357   24.0553 C   0  0  0  0  0  0  0  0  0  0  0  0
   15.8956  -16.6829   23.0603 O   0  0  0  0  0  0  0  0  0  0  0  0
   16.8427  -16.6509   24.2274 S   0  0  1  0  0  6  0  0  0  0  0  0
   16.0317  -16.6821   25.4863 O   0  0  0  0  0  0  0  0  0  0  0  0
   17.7401  -15.2019   24.1591 N   0  0  0  0  0  0  0  0  0  0  0  0
   18.1356  -14.8465   22.8230 C   0  0  0  0  0  0  0  0  0  0  0  0
   16.8353  -12.9447   23.2736 O   0  0  0  0  0  0  0  0  0  0  0  0
   16.2829  -11.2917   20.3309 C   0  0  0  0  0  0  0  0  0  0  0  0
   15.9864  -11.8502   19.2453 O   0  0  0  0  0  0  0  0  0  0  0  0
   15.3316  -10.4865   20.9716 N   0  0  0  0  0  0  0  0  0  0  0  0
   13.9914  -10.2660   20.4898 C   0  0  0  0  0  0  0  0  0  0  0  0
   11.9213  -12.9591   20.3798 O   0  0  0  0  0  0  0  0  0  0  0  0
   11.7617   -8.7746   23.0974 C   0  0  0  0  0  0  0  0  0  0  0  0
   11.4213   -7.1662   23.7140 Cl  0  0  0  0  0  0  0  0  0  0  0  0
  9  1  2  0
  1 31  1  0
  3  2  1  0
 31  2  2  0
 10  3  2  0
 11  4  2  0
  4 16  1  0
  5  6  1  0
  5 15  1  0
  5 26  1  6
  6  7  1  0
 14  7  1  0
 10  8  1  0
  8 30  1  0
  9 10  1  0
 29  9  1  0
 12 11  1  0
 11 19  1  0
 21 12  1  6
 15 13  1  0
 13 24  1  0
 13 25  2  0
 15 14  1  0
 16 17  2  0
 18 17  1  0
 19 18  2  0
 21 20  2  0
 21 22  2  0
 23 21  1  0
 24 23  1  0
 26 27  2  0
 28 26  1  0
 28 29  1  0
 31 32  1  0
M  END
$$$$
