
     RDKit          3D

 32 34  0  0  0  0  0  0  0  0999 V2000
   12.7633   -9.0359   22.0684 C   0  0  0  0  0  0  0  0  0  0  0  0
   10.8412  -10.3703   22.5410 C   0  0  0  0  0  0  0  0  0  0  0  0
   11.4917  -11.4234   21.9587 C   0  0  0  0  0  0  0  0  0  0  0  0
   12.8548  -16.3778   19.9077 C   0  0  0  0  0  0  0  0  0  0  0  0
   17.7192  -11.5736   20.8956 C   0  0  2  0  0  0  0  0  0  0  0  0
   19.0894  -11.2820   20.3149 C   0  0  0  0  0  0  0  0  0  0  0  0
   19.1517  -12.4003   19.2638 C   0  0  0  0  0  0  0  0  0  0  0  0
   13.4194  -12.4597   20.8178 C   0  0  0  0  0  0  0  0  0  0  0  0
   13.4340  -10.0860   21.4781 C   0  0  0  0  0  0  0  0  0  0  0  0
   12.7635  -11.3018   21.4323 C   0  0  0  0  0  0  0  0  0  0  0  0
   13.5595  -16.6738   21.0464 C   0  0  0  0  0  0  0  0  0  0  0  0
   15.0092  -16.3693   21.0806 C   0  0  0  0  0  0  0  0  0  0  0  0
   17.1459  -13.7577   22.0996 C   0  0  0  0  0  0  0  0  0  0  0  0
   18.7466  -13.5841   20.1544 C   0  0  0  0  0  0  0  0  0  0  0  0
   17.8243  -13.0039   21.1117 N   0  0  0  0  0  0  0  0  0  0  0  0
   11.5020  -16.6682   19.8960 C   0  0  0  0  0  0  0  0  0  0  0  0
   10.8769  -17.2341   20.9831 C   0  0  0  0  0  0  0  0  0  0  0  0
   11.5785  -17.5344   22.1308 C   0  0  0  0  0  0  0  0  0  0  0  0
   12.9442  -17.2385   22.1358 C   0  0  0  0  0  0  0  0  0  0  0  0
   14.4108  -17.1565   23.5508 O   0  0  0  0  0  0  0  0  0  0  0  0
   15.6142  -16.9424   22.6719 S   0  0  1  0  0  6  0  0  0  0  0  0
   16.3082  -18.2539   22.5396 O   0  0  0  0  0  0  0  0  0  0  0  0
   16.6891  -15.7817   23.3581 N   0  0  0  0  0  0  0  0  0  0  0  0
   17.4936  -15.1738   22.3186 C   0  0  0  0  0  0  0  0  0  0  0  0
   16.2418  -13.2577   22.8103 O   0  0  0  0  0  0  0  0  0  0  0  0
   16.6416  -11.2527   19.9215 C   0  0  0  0  0  0  0  0  0  0  0  0
   16.9693  -11.1362   18.7134 O   0  0  0  0  0  0  0  0  0  0  0  0
   15.2979  -11.0740   20.2687 N   0  0  0  0  0  0  0  0  0  0  0  0
   14.7934   -9.8882   20.9345 C   0  0  0  0  0  0  0  0  0  0  0  0
   14.0419  -13.2370   21.7999 O   0  0  0  0  0  0  0  0  0  0  0  0
   11.4988   -9.1521   22.5932 C   0  0  0  0  0  0  0  0  0  0  0  0
   10.6488   -7.8151   23.3439 Cl  0  0  0  0  0  0  0  0  0  0  0  0
  9  1  2  0
  1 31  1  0
  3  2  1  0
 31  2  2  0
 10  3  2  0
 11  4  2  0
  4 16  1  0
  6  5  1  1
  5 15  1  0
  5 26  1  6
  6  7  1  0
  7 14  1  6
 10  8  1  0
  8 30  1  6
  9 10  1  0
 29  9  1  0
 12 11  1  1
 11 19  1  0
 21 12  1  0
 15 13  1  0
 13 24  1  0
 13 25  2  0
 14 15  1  6
 16 17  2  0
 18 17  1  0
 19 18  2  0
 21 20  2  0
 21 22  2  0
 21 23  1  1
 24 23  1  6
 26 27  2  0
 28 26  1  0
 29 28  1  6
 31 32  1  0
M  END
$$$$
