
     RDKit          3D

 32 34  0  0  0  0  0  0  0  0999 V2000
   13.1018   -8.7401   22.8242 C   0  0  0  0  0  0  0  0  0  0  0  0
   11.4834   -9.8472   24.1426 C   0  0  0  0  0  0  0  0  0  0  0  0
   11.5515  -10.9238   23.2828 C   0  0  0  0  0  0  0  0  0  0  0  0
   20.5357  -14.2572   26.0680 C   0  0  0  0  0  0  0  0  0  0  0  0
   17.0151  -11.3214   20.7377 C   0  0  2  0  0  0  0  0  0  0  0  0
   18.1547  -10.6203   20.0853 C   0  0  0  0  0  0  0  0  0  0  0  0
   19.0120  -11.6618   19.4422 C   0  0  0  0  0  0  0  0  0  0  0  0
   12.4280  -12.0940   21.2876 C   0  0  0  0  0  0  0  0  0  0  0  0
   13.1646   -9.8403   21.9549 C   0  0  0  0  0  0  0  0  0  0  0  0
   12.3889  -10.9365   22.1816 C   0  0  0  0  0  0  0  0  0  0  0  0
   20.5625  -15.5235   25.5414 C   0  0  0  0  0  0  0  0  0  0  0  0
   19.7467  -15.8638   24.3649 C   0  0  0  0  0  0  0  0  0  0  0  0
   17.1560  -13.4406   22.1197 C   0  0  0  0  0  0  0  0  0  0  0  0
   18.5003  -12.9547   20.0240 C   0  0  0  0  0  0  0  0  0  0  0  0
   17.5325  -12.6266   21.0333 N   0  0  0  0  0  0  0  0  0  0  0  0
   21.3097  -13.9359   27.1842 C   0  0  0  0  0  0  0  0  0  0  0  0
   22.0968  -14.9100   27.7437 C   0  0  0  0  0  0  0  0  0  0  0  0
   22.1455  -16.1979   27.2349 C   0  0  0  0  0  0  0  0  0  0  0  0
   21.3563  -16.4759   26.1187 C   0  0  0  0  0  0  0  0  0  0  0  0
   17.5783  -16.7812   25.6189 O   0  0  0  0  0  0  0  0  0  0  0  0
   18.0428  -15.6101   24.7987 S   0  0  1  0  0  6  0  0  0  0  0  0
   17.9475  -14.3798   25.6478 O   0  0  0  0  0  0  0  0  0  0  0  0
   17.0167  -15.4538   23.4452 N   0  0  0  0  0  0  0  0  0  0  0  0
   17.6552  -14.8183   22.3243 C   0  0  0  0  0  0  0  0  0  0  0  0
   16.3385  -12.9951   22.9972 O   0  0  0  0  0  0  0  0  0  0  0  0
   15.7984  -11.3721   19.8859 C   0  0  0  0  0  0  0  0  0  0  0  0
   15.9510  -11.6903   18.6801 O   0  0  0  0  0  0  0  0  0  0  0  0
   14.5126  -11.0846   20.3630 N   0  0  0  0  0  0  0  0  0  0  0  0
   14.0816   -9.7863   20.8167 C   0  0  0  0  0  0  0  0  0  0  0  0
   11.8579  -11.8592   20.0382 O   0  0  0  0  0  0  0  0  0  0  0  0
   12.2679   -8.7353   23.9152 C   0  0  0  0  0  0  0  0  0  0  0  0
   12.2422   -7.3239   24.9594 Cl  0  0  0  0  0  0  0  0  0  0  0  0
  9  1  2  0
  1 31  1  0
  3  2  1  0
 31  2  2  0
 10  3  2  0
 11  4  2  0
  4 16  1  0
  5  6  1  0
  5 15  1  0
  5 26  1  6
  6  7  1  0
 14  7  1  0
 10  8  1  0
  8 30  1  0
  9 10  1  0
 29  9  1  0
 12 11  1  0
 11 19  1  0
 21 12  1  6
 15 13  1  0
 13 24  1  0
 13 25  2  0
 15 14  1  0
 16 17  2  0
 18 17  1  0
 19 18  2  0
 21 20  2  0
 21 22  2  0
 23 21  1  0
 24 23  1  0
 26 27  2  0
 28 26  1  0
 28 29  1  0
 31 32  1  0
M  END
$$$$
