
     RDKit          3D

 19 21  0  0  0  0  0  0  0  0999 V2000
   90.8073   94.7151  -45.7866 C   0  0  0  0  0  0  0  0  0  0  0  0
   90.8873   93.6183  -46.6166 C   0  0  0  0  0  0  0  0  0  0  0  0
   91.3136   92.3824  -46.1653 C   0  0  0  0  0  0  0  0  0  0  0  0
   91.6524   92.3232  -44.8304 C   0  0  0  0  0  0  0  0  0  0  0  0
   91.5821   93.4038  -43.9777 C   0  0  0  0  0  0  0  0  0  0  0  0
   91.1546   94.6166  -44.4582 C   0  0  0  0  0  0  0  0  0  0  0  0
   91.8632   93.5634  -42.6494 N   0  0  0  0  0  0  0  0  0  0  0  0
   91.1694   95.5374  -43.4233 C   0  0  0  0  0  0  0  0  0  0  0  0
   91.6141   94.8511  -42.3153 C   0  0  0  0  0  0  0  0  0  0  0  0
   90.8496   96.8769  -43.3258 C   0  0  0  0  0  0  0  0  0  0  0  0
   91.7262   95.5443  -41.1197 C   0  0  0  0  0  0  0  0  0  0  0  0
   91.4019   96.8866  -41.0380 C   0  0  0  0  0  0  0  0  0  0  0  0
   90.9543   97.5843  -42.1460 C   0  0  0  0  0  0  0  0  0  0  0  0
   92.3445   92.5124  -41.7758 C   0  0  0  0  0  0  0  0  0  0  0  0
   93.8304   92.5506  -41.5755 C   0  0  0  0  0  0  0  0  0  0  0  0
   90.6022   99.0382  -42.0609 C   0  0  0  0  0  0  0  0  0  0  0  0
   91.7706   99.8816  -42.2021 N   0  0  0  0  0  4  0  0  0  0  0  0
   91.3125  101.2595  -42.0739 C   0  0  0  0  0  0  0  0  0  0  0  0
   91.4247   90.8610  -47.3158 Br  0  0  0  0  0  0  0  0  0  0  0  0
  1  2  2  0
  1  6  1  0
  2  3  1  0
  3  4  2  0
  3 19  1  0
  4  5  1  0
  5  6  2  0
  5  7  1  0
  6  8  1  0
  7  9  1  0
  7 14  1  0
  8  9  2  0
  8 10  1  0
  9 11  1  0
 10 13  2  0
 11 12  2  0
 12 13  1  0
 13 16  1  0
 14 15  1  0
 16 17  1  0
 17 18  1  0
M  CHG  1  17   1
M  END
$$$$
