
     RDKit          3D

 19 21  0  0  0  0  0  0  0  0999 V2000
   90.7225   94.6831  -45.8264 C   0  0  0  0  0  0  0  0  0  0  0  0
   90.8325   93.5823  -46.6475 C   0  0  0  0  0  0  0  0  0  0  0  0
   91.2512   92.3510  -46.1770 C   0  0  0  0  0  0  0  0  0  0  0  0
   91.5506   92.3007  -44.8323 C   0  0  0  0  0  0  0  0  0  0  0  0
   91.4497   93.3855  -43.9881 C   0  0  0  0  0  0  0  0  0  0  0  0
   91.0308   94.5936  -44.4878 C   0  0  0  0  0  0  0  0  0  0  0  0
   91.6905   93.5537  -42.6529 N   0  0  0  0  0  0  0  0  0  0  0  0
   91.0104   95.5199  -43.4580 C   0  0  0  0  0  0  0  0  0  0  0  0
   91.4253   94.8419  -42.3335 C   0  0  0  0  0  0  0  0  0  0  0  0
   90.6813   96.8584  -43.3775 C   0  0  0  0  0  0  0  0  0  0  0  0
   91.4986   95.5421  -41.1389 C   0  0  0  0  0  0  0  0  0  0  0  0
   91.1654   96.8831  -41.0744 C   0  0  0  0  0  0  0  0  0  0  0  0
   90.7475   97.5726  -42.1990 C   0  0  0  0  0  0  0  0  0  0  0  0
   92.1508   92.5099  -41.7596 C   0  0  0  0  0  0  0  0  0  0  0  0
   93.6304   92.5544  -41.5184 C   0  0  0  0  0  0  0  0  0  0  0  0
   90.3860   99.0251  -42.1325 C   0  0  0  0  0  0  0  0  0  0  0  0
   91.5265   99.8457  -41.7828 N   0  0  0  0  0  4  0  0  0  0  0  0
   91.0508  101.2222  -41.7202 C   0  0  0  0  0  0  0  0  0  0  0  0
   91.4038   90.8239  -47.3152 Br  0  0  0  0  0  0  0  0  0  0  0  0
  1  2  2  0
  1  6  1  0
  2  3  1  0
  3  4  2  0
  3 19  1  0
  4  5  1  0
  5  6  2  0
  5  7  1  0
  6  8  1  0
  7  9  1  0
  7 14  1  0
  8  9  2  0
  8 10  1  0
  9 11  1  0
 10 13  2  0
 11 12  2  0
 12 13  1  0
 13 16  1  0
 14 15  1  0
 16 17  1  0
 17 18  1  0
M  CHG  1  17   1
M  END
$$$$
