
     RDKit          3D

 19 21  0  0  0  0  0  0  0  0999 V2000
   91.8339   94.4703  -41.3829 C   0  0  0  0  0  0  0  0  0  0  0  0
   92.3228   93.2593  -40.9440 C   0  0  0  0  0  0  0  0  0  0  0  0
   92.5612   92.2048  -41.8065 C   0  0  0  0  0  0  0  0  0  0  0  0
   92.2766   92.4479  -43.1332 C   0  0  0  0  0  0  0  0  0  0  0  0
   91.7870   93.6488  -43.5999 C   0  0  0  0  0  0  0  0  0  0  0  0
   91.5616   94.6753  -42.7166 C   0  0  0  0  0  0  0  0  0  0  0  0
   91.4437   94.0950  -44.8457 N   0  0  0  0  0  0  0  0  0  0  0  0
   91.0749   95.7675  -43.4161 C   0  0  0  0  0  0  0  0  0  0  0  0
   91.0139   95.3737  -44.7342 C   0  0  0  0  0  0  0  0  0  0  0  0
   90.6842   97.0416  -43.0554 C   0  0  0  0  0  0  0  0  0  0  0  0
   90.5537   96.2890  -45.6685 C   0  0  0  0  0  0  0  0  0  0  0  0
   90.1658   97.5622  -45.2914 C   0  0  0  0  0  0  0  0  0  0  0  0
   90.2236   97.9668  -43.9693 C   0  0  0  0  0  0  0  0  0  0  0  0
   91.5360   93.3078  -46.0585 C   0  0  0  0  0  0  0  0  0  0  0  0
   90.2345   92.6701  -46.4445 C   0  0  0  0  0  0  0  0  0  0  0  0
   89.8043   99.3450  -43.5576 C   0  0  0  0  0  0  0  0  0  0  0  0
   90.9399  100.2334  -43.4249 N   0  0  0  0  0  4  0  0  0  0  0  0
   90.4072  101.5519  -43.1046 C   0  0  0  0  0  0  0  0  0  0  0  0
   93.2393   90.5251  -41.1985 Br  0  0  0  0  0  0  0  0  0  0  0  0
  1  2  2  0
  1  6  1  0
  2  3  1  0
  3  4  2  0
  3 19  1  0
  4  5  1  0
  5  6  2  0
  5  7  1  0
  6  8  1  0
  7  9  1  0
  7 14  1  0
  8  9  2  0
  8 10  1  0
  9 11  1  0
 10 13  2  0
 11 12  2  0
 12 13  1  0
 13 16  1  0
 14 15  1  0
 16 17  1  0
 17 18  1  0
M  CHG  1  17   1
M  END
$$$$
