
     RDKit          3D

 19 21  0  0  0  0  0  0  0  0999 V2000
   90.8546   94.7616  -45.8440 C   0  0  0  0  0  0  0  0  0  0  0  0
   90.9334   93.6407  -46.6413 C   0  0  0  0  0  0  0  0  0  0  0  0
   91.3722   92.4217  -46.1573 C   0  0  0  0  0  0  0  0  0  0  0  0
   91.7247   92.4050  -44.8248 C   0  0  0  0  0  0  0  0  0  0  0  0
   91.6559   93.5104  -44.0043 C   0  0  0  0  0  0  0  0  0  0  0  0
   91.2158   94.7055  -44.5169 C   0  0  0  0  0  0  0  0  0  0  0  0
   91.9492   93.7118  -42.6844 N   0  0  0  0  0  0  0  0  0  0  0  0
   91.2350   95.6571  -43.5104 C   0  0  0  0  0  0  0  0  0  0  0  0
   91.6951   95.0075  -42.3867 C   0  0  0  0  0  0  0  0  0  0  0  0
   90.9075   96.9970  -43.4501 C   0  0  0  0  0  0  0  0  0  0  0  0
   91.8147   95.7371  -41.2138 C   0  0  0  0  0  0  0  0  0  0  0  0
   91.4825   97.0792  -41.1693 C   0  0  0  0  0  0  0  0  0  0  0  0
   91.0194   97.7403  -42.2933 C   0  0  0  0  0  0  0  0  0  0  0  0
   92.4460   92.6907  -41.7844 C   0  0  0  0  0  0  0  0  0  0  0  0
   93.9390   92.7093  -41.6428 C   0  0  0  0  0  0  0  0  0  0  0  0
   90.6588   99.1940  -42.2485 C   0  0  0  0  0  0  0  0  0  0  0  0
   91.8220  100.0281  -42.0303 N   0  0  0  0  0  4  0  0  0  0  0  0
   91.3576  101.4098  -42.0463 C   0  0  0  0  0  0  0  0  0  0  0  0
   91.4817   90.8669  -47.2625 Br  0  0  0  0  0  0  0  0  0  0  0  0
  1  2  2  0
  1  6  1  0
  2  3  1  0
  3  4  2  0
  3 19  1  0
  4  5  1  0
  5  6  2  0
  5  7  1  0
  6  8  1  0
  7  9  1  0
  7 14  1  0
  8  9  2  0
  8 10  1  0
  9 11  1  0
 10 13  2  0
 11 12  2  0
 12 13  1  0
 13 16  1  0
 14 15  1  0
 16 17  1  0
 17 18  1  0
M  CHG  1  17   1
M  END
$$$$
