
     RDKit          3D

 19 21  0  0  0  0  0  0  0  0999 V2000
   91.0028   95.0004  -45.7197 C   0  0  0  0  0  0  0  0  0  0  0  0
   91.0649   93.8283  -46.4411 C   0  0  0  0  0  0  0  0  0  0  0  0
   91.5490   92.6528  -45.8965 C   0  0  0  0  0  0  0  0  0  0  0  0
   91.9644   92.7341  -44.5846 C   0  0  0  0  0  0  0  0  0  0  0  0
   91.9137   93.8925  -43.8396 C   0  0  0  0  0  0  0  0  0  0  0  0
   91.4274   95.0422  -44.4109 C   0  0  0  0  0  0  0  0  0  0  0  0
   92.2653   94.1896  -42.5523 N   0  0  0  0  0  0  0  0  0  0  0  0
   91.4762   96.0616  -43.4742 C   0  0  0  0  0  0  0  0  0  0  0  0
   92.0011   95.4987  -42.3322 C   0  0  0  0  0  0  0  0  0  0  0  0
   91.1267   97.3972  -43.4901 C   0  0  0  0  0  0  0  0  0  0  0  0
   92.1623   96.3098  -41.2193 C   0  0  0  0  0  0  0  0  0  0  0  0
   91.8073   97.6464  -41.2509 C   0  0  0  0  0  0  0  0  0  0  0  0
   91.2792   98.2206  -42.3938 C   0  0  0  0  0  0  0  0  0  0  0  0
   92.8232   93.2413  -41.6096 C   0  0  0  0  0  0  0  0  0  0  0  0
   91.7805   92.5701  -40.7659 C   0  0  0  0  0  0  0  0  0  0  0  0
   90.8937   99.6681  -42.4314 C   0  0  0  0  0  0  0  0  0  0  0  0
   89.6194   99.9001  -41.7843 N   0  0  0  0  0  4  0  0  0  0  0  0
   89.4041  101.3419  -41.7845 C   0  0  0  0  0  0  0  0  0  0  0  0
   91.6354   91.0269  -46.8964 Br  0  0  0  0  0  0  0  0  0  0  0  0
  1  2  2  0
  1  6  1  0
  2  3  1  0
  3  4  2  0
  3 19  1  0
  4  5  1  0
  5  6  2  0
  5  7  1  0
  6  8  1  0
  7  9  1  0
  7 14  1  0
  8  9  2  0
  8 10  1  0
  9 11  1  0
 10 13  2  0
 11 12  2  0
 12 13  1  0
 13 16  1  0
 14 15  1  0
 16 17  1  0
 17 18  1  0
M  CHG  1  17   1
M  END
$$$$
