
     RDKit          3D

 19 21  0  0  0  0  0  0  0  0999 V2000
   90.5975   94.9465  -45.8720 C   0  0  0  0  0  0  0  0  0  0  0  0
   90.6674   93.8491  -46.7021 C   0  0  0  0  0  0  0  0  0  0  0  0
   91.2254   92.6512  -46.2942 C   0  0  0  0  0  0  0  0  0  0  0  0
   91.7060   92.6304  -45.0024 C   0  0  0  0  0  0  0  0  0  0  0  0
   91.6493   93.7125  -44.1506 C   0  0  0  0  0  0  0  0  0  0  0  0
   91.0886   94.8871  -44.5874 C   0  0  0  0  0  0  0  0  0  0  0  0
   92.0564   93.9058  -42.8600 N   0  0  0  0  0  0  0  0  0  0  0  0
   91.1468   95.8177  -43.5630 C   0  0  0  0  0  0  0  0  0  0  0  0
   91.7530   95.1764  -42.5058 C   0  0  0  0  0  0  0  0  0  0  0  0
   90.7447   97.1325  -43.4368 C   0  0  0  0  0  0  0  0  0  0  0  0
   91.9408   95.8887  -41.3310 C   0  0  0  0  0  0  0  0  0  0  0  0
   91.5323   97.2057  -41.2201 C   0  0  0  0  0  0  0  0  0  0  0  0
   90.9224   97.8582  -42.2770 C   0  0  0  0  0  0  0  0  0  0  0  0
   92.7002   92.9008  -42.0386 C   0  0  0  0  0  0  0  0  0  0  0  0
   91.7307   91.9330  -41.4280 C   0  0  0  0  0  0  0  0  0  0  0  0
   90.4789   99.2846  -42.1601 C   0  0  0  0  0  0  0  0  0  0  0  0
   91.5461  100.2062  -42.4892 N   0  0  0  0  0  4  0  0  0  0  0  0
   90.9934  101.5497  -42.3690 C   0  0  0  0  0  0  0  0  0  0  0  0
   91.3227   91.1289  -47.4448 Br  0  0  0  0  0  0  0  0  0  0  0  0
  1  2  2  0
  1  6  1  0
  2  3  1  0
  3  4  2  0
  3 19  1  0
  4  5  1  0
  5  6  2  0
  5  7  1  0
  6  8  1  0
  7  9  1  0
  7 14  1  0
  8  9  2  0
  8 10  1  0
  9 11  1  0
 10 13  2  0
 11 12  2  0
 12 13  1  0
 13 16  1  0
 14 15  1  0
 16 17  1  0
 17 18  1  0
M  CHG  1  17   1
M  END
$$$$
