
     RDKit          3D

 19 21  0  0  0  0  0  0  0  0999 V2000
   90.6592   94.9709  -45.9554 C   0  0  0  0  0  0  0  0  0  0  0  0
   90.7030   93.7091  -46.5069 C   0  0  0  0  0  0  0  0  0  0  0  0
   91.1623   92.6121  -45.8011 C   0  0  0  0  0  0  0  0  0  0  0  0
   91.5727   92.8671  -44.5100 C   0  0  0  0  0  0  0  0  0  0  0  0
   91.5400   94.1185  -43.9331 C   0  0  0  0  0  0  0  0  0  0  0  0
   91.0781   95.1862  -44.6619 C   0  0  0  0  0  0  0  0  0  0  0  0
   91.8908   94.5849  -42.6969 N   0  0  0  0  0  0  0  0  0  0  0  0
   91.1414   96.3247  -43.8752 C   0  0  0  0  0  0  0  0  0  0  0  0
   91.6500   95.9164  -42.6624 C   0  0  0  0  0  0  0  0  0  0  0  0
   90.8170   97.6512  -44.0787 C   0  0  0  0  0  0  0  0  0  0  0  0
   91.8209   96.8710  -41.6714 C   0  0  0  0  0  0  0  0  0  0  0  0
   91.4911   98.1964  -41.8906 C   0  0  0  0  0  0  0  0  0  0  0  0
   90.9794   98.6159  -43.1059 C   0  0  0  0  0  0  0  0  0  0  0  0
   92.4262   93.7667  -41.6277 C   0  0  0  0  0  0  0  0  0  0  0  0
   91.3787   93.3138  -40.6546 C   0  0  0  0  0  0  0  0  0  0  0  0
   90.6213  100.0508  -43.3466 C   0  0  0  0  0  0  0  0  0  0  0  0
   89.4033  100.4219  -42.6572 N   0  0  0  0  0  4  0  0  0  0  0  0
   89.1913  101.8413  -42.9126 C   0  0  0  0  0  0  0  0  0  0  0  0
   91.2232   90.8619  -46.5653 Br  0  0  0  0  0  0  0  0  0  0  0  0
  1  2  2  0
  1  6  1  0
  2  3  1  0
  3  4  2  0
  3 19  1  0
  4  5  1  0
  5  6  2  0
  5  7  1  0
  6  8  1  0
  7  9  1  0
  7 14  1  0
  8  9  2  0
  8 10  1  0
  9 11  1  0
 10 13  2  0
 11 12  2  0
 12 13  1  0
 13 16  1  0
 14 15  1  0
 16 17  1  0
 17 18  1  0
M  CHG  1  17   1
M  END
$$$$
