
     RDKit          3D

 19 21  0  0  0  0  0  0  0  0999 V2000
   91.1383   95.0485  -45.8428 C   0  0  0  0  0  0  0  0  0  0  0  0
   91.1987   93.9103  -46.6169 C   0  0  0  0  0  0  0  0  0  0  0  0
   91.5040   92.6716  -46.0830 C   0  0  0  0  0  0  0  0  0  0  0  0
   91.7433   92.6537  -44.7256 C   0  0  0  0  0  0  0  0  0  0  0  0
   91.6898   93.7761  -43.9274 C   0  0  0  0  0  0  0  0  0  0  0  0
   91.3838   94.9906  -44.4896 C   0  0  0  0  0  0  0  0  0  0  0  0
   91.8877   93.9798  -42.5902 N   0  0  0  0  0  0  0  0  0  0  0  0
   91.3910   95.9567  -43.4969 C   0  0  0  0  0  0  0  0  0  0  0  0
   91.7072   95.2959  -42.3308 C   0  0  0  0  0  0  0  0  0  0  0  0
   91.1604   97.3178  -43.4806 C   0  0  0  0  0  0  0  0  0  0  0  0
   91.7839   96.0363  -41.1610 C   0  0  0  0  0  0  0  0  0  0  0  0
   91.5502   97.3998  -41.1610 C   0  0  0  0  0  0  0  0  0  0  0  0
   91.2318   98.0722  -42.3277 C   0  0  0  0  0  0  0  0  0  0  0  0
   92.2311   92.9418  -41.6394 C   0  0  0  0  0  0  0  0  0  0  0  0
   93.7073   92.8334  -41.3969 C   0  0  0  0  0  0  0  0  0  0  0  0
   90.9780   99.5489  -42.3311 C   0  0  0  0  0  0  0  0  0  0  0  0
   89.5848   99.8537  -42.0813 N   0  0  0  0  0  4  0  0  0  0  0  0
   89.4774  101.3060  -42.0147 C   0  0  0  0  0  0  0  0  0  0  0  0
   91.5879   91.0928  -47.1559 Br  0  0  0  0  0  0  0  0  0  0  0  0
  1  2  2  0
  1  6  1  0
  2  3  1  0
  3  4  2  0
  3 19  1  0
  4  5  1  0
  5  6  2  0
  5  7  1  0
  6  8  1  0
  7  9  1  0
  7 14  1  0
  8  9  2  0
  8 10  1  0
  9 11  1  0
 10 13  2  0
 11 12  2  0
 12 13  1  0
 13 16  1  0
 14 15  1  0
 16 17  1  0
 17 18  1  0
M  CHG  1  17   1
M  END
$$$$
