
     RDKit          3D

 19 21  0  0  0  0  0  0  0  0999 V2000
   90.6878   95.0210  -46.0680 C   0  0  0  0  0  0  0  0  0  0  0  0
   90.7909   93.8897  -46.8476 C   0  0  0  0  0  0  0  0  0  0  0  0
   91.2057   92.6752  -46.3325 C   0  0  0  0  0  0  0  0  0  0  0  0
   91.5085   92.6739  -44.9876 C   0  0  0  0  0  0  0  0  0  0  0  0
   91.4145   93.7899  -44.1843 C   0  0  0  0  0  0  0  0  0  0  0  0
   90.9993   94.9802  -44.7278 C   0  0  0  0  0  0  0  0  0  0  0  0
   91.6597   94.0068  -42.8570 N   0  0  0  0  0  0  0  0  0  0  0  0
   90.9856   95.9445  -43.7333 C   0  0  0  0  0  0  0  0  0  0  0  0
   91.4007   95.3073  -42.5853 C   0  0  0  0  0  0  0  0  0  0  0  0
   90.6623   97.2864  -43.7020 C   0  0  0  0  0  0  0  0  0  0  0  0
   91.4801   96.0512  -41.4179 C   0  0  0  0  0  0  0  0  0  0  0  0
   91.1527   97.3952  -41.4027 C   0  0  0  0  0  0  0  0  0  0  0  0
   90.7347   98.0439  -42.5513 C   0  0  0  0  0  0  0  0  0  0  0  0
   92.1180   92.9952  -41.9265 C   0  0  0  0  0  0  0  0  0  0  0  0
   93.6060   93.0016  -41.7389 C   0  0  0  0  0  0  0  0  0  0  0  0
   90.3794   99.4994  -42.5382 C   0  0  0  0  0  0  0  0  0  0  0  0
   91.5590  100.3388  -42.5184 N   0  0  0  0  0  4  0  0  0  0  0  0
   91.0923  101.7190  -42.4721 C   0  0  0  0  0  0  0  0  0  0  0  0
   91.3489   91.1059  -47.4132 Br  0  0  0  0  0  0  0  0  0  0  0  0
  1  2  2  0
  1  6  1  0
  2  3  1  0
  3  4  2  0
  3 19  1  0
  4  5  1  0
  5  6  2  0
  5  7  1  0
  6  8  1  0
  7  9  1  0
  7 14  1  0
  8  9  2  0
  8 10  1  0
  9 11  1  0
 10 13  2  0
 11 12  2  0
 12 13  1  0
 13 16  1  0
 14 15  1  0
 16 17  1  0
 17 18  1  0
M  CHG  1  17   1
M  END
$$$$
