
     RDKit          3D

 19 21  0  0  0  0  0  0  0  0999 V2000
   91.6311   93.4808  -45.4555 C   0  0  0  0  0  0  0  0  0  0  0  0
   92.1930   92.2264  -45.3601 C   0  0  0  0  0  0  0  0  0  0  0  0
   92.5372   91.6638  -44.1445 C   0  0  0  0  0  0  0  0  0  0  0  0
   92.2799   92.4427  -43.0366 C   0  0  0  0  0  0  0  0  0  0  0  0
   91.7191   93.7000  -43.1026 C   0  0  0  0  0  0  0  0  0  0  0  0
   91.3892   94.2290  -44.3257 C   0  0  0  0  0  0  0  0  0  0  0  0
   91.3857   94.6235  -42.1514 N   0  0  0  0  0  0  0  0  0  0  0  0
   90.8470   95.4895  -44.1355 C   0  0  0  0  0  0  0  0  0  0  0  0
   90.8594   95.7033  -42.7752 C   0  0  0  0  0  0  0  0  0  0  0  0
   90.3518   96.4593  -44.9842 C   0  0  0  0  0  0  0  0  0  0  0  0
   90.3645   96.9078  -42.2991 C   0  0  0  0  0  0  0  0  0  0  0  0
   89.8715   97.8698  -43.1624 C   0  0  0  0  0  0  0  0  0  0  0  0
   89.8551   97.6638  -44.5306 C   0  0  0  0  0  0  0  0  0  0  0  0
   91.5762   94.4456  -40.7261 C   0  0  0  0  0  0  0  0  0  0  0  0
   92.8251   95.1002  -40.2150 C   0  0  0  0  0  0  0  0  0  0  0  0
   89.3218   98.7037  -45.4684 C   0  0  0  0  0  0  0  0  0  0  0  0
   90.2280   99.8258  -45.5954 N   0  0  0  0  0  4  0  0  0  0  0  0
   89.5851  100.7871  -46.4828 C   0  0  0  0  0  0  0  0  0  0  0  0
   93.3164   89.9243  -44.0115 Br  0  0  0  0  0  0  0  0  0  0  0  0
  1  2  2  0
  1  6  1  0
  2  3  1  0
  3  4  2  0
  3 19  1  0
  4  5  1  0
  5  6  2  0
  5  7  1  0
  6  8  1  0
  7  9  1  0
  7 14  1  0
  8  9  2  0
  8 10  1  0
  9 11  1  0
 10 13  2  0
 11 12  2  0
 12 13  1  0
 13 16  1  0
 14 15  1  0
 16 17  1  0
 17 18  1  0
M  CHG  1  17   1
M  END
$$$$
