
     RDKit          3D

 19 21  0  0  0  0  0  0  0  0999 V2000
   90.7335   94.9110  -45.9055 C   0  0  0  0  0  0  0  0  0  0  0  0
   90.7292   93.7827  -46.6962 C   0  0  0  0  0  0  0  0  0  0  0  0
   91.1380   92.5494  -46.2223 C   0  0  0  0  0  0  0  0  0  0  0  0
   91.5492   92.5264  -44.9068 C   0  0  0  0  0  0  0  0  0  0  0  0
   91.5638   93.6389  -44.0933 C   0  0  0  0  0  0  0  0  0  0  0  0
   91.1514   94.8482  -44.5955 C   0  0  0  0  0  0  0  0  0  0  0  0
   91.9245   93.8361  -42.7895 N   0  0  0  0  0  0  0  0  0  0  0  0
   91.2558   95.8046  -43.5988 C   0  0  0  0  0  0  0  0  0  0  0  0
   91.7385   95.1433  -42.4915 C   0  0  0  0  0  0  0  0  0  0  0  0
   90.9878   97.1575  -43.5350 C   0  0  0  0  0  0  0  0  0  0  0  0
   91.9413   95.8747  -41.3312 C   0  0  0  0  0  0  0  0  0  0  0  0
   91.6679   97.2299  -41.2830 C   0  0  0  0  0  0  0  0  0  0  0  0
   91.1827   97.9028  -42.3905 C   0  0  0  0  0  0  0  0  0  0  0  0
   92.4182   92.8008  -41.9043 C   0  0  0  0  0  0  0  0  0  0  0  0
   91.3253   92.1038  -41.1498 C   0  0  0  0  0  0  0  0  0  0  0  0
   90.8856   99.3706  -42.3417 C   0  0  0  0  0  0  0  0  0  0  0  0
   89.5813   99.6345  -41.7710 N   0  0  0  0  0  4  0  0  0  0  0  0
   89.4332  101.0835  -41.7127 C   0  0  0  0  0  0  0  0  0  0  0  0
   91.1323   90.9843  -47.3183 Br  0  0  0  0  0  0  0  0  0  0  0  0
  1  2  2  0
  1  6  1  0
  2  3  1  0
  3  4  2  0
  3 19  1  0
  4  5  1  0
  5  6  2  0
  5  7  1  0
  6  8  1  0
  7  9  1  0
  7 14  1  0
  8  9  2  0
  8 10  1  0
  9 11  1  0
 10 13  2  0
 11 12  2  0
 12 13  1  0
 13 16  1  0
 14 15  1  0
 16 17  1  0
 17 18  1  0
M  CHG  1  17   1
M  END
$$$$
