
     RDKit          3D

 23 26  0  0  0  0  0  0  0  0999 V2000
  -40.8479  -30.4608   30.6202 C   0  0  0  0  0  0  0  0  0  0  0  0
  -44.8053  -25.1786   24.5384 C   0  0  0  0  0  0  0  0  0  0  0  0
  -42.0012  -25.9033   26.7608 C   0  0  0  0  0  0  0  0  0  0  0  0
  -43.0839  -25.3436   25.9245 C   0  0  0  0  0  0  0  0  0  0  0  0
  -43.4085  -24.0161   25.7638 C   0  0  0  0  0  0  0  0  0  0  0  0
  -44.4854  -23.8869   24.8987 C   0  0  0  0  0  0  0  0  0  0  0  0
  -45.2064  -22.8216   24.3955 C   0  0  0  0  0  0  0  0  0  0  0  0
  -46.2480  -23.0467   23.5316 C   0  0  0  0  0  0  0  0  0  0  0  0
  -46.5513  -24.3454   23.1843 C   0  0  0  0  0  0  0  0  0  0  0  0
  -45.8536  -25.4313   23.6669 C   0  0  0  0  0  0  0  0  0  0  0  0
  -40.4439  -27.8466   27.1942 C   0  0  0  0  0  0  0  0  0  0  0  0
  -40.5795  -28.7216   28.3660 C   0  0  0  0  0  0  0  0  0  0  0  0
  -40.7603  -30.0825   28.2089 C   0  0  0  0  0  0  0  0  0  0  0  0
  -40.8885  -30.9086   29.3300 C   0  0  0  0  0  0  0  0  0  0  0  0
  -41.1474  -32.6110   31.2872 C   0  0  0  0  0  0  0  0  0  0  0  0
  -40.6632  -29.0709   30.7747 C   0  0  0  0  0  0  0  0  0  0  0  0
  -40.5396  -28.2777   29.6672 C   0  0  0  0  0  0  0  0  0  0  0  0
  -43.9520  -26.0335   25.1655 N   0  0  0  0  0  0  0  0  0  0  0  0
  -41.7008  -27.2795   26.7646 N   0  0  0  0  0  0  0  0  0  0  0  0
  -41.3020  -33.6519   32.2440 N   0  0  0  0  0  0  0  0  0  0  0  0
  -40.9799  -31.3335   31.5740 N   0  0  0  0  0  0  0  0  0  0  0  0
  -41.3322  -25.1408   27.4848 O   0  0  0  0  0  0  0  0  0  0  0  0
  -41.1203  -32.6037   29.5776 S   0  0  0  0  0  0  0  0  0  0  0  0
  1 14  2  0
  1 16  1  0
 21  1  1  0
  2  6  2  0
  2 10  1  0
 18  2  1  0
  3  4  1  0
 19  3  1  0
  3 22  2  0
  4  5  2  0
  4 18  1  0
  5  6  1  0
  6  7  1  0
  7  8  2  0
  9  8  1  0
 10  9  2  0
 12 11  1  0
 11 19  1  0
 13 12  2  0
 12 17  1  0
 14 13  1  0
 14 23  1  0
 15 20  1  0
 15 21  2  0
 15 23  1  0
 16 17  2  0
M  END
$$$$
