
     RDKit          3D

 23 26  0  0  0  0  0  0  0  0999 V2000
  -55.3389    4.0317   25.2356 C   0  0  0  0  0  0  0  0  0  0  0  0
  -53.1197   -1.7308   31.9412 C   0  0  0  0  0  0  0  0  0  0  0  0
  -54.0128    0.5129   29.2201 C   0  0  0  0  0  0  0  0  0  0  0  0
  -53.5032   -0.5485   30.0955 C   0  0  0  0  0  0  0  0  0  0  0  0
  -52.7080   -1.6160   29.7743 C   0  0  0  0  0  0  0  0  0  0  0  0
  -52.4617   -2.3581   30.9087 C   0  0  0  0  0  0  0  0  0  0  0  0
  -51.7480   -3.5082   31.2083 C   0  0  0  0  0  0  0  0  0  0  0  0
  -51.6745   -4.0318   32.4636 C   0  0  0  0  0  0  0  0  0  0  0  0
  -52.3439   -3.3846   33.4862 C   0  0  0  0  0  0  0  0  0  0  0  0
  -53.0617   -2.2398   33.2212 C   0  0  0  0  0  0  0  0  0  0  0  0
  -55.1045    2.8019   29.3988 C   0  0  0  0  0  0  0  0  0  0  0  0
  -55.1938    3.2216   27.9942 C   0  0  0  0  0  0  0  0  0  0  0  0
  -55.5274    2.3117   26.9753 C   0  0  0  0  0  0  0  0  0  0  0  0
  -55.5872    2.7244   25.6860 C   0  0  0  0  0  0  0  0  0  0  0  0
  -55.7193    3.4732   23.0826 C   0  0  0  0  0  0  0  0  0  0  0  0
  -55.0092    4.9248   26.2573 C   0  0  0  0  0  0  0  0  0  0  0  0
  -54.9518    4.4988   27.5494 C   0  0  0  0  0  0  0  0  0  0  0  0
  -53.7335   -0.6471   31.4092 N   0  0  0  0  0  0  0  0  0  0  0  0
  -55.0596    1.3752   29.6095 N   0  0  0  0  0  0  0  0  0  0  0  0
  -55.9180    3.3245   21.6568 N   0  0  0  0  0  0  0  0  0  0  0  0
  -55.4540    4.1848   23.9510 N   0  0  0  0  0  0  0  0  0  0  0  0
  -53.5093    0.6680   28.0844 O   0  0  0  0  0  0  0  0  0  0  0  0
  -55.9710    1.8598   24.1073 S   0  0  0  0  0  0  0  0  0  0  0  0
  1 14  2  0
  1 16  1  0
 21  1  1  0
  2  6  2  0
  2 10  1  0
 18  2  1  0
  3  4  1  0
 19  3  1  0
  3 22  2  0
  4  5  2  0
  4 18  1  0
  5  6  1  0
  6  7  1  0
  7  8  2  0
  9  8  1  0
 10  9  2  0
 12 11  1  0
 11 19  1  6
 13 12  2  0
 12 17  1  0
 14 13  1  0
 14 23  1  0
 15 20  1  0
 15 21  2  0
 15 23  1  0
 16 17  2  0
M  END
$$$$
