
     RDKit          3D

 23 26  0  0  0  0  0  0  0  0999 V2000
  -49.3802  -11.1977   20.5757 C   0  0  0  0  0  0  0  0  0  0  0  0
  -57.5928  -11.4144   23.5443 C   0  0  0  0  0  0  0  0  0  0  0  0
  -54.2130  -10.0694   23.4860 C   0  0  0  0  0  0  0  0  0  0  0  0
  -55.4591  -10.8079   23.7192 C   0  0  0  0  0  0  0  0  0  0  0  0
  -55.6910  -11.8466   24.5808 C   0  0  0  0  0  0  0  0  0  0  0  0
  -57.0098  -12.2332   24.4835 C   0  0  0  0  0  0  0  0  0  0  0  0
  -57.8110  -13.1925   25.0833 C   0  0  0  0  0  0  0  0  0  0  0  0
  -59.1301  -13.3526   24.7837 C   0  0  0  0  0  0  0  0  0  0  0  0
  -59.6952  -12.5184   23.8364 C   0  0  0  0  0  0  0  0  0  0  0  0
  -58.9260  -11.5554   23.2225 C   0  0  0  0  0  0  0  0  0  0  0  0
  -51.7307   -9.7553   23.9364 C   0  0  0  0  0  0  0  0  0  0  0  0
  -50.9457  -10.2478   22.7970 C   0  0  0  0  0  0  0  0  0  0  0  0
  -50.0915  -11.3582   22.9185 C   0  0  0  0  0  0  0  0  0  0  0  0
  -49.3675  -11.7806   21.8537 C   0  0  0  0  0  0  0  0  0  0  0  0
  -47.8815  -12.6803   19.7710 C   0  0  0  0  0  0  0  0  0  0  0  0
  -50.2325  -10.0966   20.4689 C   0  0  0  0  0  0  0  0  0  0  0  0
  -50.9550   -9.6808   21.5455 C   0  0  0  0  0  0  0  0  0  0  0  0
  -56.6257  -10.5720   23.1094 N   0  0  0  0  0  0  0  0  0  0  0  0
  -53.0035  -10.4066   24.1298 N   0  0  0  0  0  0  0  0  0  0  0  0
  -46.9383  -13.5218   19.0661 N   0  0  0  0  0  0  0  0  0  0  0  0
  -48.5974  -11.7774   19.7165 N   0  0  0  0  0  0  0  0  0  0  0  0
  -54.2106   -9.1030   22.6901 O   0  0  0  0  0  0  0  0  0  0  0  0
  -48.1644  -13.1533   21.6183 S   0  0  0  0  0  0  0  0  0  0  0  0
  1 14  2  0
  1 16  1  0
 21  1  1  0
  2  6  2  0
  2 10  1  0
 18  2  1  0
  3  4  1  0
 19  3  1  0
  3 22  2  0
  4  5  2  0
  4 18  1  0
  5  6  1  0
  6  7  1  0
  7  8  2  0
  9  8  1  0
 10  9  2  0
 12 11  1  0
 11 19  1  6
 13 12  2  0
 12 17  1  0
 14 13  1  0
 14 23  1  0
 15 20  1  0
 15 21  2  0
 15 23  1  0
 16 17  2  0
M  END
$$$$
