
     RDKit          3D

 23 26  0  0  0  0  0  0  0  0999 V2000
  -64.9686  -22.6584   36.6301 C   0  0  0  0  0  0  0  0  0  0  0  0
  -67.0727  -19.4846   29.0057 C   0  0  0  0  0  0  0  0  0  0  0  0
  -67.8600  -19.6822   32.5521 C   0  0  0  0  0  0  0  0  0  0  0  0
  -67.5437  -19.2967   31.1722 C   0  0  0  0  0  0  0  0  0  0  0  0
  -67.3651  -18.0424   30.6526 C   0  0  0  0  0  0  0  0  0  0  0  0
  -67.0722  -18.1431   29.3101 C   0  0  0  0  0  0  0  0  0  0  0  0
  -66.7971  -17.2530   28.2835 C   0  0  0  0  0  0  0  0  0  0  0  0
  -66.5319  -17.6487   27.0074 C   0  0  0  0  0  0  0  0  0  0  0  0
  -66.5377  -19.0023   26.7241 C   0  0  0  0  0  0  0  0  0  0  0  0
  -66.8074  -19.9120   27.7220 C   0  0  0  0  0  0  0  0  0  0  0  0
  -68.4157  -21.4866   34.2545 C   0  0  0  0  0  0  0  0  0  0  0  0
  -67.2552  -21.8767   35.0657 C   0  0  0  0  0  0  0  0  0  0  0  0
  -66.0128  -21.2326   34.9281 C   0  0  0  0  0  0  0  0  0  0  0  0
  -64.9553  -21.6244   35.6793 C   0  0  0  0  0  0  0  0  0  0  0  0
  -62.7915  -22.3567   37.1414 C   0  0  0  0  0  0  0  0  0  0  0  0
  -66.2081  -23.2891   36.7569 C   0  0  0  0  0  0  0  0  0  0  0  0
  -67.2637  -22.8872   35.9965 C   0  0  0  0  0  0  0  0  0  0  0  0
  -67.3608  -20.1434   30.1533 N   0  0  0  0  0  0  0  0  0  0  0  0
  -68.1044  -21.0210   32.9249 N   0  0  0  0  0  0  0  0  0  0  0  0
  -61.4224  -22.3290   37.6096 N   0  0  0  0  0  0  0  0  0  0  0  0
  -63.8297  -22.8530   37.2234 N   0  0  0  0  0  0  0  0  0  0  0  0
  -67.9187  -18.8004   33.4389 O   0  0  0  0  0  0  0  0  0  0  0  0
  -63.2092  -21.0524   35.7846 S   0  0  0  0  0  0  0  0  0  0  0  0
  1 14  2  0
  1 16  1  0
 21  1  1  0
  2  6  2  0
  2 10  1  0
 18  2  1  0
  3  4  1  0
 19  3  1  0
  3 22  2  0
  4  5  2  0
  4 18  1  0
  5  6  1  0
  6  7  1  0
  7  8  2  0
  9  8  1  0
 10  9  2  0
 12 11  1  0
 11 19  1  6
 13 12  2  0
 12 17  1  0
 14 13  1  0
 14 23  1  0
 15 20  1  0
 15 21  2  0
 15 23  1  0
 16 17  2  0
M  END
$$$$
