
     RDKit          3D

 23 26  0  0  0  0  0  0  0  0999 V2000
  -55.9608    2.7035   25.7916 C   0  0  0  0  0  0  0  0  0  0  0  0
  -52.2899   -0.8850   33.0959 C   0  0  0  0  0  0  0  0  0  0  0  0
  -54.1488    0.1923   30.1599 C   0  0  0  0  0  0  0  0  0  0  0  0
  -53.2388   -0.4114   31.1397 C   0  0  0  0  0  0  0  0  0  0  0  0
  -52.2071   -1.2859   30.9255 C   0  0  0  0  0  0  0  0  0  0  0  0
  -51.6092   -1.5885   32.1293 C   0  0  0  0  0  0  0  0  0  0  0  0
  -50.5518   -2.3848   32.5414 C   0  0  0  0  0  0  0  0  0  0  0  0
  -50.1678   -2.4954   33.8436 C   0  0  0  0  0  0  0  0  0  0  0  0
  -50.8664   -1.7791   34.7983 C   0  0  0  0  0  0  0  0  0  0  0  0
  -51.9218   -0.9791   34.4212 C   0  0  0  0  0  0  0  0  0  0  0  0
  -55.7485    2.1672   30.1005 C   0  0  0  0  0  0  0  0  0  0  0  0
  -55.8094    2.3458   28.6440 C   0  0  0  0  0  0  0  0  0  0  0  0
  -55.7746    3.6238   28.0585 C   0  0  0  0  0  0  0  0  0  0  0  0
  -55.8481    3.7586   26.7121 C   0  0  0  0  0  0  0  0  0  0  0  0
  -55.9979    4.1093   24.0269 C   0  0  0  0  0  0  0  0  0  0  0  0
  -55.9938    1.4403   26.3862 C   0  0  0  0  0  0  0  0  0  0  0  0
  -55.9196    1.3169   27.7402 C   0  0  0  0  0  0  0  0  0  0  0  0
  -53.2621   -0.1903   32.4584 N   0  0  0  0  0  0  0  0  0  0  0  0
  -55.3342    0.8568   30.5397 N   0  0  0  0  0  0  0  0  0  0  0  0
  -56.0411    4.8304   22.7728 N   0  0  0  0  0  0  0  0  0  0  0  0
  -56.0187    3.0816   24.5504 N   0  0  0  0  0  0  0  0  0  0  0  0
  -53.8747    0.1208   28.9404 O   0  0  0  0  0  0  0  0  0  0  0  0
  -55.8418    5.2207   25.5943 S   0  0  0  0  0  0  0  0  0  0  0  0
  1 14  2  0
  1 16  1  0
 21  1  1  0
  2  6  2  0
  2 10  1  0
 18  2  1  0
  3  4  1  0
 19  3  1  0
  3 22  2  0
  4  5  2  0
  4 18  1  0
  5  6  1  0
  6  7  1  0
  7  8  2  0
  9  8  1  0
 10  9  2  0
 12 11  1  0
 11 19  1  6
 13 12  2  0
 12 17  1  0
 14 13  1  0
 14 23  1  0
 15 20  1  0
 15 21  2  0
 15 23  1  0
 16 17  2  0
M  END
$$$$
