
     RDKit          3D

 23 26  0  0  0  0  0  0  0  0999 V2000
  -45.4792  -24.3166   24.3201 C   0  0  0  0  0  0  0  0  0  0  0  0
  -47.7526  -16.3150   22.5126 C   0  0  0  0  0  0  0  0  0  0  0  0
  -44.9838  -18.6424   22.9042 C   0  0  0  0  0  0  0  0  0  0  0  0
  -45.9623  -17.6360   22.4772 C   0  0  0  0  0  0  0  0  0  0  0  0
  -45.9919  -16.9075   21.3181 C   0  0  0  0  0  0  0  0  0  0  0  0
  -47.0964  -16.0841   21.3257 C   0  0  0  0  0  0  0  0  0  0  0  0
  -47.6451  -15.1492   20.4615 C   0  0  0  0  0  0  0  0  0  0  0  0
  -48.7887  -14.4627   20.7374 C   0  0  0  0  0  0  0  0  0  0  0  0
  -49.4316  -14.7109   21.9365 C   0  0  0  0  0  0  0  0  0  0  0  0
  -48.9120  -15.6337   22.8165 C   0  0  0  0  0  0  0  0  0  0  0  0
  -44.0888  -20.2143   24.6905 C   0  0  0  0  0  0  0  0  0  0  0  0
  -44.5481  -21.6038   24.5671 C   0  0  0  0  0  0  0  0  0  0  0  0
  -44.7823  -22.1913   23.3112 C   0  0  0  0  0  0  0  0  0  0  0  0
  -45.2207  -23.4709   23.2286 C   0  0  0  0  0  0  0  0  0  0  0  0
  -46.1055  -26.0228   22.9827 C   0  0  0  0  0  0  0  0  0  0  0  0
  -45.2422  -23.7210   25.5608 C   0  0  0  0  0  0  0  0  0  0  0  0
  -44.8021  -22.4344   25.6317 C   0  0  0  0  0  0  0  0  0  0  0  0
  -47.0373  -17.2548   23.1754 N   0  0  0  0  0  0  0  0  0  0  0  0
  -45.0071  -19.2195   24.1916 N   0  0  0  0  0  0  0  0  0  0  0  0
  -46.5421  -27.2278   22.3106 N   0  0  0  0  0  0  0  0  0  0  0  0
  -45.8963  -25.5016   23.9904 N   0  0  0  0  0  0  0  0  0  0  0  0
  -44.0913  -19.0095   22.1067 O   0  0  0  0  0  0  0  0  0  0  0  0
  -45.6392  -24.5658   21.8097 S   0  0  0  0  0  0  0  0  0  0  0  0
  1 14  2  0
  1 16  1  0
 21  1  1  0
  2  6  2  0
  2 10  1  0
 18  2  1  0
  3  4  1  0
 19  3  1  0
  3 22  2  0
  4  5  2  0
  4 18  1  0
  5  6  1  0
  6  7  1  0
  7  8  2  0
  9  8  1  0
 10  9  2  0
 12 11  1  0
 11 19  1  6
 13 12  2  0
 12 17  1  0
 14 13  1  0
 14 23  1  0
 15 20  1  0
 15 21  2  0
 15 23  1  0
 16 17  2  0
M  END
$$$$
