
     RDKit          3D

 23 26  0  0  0  0  0  0  0  0999 V2000
  -44.3151  -26.0931   26.1178 C   0  0  0  0  0  0  0  0  0  0  0  0
  -39.0559  -31.9985   29.8317 C   0  0  0  0  0  0  0  0  0  0  0  0
  -41.2540  -29.0838   29.8170 C   0  0  0  0  0  0  0  0  0  0  0  0
  -40.5792  -30.3928   29.9445 C   0  0  0  0  0  0  0  0  0  0  0  0
  -41.0978  -31.5460   30.4874 C   0  0  0  0  0  0  0  0  0  0  0  0
  -40.1609  -32.5676   30.4281 C   0  0  0  0  0  0  0  0  0  0  0  0
  -40.1421  -33.8936   30.8144 C   0  0  0  0  0  0  0  0  0  0  0  0
  -39.0183  -34.6519   30.6048 C   0  0  0  0  0  0  0  0  0  0  0  0
  -37.9247  -34.0639   30.0071 C   0  0  0  0  0  0  0  0  0  0  0  0
  -37.9086  -32.7447   29.6094 C   0  0  0  0  0  0  0  0  0  0  0  0
  -41.1988  -26.6710   29.0657 C   0  0  0  0  0  0  0  0  0  0  0  0
  -42.2600  -26.4896   28.0667 C   0  0  0  0  0  0  0  0  0  0  0  0
  -42.4768  -25.2531   27.4892 C   0  0  0  0  0  0  0  0  0  0  0  0
  -43.4895  -25.0891   26.5387 C   0  0  0  0  0  0  0  0  0  0  0  0
  -45.3205  -24.5808   24.7541 C   0  0  0  0  0  0  0  0  0  0  0  0
  -44.0893  -27.3531   26.7106 C   0  0  0  0  0  0  0  0  0  0  0  0
  -43.0946  -27.4956   27.6386 C   0  0  0  0  0  0  0  0  0  0  0  0
  -39.3305  -30.6954   29.5512 N   0  0  0  0  0  0  0  0  0  0  0  0
  -40.6783  -28.0177   29.0983 N   0  0  0  0  0  0  0  0  0  0  0  0
  -46.2663  -24.1543   23.7812 N   0  0  0  0  0  0  0  0  0  0  0  0
  -45.2179  -25.8087   25.2274 N   0  0  0  0  0  0  0  0  0  0  0  0
  -42.3633  -28.9130   30.3585 O   0  0  0  0  0  0  0  0  0  0  0  0
  -44.0806  -23.7627   25.6008 S   0  0  0  0  0  0  0  0  0  0  0  0
  1 14  2  0
  1 16  1  0
 21  1  1  0
  2  6  2  0
  2 10  1  0
 18  2  1  0
  3  4  1  0
 19  3  1  0
  3 22  2  0
  4  5  2  0
  4 18  1  0
  5  6  1  0
  6  7  1  0
  7  8  2  0
  9  8  1  0
 10  9  2  0
 12 11  1  0
 11 19  1  0
 13 12  2  0
 12 17  1  0
 14 13  1  0
 14 23  1  0
 15 20  1  0
 15 21  2  0
 15 23  1  0
 16 17  2  0
M  END
$$$$
