
     RDKit          3D

 23 26  0  0  0  0  0  0  0  0999 V2000
  -42.2381  -27.9425   28.9446 C   0  0  0  0  0  0  0  0  0  0  0  0
  -44.8693  -21.6220   24.1041 C   0  0  0  0  0  0  0  0  0  0  0  0
  -44.9782  -25.2479   24.5144 C   0  0  0  0  0  0  0  0  0  0  0  0
  -44.8574  -23.8381   24.0867 C   0  0  0  0  0  0  0  0  0  0  0  0
  -44.4946  -23.3750   22.8427 C   0  0  0  0  0  0  0  0  0  0  0  0
  -44.4948  -21.9876   22.8287 C   0  0  0  0  0  0  0  0  0  0  0  0
  -44.2194  -21.0246   21.8775 C   0  0  0  0  0  0  0  0  0  0  0  0
  -44.3181  -19.6951   22.2007 C   0  0  0  0  0  0  0  0  0  0  0  0
  -44.6939  -19.3510   23.4811 C   0  0  0  0  0  0  0  0  0  0  0  0
  -44.9760  -20.2848   24.4545 C   0  0  0  0  0  0  0  0  0  0  0  0
  -45.5209  -26.9478   26.3047 C   0  0  0  0  0  0  0  0  0  0  0  0
  -44.4142  -27.2783   27.2119 C   0  0  0  0  0  0  0  0  0  0  0  0
  -43.3167  -27.9817   26.7535 C   0  0  0  0  0  0  0  0  0  0  0  0
  -42.2671  -28.2924   27.6241 C   0  0  0  0  0  0  0  0  0  0  0  0
  -40.2157  -28.9663   29.0846 C   0  0  0  0  0  0  0  0  0  0  0  0
  -43.3609  -27.2247   29.4070 C   0  0  0  0  0  0  0  0  0  0  0  0
  -44.3784  -26.9294   28.5419 C   0  0  0  0  0  0  0  0  0  0  0  0
  -45.0810  -22.7476   24.8392 N   0  0  0  0  0  0  0  0  0  0  0  0
  -45.4491  -25.5984   25.7949 N   0  0  0  0  0  0  0  0  0  0  0  0
  -39.0369  -29.4013   29.7510 N   0  0  0  0  0  0  0  0  0  0  0  0
  -41.2021  -28.2927   29.6465 N   0  0  0  0  0  0  0  0  0  0  0  0
  -44.6559  -26.1559   23.7240 O   0  0  0  0  0  0  0  0  0  0  0  0
  -40.7605  -29.1261   27.4718 S   0  0  0  0  0  0  0  0  0  0  0  0
  1 14  2  0
  1 16  1  0
 21  1  1  0
  2  6  2  0
  2 10  1  0
 18  2  1  0
  3  4  1  0
 19  3  1  0
  3 22  2  0
  4  5  2  0
  4 18  1  0
  5  6  1  0
  6  7  1  0
  7  8  2  0
  9  8  1  0
 10  9  2  0
 12 11  1  0
 11 19  1  0
 13 12  2  0
 12 17  1  0
 14 13  1  0
 14 23  1  0
 15 20  1  0
 15 21  2  0
 15 23  1  0
 16 17  2  0
M  END
$$$$
