
     RDKit          3D

 23 26  0  0  0  0  0  0  0  0999 V2000
  -55.2652   -2.9569   24.8531 C   0  0  0  0  0  0  0  0  0  0  0  0
  -53.0912    2.2963   30.9326 C   0  0  0  0  0  0  0  0  0  0  0  0
  -54.8787   -0.7173   29.9078 C   0  0  0  0  0  0  0  0  0  0  0  0
  -53.9843    0.3254   30.4535 C   0  0  0  0  0  0  0  0  0  0  0  0
  -52.8699    0.1373   31.2386 C   0  0  0  0  0  0  0  0  0  0  0  0
  -52.2923    1.3591   31.5522 C   0  0  0  0  0  0  0  0  0  0  0  0
  -51.1913    1.7545   32.2868 C   0  0  0  0  0  0  0  0  0  0  0  0
  -50.8881    3.0873   32.4025 C   0  0  0  0  0  0  0  0  0  0  0  0
  -51.6995    4.0079   31.7754 C   0  0  0  0  0  0  0  0  0  0  0  0
  -52.8050    3.6491   31.0351 C   0  0  0  0  0  0  0  0  0  0  0  0
  -56.8980   -1.3583   28.5292 C   0  0  0  0  0  0  0  0  0  0  0  0
  -56.3473   -1.8876   27.2748 C   0  0  0  0  0  0  0  0  0  0  0  0
  -55.8262   -3.1663   27.2211 C   0  0  0  0  0  0  0  0  0  0  0  0
  -55.3037   -3.6626   26.0225 C   0  0  0  0  0  0  0  0  0  0  0  0
  -54.2869   -4.7666   23.8911 C   0  0  0  0  0  0  0  0  0  0  0  0
  -55.7985   -1.6523   24.9138 C   0  0  0  0  0  0  0  0  0  0  0  0
  -56.3054   -1.1829   26.0943 C   0  0  0  0  0  0  0  0  0  0  0  0
  -54.0980    1.6532   30.2808 N   0  0  0  0  0  0  0  0  0  0  0  0
  -56.0305   -0.3939   29.1642 N   0  0  0  0  0  0  0  0  0  0  0  0
  -53.7058   -5.4969   22.8178 N   0  0  0  0  0  0  0  0  0  0  0  0
  -54.7524   -3.5343   23.8080 N   0  0  0  0  0  0  0  0  0  0  0  0
  -54.6110   -1.9178   30.1083 O   0  0  0  0  0  0  0  0  0  0  0  0
  -54.5796   -5.1532   25.5307 S   0  0  0  0  0  0  0  0  0  0  0  0
  1 14  2  0
  1 16  1  0
 21  1  1  0
  2  6  2  0
  2 10  1  0
 18  2  1  0
  3  4  1  0
 19  3  1  0
  3 22  2  0
  4  5  2  0
  4 18  1  0
  5  6  1  0
  6  7  1  0
  7  8  2  0
  9  8  1  0
 10  9  2  0
 12 11  1  0
 11 19  1  0
 13 12  2  0
 12 17  1  0
 14 13  1  0
 14 23  1  0
 15 20  1  0
 15 21  2  0
 15 23  1  0
 16 17  2  0
M  END
$$$$
