
     RDKit          3D

 23 26  0  0  0  0  0  0  0  0999 V2000
  -49.7164  -13.3968   21.7229 C   0  0  0  0  0  0  0  0  0  0  0  0
  -55.1068   -6.6283   19.4993 C   0  0  0  0  0  0  0  0  0  0  0  0
  -52.0859   -8.4873   20.3629 C   0  0  0  0  0  0  0  0  0  0  0  0
  -53.2846   -7.6274   20.2694 C   0  0  0  0  0  0  0  0  0  0  0  0
  -53.7776   -6.7805   21.2354 C   0  0  0  0  0  0  0  0  0  0  0  0
  -54.9206   -6.1423   20.7758 C   0  0  0  0  0  0  0  0  0  0  0  0
  -55.7987   -5.2178   21.3072 C   0  0  0  0  0  0  0  0  0  0  0  0
  -56.8637   -4.7784   20.5627 C   0  0  0  0  0  0  0  0  0  0  0  0
  -57.0318   -5.2768   19.2889 C   0  0  0  0  0  0  0  0  0  0  0  0
  -56.1758   -6.1993   18.7275 C   0  0  0  0  0  0  0  0  0  0  0  0
  -49.9801   -9.0774   21.6304 C   0  0  0  0  0  0  0  0  0  0  0  0
  -49.8920  -10.5434   21.6466 C   0  0  0  0  0  0  0  0  0  0  0  0
  -49.7409  -11.2246   22.8393 C   0  0  0  0  0  0  0  0  0  0  0  0
  -49.6578  -12.6206   22.8459 C   0  0  0  0  0  0  0  0  0  0  0  0
  -49.4842  -15.2122   23.0675 C   0  0  0  0  0  0  0  0  0  0  0  0
  -49.8707  -12.6962   20.5083 C   0  0  0  0  0  0  0  0  0  0  0  0
  -49.9502  -11.3307   20.5203 C   0  0  0  0  0  0  0  0  0  0  0  0
  -54.1144   -7.5163   19.2183 N   0  0  0  0  0  0  0  0  0  0  0  0
  -51.3390   -8.5944   21.5524 N   0  0  0  0  0  0  0  0  0  0  0  0
  -49.3762  -16.6030   23.3447 N   0  0  0  0  0  0  0  0  0  0  0  0
  -49.6270  -14.6853   21.8658 N   0  0  0  0  0  0  0  0  0  0  0  0
  -51.7216   -9.1381   19.3646 O   0  0  0  0  0  0  0  0  0  0  0  0
  -49.4728  -13.8270   24.0700 S   0  0  0  0  0  0  0  0  0  0  0  0
  1 14  2  0
  1 16  1  0
 21  1  1  0
  2  6  2  0
  2 10  1  0
 18  2  1  0
  3  4  1  0
 19  3  1  0
  3 22  2  0
  4  5  2  0
  4 18  1  0
  5  6  1  0
  6  7  1  0
  7  8  2  0
  9  8  1  0
 10  9  2  0
 12 11  1  0
 11 19  1  0
 13 12  2  0
 12 17  1  0
 14 13  1  0
 14 23  1  0
 15 20  1  0
 15 21  2  0
 15 23  1  0
 16 17  2  0
M  END
$$$$
