
     RDKit          3D

 23 26  0  0  0  0  0  0  0  0999 V2000
  -65.2247  -23.9736   -3.5614 C   0  0  0  0  0  0  0  0  0  0  0  0
  -56.6592  -24.9309   -4.2543 C   0  0  0  0  0  0  0  0  0  0  0  0
  -60.1193  -25.8345   -4.9230 C   0  0  0  0  0  0  0  0  0  0  0  0
  -58.7246  -25.7272   -4.4802 C   0  0  0  0  0  0  0  0  0  0  0  0
  -58.0139  -26.5761   -3.6744 C   0  0  0  0  0  0  0  0  0  0  0  0
  -56.7313  -26.0954   -3.5254 C   0  0  0  0  0  0  0  0  0  0  0  0
  -55.5891  -26.5028   -2.8537 C   0  0  0  0  0  0  0  0  0  0  0  0
  -54.4187  -25.8068   -2.8871 C   0  0  0  0  0  0  0  0  0  0  0  0
  -54.3691  -24.6389   -3.6262 C   0  0  0  0  0  0  0  0  0  0  0  0
  -55.4868  -24.2072   -4.3048 C   0  0  0  0  0  0  0  0  0  0  0  0
  -62.3723  -27.0069   -4.8110 C   0  0  0  0  0  0  0  0  0  0  0  0
  -63.3275  -25.9761   -4.3847 C   0  0  0  0  0  0  0  0  0  0  0  0
  -64.0930  -26.1228   -3.2143 C   0  0  0  0  0  0  0  0  0  0  0  0
  -64.9780  -25.1619   -2.8540 C   0  0  0  0  0  0  0  0  0  0  0  0
  -66.7742  -23.2864   -2.0719 C   0  0  0  0  0  0  0  0  0  0  0  0
  -64.4579  -23.8404   -4.7210 C   0  0  0  0  0  0  0  0  0  0  0  0
  -63.5720  -24.8125   -5.0734 C   0  0  0  0  0  0  0  0  0  0  0  0
  -57.8792  -24.7457   -4.8124 N   0  0  0  0  0  0  0  0  0  0  0  0
  -61.0095  -26.7905   -4.3894 N   0  0  0  0  0  0  0  0  0  0  0  0
  -67.7898  -22.6700   -1.2453 N   0  0  0  0  0  0  0  0  0  0  0  0
  -66.1228  -23.2068   -3.0206 N   0  0  0  0  0  0  0  0  0  0  0  0
  -60.5458  -25.0559   -5.8057 O   0  0  0  0  0  0  0  0  0  0  0  0
  -66.1389  -24.9919   -1.4361 S   0  0  0  0  0  0  0  0  0  0  0  0
  1 14  2  0
  1 16  1  0
 21  1  1  0
  2  6  2  0
  2 10  1  0
 18  2  1  0
  3  4  1  0
 19  3  1  0
  3 22  2  0
  4  5  2  0
  4 18  1  0
  5  6  1  0
  6  7  1  0
  7  8  2  0
  9  8  1  0
 10  9  2  0
 12 11  1  0
 11 19  1  6
 13 12  2  0
 12 17  1  0
 14 13  1  0
 14 23  1  0
 15 20  1  0
 15 21  2  0
 15 23  1  0
 16 17  2  0
M  END
$$$$
