
     RDKit          3D

 23 26  0  0  0  0  0  0  0  0999 V2000
  -50.2908  -12.3504   22.3293 C   0  0  0  0  0  0  0  0  0  0  0  0
  -55.7294   -6.0755   19.2869 C   0  0  0  0  0  0  0  0  0  0  0  0
  -53.6457   -7.7637   21.7453 C   0  0  0  0  0  0  0  0  0  0  0  0
  -54.2146   -6.9991   20.6298 C   0  0  0  0  0  0  0  0  0  0  0  0
  -53.5625   -6.3407   19.6216 C   0  0  0  0  0  0  0  0  0  0  0  0
  -54.4888   -5.7632   18.7811 C   0  0  0  0  0  0  0  0  0  0  0  0
  -54.4417   -4.9980   17.6260 C   0  0  0  0  0  0  0  0  0  0  0  0
  -55.5569   -4.5514   16.9840 C   0  0  0  0  0  0  0  0  0  0  0  0
  -56.7936   -4.8773   17.5103 C   0  0  0  0  0  0  0  0  0  0  0  0
  -56.8742   -5.6360   18.6566 C   0  0  0  0  0  0  0  0  0  0  0  0
  -51.6648   -8.3268   23.2360 C   0  0  0  0  0  0  0  0  0  0  0  0
  -51.2111   -9.6890   22.9269 C   0  0  0  0  0  0  0  0  0  0  0  0
  -50.9907  -10.6378   23.9410 C   0  0  0  0  0  0  0  0  0  0  0  0
  -50.5571  -11.8827   23.6269 C   0  0  0  0  0  0  0  0  0  0  0  0
  -49.6826  -14.3905   23.0777 C   0  0  0  0  0  0  0  0  0  0  0  0
  -50.5141  -11.3986   21.3321 C   0  0  0  0  0  0  0  0  0  0  0  0
  -50.9495  -10.1506   21.6595 C   0  0  0  0  0  0  0  0  0  0  0  0
  -55.5195   -6.8195   20.3989 N   0  0  0  0  0  0  0  0  0  0  0  0
  -52.2985   -7.6299   22.1430 N   0  0  0  0  0  0  0  0  0  0  0  0
  -49.2562  -15.7470   23.3472 N   0  0  0  0  0  0  0  0  0  0  0  0
  -49.8806  -13.5817   22.2793 N   0  0  0  0  0  0  0  0  0  0  0  0
  -54.3717   -8.5671   22.3737 O   0  0  0  0  0  0  0  0  0  0  0  0
  -50.1555  -13.3655   24.6404 S   0  0  0  0  0  0  0  0  0  0  0  0
  1 14  2  0
  1 16  1  0
 21  1  1  0
  2  6  2  0
  2 10  1  0
 18  2  1  0
  3  4  1  0
 19  3  1  0
  3 22  2  0
  4  5  2  0
  4 18  1  0
  5  6  1  0
  6  7  1  0
  7  8  2  0
  9  8  1  0
 10  9  2  0
 12 11  1  0
 11 19  1  6
 13 12  2  0
 12 17  1  0
 14 13  1  0
 14 23  1  0
 15 20  1  0
 15 21  2  0
 15 23  1  0
 16 17  2  0
M  END
$$$$
