
     RDKit          3D

 23 26  0  0  0  0  0  0  0  0999 V2000
  -68.2954  -19.4400   28.2488 C   0  0  0  0  0  0  0  0  0  0  0  0
  -65.7473  -20.9603   36.3838 C   0  0  0  0  0  0  0  0  0  0  0  0
  -66.7425  -21.6563   32.9543 C   0  0  0  0  0  0  0  0  0  0  0  0
  -66.0546  -21.4233   34.2291 C   0  0  0  0  0  0  0  0  0  0  0  0
  -64.7116  -21.4480   34.4950 C   0  0  0  0  0  0  0  0  0  0  0  0
  -64.5057  -21.1626   35.8270 C   0  0  0  0  0  0  0  0  0  0  0  0
  -63.4031  -21.0431   36.6589 C   0  0  0  0  0  0  0  0  0  0  0  0
  -63.5002  -20.7385   37.9829 C   0  0  0  0  0  0  0  0  0  0  0  0
  -64.7584  -20.5394   38.5213 C   0  0  0  0  0  0  0  0  0  0  0  0
  -65.8736  -20.6509   37.7214 C   0  0  0  0  0  0  0  0  0  0  0  0
  -68.9013  -22.0516   31.6711 C   0  0  0  0  0  0  0  0  0  0  0  0
  -68.6901  -21.1627   30.5212 C   0  0  0  0  0  0  0  0  0  0  0  0
  -69.6563  -20.2160   30.1372 C   0  0  0  0  0  0  0  0  0  0  0  0
  -69.4405  -19.4197   29.0622 C   0  0  0  0  0  0  0  0  0  0  0  0
  -69.0842  -17.7966   26.9188 C   0  0  0  0  0  0  0  0  0  0  0  0
  -67.3441  -20.3841   28.6413 C   0  0  0  0  0  0  0  0  0  0  0  0
  -67.5718  -21.1792   29.7230 C   0  0  0  0  0  0  0  0  0  0  0  0
  -66.6510  -21.1267   35.3888 N   0  0  0  0  0  0  0  0  0  0  0  0
  -68.1490  -21.7110   32.8542 N   0  0  0  0  0  0  0  0  0  0  0  0
  -69.4036  -16.7667   25.9536 N   0  0  0  0  0  0  0  0  0  0  0  0
  -68.3186  -18.5837   27.2725 N   0  0  0  0  0  0  0  0  0  0  0  0
  -66.0680  -21.8144   31.9115 O   0  0  0  0  0  0  0  0  0  0  0  0
  -70.4376  -18.0983   28.2580 S   0  0  0  0  0  0  0  0  0  0  0  0
  1 14  2  0
  1 16  1  0
 21  1  1  0
  2  6  2  0
  2 10  1  0
 18  2  1  0
  3  4  1  0
 19  3  1  0
  3 22  2  0
  4  5  2  0
  4 18  1  0
  5  6  1  0
  6  7  1  0
  7  8  2  0
  9  8  1  0
 10  9  2  0
 12 11  1  0
 11 19  1  6
 13 12  2  0
 12 17  1  0
 14 13  1  0
 14 23  1  0
 15 20  1  0
 15 21  2  0
 15 23  1  0
 16 17  2  0
M  END
$$$$
