
     RDKit          3D

 23 26  0  0  0  0  0  0  0  0999 V2000
  -57.8883  -27.0354   41.3191 C   0  0  0  0  0  0  0  0  0  0  0  0
  -60.5433  -19.2639   39.5467 C   0  0  0  0  0  0  0  0  0  0  0  0
  -61.4901  -22.7677   39.9395 C   0  0  0  0  0  0  0  0  0  0  0  0
  -61.2358  -21.3691   39.5342 C   0  0  0  0  0  0  0  0  0  0  0  0
  -61.6206  -20.7603   38.3617 C   0  0  0  0  0  0  0  0  0  0  0  0
  -61.1976  -19.4390   38.3461 C   0  0  0  0  0  0  0  0  0  0  0  0
  -61.3036  -18.3944   37.4485 C   0  0  0  0  0  0  0  0  0  0  0  0
  -60.7554  -17.1738   37.7506 C   0  0  0  0  0  0  0  0  0  0  0  0
  -60.1055  -17.0198   38.9561 C   0  0  0  0  0  0  0  0  0  0  0  0
  -59.9811  -18.0396   39.8745 C   0  0  0  0  0  0  0  0  0  0  0  0
  -61.4301  -24.5772   41.7034 C   0  0  0  0  0  0  0  0  0  0  0  0
  -60.2223  -25.4043   41.5852 C   0  0  0  0  0  0  0  0  0  0  0  0
  -60.1099  -26.3428   40.5772 C   0  0  0  0  0  0  0  0  0  0  0  0
  -58.9563  -27.1264   40.4718 C   0  0  0  0  0  0  0  0  0  0  0  0
  -56.8941  -28.6790   40.1075 C   0  0  0  0  0  0  0  0  0  0  0  0
  -58.0085  -26.0758   42.3461 C   0  0  0  0  0  0  0  0  0  0  0  0
  -59.1438  -25.3180   42.4344 C   0  0  0  0  0  0  0  0  0  0  0  0
  -60.5792  -20.4338   40.2412 N   0  0  0  0  0  0  0  0  0  0  0  0
  -61.2323  -23.2209   41.2481 N   0  0  0  0  0  0  0  0  0  0  0  0
  -55.8473  -29.5861   39.7849 N   0  0  0  0  0  0  0  0  0  0  0  0
  -56.8754  -27.8225   41.1117 N   0  0  0  0  0  0  0  0  0  0  0  0
  -61.9453  -23.5726   39.1041 O   0  0  0  0  0  0  0  0  0  0  0  0
  -58.4208  -28.3732   39.4008 S   0  0  0  0  0  0  0  0  0  0  0  0
  1 14  2  0
  1 16  1  0
 21  1  1  0
  2  6  2  0
  2 10  1  0
 18  2  1  0
  3  4  1  0
 19  3  1  0
  3 22  2  0
  4  5  2  0
  4 18  1  0
  5  6  1  0
  6  7  1  0
  7  8  2  0
  9  8  1  0
 10  9  2  0
 12 11  1  0
 11 19  1  0
 13 12  2  0
 12 17  1  0
 14 13  1  0
 14 23  1  0
 15 20  1  0
 15 21  2  0
 15 23  1  0
 16 17  2  0
M  END
$$$$
