
     RDKit          3D

 23 26  0  0  0  0  0  0  0  0999 V2000
  -44.0991  -25.4414   25.6306 C   0  0  0  0  0  0  0  0  0  0  0  0
  -46.9403  -17.7587   22.6418 C   0  0  0  0  0  0  0  0  0  0  0  0
  -46.0285  -21.2615   22.1656 C   0  0  0  0  0  0  0  0  0  0  0  0
  -46.1955  -19.7927   22.1733 C   0  0  0  0  0  0  0  0  0  0  0  0
  -45.4788  -18.8708   21.4454 C   0  0  0  0  0  0  0  0  0  0  0  0
  -45.9276  -17.5875   21.7222 C   0  0  0  0  0  0  0  0  0  0  0  0
  -45.5809  -16.3217   21.2913 C   0  0  0  0  0  0  0  0  0  0  0  0
  -46.2464  -15.2260   21.7794 C   0  0  0  0  0  0  0  0  0  0  0  0
  -47.2554  -15.4191   22.6979 C   0  0  0  0  0  0  0  0  0  0  0  0
  -47.6273  -16.6667   23.1496 C   0  0  0  0  0  0  0  0  0  0  0  0
  -46.8477  -23.5444   22.8771 C   0  0  0  0  0  0  0  0  0  0  0  0
  -45.9134  -24.1997   23.8017 C   0  0  0  0  0  0  0  0  0  0  0  0
  -45.5894  -23.6091   25.0082 C   0  0  0  0  0  0  0  0  0  0  0  0
  -44.6989  -24.2399   25.8828 C   0  0  0  0  0  0  0  0  0  0  0  0
  -43.0651  -25.2526   27.6438 C   0  0  0  0  0  0  0  0  0  0  0  0
  -44.4335  -26.0396   24.3976 C   0  0  0  0  0  0  0  0  0  0  0  0
  -45.3062  -25.4088   23.5542 C   0  0  0  0  0  0  0  0  0  0  0  0
  -47.0822  -19.0881   22.8963 N   0  0  0  0  0  0  0  0  0  0  0  0
  -46.8187  -22.1036   22.9723 N   0  0  0  0  0  0  0  0  0  0  0  0
  -42.2031  -25.6767   28.6925 N   0  0  0  0  0  0  0  0  0  0  0  0
  -43.2899  -25.9202   26.5275 N   0  0  0  0  0  0  0  0  0  0  0  0
  -45.1661  -21.7744   21.4266 O   0  0  0  0  0  0  0  0  0  0  0  0
  -44.0424  -23.8648   27.4373 S   0  0  0  0  0  0  0  0  0  0  0  0
  1 14  2  0
  1 16  1  0
 21  1  1  0
  2  6  2  0
  2 10  1  0
 18  2  1  0
  3  4  1  0
 19  3  1  0
  3 22  2  0
  4  5  2  0
  4 18  1  0
  5  6  1  0
  6  7  1  0
  7  8  2  0
  9  8  1  0
 10  9  2  0
 12 11  1  0
 11 19  1  0
 13 12  2  0
 12 17  1  0
 14 13  1  0
 14 23  1  0
 15 20  1  0
 15 21  2  0
 15 23  1  0
 16 17  2  0
M  END
$$$$
