
     RDKit          3D

 23 26  0  0  0  0  0  0  0  0999 V2000
  -39.8635  -30.6902   29.0071 C   0  0  0  0  0  0  0  0  0  0  0  0
  -44.8838  -24.8304   24.4134 C   0  0  0  0  0  0  0  0  0  0  0  0
  -41.9704  -25.3338   26.5334 C   0  0  0  0  0  0  0  0  0  0  0  0
  -42.9776  -24.8990   25.5592 C   0  0  0  0  0  0  0  0  0  0  0  0
  -42.8979  -23.8901   24.6368 C   0  0  0  0  0  0  0  0  0  0  0  0
  -44.0725  -23.8356   23.9188 C   0  0  0  0  0  0  0  0  0  0  0  0
  -44.5707  -23.0566   22.8859 C   0  0  0  0  0  0  0  0  0  0  0  0
  -45.8107  -23.2352   22.3514 C   0  0  0  0  0  0  0  0  0  0  0  0
  -46.6092  -24.2412   22.8642 C   0  0  0  0  0  0  0  0  0  0  0  0
  -46.1434  -25.0324   23.8903 C   0  0  0  0  0  0  0  0  0  0  0  0
  -41.4513  -26.6600   28.6394 C   0  0  0  0  0  0  0  0  0  0  0  0
  -40.9196  -28.0242   28.7538 C   0  0  0  0  0  0  0  0  0  0  0  0
  -41.5389  -28.9880   29.5692 C   0  0  0  0  0  0  0  0  0  0  0  0
  -41.0167  -30.2347   29.6673 C   0  0  0  0  0  0  0  0  0  0  0  0
  -40.0272  -32.7471   29.9206 C   0  0  0  0  0  0  0  0  0  0  0  0
  -39.2589  -29.7235   28.2008 C   0  0  0  0  0  0  0  0  0  0  0  0
  -39.7922  -28.4740   28.1100 C   0  0  0  0  0  0  0  0  0  0  0  0
  -44.1875  -25.4458   25.3986 N   0  0  0  0  0  0  0  0  0  0  0  0
  -42.2007  -26.3942   27.4354 N   0  0  0  0  0  0  0  0  0  0  0  0
  -39.9496  -34.1122   30.3948 N   0  0  0  0  0  0  0  0  0  0  0  0
  -39.5557  -31.9262   29.2614 N   0  0  0  0  0  0  0  0  0  0  0  0
  -40.8637  -24.7501   26.5758 O   0  0  0  0  0  0  0  0  0  0  0  0
  -41.5163  -31.7348   30.6092 S   0  0  0  0  0  0  0  0  0  0  0  0
  1 14  2  0
  1 16  1  0
 21  1  1  0
  2  6  2  0
  2 10  1  0
 18  2  1  0
  3  4  1  0
 19  3  1  0
  3 22  2  0
  4  5  2  0
  4 18  1  0
  5  6  1  0
  6  7  1  0
  7  8  2  0
  9  8  1  0
 10  9  2  0
 12 11  1  0
 11 19  1  6
 13 12  2  0
 12 17  1  0
 14 13  1  0
 14 23  1  0
 15 20  1  0
 15 21  2  0
 15 23  1  0
 16 17  2  0
M  END
$$$$
