
     RDKit          3D

 23 26  0  0  0  0  0  0  0  0999 V2000
  -44.5770  -26.0398   24.8302 C   0  0  0  0  0  0  0  0  0  0  0  0
  -47.4366  -18.1210   21.4627 C   0  0  0  0  0  0  0  0  0  0  0  0
  -47.8759  -21.2202   23.3169 C   0  0  0  0  0  0  0  0  0  0  0  0
  -47.9681  -20.0492   22.4377 C   0  0  0  0  0  0  0  0  0  0  0  0
  -48.9597  -19.7178   21.5534 C   0  0  0  0  0  0  0  0  0  0  0  0
  -48.6440  -18.5245   20.9414 C   0  0  0  0  0  0  0  0  0  0  0  0
  -49.2366  -17.7079   19.9906 C   0  0  0  0  0  0  0  0  0  0  0  0
  -48.6791  -16.5420   19.5603 C   0  0  0  0  0  0  0  0  0  0  0  0
  -47.4648  -16.1560   20.0981 C   0  0  0  0  0  0  0  0  0  0  0  0
  -46.8505  -16.9452   21.0445 C   0  0  0  0  0  0  0  0  0  0  0  0
  -46.7354  -22.2977   25.3172 C   0  0  0  0  0  0  0  0  0  0  0  0
  -46.0143  -23.5672   25.1583 C   0  0  0  0  0  0  0  0  0  0  0  0
  -44.9211  -23.8988   25.9782 C   0  0  0  0  0  0  0  0  0  0  0  0
  -44.2651  -25.0709   25.7982 C   0  0  0  0  0  0  0  0  0  0  0  0
  -42.8979  -27.3933   25.4940 C   0  0  0  0  0  0  0  0  0  0  0  0
  -45.6644  -25.6982   24.0232 C   0  0  0  0  0  0  0  0  0  0  0  0
  -46.3158  -24.5176   24.2130 C   0  0  0  0  0  0  0  0  0  0  0  0
  -47.0649  -19.0662   22.3586 N   0  0  0  0  0  0  0  0  0  0  0  0
  -46.7584  -21.4560   24.1455 N   0  0  0  0  0  0  0  0  0  0  0  0
  -41.8879  -28.3951   25.7599 N   0  0  0  0  0  0  0  0  0  0  0  0
  -43.8016  -27.0817   24.8483 N   0  0  0  0  0  0  0  0  0  0  0  0
  -48.8157  -22.0470   23.3406 O   0  0  0  0  0  0  0  0  0  0  0  0
  -42.8220  -25.8441   26.6388 S   0  0  0  0  0  0  0  0  0  0  0  0
  1 14  2  0
  1 16  1  0
 21  1  1  0
  2  6  2  0
  2 10  1  0
 18  2  1  0
  3  4  1  0
 19  3  1  0
  3 22  2  0
  4  5  2  0
  4 18  1  0
  5  6  1  0
  6  7  1  0
  7  8  2  0
  9  8  1  0
 10  9  2  0
 12 11  1  0
 11 19  1  6
 13 12  2  0
 12 17  1  0
 14 13  1  0
 14 23  1  0
 15 20  1  0
 15 21  2  0
 15 23  1  0
 16 17  2  0
M  END
$$$$
