
     RDKit          3D

 23 26  0  0  0  0  0  0  0  0999 V2000
  -50.5222  -10.9312   21.2391 C   0  0  0  0  0  0  0  0  0  0  0  0
  -57.5452  -14.7106   24.6867 C   0  0  0  0  0  0  0  0  0  0  0  0
  -55.0628  -12.1040   24.0779 C   0  0  0  0  0  0  0  0  0  0  0  0
  -56.2489  -12.9745   24.2207 C   0  0  0  0  0  0  0  0  0  0  0  0
  -57.5478  -12.6721   23.8814 C   0  0  0  0  0  0  0  0  0  0  0  0
  -58.3798  -13.7457   24.1644 C   0  0  0  0  0  0  0  0  0  0  0  0
  -59.7330  -13.9890   24.0312 C   0  0  0  0  0  0  0  0  0  0  0  0
  -60.2530  -15.1973   24.4202 C   0  0  0  0  0  0  0  0  0  0  0  0
  -59.4015  -16.1482   24.9398 C   0  0  0  0  0  0  0  0  0  0  0  0
  -58.0473  -15.9395   25.0868 C   0  0  0  0  0  0  0  0  0  0  0  0
  -54.0968   -9.8593   23.4321 C   0  0  0  0  0  0  0  0  0  0  0  0
  -52.8808  -10.2338   22.6984 C   0  0  0  0  0  0  0  0  0  0  0  0
  -52.5333   -9.5768   21.5334 C   0  0  0  0  0  0  0  0  0  0  0  0
  -51.3738   -9.9396   20.8409 C   0  0  0  0  0  0  0  0  0  0  0  0
  -49.2596  -10.4662   19.4096 C   0  0  0  0  0  0  0  0  0  0  0  0
  -50.8818  -11.5984   22.4289 C   0  0  0  0  0  0  0  0  0  0  0  0
  -52.0194  -11.2306   23.0934 C   0  0  0  0  0  0  0  0  0  0  0  0
  -56.2739  -14.2256   24.7104 N   0  0  0  0  0  0  0  0  0  0  0  0
  -55.1196  -10.8779   23.3868 N   0  0  0  0  0  0  0  0  0  0  0  0
  -48.1540  -10.6380   18.5315 N   0  0  0  0  0  0  0  0  0  0  0  0
  -49.4771  -11.1701   20.5048 N   0  0  0  0  0  0  0  0  0  0  0  0
  -53.9797  -12.4599   24.5811 O   0  0  0  0  0  0  0  0  0  0  0  0
  -50.5953   -9.3989   19.3953 S   0  0  0  0  0  0  0  0  0  0  0  0
  1 14  2  0
  1 16  1  0
 21  1  1  0
  2  6  2  0
  2 10  1  0
 18  2  1  0
  3  4  1  0
 19  3  1  0
  3 22  2  0
  4  5  2  0
  4 18  1  0
  5  6  1  0
  6  7  1  0
  7  8  2  0
  9  8  1  0
 10  9  2  0
 12 11  1  0
 11 19  1  0
 13 12  2  0
 12 17  1  0
 14 13  1  0
 14 23  1  0
 15 20  1  0
 15 21  2  0
 15 23  1  0
 16 17  2  0
M  END
$$$$
