
     RDKit          3D

 23 26  0  0  0  0  0  0  0  0999 V2000
  -40.6018  -29.7359   28.9557 C   0  0  0  0  0  0  0  0  0  0  0  0
  -45.0139  -23.1308   23.9999 C   0  0  0  0  0  0  0  0  0  0  0  0
  -43.8812  -24.5168   27.1672 C   0  0  0  0  0  0  0  0  0  0  0  0
  -44.3461  -24.2546   25.8006 C   0  0  0  0  0  0  0  0  0  0  0  0
  -44.6316  -25.1512   24.8059 C   0  0  0  0  0  0  0  0  0  0  0  0
  -45.0471  -24.4691   23.6833 C   0  0  0  0  0  0  0  0  0  0  0  0
  -45.4604  -24.8155   22.4061 C   0  0  0  0  0  0  0  0  0  0  0  0
  -45.8285  -23.8978   21.4692 C   0  0  0  0  0  0  0  0  0  0  0  0
  -45.7873  -22.5579   21.8095 C   0  0  0  0  0  0  0  0  0  0  0  0
  -45.3813  -22.1813   23.0702 C   0  0  0  0  0  0  0  0  0  0  0  0
  -43.0848  -26.1676   28.9290 C   0  0  0  0  0  0  0  0  0  0  0  0
  -42.2458  -27.3730   28.9268 C   0  0  0  0  0  0  0  0  0  0  0  0
  -42.7962  -28.6515   29.1259 C   0  0  0  0  0  0  0  0  0  0  0  0
  -41.9951  -29.7445   29.1342 C   0  0  0  0  0  0  0  0  0  0  0  0
  -40.4562  -31.9774   29.1715 C   0  0  0  0  0  0  0  0  0  0  0  0
  -40.0684  -28.4604   28.7588 C   0  0  0  0  0  0  0  0  0  0  0  0
  -40.8829  -27.3692   28.7527 C   0  0  0  0  0  0  0  0  0  0  0  0
  -44.5867  -23.0455   25.2822 N   0  0  0  0  0  0  0  0  0  0  0  0
  -43.6653  -25.8236   27.6537 N   0  0  0  0  0  0  0  0  0  0  0  0
  -40.1475  -33.3870   29.2818 N   0  0  0  0  0  0  0  0  0  0  0  0
  -40.0495  -30.9103   29.0080 N   0  0  0  0  0  0  0  0  0  0  0  0
  -43.6657  -23.5546   27.9387 O   0  0  0  0  0  0  0  0  0  0  0  0
  -42.3240  -31.5407   29.3639 S   0  0  0  0  0  0  0  0  0  0  0  0
  1 14  2  0
  1 16  1  0
 21  1  1  0
  2  6  2  0
  2 10  1  0
 18  2  1  0
  3  4  1  0
 19  3  1  0
  3 22  2  0
  4  5  2  0
  4 18  1  0
  5  6  1  0
  6  7  1  0
  7  8  2  0
  9  8  1  0
 10  9  2  0
 12 11  1  0
 11 19  1  6
 13 12  2  0
 12 17  1  0
 14 13  1  0
 14 23  1  0
 15 20  1  0
 15 21  2  0
 15 23  1  0
 16 17  2  0
M  END
$$$$
