
     RDKit          3D

 23 26  0  0  0  0  0  0  0  0999 V2000
  -63.3327  -24.1171   35.1676 C   0  0  0  0  0  0  0  0  0  0  0  0
  -66.4124  -15.9712   35.6099 C   0  0  0  0  0  0  0  0  0  0  0  0
  -66.0842  -19.3981   36.8250 C   0  0  0  0  0  0  0  0  0  0  0  0
  -65.9670  -17.9730   36.4502 C   0  0  0  0  0  0  0  0  0  0  0  0
  -64.9210  -17.1234   36.7291 C   0  0  0  0  0  0  0  0  0  0  0  0
  -65.1771  -15.8616   36.2121 C   0  0  0  0  0  0  0  0  0  0  0  0
  -64.4955  -14.6603   36.1961 C   0  0  0  0  0  0  0  0  0  0  0  0
  -65.0482  -13.5675   35.5780 C   0  0  0  0  0  0  0  0  0  0  0  0
  -66.2839  -13.6984   34.9821 C   0  0  0  0  0  0  0  0  0  0  0  0
  -66.9915  -14.8808   34.9790 C   0  0  0  0  0  0  0  0  0  0  0  0
  -65.1646  -21.4264   38.0206 C   0  0  0  0  0  0  0  0  0  0  0  0
  -64.5295  -22.3374   37.0594 C   0  0  0  0  0  0  0  0  0  0  0  0
  -65.2724  -22.9271   36.0546 C   0  0  0  0  0  0  0  0  0  0  0  0
  -64.6599  -23.7934   35.1435 C   0  0  0  0  0  0  0  0  0  0  0  0
  -63.7063  -25.4312   33.3534 C   0  0  0  0  0  0  0  0  0  0  0  0
  -62.5791  -23.5123   36.1954 C   0  0  0  0  0  0  0  0  0  0  0  0
  -63.1944  -22.6675   37.0779 C   0  0  0  0  0  0  0  0  0  0  0  0
  -66.8654  -17.2451   35.7657 N   0  0  0  0  0  0  0  0  0  0  0  0
  -65.1079  -20.0431   37.6093 N   0  0  0  0  0  0  0  0  0  0  0  0
  -63.3331  -26.3323   32.3183 N   0  0  0  0  0  0  0  0  0  0  0  0
  -62.8872  -24.9359   34.2622 N   0  0  0  0  0  0  0  0  0  0  0  0
  -67.0723  -20.0520   36.4389 O   0  0  0  0  0  0  0  0  0  0  0  0
  -65.1977  -24.7131   33.7822 S   0  0  0  0  0  0  0  0  0  0  0  0
  1 14  2  0
  1 16  1  0
 21  1  1  0
  2  6  2  0
  2 10  1  0
 18  2  1  0
  3  4  1  0
 19  3  1  0
  3 22  2  0
  4  5  2  0
  4 18  1  0
  5  6  1  0
  6  7  1  0
  7  8  2  0
  9  8  1  0
 10  9  2  0
 12 11  1  0
 11 19  1  0
 13 12  2  0
 12 17  1  0
 14 13  1  0
 14 23  1  0
 15 20  1  0
 15 21  2  0
 15 23  1  0
 16 17  2  0
M  END
$$$$
