
     RDKit          3D

 23 26  0  0  0  0  0  0  0  0999 V2000
  -47.2657  -28.0321   27.0021 C   0  0  0  0  0  0  0  0  0  0  0  0
  -56.1142  -26.0459   28.4944 C   0  0  0  0  0  0  0  0  0  0  0  0
  -53.0410  -27.9251   27.9016 C   0  0  0  0  0  0  0  0  0  0  0  0
  -54.3963  -27.3372   27.9532 C   0  0  0  0  0  0  0  0  0  0  0  0
  -55.5013  -27.7312   27.2342 C   0  0  0  0  0  0  0  0  0  0  0  0
  -56.5918  -26.9362   27.5564 C   0  0  0  0  0  0  0  0  0  0  0  0
  -57.9116  -26.8852   27.1521 C   0  0  0  0  0  0  0  0  0  0  0  0
  -58.7552  -25.9442   27.6854 C   0  0  0  0  0  0  0  0  0  0  0  0
  -58.2579  -25.0637   28.6217 C   0  0  0  0  0  0  0  0  0  0  0  0
  -56.9476  -25.0859   29.0478 C   0  0  0  0  0  0  0  0  0  0  0  0
  -50.9453  -28.2901   29.2669 C   0  0  0  0  0  0  0  0  0  0  0  0
  -49.7005  -28.2154   28.4910 C   0  0  0  0  0  0  0  0  0  0  0  0
  -48.8081  -27.1800   28.6934 C   0  0  0  0  0  0  0  0  0  0  0  0
  -47.6250  -27.1163   27.9504 C   0  0  0  0  0  0  0  0  0  0  0  0
  -45.3732  -26.8212   26.6705 C   0  0  0  0  0  0  0  0  0  0  0  0
  -48.1804  -29.0868   26.7997 C   0  0  0  0  0  0  0  0  0  0  0  0
  -49.3327  -29.1335   27.5352 C   0  0  0  0  0  0  0  0  0  0  0  0
  -54.7968  -26.3058   28.7158 N   0  0  0  0  0  0  0  0  0  0  0  0
  -51.9977  -27.4615   28.7268 N   0  0  0  0  0  0  0  0  0  0  0  0
  -44.1228  -26.5293   26.0587 N   0  0  0  0  0  0  0  0  0  0  0  0
  -46.1375  -27.8578   26.3813 N   0  0  0  0  0  0  0  0  0  0  0  0
  -52.8093  -28.8572   27.1076 O   0  0  0  0  0  0  0  0  0  0  0  0
  -46.2798  -26.0326   27.8870 S   0  0  0  0  0  0  0  0  0  0  0  0
  1 14  2  0
  1 16  1  0
 21  1  1  0
  2  6  2  0
  2 10  1  0
 18  2  1  0
  3  4  1  0
 19  3  1  0
  3 22  2  0
  4  5  2  0
  4 18  1  0
  5  6  1  0
  6  7  1  0
  7  8  2  0
  9  8  1  0
 10  9  2  0
 12 11  1  0
 11 19  1  0
 13 12  2  0
 12 17  1  0
 14 13  1  0
 14 23  1  0
 15 20  1  0
 15 21  2  0
 15 23  1  0
 16 17  2  0
M  END
$$$$
