
     RDKit          3D

 23 26  0  0  0  0  0  0  0  0999 V2000
  -40.5863  -25.2707   27.3007 C   0  0  0  0  0  0  0  0  0  0  0  0
  -38.3989  -32.6522   31.1666 C   0  0  0  0  0  0  0  0  0  0  0  0
  -41.0276  -30.2861   30.2617 C   0  0  0  0  0  0  0  0  0  0  0  0
  -40.0263  -31.1733   30.8902 C   0  0  0  0  0  0  0  0  0  0  0  0
  -39.7824  -31.3302   32.2354 C   0  0  0  0  0  0  0  0  0  0  0  0
  -38.7656  -32.2530   32.4341 C   0  0  0  0  0  0  0  0  0  0  0  0
  -38.1324  -32.7787   33.5435 C   0  0  0  0  0  0  0  0  0  0  0  0
  -37.1320  -33.7040   33.3865 C   0  0  0  0  0  0  0  0  0  0  0  0
  -36.7808  -34.0895   32.1110 C   0  0  0  0  0  0  0  0  0  0  0  0
  -37.3907  -33.5861   30.9826 C   0  0  0  0  0  0  0  0  0  0  0  0
  -42.0342  -29.2526   28.1862 C   0  0  0  0  0  0  0  0  0  0  0  0
  -41.5519  -27.8958   27.8968 C   0  0  0  0  0  0  0  0  0  0  0  0
  -40.6213  -27.6796   26.8984 C   0  0  0  0  0  0  0  0  0  0  0  0
  -40.1673  -26.3845   26.6292 C   0  0  0  0  0  0  0  0  0  0  0  0
  -39.1996  -24.0535   25.9768 C   0  0  0  0  0  0  0  0  0  0  0  0
  -41.5362  -25.4974   28.3187 C   0  0  0  0  0  0  0  0  0  0  0  0
  -41.9693  -26.7706   28.5686 C   0  0  0  0  0  0  0  0  0  0  0  0
  -39.1681  -31.9918   30.2585 N   0  0  0  0  0  0  0  0  0  0  0  0
  -41.0562  -30.0653   28.8708 N   0  0  0  0  0  0  0  0  0  0  0  0
  -38.5859  -22.8578   25.5113 N   0  0  0  0  0  0  0  0  0  0  0  0
  -40.0857  -24.1232   26.9525 N   0  0  0  0  0  0  0  0  0  0  0  0
  -41.8727  -29.7148   30.9777 O   0  0  0  0  0  0  0  0  0  0  0  0
  -39.0487  -25.6910   25.5084 S   0  0  0  0  0  0  0  0  0  0  0  0
  1 14  2  0
  1 16  1  0
 21  1  1  0
  2  6  2  0
  2 10  1  0
 18  2  1  0
  3  4  1  0
 19  3  1  0
  3 22  2  0
  4  5  2  0
  4 18  1  0
  5  6  1  0
  6  7  1  0
  7  8  2  0
  9  8  1  0
 10  9  2  0
 12 11  1  0
 11 19  1  0
 13 12  2  0
 12 17  1  0
 14 13  1  0
 14 23  1  0
 15 20  1  0
 15 21  2  0
 15 23  1  0
 16 17  2  0
M  END
$$$$
