
     RDKit          3D

 23 26  0  0  0  0  0  0  0  0999 V2000
  -58.1365  -22.3213   39.1172 C   0  0  0  0  0  0  0  0  0  0  0  0
  -64.7410  -16.5926   36.3539 C   0  0  0  0  0  0  0  0  0  0  0  0
  -62.5568  -19.0938   37.8708 C   0  0  0  0  0  0  0  0  0  0  0  0
  -63.6068  -18.2981   37.2003 C   0  0  0  0  0  0  0  0  0  0  0  0
  -64.7776  -18.7643   36.6478 C   0  0  0  0  0  0  0  0  0  0  0  0
  -65.5064  -17.7131   36.1104 C   0  0  0  0  0  0  0  0  0  0  0  0
  -66.7168  -17.6041   35.4540 C   0  0  0  0  0  0  0  0  0  0  0  0
  -67.1631  -16.3747   35.0404 C   0  0  0  0  0  0  0  0  0  0  0  0
  -66.3829  -15.2673   35.2936 C   0  0  0  0  0  0  0  0  0  0  0  0
  -65.1709  -15.3393   35.9455 C   0  0  0  0  0  0  0  0  0  0  0  0
  -62.2737  -21.0820   39.4058 C   0  0  0  0  0  0  0  0  0  0  0  0
  -60.8723  -21.5129   39.3188 C   0  0  0  0  0  0  0  0  0  0  0  0
  -60.0061  -20.9090   38.4275 C   0  0  0  0  0  0  0  0  0  0  0  0
  -58.6732  -21.3254   38.3510 C   0  0  0  0  0  0  0  0  0  0  0  0
  -56.1608  -21.9562   38.0586 C   0  0  0  0  0  0  0  0  0  0  0  0
  -59.0252  -22.9342   40.0252 C   0  0  0  0  0  0  0  0  0  0  0  0
  -60.3256  -22.5144   40.0868 C   0  0  0  0  0  0  0  0  0  0  0  0
  -63.6080  -16.9683   37.0078 N   0  0  0  0  0  0  0  0  0  0  0  0
  -62.7465  -20.4513   38.1956 N   0  0  0  0  0  0  0  0  0  0  0  0
  -54.7837  -22.1874   37.7881 N   0  0  0  0  0  0  0  0  0  0  0  0
  -56.8815  -22.6127   38.9484 N   0  0  0  0  0  0  0  0  0  0  0  0
  -61.4715  -18.5535   38.1592 O   0  0  0  0  0  0  0  0  0  0  0  0
  -57.3002  -20.8585   37.4101 S   0  0  0  0  0  0  0  0  0  0  0  0
  1 14  2  0
  1 16  1  0
 21  1  1  0
  2  6  2  0
  2 10  1  0
 18  2  1  0
  3  4  1  0
 19  3  1  0
  3 22  2  0
  4  5  2  0
  4 18  1  0
  5  6  1  0
  6  7  1  0
  7  8  2  0
  9  8  1  0
 10  9  2  0
 12 11  1  0
 11 19  1  0
 13 12  2  0
 12 17  1  0
 14 13  1  0
 14 23  1  0
 15 20  1  0
 15 21  2  0
 15 23  1  0
 16 17  2  0
M  END
$$$$
