
     RDKit          3D

 23 26  0  0  0  0  0  0  0  0999 V2000
  -52.0868  -16.0660   27.4088 C   0  0  0  0  0  0  0  0  0  0  0  0
  -60.6290  -16.0412   26.9450 C   0  0  0  0  0  0  0  0  0  0  0  0
  -57.7394  -15.2573   29.0117 C   0  0  0  0  0  0  0  0  0  0  0  0
  -59.0095  -15.7122   28.4349 C   0  0  0  0  0  0  0  0  0  0  0  0
  -60.0258  -16.4034   29.0385 C   0  0  0  0  0  0  0  0  0  0  0  0
  -61.0371  -16.6146   28.1270 C   0  0  0  0  0  0  0  0  0  0  0  0
  -62.2792  -17.2301   28.1455 C   0  0  0  0  0  0  0  0  0  0  0  0
  -63.0967  -17.2879   27.0576 C   0  0  0  0  0  0  0  0  0  0  0  0
  -62.6660  -16.7048   25.8798 C   0  0  0  0  0  0  0  0  0  0  0  0
  -61.4372  -16.0856   25.8288 C   0  0  0  0  0  0  0  0  0  0  0  0
  -55.5933  -13.9099   28.8071 C   0  0  0  0  0  0  0  0  0  0  0  0
  -54.4138  -14.6403   28.3250 C   0  0  0  0  0  0  0  0  0  0  0  0
  -54.1649  -15.9696   28.7098 C   0  0  0  0  0  0  0  0  0  0  0  0
  -53.0600  -16.6133   28.2613 C   0  0  0  0  0  0  0  0  0  0  0  0
  -50.8674  -17.9647   27.4115 C   0  0  0  0  0  0  0  0  0  0  0  0
  -52.3464  -14.7460   27.0341 C   0  0  0  0  0  0  0  0  0  0  0  0
  -53.4597  -14.1090   27.4912 C   0  0  0  0  0  0  0  0  0  0  0  0
  -59.4045  -15.5098   27.1733 N   0  0  0  0  0  0  0  0  0  0  0  0
  -56.8590  -14.4003   28.3179 N   0  0  0  0  0  0  0  0  0  0  0  0
  -49.9472  -19.0742   27.2824 N   0  0  0  0  0  0  0  0  0  0  0  0
  -51.1141  -16.8764   27.1190 N   0  0  0  0  0  0  0  0  0  0  0  0
  -57.4142  -15.6373   30.1594 O   0  0  0  0  0  0  0  0  0  0  0  0
  -52.3954  -18.3074   28.5360 S   0  0  0  0  0  0  0  0  0  0  0  0
  1 14  2  0
  1 16  1  0
 21  1  1  0
  2  6  2  0
  2 10  1  0
 18  2  1  0
  3  4  1  0
 19  3  1  0
  3 22  2  0
  4  5  2  0
  4 18  1  0
  5  6  1  0
  6  7  1  0
  7  8  2  0
  9  8  1  0
 10  9  2  0
 12 11  1  0
 11 19  1  6
 13 12  2  0
 12 17  1  0
 14 13  1  0
 14 23  1  0
 15 20  1  0
 15 21  2  0
 15 23  1  0
 16 17  2  0
M  END
$$$$
