
     RDKit          3D

 23 26  0  0  0  0  0  0  0  0999 V2000
  -56.1260  -10.1867    7.7446 C   0  0  0  0  0  0  0  0  0  0  0  0
  -57.6938  -17.2171    2.9537 C   0  0  0  0  0  0  0  0  0  0  0  0
  -57.0747  -13.9922    4.5488 C   0  0  0  0  0  0  0  0  0  0  0  0
  -57.2728  -15.4033    4.1556 C   0  0  0  0  0  0  0  0  0  0  0  0
  -57.1628  -16.5139    4.9606 C   0  0  0  0  0  0  0  0  0  0  0  0
  -57.4223  -17.6640    4.2292 C   0  0  0  0  0  0  0  0  0  0  0  0
  -57.4531  -19.0143    4.5185 C   0  0  0  0  0  0  0  0  0  0  0  0
  -57.7553  -19.9191    3.5327 C   0  0  0  0  0  0  0  0  0  0  0  0
  -58.0235  -19.4515    2.2644 C   0  0  0  0  0  0  0  0  0  0  0  0
  -58.0018  -18.1123    1.9406 C   0  0  0  0  0  0  0  0  0  0  0  0
  -56.6535  -11.6473    3.7043 C   0  0  0  0  0  0  0  0  0  0  0  0
  -56.4595  -11.1546    5.0743 C   0  0  0  0  0  0  0  0  0  0  0  0
  -57.5318  -10.6900    5.8118 C   0  0  0  0  0  0  0  0  0  0  0  0
  -57.3384  -10.2226    7.1156 C   0  0  0  0  0  0  0  0  0  0  0  0
  -57.1848   -9.3132    9.5538 C   0  0  0  0  0  0  0  0  0  0  0  0
  -55.0350  -10.6621    6.9871 C   0  0  0  0  0  0  0  0  0  0  0  0
  -55.2423  -11.1157    5.7134 C   0  0  0  0  0  0  0  0  0  0  0  0
  -57.5981  -15.8596    2.9343 N   0  0  0  0  0  0  0  0  0  0  0  0
  -57.3139  -12.9307    3.6542 N   0  0  0  0  0  0  0  0  0  0  0  0
  -57.2575   -8.7937   10.8758 N   0  0  0  0  0  0  0  0  0  0  0  0
  -56.0816   -9.7281    8.9596 N   0  0  0  0  0  0  0  0  0  0  0  0
  -56.6852  -13.7286    5.7028 O   0  0  0  0  0  0  0  0  0  0  0  0
  -58.3662   -9.5764    8.3461 S   0  0  0  0  0  0  0  0  0  0  0  0
  1 14  2  0
  1 16  1  0
 21  1  1  0
  2  6  2  0
  2 10  1  0
 18  2  1  0
  3  4  1  0
 19  3  1  0
  3 22  2  0
  4  5  2  0
  4 18  1  0
  5  6  1  0
  6  7  1  0
  7  8  2  0
  9  8  1  0
 10  9  2  0
 12 11  1  0
 11 19  1  0
 13 12  2  0
 12 17  1  0
 14 13  1  0
 14 23  1  0
 15 20  1  0
 15 21  2  0
 15 23  1  0
 16 17  2  0
M  END
$$$$
