
     RDKit          3D

 23 26  0  0  0  0  0  0  0  0999 V2000
  -64.0048  -24.3593   34.6962 C   0  0  0  0  0  0  0  0  0  0  0  0
  -67.5310  -17.0124   32.5506 C   0  0  0  0  0  0  0  0  0  0  0  0
  -67.8840  -20.6036   33.1043 C   0  0  0  0  0  0  0  0  0  0  0  0
  -67.8052  -19.2107   32.6158 C   0  0  0  0  0  0  0  0  0  0  0  0
  -68.0197  -18.7669   31.3311 C   0  0  0  0  0  0  0  0  0  0  0  0
  -67.8535  -17.3910   31.2648 C   0  0  0  0  0  0  0  0  0  0  0  0
  -67.9432  -16.4478   30.2598 C   0  0  0  0  0  0  0  0  0  0  0  0
  -67.7106  -15.1251   30.5393 C   0  0  0  0  0  0  0  0  0  0  0  0
  -67.3896  -14.7678   31.8310 C   0  0  0  0  0  0  0  0  0  0  0  0
  -67.2915  -15.6817   32.8576 C   0  0  0  0  0  0  0  0  0  0  0  0
  -67.7774  -22.2606   35.0101 C   0  0  0  0  0  0  0  0  0  0  0  0
  -66.5024  -22.9798   34.8910 C   0  0  0  0  0  0  0  0  0  0  0  0
  -65.4937  -22.7782   35.8137 C   0  0  0  0  0  0  0  0  0  0  0  0
  -64.2826  -23.4670   35.6930 C   0  0  0  0  0  0  0  0  0  0  0  0
  -61.9607  -24.6511   35.6418 C   0  0  0  0  0  0  0  0  0  0  0  0
  -65.0380  -24.5612   33.7572 C   0  0  0  0  0  0  0  0  0  0  0  0
  -66.2161  -23.8791   33.8905 C   0  0  0  0  0  0  0  0  0  0  0  0
  -67.5082  -18.1196   33.3417 N   0  0  0  0  0  0  0  0  0  0  0  0
  -67.7243  -20.9236   34.4668 N   0  0  0  0  0  0  0  0  0  0  0  0
  -60.6591  -25.2150   35.7448 N   0  0  0  0  0  0  0  0  0  0  0  0
  -62.8390  -24.9332   34.6977 N   0  0  0  0  0  0  0  0  0  0  0  0
  -68.0975  -21.5245   32.2924 O   0  0  0  0  0  0  0  0  0  0  0  0
  -62.8081  -23.5115   36.5941 S   0  0  0  0  0  0  0  0  0  0  0  0
  1 14  2  0
  1 16  1  0
 21  1  1  0
  2  6  2  0
  2 10  1  0
 18  2  1  0
  3  4  1  0
 19  3  1  0
  3 22  2  0
  4  5  2  0
  4 18  1  0
  5  6  1  0
  6  7  1  0
  7  8  2  0
  9  8  1  0
 10  9  2  0
 12 11  1  0
 11 19  1  0
 13 12  2  0
 12 17  1  0
 14 13  1  0
 14 23  1  0
 15 20  1  0
 15 21  2  0
 15 23  1  0
 16 17  2  0
M  END
$$$$
