
     RDKit          3D

 23 26  0  0  0  0  0  0  0  0999 V2000
  -50.2579   -2.0281   32.9701 C   0  0  0  0  0  0  0  0  0  0  0  0
  -55.5109    2.8968   27.9796 C   0  0  0  0  0  0  0  0  0  0  0  0
  -53.6078    1.7305   30.8524 C   0  0  0  0  0  0  0  0  0  0  0  0
  -54.2003    2.4551   29.7227 C   0  0  0  0  0  0  0  0  0  0  0  0
  -53.8787    3.6939   29.2360 C   0  0  0  0  0  0  0  0  0  0  0  0
  -54.6830    3.9814   28.1549 C   0  0  0  0  0  0  0  0  0  0  0  0
  -54.8234    5.0437   27.2753 C   0  0  0  0  0  0  0  0  0  0  0  0
  -55.7336    5.0547   26.2620 C   0  0  0  0  0  0  0  0  0  0  0  0
  -56.5556    3.9537   26.1045 C   0  0  0  0  0  0  0  0  0  0  0  0
  -56.4409    2.8824   26.9618 C   0  0  0  0  0  0  0  0  0  0  0  0
  -52.2816    1.8192   33.0196 C   0  0  0  0  0  0  0  0  0  0  0  0
  -51.6027    0.5171   32.9931 C   0  0  0  0  0  0  0  0  0  0  0  0
  -52.0802   -0.5757   33.7381 C   0  0  0  0  0  0  0  0  0  0  0  0
  -51.4241   -1.7609   33.7062 C   0  0  0  0  0  0  0  0  0  0  0  0
  -50.1618   -4.1614   33.6993 C   0  0  0  0  0  0  0  0  0  0  0  0
  -49.7948   -0.9349   32.2348 C   0  0  0  0  0  0  0  0  0  0  0  0
  -50.4621    0.2514   32.2747 C   0  0  0  0  0  0  0  0  0  0  0  0
  -55.1880    2.0018   28.9433 N   0  0  0  0  0  0  0  0  0  0  0  0
  -52.6784    2.3289   31.7295 N   0  0  0  0  0  0  0  0  0  0  0  0
  -49.9186   -5.5454   34.0457 N   0  0  0  0  0  0  0  0  0  0  0  0
  -49.8092   -3.2399   33.1017 N   0  0  0  0  0  0  0  0  0  0  0  0
  -53.9300    0.5378   31.0550 O   0  0  0  0  0  0  0  0  0  0  0  0
  -51.7200   -3.3824   34.5250 S   0  0  0  0  0  0  0  0  0  0  0  0
  1 14  2  0
  1 16  1  0
 21  1  1  0
  2  6  2  0
  2 10  1  0
 18  2  1  0
  3  4  1  0
 19  3  1  0
  3 22  2  0
  4  5  2  0
  4 18  1  0
  5  6  1  0
  6  7  1  0
  7  8  2  0
  9  8  1  0
 10  9  2  0
 12 11  1  0
 11 19  1  6
 13 12  2  0
 12 17  1  0
 14 13  1  0
 14 23  1  0
 15 20  1  0
 15 21  2  0
 15 23  1  0
 16 17  2  0
M  END
$$$$
