
     RDKit          3D

 23 26  0  0  0  0  0  0  0  0999 V2000
  -37.1123   -9.2613   10.9287 C   0  0  0  0  0  0  0  0  0  0  0  0
  -40.9416   -1.3227   10.3844 C   0  0  0  0  0  0  0  0  0  0  0  0
  -38.2855   -3.8079   10.4565 C   0  0  0  0  0  0  0  0  0  0  0  0
  -39.2190   -2.6990   10.6839 C   0  0  0  0  0  0  0  0  0  0  0  0
  -39.2016   -1.7539   11.6746 C   0  0  0  0  0  0  0  0  0  0  0  0
  -40.2636   -0.8935   11.5019 C   0  0  0  0  0  0  0  0  0  0  0  0
  -40.7545    0.2239   12.1595 C   0  0  0  0  0  0  0  0  0  0  0  0
  -41.8626    0.9013   11.7489 C   0  0  0  0  0  0  0  0  0  0  0  0
  -42.5283    0.4519   10.6230 C   0  0  0  0  0  0  0  0  0  0  0  0
  -42.0660   -0.6552    9.9475 C   0  0  0  0  0  0  0  0  0  0  0  0
  -37.2289   -5.4543    8.8329 C   0  0  0  0  0  0  0  0  0  0  0  0
  -37.1974   -6.7367    9.5479 C   0  0  0  0  0  0  0  0  0  0  0  0
  -36.1920   -7.0302   10.4862 C   0  0  0  0  0  0  0  0  0  0  0  0
  -36.1797   -8.2283   11.1194 C   0  0  0  0  0  0  0  0  0  0  0  0
  -36.0839  -10.6058   12.4209 C   0  0  0  0  0  0  0  0  0  0  0  0
  -38.1051   -8.9567    9.9949 C   0  0  0  0  0  0  0  0  0  0  0  0
  -38.1074   -7.7497    9.3645 C   0  0  0  0  0  0  0  0  0  0  0  0
  -40.2805   -2.4110    9.9231 N   0  0  0  0  0  0  0  0  0  0  0  0
  -38.2669   -4.5445    9.2532 N   0  0  0  0  0  0  0  0  0  0  0  0
  -35.5802  -11.6138   13.3290 N   0  0  0  0  0  0  0  0  0  0  0  0
  -36.8907  -10.3202   11.6474 N   0  0  0  0  0  0  0  0  0  0  0  0
  -37.4723   -4.1213   11.3553 O   0  0  0  0  0  0  0  0  0  0  0  0
  -35.0587   -8.9739   12.3743 S   0  0  0  0  0  0  0  0  0  0  0  0
  1 14  2  0
  1 16  1  0
 21  1  1  0
  2  6  2  0
  2 10  1  0
 18  2  1  0
  3  4  1  0
 19  3  1  0
  3 22  2  0
  4  5  2  0
  4 18  1  0
  5  6  1  0
  6  7  1  0
  7  8  2  0
  9  8  1  0
 10  9  2  0
 12 11  1  0
 11 19  1  6
 13 12  2  0
 12 17  1  0
 14 13  1  0
 14 23  1  0
 15 20  1  0
 15 21  2  0
 15 23  1  0
 16 17  2  0
M  END
$$$$
