
     RDKit          3D

 23 26  0  0  0  0  0  0  0  0999 V2000
  -42.7039  -23.5108   26.2167 C   0  0  0  0  0  0  0  0  0  0  0  0
  -41.7552  -31.2097   29.9048 C   0  0  0  0  0  0  0  0  0  0  0  0
  -43.6213  -29.0811   27.6196 C   0  0  0  0  0  0  0  0  0  0  0  0
  -42.8363  -30.1219   28.2926 C   0  0  0  0  0  0  0  0  0  0  0  0
  -42.3065  -31.2700   27.7670 C   0  0  0  0  0  0  0  0  0  0  0  0
  -41.6332  -31.9548   28.7548 C   0  0  0  0  0  0  0  0  0  0  0  0
  -40.9148  -33.1381   28.8309 C   0  0  0  0  0  0  0  0  0  0  0  0
  -40.3353  -33.5834   29.9803 C   0  0  0  0  0  0  0  0  0  0  0  0
  -40.4709  -32.8182   31.1244 C   0  0  0  0  0  0  0  0  0  0  0  0
  -41.1784  -31.6377   31.0816 C   0  0  0  0  0  0  0  0  0  0  0  0
  -44.9456  -26.9138   27.7312 C   0  0  0  0  0  0  0  0  0  0  0  0
  -44.1906  -25.7585   27.2289 C   0  0  0  0  0  0  0  0  0  0  0  0
  -44.7452  -24.8703   26.2904 C   0  0  0  0  0  0  0  0  0  0  0  0
  -44.0191  -23.8214   25.8331 C   0  0  0  0  0  0  0  0  0  0  0  0
  -42.6261  -21.7049   24.8659 C   0  0  0  0  0  0  0  0  0  0  0  0
  -42.1656  -24.4004   27.1490 C   0  0  0  0  0  0  0  0  0  0  0  0
  -42.9043  -25.4510   27.6012 C   0  0  0  0  0  0  0  0  0  0  0  0
  -42.4860  -30.1158   29.5833 N   0  0  0  0  0  0  0  0  0  0  0  0
  -44.1434  -27.9654   28.3078 N   0  0  0  0  0  0  0  0  0  0  0  0
  -42.3718  -20.5210   24.0734 N   0  0  0  0  0  0  0  0  0  0  0  0
  -42.2139  -22.4561   25.6382 N   0  0  0  0  0  0  0  0  0  0  0  0
  -43.8431  -29.1759   26.3910 O   0  0  0  0  0  0  0  0  0  0  0  0
  -44.3772  -22.4758   24.6298 S   0  0  0  0  0  0  0  0  0  0  0  0
  1 14  2  0
  1 16  1  0
 21  1  1  0
  2  6  2  0
  2 10  1  0
 18  2  1  0
  3  4  1  0
 19  3  1  0
  3 22  2  0
  4  5  2  0
  4 18  1  0
  5  6  1  0
  6  7  1  0
  7  8  2  0
  9  8  1  0
 10  9  2  0
 12 11  1  0
 11 19  1  6
 13 12  2  0
 12 17  1  0
 14 13  1  0
 14 23  1  0
 15 20  1  0
 15 21  2  0
 15 23  1  0
 16 17  2  0
M  END
$$$$
