
     RDKit          3D

 23 26  0  0  0  0  0  0  0  0999 V2000
  -42.6807   -0.5833    9.7895 C   0  0  0  0  0  0  0  0  0  0  0  0
  -35.6813   -5.5089   10.4476 C   0  0  0  0  0  0  0  0  0  0  0  0
  -39.0520   -4.5637   11.4831 C   0  0  0  0  0  0  0  0  0  0  0  0
  -37.6052   -4.7841   11.2751 C   0  0  0  0  0  0  0  0  0  0  0  0
  -36.5694   -4.2513   12.0077 C   0  0  0  0  0  0  0  0  0  0  0  0
  -35.3523   -4.6913   11.5077 C   0  0  0  0  0  0  0  0  0  0  0  0
  -34.0292   -4.4804   11.8438 C   0  0  0  0  0  0  0  0  0  0  0  0
  -33.0339   -5.0868   11.1204 C   0  0  0  0  0  0  0  0  0  0  0  0
  -33.3843   -5.9002   10.0645 C   0  0  0  0  0  0  0  0  0  0  0  0
  -34.6931   -6.1327    9.7015 C   0  0  0  0  0  0  0  0  0  0  0  0
  -40.9309   -3.3306   12.6400 C   0  0  0  0  0  0  0  0  0  0  0  0
  -41.5354   -2.4088   11.6696 C   0  0  0  0  0  0  0  0  0  0  0  0
  -40.9888   -1.1580   11.4547 C   0  0  0  0  0  0  0  0  0  0  0  0
  -41.5706   -0.2862   10.5287 C   0  0  0  0  0  0  0  0  0  0  0  0
  -42.5045    1.4774    8.8515 C   0  0  0  0  0  0  0  0  0  0  0  0
  -43.2344   -1.8614   10.0129 C   0  0  0  0  0  0  0  0  0  0  0  0
  -42.6524   -2.7012   10.9223 C   0  0  0  0  0  0  0  0  0  0  0  0
  -37.0364   -5.5489   10.3279 N   0  0  0  0  0  0  0  0  0  0  0  0
  -39.5342   -3.5893   12.3787 N   0  0  0  0  0  0  0  0  0  0  0  0
  -42.8952    2.5337    7.9829 N   0  0  0  0  0  0  0  0  0  0  0  0
  -43.1222    0.3162    8.9621 N   0  0  0  0  0  0  0  0  0  0  0  0
  -39.8726   -5.2567   10.8511 O   0  0  0  0  0  0  0  0  0  0  0  0
  -41.2228    1.3126    9.9712 S   0  0  0  0  0  0  0  0  0  0  0  0
  1 14  2  0
  1 16  1  0
 21  1  1  0
  2  6  2  0
  2 10  1  0
 18  2  1  0
  3  4  1  0
 19  3  1  0
  3 22  2  0
  4  5  2  0
  4 18  1  0
  5  6  1  0
  6  7  1  0
  7  8  2  0
  9  8  1  0
 10  9  2  0
 12 11  1  0
 11 19  1  0
 13 12  2  0
 12 17  1  0
 14 13  1  0
 14 23  1  0
 15 20  1  0
 15 21  2  0
 15 23  1  0
 16 17  2  0
M  END
$$$$
