
     RDKit          3D

 23 26  0  0  0  0  0  0  0  0999 V2000
  -55.1157  -13.3907   23.6359 C   0  0  0  0  0  0  0  0  0  0  0  0
  -63.1568  -14.8842   26.4621 C   0  0  0  0  0  0  0  0  0  0  0  0
  -60.1022  -16.2543   25.0379 C   0  0  0  0  0  0  0  0  0  0  0  0
  -61.2941  -15.9223   25.8264 C   0  0  0  0  0  0  0  0  0  0  0  0
  -61.7470  -16.5033   26.9807 C   0  0  0  0  0  0  0  0  0  0  0  0
  -62.9012  -15.8701   27.3869 C   0  0  0  0  0  0  0  0  0  0  0  0
  -63.7876  -16.0020   28.4446 C   0  0  0  0  0  0  0  0  0  0  0  0
  -64.8826  -15.2070   28.6006 C   0  0  0  0  0  0  0  0  0  0  0  0
  -65.1200  -14.2225   27.6588 C   0  0  0  0  0  0  0  0  0  0  0  0
  -64.2582  -14.0658   26.5964 C   0  0  0  0  0  0  0  0  0  0  0  0
  -58.6399  -15.8546   22.9971 C   0  0  0  0  0  0  0  0  0  0  0  0
  -57.4522  -15.0209   23.2236 C   0  0  0  0  0  0  0  0  0  0  0  0
  -57.4193  -13.6690   22.8381 C   0  0  0  0  0  0  0  0  0  0  0  0
  -56.3037  -12.9283   23.0459 C   0  0  0  0  0  0  0  0  0  0  0  0
  -54.1060  -11.3841   23.4215 C   0  0  0  0  0  0  0  0  0  0  0  0
  -55.1621  -14.7343   24.0141 C   0  0  0  0  0  0  0  0  0  0  0  0
  -56.2884  -15.4690   23.8002 C   0  0  0  0  0  0  0  0  0  0  0  0
  -62.1666  -14.9499   25.5405 N   0  0  0  0  0  0  0  0  0  0  0  0
  -59.7637  -15.5648   23.8543 N   0  0  0  0  0  0  0  0  0  0  0  0
  -53.2847  -10.1933   23.3762 N   0  0  0  0  0  0  0  0  0  0  0  0
  -54.1796  -12.4947   23.7249 N   0  0  0  0  0  0  0  0  0  0  0  0
  -59.3516  -17.1812   25.4186 O   0  0  0  0  0  0  0  0  0  0  0  0
  -55.8755  -11.1750   22.6858 S   0  0  0  0  0  0  0  0  0  0  0  0
  1 14  2  0
  1 16  1  0
 21  1  1  0
  2  6  2  0
  2 10  1  0
 18  2  1  0
  3  4  1  0
 19  3  1  0
  3 22  2  0
  4  5  2  0
  4 18  1  0
  5  6  1  0
  6  7  1  0
  7  8  2  0
  9  8  1  0
 10  9  2  0
 12 11  1  0
 11 19  1  6
 13 12  2  0
 12 17  1  0
 14 13  1  0
 14 23  1  0
 15 20  1  0
 15 21  2  0
 15 23  1  0
 16 17  2  0
M  END
$$$$
