
     RDKit          3D

 40 45  0  0  0  0  0  0  0  0999 V2000
   -3.9275  -15.0941   26.7944 C   0  0  0  0  0  0  0  0  0  0  0  0
   -2.6174  -15.6935   26.3283 C   0  0  0  0  0  0  0  0  0  0  0  0
   -1.6382  -14.5943   26.1485 C   0  0  0  0  0  0  0  0  0  0  0  0
   -1.9807  -13.5021   25.5944 O   0  0  0  0  0  0  0  0  0  0  0  0
   -0.2774  -14.7229   26.5896 N   0  0  0  0  0  0  0  0  0  0  0  0
    0.8561  -13.8186   26.6529 C   0  0  0  0  0  0  0  0  0  0  0  0
    1.5513  -14.7596   27.5836 C   0  0  2  0  0  0  0  0  0  0  0  0
    0.5481  -15.7550   27.1380 C   0  0  0  0  0  0  0  0  0  0  0  0
    1.5530  -14.3537   28.9574 N   0  0  0  0  0  0  0  0  0  0  0  0
    2.7496  -14.3056   29.7050 C   0  0  0  0  0  0  0  0  0  0  0  0
    3.7963  -14.7129   29.1481 O   0  0  0  0  0  0  0  0  0  0  0  0
    2.8070  -13.8084   31.0764 C   0  0  0  0  0  0  0  0  0  0  0  0
    3.8078  -14.3937   31.9220 N   0  0  0  0  0  0  0  0  0  0  0  0
    3.6204  -15.4456   32.7885 C   0  0  0  0  0  0  0  0  0  0  0  0
    2.3119  -16.1044   32.9549 C   0  0  2  0  0  0  0  0  0  0  0  0
    1.0836  -15.3234   33.3281 C   0  0  0  0  0  0  0  0  0  0  0  0
    1.7566  -16.1424   34.3773 C   0  0  0  0  0  0  0  0  0  0  0  0
    4.7923  -15.7507   33.4335 C   0  0  0  0  0  0  0  0  0  0  0  0
    5.0762  -16.7731   34.4244 C   0  0  0  0  0  0  0  0  0  0  0  0
    4.9157  -17.9713   34.1035 O   0  0  0  0  0  0  0  0  0  0  0  0
    5.5217  -16.4568   35.7168 N   0  0  0  0  0  0  0  0  0  0  0  0
    6.0722  -17.4587   36.6276 C   0  0  0  0  0  0  0  0  0  0  0  0
    6.4297  -16.8572   37.9592 C   0  0  0  0  0  0  0  0  0  0  0  0
    5.3550  -15.9382   38.4565 C   0  0  0  0  0  0  0  0  0  0  0  0
    4.8820  -15.9701   39.7385 C   0  0  0  0  0  0  0  0  0  0  0  0
    5.3967  -16.8807   40.6426 O   0  0  0  0  0  0  0  0  0  0  0  0
    4.7188  -18.0814   40.9474 C   0  0  0  0  0  0  0  0  0  0  0  0
    3.8934  -15.1007   40.1379 C   0  0  0  0  0  0  0  0  0  0  0  0
    3.3733  -14.1812   39.2217 C   0  0  0  0  0  0  0  0  0  0  0  0
    3.8682  -14.1733   37.9413 C   0  0  0  0  0  0  0  0  0  0  0  0
    4.8408  -15.0315   37.5550 C   0  0  0  0  0  0  0  0  0  0  0  0
    5.4398  -15.0899   36.1832 C   0  0  0  0  0  0  0  0  0  0  0  0
    5.7090  -14.8419   32.9272 C   0  0  0  0  0  0  0  0  0  0  0  0
    7.0448  -14.7188   33.2459 C   0  0  0  0  0  0  0  0  0  0  0  0
    7.8081  -13.7370   32.6244 C   0  0  0  0  0  0  0  0  0  0  0  0
    9.5029  -13.6071   33.0537 Cl  0  0  0  0  0  0  0  0  0  0  0  0
    7.1978  -12.9265   31.7149 C   0  0  0  0  0  0  0  0  0  0  0  0
    5.8567  -13.0266   31.3739 C   0  0  0  0  0  0  0  0  0  0  0  0
    5.2471  -12.1325   30.3853 C   0  0  0  0  0  0  0  0  0  0  0  0
    5.0920  -13.9991   31.9871 C   0  0  0  0  0  0  0  0  0  0  0  0
  1  2  1  0
  2  3  1  0
  3  4  2  0
  3  5  1  0
  5  6  1  0
  5  8  1  0
  6  7  1  0
  7  8  1  0
  7  9  1  1
  9 10  1  0
 10 11  2  0
 10 12  1  0
 12 13  1  0
 13 14  1  0
 13 40  1  0
 15 14  1  1
 14 18  2  0
 15 16  1  0
 15 17  1  0
 16 17  1  0
 18 19  1  0
 18 33  1  0
 19 20  2  0
 19 21  1  0
 21 22  1  0
 21 32  1  0
 22 23  1  0
 23 24  1  0
 24 25  2  0
 24 31  1  0
 25 26  1  0
 25 28  1  0
 26 27  1  0
 28 29  2  0
 29 30  1  0
 30 31  2  0
 31 32  1  0
 33 34  2  0
 33 40  1  0
 34 35  1  0
 35 36  1  0
 35 37  2  0
 37 38  1  0
 38 39  1  0
 38 40  2  0
M  END
$$$$
