
     RDKit          3D

 40 45  0  0  0  0  0  0  0  0999 V2000
    3.1414  -14.7419   37.9961 C   0  0  0  0  0  0  0  0  0  0  0  0
    2.9842  -15.5939   36.7776 C   0  0  0  0  0  0  0  0  0  0  0  0
    4.1625  -16.4359   36.5438 C   0  0  0  0  0  0  0  0  0  0  0  0
    5.2859  -15.8904   36.8644 O   0  0  0  0  0  0  0  0  0  0  0  0
    4.1257  -17.7331   36.0165 N   0  0  0  0  0  0  0  0  0  0  0  0
    3.2399  -18.6887   35.4074 C   0  0  0  0  0  0  0  0  0  0  0  0
    4.4377  -19.3055   34.6462 C   0  0  2  0  0  0  0  0  0  0  0  0
    5.1739  -18.7789   35.8711 C   0  0  0  0  0  0  0  0  0  0  0  0
    4.7056  -18.5308   33.4780 N   0  0  0  0  0  0  0  0  0  0  0  0
    4.6909  -19.0025   32.1432 C   0  0  0  0  0  0  0  0  0  0  0  0
    4.5553  -20.2124   31.9149 O   0  0  0  0  0  0  0  0  0  0  0  0
    4.8422  -17.9916   31.0716 C   0  0  0  0  0  0  0  0  0  0  0  0
    6.1623  -17.7819   30.5963 N   0  0  0  0  0  0  0  0  0  0  0  0
    6.7878  -18.6296   29.7001 C   0  0  0  0  0  0  0  0  0  0  0  0
    6.1610  -19.8368   29.1330 C   0  0  2  0  0  0  0  0  0  0  0  0
    5.8140  -21.0415   29.8730 C   0  0  0  0  0  0  0  0  0  0  0  0
    6.9677  -21.0750   28.8638 C   0  0  0  0  0  0  0  0  0  0  0  0
    8.0424  -18.1600   29.4609 C   0  0  0  0  0  0  0  0  0  0  0  0
    9.1164  -18.6501   28.6106 C   0  0  0  0  0  0  0  0  0  0  0  0
    9.0135  -18.5776   27.3466 O   0  0  0  0  0  0  0  0  0  0  0  0
   10.3168  -19.2281   29.0758 N   0  0  0  0  0  0  0  0  0  0  0  0
   10.7478  -19.1730   30.4781 C   0  0  0  0  0  0  0  0  0  0  0  0
   12.0744  -18.4626   30.5835 C   0  0  0  0  0  0  0  0  0  0  0  0
   13.0118  -18.7926   29.5172 C   0  0  0  0  0  0  0  0  0  0  0  0
   14.3518  -18.4052   29.6542 C   0  0  0  0  0  0  0  0  0  0  0  0
   14.7457  -17.7228   30.7911 O   0  0  0  0  0  0  0  0  0  0  0  0
   14.3236  -16.3973   30.9992 C   0  0  0  0  0  0  0  0  0  0  0  0
   15.2658  -18.6982   28.6727 C   0  0  0  0  0  0  0  0  0  0  0  0
   14.8736  -19.3705   27.5540 C   0  0  0  0  0  0  0  0  0  0  0  0
   13.5423  -19.7566   27.4152 C   0  0  0  0  0  0  0  0  0  0  0  0
   12.6238  -19.4655   28.3953 C   0  0  0  0  0  0  0  0  0  0  0  0
   11.2220  -19.8953   28.1850 C   0  0  0  0  0  0  0  0  0  0  0  0
    8.1877  -16.9952   30.2285 C   0  0  0  0  0  0  0  0  0  0  0  0
    9.2655  -16.1278   30.3549 C   0  0  0  0  0  0  0  0  0  0  0  0
    9.1434  -15.0492   31.1852 C   0  0  0  0  0  0  0  0  0  0  0  0
   10.4871  -13.9572   31.3452 Cl  0  0  0  0  0  0  0  0  0  0  0  0
    7.9679  -14.8489   31.8702 C   0  0  0  0  0  0  0  0  0  0  0  0
    6.8776  -15.6960   31.7650 C   0  0  0  0  0  0  0  0  0  0  0  0
    5.6377  -15.4597   32.5309 C   0  0  0  0  0  0  0  0  0  0  0  0
    6.9965  -16.7939   30.9212 C   0  0  0  0  0  0  0  0  0  0  0  0
  1  2  1  6
  2  3  1  6
  3  4  2  0
  3  5  1  0
  6  5  1  1
  8  5  1  1
  6  7  1  0
  7  8  1  0
  7  9  1  6
  9 10  1  0
 10 11  2  0
 10 12  1  0
 12 13  1  6
 13 14  1  0
 13 40  1  0
 15 14  1  1
 14 18  2  0
 16 15  1  1
 15 17  1  0
 17 16  1  6
 18 19  1  0
 18 33  1  0
 19 20  2  0
 19 21  1  0
 22 21  1  1
 32 21  1  1
 22 23  1  0
 23 24  1  6
 24 25  2  0
 24 31  1  0
 25 26  1  0
 25 28  1  0
 27 26  1  6
 28 29  2  0
 29 30  1  0
 30 31  2  0
 31 32  1  0
 33 34  2  0
 33 40  1  0
 34 35  1  0
 35 36  1  0
 35 37  2  0
 37 38  1  0
 39 38  1  6
 38 40  2  0
M  END
$$$$
