
     RDKit          3D

 40 45  0  0  0  0  0  0  0  0999 V2000
   15.7057  -17.8087   16.5333 C   0  0  0  0  0  0  0  0  0  0  0  0
   16.0621  -17.4752   17.9465 C   0  0  0  0  0  0  0  0  0  0  0  0
   16.8898  -18.5182   18.5621 C   0  0  0  0  0  0  0  0  0  0  0  0
   18.1532  -18.4102   18.3287 O   0  0  0  0  0  0  0  0  0  0  0  0
   16.3981  -19.5687   19.3475 N   0  0  0  0  0  0  0  0  0  0  0  0
   16.5209  -20.9864   19.5568 C   0  0  0  0  0  0  0  0  0  0  0  0
   16.1310  -20.7954   21.0420 C   0  0  2  0  0  0  0  0  0  0  0  0
   15.3912  -19.6068   20.4422 C   0  0  0  0  0  0  0  0  0  0  0  0
   17.2820  -20.3982   21.7862 N   0  0  0  0  0  0  0  0  0  0  0  0
   17.6670  -20.8949   23.0548 C   0  0  0  0  0  0  0  0  0  0  0  0
   17.0145  -21.8020   23.5893 O   0  0  0  0  0  0  0  0  0  0  0  0
   18.8604  -20.2823   23.6824 C   0  0  0  0  0  0  0  0  0  0  0  0
   18.7336  -19.9345   25.0518 N   0  0  0  0  0  0  0  0  0  0  0  0
   19.0629  -20.7934   26.0847 C   0  0  0  0  0  0  0  0  0  0  0  0
   19.5856  -22.1571   25.8872 C   0  0  2  0  0  0  0  0  0  0  0  0
   20.8047  -22.6931   26.4752 C   0  0  0  0  0  0  0  0  0  0  0  0
   20.7450  -22.4169   24.9683 C   0  0  0  0  0  0  0  0  0  0  0  0
   18.8130  -20.1675   27.2668 C   0  0  0  0  0  0  0  0  0  0  0  0
   18.9775  -20.5980   28.6468 C   0  0  0  0  0  0  0  0  0  0  0  0
   19.6514  -19.8920   29.4597 O   0  0  0  0  0  0  0  0  0  0  0  0
   18.4380  -21.7813   29.1948 N   0  0  0  0  0  0  0  0  0  0  0  0
   17.7335  -22.7917   28.3961 C   0  0  0  0  0  0  0  0  0  0  0  0
   16.3206  -22.9549   28.8988 C   0  0  0  0  0  0  0  0  0  0  0  0
   16.1985  -22.9196   30.3508 C   0  0  0  0  0  0  0  0  0  0  0  0
   14.9898  -23.3218   30.9353 C   0  0  0  0  0  0  0  0  0  0  0  0
   13.9508  -23.7379   30.1224 O   0  0  0  0  0  0  0  0  0  0  0  0
   12.8362  -22.9039   29.9209 C   0  0  0  0  0  0  0  0  0  0  0  0
   14.8354  -23.3042   32.2993 C   0  0  0  0  0  0  0  0  0  0  0  0
   15.8613  -22.8932   33.0968 C   0  0  0  0  0  0  0  0  0  0  0  0
   17.0638  -22.4928   32.5184 C   0  0  0  0  0  0  0  0  0  0  0  0
   17.2229  -22.5089   31.1533 C   0  0  0  0  0  0  0  0  0  0  0  0
   18.5221  -22.0633   30.5989 C   0  0  0  0  0  0  0  0  0  0  0  0
   18.3199  -18.8934   26.9496 C   0  0  0  0  0  0  0  0  0  0  0  0
   17.9116  -17.8536   27.7755 C   0  0  0  0  0  0  0  0  0  0  0  0
   17.4644  -16.6977   27.1998 C   0  0  0  0  0  0  0  0  0  0  0  0
   16.9556  -15.3907   28.2277 Cl  0  0  0  0  0  0  0  0  0  0  0  0
   17.4291  -16.5909   25.8292 C   0  0  0  0  0  0  0  0  0  0  0  0
   17.8287  -17.6097   24.9808 C   0  0  0  0  0  0  0  0  0  0  0  0
   17.7587  -17.4662   23.5131 C   0  0  0  0  0  0  0  0  0  0  0  0
   18.2850  -18.7870   25.5615 C   0  0  0  0  0  0  0  0  0  0  0  0
  1  2  1  6
  2  3  1  6
  3  4  2  0
  3  5  1  0
  6  5  1  1
  8  5  1  1
  6  7  1  0
  7  8  1  0
  7  9  1  1
  9 10  1  0
 10 11  2  0
 10 12  1  0
 12 13  1  6
 13 14  1  0
 13 40  1  0
 15 14  1  1
 14 18  2  0
 16 15  1  1
 15 17  1  0
 17 16  1  6
 18 19  1  0
 18 33  1  0
 19 20  2  0
 19 21  1  0
 22 21  1  1
 32 21  1  1
 22 23  1  0
 23 24  1  6
 24 25  2  0
 24 31  1  0
 25 26  1  0
 25 28  1  0
 27 26  1  6
 28 29  2  0
 29 30  1  0
 30 31  2  0
 31 32  1  0
 33 34  2  0
 33 40  1  0
 34 35  1  0
 35 36  1  0
 35 37  2  0
 37 38  1  0
 39 38  1  6
 38 40  2  0
M  END
$$$$
