
     RDKit          3D

 40 45  0  0  0  0  0  0  0  0999 V2000
   15.0630  -21.4623   19.8262 C   0  0  0  0  0  0  0  0  0  0  0  0
   15.4604  -20.7982   21.1054 C   0  0  0  0  0  0  0  0  0  0  0  0
   16.1225  -21.7316   22.0230 C   0  0  0  0  0  0  0  0  0  0  0  0
   15.3577  -22.6563   22.4945 O   0  0  0  0  0  0  0  0  0  0  0  0
   17.4725  -21.6677   22.3914 N   0  0  0  0  0  0  0  0  0  0  0  0
   18.6006  -20.7762   22.4280 C   0  0  0  0  0  0  0  0  0  0  0  0
   19.1614  -21.5447   23.6483 C   0  0  2  0  0  0  0  0  0  0  0  0
   18.3927  -22.6774   22.9806 C   0  0  0  0  0  0  0  0  0  0  0  0
   18.5201  -21.0804   24.8356 N   0  0  0  0  0  0  0  0  0  0  0  0
   19.1601  -20.4945   25.9543 C   0  0  0  0  0  0  0  0  0  0  0  0
   20.2346  -19.8954   25.8102 O   0  0  0  0  0  0  0  0  0  0  0  0
   18.4860  -20.6376   27.2652 C   0  0  0  0  0  0  0  0  0  0  0  0
   17.3778  -19.7813   27.4914 N   0  0  0  0  0  0  0  0  0  0  0  0
   16.0643  -20.2089   27.4233 C   0  0  0  0  0  0  0  0  0  0  0  0
   15.6635  -21.5936   27.1165 C   0  0  2  0  0  0  0  0  0  0  0  0
   15.2027  -22.5789   28.0840 C   0  0  0  0  0  0  0  0  0  0  0  0
   16.5741  -22.7490   27.4199 C   0  0  0  0  0  0  0  0  0  0  0  0
   15.2486  -19.1489   27.6737 C   0  0  0  0  0  0  0  0  0  0  0  0
   13.7996  -19.0320   27.7323 C   0  0  0  0  0  0  0  0  0  0  0  0
   13.1863  -18.2795   26.9130 O   0  0  0  0  0  0  0  0  0  0  0  0
   12.9706  -19.7028   28.6564 N   0  0  0  0  0  0  0  0  0  0  0  0
   13.2321  -21.0668   29.1321 C   0  0  0  0  0  0  0  0  0  0  0  0
   12.0779  -21.9696   28.7734 C   0  0  0  0  0  0  0  0  0  0  0  0
   10.7677  -21.3515   28.9338 C   0  0  0  0  0  0  0  0  0  0  0  0
    9.6281  -22.1661   28.8873 C   0  0  0  0  0  0  0  0  0  0  0  0
    9.7772  -23.5271   28.6903 O   0  0  0  0  0  0  0  0  0  0  0  0
   10.9874  -24.1596   29.0279 C   0  0  0  0  0  0  0  0  0  0  0  0
    8.3763  -21.6225   29.0354 C   0  0  0  0  0  0  0  0  0  0  0  0
    8.2336  -20.2810   29.2290 C   0  0  0  0  0  0  0  0  0  0  0  0
    9.3646  -19.4690   29.2755 C   0  0  0  0  0  0  0  0  0  0  0  0
   10.6199  -20.0089   29.1279 C   0  0  0  0  0  0  0  0  0  0  0  0
   11.7821  -19.0920   29.1783 C   0  0  0  0  0  0  0  0  0  0  0  0
   16.0836  -18.0455   27.9022 C   0  0  0  0  0  0  0  0  0  0  0  0
   15.7711  -16.7253   28.2009 C   0  0  0  0  0  0  0  0  0  0  0  0
   16.7926  -15.8348   28.3772 C   0  0  0  0  0  0  0  0  0  0  0  0
   16.4087  -14.1815   28.7552 Cl  0  0  0  0  0  0  0  0  0  0  0  0
   18.0943  -16.2617   28.2561 C   0  0  0  0  0  0  0  0  0  0  0  0
   18.4365  -17.5701   27.9588 C   0  0  0  0  0  0  0  0  0  0  0  0
   19.8454  -17.9881   27.8176 C   0  0  0  0  0  0  0  0  0  0  0  0
   17.4011  -18.4796   27.7793 C   0  0  0  0  0  0  0  0  0  0  0  0
  1  2  1  6
  2  3  1  6
  3  4  2  0
  3  5  1  0
  6  5  1  1
  8  5  1  1
  6  7  1  0
  7  8  1  0
  7  9  1  1
  9 10  1  0
 10 11  2  0
 10 12  1  0
 12 13  1  6
 13 14  1  0
 13 40  1  0
 15 14  1  1
 14 18  2  0
 16 15  1  1
 15 17  1  0
 17 16  1  6
 18 19  1  0
 18 33  1  0
 19 20  2  0
 19 21  1  0
 22 21  1  1
 32 21  1  1
 22 23  1  0
 23 24  1  6
 24 25  2  0
 24 31  1  0
 25 26  1  0
 25 28  1  0
 27 26  1  6
 28 29  2  0
 29 30  1  0
 30 31  2  0
 31 32  1  0
 33 34  2  0
 33 40  1  0
 34 35  1  0
 35 36  1  0
 35 37  2  0
 37 38  1  0
 39 38  1  6
 38 40  2  0
M  END
$$$$
