
     RDKit          3D

 40 45  0  0  0  0  0  0  0  0999 V2000
    0.9190  -14.0341   26.1811 C   0  0  0  0  0  0  0  0  0  0  0  0
    0.4724  -14.8745   27.3589 C   0  0  0  0  0  0  0  0  0  0  0  0
   -0.2834  -14.0055   28.2933 C   0  0  0  0  0  0  0  0  0  0  0  0
   -0.7488  -12.8863   27.9084 O   0  0  0  0  0  0  0  0  0  0  0  0
   -0.5146  -14.3930   29.6568 N   0  0  0  0  0  0  0  0  0  0  0  0
   -0.0779  -15.5048   30.4812 C   0  0  0  0  0  0  0  0  0  0  0  0
   -0.4969  -14.7573   31.7064 C   0  0  2  0  0  0  0  0  0  0  0  0
   -1.2519  -13.8874   30.7741 C   0  0  0  0  0  0  0  0  0  0  0  0
    0.5799  -14.1863   32.4590 N   0  0  0  0  0  0  0  0  0  0  0  0
    1.2971  -14.9499   33.4053 C   0  0  0  0  0  0  0  0  0  0  0  0
    0.9466  -16.1420   33.5719 O   0  0  0  0  0  0  0  0  0  0  0  0
    2.4095  -14.4085   34.1803 C   0  0  0  0  0  0  0  0  0  0  0  0
    3.6181  -15.1822   34.1811 N   0  0  0  0  0  0  0  0  0  0  0  0
    4.8788  -14.7136   33.8924 C   0  0  0  0  0  0  0  0  0  0  0  0
    5.1309  -13.3080   33.5254 C   0  0  2  0  0  0  0  0  0  0  0  0
    4.4906  -12.6874   32.3158 C   0  0  0  0  0  0  0  0  0  0  0  0
    5.9269  -13.0828   32.2414 C   0  0  0  0  0  0  0  0  0  0  0  0
    5.8016  -15.7238   33.9953 C   0  0  0  0  0  0  0  0  0  0  0  0
    7.2381  -15.7036   33.7864 C   0  0  0  0  0  0  0  0  0  0  0  0
    7.9062  -14.8042   34.3425 O   0  0  0  0  0  0  0  0  0  0  0  0
    7.8897  -16.6556   32.9875 N   0  0  0  0  0  0  0  0  0  0  0  0
    9.3427  -16.8137   32.9772 C   0  0  0  0  0  0  0  0  0  0  0  0
    9.7758  -17.8735   32.0016 C   0  0  0  0  0  0  0  0  0  0  0  0
    9.0507  -17.7514   30.6954 C   0  0  0  0  0  0  0  0  0  0  0  0
    9.6818  -17.8120   29.4846 C   0  0  0  0  0  0  0  0  0  0  0  0
   11.0514  -17.9922   29.4273 O   0  0  0  0  0  0  0  0  0  0  0  0
   11.6214  -19.2769   29.2906 C   0  0  0  0  0  0  0  0  0  0  0  0
    8.9628  -17.6935   28.3176 C   0  0  0  0  0  0  0  0  0  0  0  0
    7.5778  -17.5100   28.3777 C   0  0  0  0  0  0  0  0  0  0  0  0
    6.9722  -17.4530   29.6083 C   0  0  0  0  0  0  0  0  0  0  0  0
    7.6857  -17.5702   30.7525 C   0  0  0  0  0  0  0  0  0  0  0  0
    7.1080  -17.5231   32.1337 C   0  0  0  0  0  0  0  0  0  0  0  0
    5.0553  -16.8341   34.3596 C   0  0  0  0  0  0  0  0  0  0  0  0
    5.5036  -18.1166   34.5948 C   0  0  0  0  0  0  0  0  0  0  0  0
    4.5933  -19.1036   34.9551 C   0  0  0  0  0  0  0  0  0  0  0  0
    5.1968  -20.7238   35.2454 Cl  0  0  0  0  0  0  0  0  0  0  0  0
    3.2793  -18.7594   35.0623 C   0  0  0  0  0  0  0  0  0  0  0  0
    2.7989  -17.4783   34.8323 C   0  0  0  0  0  0  0  0  0  0  0  0
    1.3749  -17.1571   34.9648 C   0  0  0  0  0  0  0  0  0  0  0  0
    3.6969  -16.4927   34.4738 C   0  0  0  0  0  0  0  0  0  0  0  0
  1  2  1  0
  2  3  1  0
  3  4  2  0
  3  5  1  0
  5  6  1  0
  5  8  1  0
  6  7  1  0
  7  8  1  0
  7  9  1  6
  9 10  1  0
 10 11  2  0
 10 12  1  0
 12 13  1  0
 13 14  1  0
 13 40  1  0
 15 14  1  6
 14 18  2  0
 15 16  1  0
 15 17  1  0
 16 17  1  0
 18 19  1  0
 18 33  1  0
 19 20  2  0
 19 21  1  0
 21 22  1  0
 21 32  1  0
 22 23  1  0
 23 24  1  0
 24 25  2  0
 24 31  1  0
 25 26  1  0
 25 28  1  0
 26 27  1  0
 28 29  2  0
 29 30  1  0
 30 31  2  0
 31 32  1  0
 33 34  2  0
 33 40  1  0
 34 35  1  0
 35 36  1  0
 35 37  2  0
 37 38  1  0
 38 39  1  0
 38 40  2  0
M  END
$$$$
