
     RDKit          3D

 40 45  0  0  0  0  0  0  0  0999 V2000
   -3.4359  -12.7683   38.6508 C   0  0  0  0  0  0  0  0  0  0  0  0
   -3.5537  -14.1746   38.1018 C   0  0  0  0  0  0  0  0  0  0  0  0
   -2.3766  -14.9539   38.5563 C   0  0  0  0  0  0  0  0  0  0  0  0
   -2.0967  -15.0476   39.7934 O   0  0  0  0  0  0  0  0  0  0  0  0
   -1.5159  -15.6252   37.6228 N   0  0  0  0  0  0  0  0  0  0  0  0
   -1.5485  -15.8367   36.1873 C   0  0  0  0  0  0  0  0  0  0  0  0
   -0.1051  -16.2252   36.2146 C   0  0  2  0  0  0  0  0  0  0  0  0
   -0.2917  -16.3638   37.6781 C   0  0  0  0  0  0  0  0  0  0  0  0
    0.7958  -15.2230   35.7289 N   0  0  0  0  0  0  0  0  0  0  0  0
    1.6974  -15.4967   34.6776 C   0  0  0  0  0  0  0  0  0  0  0  0
    1.7146  -16.6636   34.2194 O   0  0  0  0  0  0  0  0  0  0  0  0
    2.5920  -14.4875   34.1187 C   0  0  0  0  0  0  0  0  0  0  0  0
    3.9423  -14.9046   33.8698 N   0  0  0  0  0  0  0  0  0  0  0  0
    4.4106  -15.4802   32.7114 C   0  0  0  0  0  0  0  0  0  0  0  0
    3.5342  -15.7507   31.5571 C   0  0  2  0  0  0  0  0  0  0  0  0
    4.0963  -15.9613   30.1794 C   0  0  0  0  0  0  0  0  0  0  0  0
    3.4598  -14.6509   30.4997 C   0  0  0  0  0  0  0  0  0  0  0  0
    5.7527  -15.7457   32.8160 C   0  0  0  0  0  0  0  0  0  0  0  0
    6.6660  -16.3417   31.8577 C   0  0  0  0  0  0  0  0  0  0  0  0
    6.1844  -16.9955   30.9063 O   0  0  0  0  0  0  0  0  0  0  0  0
    8.0581  -16.2047   31.9682 N   0  0  0  0  0  0  0  0  0  0  0  0
    8.6939  -14.9746   32.4363 C   0  0  0  0  0  0  0  0  0  0  0  0
   10.1939  -15.0861   32.4157 C   0  0  0  0  0  0  0  0  0  0  0  0
   10.6835  -15.7180   31.1477 C   0  0  0  0  0  0  0  0  0  0  0  0
   11.7234  -15.2144   30.4178 C   0  0  0  0  0  0  0  0  0  0  0  0
   12.3744  -14.0703   30.8405 O   0  0  0  0  0  0  0  0  0  0  0  0
   13.7711  -13.9202   30.6966 C   0  0  0  0  0  0  0  0  0  0  0  0
   12.1289  -15.8385   29.2606 C   0  0  0  0  0  0  0  0  0  0  0  0
   11.4684  -16.9949   28.8341 C   0  0  0  0  0  0  0  0  0  0  0  0
   10.4273  -17.4767   29.5881 C   0  0  0  0  0  0  0  0  0  0  0  0
   10.0336  -16.8576   30.7254 C   0  0  0  0  0  0  0  0  0  0  0  0
    8.9133  -17.3146   31.6085 C   0  0  0  0  0  0  0  0  0  0  0  0
    6.0905  -15.3091   34.0879 C   0  0  0  0  0  0  0  0  0  0  0  0
    7.3276  -15.3456   34.6956 C   0  0  0  0  0  0  0  0  0  0  0  0
    7.4688  -14.8541   35.9885 C   0  0  0  0  0  0  0  0  0  0  0  0
    9.0551  -14.9171   36.7321 Cl  0  0  0  0  0  0  0  0  0  0  0  0
    6.3657  -14.3504   36.6098 C   0  0  0  0  0  0  0  0  0  0  0  0
    5.1090  -14.3002   36.0240 C   0  0  0  0  0  0  0  0  0  0  0  0
    3.9530  -13.7442   36.7332 C   0  0  0  0  0  0  0  0  0  0  0  0
    4.9608  -14.7866   34.7403 C   0  0  0  0  0  0  0  0  0  0  0  0
  1  2  1  0
  2  3  1  0
  3  4  2  0
  3  5  1  0
  5  6  1  0
  5  8  1  0
  6  7  1  0
  7  8  1  0
  7  9  1  1
  9 10  1  0
 10 11  2  0
 10 12  1  0
 12 13  1  0
 13 14  1  0
 13 40  1  0
 15 14  1  1
 14 18  2  0
 15 16  1  0
 15 17  1  0
 16 17  1  0
 18 19  1  0
 18 33  1  0
 19 20  2  0
 19 21  1  0
 21 22  1  0
 21 32  1  0
 22 23  1  0
 23 24  1  0
 24 25  2  0
 24 31  1  0
 25 26  1  0
 25 28  1  0
 26 27  1  0
 28 29  2  0
 29 30  1  0
 30 31  2  0
 31 32  1  0
 33 34  2  0
 33 40  1  0
 34 35  1  0
 35 36  1  0
 35 37  2  0
 37 38  1  0
 38 39  1  0
 38 40  2  0
M  END
$$$$
