
     RDKit          3D

 40 45  0  0  0  0  0  0  0  0999 V2000
   -1.9922  -15.2079   27.8866 C   0  0  0  0  0  0  0  0  0  0  0  0
   -0.7212  -14.5433   28.3722 C   0  0  0  0  0  0  0  0  0  0  0  0
   -0.4807  -14.9627   29.7743 C   0  0  0  0  0  0  0  0  0  0  0  0
   -1.3067  -15.7180   30.3781 O   0  0  0  0  0  0  0  0  0  0  0  0
    0.6846  -14.5336   30.4959 N   0  0  0  0  0  0  0  0  0  0  0  0
    1.0935  -14.5950   31.8871 C   0  0  0  0  0  0  0  0  0  0  0  0
    2.5020  -14.2974   31.4833 C   0  0  2  0  0  0  0  0  0  0  0  0
    1.9170  -13.8741   30.1894 C   0  0  0  0  0  0  0  0  0  0  0  0
    3.3833  -15.4266   31.5022 N   0  0  0  0  0  0  0  0  0  0  0  0
    4.7533  -15.2808   31.8102 C   0  0  0  0  0  0  0  0  0  0  0  0
    5.1861  -14.1173   31.9855 O   0  0  0  0  0  0  0  0  0  0  0  0
    5.6635  -16.4160   31.9282 C   0  0  0  0  0  0  0  0  0  0  0  0
    7.0019  -16.2078   31.4543 N   0  0  0  0  0  0  0  0  0  0  0  0
    7.5376  -16.7172   30.2941 C   0  0  0  0  0  0  0  0  0  0  0  0
    6.7627  -17.5768   29.3807 C   0  0  2  0  0  0  0  0  0  0  0  0
    6.1671  -18.8762   29.8446 C   0  0  0  0  0  0  0  0  0  0  0  0
    7.4042  -18.9131   29.0120 C   0  0  0  0  0  0  0  0  0  0  0  0
    8.8407  -16.3127   30.1492 C   0  0  0  0  0  0  0  0  0  0  0  0
    9.7968  -16.5972   29.0944 C   0  0  0  0  0  0  0  0  0  0  0  0
    9.6599  -16.0144   27.9962 O   0  0  0  0  0  0  0  0  0  0  0  0
   10.8587  -17.4971   29.2723 N   0  0  0  0  0  0  0  0  0  0  0  0
   11.3350  -17.9024   30.5934 C   0  0  0  0  0  0  0  0  0  0  0  0
   12.5083  -18.8384   30.4940 C   0  0  0  0  0  0  0  0  0  0  0  0
   13.5044  -18.3694   29.4768 C   0  0  0  0  0  0  0  0  0  0  0  0
   14.8498  -18.3307   29.7144 C   0  0  0  0  0  0  0  0  0  0  0  0
   15.3471  -18.7350   30.9395 O   0  0  0  0  0  0  0  0  0  0  0  0
   15.3676  -17.8644   32.0512 C   0  0  0  0  0  0  0  0  0  0  0  0
   15.7167  -17.8902   28.7412 C   0  0  0  0  0  0  0  0  0  0  0  0
   15.2116  -17.4806   27.5032 C   0  0  0  0  0  0  0  0  0  0  0  0
   13.8558  -17.5306   27.2942 C   0  0  0  0  0  0  0  0  0  0  0  0
   13.0086  -17.9650   28.2562 C   0  0  0  0  0  0  0  0  0  0  0  0
   11.5202  -18.0553   28.1132 C   0  0  0  0  0  0  0  0  0  0  0  0
    9.0843  -15.5328   31.2694 C   0  0  0  0  0  0  0  0  0  0  0  0
   10.2500  -14.8803   31.6106 C   0  0  0  0  0  0  0  0  0  0  0  0
   10.2995  -14.1388   32.7856 C   0  0  0  0  0  0  0  0  0  0  0  0
   11.7976  -13.3229   33.1900 Cl  0  0  0  0  0  0  0  0  0  0  0  0
    9.1807  -14.0865   33.5615 C   0  0  0  0  0  0  0  0  0  0  0  0
    7.9943  -14.7319   33.2443 C   0  0  0  0  0  0  0  0  0  0  0  0
    6.8156  -14.6415   34.1110 C   0  0  0  0  0  0  0  0  0  0  0  0
    7.9374  -15.4704   32.0791 C   0  0  0  0  0  0  0  0  0  0  0  0
  1  2  1  0
  2  3  1  0
  3  4  2  0
  3  5  1  0
  5  6  1  0
  5  8  1  0
  6  7  1  0
  7  8  1  0
  7  9  1  6
  9 10  1  0
 10 11  2  0
 10 12  1  0
 12 13  1  0
 13 14  1  0
 13 40  1  0
 15 14  1  1
 14 18  2  0
 15 16  1  0
 15 17  1  0
 16 17  1  0
 18 19  1  0
 18 33  1  0
 19 20  2  0
 19 21  1  0
 21 22  1  0
 21 32  1  0
 22 23  1  0
 23 24  1  0
 24 25  2  0
 24 31  1  0
 25 26  1  0
 25 28  1  0
 26 27  1  0
 28 29  2  0
 29 30  1  0
 30 31  2  0
 31 32  1  0
 33 34  2  0
 33 40  1  0
 34 35  1  0
 35 36  1  0
 35 37  2  0
 37 38  1  0
 38 39  1  0
 38 40  2  0
M  END
$$$$
