
     RDKit          3D

 40 45  0  0  0  0  0  0  0  0999 V2000
    3.8393  -19.1668   26.5732 C   0  0  0  0  0  0  0  0  0  0  0  0
    5.3436  -19.1563   26.7458 C   0  0  0  0  0  0  0  0  0  0  0  0
    5.6476  -19.1661   28.1973 C   0  0  0  0  0  0  0  0  0  0  0  0
    5.0150  -19.9342   28.9892 O   0  0  0  0  0  0  0  0  0  0  0  0
    6.6594  -18.3142   28.7572 N   0  0  0  0  0  0  0  0  0  0  0  0
    7.0716  -17.9857   30.1095 C   0  0  0  0  0  0  0  0  0  0  0  0
    8.3513  -17.4227   29.5797 C   0  0  2  0  0  0  0  0  0  0  0  0
    7.6738  -17.4351   28.2618 C   0  0  0  0  0  0  0  0  0  0  0  0
    9.4992  -18.2583   29.7698 N   0  0  0  0  0  0  0  0  0  0  0  0
   10.8053  -17.7677   29.5547 C   0  0  0  0  0  0  0  0  0  0  0  0
   10.9186  -16.6346   29.0303 O   0  0  0  0  0  0  0  0  0  0  0  0
   12.0032  -18.5206   29.9146 C   0  0  0  0  0  0  0  0  0  0  0  0
   13.1080  -18.4284   29.0034 N   0  0  0  0  0  0  0  0  0  0  0  0
   13.4221  -19.3359   28.0185 C   0  0  0  0  0  0  0  0  0  0  0  0
   12.6285  -20.5577   27.7921 C   0  0  2  0  0  0  0  0  0  0  0  0
   11.1277  -20.5158   27.7262 C   0  0  0  0  0  0  0  0  0  0  0  0
   11.7752  -21.0302   28.9676 C   0  0  0  0  0  0  0  0  0  0  0  0
   14.5377  -18.9304   27.3303 C   0  0  0  0  0  0  0  0  0  0  0  0
   15.2317  -19.5578   26.2201 C   0  0  0  0  0  0  0  0  0  0  0  0
   15.1233  -19.0429   25.0853 O   0  0  0  0  0  0  0  0  0  0  0  0
   16.0124  -20.7122   26.3842 N   0  0  0  0  0  0  0  0  0  0  0  0
   16.8085  -21.2854   25.3008 C   0  0  0  0  0  0  0  0  0  0  0  0
   17.5112  -22.5418   25.7371 C   0  0  0  0  0  0  0  0  0  0  0  0
   16.6021  -23.4391   26.5217 C   0  0  0  0  0  0  0  0  0  0  0  0
   16.5028  -24.7828   26.2929 C   0  0  0  0  0  0  0  0  0  0  0  0
   17.2612  -25.3726   25.2987 O   0  0  0  0  0  0  0  0  0  0  0  0
   17.1690  -26.7543   25.0219 C   0  0  0  0  0  0  0  0  0  0  0  0
   15.6501  -25.5564   27.0461 C   0  0  0  0  0  0  0  0  0  0  0  0
   14.8830  -24.9578   28.0504 C   0  0  0  0  0  0  0  0  0  0  0  0
   15.0042  -23.6061   28.2565 C   0  0  0  0  0  0  0  0  0  0  0  0
   15.8450  -22.8510   27.5116 C   0  0  0  0  0  0  0  0  0  0  0  0
   16.0419  -21.3745   27.6700 C   0  0  0  0  0  0  0  0  0  0  0  0
   14.8969  -17.7348   27.9335 C   0  0  0  0  0  0  0  0  0  0  0  0
   15.9564  -16.9110   27.6176 C   0  0  0  0  0  0  0  0  0  0  0  0
   16.1536  -15.7420   28.3439 C   0  0  0  0  0  0  0  0  0  0  0  0
   17.5111  -14.7181   27.9169 Cl  0  0  0  0  0  0  0  0  0  0  0  0
   15.2813  -15.4545   29.3504 C   0  0  0  0  0  0  0  0  0  0  0  0
   14.2068  -16.2634   29.6909 C   0  0  0  0  0  0  0  0  0  0  0  0
   13.2933  -15.9080   30.7808 C   0  0  0  0  0  0  0  0  0  0  0  0
   14.0046  -17.4262   28.9744 C   0  0  0  0  0  0  0  0  0  0  0  0
  1  2  1  0
  2  3  1  0
  3  4  2  0
  3  5  1  0
  5  6  1  0
  5  8  1  0
  6  7  1  0
  7  8  1  0
  7  9  1  6
  9 10  1  0
 10 11  2  0
 10 12  1  0
 12 13  1  0
 13 14  1  0
 13 40  1  0
 15 14  1  1
 14 18  2  0
 15 16  1  0
 15 17  1  0
 16 17  1  0
 18 19  1  0
 18 33  1  0
 19 20  2  0
 19 21  1  0
 21 22  1  0
 21 32  1  0
 22 23  1  0
 23 24  1  0
 24 25  2  0
 24 31  1  0
 25 26  1  0
 25 28  1  0
 26 27  1  0
 28 29  2  0
 29 30  1  0
 30 31  2  0
 31 32  1  0
 33 34  2  0
 33 40  1  0
 34 35  1  0
 35 36  1  0
 35 37  2  0
 37 38  1  0
 38 39  1  0
 38 40  2  0
M  END
$$$$
