
     RDKit          3D

 40 45  0  0  0  0  0  0  0  0999 V2000
   -3.2190  -13.7422   33.2183 C   0  0  0  0  0  0  0  0  0  0  0  0
   -1.7607  -14.0684   33.2655 C   0  0  0  0  0  0  0  0  0  0  0  0
   -1.0208  -13.4234   32.1754 C   0  0  0  0  0  0  0  0  0  0  0  0
   -0.9742  -12.1368   32.2443 O   0  0  0  0  0  0  0  0  0  0  0  0
   -0.3980  -14.1030   31.1207 N   0  0  0  0  0  0  0  0  0  0  0  0
    0.1060  -13.9153   29.7867 C   0  0  0  0  0  0  0  0  0  0  0  0
    1.1415  -15.0401   30.0255 C   0  0  2  0  0  0  0  0  0  0  0  0
    0.0450  -15.5153   30.9698 C   0  0  0  0  0  0  0  0  0  0  0  0
    2.2659  -14.5077   30.7245 N   0  0  0  0  0  0  0  0  0  0  0  0
    3.5467  -14.2573   30.1757 C   0  0  0  0  0  0  0  0  0  0  0  0
    3.6942  -14.2000   28.9472 O   0  0  0  0  0  0  0  0  0  0  0  0
    4.6630  -14.0735   31.1315 C   0  0  0  0  0  0  0  0  0  0  0  0
    4.5892  -14.8329   32.3274 N   0  0  0  0  0  0  0  0  0  0  0  0
    5.0244  -16.1424   32.4207 C   0  0  0  0  0  0  0  0  0  0  0  0
    5.6166  -16.8955   31.3008 C   0  0  2  0  0  0  0  0  0  0  0  0
    5.1405  -18.1729   30.7900 C   0  0  0  0  0  0  0  0  0  0  0  0
    6.4720  -18.1054   31.5473 C   0  0  0  0  0  0  0  0  0  0  0  0
    4.8012  -16.5854   33.6878 C   0  0  0  0  0  0  0  0  0  0  0  0
    5.0651  -17.8642   34.3295 C   0  0  0  0  0  0  0  0  0  0  0  0
    5.3573  -17.9102   35.5649 O   0  0  0  0  0  0  0  0  0  0  0  0
    5.0291  -19.1172   33.6814 N   0  0  0  0  0  0  0  0  0  0  0  0
    4.3708  -19.3373   32.3878 C   0  0  0  0  0  0  0  0  0  0  0  0
    3.2747  -20.3634   32.5335 C   0  0  0  0  0  0  0  0  0  0  0  0
    3.6173  -21.4792   33.4066 C   0  0  0  0  0  0  0  0  0  0  0  0
    2.7918  -22.6119   33.4078 C   0  0  0  0  0  0  0  0  0  0  0  0
    1.6798  -22.6394   32.5856 O   0  0  0  0  0  0  0  0  0  0  0  0
    1.6525  -23.4897   31.4655 C   0  0  0  0  0  0  0  0  0  0  0  0
    3.0810  -23.6841   34.2149 C   0  0  0  0  0  0  0  0  0  0  0  0
    4.1774  -23.6530   35.0238 C   0  0  0  0  0  0  0  0  0  0  0  0
    4.9995  -22.5283   35.0246 C   0  0  0  0  0  0  0  0  0  0  0  0
    4.7140  -21.4526   34.2182 C   0  0  0  0  0  0  0  0  0  0  0  0
    5.6216  -20.2833   34.2707 C   0  0  0  0  0  0  0  0  0  0  0  0
    4.2162  -15.5201   34.3879 C   0  0  0  0  0  0  0  0  0  0  0  0
    3.7912  -15.4341   35.7077 C   0  0  0  0  0  0  0  0  0  0  0  0
    3.2453  -14.2598   36.1441 C   0  0  0  0  0  0  0  0  0  0  0  0
    2.7148  -14.1439   37.7960 Cl  0  0  0  0  0  0  0  0  0  0  0  0
    3.1301  -13.2000   35.2753 C   0  0  0  0  0  0  0  0  0  0  0  0
    3.5440  -13.2560   33.9551 C   0  0  0  0  0  0  0  0  0  0  0  0
    3.3868  -12.1036   33.0457 C   0  0  0  0  0  0  0  0  0  0  0  0
    4.1006  -14.4479   33.5067 C   0  0  0  0  0  0  0  0  0  0  0  0
  1  2  1  6
  2  3  1  6
  3  4  2  0
  3  5  1  0
  6  5  1  1
  8  5  1  1
  6  7  1  0
  7  8  1  0
  7  9  1  1
  9 10  1  0
 10 11  2  0
 10 12  1  0
 12 13  1  6
 13 14  1  0
 13 40  1  0
 15 14  1  1
 14 18  2  0
 16 15  1  1
 15 17  1  0
 17 16  1  6
 18 19  1  0
 18 33  1  0
 19 20  2  0
 19 21  1  0
 22 21  1  1
 32 21  1  1
 22 23  1  0
 23 24  1  6
 24 25  2  0
 24 31  1  0
 25 26  1  0
 25 28  1  0
 27 26  1  6
 28 29  2  0
 29 30  1  0
 30 31  2  0
 31 32  1  0
 33 34  2  0
 33 40  1  0
 34 35  1  0
 35 36  1  0
 35 37  2  0
 37 38  1  0
 39 38  1  6
 38 40  2  0
M  END
$$$$
