
     RDKit          3D

 40 45  0  0  0  0  0  0  0  0999 V2000
   16.1746  -18.8722   24.6524 C   0  0  0  0  0  0  0  0  0  0  0  0
   15.1181  -19.2122   25.6542 C   0  0  0  0  0  0  0  0  0  0  0  0
   15.1454  -18.3049   26.8066 C   0  0  0  0  0  0  0  0  0  0  0  0
   15.5127  -17.0995   26.5338 O   0  0  0  0  0  0  0  0  0  0  0  0
   14.8105  -18.6678   28.1174 N   0  0  0  0  0  0  0  0  0  0  0  0
   14.8689  -18.2016   29.4768 C   0  0  0  0  0  0  0  0  0  0  0  0
   13.6017  -19.0255   29.8080 C   0  0  2  0  0  0  0  0  0  0  0  0
   14.1598  -19.8821   28.6791 C   0  0  0  0  0  0  0  0  0  0  0  0
   12.4434  -18.2926   29.4108 N   0  0  0  0  0  0  0  0  0  0  0  0
   11.1608  -18.3743   30.0045 C   0  0  0  0  0  0  0  0  0  0  0  0
   10.9507  -19.1854   30.9167 O   0  0  0  0  0  0  0  0  0  0  0  0
   10.1198  -17.4585   29.4839 C   0  0  0  0  0  0  0  0  0  0  0  0
    9.0868  -17.1107   30.3919 N   0  0  0  0  0  0  0  0  0  0  0  0
    7.8180  -17.6588   30.3411 C   0  0  0  0  0  0  0  0  0  0  0  0
    7.3939  -18.6643   29.3506 C   0  0  2  0  0  0  0  0  0  0  0  0
    8.0130  -19.9653   29.1422 C   0  0  0  0  0  0  0  0  0  0  0  0
    8.1649  -18.8717   28.0783 C   0  0  0  0  0  0  0  0  0  0  0  0
    7.0664  -17.1074   31.3325 C   0  0  0  0  0  0  0  0  0  0  0  0
    5.6839  -17.3181   31.7337 C   0  0  0  0  0  0  0  0  0  0  0  0
    5.1443  -18.4590   31.5900 O   0  0  0  0  0  0  0  0  0  0  0  0
    4.8438  -16.3305   32.2907 N   0  0  0  0  0  0  0  0  0  0  0  0
    5.3312  -15.0264   32.7567 C   0  0  0  0  0  0  0  0  0  0  0  0
    5.0367  -14.8598   34.2268 C   0  0  0  0  0  0  0  0  0  0  0  0
    3.7326  -15.3682   34.6332 C   0  0  0  0  0  0  0  0  0  0  0  0
    3.2448  -15.0333   35.9037 C   0  0  0  0  0  0  0  0  0  0  0  0
    4.0109  -14.2345   36.7334 O   0  0  0  0  0  0  0  0  0  0  0  0
    3.8469  -12.8376   36.7148 C   0  0  0  0  0  0  0  0  0  0  0  0
    2.0205  -15.4913   36.3233 C   0  0  0  0  0  0  0  0  0  0  0  0
    1.2688  -16.2783   35.5029 C   0  0  0  0  0  0  0  0  0  0  0  0
    1.7513  -16.6128   34.2396 C   0  0  0  0  0  0  0  0  0  0  0  0
    2.9764  -16.1565   33.8153 C   0  0  0  0  0  0  0  0  0  0  0  0
    3.4375  -16.5540   32.4650 C   0  0  0  0  0  0  0  0  0  0  0  0
    7.8964  -16.2006   32.0077 C   0  0  0  0  0  0  0  0  0  0  0  0
    7.6338  -15.3750   33.0938 C   0  0  0  0  0  0  0  0  0  0  0  0
    8.6360  -14.5737   33.5640 C   0  0  0  0  0  0  0  0  0  0  0  0
    8.3154  -13.5408   34.9255 Cl  0  0  0  0  0  0  0  0  0  0  0  0
    9.8698  -14.6024   32.9572 C   0  0  0  0  0  0  0  0  0  0  0  0
   10.1609  -15.4138   31.8736 C   0  0  0  0  0  0  0  0  0  0  0  0
   11.4922  -15.4039   31.2354 C   0  0  0  0  0  0  0  0  0  0  0  0
    9.1451  -16.2312   31.3922 C   0  0  0  0  0  0  0  0  0  0  0  0
  1  2  1  6
  2  3  1  6
  3  4  2  0
  3  5  1  0
  6  5  1  1
  8  5  1  1
  6  7  1  0
  7  8  1  0
  7  9  1  6
  9 10  1  0
 10 11  2  0
 10 12  1  0
 12 13  1  6
 13 14  1  0
 13 40  1  0
 15 14  1  1
 14 18  2  0
 16 15  1  1
 15 17  1  0
 17 16  1  6
 18 19  1  0
 18 33  1  0
 19 20  2  0
 19 21  1  0
 22 21  1  1
 32 21  1  1
 22 23  1  0
 23 24  1  6
 24 25  2  0
 24 31  1  0
 25 26  1  0
 25 28  1  0
 27 26  1  6
 28 29  2  0
 29 30  1  0
 30 31  2  0
 31 32  1  0
 33 34  2  0
 33 40  1  0
 34 35  1  0
 35 36  1  0
 35 37  2  0
 37 38  1  0
 39 38  1  6
 38 40  2  0
M  END
$$$$
