
     RDKit          3D

 40 45  0  0  0  0  0  0  0  0999 V2000
    1.2083  -14.0854   22.9425 C   0  0  0  0  0  0  0  0  0  0  0  0
    1.9701  -14.5475   24.1669 C   0  0  0  0  0  0  0  0  0  0  0  0
    1.0774  -15.4156   24.9726 C   0  0  0  0  0  0  0  0  0  0  0  0
    0.4401  -16.3739   24.4315 O   0  0  0  0  0  0  0  0  0  0  0  0
    0.9008  -15.2063   26.3826 N   0  0  0  0  0  0  0  0  0  0  0  0
    0.2077  -15.9275   27.4341 C   0  0  0  0  0  0  0  0  0  0  0  0
    0.9684  -15.1536   28.4625 C   0  0  2  0  0  0  0  0  0  0  0  0
    1.3038  -14.2329   27.3509 C   0  0  0  0  0  0  0  0  0  0  0  0
    2.0282  -15.8788   29.0973 N   0  0  0  0  0  0  0  0  0  0  0  0
    2.5932  -15.4353   30.3125 C   0  0  0  0  0  0  0  0  0  0  0  0
    2.3442  -14.2601   30.6714 O   0  0  0  0  0  0  0  0  0  0  0  0
    3.4407  -16.2817   31.1473 C   0  0  0  0  0  0  0  0  0  0  0  0
    4.0663  -15.6426   32.2696 N   0  0  0  0  0  0  0  0  0  0  0  0
    3.5346  -15.5241   33.5327 C   0  0  0  0  0  0  0  0  0  0  0  0
    2.2034  -16.0549   33.8792 C   0  0  2  0  0  0  0  0  0  0  0  0
    1.9739  -16.8266   35.1481 C   0  0  0  0  0  0  0  0  0  0  0  0
    2.0628  -17.5758   33.8614 C   0  0  0  0  0  0  0  0  0  0  0  0
    4.4060  -14.8616   34.3600 C   0  0  0  0  0  0  0  0  0  0  0  0
    4.2793  -14.5085   35.7625 C   0  0  0  0  0  0  0  0  0  0  0  0
    3.2274  -13.9470   36.1404 O   0  0  0  0  0  0  0  0  0  0  0  0
    5.2929  -14.7779   36.6947 N   0  0  0  0  0  0  0  0  0  0  0  0
    6.3203  -15.7930   36.4700 C   0  0  0  0  0  0  0  0  0  0  0  0
    7.2529  -15.9040   37.6450 C   0  0  0  0  0  0  0  0  0  0  0  0
    6.5063  -15.9036   38.9448 C   0  0  0  0  0  0  0  0  0  0  0  0
    6.7616  -16.7929   39.9507 C   0  0  0  0  0  0  0  0  0  0  0  0
    7.7467  -17.7502   39.7934 O   0  0  0  0  0  0  0  0  0  0  0  0
    7.4638  -19.0146   39.2318 C   0  0  0  0  0  0  0  0  0  0  0  0
    6.0429  -16.7439   41.1228 C   0  0  0  0  0  0  0  0  0  0  0  0
    5.0462  -15.7756   41.2795 C   0  0  0  0  0  0  0  0  0  0  0  0
    4.8126  -14.8963   40.2516 C   0  0  0  0  0  0  0  0  0  0  0  0
    5.5234  -14.9504   39.1010 C   0  0  0  0  0  0  0  0  0  0  0  0
    5.3379  -14.0312   37.9328 C   0  0  0  0  0  0  0  0  0  0  0  0
    5.4966  -14.5774   33.5524 C   0  0  0  0  0  0  0  0  0  0  0  0
    6.6583  -13.9198   33.8975 C   0  0  0  0  0  0  0  0  0  0  0  0
    7.6472  -13.7304   32.9388 C   0  0  0  0  0  0  0  0  0  0  0  0
    9.1110  -12.8892   33.4109 Cl  0  0  0  0  0  0  0  0  0  0  0  0
    7.4255  -14.2080   31.6821 C   0  0  0  0  0  0  0  0  0  0  0  0
    6.2677  -14.8733   31.3057 C   0  0  0  0  0  0  0  0  0  0  0  0
    6.0783  -15.3722   29.9405 C   0  0  0  0  0  0  0  0  0  0  0  0
    5.2809  -15.0650   32.2521 C   0  0  0  0  0  0  0  0  0  0  0  0
  1  2  1  0
  2  3  1  0
  3  4  2  0
  3  5  1  0
  5  6  1  0
  5  8  1  0
  6  7  1  0
  7  8  1  0
  7  9  1  6
  9 10  1  0
 10 11  2  0
 10 12  1  0
 12 13  1  0
 13 14  1  0
 13 40  1  0
 15 14  1  1
 14 18  2  0
 15 16  1  0
 15 17  1  0
 16 17  1  0
 18 19  1  0
 18 33  1  0
 19 20  2  0
 19 21  1  0
 21 22  1  0
 21 32  1  0
 22 23  1  0
 23 24  1  0
 24 25  2  0
 24 31  1  0
 25 26  1  0
 25 28  1  0
 26 27  1  0
 28 29  2  0
 29 30  1  0
 30 31  2  0
 31 32  1  0
 33 34  2  0
 33 40  1  0
 34 35  1  0
 35 36  1  0
 35 37  2  0
 37 38  1  0
 38 39  1  0
 38 40  2  0
M  END
$$$$
