
     RDKit          3D

 40 45  0  0  0  0  0  0  0  0999 V2000
   -3.4840  -13.4546   29.7360 C   0  0  0  0  0  0  0  0  0  0  0  0
   -2.6547  -13.3258   30.9965 C   0  0  0  0  0  0  0  0  0  0  0  0
   -2.1801  -14.6765   31.3837 C   0  0  0  0  0  0  0  0  0  0  0  0
   -2.5464  -15.7060   30.7330 O   0  0  0  0  0  0  0  0  0  0  0  0
   -1.2970  -14.8695   32.4998 N   0  0  0  0  0  0  0  0  0  0  0  0
   -0.6121  -16.0191   33.0618 C   0  0  0  0  0  0  0  0  0  0  0  0
    0.2805  -15.1044   33.8377 C   0  0  2  0  0  0  0  0  0  0  0  0
   -0.7190  -14.0560   33.5252 C   0  0  0  0  0  0  0  0  0  0  0  0
    1.6056  -14.9690   33.3107 N   0  0  0  0  0  0  0  0  0  0  0  0
    2.5106  -14.0233   33.8395 C   0  0  0  0  0  0  0  0  0  0  0  0
    2.2314  -13.5139   34.9505 O   0  0  0  0  0  0  0  0  0  0  0  0
    3.7345  -13.6267   33.1496 C   0  0  0  0  0  0  0  0  0  0  0  0
    4.9508  -14.2241   33.6216 N   0  0  0  0  0  0  0  0  0  0  0  0
    5.6545  -15.2278   32.9972 C   0  0  0  0  0  0  0  0  0  0  0  0
    5.2081  -15.8291   31.7272 C   0  0  2  0  0  0  0  0  0  0  0  0
    3.8292  -16.4071   31.5762 C   0  0  0  0  0  0  0  0  0  0  0  0
    4.9812  -17.3395   31.7438 C   0  0  0  0  0  0  0  0  0  0  0  0
    6.7726  -15.5531   33.7228 C   0  0  0  0  0  0  0  0  0  0  0  0
    7.8038  -16.5407   33.4602 C   0  0  0  0  0  0  0  0  0  0  0  0
    7.8270  -17.5756   34.1623 O   0  0  0  0  0  0  0  0  0  0  0  0
    8.7633  -16.3680   32.4510 N   0  0  0  0  0  0  0  0  0  0  0  0
    8.6017  -15.4002   31.3676 C   0  0  0  0  0  0  0  0  0  0  0  0
    9.7547  -15.4536   30.4031 C   0  0  0  0  0  0  0  0  0  0  0  0
   10.1266  -16.8656   30.0642 C   0  0  0  0  0  0  0  0  0  0  0  0
   10.3540  -17.2895   28.7850 C   0  0  0  0  0  0  0  0  0  0  0  0
   10.2432  -16.4001   27.7322 O   0  0  0  0  0  0  0  0  0  0  0  0
   11.1574  -15.3369   27.5651 C   0  0  0  0  0  0  0  0  0  0  0  0
   10.6926  -18.5993   28.5350 C   0  0  0  0  0  0  0  0  0  0  0  0
   10.8031  -19.4976   29.6010 C   0  0  0  0  0  0  0  0  0  0  0  0
   10.5685  -19.0425   30.8747 C   0  0  0  0  0  0  0  0  0  0  0  0
   10.2355  -17.7525   31.1134 C   0  0  0  0  0  0  0  0  0  0  0  0
    9.9661  -17.1714   32.4675 C   0  0  0  0  0  0  0  0  0  0  0  0
    6.7273  -14.7070   34.8203 C   0  0  0  0  0  0  0  0  0  0  0  0
    7.6242  -14.6245   35.8643 C   0  0  0  0  0  0  0  0  0  0  0  0
    7.4058  -13.7025   36.8817 C   0  0  0  0  0  0  0  0  0  0  0  0
    8.5649  -13.6248   38.1947 Cl  0  0  0  0  0  0  0  0  0  0  0  0
    6.3011  -12.9085   36.8050 C   0  0  0  0  0  0  0  0  0  0  0  0
    5.3819  -12.9686   35.7675 C   0  0  0  0  0  0  0  0  0  0  0  0
    4.2100  -12.0890   35.7283 C   0  0  0  0  0  0  0  0  0  0  0  0
    5.5918  -13.8818   34.7535 C   0  0  0  0  0  0  0  0  0  0  0  0
  1  2  1  0
  2  3  1  0
  3  4  2  0
  3  5  1  0
  5  6  1  0
  5  8  1  0
  6  7  1  0
  7  8  1  0
  7  9  1  6
  9 10  1  0
 10 11  2  0
 10 12  1  0
 12 13  1  0
 13 14  1  0
 13 40  1  0
 15 14  1  1
 14 18  2  0
 15 16  1  0
 15 17  1  0
 16 17  1  0
 18 19  1  0
 18 33  1  0
 19 20  2  0
 19 21  1  0
 21 22  1  0
 21 32  1  0
 22 23  1  0
 23 24  1  0
 24 25  2  0
 24 31  1  0
 25 26  1  0
 25 28  1  0
 26 27  1  0
 28 29  2  0
 29 30  1  0
 30 31  2  0
 31 32  1  0
 33 34  2  0
 33 40  1  0
 34 35  1  0
 35 36  1  0
 35 37  2  0
 37 38  1  0
 38 39  1  0
 38 40  2  0
M  END
$$$$
