
     RDKit          3D

 40 45  0  0  0  0  0  0  0  0999 V2000
   -0.5286  -14.0877   27.3437 C   0  0  0  0  0  0  0  0  0  0  0  0
    0.2991  -14.6165   28.4709 C   0  0  0  0  0  0  0  0  0  0  0  0
    0.7513  -13.5458   29.3659 C   0  0  0  0  0  0  0  0  0  0  0  0
    1.6349  -12.7566   28.8572 O   0  0  0  0  0  0  0  0  0  0  0  0
    0.2938  -13.3524   30.6756 N   0  0  0  0  0  0  0  0  0  0  0  0
   -0.5249  -13.9524   31.6947 C   0  0  0  0  0  0  0  0  0  0  0  0
    0.3445  -13.2777   32.7826 C   0  0  2  0  0  0  0  0  0  0  0  0
    0.5281  -12.2631   31.6616 C   0  0  0  0  0  0  0  0  0  0  0  0
    1.5175  -14.0599   33.0034 N   0  0  0  0  0  0  0  0  0  0  0  0
    1.7742  -14.8782   34.1299 C   0  0  0  0  0  0  0  0  0  0  0  0
    1.1026  -14.7409   35.1615 O   0  0  0  0  0  0  0  0  0  0  0  0
    2.8606  -15.8765   34.0016 C   0  0  0  0  0  0  0  0  0  0  0  0
    4.1831  -15.3643   34.0343 N   0  0  0  0  0  0  0  0  0  0  0  0
    5.0118  -15.3366   32.9273 C   0  0  0  0  0  0  0  0  0  0  0  0
    4.6210  -15.8258   31.5932 C   0  0  2  0  0  0  0  0  0  0  0  0
    3.2683  -16.1641   31.1749 C   0  0  0  0  0  0  0  0  0  0  0  0
    4.3071  -17.2763   31.3613 C   0  0  0  0  0  0  0  0  0  0  0  0
    6.2086  -14.8028   33.2937 C   0  0  0  0  0  0  0  0  0  0  0  0
    7.4251  -14.5392   32.5404 C   0  0  0  0  0  0  0  0  0  0  0  0
    8.1836  -13.5750   32.8697 O   0  0  0  0  0  0  0  0  0  0  0  0
    7.8633  -15.2843   31.4249 N   0  0  0  0  0  0  0  0  0  0  0  0
    7.2566  -16.5573   31.0168 C   0  0  0  0  0  0  0  0  0  0  0  0
    8.2887  -17.6570   31.0533 C   0  0  0  0  0  0  0  0  0  0  0  0
    9.6024  -17.2555   30.5663 C   0  0  0  0  0  0  0  0  0  0  0  0
   10.5569  -18.2484   30.3060 C   0  0  0  0  0  0  0  0  0  0  0  0
   10.2281  -19.5750   30.5185 O   0  0  0  0  0  0  0  0  0  0  0  0
    9.9125  -20.4061   29.4284 C   0  0  0  0  0  0  0  0  0  0  0  0
   11.8054  -17.9113   29.8451 C   0  0  0  0  0  0  0  0  0  0  0  0
   12.1255  -16.6029   29.6373 C   0  0  0  0  0  0  0  0  0  0  0  0
   11.1788  -15.6141   29.8953 C   0  0  0  0  0  0  0  0  0  0  0  0
    9.9276  -15.9469   30.3567 C   0  0  0  0  0  0  0  0  0  0  0  0
    8.9685  -14.8494   30.6202 C   0  0  0  0  0  0  0  0  0  0  0  0
    6.1095  -14.4948   34.6584 C   0  0  0  0  0  0  0  0  0  0  0  0
    7.0383  -13.9331   35.5253 C   0  0  0  0  0  0  0  0  0  0  0  0
    6.6809  -13.7370   36.8297 C   0  0  0  0  0  0  0  0  0  0  0  0
    7.8373  -13.0307   37.9195 Cl  0  0  0  0  0  0  0  0  0  0  0  0
    5.4220  -14.0966   37.2505 C   0  0  0  0  0  0  0  0  0  0  0  0
    4.4757  -14.6587   36.4102 C   0  0  0  0  0  0  0  0  0  0  0  0
    3.1398  -15.0502   36.9020 C   0  0  0  0  0  0  0  0  0  0  0  0
    4.8342  -14.8594   35.0826 C   0  0  0  0  0  0  0  0  0  0  0  0
  1  2  1  6
  2  3  1  6
  3  4  2  0
  3  5  1  0
  6  5  1  1
  8  5  1  1
  6  7  1  0
  7  8  1  0
  7  9  1  6
  9 10  1  0
 10 11  2  0
 10 12  1  0
 12 13  1  6
 13 14  1  0
 13 40  1  0
 15 14  1  1
 14 18  2  0
 16 15  1  1
 15 17  1  0
 17 16  1  6
 18 19  1  0
 18 33  1  0
 19 20  2  0
 19 21  1  0
 22 21  1  1
 32 21  1  1
 22 23  1  0
 23 24  1  6
 24 25  2  0
 24 31  1  0
 25 26  1  0
 25 28  1  0
 27 26  1  6
 28 29  2  0
 29 30  1  0
 30 31  2  0
 31 32  1  0
 33 34  2  0
 33 40  1  0
 34 35  1  0
 35 36  1  0
 35 37  2  0
 37 38  1  0
 39 38  1  6
 38 40  2  0
M  END
$$$$
