
     RDKit          3D

 40 45  0  0  0  0  0  0  0  0999 V2000
   14.8263  -26.8287   30.2563 C   0  0  0  0  0  0  0  0  0  0  0  0
   15.4638  -26.1484   29.0631 C   0  0  0  0  0  0  0  0  0  0  0  0
   16.4081  -25.1190   29.5613 C   0  0  0  0  0  0  0  0  0  0  0  0
   16.7296  -25.0718   30.7909 O   0  0  0  0  0  0  0  0  0  0  0  0
   16.9885  -24.1447   28.6800 N   0  0  0  0  0  0  0  0  0  0  0  0
   17.2076  -24.0792   27.2468 C   0  0  0  0  0  0  0  0  0  0  0  0
   17.4420  -22.6064   27.3527 C   0  0  2  0  0  0  0  0  0  0  0  0
   17.5941  -22.8543   28.8057 C   0  0  0  0  0  0  0  0  0  0  0  0
   16.3523  -21.7912   26.9054 N   0  0  0  0  0  0  0  0  0  0  0  0
   16.4698  -20.3861   26.8355 C   0  0  0  0  0  0  0  0  0  0  0  0
   17.3926  -19.8495   27.4930 O   0  0  0  0  0  0  0  0  0  0  0  0
   15.5709  -19.5549   26.0403 C   0  0  0  0  0  0  0  0  0  0  0  0
   14.6945  -18.6871   26.7738 N   0  0  0  0  0  0  0  0  0  0  0  0
   13.3379  -18.8526   26.9313 C   0  0  0  0  0  0  0  0  0  0  0  0
   12.6079  -19.9827   26.3281 C   0  0  2  0  0  0  0  0  0  0  0  0
   13.3315  -21.1845   25.7894 C   0  0  0  0  0  0  0  0  0  0  0  0
   12.7990  -20.1786   24.8253 C   0  0  0  0  0  0  0  0  0  0  0  0
   12.8167  -17.8406   27.6973 C   0  0  0  0  0  0  0  0  0  0  0  0
   11.4503  -17.5992   28.1244 C   0  0  0  0  0  0  0  0  0  0  0  0
   10.5233  -17.8709   27.3298 O   0  0  0  0  0  0  0  0  0  0  0  0
   11.1453  -17.0764   29.3904 N   0  0  0  0  0  0  0  0  0  0  0  0
   11.9951  -17.2961   30.5591 C   0  0  0  0  0  0  0  0  0  0  0  0
   11.4121  -16.6626   31.7926 C   0  0  0  0  0  0  0  0  0  0  0  0
    9.9409  -16.9263   31.9062 C   0  0  0  0  0  0  0  0  0  0  0  0
    9.3449  -17.3357   33.0661 C   0  0  0  0  0  0  0  0  0  0  0  0
   10.1061  -17.5256   34.2046 O   0  0  0  0  0  0  0  0  0  0  0  0
   11.4752  -17.1818   34.2426 C   0  0  0  0  0  0  0  0  0  0  0  0
    7.9886  -17.5622   33.1100 C   0  0  0  0  0  0  0  0  0  0  0  0
    7.2207  -17.3707   31.9572 C   0  0  0  0  0  0  0  0  0  0  0  0
    7.8475  -16.9594   30.8073 C   0  0  0  0  0  0  0  0  0  0  0  0
    9.1823  -16.7385   30.7710 C   0  0  0  0  0  0  0  0  0  0  0  0
    9.9458  -16.2867   29.5641 C   0  0  0  0  0  0  0  0  0  0  0  0
   13.9100  -17.0451   28.0045 C   0  0  0  0  0  0  0  0  0  0  0  0
   13.9331  -15.8910   28.7585 C   0  0  0  0  0  0  0  0  0  0  0  0
   15.1391  -15.2287   28.9577 C   0  0  0  0  0  0  0  0  0  0  0  0
   15.1326  -13.7634   29.9201 Cl  0  0  0  0  0  0  0  0  0  0  0  0
   16.2626  -15.7533   28.3928 C   0  0  0  0  0  0  0  0  0  0  0  0
   16.2704  -16.9121   27.6300 C   0  0  0  0  0  0  0  0  0  0  0  0
   17.5076  -17.4389   27.0465 C   0  0  0  0  0  0  0  0  0  0  0  0
   15.0765  -17.5754   27.4276 C   0  0  0  0  0  0  0  0  0  0  0  0
  1  2  1  0
  2  3  1  0
  3  4  2  0
  3  5  1  0
  5  6  1  0
  5  8  1  0
  6  7  1  0
  7  8  1  0
  7  9  1  1
  9 10  1  0
 10 11  2  0
 10 12  1  0
 12 13  1  0
 13 14  1  0
 13 40  1  0
 15 14  1  1
 14 18  2  0
 15 16  1  0
 15 17  1  0
 16 17  1  0
 18 19  1  0
 18 33  1  0
 19 20  2  0
 19 21  1  0
 21 22  1  0
 21 32  1  0
 22 23  1  0
 23 24  1  0
 24 25  2  0
 24 31  1  0
 25 26  1  0
 25 28  1  0
 26 27  1  0
 28 29  2  0
 29 30  1  0
 30 31  2  0
 31 32  1  0
 33 34  2  0
 33 40  1  0
 34 35  1  0
 35 36  1  0
 35 37  2  0
 37 38  1  0
 38 39  1  0
 38 40  2  0
M  END
$$$$
