
     RDKit          3D

 40 45  0  0  0  0  0  0  0  0999 V2000
   23.9518  -22.6571   31.7842 C   0  0  0  0  0  0  0  0  0  0  0  0
   22.5407  -22.6161   31.2920 C   0  0  0  0  0  0  0  0  0  0  0  0
   22.3622  -21.6241   30.2262 C   0  0  0  0  0  0  0  0  0  0  0  0
   21.6245  -20.6165   30.5470 O   0  0  0  0  0  0  0  0  0  0  0  0
   22.9242  -21.7164   28.9464 N   0  0  0  0  0  0  0  0  0  0  0  0
   22.6438  -22.1714   27.6111 C   0  0  0  0  0  0  0  0  0  0  0  0
   23.5995  -21.0922   27.0486 C   0  0  2  0  0  0  0  0  0  0  0  0
   24.2497  -21.3067   28.4091 C   0  0  0  0  0  0  0  0  0  0  0  0
   22.9102  -19.8453   26.9676 N   0  0  0  0  0  0  0  0  0  0  0  0
   21.5754  -19.6027   27.3723 C   0  0  0  0  0  0  0  0  0  0  0  0
   21.1370  -20.1239   28.4070 O   0  0  0  0  0  0  0  0  0  0  0  0
   20.7624  -18.7151   26.5095 C   0  0  0  0  0  0  0  0  0  0  0  0
   19.3556  -18.8650   26.6133 N   0  0  0  0  0  0  0  0  0  0  0  0
   18.6370  -19.7925   25.8809 C   0  0  0  0  0  0  0  0  0  0  0  0
   19.2426  -20.7307   24.9191 C   0  0  2  0  0  0  0  0  0  0  0  0
   19.1266  -20.6545   23.4699 C   0  0  0  0  0  0  0  0  0  0  0  0
   18.4137  -21.7780   24.2318 C   0  0  0  0  0  0  0  0  0  0  0  0
   17.3195  -19.6706   26.1984 C   0  0  0  0  0  0  0  0  0  0  0  0
   16.1397  -20.3858   25.7367 C   0  0  0  0  0  0  0  0  0  0  0  0
   16.2062  -21.1316   24.7106 O   0  0  0  0  0  0  0  0  0  0  0  0
   14.8678  -20.3263   26.3452 N   0  0  0  0  0  0  0  0  0  0  0  0
   14.6721  -20.1312   27.7870 C   0  0  0  0  0  0  0  0  0  0  0  0
   13.9290  -21.3066   28.3716 C   0  0  0  0  0  0  0  0  0  0  0  0
   12.8556  -21.8119   27.5249 C   0  0  0  0  0  0  0  0  0  0  0  0
   11.9359  -22.7175   28.0712 C   0  0  0  0  0  0  0  0  0  0  0  0
   12.0721  -23.1058   29.3919 O   0  0  0  0  0  0  0  0  0  0  0  0
   11.2746  -24.1437   29.9070 C   0  0  0  0  0  0  0  0  0  0  0  0
   10.9100  -23.2155   27.3069 C   0  0  0  0  0  0  0  0  0  0  0  0
   10.7795  -22.8306   26.0060 C   0  0  0  0  0  0  0  0  0  0  0  0
   11.6923  -21.9308   25.4604 C   0  0  0  0  0  0  0  0  0  0  0  0
   12.7209  -21.4296   26.2219 C   0  0  0  0  0  0  0  0  0  0  0  0
   13.6634  -20.4831   25.5817 C   0  0  0  0  0  0  0  0  0  0  0  0
   17.2296  -18.6440   27.1499 C   0  0  0  0  0  0  0  0  0  0  0  0
   16.1238  -18.1166   27.8049 C   0  0  0  0  0  0  0  0  0  0  0  0
   16.3159  -17.1017   28.6997 C   0  0  0  0  0  0  0  0  0  0  0  0
   14.9368  -16.4395   29.5262 Cl  0  0  0  0  0  0  0  0  0  0  0  0
   17.5872  -16.6300   28.9292 C   0  0  0  0  0  0  0  0  0  0  0  0
   18.7077  -17.1351   28.2914 C   0  0  0  0  0  0  0  0  0  0  0  0
   20.0556  -16.5904   28.5489 C   0  0  0  0  0  0  0  0  0  0  0  0
   18.5176  -18.1678   27.3811 C   0  0  0  0  0  0  0  0  0  0  0  0
  1  2  1  6
  2  3  1  6
  3  4  2  0
  3  5  1  0
  6  5  1  1
  8  5  1  1
  6  7  1  0
  7  8  1  0
  7  9  1  1
  9 10  1  0
 10 11  2  0
 10 12  1  0
 12 13  1  6
 13 14  1  0
 13 40  1  0
 15 14  1  1
 14 18  2  0
 16 15  1  1
 15 17  1  0
 17 16  1  6
 18 19  1  0
 18 33  1  0
 19 20  2  0
 19 21  1  0
 22 21  1  1
 32 21  1  1
 22 23  1  0
 23 24  1  6
 24 25  2  0
 24 31  1  0
 25 26  1  0
 25 28  1  0
 27 26  1  6
 28 29  2  0
 29 30  1  0
 30 31  2  0
 31 32  1  0
 33 34  2  0
 33 40  1  0
 34 35  1  0
 35 36  1  0
 35 37  2  0
 37 38  1  0
 39 38  1  6
 38 40  2  0
M  END
$$$$
