
     RDKit          3D

 40 45  0  0  0  0  0  0  0  0999 V2000
    4.2974  -25.0695   29.1146 C   0  0  0  0  0  0  0  0  0  0  0  0
    3.4910  -24.0934   29.9452 C   0  0  0  0  0  0  0  0  0  0  0  0
    4.2769  -23.7483   31.1546 C   0  0  0  0  0  0  0  0  0  0  0  0
    5.2348  -24.4900   31.5416 O   0  0  0  0  0  0  0  0  0  0  0  0
    3.9863  -22.5730   31.9275 N   0  0  0  0  0  0  0  0  0  0  0  0
    4.6753  -21.8643   32.9902 C   0  0  0  0  0  0  0  0  0  0  0  0
    3.7942  -20.6774   32.7660 C   0  0  2  0  0  0  0  0  0  0  0  0
    2.9306  -21.6102   32.0045 C   0  0  0  0  0  0  0  0  0  0  0  0
    4.4155  -19.5916   32.0681 N   0  0  0  0  0  0  0  0  0  0  0  0
    4.0139  -18.2559   32.2861 C   0  0  0  0  0  0  0  0  0  0  0  0
    3.1324  -18.0513   33.1538 O   0  0  0  0  0  0  0  0  0  0  0  0
    4.5785  -17.1290   31.5496 C   0  0  0  0  0  0  0  0  0  0  0  0
    4.4980  -15.8478   32.1909 N   0  0  0  0  0  0  0  0  0  0  0  0
    3.6695  -14.8117   31.8268 C   0  0  0  0  0  0  0  0  0  0  0  0
    2.7443  -14.9086   30.6830 C   0  0  2  0  0  0  0  0  0  0  0  0
    1.4600  -14.1292   30.6463 C   0  0  0  0  0  0  0  0  0  0  0  0
    1.4037  -15.5861   30.9608 C   0  0  0  0  0  0  0  0  0  0  0  0
    3.8491  -13.7376   32.6616 C   0  0  0  0  0  0  0  0  0  0  0  0
    3.2032  -12.4374   32.6655 C   0  0  0  0  0  0  0  0  0  0  0  0
    3.6417  -11.5547   31.8953 O   0  0  0  0  0  0  0  0  0  0  0  0
    2.1125  -12.1482   33.4994 N   0  0  0  0  0  0  0  0  0  0  0  0
    1.4415  -10.8496   33.4971 C   0  0  0  0  0  0  0  0  0  0  0  0
    0.3359  -10.7976   34.5157 C   0  0  0  0  0  0  0  0  0  0  0  0
    0.7624  -11.3907   35.8246 C   0  0  0  0  0  0  0  0  0  0  0  0
    0.5259  -10.7876   37.0280 C   0  0  0  0  0  0  0  0  0  0  0  0
   -0.1338   -9.5735   37.0748 O   0  0  0  0  0  0  0  0  0  0  0  0
   -1.4869   -9.4837   37.4686 C   0  0  0  0  0  0  0  0  0  0  0  0
    0.9414  -11.3805   38.1979 C   0  0  0  0  0  0  0  0  0  0  0  0
    1.6095  -12.6080   38.1484 C   0  0  0  0  0  0  0  0  0  0  0  0
    1.8328  -13.1892   36.9250 C   0  0  0  0  0  0  0  0  0  0  0  0
    1.4214  -12.6002   35.7779 C   0  0  0  0  0  0  0  0  0  0  0  0
    1.6194  -13.1635   34.4041 C   0  0  0  0  0  0  0  0  0  0  0  0
    4.8233  -14.1566   33.5548 C   0  0  0  0  0  0  0  0  0  0  0  0
    5.3696  -13.4507   34.6056 C   0  0  0  0  0  0  0  0  0  0  0  0
    6.3439  -14.0481   35.3973 C   0  0  0  0  0  0  0  0  0  0  0  0
    7.0185  -13.1219   36.7241 Cl  0  0  0  0  0  0  0  0  0  0  0  0
    6.7240  -15.3221   35.0989 C   0  0  0  0  0  0  0  0  0  0  0  0
    6.1924  -16.0569   34.0490 C   0  0  0  0  0  0  0  0  0  0  0  0
    6.6321  -17.4273   33.7710 C   0  0  0  0  0  0  0  0  0  0  0  0
    5.2245  -15.4704   33.2581 C   0  0  0  0  0  0  0  0  0  0  0  0
  1  2  1  0
  2  3  1  0
  3  4  2  0
  3  5  1  0
  5  6  1  0
  5  8  1  0
  6  7  1  0
  7  8  1  0
  7  9  1  6
  9 10  1  0
 10 11  2  0
 10 12  1  0
 12 13  1  0
 13 14  1  0
 13 40  1  0
 15 14  1  1
 14 18  2  0
 15 16  1  0
 15 17  1  0
 16 17  1  0
 18 19  1  0
 18 33  1  0
 19 20  2  0
 19 21  1  0
 21 22  1  0
 21 32  1  0
 22 23  1  0
 23 24  1  0
 24 25  2  0
 24 31  1  0
 25 26  1  0
 25 28  1  0
 26 27  1  0
 28 29  2  0
 29 30  1  0
 30 31  2  0
 31 32  1  0
 33 34  2  0
 33 40  1  0
 34 35  1  0
 35 36  1  0
 35 37  2  0
 37 38  1  0
 38 39  1  0
 38 40  2  0
M  END
$$$$
