
     RDKit          3D

 40 45  0  0  0  0  0  0  0  0999 V2000
   -4.9178  -14.1640   24.6738 C   0  0  0  0  0  0  0  0  0  0  0  0
   -3.7984  -13.8588   25.6469 C   0  0  0  0  0  0  0  0  0  0  0  0
   -3.5288  -15.0784   26.4466 C   0  0  0  0  0  0  0  0  0  0  0  0
   -4.4741  -15.8631   26.7750 O   0  0  0  0  0  0  0  0  0  0  0  0
   -2.2002  -15.4144   26.8766 N   0  0  0  0  0  0  0  0  0  0  0  0
   -0.9406  -14.6953   26.9284 C   0  0  0  0  0  0  0  0  0  0  0  0
   -0.3905  -15.7313   27.8554 C   0  0  2  0  0  0  0  0  0  0  0  0
   -1.5387  -16.5608   27.4203 C   0  0  0  0  0  0  0  0  0  0  0  0
   -0.3146  -15.3293   29.2282 N   0  0  0  0  0  0  0  0  0  0  0  0
    0.8727  -15.4928   29.9743 C   0  0  0  0  0  0  0  0  0  0  0  0
    1.8692  -15.9665   29.3791 O   0  0  0  0  0  0  0  0  0  0  0  0
    0.9759  -15.1367   31.3863 C   0  0  0  0  0  0  0  0  0  0  0  0
    2.2765  -14.7431   31.8477 N   0  0  0  0  0  0  0  0  0  0  0  0
    3.1685  -15.5390   32.5283 C   0  0  0  0  0  0  0  0  0  0  0  0
    2.8650  -16.9383   32.8801 C   0  0  2  0  0  0  0  0  0  0  0  0
    3.7515  -18.0675   32.4357 C   0  0  0  0  0  0  0  0  0  0  0  0
    2.4604  -17.8481   31.7217 C   0  0  0  0  0  0  0  0  0  0  0  0
    4.3167  -14.8421   32.8083 C   0  0  0  0  0  0  0  0  0  0  0  0
    5.5215  -15.2632   33.5004 C   0  0  0  0  0  0  0  0  0  0  0  0
    6.5385  -15.5198   32.8188 O   0  0  0  0  0  0  0  0  0  0  0  0
    5.5754  -15.3876   34.8970 N   0  0  0  0  0  0  0  0  0  0  0  0
    4.5085  -14.9064   35.7726 C   0  0  0  0  0  0  0  0  0  0  0  0
    4.8425  -15.1271   37.2225 C   0  0  0  0  0  0  0  0  0  0  0  0
    6.2590  -14.7434   37.5277 C   0  0  0  0  0  0  0  0  0  0  0  0
    6.6088  -13.9856   38.6099 C   0  0  0  0  0  0  0  0  0  0  0  0
    5.6351  -13.5353   39.4821 O   0  0  0  0  0  0  0  0  0  0  0  0
    5.1291  -12.2191   39.4074 C   0  0  0  0  0  0  0  0  0  0  0  0
    7.9269  -13.6648   38.8389 C   0  0  0  0  0  0  0  0  0  0  0  0
    8.9101  -14.1201   37.9549 C   0  0  0  0  0  0  0  0  0  0  0  0
    8.5281  -14.8792   36.8767 C   0  0  0  0  0  0  0  0  0  0  0  0
    7.2294  -15.1908   36.6574 C   0  0  0  0  0  0  0  0  0  0  0  0
    6.7252  -16.0140   35.5119 C   0  0  0  0  0  0  0  0  0  0  0  0
    4.0936  -13.5835   32.2713 C   0  0  0  0  0  0  0  0  0  0  0  0
    4.9418  -12.4965   32.2785 C   0  0  0  0  0  0  0  0  0  0  0  0
    4.5355  -11.3085   31.6814 C   0  0  0  0  0  0  0  0  0  0  0  0
    5.6378   -9.9456   31.7098 Cl  0  0  0  0  0  0  0  0  0  0  0  0
    3.3009  -11.2661   31.1066 C   0  0  0  0  0  0  0  0  0  0  0  0
    2.4263  -12.3429   31.0835 C   0  0  0  0  0  0  0  0  0  0  0  0
    1.1088  -12.2484   30.4481 C   0  0  0  0  0  0  0  0  0  0  0  0
    2.8225  -13.5261   31.6747 C   0  0  0  0  0  0  0  0  0  0  0  0
  1  2  1  0
  2  3  1  0
  3  4  2  0
  3  5  1  0
  5  6  1  0
  5  8  1  0
  6  7  1  0
  7  8  1  0
  7  9  1  1
  9 10  1  0
 10 11  2  0
 10 12  1  0
 12 13  1  0
 13 14  1  0
 13 40  1  0
 15 14  1  6
 14 18  2  0
 15 16  1  0
 15 17  1  0
 16 17  1  0
 18 19  1  0
 18 33  1  0
 19 20  2  0
 19 21  1  0
 21 22  1  0
 21 32  1  0
 22 23  1  0
 23 24  1  0
 24 25  2  0
 24 31  1  0
 25 26  1  0
 25 28  1  0
 26 27  1  0
 28 29  2  0
 29 30  1  0
 30 31  2  0
 31 32  1  0
 33 34  2  0
 33 40  1  0
 34 35  1  0
 35 36  1  0
 35 37  2  0
 37 38  1  0
 38 39  1  0
 38 40  2  0
M  END
$$$$
