
     RDKit          3D

 40 45  0  0  0  0  0  0  0  0999 V2000
    0.4256  -13.8613   28.4880 C   0  0  0  0  0  0  0  0  0  0  0  0
    1.3040  -14.2692   29.6521 C   0  0  0  0  0  0  0  0  0  0  0  0
    1.2431  -13.2019   30.6800 C   0  0  0  0  0  0  0  0  0  0  0  0
    1.6844  -12.0350   30.4331 O   0  0  0  0  0  0  0  0  0  0  0  0
    0.6885  -13.4459   31.9823 N   0  0  0  0  0  0  0  0  0  0  0  0
    0.0804  -14.5967   32.6243 C   0  0  0  0  0  0  0  0  0  0  0  0
    0.2591  -13.9440   33.9574 C   0  0  2  0  0  0  0  0  0  0  0  0
    0.4853  -12.6992   33.1859 C   0  0  0  0  0  0  0  0  0  0  0  0
    1.3347  -14.4696   34.7440 N   0  0  0  0  0  0  0  0  0  0  0  0
    1.6062  -15.8545   34.7805 C   0  0  0  0  0  0  0  0  0  0  0  0
    0.6417  -16.6376   34.6123 O   0  0  0  0  0  0  0  0  0  0  0  0
    2.9444  -16.3935   35.0036 C   0  0  0  0  0  0  0  0  0  0  0  0
    4.0292  -15.6625   34.4136 N   0  0  0  0  0  0  0  0  0  0  0  0
    4.4448  -15.7476   33.1050 C   0  0  0  0  0  0  0  0  0  0  0  0
    3.7982  -16.6458   32.1308 C   0  0  2  0  0  0  0  0  0  0  0  0
    4.2155  -18.0829   31.9936 C   0  0  0  0  0  0  0  0  0  0  0  0
    4.6682  -17.1050   30.9623 C   0  0  0  0  0  0  0  0  0  0  0  0
    5.5044  -14.9048   32.8822 C   0  0  0  0  0  0  0  0  0  0  0  0
    6.2645  -14.6575   31.6702 C   0  0  0  0  0  0  0  0  0  0  0  0
    5.6932  -14.0803   30.7189 O   0  0  0  0  0  0  0  0  0  0  0  0
    7.6073  -15.0431   31.5394 N   0  0  0  0  0  0  0  0  0  0  0  0
    8.4819  -14.5106   30.4964 C   0  0  0  0  0  0  0  0  0  0  0  0
    9.8536  -15.1247   30.5594 C   0  0  0  0  0  0  0  0  0  0  0  0
    9.7858  -16.6085   30.7607 C   0  0  0  0  0  0  0  0  0  0  0  0
   10.5300  -17.4938   30.0325 C   0  0  0  0  0  0  0  0  0  0  0  0
   11.3941  -17.0320   29.0570 O   0  0  0  0  0  0  0  0  0  0  0  0
   12.6897  -16.5705   29.3773 C   0  0  0  0  0  0  0  0  0  0  0  0
   10.4254  -18.8462   30.2624 C   0  0  0  0  0  0  0  0  0  0  0  0
    9.5500  -19.3115   31.2487 C   0  0  0  0  0  0  0  0  0  0  0  0
    8.8156  -18.3982   31.9635 C   0  0  0  0  0  0  0  0  0  0  0  0
    8.9233  -17.0691   31.7320 C   0  0  0  0  0  0  0  0  0  0  0  0
    8.1648  -16.0053   32.4647 C   0  0  0  0  0  0  0  0  0  0  0  0
    5.7233  -14.2974   34.1093 C   0  0  0  0  0  0  0  0  0  0  0  0
    6.6793  -13.3574   34.4310 C   0  0  0  0  0  0  0  0  0  0  0  0
    6.7405  -12.8611   35.7282 C   0  0  0  0  0  0  0  0  0  0  0  0
    7.9689  -11.6680   36.1037 Cl  0  0  0  0  0  0  0  0  0  0  0  0
    5.8427  -13.3296   36.6398 C   0  0  0  0  0  0  0  0  0  0  0  0
    4.8702  -14.2743   36.3456 C   0  0  0  0  0  0  0  0  0  0  0  0
    3.9237  -14.7438   37.3616 C   0  0  0  0  0  0  0  0  0  0  0  0
    4.8032  -14.7720   35.0595 C   0  0  0  0  0  0  0  0  0  0  0  0
  1  2  1  0
  2  3  1  0
  3  4  2  0
  3  5  1  0
  5  6  1  0
  5  8  1  0
  6  7  1  0
  7  8  1  0
  7  9  1  6
  9 10  1  0
 10 11  2  0
 10 12  1  0
 12 13  1  0
 13 14  1  0
 13 40  1  0
 15 14  1  1
 14 18  2  0
 15 16  1  0
 15 17  1  0
 16 17  1  0
 18 19  1  0
 18 33  1  0
 19 20  2  0
 19 21  1  0
 21 22  1  0
 21 32  1  0
 22 23  1  0
 23 24  1  0
 24 25  2  0
 24 31  1  0
 25 26  1  0
 25 28  1  0
 26 27  1  0
 28 29  2  0
 29 30  1  0
 30 31  2  0
 31 32  1  0
 33 34  2  0
 33 40  1  0
 34 35  1  0
 35 36  1  0
 35 37  2  0
 37 38  1  0
 38 39  1  0
 38 40  2  0
M  END
$$$$
