
     RDKit          3D

 40 45  0  0  0  0  0  0  0  0999 V2000
   -2.3037  -14.7786   29.0339 C   0  0  0  0  0  0  0  0  0  0  0  0
   -2.3449  -13.8765   30.2494 C   0  0  0  0  0  0  0  0  0  0  0  0
   -2.6378  -14.7102   31.4405 C   0  0  0  0  0  0  0  0  0  0  0  0
   -3.5825  -15.5614   31.4224 O   0  0  0  0  0  0  0  0  0  0  0  0
   -1.8714  -14.5867   32.6490 N   0  0  0  0  0  0  0  0  0  0  0  0
   -1.8929  -15.2598   33.9346 C   0  0  0  0  0  0  0  0  0  0  0  0
   -0.5358  -14.7121   34.2408 C   0  0  2  0  0  0  0  0  0  0  0  0
   -0.7897  -13.7770   33.1197 C   0  0  0  0  0  0  0  0  0  0  0  0
    0.5344  -15.6564   34.1188 N   0  0  0  0  0  0  0  0  0  0  0  0
    1.8766  -15.2727   34.3289 C   0  0  0  0  0  0  0  0  0  0  0  0
    2.0936  -14.0814   34.6537 O   0  0  0  0  0  0  0  0  0  0  0  0
    2.9967  -16.1975   34.1827 C   0  0  0  0  0  0  0  0  0  0  0  0
    4.2785  -15.6058   33.9256 N   0  0  0  0  0  0  0  0  0  0  0  0
    4.8827  -15.4876   32.6954 C   0  0  0  0  0  0  0  0  0  0  0  0
    4.2545  -15.9877   31.4588 C   0  0  2  0  0  0  0  0  0  0  0  0
    4.1061  -15.1123   30.2464 C   0  0  0  0  0  0  0  0  0  0  0  0
    2.9062  -15.3692   31.0944 C   0  0  0  0  0  0  0  0  0  0  0  0
    6.0995  -14.8651   32.8161 C   0  0  0  0  0  0  0  0  0  0  0  0
    7.0819  -14.5263   31.8023 C   0  0  0  0  0  0  0  0  0  0  0  0
    6.6929  -13.9258   30.7763 O   0  0  0  0  0  0  0  0  0  0  0  0
    8.4402  -14.8496   31.9414 N   0  0  0  0  0  0  0  0  0  0  0  0
    9.5058  -14.0518   31.3378 C   0  0  0  0  0  0  0  0  0  0  0  0
   10.8609  -14.6463   31.6074 C   0  0  0  0  0  0  0  0  0  0  0  0
   10.8631  -16.1313   31.4035 C   0  0  0  0  0  0  0  0  0  0  0  0
   11.8365  -16.7854   30.7016 C   0  0  0  0  0  0  0  0  0  0  0  0
   12.8805  -16.0736   30.1403 O   0  0  0  0  0  0  0  0  0  0  0  0
   14.1072  -15.9044   30.8189 C   0  0  0  0  0  0  0  0  0  0  0  0
   11.7854  -18.1516   30.5475 C   0  0  0  0  0  0  0  0  0  0  0  0
   10.7281  -18.8696   31.1150 C   0  0  0  0  0  0  0  0  0  0  0  0
    9.7653  -18.1849   31.8141 C   0  0  0  0  0  0  0  0  0  0  0  0
    9.8217  -16.8407   31.9617 C   0  0  0  0  0  0  0  0  0  0  0  0
    8.8192  -16.0158   32.7088 C   0  0  0  0  0  0  0  0  0  0  0  0
    6.2186  -14.6052   34.1729 C   0  0  0  0  0  0  0  0  0  0  0  0
    7.2623  -13.9880   34.8291 C   0  0  0  0  0  0  0  0  0  0  0  0
    7.1968  -13.8153   36.2071 C   0  0  0  0  0  0  0  0  0  0  0  0
    8.5417  -13.0280   37.0101 Cl  0  0  0  0  0  0  0  0  0  0  0  0
    6.0906  -14.2686   36.8609 C   0  0  0  0  0  0  0  0  0  0  0  0
    5.0254  -14.8927   36.2279 C   0  0  0  0  0  0  0  0  0  0  0  0
    3.8545  -15.3595   36.9760 C   0  0  0  0  0  0  0  0  0  0  0  0
    5.0832  -15.0680   34.8596 C   0  0  0  0  0  0  0  0  0  0  0  0
  1  2  1  0
  2  3  1  0
  3  4  2  0
  3  5  1  0
  5  6  1  0
  5  8  1  0
  6  7  1  0
  7  8  1  0
  7  9  1  6
  9 10  1  0
 10 11  2  0
 10 12  1  0
 12 13  1  0
 13 14  1  0
 13 40  1  0
 15 14  1  1
 14 18  2  0
 15 16  1  0
 15 17  1  0
 16 17  1  0
 18 19  1  0
 18 33  1  0
 19 20  2  0
 19 21  1  0
 21 22  1  0
 21 32  1  0
 22 23  1  0
 23 24  1  0
 24 25  2  0
 24 31  1  0
 25 26  1  0
 25 28  1  0
 26 27  1  0
 28 29  2  0
 29 30  1  0
 30 31  2  0
 31 32  1  0
 33 34  2  0
 33 40  1  0
 34 35  1  0
 35 36  1  0
 35 37  2  0
 37 38  1  0
 38 39  1  0
 38 40  2  0
M  END
$$$$
