
     RDKit          3D

 40 45  0  0  0  0  0  0  0  0999 V2000
   16.2796  -27.9572   27.3106 C   0  0  0  0  0  0  0  0  0  0  0  0
   16.1689  -26.5454   26.8313 C   0  0  0  0  0  0  0  0  0  0  0  0
   17.4283  -25.8117   26.9969 C   0  0  0  0  0  0  0  0  0  0  0  0
   18.0809  -26.0985   28.0713 O   0  0  0  0  0  0  0  0  0  0  0  0
   17.9267  -24.8653   26.0924 N   0  0  0  0  0  0  0  0  0  0  0  0
   17.5130  -23.8095   25.2077 C   0  0  0  0  0  0  0  0  0  0  0  0
   18.8790  -23.1114   25.4110 C   0  0  2  0  0  0  0  0  0  0  0  0
   19.3085  -24.5551   25.6364 C   0  0  0  0  0  0  0  0  0  0  0  0
   18.8500  -22.3589   26.6232 N   0  0  0  0  0  0  0  0  0  0  0  0
   18.9291  -20.9495   26.7318 C   0  0  0  0  0  0  0  0  0  0  0  0
   19.6614  -20.4340   27.5875 O   0  0  0  0  0  0  0  0  0  0  0  0
   18.1085  -20.1557   25.7884 C   0  0  0  0  0  0  0  0  0  0  0  0
   17.0185  -19.4473   26.3562 N   0  0  0  0  0  0  0  0  0  0  0  0
   15.7019  -19.8489   26.2213 C   0  0  0  0  0  0  0  0  0  0  0  0
   15.2793  -21.0527   25.4836 C   0  0  2  0  0  0  0  0  0  0  0  0
   15.2792  -22.4120   26.0045 C   0  0  0  0  0  0  0  0  0  0  0  0
   16.2897  -22.0123   24.9229 C   0  0  0  0  0  0  0  0  0  0  0  0
   14.9059  -18.9521   26.8646 C   0  0  0  0  0  0  0  0  0  0  0  0
   13.4634  -18.8874   27.0422 C   0  0  0  0  0  0  0  0  0  0  0  0
   12.7292  -18.3965   26.1292 O   0  0  0  0  0  0  0  0  0  0  0  0
   12.7681  -19.3356   28.1856 N   0  0  0  0  0  0  0  0  0  0  0  0
   13.2625  -20.4040   29.0626 C   0  0  0  0  0  0  0  0  0  0  0  0
   12.2770  -21.5458   29.0923 C   0  0  0  0  0  0  0  0  0  0  0  0
   10.8817  -21.1259   29.1255 C   0  0  0  0  0  0  0  0  0  0  0  0
    9.8978  -22.0797   29.4201 C   0  0  0  0  0  0  0  0  0  0  0  0
   10.2759  -23.3868   29.6689 O   0  0  0  0  0  0  0  0  0  0  0  0
   10.5216  -24.2652   28.5981 C   0  0  0  0  0  0  0  0  0  0  0  0
    8.5726  -21.7239   29.4622 C   0  0  0  0  0  0  0  0  0  0  0  0
    8.2042  -20.4350   29.2162 C   0  0  0  0  0  0  0  0  0  0  0  0
    9.1800  -19.4850   28.9230 C   0  0  0  0  0  0  0  0  0  0  0  0
   10.5079  -19.8367   28.8799 C   0  0  0  0  0  0  0  0  0  0  0  0
   11.4966  -18.7829   28.5542 C   0  0  0  0  0  0  0  0  0  0  0  0
   15.7566  -17.9784   27.4081 C   0  0  0  0  0  0  0  0  0  0  0  0
   15.4665  -16.8448   28.1569 C   0  0  0  0  0  0  0  0  0  0  0  0
   16.4995  -16.0502   28.5680 C   0  0  0  0  0  0  0  0  0  0  0  0
   16.1440  -14.6318   29.5090 Cl  0  0  0  0  0  0  0  0  0  0  0  0
   17.7903  -16.3875   28.2344 C   0  0  0  0  0  0  0  0  0  0  0  0
   18.1101  -17.5099   27.4893 C   0  0  0  0  0  0  0  0  0  0  0  0
   19.5068  -17.8302   27.1337 C   0  0  0  0  0  0  0  0  0  0  0  0
   17.0630  -18.3216   27.0694 C   0  0  0  0  0  0  0  0  0  0  0  0
  1  2  1  6
  2  3  1  6
  3  4  2  0
  3  5  1  0
  6  5  1  1
  8  5  1  1
  6  7  1  0
  7  8  1  0
  7  9  1  1
  9 10  1  0
 10 11  2  0
 10 12  1  0
 12 13  1  6
 13 14  1  0
 13 40  1  0
 15 14  1  1
 14 18  2  0
 16 15  1  1
 15 17  1  0
 17 16  1  6
 18 19  1  0
 18 33  1  0
 19 20  2  0
 19 21  1  0
 22 21  1  1
 32 21  1  1
 22 23  1  0
 23 24  1  6
 24 25  2  0
 24 31  1  0
 25 26  1  0
 25 28  1  0
 27 26  1  6
 28 29  2  0
 29 30  1  0
 30 31  2  0
 31 32  1  0
 33 34  2  0
 33 40  1  0
 34 35  1  0
 35 36  1  0
 35 37  2  0
 37 38  1  0
 39 38  1  6
 38 40  2  0
M  END
$$$$
