
     RDKit          3D

 40 45  0  0  0  0  0  0  0  0999 V2000
   -1.1733  -14.0460   29.5741 C   0  0  0  0  0  0  0  0  0  0  0  0
    0.2506  -14.4447   29.3531 C   0  0  0  0  0  0  0  0  0  0  0  0
    0.8090  -15.1441   30.5153 C   0  0  0  0  0  0  0  0  0  0  0  0
    2.0973  -15.1796   30.5541 O   0  0  0  0  0  0  0  0  0  0  0  0
    0.0494  -15.7432   31.5284 N   0  0  0  0  0  0  0  0  0  0  0  0
   -0.1275  -16.9833   32.2353 C   0  0  0  0  0  0  0  0  0  0  0  0
   -0.6116  -16.1993   33.4784 C   0  0  2  0  0  0  0  0  0  0  0  0
   -1.0447  -15.2233   32.3923 C   0  0  0  0  0  0  0  0  0  0  0  0
    0.5190  -15.7285   34.2109 N   0  0  0  0  0  0  0  0  0  0  0  0
    0.7218  -14.4054   34.6722 C   0  0  0  0  0  0  0  0  0  0  0  0
   -0.1527  -13.5464   34.4945 O   0  0  0  0  0  0  0  0  0  0  0  0
    2.0031  -14.1221   35.3587 C   0  0  0  0  0  0  0  0  0  0  0  0
    3.1735  -14.2451   34.5666 N   0  0  0  0  0  0  0  0  0  0  0  0
    4.1303  -15.2216   34.7761 C   0  0  0  0  0  0  0  0  0  0  0  0
    4.0454  -16.2447   35.8335 C   0  0  2  0  0  0  0  0  0  0  0  0
    2.8284  -16.9089   36.2774 C   0  0  0  0  0  0  0  0  0  0  0  0
    3.5266  -15.9041   37.2013 C   0  0  0  0  0  0  0  0  0  0  0  0
    5.1264  -15.0569   33.8638 C   0  0  0  0  0  0  0  0  0  0  0  0
    6.3589  -15.7935   33.6291 C   0  0  0  0  0  0  0  0  0  0  0  0
    6.8879  -16.4679   34.5665 O   0  0  0  0  0  0  0  0  0  0  0  0
    7.0582  -15.8308   32.4039 N   0  0  0  0  0  0  0  0  0  0  0  0
    6.3994  -15.7281   31.0960 C   0  0  0  0  0  0  0  0  0  0  0  0
    6.6685  -16.9698   30.2827 C   0  0  0  0  0  0  0  0  0  0  0  0
    8.0292  -17.4775   30.4056 C   0  0  0  0  0  0  0  0  0  0  0  0
    8.4673  -18.4564   29.5033 C   0  0  0  0  0  0  0  0  0  0  0  0
    7.6004  -18.9125   28.5266 O   0  0  0  0  0  0  0  0  0  0  0  0
    6.5528  -19.7873   28.8670 C   0  0  0  0  0  0  0  0  0  0  0  0
    9.7421  -18.9592   29.5850 C   0  0  0  0  0  0  0  0  0  0  0  0
   10.5931  -18.5074   30.5489 C   0  0  0  0  0  0  0  0  0  0  0  0
   10.1602  -17.5345   31.4472 C   0  0  0  0  0  0  0  0  0  0  0  0
    8.8849  -17.0282   31.3690 C   0  0  0  0  0  0  0  0  0  0  0  0
    8.4818  -16.0020   32.3582 C   0  0  0  0  0  0  0  0  0  0  0  0
    4.7697  -13.9531   33.0755 C   0  0  0  0  0  0  0  0  0  0  0  0
    5.4283  -13.3588   32.0063 C   0  0  0  0  0  0  0  0  0  0  0  0
    4.8532  -12.2749   31.4045 C   0  0  0  0  0  0  0  0  0  0  0  0
    5.6701  -11.5284   30.0632 Cl  0  0  0  0  0  0  0  0  0  0  0  0
    3.6474  -11.8017   31.8664 C   0  0  0  0  0  0  0  0  0  0  0  0
    2.9683  -12.3725   32.9296 C   0  0  0  0  0  0  0  0  0  0  0  0
    1.6842  -11.8251   33.4105 C   0  0  0  0  0  0  0  0  0  0  0  0
    3.5486  -13.4755   33.5444 C   0  0  0  0  0  0  0  0  0  0  0  0
  1  2  1  6
  2  3  1  6
  3  4  2  0
  3  5  1  0
  6  5  1  1
  8  5  1  1
  6  7  1  0
  7  8  1  0
  7  9  1  1
  9 10  1  0
 10 11  2  0
 10 12  1  0
 12 13  1  6
 13 14  1  0
 13 40  1  0
 15 14  1  6
 14 18  2  0
 16 15  1  1
 15 17  1  0
 17 16  1  6
 18 19  1  0
 18 33  1  0
 19 20  2  0
 19 21  1  0
 22 21  1  1
 32 21  1  1
 22 23  1  0
 23 24  1  6
 24 25  2  0
 24 31  1  0
 25 26  1  0
 25 28  1  0
 27 26  1  6
 28 29  2  0
 29 30  1  0
 30 31  2  0
 31 32  1  0
 33 34  2  0
 33 40  1  0
 34 35  1  0
 35 36  1  0
 35 37  2  0
 37 38  1  0
 39 38  1  6
 38 40  2  0
M  END
$$$$
