
     RDKit          3D

 40 45  0  0  0  0  0  0  0  0999 V2000
   -3.1997  -14.0170   26.0690 C   0  0  0  0  0  0  0  0  0  0  0  0
   -3.0482  -14.9926   27.2172 C   0  0  0  0  0  0  0  0  0  0  0  0
   -2.1560  -16.0938   26.7801 C   0  0  0  0  0  0  0  0  0  0  0  0
   -2.2842  -16.6165   25.6279 O   0  0  0  0  0  0  0  0  0  0  0  0
   -1.1231  -16.6065   27.6364 N   0  0  0  0  0  0  0  0  0  0  0  0
   -0.0905  -17.6151   27.4850 C   0  0  0  0  0  0  0  0  0  0  0  0
    0.6117  -17.0729   28.6884 C   0  0  2  0  0  0  0  0  0  0  0  0
   -0.6635  -16.3730   28.9712 C   0  0  0  0  0  0  0  0  0  0  0  0
    1.7763  -16.2896   28.4019 N   0  0  0  0  0  0  0  0  0  0  0  0
    2.7855  -16.0974   29.3701 C   0  0  0  0  0  0  0  0  0  0  0  0
    2.6918  -16.7447   30.4397 O   0  0  0  0  0  0  0  0  0  0  0  0
    3.9105  -15.1884   29.1716 C   0  0  0  0  0  0  0  0  0  0  0  0
    4.8342  -15.0742   30.2639 N   0  0  0  0  0  0  0  0  0  0  0  0
    4.6831  -14.2709   31.3704 C   0  0  0  0  0  0  0  0  0  0  0  0
    3.5102  -13.3965   31.5538 C   0  0  2  0  0  0  0  0  0  0  0  0
    3.6587  -11.9091   31.7079 C   0  0  0  0  0  0  0  0  0  0  0  0
    3.3787  -12.7296   32.9216 C   0  0  0  0  0  0  0  0  0  0  0  0
    5.7526  -14.4151   32.2177 C   0  0  0  0  0  0  0  0  0  0  0  0
    6.0284  -13.7784   33.4930 C   0  0  0  0  0  0  0  0  0  0  0  0
    6.0041  -12.5291   33.5502 O   0  0  0  0  0  0  0  0  0  0  0  0
    6.3171  -14.5183   34.6498 N   0  0  0  0  0  0  0  0  0  0  0  0
    5.6210  -15.7589   34.9857 C   0  0  0  0  0  0  0  0  0  0  0  0
    6.0956  -16.3203   36.2980 C   0  0  0  0  0  0  0  0  0  0  0  0
    6.2195  -15.2528   37.3430 C   0  0  0  0  0  0  0  0  0  0  0  0
    5.7372  -15.3950   38.6139 C   0  0  0  0  0  0  0  0  0  0  0  0
    5.0996  -16.5645   38.9843 O   0  0  0  0  0  0  0  0  0  0  0  0
    5.7786  -17.5848   39.6858 C   0  0  0  0  0  0  0  0  0  0  0  0
    5.8805  -14.3795   39.5310 C   0  0  0  0  0  0  0  0  0  0  0  0
    6.5246  -13.1969   39.1540 C   0  0  0  0  0  0  0  0  0  0  0  0
    6.9983  -13.0834   37.8706 C   0  0  0  0  0  0  0  0  0  0  0  0
    6.8536  -14.0864   36.9734 C   0  0  0  0  0  0  0  0  0  0  0  0
    7.3412  -14.0492   35.5575 C   0  0  0  0  0  0  0  0  0  0  0  0
    6.5684  -15.3412   31.5857 C   0  0  0  0  0  0  0  0  0  0  0  0
    7.7780  -15.8407   32.0198 C   0  0  0  0  0  0  0  0  0  0  0  0
    8.4523  -16.7727   31.2392 C   0  0  0  0  0  0  0  0  0  0  0  0
    9.9885  -17.3862   31.8199 Cl  0  0  0  0  0  0  0  0  0  0  0  0
    7.8838  -17.1592   30.0628 C   0  0  0  0  0  0  0  0  0  0  0  0
    6.6687  -16.6746   29.6004 C   0  0  0  0  0  0  0  0  0  0  0  0
    6.0964  -17.1252   28.3285 C   0  0  0  0  0  0  0  0  0  0  0  0
    5.9931  -15.7485   30.3700 C   0  0  0  0  0  0  0  0  0  0  0  0
  1  2  1  0
  2  3  1  0
  3  4  2  0
  3  5  1  0
  5  6  1  0
  5  8  1  0
  6  7  1  0
  7  8  1  0
  7  9  1  6
  9 10  1  0
 10 11  2  0
 10 12  1  0
 12 13  1  0
 13 14  1  0
 13 40  1  0
 15 14  1  1
 14 18  2  0
 15 16  1  0
 15 17  1  0
 16 17  1  0
 18 19  1  0
 18 33  1  0
 19 20  2  0
 19 21  1  0
 21 22  1  0
 21 32  1  0
 22 23  1  0
 23 24  1  0
 24 25  2  0
 24 31  1  0
 25 26  1  0
 25 28  1  0
 26 27  1  0
 28 29  2  0
 29 30  1  0
 30 31  2  0
 31 32  1  0
 33 34  2  0
 33 40  1  0
 34 35  1  0
 35 36  1  0
 35 37  2  0
 37 38  1  0
 38 39  1  0
 38 40  2  0
M  END
$$$$
