
     RDKit          3D

 40 45  0  0  0  0  0  0  0  0999 V2000
    9.4381  -24.0320   26.2495 C   0  0  0  0  0  0  0  0  0  0  0  0
   10.7297  -23.2813   26.3087 C   0  0  0  0  0  0  0  0  0  0  0  0
   11.8085  -23.9944   25.6162 C   0  0  0  0  0  0  0  0  0  0  0  0
   12.1352  -25.1229   26.1474 O   0  0  0  0  0  0  0  0  0  0  0  0
   12.4646  -23.5312   24.4686 N   0  0  0  0  0  0  0  0  0  0  0  0
   13.0138  -22.3421   23.8742 C   0  0  0  0  0  0  0  0  0  0  0  0
   14.0373  -23.2078   23.1013 C   0  0  2  0  0  0  0  0  0  0  0  0
   12.9083  -24.2222   23.2280 C   0  0  0  0  0  0  0  0  0  0  0  0
   15.1391  -23.5134   23.9553 N   0  0  0  0  0  0  0  0  0  0  0  0
   16.4547  -23.0047   23.8335 C   0  0  0  0  0  0  0  0  0  0  0  0
   16.7420  -22.2475   22.8964 O   0  0  0  0  0  0  0  0  0  0  0  0
   17.4339  -23.4205   24.8637 C   0  0  0  0  0  0  0  0  0  0  0  0
   17.4089  -22.6870   26.0777 N   0  0  0  0  0  0  0  0  0  0  0  0
   18.0639  -21.4807   26.2470 C   0  0  0  0  0  0  0  0  0  0  0  0
   18.8534  -20.8171   25.1943 C   0  0  2  0  0  0  0  0  0  0  0  0
   18.4517  -20.6577   23.8042 C   0  0  0  0  0  0  0  0  0  0  0  0
   19.5935  -21.6169   24.1606 C   0  0  0  0  0  0  0  0  0  0  0  0
   17.8560  -21.0483   27.5204 C   0  0  0  0  0  0  0  0  0  0  0  0
   18.3023  -19.8566   28.2257 C   0  0  0  0  0  0  0  0  0  0  0  0
   19.5362  -19.5565   28.2546 O   0  0  0  0  0  0  0  0  0  0  0  0
   17.4577  -18.9610   28.9156 N   0  0  0  0  0  0  0  0  0  0  0  0
   15.9925  -19.0469   28.8829 C   0  0  0  0  0  0  0  0  0  0  0  0
   15.4129  -17.7776   28.3097 C   0  0  0  0  0  0  0  0  0  0  0  0
   16.0890  -16.5637   28.7499 C   0  0  0  0  0  0  0  0  0  0  0  0
   15.4821  -15.3255   28.4989 C   0  0  0  0  0  0  0  0  0  0  0  0
   14.2650  -15.2896   27.8427 O   0  0  0  0  0  0  0  0  0  0  0  0
   13.1471  -14.7025   28.4627 C   0  0  0  0  0  0  0  0  0  0  0  0
   16.0862  -14.1594   28.8987 C   0  0  0  0  0  0  0  0  0  0  0  0
   17.2855  -14.1991   29.5448 C   0  0  0  0  0  0  0  0  0  0  0  0
   17.8910  -15.4284   29.7954 C   0  0  0  0  0  0  0  0  0  0  0  0
   17.2899  -16.5984   29.3971 C   0  0  0  0  0  0  0  0  0  0  0  0
   17.9880  -17.8726   29.6852 C   0  0  0  0  0  0  0  0  0  0  0  0
   17.0526  -22.0131   28.1455 C   0  0  0  0  0  0  0  0  0  0  0  0
   16.5483  -22.0653   29.4389 C   0  0  0  0  0  0  0  0  0  0  0  0
   15.7800  -23.1367   29.7988 C   0  0  0  0  0  0  0  0  0  0  0  0
   15.1422  -23.2066   31.4150 Cl  0  0  0  0  0  0  0  0  0  0  0  0
   15.5260  -24.1292   28.8814 C   0  0  0  0  0  0  0  0  0  0  0  0
   16.0151  -24.1049   27.5862 C   0  0  0  0  0  0  0  0  0  0  0  0
   15.7375  -25.1985   26.6340 C   0  0  0  0  0  0  0  0  0  0  0  0
   16.7963  -23.0171   27.2151 C   0  0  0  0  0  0  0  0  0  0  0  0
  1  2  1  6
  2  3  1  6
  3  4  2  0
  3  5  1  0
  6  5  1  1
  8  5  1  1
  6  7  1  0
  7  8  1  0
  7  9  1  1
  9 10  1  0
 10 11  2  0
 10 12  1  0
 12 13  1  6
 13 14  1  0
 13 40  1  0
 15 14  1  1
 14 18  2  0
 16 15  1  1
 15 17  1  0
 17 16  1  6
 18 19  1  0
 18 33  1  0
 19 20  2  0
 19 21  1  0
 22 21  1  1
 32 21  1  1
 22 23  1  0
 23 24  1  6
 24 25  2  0
 24 31  1  0
 25 26  1  0
 25 28  1  0
 27 26  1  6
 28 29  2  0
 29 30  1  0
 30 31  2  0
 31 32  1  0
 33 34  2  0
 33 40  1  0
 34 35  1  0
 35 36  1  0
 35 37  2  0
 37 38  1  0
 39 38  1  6
 38 40  2  0
M  END
$$$$
