
     RDKit          3D

 40 45  0  0  0  0  0  0  0  0999 V2000
    5.3240  -23.5021   26.1682 C   0  0  0  0  0  0  0  0  0  0  0  0
    6.1831  -24.6695   26.5349 C   0  0  0  0  0  0  0  0  0  0  0  0
    7.5770  -24.4733   26.1221 C   0  0  0  0  0  0  0  0  0  0  0  0
    7.7605  -24.4383   24.8464 O   0  0  0  0  0  0  0  0  0  0  0  0
    8.6583  -24.3311   27.0011 N   0  0  0  0  0  0  0  0  0  0  0  0
   10.0909  -24.2063   27.0312 C   0  0  0  0  0  0  0  0  0  0  0  0
    9.9871  -23.3944   28.3444 C   0  0  2  0  0  0  0  0  0  0  0  0
    8.7309  -24.2441   28.4846 C   0  0  0  0  0  0  0  0  0  0  0  0
    9.6894  -22.0331   28.0368 N   0  0  0  0  0  0  0  0  0  0  0  0
   10.3489  -20.8960   28.5626 C   0  0  0  0  0  0  0  0  0  0  0  0
   11.1909  -21.0283   29.4613 O   0  0  0  0  0  0  0  0  0  0  0  0
    9.9815  -19.5810   27.9889 C   0  0  0  0  0  0  0  0  0  0  0  0
    9.8648  -18.5104   28.9122 N   0  0  0  0  0  0  0  0  0  0  0  0
    8.6530  -18.0739   29.4160 C   0  0  0  0  0  0  0  0  0  0  0  0
    7.3514  -18.6675   29.0616 C   0  0  2  0  0  0  0  0  0  0  0  0
    7.1546  -19.9429   28.3879 C   0  0  0  0  0  0  0  0  0  0  0  0
    6.8449  -18.6363   27.6479 C   0  0  0  0  0  0  0  0  0  0  0  0
    8.8831  -17.0298   30.2579 C   0  0  0  0  0  0  0  0  0  0  0  0
    7.9835  -16.2068   31.0517 C   0  0  0  0  0  0  0  0  0  0  0  0
    6.8165  -15.9427   30.6255 O   0  0  0  0  0  0  0  0  0  0  0  0
    8.2977  -15.6445   32.3074 N   0  0  0  0  0  0  0  0  0  0  0  0
    8.9933  -16.3815   33.3696 C   0  0  0  0  0  0  0  0  0  0  0  0
    8.1248  -16.4564   34.6007 C   0  0  0  0  0  0  0  0  0  0  0  0
    7.3927  -15.2291   34.8873 C   0  0  0  0  0  0  0  0  0  0  0  0
    6.7696  -15.0919   36.1352 C   0  0  0  0  0  0  0  0  0  0  0  0
    6.8649  -16.1202   37.0555 O   0  0  0  0  0  0  0  0  0  0  0  0
    5.8057  -17.0338   37.2036 C   0  0  0  0  0  0  0  0  0  0  0  0
    6.0716  -13.9508   36.4440 C   0  0  0  0  0  0  0  0  0  0  0  0
    5.9798  -12.9401   35.5344 C   0  0  0  0  0  0  0  0  0  0  0  0
    6.5980  -13.0739   34.2932 C   0  0  0  0  0  0  0  0  0  0  0  0
    7.2980  -14.2144   33.9798 C   0  0  0  0  0  0  0  0  0  0  0  0
    7.9256  -14.2998   32.6408 C   0  0  0  0  0  0  0  0  0  0  0  0
   10.2702  -16.8232   30.2707 C   0  0  0  0  0  0  0  0  0  0  0  0
   11.0362  -15.8906   30.9588 C   0  0  0  0  0  0  0  0  0  0  0  0
   12.3922  -15.9049   30.7898 C   0  0  0  0  0  0  0  0  0  0  0  0
   13.3574  -14.7429   31.6511 Cl  0  0  0  0  0  0  0  0  0  0  0  0
   12.9623  -16.8331   29.9504 C   0  0  0  0  0  0  0  0  0  0  0  0
   12.2251  -17.7740   29.2513 C   0  0  0  0  0  0  0  0  0  0  0  0
   12.8703  -18.7434   28.3436 C   0  0  0  0  0  0  0  0  0  0  0  0
   10.8457  -17.7640   29.4205 C   0  0  0  0  0  0  0  0  0  0  0  0
  1  2  1  6
  2  3  1  6
  3  4  2  0
  3  5  1  0
  6  5  1  1
  8  5  1  1
  6  7  1  0
  7  8  1  0
  7  9  1  6
  9 10  1  0
 10 11  2  0
 10 12  1  0
 12 13  1  6
 13 14  1  0
 13 40  1  0
 15 14  1  6
 14 18  2  0
 16 15  1  1
 15 17  1  0
 17 16  1  6
 18 19  1  0
 18 33  1  0
 19 20  2  0
 19 21  1  0
 22 21  1  1
 32 21  1  1
 22 23  1  0
 23 24  1  6
 24 25  2  0
 24 31  1  0
 25 26  1  0
 25 28  1  0
 27 26  1  6
 28 29  2  0
 29 30  1  0
 30 31  2  0
 31 32  1  0
 33 34  2  0
 33 40  1  0
 34 35  1  0
 35 36  1  0
 35 37  2  0
 37 38  1  0
 39 38  1  6
 38 40  2  0
M  END
$$$$
