
     RDKit          3D

 40 45  0  0  0  0  0  0  0  0999 V2000
   17.5180  -17.4246   19.5660 C   0  0  0  0  0  0  0  0  0  0  0  0
   17.0412  -18.2982   20.6817 C   0  0  0  0  0  0  0  0  0  0  0  0
   18.1520  -18.9810   21.3540 C   0  0  0  0  0  0  0  0  0  0  0  0
   19.0769  -18.1983   21.7949 O   0  0  0  0  0  0  0  0  0  0  0  0
   18.2495  -20.3674   21.5285 N   0  0  0  0  0  0  0  0  0  0  0  0
   19.1812  -21.4078   21.8725 C   0  0  0  0  0  0  0  0  0  0  0  0
   18.0181  -22.2523   22.4455 C   0  0  2  0  0  0  0  0  0  0  0  0
   17.2489  -21.4605   21.3962 C   0  0  0  0  0  0  0  0  0  0  0  0
   17.7272  -21.8180   23.7734 N   0  0  0  0  0  0  0  0  0  0  0  0
   17.2048  -22.6193   24.8171 C   0  0  0  0  0  0  0  0  0  0  0  0
   16.6853  -23.7134   24.5577 O   0  0  0  0  0  0  0  0  0  0  0  0
   17.3152  -22.0851   26.1939 C   0  0  0  0  0  0  0  0  0  0  0  0
   16.2955  -21.1840   26.5950 N   0  0  0  0  0  0  0  0  0  0  0  0
   14.9745  -21.5596   26.7583 C   0  0  0  0  0  0  0  0  0  0  0  0
   14.4748  -22.9293   26.5429 C   0  0  2  0  0  0  0  0  0  0  0  0
   14.2988  -23.5760   25.2507 C   0  0  0  0  0  0  0  0  0  0  0  0
   13.0691  -23.1764   26.0747 C   0  0  0  0  0  0  0  0  0  0  0  0
   14.2547  -20.4665   27.1305 C   0  0  0  0  0  0  0  0  0  0  0  0
   12.8427  -20.2917   27.4345 C   0  0  0  0  0  0  0  0  0  0  0  0
   12.0095  -21.2059   27.1453 O   0  0  0  0  0  0  0  0  0  0  0  0
   12.2821  -19.1500   28.0458 N   0  0  0  0  0  0  0  0  0  0  0  0
   13.0820  -18.1275   28.7312 C   0  0  0  0  0  0  0  0  0  0  0  0
   12.6650  -18.0286   30.1776 C   0  0  0  0  0  0  0  0  0  0  0  0
   11.2266  -18.1304   30.3897 C   0  0  0  0  0  0  0  0  0  0  0  0
   10.7049  -17.7903   31.6454 C   0  0  0  0  0  0  0  0  0  0  0  0
   11.5651  -17.3707   32.6441 O   0  0  0  0  0  0  0  0  0  0  0  0
   12.2782  -18.3161   33.4031 C   0  0  0  0  0  0  0  0  0  0  0  0
    9.3556  -17.8716   31.8848 C   0  0  0  0  0  0  0  0  0  0  0  0
    8.5114  -18.2857   30.8982 C   0  0  0  0  0  0  0  0  0  0  0  0
    9.0273  -18.6245   29.6493 C   0  0  0  0  0  0  0  0  0  0  0  0
   10.3775  -18.5446   29.4051 C   0  0  0  0  0  0  0  0  0  0  0  0
   10.8651  -18.9266   28.0596 C   0  0  0  0  0  0  0  0  0  0  0  0
   15.1578  -19.3955   27.1981 C   0  0  0  0  0  0  0  0  0  0  0  0
   14.9514  -18.0620   27.5283 C   0  0  0  0  0  0  0  0  0  0  0  0
   16.0212  -17.2117   27.5155 C   0  0  0  0  0  0  0  0  0  0  0  0
   15.7708  -15.5420   27.9317 Cl  0  0  0  0  0  0  0  0  0  0  0  0
   17.2656  -17.6907   27.1792 C   0  0  0  0  0  0  0  0  0  0  0  0
   17.5018  -19.0135   26.8451 C   0  0  0  0  0  0  0  0  0  0  0  0
   18.8488  -19.4881   26.4706 C   0  0  0  0  0  0  0  0  0  0  0  0
   16.4172  -19.8824   26.8575 C   0  0  0  0  0  0  0  0  0  0  0  0
  1  2  1  6
  2  3  1  6
  3  4  2  0
  3  5  1  0
  6  5  1  1
  8  5  1  1
  6  7  1  0
  7  8  1  0
  7  9  1  1
  9 10  1  0
 10 11  2  0
 10 12  1  0
 12 13  1  6
 13 14  1  0
 13 40  1  0
 15 14  1  6
 14 18  2  0
 16 15  1  1
 15 17  1  0
 17 16  1  6
 18 19  1  0
 18 33  1  0
 19 20  2  0
 19 21  1  0
 22 21  1  1
 32 21  1  1
 22 23  1  0
 23 24  1  6
 24 25  2  0
 24 31  1  0
 25 26  1  0
 25 28  1  0
 27 26  1  6
 28 29  2  0
 29 30  1  0
 30 31  2  0
 31 32  1  0
 33 34  2  0
 33 40  1  0
 34 35  1  0
 35 36  1  0
 35 37  2  0
 37 38  1  0
 39 38  1  6
 38 40  2  0
M  END
$$$$
