
     RDKit          3D

 40 45  0  0  0  0  0  0  0  0999 V2000
   11.6126  -23.9155   18.0482 C   0  0  0  0  0  0  0  0  0  0  0  0
   11.8835  -24.4503   19.4388 C   0  0  0  0  0  0  0  0  0  0  0  0
   11.9941  -23.3001   20.3685 C   0  0  0  0  0  0  0  0  0  0  0  0
   10.9616  -22.6459   20.7197 O   0  0  0  0  0  0  0  0  0  0  0  0
   13.2619  -22.8859   20.9013 N   0  0  0  0  0  0  0  0  0  0  0  0
   13.7827  -21.6334   21.4175 C   0  0  0  0  0  0  0  0  0  0  0  0
   14.9277  -22.3681   22.0373 C   0  0  2  0  0  0  0  0  0  0  0  0
   14.5356  -23.4886   21.1503 C   0  0  0  0  0  0  0  0  0  0  0  0
   14.8292  -22.5476   23.4551 N   0  0  0  0  0  0  0  0  0  0  0  0
   15.8215  -22.0490   24.3267 C   0  0  0  0  0  0  0  0  0  0  0  0
   16.7872  -21.4359   23.8135 O   0  0  0  0  0  0  0  0  0  0  0  0
   15.7620  -22.2207   25.7752 C   0  0  0  0  0  0  0  0  0  0  0  0
   15.2564  -21.1070   26.5258 N   0  0  0  0  0  0  0  0  0  0  0  0
   13.9690  -20.9604   26.9877 C   0  0  0  0  0  0  0  0  0  0  0  0
   12.9244  -21.9711   26.7405 C   0  0  2  0  0  0  0  0  0  0  0  0
   11.4696  -21.6631   26.9573 C   0  0  0  0  0  0  0  0  0  0  0  0
   12.1856  -22.4871   27.9738 C   0  0  0  0  0  0  0  0  0  0  0  0
   13.8364  -19.7787   27.6722 C   0  0  0  0  0  0  0  0  0  0  0  0
   12.6772  -19.2038   28.3306 C   0  0  0  0  0  0  0  0  0  0  0  0
   11.6085  -19.1215   27.6858 O   0  0  0  0  0  0  0  0  0  0  0  0
   12.7227  -18.7445   29.6557 N   0  0  0  0  0  0  0  0  0  0  0  0
   13.8117  -19.0832   30.5700 C   0  0  0  0  0  0  0  0  0  0  0  0
   13.5879  -18.4961   31.9367 C   0  0  0  0  0  0  0  0  0  0  0  0
   12.1728  -18.6844   32.3937 C   0  0  0  0  0  0  0  0  0  0  0  0
   11.8468  -19.1313   33.6436 C   0  0  0  0  0  0  0  0  0  0  0  0
   12.8448  -19.4335   34.5515 O   0  0  0  0  0  0  0  0  0  0  0  0
   13.2662  -20.7635   34.7692 C   0  0  0  0  0  0  0  0  0  0  0  0
   10.5288  -19.2846   34.0068 C   0  0  0  0  0  0  0  0  0  0  0  0
    9.5209  -18.9795   33.0866 C   0  0  0  0  0  0  0  0  0  0  0  0
    9.8792  -18.5330   31.8390 C   0  0  0  0  0  0  0  0  0  0  0  0
   11.1780  -18.3847   31.4882 C   0  0  0  0  0  0  0  0  0  0  0  0
   11.6576  -17.9018   30.1538 C   0  0  0  0  0  0  0  0  0  0  0  0
   15.0968  -19.2042   27.6120 C   0  0  0  0  0  0  0  0  0  0  0  0
   15.5067  -18.0019   28.1483 C   0  0  0  0  0  0  0  0  0  0  0  0
   16.8251  -17.5932   27.9818 C   0  0  0  0  0  0  0  0  0  0  0  0
   17.3125  -16.0586   28.6752 Cl  0  0  0  0  0  0  0  0  0  0  0  0
   17.6686  -18.4070   27.2869 C   0  0  0  0  0  0  0  0  0  0  0  0
   17.2852  -19.6214   26.7364 C   0  0  0  0  0  0  0  0  0  0  0  0
   18.2323  -20.4637   26.0002 C   0  0  0  0  0  0  0  0  0  0  0  0
   15.9775  -20.0340   26.8973 C   0  0  0  0  0  0  0  0  0  0  0  0
  1  2  1  0
  2  3  1  0
  3  4  2  0
  3  5  1  0
  5  6  1  0
  5  8  1  0
  6  7  1  0
  7  8  1  0
  7  9  1  1
  9 10  1  0
 10 11  2  0
 10 12  1  0
 12 13  1  0
 13 14  1  0
 13 40  1  0
 15 14  1  1
 14 18  2  0
 15 16  1  0
 15 17  1  0
 16 17  1  0
 18 19  1  0
 18 33  1  0
 19 20  2  0
 19 21  1  0
 21 22  1  0
 21 32  1  0
 22 23  1  0
 23 24  1  0
 24 25  2  0
 24 31  1  0
 25 26  1  0
 25 28  1  0
 26 27  1  0
 28 29  2  0
 29 30  1  0
 30 31  2  0
 31 32  1  0
 33 34  2  0
 33 40  1  0
 34 35  1  0
 35 36  1  0
 35 37  2  0
 37 38  1  0
 38 39  1  0
 38 40  2  0
M  END
$$$$
