
     RDKit          3D

 40 45  0  0  0  0  0  0  0  0999 V2000
    8.2606  -24.4163   25.3482 C   0  0  0  0  0  0  0  0  0  0  0  0
    9.1322  -24.3287   24.1366 C   0  0  0  0  0  0  0  0  0  0  0  0
   10.5569  -24.3606   24.4849 C   0  0  0  0  0  0  0  0  0  0  0  0
   10.8717  -25.2300   25.3834 O   0  0  0  0  0  0  0  0  0  0  0  0
   11.5367  -23.5352   23.9186 N   0  0  0  0  0  0  0  0  0  0  0  0
   11.7114  -22.4439   22.9981 C   0  0  0  0  0  0  0  0  0  0  0  0
   12.9633  -21.9878   23.7850 C   0  0  2  0  0  0  0  0  0  0  0  0
   13.0132  -23.4786   24.0927 C   0  0  0  0  0  0  0  0  0  0  0  0
   12.5572  -21.2146   24.9136 N   0  0  0  0  0  0  0  0  0  0  0  0
   13.3571  -20.8959   26.0374 C   0  0  0  0  0  0  0  0  0  0  0  0
   14.5282  -20.5246   25.8793 O   0  0  0  0  0  0  0  0  0  0  0  0
   12.7263  -21.0294   27.3707 C   0  0  0  0  0  0  0  0  0  0  0  0
   12.4660  -19.8169   28.0597 N   0  0  0  0  0  0  0  0  0  0  0  0
   11.2085  -19.2466   28.1398 C   0  0  0  0  0  0  0  0  0  0  0  0
    9.9997  -19.8284   27.5296 C   0  0  2  0  0  0  0  0  0  0  0  0
    9.8551  -21.2039   27.0755 C   0  0  0  0  0  0  0  0  0  0  0  0
    9.9173  -20.0667   26.0489 C   0  0  0  0  0  0  0  0  0  0  0  0
   11.3003  -18.0903   28.8511 C   0  0  0  0  0  0  0  0  0  0  0  0
   10.3005  -17.1061   29.2368 C   0  0  0  0  0  0  0  0  0  0  0  0
    9.9387  -16.2078   28.4148 O   0  0  0  0  0  0  0  0  0  0  0  0
    9.6659  -17.0484   30.4959 N   0  0  0  0  0  0  0  0  0  0  0  0
    9.5287  -18.2094   31.3838 C   0  0  0  0  0  0  0  0  0  0  0  0
    8.0697  -18.4954   31.6390 C   0  0  0  0  0  0  0  0  0  0  0  0
    7.2536  -17.3020   31.8241 C   0  0  0  0  0  0  0  0  0  0  0  0
    5.9526  -17.4463   32.3252 C   0  0  0  0  0  0  0  0  0  0  0  0
    5.4809  -18.7110   32.6279 O   0  0  0  0  0  0  0  0  0  0  0  0
    6.0579  -19.4453   33.6797 C   0  0  0  0  0  0  0  0  0  0  0  0
    5.1528  -16.3468   32.5149 C   0  0  0  0  0  0  0  0  0  0  0  0
    5.6213  -15.1026   32.2152 C   0  0  0  0  0  0  0  0  0  0  0  0
    6.9139  -14.9563   31.7168 C   0  0  0  0  0  0  0  0  0  0  0  0
    7.7182  -16.0542   31.5254 C   0  0  0  0  0  0  0  0  0  0  0  0
    9.0795  -15.8338   30.9847 C   0  0  0  0  0  0  0  0  0  0  0  0
   12.6470  -17.9501   29.2168 C   0  0  0  0  0  0  0  0  0  0  0  0
   13.2839  -16.9542   29.9465 C   0  0  0  0  0  0  0  0  0  0  0  0
   14.6291  -17.0602   30.1630 C   0  0  0  0  0  0  0  0  0  0  0  0
   15.4319  -15.8193   31.0789 Cl  0  0  0  0  0  0  0  0  0  0  0  0
   15.3152  -18.1400   29.6583 C   0  0  0  0  0  0  0  0  0  0  0  0
   14.7082  -19.1472   28.9273 C   0  0  0  0  0  0  0  0  0  0  0  0
   15.4808  -20.2822   28.3845 C   0  0  0  0  0  0  0  0  0  0  0  0
   13.3401  -19.0443   28.7052 C   0  0  0  0  0  0  0  0  0  0  0  0
  1  2  1  6
  2  3  1  6
  3  4  2  0
  3  5  1  0
  6  5  1  1
  8  5  1  1
  6  7  1  0
  7  8  1  0
  7  9  1  1
  9 10  1  0
 10 11  2  0
 10 12  1  0
 12 13  1  6
 13 14  1  0
 13 40  1  0
 15 14  1  6
 14 18  2  0
 16 15  1  1
 15 17  1  0
 17 16  1  6
 18 19  1  0
 18 33  1  0
 19 20  2  0
 19 21  1  0
 22 21  1  1
 32 21  1  1
 22 23  1  0
 23 24  1  6
 24 25  2  0
 24 31  1  0
 25 26  1  0
 25 28  1  0
 27 26  1  6
 28 29  2  0
 29 30  1  0
 30 31  2  0
 31 32  1  0
 33 34  2  0
 33 40  1  0
 34 35  1  0
 35 36  1  0
 35 37  2  0
 37 38  1  0
 39 38  1  6
 38 40  2  0
M  END
$$$$
