
     RDKit          3D

 40 45  0  0  0  0  0  0  0  0999 V2000
   17.7967  -25.6458   27.8328 C   0  0  0  0  0  0  0  0  0  0  0  0
   19.2914  -25.6128   27.8284 C   0  0  0  0  0  0  0  0  0  0  0  0
   19.8076  -24.2839   27.4826 C   0  0  0  0  0  0  0  0  0  0  0  0
   19.5891  -23.9221   26.2645 O   0  0  0  0  0  0  0  0  0  0  0  0
   20.4902  -23.4372   28.3653 N   0  0  0  0  0  0  0  0  0  0  0  0
   21.2580  -22.2218   28.4107 C   0  0  0  0  0  0  0  0  0  0  0  0
   20.7760  -21.9780   29.8608 C   0  0  2  0  0  0  0  0  0  0  0  0
   20.7093  -23.4994   29.8356 C   0  0  0  0  0  0  0  0  0  0  0  0
   19.4815  -21.3780   29.8346 N   0  0  0  0  0  0  0  0  0  0  0  0
   19.0266  -20.3392   30.6822 C   0  0  0  0  0  0  0  0  0  0  0  0
   19.8356  -19.7018   31.3703 O   0  0  0  0  0  0  0  0  0  0  0  0
   17.5702  -20.0707   30.6938 C   0  0  0  0  0  0  0  0  0  0  0  0
   17.0269  -19.5357   29.4976 N   0  0  0  0  0  0  0  0  0  0  0  0
   16.2806  -20.2829   28.6046 C   0  0  0  0  0  0  0  0  0  0  0  0
   15.9589  -21.7090   28.7908 C   0  0  2  0  0  0  0  0  0  0  0  0
   14.9411  -22.2405   29.6858 C   0  0  0  0  0  0  0  0  0  0  0  0
   16.4246  -22.4557   30.0081 C   0  0  0  0  0  0  0  0  0  0  0  0
   15.9244  -19.4850   27.5615 C   0  0  0  0  0  0  0  0  0  0  0  0
   15.1457  -19.7471   26.3608 C   0  0  0  0  0  0  0  0  0  0  0  0
   14.7237  -18.7824   25.6503 O   0  0  0  0  0  0  0  0  0  0  0  0
   14.7947  -21.0297   25.8882 N   0  0  0  0  0  0  0  0  0  0  0  0
   15.6856  -22.1932   25.9765 C   0  0  0  0  0  0  0  0  0  0  0  0
   15.9800  -22.7247   24.5957 C   0  0  0  0  0  0  0  0  0  0  0  0
   14.8309  -22.7191   23.6991 C   0  0  0  0  0  0  0  0  0  0  0  0
   14.9146  -23.4265   22.4920 C   0  0  0  0  0  0  0  0  0  0  0  0
   16.0798  -24.1060   22.1857 O   0  0  0  0  0  0  0  0  0  0  0  0
   16.3031  -24.5669   20.8756 C   0  0  0  0  0  0  0  0  0  0  0  0
   13.8536  -23.4468   21.6210 C   0  0  0  0  0  0  0  0  0  0  0  0
   12.7074  -22.7757   21.9264 C   0  0  0  0  0  0  0  0  0  0  0  0
   12.6216  -22.0717   23.1255 C   0  0  0  0  0  0  0  0  0  0  0  0
   13.6812  -22.0487   24.0005 C   0  0  0  0  0  0  0  0  0  0  0  0
   13.5312  -21.2753   25.2548 C   0  0  0  0  0  0  0  0  0  0  0  0
   16.4648  -18.2175   27.8233 C   0  0  0  0  0  0  0  0  0  0  0  0
   16.4014  -17.0411   27.0871 C   0  0  0  0  0  0  0  0  0  0  0  0
   17.0268  -15.9287   27.5762 C   0  0  0  0  0  0  0  0  0  0  0  0
   16.9482  -14.4518   26.6618 Cl  0  0  0  0  0  0  0  0  0  0  0  0
   17.6982  -15.9984   28.7743 C   0  0  0  0  0  0  0  0  0  0  0  0
   17.7791  -17.1562   29.5296 C   0  0  0  0  0  0  0  0  0  0  0  0
   18.5254  -17.1986   30.8028 C   0  0  0  0  0  0  0  0  0  0  0  0
   17.1440  -18.2900   29.0368 C   0  0  0  0  0  0  0  0  0  0  0  0
  1  2  1  6
  2  3  1  6
  3  4  2  0
  3  5  1  0
  6  5  1  1
  8  5  1  1
  6  7  1  0
  7  8  1  0
  7  9  1  6
  9 10  1  0
 10 11  2  0
 10 12  1  0
 12 13  1  6
 13 14  1  0
 13 40  1  0
 15 14  1  1
 14 18  2  0
 16 15  1  1
 15 17  1  0
 17 16  1  6
 18 19  1  0
 18 33  1  0
 19 20  2  0
 19 21  1  0
 22 21  1  1
 32 21  1  1
 22 23  1  0
 23 24  1  6
 24 25  2  0
 24 31  1  0
 25 26  1  0
 25 28  1  0
 27 26  1  6
 28 29  2  0
 29 30  1  0
 30 31  2  0
 31 32  1  0
 33 34  2  0
 33 40  1  0
 34 35  1  0
 35 36  1  0
 35 37  2  0
 37 38  1  0
 39 38  1  6
 38 40  2  0
M  END
$$$$
