
     RDKit          3D

 40 45  0  0  0  0  0  0  0  0999 V2000
    1.0589  -19.9551   37.6941 C   0  0  0  0  0  0  0  0  0  0  0  0
    1.1272  -18.7213   36.8525 C   0  0  0  0  0  0  0  0  0  0  0  0
    1.3365  -17.5172   37.6639 C   0  0  0  0  0  0  0  0  0  0  0  0
    0.3898  -17.2611   38.5009 O   0  0  0  0  0  0  0  0  0  0  0  0
    2.4549  -16.6785   37.5755 N   0  0  0  0  0  0  0  0  0  0  0  0
    3.8847  -16.6690   37.7312 C   0  0  0  0  0  0  0  0  0  0  0  0
    3.9858  -15.5340   36.6843 C   0  0  2  0  0  0  0  0  0  0  0  0
    2.5946  -15.2383   37.2292 C   0  0  0  0  0  0  0  0  0  0  0  0
    3.9463  -16.0951   35.3728 N   0  0  0  0  0  0  0  0  0  0  0  0
    3.4201  -15.4728   34.2151 C   0  0  0  0  0  0  0  0  0  0  0  0
    2.2996  -15.7923   33.7949 O   0  0  0  0  0  0  0  0  0  0  0  0
    4.2655  -14.4487   33.5596 C   0  0  0  0  0  0  0  0  0  0  0  0
    5.2734  -14.9383   32.6895 N   0  0  0  0  0  0  0  0  0  0  0  0
    4.9980  -15.6588   31.5415 C   0  0  0  0  0  0  0  0  0  0  0  0
    3.6371  -15.9952   31.0866 C   0  0  2  0  0  0  0  0  0  0  0  0
    3.0329  -15.5746   29.8306 C   0  0  0  0  0  0  0  0  0  0  0  0
    2.5265  -14.9860   31.1527 C   0  0  0  0  0  0  0  0  0  0  0  0
    6.1746  -15.9911   30.9442 C   0  0  0  0  0  0  0  0  0  0  0  0
    6.4700  -16.7316   29.7272 C   0  0  0  0  0  0  0  0  0  0  0  0
    5.9522  -16.3773   28.6228 O   0  0  0  0  0  0  0  0  0  0  0  0
    7.3137  -17.8603   29.6517 N   0  0  0  0  0  0  0  0  0  0  0  0
    7.9939  -18.4380   30.8174 C   0  0  0  0  0  0  0  0  0  0  0  0
    9.4884  -18.3980   30.6160 C   0  0  0  0  0  0  0  0  0  0  0  0
    9.9140  -18.7155   29.2586 C   0  0  0  0  0  0  0  0  0  0  0  0
   11.2718  -18.9678   29.0198 C   0  0  0  0  0  0  0  0  0  0  0  0
   12.1664  -18.9077   30.0731 O   0  0  0  0  0  0  0  0  0  0  0  0
   12.5558  -20.0862   30.7350 C   0  0  0  0  0  0  0  0  0  0  0  0
   11.7125  -19.2715   27.7556 C   0  0  0  0  0  0  0  0  0  0  0  0
   10.8279  -19.3294   26.7204 C   0  0  0  0  0  0  0  0  0  0  0  0
    9.4777  -19.0790   26.9550 C   0  0  0  0  0  0  0  0  0  0  0  0
    9.0321  -18.7746   28.2190 C   0  0  0  0  0  0  0  0  0  0  0  0
    7.5862  -18.5102   28.4022 C   0  0  0  0  0  0  0  0  0  0  0  0
    7.1954  -15.4595   31.7457 C   0  0  0  0  0  0  0  0  0  0  0  0
    8.5757  -15.5067   31.5960 C   0  0  0  0  0  0  0  0  0  0  0  0
    9.3572  -14.8977   32.5374 C   0  0  0  0  0  0  0  0  0  0  0  0
   11.0856  -14.9494   32.3542 Cl  0  0  0  0  0  0  0  0  0  0  0  0
    8.7651  -14.2583   33.6012 C   0  0  0  0  0  0  0  0  0  0  0  0
    7.3931  -14.1952   33.7773 C   0  0  0  0  0  0  0  0  0  0  0  0
    6.7933  -13.5158   34.9428 C   0  0  0  0  0  0  0  0  0  0  0  0
    6.5941  -14.8123   32.8222 C   0  0  0  0  0  0  0  0  0  0  0  0
  1  2  1  6
  2  3  1  6
  3  4  2  0
  3  5  1  0
  6  5  1  1
  8  5  1  1
  6  7  1  0
  7  8  1  0
  7  9  1  6
  9 10  1  0
 10 11  2  0
 10 12  1  0
 12 13  1  6
 13 14  1  0
 13 40  1  0
 15 14  1  6
 14 18  2  0
 16 15  1  1
 15 17  1  0
 17 16  1  6
 18 19  1  0
 18 33  1  0
 19 20  2  0
 19 21  1  0
 22 21  1  1
 32 21  1  1
 22 23  1  0
 23 24  1  6
 24 25  2  0
 24 31  1  0
 25 26  1  0
 25 28  1  0
 27 26  1  6
 28 29  2  0
 29 30  1  0
 30 31  2  0
 31 32  1  0
 33 34  2  0
 33 40  1  0
 34 35  1  0
 35 36  1  0
 35 37  2  0
 37 38  1  0
 39 38  1  6
 38 40  2  0
M  END
$$$$
