
     RDKit          3D

 40 45  0  0  0  0  0  0  0  0999 V2000
   -1.0299  -13.9361   24.6293 C   0  0  0  0  0  0  0  0  0  0  0  0
   -1.9778  -13.8323   25.8056 C   0  0  0  0  0  0  0  0  0  0  0  0
   -1.8067  -15.0383   26.6516 C   0  0  0  0  0  0  0  0  0  0  0  0
   -2.0571  -16.1970   26.1908 O   0  0  0  0  0  0  0  0  0  0  0  0
   -1.3563  -14.9422   28.0120 N   0  0  0  0  0  0  0  0  0  0  0  0
   -0.9980  -15.9118   29.0307 C   0  0  0  0  0  0  0  0  0  0  0  0
   -0.3283  -14.8322   29.8189 C   0  0  2  0  0  0  0  0  0  0  0  0
   -1.0729  -13.8952   28.9452 C   0  0  0  0  0  0  0  0  0  0  0  0
    1.1027  -14.8414   29.7544 N   0  0  0  0  0  0  0  0  0  0  0  0
    1.8888  -14.6491   30.9112 C   0  0  0  0  0  0  0  0  0  0  0  0
    1.2883  -14.4093   31.9853 O   0  0  0  0  0  0  0  0  0  0  0  0
    3.3469  -14.7182   30.8982 C   0  0  0  0  0  0  0  0  0  0  0  0
    3.9818  -14.9603   32.1621 N   0  0  0  0  0  0  0  0  0  0  0  0
    4.2350  -16.1933   32.7171 C   0  0  0  0  0  0  0  0  0  0  0  0
    3.8548  -17.4507   32.0476 C   0  0  2  0  0  0  0  0  0  0  0  0
    4.7780  -18.1311   31.0765 C   0  0  0  0  0  0  0  0  0  0  0  0
    3.6169  -17.3628   30.5413 C   0  0  0  0  0  0  0  0  0  0  0  0
    4.8607  -16.0542   33.9303 C   0  0  0  0  0  0  0  0  0  0  0  0
    5.3171  -17.0635   34.8689 C   0  0  0  0  0  0  0  0  0  0  0  0
    6.2017  -17.8648   34.4950 O   0  0  0  0  0  0  0  0  0  0  0  0
    4.7992  -17.1621   36.1693 N   0  0  0  0  0  0  0  0  0  0  0  0
    3.7224  -16.3018   36.6558 C   0  0  0  0  0  0  0  0  0  0  0  0
    3.3921  -16.5910   38.0945 C   0  0  0  0  0  0  0  0  0  0  0  0
    4.6301  -16.7430   38.9258 C   0  0  0  0  0  0  0  0  0  0  0  0
    4.7911  -16.1369   40.1402 C   0  0  0  0  0  0  0  0  0  0  0  0
    3.7849  -15.3395   40.6534 O   0  0  0  0  0  0  0  0  0  0  0  0
    3.3138  -15.5048   41.9743 C   0  0  0  0  0  0  0  0  0  0  0  0
    5.9510  -16.3135   40.8585 C   0  0  0  0  0  0  0  0  0  0  0  0
    6.9680  -17.1194   40.3372 C   0  0  0  0  0  0  0  0  0  0  0  0
    6.7775  -17.7147   39.1150 C   0  0  0  0  0  0  0  0  0  0  0  0
    5.6338  -17.5365   38.4135 C   0  0  0  0  0  0  0  0  0  0  0  0
    5.3410  -18.1486   37.0781 C   0  0  0  0  0  0  0  0  0  0  0  0
    4.9818  -14.6832   34.0985 C   0  0  0  0  0  0  0  0  0  0  0  0
    5.5445  -14.0060   35.1595 C   0  0  0  0  0  0  0  0  0  0  0  0
    5.5738  -12.6161   35.1451 C   0  0  0  0  0  0  0  0  0  0  0  0
    6.2953  -11.7866   36.5106 Cl  0  0  0  0  0  0  0  0  0  0  0  0
    5.0386  -11.9720   34.0702 C   0  0  0  0  0  0  0  0  0  0  0  0
    4.4663  -12.6260   32.9887 C   0  0  0  0  0  0  0  0  0  0  0  0
    3.9070  -11.8871   31.8530 C   0  0  0  0  0  0  0  0  0  0  0  0
    4.4333  -14.0063   32.9959 C   0  0  0  0  0  0  0  0  0  0  0  0
  1  2  1  0
  2  3  1  0
  3  4  2  0
  3  5  1  0
  5  6  1  0
  5  8  1  0
  6  7  1  0
  7  8  1  0
  7  9  1  6
  9 10  1  0
 10 11  2  0
 10 12  1  0
 12 13  1  0
 13 14  1  0
 13 40  1  0
 15 14  1  6
 14 18  2  0
 15 16  1  0
 15 17  1  0
 16 17  1  0
 18 19  1  0
 18 33  1  0
 19 20  2  0
 19 21  1  0
 21 22  1  0
 21 32  1  0
 22 23  1  0
 23 24  1  0
 24 25  2  0
 24 31  1  0
 25 26  1  0
 25 28  1  0
 26 27  1  0
 28 29  2  0
 29 30  1  0
 30 31  2  0
 31 32  1  0
 33 34  2  0
 33 40  1  0
 34 35  1  0
 35 36  1  0
 35 37  2  0
 37 38  1  0
 38 39  1  0
 38 40  2  0
M  END
$$$$
