
     RDKit          3D

 40 45  0  0  0  0  0  0  0  0999 V2000
    2.9839  -19.4535   25.5554 C   0  0  0  0  0  0  0  0  0  0  0  0
    3.6518  -20.5233   26.3584 C   0  0  0  0  0  0  0  0  0  0  0  0
    3.1104  -20.6034   27.7194 C   0  0  0  0  0  0  0  0  0  0  0  0
    1.8233  -20.5756   27.7890 O   0  0  0  0  0  0  0  0  0  0  0  0
    3.8843  -20.7021   28.8827 N   0  0  0  0  0  0  0  0  0  0  0  0
    5.2366  -20.8857   29.3371 C   0  0  0  0  0  0  0  0  0  0  0  0
    4.9097  -20.0811   30.6179 C   0  0  2  0  0  0  0  0  0  0  0  0
    3.5253  -20.6448   30.3254 C   0  0  0  0  0  0  0  0  0  0  0  0
    4.9975  -18.6851   30.3351 N   0  0  0  0  0  0  0  0  0  0  0  0
    5.9108  -17.7725   30.9161 C   0  0  0  0  0  0  0  0  0  0  0  0
    6.7790  -18.1792   31.7002 O   0  0  0  0  0  0  0  0  0  0  0  0
    5.7680  -16.3474   30.5393 C   0  0  0  0  0  0  0  0  0  0  0  0
    5.3257  -15.4740   31.5660 N   0  0  0  0  0  0  0  0  0  0  0  0
    4.0844  -14.8640   31.5584 C   0  0  0  0  0  0  0  0  0  0  0  0
    3.0806  -15.0519   30.4958 C   0  0  2  0  0  0  0  0  0  0  0  0
    2.5971  -14.0186   29.5915 C   0  0  0  0  0  0  0  0  0  0  0  0
    1.6663  -14.5784   30.6737 C   0  0  0  0  0  0  0  0  0  0  0  0
    3.9770  -14.0833   32.6677 C   0  0  0  0  0  0  0  0  0  0  0  0
    2.9013  -13.2345   33.1567 C   0  0  0  0  0  0  0  0  0  0  0  0
    2.2775  -12.4701   32.3567 O   0  0  0  0  0  0  0  0  0  0  0  0
    2.4650  -13.1731   34.4973 N   0  0  0  0  0  0  0  0  0  0  0  0
    2.4752  -14.3290   35.4024 C   0  0  0  0  0  0  0  0  0  0  0  0
    1.0747  -14.6252   35.8783 C   0  0  0  0  0  0  0  0  0  0  0  0
    0.2852  -13.4373   36.1785 C   0  0  0  0  0  0  0  0  0  0  0  0
   -0.9229  -13.5889   36.8726 C   0  0  0  0  0  0  0  0  0  0  0  0
   -1.3315  -14.8552   37.2507 O   0  0  0  0  0  0  0  0  0  0  0  0
   -2.4498  -15.0138   38.0891 C   0  0  0  0  0  0  0  0  0  0  0  0
   -1.6947  -12.4947   37.1755 C   0  0  0  0  0  0  0  0  0  0  0  0
   -1.2888  -11.2488   36.8010 C   0  0  0  0  0  0  0  0  0  0  0  0
   -0.0884  -11.0953   36.1109 C   0  0  0  0  0  0  0  0  0  0  0  0
    0.6875  -12.1878   35.8056 C   0  0  0  0  0  0  0  0  0  0  0  0
    1.9486  -11.9600   35.0628 C   0  0  0  0  0  0  0  0  0  0  0  0
    5.1818  -14.2201   33.3725 C   0  0  0  0  0  0  0  0  0  0  0  0
    5.5979  -13.6445   34.5665 C   0  0  0  0  0  0  0  0  0  0  0  0
    6.8424  -13.9499   35.0414 C   0  0  0  0  0  0  0  0  0  0  0  0
    7.3681  -13.2361   36.5373 Cl  0  0  0  0  0  0  0  0  0  0  0  0
    7.6469  -14.8117   34.3334 C   0  0  0  0  0  0  0  0  0  0  0  0
    7.2601  -15.4000   33.1411 C   0  0  0  0  0  0  0  0  0  0  0  0
    8.1586  -16.3060   32.3984 C   0  0  0  0  0  0  0  0  0  0  0  0
    5.9950  -15.0931   32.6544 C   0  0  0  0  0  0  0  0  0  0  0  0
  1  2  1  6
  2  3  1  6
  3  4  2  0
  3  5  1  0
  6  5  1  1
  8  5  1  1
  6  7  1  0
  7  8  1  0
  7  9  1  6
  9 10  1  0
 10 11  2  0
 10 12  1  0
 12 13  1  6
 13 14  1  0
 13 40  1  0
 15 14  1  1
 14 18  2  0
 16 15  1  1
 15 17  1  0
 17 16  1  6
 18 19  1  0
 18 33  1  0
 19 20  2  0
 19 21  1  0
 22 21  1  1
 32 21  1  1
 22 23  1  0
 23 24  1  6
 24 25  2  0
 24 31  1  0
 25 26  1  0
 25 28  1  0
 27 26  1  6
 28 29  2  0
 29 30  1  0
 30 31  2  0
 31 32  1  0
 33 34  2  0
 33 40  1  0
 34 35  1  0
 35 36  1  0
 35 37  2  0
 37 38  1  0
 39 38  1  6
 38 40  2  0
M  END
$$$$
