
     RDKit          3D

 40 45  0  0  0  0  0  0  0  0999 V2000
    0.3394  -15.2013   37.2826 C   0  0  0  0  0  0  0  0  0  0  0  0
   -0.1236  -15.1053   35.8441 C   0  0  0  0  0  0  0  0  0  0  0  0
    0.0692  -16.4281   35.2018 C   0  0  0  0  0  0  0  0  0  0  0  0
   -0.9276  -17.1059   34.7965 O   0  0  0  0  0  0  0  0  0  0  0  0
    1.3789  -16.9879   35.0164 N   0  0  0  0  0  0  0  0  0  0  0  0
    1.8763  -18.2550   34.5132 C   0  0  0  0  0  0  0  0  0  0  0  0
    3.2388  -17.6578   34.3640 C   0  0  2  0  0  0  0  0  0  0  0  0
    2.7307  -16.5744   35.2381 C   0  0  0  0  0  0  0  0  0  0  0  0
    3.6098  -17.3373   33.0181 N   0  0  0  0  0  0  0  0  0  0  0  0
    4.8667  -16.7670   32.7213 C   0  0  0  0  0  0  0  0  0  0  0  0
    5.7213  -16.7415   33.6382 O   0  0  0  0  0  0  0  0  0  0  0  0
    5.1970  -16.2171   31.4099 C   0  0  0  0  0  0  0  0  0  0  0  0
    6.5842  -16.2406   31.0432 N   0  0  0  0  0  0  0  0  0  0  0  0
    7.1558  -17.0541   30.0925 C   0  0  0  0  0  0  0  0  0  0  0  0
    6.3713  -18.0378   29.3239 C   0  0  2  0  0  0  0  0  0  0  0  0
    5.4759  -19.0320   30.0079 C   0  0  0  0  0  0  0  0  0  0  0  0
    6.7904  -19.4984   29.4795 C   0  0  0  0  0  0  0  0  0  0  0  0
    8.5019  -16.8066   29.9957 C   0  0  0  0  0  0  0  0  0  0  0  0
    9.5055  -17.4128   29.1395 C   0  0  0  0  0  0  0  0  0  0  0  0
    9.1740  -17.7455   27.9802 O   0  0  0  0  0  0  0  0  0  0  0  0
   10.8222  -17.6318   29.5722 N   0  0  0  0  0  0  0  0  0  0  0  0
   11.3085  -17.1818   30.8751 C   0  0  0  0  0  0  0  0  0  0  0  0
   12.7647  -17.5081   31.0636 C   0  0  0  0  0  0  0  0  0  0  0  0
   13.5664  -17.1839   29.8392 C   0  0  0  0  0  0  0  0  0  0  0  0
   14.7546  -16.5099   29.8837 C   0  0  0  0  0  0  0  0  0  0  0  0
   15.2677  -16.0932   31.0980 O   0  0  0  0  0  0  0  0  0  0  0  0
   16.6298  -16.2730   31.4243 C   0  0  0  0  0  0  0  0  0  0  0  0
   15.4465  -16.2407   28.7254 C   0  0  0  0  0  0  0  0  0  0  0  0
   14.9253  -16.6621   27.4981 C   0  0  0  0  0  0  0  0  0  0  0  0
   13.7298  -17.3367   27.4853 C   0  0  0  0  0  0  0  0  0  0  0  0
   13.0542  -17.5979   28.6286 C   0  0  0  0  0  0  0  0  0  0  0  0
   11.7489  -18.3286   28.7072 C   0  0  0  0  0  0  0  0  0  0  0  0
    8.7345  -15.8063   30.9272 C   0  0  0  0  0  0  0  0  0  0  0  0
    9.9310  -15.1918   31.2300 C   0  0  0  0  0  0  0  0  0  0  0  0
    9.9628  -14.1993   32.2031 C   0  0  0  0  0  0  0  0  0  0  0  0
   11.5009  -13.4396   32.5644 Cl  0  0  0  0  0  0  0  0  0  0  0  0
    8.7962  -13.8704   32.8255 C   0  0  0  0  0  0  0  0  0  0  0  0
    7.5779  -14.4706   32.5421 C   0  0  0  0  0  0  0  0  0  0  0  0
    6.3486  -14.0782   33.2374 C   0  0  0  0  0  0  0  0  0  0  0  0
    7.5384  -15.4573   31.5771 C   0  0  0  0  0  0  0  0  0  0  0  0
  1  2  1  0
  2  3  1  0
  3  4  2  0
  3  5  1  0
  5  6  1  0
  5  8  1  0
  6  7  1  0
  7  8  1  0
  7  9  1  6
  9 10  1  0
 10 11  2  0
 10 12  1  0
 12 13  1  0
 13 14  1  0
 13 40  1  0
 15 14  1  1
 14 18  2  0
 15 16  1  0
 15 17  1  0
 16 17  1  0
 18 19  1  0
 18 33  1  0
 19 20  2  0
 19 21  1  0
 21 22  1  0
 21 32  1  0
 22 23  1  0
 23 24  1  0
 24 25  2  0
 24 31  1  0
 25 26  1  0
 25 28  1  0
 26 27  1  0
 28 29  2  0
 29 30  1  0
 30 31  2  0
 31 32  1  0
 33 34  2  0
 33 40  1  0
 34 35  1  0
 35 36  1  0
 35 37  2  0
 37 38  1  0
 38 39  1  0
 38 40  2  0
M  END
$$$$
