
     RDKit          3D

 40 45  0  0  0  0  0  0  0  0999 V2000
    7.8745  -23.9822   19.8276 C   0  0  0  0  0  0  0  0  0  0  0  0
    8.9693  -23.5925   20.7683 C   0  0  0  0  0  0  0  0  0  0  0  0
    8.5409  -23.6733   22.1689 C   0  0  0  0  0  0  0  0  0  0  0  0
    7.4088  -23.1091   22.4187 O   0  0  0  0  0  0  0  0  0  0  0  0
    9.2653  -24.2994   23.1913 N   0  0  0  0  0  0  0  0  0  0  0  0
   10.4543  -25.0714   23.4345 C   0  0  0  0  0  0  0  0  0  0  0  0
   10.5308  -24.4919   24.8673 C   0  0  2  0  0  0  0  0  0  0  0  0
    9.0246  -24.4157   24.6549 C   0  0  0  0  0  0  0  0  0  0  0  0
   11.1500  -23.2069   24.8256 N   0  0  0  0  0  0  0  0  0  0  0  0
   12.5074  -22.9256   25.1134 C   0  0  0  0  0  0  0  0  0  0  0  0
   13.2656  -23.8356   25.4754 O   0  0  0  0  0  0  0  0  0  0  0  0
   12.9497  -21.5207   24.9590 C   0  0  0  0  0  0  0  0  0  0  0  0
   13.7455  -20.9999   26.0117 N   0  0  0  0  0  0  0  0  0  0  0  0
   14.9237  -21.5893   26.4328 C   0  0  0  0  0  0  0  0  0  0  0  0
   15.4905  -22.8135   25.8394 C   0  0  2  0  0  0  0  0  0  0  0  0
   16.6024  -22.8668   24.9013 C   0  0  0  0  0  0  0  0  0  0  0  0
   15.1851  -23.1998   24.4204 C   0  0  0  0  0  0  0  0  0  0  0  0
   15.4316  -20.8583   27.4621 C   0  0  0  0  0  0  0  0  0  0  0  0
   16.6338  -21.0186   28.2657 C   0  0  0  0  0  0  0  0  0  0  0  0
   16.8872  -22.1331   28.8200 O   0  0  0  0  0  0  0  0  0  0  0  0
   17.5892  -20.0074   28.5026 N   0  0  0  0  0  0  0  0  0  0  0  0
   17.6226  -18.7401   27.7623 C   0  0  0  0  0  0  0  0  0  0  0  0
   18.9394  -18.5979   27.0402 C   0  0  0  0  0  0  0  0  0  0  0  0
   20.0908  -19.0550   27.8081 C   0  0  0  0  0  0  0  0  0  0  0  0
   21.3761  -18.7305   27.3530 C   0  0  0  0  0  0  0  0  0  0  0  0
   21.5160  -17.9901   26.1929 O   0  0  0  0  0  0  0  0  0  0  0  0
   21.6999  -16.5974   26.2637 C   0  0  0  0  0  0  0  0  0  0  0  0
   22.4862  -19.1412   28.0485 C   0  0  0  0  0  0  0  0  0  0  0  0
   22.3441  -19.8707   29.1909 C   0  0  0  0  0  0  0  0  0  0  0  0
   21.0677  -20.1948   29.6454 C   0  0  0  0  0  0  0  0  0  0  0  0
   19.9536  -19.7856   28.9524 C   0  0  0  0  0  0  0  0  0  0  0  0
   18.6247  -20.1692   29.4823 C   0  0  0  0  0  0  0  0  0  0  0  0
   14.5430  -19.7944   27.6752 C   0  0  0  0  0  0  0  0  0  0  0  0
   14.5837  -18.7573   28.5986 C   0  0  0  0  0  0  0  0  0  0  0  0
   13.5733  -17.8371   28.5941 C   0  0  0  0  0  0  0  0  0  0  0  0
   13.6200  -16.5340   29.7445 Cl  0  0  0  0  0  0  0  0  0  0  0  0
   12.5490  -17.9576   27.6844 C   0  0  0  0  0  0  0  0  0  0  0  0
   12.4810  -18.9801   26.7532 C   0  0  0  0  0  0  0  0  0  0  0  0
   11.3552  -19.0883   25.8041 C   0  0  0  0  0  0  0  0  0  0  0  0
   13.5067  -19.9179   26.7533 C   0  0  0  0  0  0  0  0  0  0  0  0
  1  2  1  6
  2  3  1  6
  3  4  2  0
  3  5  1  0
  6  5  1  1
  8  5  1  1
  6  7  1  0
  7  8  1  0
  7  9  1  6
  9 10  1  0
 10 11  2  0
 10 12  1  0
 12 13  1  6
 13 14  1  0
 13 40  1  0
 15 14  1  6
 14 18  2  0
 16 15  1  1
 15 17  1  0
 17 16  1  6
 18 19  1  0
 18 33  1  0
 19 20  2  0
 19 21  1  0
 22 21  1  1
 32 21  1  1
 22 23  1  0
 23 24  1  6
 24 25  2  0
 24 31  1  0
 25 26  1  0
 25 28  1  0
 27 26  1  6
 28 29  2  0
 29 30  1  0
 30 31  2  0
 31 32  1  0
 33 34  2  0
 33 40  1  0
 34 35  1  0
 35 36  1  0
 35 37  2  0
 37 38  1  0
 39 38  1  6
 38 40  2  0
M  END
$$$$
