
     RDKit          3D

 40 45  0  0  0  0  0  0  0  0999 V2000
   -3.4664  -12.2451   32.4961 C   0  0  0  0  0  0  0  0  0  0  0  0
   -3.2692  -12.9188   33.8379 C   0  0  0  0  0  0  0  0  0  0  0  0
   -2.5977  -14.2217   33.6126 C   0  0  0  0  0  0  0  0  0  0  0  0
   -3.1035  -15.0876   32.8304 O   0  0  0  0  0  0  0  0  0  0  0  0
   -1.3613  -14.5508   34.2653 N   0  0  0  0  0  0  0  0  0  0  0  0
   -0.4801  -15.7038   34.2425 C   0  0  0  0  0  0  0  0  0  0  0  0
    0.6034  -14.8845   34.8672 C   0  0  2  0  0  0  0  0  0  0  0  0
   -0.4757  -13.9244   35.1984 C   0  0  0  0  0  0  0  0  0  0  0  0
    1.6383  -14.4711   33.9672 N   0  0  0  0  0  0  0  0  0  0  0  0
    2.9940  -14.4715   34.3610 C   0  0  0  0  0  0  0  0  0  0  0  0
    3.4730  -13.3939   34.7867 O   0  0  0  0  0  0  0  0  0  0  0  0
    3.8390  -15.6599   34.2896 C   0  0  0  0  0  0  0  0  0  0  0  0
    5.0695  -15.5206   33.5647 N   0  0  0  0  0  0  0  0  0  0  0  0
    5.2822  -15.8834   32.2549 C   0  0  0  0  0  0  0  0  0  0  0  0
    4.2253  -16.4897   31.4247 C   0  0  2  0  0  0  0  0  0  0  0  0
    3.2200  -15.6434   30.6956 C   0  0  0  0  0  0  0  0  0  0  0  0
    2.7966  -16.3408   31.9443 C   0  0  0  0  0  0  0  0  0  0  0  0
    6.5727  -15.6030   31.8827 C   0  0  0  0  0  0  0  0  0  0  0  0
    7.2460  -15.8084   30.6129 C   0  0  0  0  0  0  0  0  0  0  0  0
    6.7212  -15.3370   29.5800 O   0  0  0  0  0  0  0  0  0  0  0  0
    8.4559  -16.5122   30.5147 N   0  0  0  0  0  0  0  0  0  0  0  0
    9.3443  -16.3945   29.3601 C   0  0  0  0  0  0  0  0  0  0  0  0
   10.5465  -17.2885   29.4951 C   0  0  0  0  0  0  0  0  0  0  0  0
   10.1671  -18.6547   29.9815 C   0  0  0  0  0  0  0  0  0  0  0  0
   10.6387  -19.8051   29.4138 C   0  0  0  0  0  0  0  0  0  0  0  0
   11.5064  -19.7403   28.3394 O   0  0  0  0  0  0  0  0  0  0  0  0
   12.8691  -20.0870   28.4696 C   0  0  0  0  0  0  0  0  0  0  0  0
   10.2548  -21.0319   29.9040 C   0  0  0  0  0  0  0  0  0  0  0  0
    9.3762  -21.0953   30.9901 C   0  0  0  0  0  0  0  0  0  0  0  0
    8.9193  -19.9229   31.5389 C   0  0  0  0  0  0  0  0  0  0  0  0
    9.3009  -18.7193   31.0515 C   0  0  0  0  0  0  0  0  0  0  0  0
    8.8554  -17.3942   31.5895 C   0  0  0  0  0  0  0  0  0  0  0  0
    7.1454  -15.0523   33.0191 C   0  0  0  0  0  0  0  0  0  0  0  0
    8.4361  -14.5953   33.1813 C   0  0  0  0  0  0  0  0  0  0  0  0
    8.8263  -14.0705   34.4082 C   0  0  0  0  0  0  0  0  0  0  0  0
   10.4749  -13.4999   34.5806 Cl  0  0  0  0  0  0  0  0  0  0  0  0
    7.9063  -14.0287   35.4124 C   0  0  0  0  0  0  0  0  0  0  0  0
    6.6013  -14.4804   35.2789 C   0  0  0  0  0  0  0  0  0  0  0  0
    5.6471  -14.4099   36.3893 C   0  0  0  0  0  0  0  0  0  0  0  0
    6.2064  -15.0032   34.0635 C   0  0  0  0  0  0  0  0  0  0  0  0
  1  2  1  0
  2  3  1  0
  3  4  2  0
  3  5  1  0
  5  6  1  0
  5  8  1  0
  6  7  1  0
  7  8  1  0
  7  9  1  6
  9 10  1  0
 10 11  2  0
 10 12  1  0
 12 13  1  0
 13 14  1  0
 13 40  1  0
 15 14  1  1
 14 18  2  0
 15 16  1  0
 15 17  1  0
 16 17  1  0
 18 19  1  0
 18 33  1  0
 19 20  2  0
 19 21  1  0
 21 22  1  0
 21 32  1  0
 22 23  1  0
 23 24  1  0
 24 25  2  0
 24 31  1  0
 25 26  1  0
 25 28  1  0
 26 27  1  0
 28 29  2  0
 29 30  1  0
 30 31  2  0
 31 32  1  0
 33 34  2  0
 33 40  1  0
 34 35  1  0
 35 36  1  0
 35 37  2  0
 37 38  1  0
 38 39  1  0
 38 40  2  0
M  END
$$$$
