
     RDKit          3D

 40 45  0  0  0  0  0  0  0  0999 V2000
   16.3959  -12.9293   28.8647 C   0  0  0  0  0  0  0  0  0  0  0  0
   15.6959  -14.1397   28.3353 C   0  0  0  0  0  0  0  0  0  0  0  0
   15.4307  -15.1231   29.3909 C   0  0  0  0  0  0  0  0  0  0  0  0
   16.2552  -15.0847   30.3815 O   0  0  0  0  0  0  0  0  0  0  0  0
   14.3819  -16.0515   29.3731 N   0  0  0  0  0  0  0  0  0  0  0  0
   13.4838  -16.7359   28.4823 C   0  0  0  0  0  0  0  0  0  0  0  0
   13.4131  -17.9219   29.4737 C   0  0  2  0  0  0  0  0  0  0  0  0
   13.6932  -16.7967   30.4612 C   0  0  0  0  0  0  0  0  0  0  0  0
   14.5457  -18.7683   29.2806 N   0  0  0  0  0  0  0  0  0  0  0  0
   14.5828  -20.1697   29.4786 C   0  0  0  0  0  0  0  0  0  0  0  0
   13.6663  -20.7334   30.0920 O   0  0  0  0  0  0  0  0  0  0  0  0
   15.7481  -20.8960   28.9237 C   0  0  0  0  0  0  0  0  0  0  0  0
   15.9515  -20.7696   27.5255 N   0  0  0  0  0  0  0  0  0  0  0  0
   15.1239  -21.3543   26.5842 C   0  0  0  0  0  0  0  0  0  0  0  0
   13.9399  -22.1655   26.9186 C   0  0  2  0  0  0  0  0  0  0  0  0
   12.7514  -21.6888   27.6111 C   0  0  0  0  0  0  0  0  0  0  0  0
   13.7073  -22.6562   28.3191 C   0  0  0  0  0  0  0  0  0  0  0  0
   15.5985  -21.0573   25.3439 C   0  0  0  0  0  0  0  0  0  0  0  0
   15.1231  -21.4057   24.0138 C   0  0  0  0  0  0  0  0  0  0  0  0
   15.3217  -20.6171   23.0380 O   0  0  0  0  0  0  0  0  0  0  0  0
   14.4274  -22.5894   23.6876 N   0  0  0  0  0  0  0  0  0  0  0  0
   14.5341  -23.8284   24.4679 C   0  0  0  0  0  0  0  0  0  0  0  0
   15.0659  -24.9417   23.5999 C   0  0  0  0  0  0  0  0  0  0  0  0
   14.5303  -24.9461   22.2443 C   0  0  0  0  0  0  0  0  0  0  0  0
   14.7438  -26.0732   21.4391 C   0  0  0  0  0  0  0  0  0  0  0  0
   15.4542  -27.1446   21.9498 O   0  0  0  0  0  0  0  0  0  0  0  0
   16.5851  -26.9204   22.7556 C   0  0  0  0  0  0  0  0  0  0  0  0
   14.2545  -26.1167   20.1571 C   0  0  0  0  0  0  0  0  0  0  0  0
   13.5552  -25.0590   19.6576 C   0  0  0  0  0  0  0  0  0  0  0  0
   13.3417  -23.9373   20.4557 C   0  0  0  0  0  0  0  0  0  0  0  0
   13.8297  -23.8894   21.7397 C   0  0  0  0  0  0  0  0  0  0  0  0
   13.5768  -22.6656   22.5349 C   0  0  0  0  0  0  0  0  0  0  0  0
   16.7441  -20.2700   25.5308 C   0  0  0  0  0  0  0  0  0  0  0  0
   17.6072  -19.7002   24.6033 C   0  0  0  0  0  0  0  0  0  0  0  0
   18.6667  -18.9674   25.0594 C   0  0  0  0  0  0  0  0  0  0  0  0
   19.7488  -18.2480   23.9039 Cl  0  0  0  0  0  0  0  0  0  0  0  0
   18.8528  -18.8123   26.4131 C   0  0  0  0  0  0  0  0  0  0  0  0
   18.0103  -19.3685   27.3608 C   0  0  0  0  0  0  0  0  0  0  0  0
   18.2524  -19.1967   28.8071 C   0  0  0  0  0  0  0  0  0  0  0  0
   16.9308  -20.1139   26.9019 C   0  0  0  0  0  0  0  0  0  0  0  0
  1  2  1  6
  2  3  1  6
  3  4  2  0
  3  5  1  0
  6  5  1  1
  8  5  1  1
  6  7  1  0
  7  8  1  0
  7  9  1  6
  9 10  1  0
 10 11  2  0
 10 12  1  0
 12 13  1  6
 13 14  1  0
 13 40  1  0
 15 14  1  1
 14 18  2  0
 16 15  1  1
 15 17  1  0
 17 16  1  6
 18 19  1  0
 18 33  1  0
 19 20  2  0
 19 21  1  0
 22 21  1  1
 32 21  1  1
 22 23  1  0
 23 24  1  6
 24 25  2  0
 24 31  1  0
 25 26  1  0
 25 28  1  0
 27 26  1  6
 28 29  2  0
 29 30  1  0
 30 31  2  0
 31 32  1  0
 33 34  2  0
 33 40  1  0
 34 35  1  0
 35 36  1  0
 35 37  2  0
 37 38  1  0
 39 38  1  6
 38 40  2  0
M  END
$$$$
