
     RDKit          3D

 40 45  0  0  0  0  0  0  0  0999 V2000
   -2.7954  -14.9613   32.7144 C   0  0  0  0  0  0  0  0  0  0  0  0
   -1.3481  -14.8747   33.0792 C   0  0  0  0  0  0  0  0  0  0  0  0
   -0.4940  -14.7284   31.8956 C   0  0  0  0  0  0  0  0  0  0  0  0
   -0.6550  -15.6415   30.9997 O   0  0  0  0  0  0  0  0  0  0  0  0
    0.4378  -13.7000   31.7047 N   0  0  0  0  0  0  0  0  0  0  0  0
    1.0448  -12.5775   32.3682 C   0  0  0  0  0  0  0  0  0  0  0  0
    2.3178  -12.7649   31.5088 C   0  0  2  0  0  0  0  0  0  0  0  0
    1.2862  -13.3286   30.5404 C   0  0  0  0  0  0  0  0  0  0  0  0
    3.1329  -13.7840   32.0863 N   0  0  0  0  0  0  0  0  0  0  0  0
    4.5080  -13.9990   31.8266 C   0  0  0  0  0  0  0  0  0  0  0  0
    5.1140  -13.2563   31.0421 O   0  0  0  0  0  0  0  0  0  0  0  0
    5.1556  -15.1305   32.5291 C   0  0  0  0  0  0  0  0  0  0  0  0
    6.2791  -15.7043   31.8804 N   0  0  0  0  0  0  0  0  0  0  0  0
    6.1871  -16.7831   31.0197 C   0  0  0  0  0  0  0  0  0  0  0  0
    4.9219  -17.4546   30.6727 C   0  0  2  0  0  0  0  0  0  0  0  0
    3.6508  -17.2797   31.3604 C   0  0  0  0  0  0  0  0  0  0  0  0
    4.4077  -18.6070   31.4874 C   0  0  0  0  0  0  0  0  0  0  0  0
    7.4365  -17.0974   30.5817 C   0  0  0  0  0  0  0  0  0  0  0  0
    7.9156  -18.1270   29.6723 C   0  0  0  0  0  0  0  0  0  0  0  0
    7.2844  -18.3739   28.5979 O   0  0  0  0  0  0  0  0  0  0  0  0
    9.0664  -18.9172   29.8791 N   0  0  0  0  0  0  0  0  0  0  0  0
   10.0224  -18.6802   30.9677 C   0  0  0  0  0  0  0  0  0  0  0  0
   11.3906  -18.3937   30.4008 C   0  0  0  0  0  0  0  0  0  0  0  0
   11.7428  -19.2189   29.2521 C   0  0  0  0  0  0  0  0  0  0  0  0
   13.0736  -19.2290   28.8123 C   0  0  0  0  0  0  0  0  0  0  0  0
   14.0112  -18.4586   29.4762 O   0  0  0  0  0  0  0  0  0  0  0  0
   15.0500  -19.0771   30.1951 C   0  0  0  0  0  0  0  0  0  0  0  0
   13.4458  -19.9940   27.7348 C   0  0  0  0  0  0  0  0  0  0  0  0
   12.5189  -20.7515   27.0833 C   0  0  0  0  0  0  0  0  0  0  0  0
   11.1955  -20.7432   27.5183 C   0  0  0  0  0  0  0  0  0  0  0  0
   10.8184  -19.9790   28.5965 C   0  0  0  0  0  0  0  0  0  0  0  0
    9.3948  -20.0063   29.0049 C   0  0  0  0  0  0  0  0  0  0  0  0
    8.3148  -16.1875   31.1881 C   0  0  0  0  0  0  0  0  0  0  0  0
    9.6946  -16.0622   31.0861 C   0  0  0  0  0  0  0  0  0  0  0  0
   10.3160  -15.0734   31.7959 C   0  0  0  0  0  0  0  0  0  0  0  0
   12.0424  -14.9082   31.6697 Cl  0  0  0  0  0  0  0  0  0  0  0  0
    9.5687  -14.2331   32.5874 C   0  0  0  0  0  0  0  0  0  0  0  0
    8.1931  -14.3340   32.7095 C   0  0  0  0  0  0  0  0  0  0  0  0
    7.4255  -13.4256   33.5844 C   0  0  0  0  0  0  0  0  0  0  0  0
    7.5563  -15.3375   31.9890 C   0  0  0  0  0  0  0  0  0  0  0  0
  1  2  1  6
  2  3  1  6
  3  4  2  0
  3  5  1  0
  6  5  1  1
  8  5  1  1
  6  7  1  0
  7  8  1  0
  7  9  1  1
  9 10  1  0
 10 11  2  0
 10 12  1  0
 12 13  1  6
 13 14  1  0
 13 40  1  0
 15 14  1  1
 14 18  2  0
 16 15  1  1
 15 17  1  0
 17 16  1  6
 18 19  1  0
 18 33  1  0
 19 20  2  0
 19 21  1  0
 22 21  1  1
 32 21  1  1
 22 23  1  0
 23 24  1  6
 24 25  2  0
 24 31  1  0
 25 26  1  0
 25 28  1  0
 27 26  1  6
 28 29  2  0
 29 30  1  0
 30 31  2  0
 31 32  1  0
 33 34  2  0
 33 40  1  0
 34 35  1  0
 35 36  1  0
 35 37  2  0
 37 38  1  0
 39 38  1  6
 38 40  2  0
M  END
$$$$
