
     RDKit          3D

 18 20  0  0  0  0  0  0  0  0999 V2000
   -5.4581    7.2417  -22.2835 C   0  0  0  0  0  0  0  0  0  0  0  0
   -5.3658    9.4173  -22.0682 C   0  0  0  0  0  0  0  0  0  0  0  0
   -2.0747    7.5395  -19.2796 C   0  0  0  0  0  0  0  0  0  0  0  0
   -6.5991    6.0563  -17.4071 N   0  0  0  0  0  0  0  0  0  0  0  0
   -5.2001    5.7980  -22.2194 C   0  0  0  0  0  0  0  0  0  0  0  0
   -6.4659    5.6286  -18.6740 C   0  0  0  0  0  0  0  0  0  0  0  0
   -5.4214    6.0975  -19.4558 C   0  0  0  0  0  0  0  0  0  0  0  0
   -1.3986    8.1177  -20.3042 N   0  0  0  0  0  0  0  0  0  0  0  0
   -4.7097    7.4016  -17.6306 C   0  0  0  0  0  0  0  0  0  0  0  0
   -4.5214    7.0028  -18.9292 C   0  0  0  0  0  0  0  0  0  0  0  0
   -3.4924    8.0910  -20.9496 C   0  0  0  0  0  0  0  0  0  0  0  0
   -4.9269   10.8046  -21.6831 C   0  0  0  0  0  0  0  0  0  0  0  0
   -4.7084    8.2548  -21.7256 C   0  0  0  0  0  0  0  0  0  0  0  0
   -5.7400    6.9409  -16.8551 C   0  0  0  0  0  0  0  0  0  0  0  0
   -2.2406    8.4414  -21.2876 N   0  0  0  0  0  0  0  0  0  0  0  0
   -3.4087    7.5258  -19.6977 C   0  0  0  0  0  0  0  0  0  0  0  0
   -6.4373    9.0786  -22.7867 N   0  0  0  0  0  0  0  0  0  0  0  0
   -6.4818    7.7937  -22.9072 O   0  0  0  0  0  0  0  0  0  0  0  0
  5  1  1  1
 13  1  2  0
  1 18  1  0
 12  2  1  1
 13  2  1  0
  2 17  2  0
  8  3  1  0
  3 16  2  0
  6  4  2  0
 14  4  1  0
  7  6  1  0
 10  7  2  0
 15  8  1  0
 10  9  1  0
  9 14  2  0
 16 10  1  0
 11 13  1  0
 11 15  2  0
 11 16  1  0
 17 18  1  0
M  END
$$$$
