
     RDKit          3D

 18 20  0  0  0  0  0  0  0  0999 V2000
   -5.3552    6.2065  -20.9834 C   0  0  0  0  0  0  0  0  0  0  0  0
   -5.9364    8.3002  -21.2423 C   0  0  0  0  0  0  0  0  0  0  0  0
   -1.6074    8.1999  -19.3968 C   0  0  0  0  0  0  0  0  0  0  0  0
   -4.6808    6.0441  -15.9220 N   0  0  0  0  0  0  0  0  0  0  0  0
   -4.6267    4.9583  -20.7267 C   0  0  0  0  0  0  0  0  0  0  0  0
   -5.4190    6.8627  -16.6907 C   0  0  0  0  0  0  0  0  0  0  0  0
   -4.8635    7.4325  -17.8260 C   0  0  0  0  0  0  0  0  0  0  0  0
   -1.4543    8.6297  -20.6747 N   0  0  0  0  0  0  0  0  0  0  0  0
   -2.8509    6.3139  -17.3392 C   0  0  0  0  0  0  0  0  0  0  0  0
   -3.5531    7.1565  -18.1626 C   0  0  0  0  0  0  0  0  0  0  0  0
   -3.5092    7.8761  -20.5721 C   0  0  0  0  0  0  0  0  0  0  0  0
   -5.8982    9.8036  -21.3048 C   0  0  0  0  0  0  0  0  0  0  0  0
   -4.8667    7.4936  -20.9164 C   0  0  0  0  0  0  0  0  0  0  0  0
   -3.3958    5.7491  -16.2170 C   0  0  0  0  0  0  0  0  0  0  0  0
   -2.5803    8.4362  -21.3642 N   0  0  0  0  0  0  0  0  0  0  0  0
   -2.9196    7.7208  -19.3384 C   0  0  0  0  0  0  0  0  0  0  0  0
   -6.9815    7.5072  -21.4829 N   0  0  0  0  0  0  0  0  0  0  0  0
   -6.6275    6.2752  -21.3272 O   0  0  0  0  0  0  0  0  0  0  0  0
  5  1  1  1
 13  1  2  0
  1 18  1  0
 12  2  1  1
 13  2  1  0
  2 17  2  0
  8  3  1  0
  3 16  2  0
  6  4  2  0
 14  4  1  0
  7  6  1  0
 10  7  2  0
 15  8  1  0
 10  9  1  0
  9 14  2  0
 16 10  1  0
 11 13  1  0
 11 15  2  0
 11 16  1  0
 17 18  1  0
M  END
$$$$
