
     RDKit          3D

 18 20  0  0  0  0  0  0  0  0999 V2000
   -4.4278    8.1322  -18.9275 C   0  0  0  0  0  0  0  0  0  0  0  0
   -2.3849    7.6366  -19.5369 C   0  0  0  0  0  0  0  0  0  0  0  0
   -4.6323    8.7730  -23.4262 C   0  0  0  0  0  0  0  0  0  0  0  0
   -7.4342    4.9721  -21.5995 N   0  0  0  0  0  0  0  0  0  0  0  0
   -5.8391    8.5950  -18.9533 C   0  0  0  0  0  0  0  0  0  0  0  0
   -7.9169    6.0940  -22.1327 C   0  0  0  0  0  0  0  0  0  0  0  0
   -7.0462    7.1366  -22.3549 C   0  0  0  0  0  0  0  0  0  0  0  0
   -3.6498    9.6713  -23.2780 N   0  0  0  0  0  0  0  0  0  0  0  0
   -5.2704    5.8455  -21.4882 C   0  0  0  0  0  0  0  0  0  0  0  0
   -5.7139    7.0245  -22.0354 C   0  0  0  0  0  0  0  0  0  0  0  0
   -3.8040    8.5915  -21.3814 C   0  0  0  0  0  0  0  0  0  0  0  0
   -1.1213    7.4225  -20.2543 C   0  0  0  0  0  0  0  0  0  0  0  0
   -3.5744    8.1483  -20.0121 C   0  0  0  0  0  0  0  0  0  0  0  0
   -6.1462    4.8073  -21.2688 C   0  0  0  0  0  0  0  0  0  0  0  0
   -3.1706    9.5527  -22.0671 N   0  0  0  0  0  0  0  0  0  0  0  0
   -4.7441    8.0845  -22.2442 C   0  0  0  0  0  0  0  0  0  0  0  0
   -2.5514    7.3368  -18.2220 N   0  0  0  0  0  0  0  0  0  0  0  0
   -3.7773    7.6391  -17.8751 O   0  0  0  0  0  0  0  0  0  0  0  0
  1  5  1  0
 13  1  2  0
  1 18  1  0
  2 12  1  0
 13  2  1  0
  2 17  2  0
  8  3  1  0
  3 16  2  0
  6  4  2  0
 14  4  1  0
  7  6  1  0
 10  7  2  0
 15  8  1  0
 10  9  1  0
  9 14  2  0
 16 10  1  0
 11 13  1  0
 11 15  2  0
 11 16  1  0
 17 18  1  0
M  END
$$$$
