
     RDKit          3D

 18 20  0  0  0  0  0  0  0  0999 V2000
    1.8708    1.0299   -9.0009 C   0  0  0  0  0  0  0  0  0  0  0  0
    1.2018    0.6177  -11.0432 C   0  0  0  0  0  0  0  0  0  0  0  0
    4.6678    3.8511  -11.1050 C   0  0  0  0  0  0  0  0  0  0  0  0
    6.4779    0.0234   -8.1832 N   0  0  0  0  0  0  0  0  0  0  0  0
    2.5217    1.5796   -7.8056 C   0  0  0  0  0  0  0  0  0  0  0  0
    6.6999    1.3420   -8.0492 C   0  0  0  0  0  0  0  0  0  0  0  0
    5.9631    2.2467   -8.7980 C   0  0  0  0  0  0  0  0  0  0  0  0
    3.5824    4.3636  -11.7378 N   0  0  0  0  0  0  0  0  0  0  0  0
    4.8230    0.4327   -9.7717 C   0  0  0  0  0  0  0  0  0  0  0  0
    5.0035    1.7891   -9.6792 C   0  0  0  0  0  0  0  0  0  0  0  0
    2.8617    2.5379  -10.7641 C   0  0  0  0  0  0  0  0  0  0  0  0
    1.0211    0.6852  -12.5359 C   0  0  0  0  0  0  0  0  0  0  0  0
    2.0178    1.4491  -10.3057 C   0  0  0  0  0  0  0  0  0  0  0  0
    5.5485   -0.4642   -9.0339 C   0  0  0  0  0  0  0  0  0  0  0  0
    2.5187    3.5842  -11.5332 N   0  0  0  0  0  0  0  0  0  0  0  0
    4.2011    2.6874  -10.4863 C   0  0  0  0  0  0  0  0  0  0  0  0
    0.6201   -0.2326  -10.1960 N   0  0  0  0  0  0  0  0  0  0  0  0
    1.0217    0.0196   -8.9949 O   0  0  0  0  0  0  0  0  0  0  0  0
  5  1  1  1
 13  1  2  0
  1 18  1  0
 12  2  1  1
 13  2  1  0
  2 17  2  0
  8  3  1  0
  3 16  2  0
  6  4  2  0
 14  4  1  0
  7  6  1  0
 10  7  2  0
 15  8  1  0
 10  9  1  0
  9 14  2  0
 16 10  1  0
 11 13  1  0
 11 15  2  0
 11 16  1  0
 17 18  1  0
M  END
$$$$
