
     RDKit          3D

 18 20  0  0  0  0  0  0  0  0999 V2000
   -2.6739    8.0556  -18.8614 C   0  0  0  0  0  0  0  0  0  0  0  0
   -2.6433    9.5257  -20.4826 C   0  0  0  0  0  0  0  0  0  0  0  0
   -6.8156    7.6664  -20.8217 C   0  0  0  0  0  0  0  0  0  0  0  0
   -3.5177    4.2729  -22.6429 N   0  0  0  0  0  0  0  0  0  0  0  0
   -3.1354    7.0370  -17.8836 C   0  0  0  0  0  0  0  0  0  0  0  0
   -4.8059    4.1101  -22.3427 C   0  0  0  0  0  0  0  0  0  0  0  0
   -5.4685    5.1502  -21.7312 C   0  0  0  0  0  0  0  0  0  0  0  0
   -7.0653    8.7915  -20.1389 N   0  0  0  0  0  0  0  0  0  0  0  0
   -3.4915    6.4392  -21.7691 C   0  0  0  0  0  0  0  0  0  0  0  0
   -4.8195    6.3258  -21.4376 C   0  0  0  0  0  0  0  0  0  0  0  0
   -4.8993    8.4886  -20.0788 C   0  0  0  0  0  0  0  0  0  0  0  0
   -2.9603   10.4330  -21.5933 C   0  0  0  0  0  0  0  0  0  0  0  0
   -3.4788    8.6638  -19.8033 C   0  0  0  0  0  0  0  0  0  0  0  0
   -2.8353    5.3956  -22.3802 C   0  0  0  0  0  0  0  0  0  0  0  0
   -5.9257    9.2654  -19.7066 N   0  0  0  0  0  0  0  0  0  0  0  0
   -5.4591    7.4596  -20.7948 C   0  0  0  0  0  0  0  0  0  0  0  0
   -1.3993    9.4149  -19.9472 N   0  0  0  0  0  0  0  0  0  0  0  0
   -1.4361    8.5326  -18.9803 O   0  0  0  0  0  0  0  0  0  0  0  0
  1  5  1  0
 13  1  2  0
  1 18  1  0
  2 12  1  0
 13  2  1  0
  2 17  2  0
  8  3  1  0
  3 16  2  0
  6  4  2  0
 14  4  1  0
  7  6  1  0
 10  7  2  0
 15  8  1  0
 10  9  1  0
  9 14  2  0
 16 10  1  0
 11 13  1  0
 11 15  2  0
 11 16  1  0
 17 18  1  0
M  END
$$$$
