
     RDKit          3D

 18 20  0  0  0  0  0  0  0  0999 V2000
   -5.2109    9.0790  -19.3580 C   0  0  0  0  0  0  0  0  0  0  0  0
   -5.9754    7.5970  -20.7756 C   0  0  0  0  0  0  0  0  0  0  0  0
   -1.3581    7.6161  -21.2616 C   0  0  0  0  0  0  0  0  0  0  0  0
   -1.8895    6.8468  -16.2833 N   0  0  0  0  0  0  0  0  0  0  0  0
   -4.3021    9.9901  -18.6160 C   0  0  0  0  0  0  0  0  0  0  0  0
   -0.9369    7.5703  -16.8708 C   0  0  0  0  0  0  0  0  0  0  0  0
   -1.0729    7.8621  -18.2091 C   0  0  0  0  0  0  0  0  0  0  0  0
   -1.8848    7.9254  -22.4537 N   0  0  0  0  0  0  0  0  0  0  0  0
   -3.1136    6.6773  -18.2657 C   0  0  0  0  0  0  0  0  0  0  0  0
   -2.1619    7.4193  -18.9214 C   0  0  0  0  0  0  0  0  0  0  0  0
   -3.5116    8.0546  -20.9964 C   0  0  0  0  0  0  0  0  0  0  0  0
   -6.1575    6.5940  -21.8330 C   0  0  0  0  0  0  0  0  0  0  0  0
   -4.8231    8.2508  -20.3916 C   0  0  0  0  0  0  0  0  0  0  0  0
   -2.9715    6.3893  -16.9278 C   0  0  0  0  0  0  0  0  0  0  0  0
   -3.1556    8.1817  -22.2820 N   0  0  0  0  0  0  0  0  0  0  0  0
   -2.3657    7.6919  -20.3328 C   0  0  0  0  0  0  0  0  0  0  0  0
   -6.9910    8.0366  -19.9872 N   0  0  0  0  0  0  0  0  0  0  0  0
   -6.5164    8.9212  -19.1465 O   0  0  0  0  0  0  0  0  0  0  0  0
  1  5  1  0
 13  1  2  0
  1 18  1  0
  2 12  1  0
 13  2  1  0
  2 17  2  0
  8  3  1  0
  3 16  2  0
  6  4  2  0
 14  4  1  0
  7  6  1  0
 10  7  2  0
 15  8  1  0
 10  9  1  0
  9 14  2  0
 16 10  1  0
 11 13  1  0
 11 15  2  0
 11 16  1  0
 17 18  1  0
M  END
$$$$
