
     RDKit          3D

 18 20  0  0  0  0  0  0  0  0999 V2000
   -5.6062    8.1945  -23.8627 C   0  0  0  0  0  0  0  0  0  0  0  0
   -5.7540    6.2371  -22.8957 C   0  0  0  0  0  0  0  0  0  0  0  0
   -1.8323    7.8519  -21.1518 C   0  0  0  0  0  0  0  0  0  0  0  0
   -5.8613    7.9917  -18.0047 N   0  0  0  0  0  0  0  0  0  0  0  0
   -5.1596    9.5042  -24.3525 C   0  0  0  0  0  0  0  0  0  0  0  0
   -6.2524    8.4819  -19.1932 C   0  0  0  0  0  0  0  0  0  0  0  0
   -5.4007    8.4099  -20.2848 C   0  0  0  0  0  0  0  0  0  0  0  0
   -1.3795    7.6880  -22.4204 N   0  0  0  0  0  0  0  0  0  0  0  0
   -3.8112    7.3520  -18.9090 C   0  0  0  0  0  0  0  0  0  0  0  0
   -4.1532    7.8344  -20.1464 C   0  0  0  0  0  0  0  0  0  0  0  0
   -3.5574    7.4968  -22.5664 C   0  0  0  0  0  0  0  0  0  0  0  0
   -5.4319    5.0014  -22.0989 C   0  0  0  0  0  0  0  0  0  0  0  0
   -4.9036    7.3073  -23.0759 C   0  0  0  0  0  0  0  0  0  0  0  0
   -4.6494    7.4212  -17.8283 C   0  0  0  0  0  0  0  0  0  0  0  0
   -2.4024    7.4787  -23.2516 N   0  0  0  0  0  0  0  0  0  0  0  0
   -3.2214    7.7288  -21.2523 C   0  0  0  0  0  0  0  0  0  0  0  0
   -6.8852    6.5055  -23.5494 N   0  0  0  0  0  0  0  0  0  0  0  0
   -6.7868    7.6618  -24.1158 O   0  0  0  0  0  0  0  0  0  0  0  0
  5  1  1  1
 13  1  2  0
  1 18  1  0
 12  2  1  1
 13  2  1  0
  2 17  2  0
  8  3  1  0
  3 16  2  0
  6  4  2  0
 14  4  1  0
  7  6  1  0
 10  7  2  0
 15  8  1  0
 10  9  1  0
  9 14  2  0
 16 10  1  0
 11 13  1  0
 11 15  2  0
 11 16  1  0
 17 18  1  0
M  END
$$$$
