
     RDKit          3D

 18 20  0  0  0  0  0  0  0  0999 V2000
   -3.0693    6.4009  -23.7761 C   0  0  0  0  0  0  0  0  0  0  0  0
   -3.7947    4.9689  -22.2890 C   0  0  0  0  0  0  0  0  0  0  0  0
   -6.7213    8.4306  -21.6855 C   0  0  0  0  0  0  0  0  0  0  0  0
   -3.3515    7.5773  -17.9355 N   0  0  0  0  0  0  0  0  0  0  0  0
   -2.9019    7.5480  -24.6766 C   0  0  0  0  0  0  0  0  0  0  0  0
   -2.6823    7.5781  -19.1008 C   0  0  0  0  0  0  0  0  0  0  0  0
   -3.3797    7.6174  -20.2984 C   0  0  0  0  0  0  0  0  0  0  0  0
   -7.0989    8.1716  -22.9629 N   0  0  0  0  0  0  0  0  0  0  0  0
   -5.3861    7.6527  -19.0689 C   0  0  0  0  0  0  0  0  0  0  0  0
   -4.7599    7.6556  -20.2891 C   0  0  0  0  0  0  0  0  0  0  0  0
   -5.2503    7.0309  -22.6755 C   0  0  0  0  0  0  0  0  0  0  0  0
   -4.6310    4.2911  -21.2370 C   0  0  0  0  0  0  0  0  0  0  0  0
   -4.1021    6.1695  -22.8932 C   0  0  0  0  0  0  0  0  0  0  0  0
   -4.7010    7.6139  -17.8838 C   0  0  0  0  0  0  0  0  0  0  0  0
   -6.2267    7.3445  -23.5427 N   0  0  0  0  0  0  0  0  0  0  0  0
   -5.5422    7.7002  -21.5091 C   0  0  0  0  0  0  0  0  0  0  0  0
   -2.6421    4.5403  -22.8056 N   0  0  0  0  0  0  0  0  0  0  0  0
   -2.2236    5.3923  -23.6810 O   0  0  0  0  0  0  0  0  0  0  0  0
  5  1  1  1
 13  1  2  0
  1 18  1  0
 12  2  1  1
 13  2  1  0
  2 17  2  0
  8  3  1  0
  3 16  2  0
  6  4  2  0
 14  4  1  0
  7  6  1  0
 10  7  2  0
 15  8  1  0
 10  9  1  0
  9 14  2  0
 16 10  1  0
 11 13  1  0
 11 15  2  0
 11 16  1  0
 17 18  1  0
M  END
$$$$
