
     RDKit          3D

 18 20  0  0  0  0  0  0  0  0999 V2000
   -5.7337    9.4358  -21.5523 C   0  0  0  0  0  0  0  0  0  0  0  0
   -6.6182    7.4406  -21.3872 C   0  0  0  0  0  0  0  0  0  0  0  0
   -3.1347    7.5177  -18.3418 C   0  0  0  0  0  0  0  0  0  0  0  0
   -0.8219    8.4339  -22.7509 N   0  0  0  0  0  0  0  0  0  0  0  0
   -4.9004   10.6395  -21.3002 C   0  0  0  0  0  0  0  0  0  0  0  0
   -0.5702    9.0739  -21.6094 C   0  0  0  0  0  0  0  0  0  0  0  0
   -1.4433    8.9005  -20.5595 C   0  0  0  0  0  0  0  0  0  0  0  0
   -4.2548    7.3886  -17.6187 N   0  0  0  0  0  0  0  0  0  0  0  0
   -2.7568    7.4538  -21.8836 C   0  0  0  0  0  0  0  0  0  0  0  0
   -2.5459    8.0892  -20.6844 C   0  0  0  0  0  0  0  0  0  0  0  0
   -4.8749    7.9391  -19.6434 C   0  0  0  0  0  0  0  0  0  0  0  0
   -6.9960    6.0736  -21.0053 C   0  0  0  0  0  0  0  0  0  0  0  0
   -5.6899    8.2774  -20.8034 C   0  0  0  0  0  0  0  0  0  0  0  0
   -1.8800    7.6315  -22.9289 C   0  0  0  0  0  0  0  0  0  0  0  0
   -5.2733    7.6402  -18.3994 N   0  0  0  0  0  0  0  0  0  0  0  0
   -3.5043    7.8635  -19.6175 C   0  0  0  0  0  0  0  0  0  0  0  0
   -7.1759    8.0986  -22.4372 N   0  0  0  0  0  0  0  0  0  0  0  0
   -6.6359    9.2885  -22.5210 O   0  0  0  0  0  0  0  0  0  0  0  0
  1  5  1  0
 13  1  2  0
  1 18  1  0
  2 12  1  0
 13  2  1  0
  2 17  2  0
  8  3  1  0
  3 16  2  0
  6  4  2  0
 14  4  1  0
  7  6  1  0
 10  7  2  0
 15  8  1  0
 10  9  1  0
  9 14  2  0
 16 10  1  0
 11 13  1  0
 11 15  2  0
 11 16  1  0
 17 18  1  0
M  END
$$$$
