
     RDKit          3D

 18 20  0  0  0  0  0  0  0  0999 V2000
   -6.7988    8.1055  -22.8292 C   0  0  0  0  0  0  0  0  0  0  0  0
   -4.7649    8.9082  -22.7322 C   0  0  0  0  0  0  0  0  0  0  0  0
   -3.9708    4.8956  -20.9059 C   0  0  0  0  0  0  0  0  0  0  0  0
   -3.6718    8.6931  -17.6281 N   0  0  0  0  0  0  0  0  0  0  0  0
   -7.9600    7.1815  -22.7618 C   0  0  0  0  0  0  0  0  0  0  0  0
   -4.9027    8.6871  -18.1389 C   0  0  0  0  0  0  0  0  0  0  0  0
   -5.1549    7.8742  -19.2206 C   0  0  0  0  0  0  0  0  0  0  0  0
   -4.3023    4.3823  -22.0980 N   0  0  0  0  0  0  0  0  0  0  0  0
   -2.9136    7.1344  -19.1943 C   0  0  0  0  0  0  0  0  0  0  0  0
   -4.1641    7.0891  -19.7604 C   0  0  0  0  0  0  0  0  0  0  0  0
   -4.9396    6.4752  -22.1168 C   0  0  0  0  0  0  0  0  0  0  0  0
   -3.3209    9.1226  -22.5702 C   0  0  0  0  0  0  0  0  0  0  0  0
   -5.4960    7.7547  -22.5385 C   0  0  0  0  0  0  0  0  0  0  0  0
   -2.6683    7.9493  -18.1131 C   0  0  0  0  0  0  0  0  0  0  0  0
   -4.8728    5.3255  -22.8016 N   0  0  0  0  0  0  0  0  0  0  0  0
   -4.3636    6.2107  -20.8989 C   0  0  0  0  0  0  0  0  0  0  0  0
   -5.6215    9.8887  -23.1213 N   0  0  0  0  0  0  0  0  0  0  0  0
   -6.8317    9.3915  -23.1738 O   0  0  0  0  0  0  0  0  0  0  0  0
  1  5  1  0
 13  1  2  0
  1 18  1  0
  2 12  1  0
 13  2  1  0
  2 17  2  0
  8  3  1  0
  3 16  2  0
  6  4  2  0
 14  4  1  0
  7  6  1  0
 10  7  2  0
 15  8  1  0
 10  9  1  0
  9 14  2  0
 16 10  1  0
 11 13  1  0
 11 15  2  0
 11 16  1  0
 17 18  1  0
M  END
$$$$
