
     RDKit          3D

 18 20  0  0  0  0  0  0  0  0999 V2000
   -3.1091    8.0072  -23.3295 C   0  0  0  0  0  0  0  0  0  0  0  0
   -4.4756    9.4660  -22.4390 C   0  0  0  0  0  0  0  0  0  0  0  0
   -5.9606    5.5013  -20.6481 C   0  0  0  0  0  0  0  0  0  0  0  0
   -2.8430    8.2641  -17.6339 N   0  0  0  0  0  0  0  0  0  0  0  0
   -2.4351    6.7794  -23.7688 C   0  0  0  0  0  0  0  0  0  0  0  0
   -4.1372    7.9768  -17.4144 C   0  0  0  0  0  0  0  0  0  0  0  0
   -4.9037    7.4221  -18.4278 C   0  0  0  0  0  0  0  0  0  0  0  0
   -6.4239    5.3070  -21.9086 N   0  0  0  0  0  0  0  0  0  0  0  0
   -3.0089    7.4813  -19.8224 C   0  0  0  0  0  0  0  0  0  0  0  0
   -4.3338    7.1667  -19.6593 C   0  0  0  0  0  0  0  0  0  0  0  0
   -5.0491    7.0060  -22.0651 C   0  0  0  0  0  0  0  0  0  0  0  0
   -5.6254   10.0862  -21.6915 C   0  0  0  0  0  0  0  0  0  0  0  0
   -4.2604    8.1113  -22.5790 C   0  0  0  0  0  0  0  0  0  0  0  0
   -2.2484    8.0293  -18.8241 C   0  0  0  0  0  0  0  0  0  0  0  0
   -5.8823    6.1983  -22.7412 N   0  0  0  0  0  0  0  0  0  0  0  0
   -5.0846    6.5857  -20.7553 C   0  0  0  0  0  0  0  0  0  0  0  0
   -3.4921   10.0994  -23.0797 N   0  0  0  0  0  0  0  0  0  0  0  0
   -2.6925    9.2297  -23.6009 O   0  0  0  0  0  0  0  0  0  0  0  0
  5  1  1  1
 13  1  2  0
  1 18  1  0
 12  2  1  1
 13  2  1  0
  2 17  2  0
  8  3  1  0
  3 16  2  0
  6  4  2  0
 14  4  1  0
  7  6  1  0
 10  7  2  0
 15  8  1  0
 10  9  1  0
  9 14  2  0
 16 10  1  0
 11 13  1  0
 11 15  2  0
 11 16  1  0
 17 18  1  0
M  END
$$$$
