
     RDKit          3D

 18 20  0  0  0  0  0  0  0  0999 V2000
   -4.5436    9.5032  -22.7773 C   0  0  0  0  0  0  0  0  0  0  0  0
   -3.6515    7.5298  -23.0909 C   0  0  0  0  0  0  0  0  0  0  0  0
   -3.8927    7.6060  -18.5404 C   0  0  0  0  0  0  0  0  0  0  0  0
   -6.8587    4.2903  -21.1148 N   0  0  0  0  0  0  0  0  0  0  0  0
   -5.0662   10.7480  -22.2009 C   0  0  0  0  0  0  0  0  0  0  0  0
   -5.7766    3.9727  -20.3841 C   0  0  0  0  0  0  0  0  0  0  0  0
   -4.9157    4.9706  -19.9538 C   0  0  0  0  0  0  0  0  0  0  0  0
   -3.1150    8.7152  -18.6181 N   0  0  0  0  0  0  0  0  0  0  0  0
   -6.2935    6.5491  -21.0255 C   0  0  0  0  0  0  0  0  0  0  0  0
   -5.1739    6.2878  -20.2778 C   0  0  0  0  0  0  0  0  0  0  0  0
   -3.7770    8.3416  -20.6731 C   0  0  0  0  0  0  0  0  0  0  0  0
   -2.9988    6.1949  -22.8515 C   0  0  0  0  0  0  0  0  0  0  0  0
   -3.9751    8.4410  -22.1079 C   0  0  0  0  0  0  0  0  0  0  0  0
   -7.1463    5.5664  -21.4525 C   0  0  0  0  0  0  0  0  0  0  0  0
   -3.0502    9.1453  -19.8797 N   0  0  0  0  0  0  0  0  0  0  0  0
   -4.3114    7.3735  -19.8539 C   0  0  0  0  0  0  0  0  0  0  0  0
   -4.0198    8.0514  -24.2619 N   0  0  0  0  0  0  0  0  0  0  0  0
   -4.5444    9.2148  -24.0651 O   0  0  0  0  0  0  0  0  0  0  0  0
  5  1  1  1
 13  1  2  0
  1 18  1  0
 12  2  1  1
 13  2  1  0
  2 17  2  0
  8  3  1  0
  3 16  2  0
  6  4  2  0
 14  4  1  0
  7  6  1  0
 10  7  2  0
 15  8  1  0
 10  9  1  0
  9 14  2  0
 16 10  1  0
 11 13  1  0
 11 15  2  0
 11 16  1  0
 17 18  1  0
M  END
$$$$
