
     RDKit          3D

 18 20  0  0  0  0  0  0  0  0999 V2000
   -5.6409    7.4078  -21.8633 C   0  0  0  0  0  0  0  0  0  0  0  0
   -6.1106    9.2332  -20.7507 C   0  0  0  0  0  0  0  0  0  0  0  0
   -2.8162    7.2238  -18.2564 C   0  0  0  0  0  0  0  0  0  0  0  0
   -0.5166    8.9175  -22.4314 N   0  0  0  0  0  0  0  0  0  0  0  0
   -5.0766    6.0865  -22.2408 C   0  0  0  0  0  0  0  0  0  0  0  0
   -0.4249    7.6532  -22.0201 C   0  0  0  0  0  0  0  0  0  0  0  0
   -1.3002    7.2188  -21.0506 C   0  0  0  0  0  0  0  0  0  0  0  0
   -3.9322    6.9494  -17.5684 N   0  0  0  0  0  0  0  0  0  0  0  0
   -2.2937    9.3587  -20.9809 C   0  0  0  0  0  0  0  0  0  0  0  0
   -2.2439    8.0658  -20.5202 C   0  0  0  0  0  0  0  0  0  0  0  0
   -4.5678    7.6592  -19.5380 C   0  0  0  0  0  0  0  0  0  0  0  0
   -6.2177   10.3164  -19.7646 C   0  0  0  0  0  0  0  0  0  0  0  0
   -5.3922    8.0584  -20.6717 C   0  0  0  0  0  0  0  0  0  0  0  0
   -1.4159    9.7864  -21.9502 C   0  0  0  0  0  0  0  0  0  0  0  0
   -4.9575    7.2109  -18.3369 N   0  0  0  0  0  0  0  0  0  0  0  0
   -3.1955    7.6714  -19.4972 C   0  0  0  0  0  0  0  0  0  0  0  0
   -6.7505    9.2551  -21.9493 N   0  0  0  0  0  0  0  0  0  0  0  0
   -6.4586    8.1573  -22.6005 O   0  0  0  0  0  0  0  0  0  0  0  0
  1  5  1  0
 13  1  2  0
  1 18  1  0
  2 12  1  0
 13  2  1  0
  2 17  2  0
  8  3  1  0
  3 16  2  0
  6  4  2  0
 14  4  1  0
  7  6  1  0
 10  7  2  0
 15  8  1  0
 10  9  1  0
  9 14  2  0
 16 10  1  0
 11 13  1  0
 11 15  2  0
 11 16  1  0
 17 18  1  0
M  END
$$$$
