
     RDKit          3D

 18 20  0  0  0  0  0  0  0  0999 V2000
   -3.0410    9.6772  -21.8819 C   0  0  0  0  0  0  0  0  0  0  0  0
   -4.1282    8.2888  -23.1775 C   0  0  0  0  0  0  0  0  0  0  0  0
   -5.4695    7.6006  -18.6980 C   0  0  0  0  0  0  0  0  0  0  0  0
   -0.3732    6.9267  -18.7867 N   0  0  0  0  0  0  0  0  0  0  0  0
   -2.5516   10.4718  -20.7488 C   0  0  0  0  0  0  0  0  0  0  0  0
   -1.0849    7.5618  -17.8402 C   0  0  0  0  0  0  0  0  0  0  0  0
   -2.4164    7.8732  -18.0688 C   0  0  0  0  0  0  0  0  0  0  0  0
   -6.5604    8.0202  -19.3872 N   0  0  0  0  0  0  0  0  0  0  0  0
   -2.2290    6.8825  -20.1952 C   0  0  0  0  0  0  0  0  0  0  0  0
   -3.0064    7.5292  -19.2689 C   0  0  0  0  0  0  0  0  0  0  0  0
   -4.8688    8.3700  -20.7352 C   0  0  0  0  0  0  0  0  0  0  0  0
   -5.0975    7.2514  -23.6772 C   0  0  0  0  0  0  0  0  0  0  0  0
   -4.0612    8.7505  -21.8801 C   0  0  0  0  0  0  0  0  0  0  0  0
   -0.9135    6.5731  -19.9734 C   0  0  0  0  0  0  0  0  0  0  0  0
   -6.1999    8.4735  -20.5894 N   0  0  0  0  0  0  0  0  0  0  0  0
   -4.3947    7.8265  -19.5632 C   0  0  0  0  0  0  0  0  0  0  0  0
   -3.1901    8.9244  -23.8812 N   0  0  0  0  0  0  0  0  0  0  0  0
   -2.5554    9.7403  -23.1074 O   0  0  0  0  0  0  0  0  0  0  0  0
  5  1  1  1
 13  1  2  0
  1 18  1  0
 12  2  1  1
 13  2  1  0
  2 17  2  0
  8  3  1  0
  3 16  2  0
  6  4  2  0
 14  4  1  0
  7  6  1  0
 10  7  2  0
 15  8  1  0
 10  9  1  0
  9 14  2  0
 16 10  1  0
 11 13  1  0
 11 15  2  0
 11 16  1  0
 17 18  1  0
M  END
$$$$
