
     RDKit          3D

 18 20  0  0  0  0  0  0  0  0999 V2000
   -5.3967    8.9167  -19.6152 C   0  0  0  0  0  0  0  0  0  0  0  0
   -5.9203    7.3595  -21.0614 C   0  0  0  0  0  0  0  0  0  0  0  0
   -1.2913    7.5588  -21.0265 C   0  0  0  0  0  0  0  0  0  0  0  0
   -2.1904    6.7365  -16.1547 N   0  0  0  0  0  0  0  0  0  0  0  0
   -4.6244    9.8931  -18.8048 C   0  0  0  0  0  0  0  0  0  0  0  0
   -3.2503    6.2742  -16.8171 C   0  0  0  0  0  0  0  0  0  0  0  0
   -3.3433    6.5406  -18.1644 C   0  0  0  0  0  0  0  0  0  0  0  0
   -1.6768    7.8956  -22.2644 N   0  0  0  0  0  0  0  0  0  0  0  0
   -1.2985    7.7166  -18.0785 C   0  0  0  0  0  0  0  0  0  0  0  0
   -2.3693    7.2644  -18.8101 C   0  0  0  0  0  0  0  0  0  0  0  0
   -3.4723    7.9372  -21.0149 C   0  0  0  0  0  0  0  0  0  0  0  0
   -5.9307    6.3203  -22.0992 C   0  0  0  0  0  0  0  0  0  0  0  0
   -4.8528    8.0819  -20.5703 C   0  0  0  0  0  0  0  0  0  0  0  0
   -1.2118    7.4467  -16.7321 C   0  0  0  0  0  0  0  0  0  0  0  0
   -2.9657    8.1159  -22.2424 N   0  0  0  0  0  0  0  0  0  0  0  0
   -2.4066    7.5795  -20.2268 C   0  0  0  0  0  0  0  0  0  0  0  0
   -7.0401    7.7674  -20.4087 N   0  0  0  0  0  0  0  0  0  0  0  0
   -6.7088    8.6977  -19.5488 O   0  0  0  0  0  0  0  0  0  0  0  0
  1  5  1  0
 13  1  2  0
  1 18  1  0
  2 12  1  0
 13  2  1  0
  2 17  2  0
  8  3  1  0
  3 16  2  0
  6  4  2  0
 14  4  1  0
  7  6  1  0
 10  7  2  0
 15  8  1  0
 10  9  1  0
  9 14  2  0
 16 10  1  0
 11 13  1  0
 11 15  2  0
 11 16  1  0
 17 18  1  0
M  END
$$$$
