
     RDKit          3D

 18 20  0  0  0  0  0  0  0  0999 V2000
   -6.4021    8.2255  -22.0507 C   0  0  0  0  0  0  0  0  0  0  0  0
   -4.7952    9.5351  -21.3484 C   0  0  0  0  0  0  0  0  0  0  0  0
   -3.7160    5.8600  -19.0222 C   0  0  0  0  0  0  0  0  0  0  0  0
   -0.5041    6.8708  -22.7495 N   0  0  0  0  0  0  0  0  0  0  0  0
   -7.3197    7.0670  -22.2003 C   0  0  0  0  0  0  0  0  0  0  0  0
   -1.7229    6.8362  -23.2874 C   0  0  0  0  0  0  0  0  0  0  0  0
   -2.8064    6.7692  -22.4412 C   0  0  0  0  0  0  0  0  0  0  0  0
   -4.8743    6.0379  -18.3734 N   0  0  0  0  0  0  0  0  0  0  0  0
   -1.3582    6.7767  -20.5773 C   0  0  0  0  0  0  0  0  0  0  0  0
   -2.6368    6.7387  -21.0775 C   0  0  0  0  0  0  0  0  0  0  0  0
   -4.9345    7.3373  -20.1326 C   0  0  0  0  0  0  0  0  0  0  0  0
   -3.6542   10.1512  -20.6586 C   0  0  0  0  0  0  0  0  0  0  0  0
   -5.3734    8.3015  -21.1336 C   0  0  0  0  0  0  0  0  0  0  0  0
   -0.2796    6.8437  -21.4288 C   0  0  0  0  0  0  0  0  0  0  0  0
   -5.5829    6.9119  -19.0399 N   0  0  0  0  0  0  0  0  0  0  0  0
   -3.7354    6.6687  -20.1310 C   0  0  0  0  0  0  0  0  0  0  0  0
   -5.4710   10.1467  -22.3563 N   0  0  0  0  0  0  0  0  0  0  0  0
   -6.4272    9.3502  -22.7636 O   0  0  0  0  0  0  0  0  0  0  0  0
  1  5  1  0
 13  1  2  0
  1 18  1  0
  2 12  1  0
 13  2  1  0
  2 17  2  0
  8  3  1  0
  3 16  2  0
  6  4  2  0
 14  4  1  0
  7  6  1  0
 10  7  2  0
 15  8  1  0
 10  9  1  0
  9 14  2  0
 16 10  1  0
 11 13  1  0
 11 15  2  0
 11 16  1  0
 17 18  1  0
M  END
$$$$
