
     RDKit          3D

 18 20  0  0  0  0  0  0  0  0999 V2000
   -4.3302    8.0227  -18.7676 C   0  0  0  0  0  0  0  0  0  0  0  0
   -5.1040    8.7494  -20.6811 C   0  0  0  0  0  0  0  0  0  0  0  0
   -1.1734    6.7003  -21.9081 C   0  0  0  0  0  0  0  0  0  0  0  0
   -5.4384    3.8806  -22.5017 N   0  0  0  0  0  0  0  0  0  0  0  0
   -3.5018    7.4591  -17.6949 C   0  0  0  0  0  0  0  0  0  0  0  0
   -4.2923    3.8961  -23.2032 C   0  0  0  0  0  0  0  0  0  0  0  0
   -3.3069    4.8221  -22.8973 C   0  0  0  0  0  0  0  0  0  0  0  0
   -0.6284    7.8003  -21.3301 N   0  0  0  0  0  0  0  0  0  0  0  0
   -4.6967    5.6603  -21.1930 C   0  0  0  0  0  0  0  0  0  0  0  0
   -3.5071    5.7255  -21.8723 C   0  0  0  0  0  0  0  0  0  0  0  0
   -2.7286    7.8130  -20.7055 C   0  0  0  0  0  0  0  0  0  0  0  0
   -5.2212    9.1168  -22.1360 C   0  0  0  0  0  0  0  0  0  0  0  0
   -3.9934    8.1804  -20.0948 C   0  0  0  0  0  0  0  0  0  0  0  0
   -5.6725    4.7472  -21.4920 C   0  0  0  0  0  0  0  0  0  0  0  0
   -1.5511    8.4536  -20.6211 N   0  0  0  0  0  0  0  0  0  0  0  0
   -2.5124    6.7146  -21.5057 C   0  0  0  0  0  0  0  0  0  0  0  0
   -6.0266    8.9064  -19.7307 N   0  0  0  0  0  0  0  0  0  0  0  0
   -5.5597    8.4748  -18.6069 O   0  0  0  0  0  0  0  0  0  0  0  0
  5  1  1  1
 13  1  2  0
  1 18  1  0
 12  2  1  1
 13  2  1  0
  2 17  2  0
  8  3  1  0
  3 16  2  0
  6  4  2  0
 14  4  1  0
  7  6  1  0
 10  7  2  0
 15  8  1  0
 10  9  1  0
  9 14  2  0
 16 10  1  0
 11 13  1  0
 11 15  2  0
 11 16  1  0
 17 18  1  0
M  END
$$$$
