
     RDKit          3D

 18 20  0  0  0  0  0  0  0  0999 V2000
   -4.7145    6.9930  -22.5993 C   0  0  0  0  0  0  0  0  0  0  0  0
   -6.7731    7.3517  -21.9497 C   0  0  0  0  0  0  0  0  0  0  0  0
   -4.0768    6.6006  -18.1464 C   0  0  0  0  0  0  0  0  0  0  0  0
   -1.9734   10.5815  -20.6292 N   0  0  0  0  0  0  0  0  0  0  0  0
   -3.2850    6.6663  -22.6659 C   0  0  0  0  0  0  0  0  0  0  0  0
   -1.3103    9.5196  -20.1408 C   0  0  0  0  0  0  0  0  0  0  0  0
   -2.0116    8.3995  -19.7218 C   0  0  0  0  0  0  0  0  0  0  0  0
   -4.9865    5.5953  -18.2005 N   0  0  0  0  0  0  0  0  0  0  0  0
   -4.0095    9.4927  -20.3150 C   0  0  0  0  0  0  0  0  0  0  0  0
   -3.3896    8.3794  -19.8081 C   0  0  0  0  0  0  0  0  0  0  0  0
   -5.1335    6.5984  -20.1430 C   0  0  0  0  0  0  0  0  0  0  0  0
   -8.0102    7.4736  -21.1011 C   0  0  0  0  0  0  0  0  0  0  0  0
   -5.5322    6.9643  -21.4901 C   0  0  0  0  0  0  0  0  0  0  0  0
   -3.3205   10.6011  -20.7299 C   0  0  0  0  0  0  0  0  0  0  0  0
   -5.6075    5.5986  -19.3817 N   0  0  0  0  0  0  0  0  0  0  0  0
   -4.1758    7.2359  -19.3880 C   0  0  0  0  0  0  0  0  0  0  0  0
   -6.6633    7.5890  -23.2577 N   0  0  0  0  0  0  0  0  0  0  0  0
   -5.4455    7.3742  -23.6298 O   0  0  0  0  0  0  0  0  0  0  0  0
  5  1  1  1
 13  1  2  0
  1 18  1  0
 12  2  1  1
 13  2  1  0
  2 17  2  0
  8  3  1  0
  3 16  2  0
  6  4  2  0
 14  4  1  0
  7  6  1  0
 10  7  2  0
 15  8  1  0
 10  9  1  0
  9 14  2  0
 16 10  1  0
 11 13  1  0
 11 15  2  0
 11 16  1  0
 17 18  1  0
M  END
$$$$
