
     RDKit          3D

 18 20  0  0  0  0  0  0  0  0999 V2000
   -5.7520    8.4811  -23.4221 C   0  0  0  0  0  0  0  0  0  0  0  0
   -7.0694    6.7342  -23.3899 C   0  0  0  0  0  0  0  0  0  0  0  0
   -2.8950    5.3358  -21.7836 C   0  0  0  0  0  0  0  0  0  0  0  0
   -4.9126    8.4284  -18.2503 N   0  0  0  0  0  0  0  0  0  0  0  0
   -4.6020    9.3915  -23.3617 C   0  0  0  0  0  0  0  0  0  0  0  0
   -5.8409    8.3088  -19.2145 C   0  0  0  0  0  0  0  0  0  0  0  0
   -5.5530    7.5927  -20.3663 C   0  0  0  0  0  0  0  0  0  0  0  0
   -2.9394    4.8724  -23.0582 N   0  0  0  0  0  0  0  0  0  0  0  0
   -3.4078    7.1618  -19.4998 C   0  0  0  0  0  0  0  0  0  0  0  0
   -4.3129    7.0048  -20.5181 C   0  0  0  0  0  0  0  0  0  0  0  0
   -4.5993    6.2953  -22.9139 C   0  0  0  0  0  0  0  0  0  0  0  0
   -7.5802    5.3232  -23.2730 C   0  0  0  0  0  0  0  0  0  0  0  0
   -5.7550    7.1169  -23.2255 C   0  0  0  0  0  0  0  0  0  0  0  0
   -3.6881    7.8683  -18.3606 C   0  0  0  0  0  0  0  0  0  0  0  0
   -3.9476    5.4424  -23.7211 N   0  0  0  0  0  0  0  0  0  0  0  0
   -3.9559    6.2424  -21.6986 C   0  0  0  0  0  0  0  0  0  0  0  0
   -7.7776    7.8302  -23.6663 N   0  0  0  0  0  0  0  0  0  0  0  0
   -6.9908    8.8540  -23.6828 O   0  0  0  0  0  0  0  0  0  0  0  0
  5  1  1  1
 13  1  2  0
  1 18  1  0
 12  2  1  1
 13  2  1  0
  2 17  2  0
  8  3  1  0
  3 16  2  0
  6  4  2  0
 14  4  1  0
  7  6  1  0
 10  7  2  0
 15  8  1  0
 10  9  1  0
  9 14  2  0
 16 10  1  0
 11 13  1  0
 11 15  2  0
 11 16  1  0
 17 18  1  0
M  END
$$$$
