
     RDKit          3D

 18 20  0  0  0  0  0  0  0  0999 V2000
   -5.8573    8.8462  -22.4813 C   0  0  0  0  0  0  0  0  0  0  0  0
   -6.4191    7.2885  -21.0508 C   0  0  0  0  0  0  0  0  0  0  0  0
   -2.0726    6.1691  -21.9641 C   0  0  0  0  0  0  0  0  0  0  0  0
   -2.9278    8.3064  -17.3950 N   0  0  0  0  0  0  0  0  0  0  0  0
   -5.1674    9.6751  -23.4771 C   0  0  0  0  0  0  0  0  0  0  0  0
   -3.4187    9.1127  -18.3513 C   0  0  0  0  0  0  0  0  0  0  0  0
   -3.4873    8.6679  -19.6626 C   0  0  0  0  0  0  0  0  0  0  0  0
   -2.5548    5.8915  -23.2017 N   0  0  0  0  0  0  0  0  0  0  0  0
   -2.5603    6.6214  -18.9620 C   0  0  0  0  0  0  0  0  0  0  0  0
   -3.0508    7.3971  -19.9810 C   0  0  0  0  0  0  0  0  0  0  0  0
   -4.1589    7.0015  -22.2038 C   0  0  0  0  0  0  0  0  0  0  0  0
   -6.3994    6.0504  -20.1951 C   0  0  0  0  0  0  0  0  0  0  0  0
   -5.4166    7.6680  -21.9180 C   0  0  0  0  0  0  0  0  0  0  0  0
   -2.4907    7.0570  -17.6655 C   0  0  0  0  0  0  0  0  0  0  0  0
   -3.7870    6.3855  -23.3378 N   0  0  0  0  0  0  0  0  0  0  0  0
   -3.1003    6.8768  -21.3334 C   0  0  0  0  0  0  0  0  0  0  0  0
   -7.3822    8.2087  -21.1194 N   0  0  0  0  0  0  0  0  0  0  0  0
   -7.0405    9.1221  -21.9658 O   0  0  0  0  0  0  0  0  0  0  0  0
  5  1  1  1
 13  1  2  0
  1 18  1  0
 12  2  1  1
 13  2  1  0
  2 17  2  0
  8  3  1  0
  3 16  2  0
  6  4  2  0
 14  4  1  0
  7  6  1  0
 10  7  2  0
 15  8  1  0
 10  9  1  0
  9 14  2  0
 16 10  1  0
 11 13  1  0
 11 15  2  0
 11 16  1  0
 17 18  1  0
M  END
$$$$
