
     RDKit          3D

 18 20  0  0  0  0  0  0  0  0999 V2000
   -5.1002    7.9275  -18.6098 C   0  0  0  0  0  0  0  0  0  0  0  0
   -5.1464    9.2693  -20.3384 C   0  0  0  0  0  0  0  0  0  0  0  0
   -1.3636    6.8491  -21.1057 C   0  0  0  0  0  0  0  0  0  0  0  0
   -5.3716    4.2310  -22.7679 N   0  0  0  0  0  0  0  0  0  0  0  0
   -4.6559    6.9225  -17.6102 C   0  0  0  0  0  0  0  0  0  0  0  0
   -4.1903    3.7469  -22.3856 C   0  0  0  0  0  0  0  0  0  0  0  0
   -3.2995    4.6050  -21.7816 C   0  0  0  0  0  0  0  0  0  0  0  0
   -0.8507    7.8627  -20.3958 N   0  0  0  0  0  0  0  0  0  0  0  0
   -4.8504    6.3719  -21.9919 C   0  0  0  0  0  0  0  0  0  0  0  0
   -3.6190    5.9264  -21.5780 C   0  0  0  0  0  0  0  0  0  0  0  0
   -3.0204    7.9416  -20.1250 C   0  0  0  0  0  0  0  0  0  0  0  0
   -4.8606   10.0391  -21.5561 C   0  0  0  0  0  0  0  0  0  0  0  0
   -4.3532    8.3436  -19.6931 C   0  0  0  0  0  0  0  0  0  0  0  0
   -5.7361    5.5088  -22.5949 C   0  0  0  0  0  0  0  0  0  0  0  0
   -1.8396    8.4982  -19.8228 N   0  0  0  0  0  0  0  0  0  0  0  0
   -2.7266    6.8825  -20.9478 C   0  0  0  0  0  0  0  0  0  0  0  0
   -6.3108    9.3802  -19.6468 N   0  0  0  0  0  0  0  0  0  0  0  0
   -6.2658    8.5718  -18.6177 O   0  0  0  0  0  0  0  0  0  0  0  0
  1  5  1  0
 13  1  2  0
  1 18  1  0
  2 12  1  0
 13  2  1  0
  2 17  2  0
  8  3  1  0
  3 16  2  0
  6  4  2  0
 14  4  1  0
  7  6  1  0
 10  7  2  0
 15  8  1  0
 10  9  1  0
  9 14  2  0
 16 10  1  0
 11 13  1  0
 11 15  2  0
 11 16  1  0
 17 18  1  0
M  END
$$$$
