
     RDKit          3D

 18 20  0  0  0  0  0  0  0  0999 V2000
   -2.4792    9.0237  -22.1506 C   0  0  0  0  0  0  0  0  0  0  0  0
   -4.1895    9.2392  -23.4985 C   0  0  0  0  0  0  0  0  0  0  0  0
   -4.4547    4.9552  -21.6173 C   0  0  0  0  0  0  0  0  0  0  0  0
   -5.3684    8.3405  -17.8840 N   0  0  0  0  0  0  0  0  0  0  0  0
   -1.4505    8.5161  -21.2347 C   0  0  0  0  0  0  0  0  0  0  0  0
   -6.1227    8.5341  -18.9791 C   0  0  0  0  0  0  0  0  0  0  0  0
   -5.8039    7.8847  -20.1618 C   0  0  0  0  0  0  0  0  0  0  0  0
   -3.9777    4.7455  -22.8701 N   0  0  0  0  0  0  0  0  0  0  0  0
   -3.9810    6.8839  -19.0600 C   0  0  0  0  0  0  0  0  0  0  0  0
   -4.7118    7.0410  -20.2098 C   0  0  0  0  0  0  0  0  0  0  0  0
   -3.7893    6.9042  -22.5455 C   0  0  0  0  0  0  0  0  0  0  0  0
   -5.4061    8.9414  -24.3332 C   0  0  0  0  0  0  0  0  0  0  0  0
   -3.5109    8.3171  -22.7301 C   0  0  0  0  0  0  0  0  0  0  0  0
   -4.2925    7.5234  -17.8899 C   0  0  0  0  0  0  0  0  0  0  0  0
   -3.5861    5.8997  -23.4136 N   0  0  0  0  0  0  0  0  0  0  0  0
   -4.3316    6.3335  -21.4169 C   0  0  0  0  0  0  0  0  0  0  0  0
   -3.5713   10.4130  -23.3603 N   0  0  0  0  0  0  0  0  0  0  0  0
   -2.5646   10.2742  -22.5637 O   0  0  0  0  0  0  0  0  0  0  0  0
  5  1  1  1
 13  1  2  0
  1 18  1  0
 12  2  1  1
 13  2  1  0
  2 17  2  0
  8  3  1  0
  3 16  2  0
  6  4  2  0
 14  4  1  0
  7  6  1  0
 10  7  2  0
 15  8  1  0
 10  9  1  0
  9 14  2  0
 16 10  1  0
 11 13  1  0
 11 15  2  0
 11 16  1  0
 17 18  1  0
M  END
$$$$
