
     RDKit          3D

 18 20  0  0  0  0  0  0  0  0999 V2000
   -6.2805    7.7079  -20.4357 C   0  0  0  0  0  0  0  0  0  0  0  0
   -5.4045    9.5063  -21.3229 C   0  0  0  0  0  0  0  0  0  0  0  0
   -2.1413    6.1379  -21.4761 C   0  0  0  0  0  0  0  0  0  0  0  0
   -2.8524    7.3589  -16.5544 N   0  0  0  0  0  0  0  0  0  0  0  0
   -6.5476    6.3408  -19.9728 C   0  0  0  0  0  0  0  0  0  0  0  0
   -2.8289    8.4528  -17.3345 C   0  0  0  0  0  0  0  0  0  0  0  0
   -2.8954    8.3204  -18.7130 C   0  0  0  0  0  0  0  0  0  0  0  0
   -2.6058    6.2230  -22.7482 N   0  0  0  0  0  0  0  0  0  0  0  0
   -3.0056    5.9865  -18.4313 C   0  0  0  0  0  0  0  0  0  0  0  0
   -2.9857    7.0642  -19.2792 C   0  0  0  0  0  0  0  0  0  0  0  0
   -4.0407    7.3588  -21.5432 C   0  0  0  0  0  0  0  0  0  0  0  0
   -4.4707   10.4458  -22.0375 C   0  0  0  0  0  0  0  0  0  0  0  0
   -5.1776    8.1604  -21.1276 C   0  0  0  0  0  0  0  0  0  0  0  0
   -2.9401    6.1129  -17.0693 C   0  0  0  0  0  0  0  0  0  0  0  0
   -3.7276    6.9451  -22.7820 N   0  0  0  0  0  0  0  0  0  0  0  0
   -3.0608    6.8642  -20.7133 C   0  0  0  0  0  0  0  0  0  0  0  0
   -6.5808    9.8022  -20.7679 N   0  0  0  0  0  0  0  0  0  0  0  0
   -7.0881    8.7346  -20.2479 O   0  0  0  0  0  0  0  0  0  0  0  0
  5  1  1  1
 13  1  2  0
  1 18  1  0
 12  2  1  1
 13  2  1  0
  2 17  2  0
  8  3  1  0
  3 16  2  0
  6  4  2  0
 14  4  1  0
  7  6  1  0
 10  7  2  0
 15  8  1  0
 10  9  1  0
  9 14  2  0
 16 10  1  0
 11 13  1  0
 11 15  2  0
 11 16  1  0
 17 18  1  0
M  END
$$$$
