
     RDKit          3D

 18 20  0  0  0  0  0  0  0  0999 V2000
  -11.1733   13.1906  -29.0519 C   0  0  0  0  0  0  0  0  0  0  0  0
  -10.8794   11.0217  -29.0377 C   0  0  0  0  0  0  0  0  0  0  0  0
  -12.7262   11.9645  -24.9260 C   0  0  0  0  0  0  0  0  0  0  0  0
   -8.1342   14.0875  -24.7999 N   0  0  0  0  0  0  0  0  0  0  0  0
  -11.5928   14.5641  -28.6723 C   0  0  0  0  0  0  0  0  0  0  0  0
   -9.2512   14.7036  -24.4145 C   0  0  0  0  0  0  0  0  0  0  0  0
  -10.4583   14.1299  -24.7440 C   0  0  0  0  0  0  0  0  0  0  0  0
  -13.7217   11.3787  -25.6044 N   0  0  0  0  0  0  0  0  0  0  0  0
   -9.3288   12.3608  -25.8240 C   0  0  0  0  0  0  0  0  0  0  0  0
  -10.5109   12.9529  -25.4521 C   0  0  0  0  0  0  0  0  0  0  0  0
  -12.1818   11.8948  -27.0705 C   0  0  0  0  0  0  0  0  0  0  0  0
  -10.8633    9.5852  -28.7321 C   0  0  0  0  0  0  0  0  0  0  0  0
  -11.4521   12.0526  -28.3223 C   0  0  0  0  0  0  0  0  0  0  0  0
   -8.1257   12.9397  -25.4912 C   0  0  0  0  0  0  0  0  0  0  0  0
  -13.3866   11.3445  -26.8681 N   0  0  0  0  0  0  0  0  0  0  0  0
  -11.7490   12.2961  -25.8309 C   0  0  0  0  0  0  0  0  0  0  0  0
  -10.2910   11.5520  -30.1418 N   0  0  0  0  0  0  0  0  0  0  0  0
  -10.4764   12.8482  -30.1340 O   0  0  0  0  0  0  0  0  0  0  0  0
  1  5  1  0
 13  1  2  0
  1 18  1  0
  2 12  1  0
 13  2  1  0
  2 17  2  0
  8  3  1  0
  3 16  2  0
  6  4  2  0
 14  4  1  0
  7  6  1  0
 10  7  2  0
 15  8  1  0
 10  9  1  0
  9 14  2  0
 16 10  1  0
 11 13  1  0
 11 15  2  0
 11 16  1  0
 17 18  1  0
M  END
$$$$
