
     RDKit          3D

 18 20  0  0  0  0  0  0  0  0999 V2000
   -5.6761    8.5826  -22.8415 C   0  0  0  0  0  0  0  0  0  0  0  0
   -6.0646    6.4426  -23.0825 C   0  0  0  0  0  0  0  0  0  0  0  0
   -1.7899    6.7541  -21.2496 C   0  0  0  0  0  0  0  0  0  0  0  0
   -5.2556    7.5603  -17.5749 N   0  0  0  0  0  0  0  0  0  0  0  0
   -5.0630    9.8942  -22.5995 C   0  0  0  0  0  0  0  0  0  0  0  0
   -5.7941    6.7730  -18.5215 C   0  0  0  0  0  0  0  0  0  0  0  0
   -5.1249    6.5756  -19.7195 C   0  0  0  0  0  0  0  0  0  0  0  0
   -1.5336    6.6788  -22.5799 N   0  0  0  0  0  0  0  0  0  0  0  0
   -3.4088    7.9806  -18.9323 C   0  0  0  0  0  0  0  0  0  0  0  0
   -3.9069    7.1892  -19.9356 C   0  0  0  0  0  0  0  0  0  0  0  0
   -3.6807    7.0924  -22.4385 C   0  0  0  0  0  0  0  0  0  0  0  0
   -5.8883    4.9490  -23.1395 C   0  0  0  0  0  0  0  0  0  0  0  0
   -5.0708    7.3463  -22.7716 C   0  0  0  0  0  0  0  0  0  0  0  0
   -4.0666    8.1781  -17.7476 C   0  0  0  0  0  0  0  0  0  0  0  0
   -2.6535    6.8795  -23.2773 N   0  0  0  0  0  0  0  0  0  0  0  0
   -3.1604    7.0180  -21.1667 C   0  0  0  0  0  0  0  0  0  0  0  0
   -7.1805    7.1346  -23.3172 N   0  0  0  0  0  0  0  0  0  0  0  0
   -6.9398    8.3949  -23.1723 O   0  0  0  0  0  0  0  0  0  0  0  0
  5  1  1  1
 13  1  2  0
  1 18  1  0
 12  2  1  1
 13  2  1  0
  2 17  2  0
  8  3  1  0
  3 16  2  0
  6  4  2  0
 14  4  1  0
  7  6  1  0
 10  7  2  0
 15  8  1  0
 10  9  1  0
  9 14  2  0
 16 10  1  0
 11 13  1  0
 11 15  2  0
 11 16  1  0
 17 18  1  0
M  END
$$$$
