
     RDKit          3D

 18 20  0  0  0  0  0  0  0  0999 V2000
   -4.3282    9.0671  -23.1269 C   0  0  0  0  0  0  0  0  0  0  0  0
   -2.2084    8.7971  -22.6559 C   0  0  0  0  0  0  0  0  0  0  0  0
   -4.2366    4.7133  -21.6988 C   0  0  0  0  0  0  0  0  0  0  0  0
   -5.0201    7.9671  -17.8369 N   0  0  0  0  0  0  0  0  0  0  0  0
   -5.7596    8.8705  -23.3861 C   0  0  0  0  0  0  0  0  0  0  0  0
   -4.4600    8.6971  -18.8162 C   0  0  0  0  0  0  0  0  0  0  0  0
   -4.1474    8.1028  -20.0291 C   0  0  0  0  0  0  0  0  0  0  0  0
   -3.8444    4.5381  -22.9859 N   0  0  0  0  0  0  0  0  0  0  0  0
   -4.9854    6.0701  -19.1897 C   0  0  0  0  0  0  0  0  0  0  0  0
   -4.4130    6.7621  -20.2262 C   0  0  0  0  0  0  0  0  0  0  0  0
   -3.6506    6.6901  -22.6218 C   0  0  0  0  0  0  0  0  0  0  0  0
   -0.8866    8.1767  -22.2907 C   0  0  0  0  0  0  0  0  0  0  0  0
   -3.3960    8.1095  -22.7900 C   0  0  0  0  0  0  0  0  0  0  0  0
   -5.2957    6.6534  -17.9902 C   0  0  0  0  0  0  0  0  0  0  0  0
   -3.4993    5.7086  -23.5261 N   0  0  0  0  0  0  0  0  0  0  0  0
   -4.1105    6.0874  -21.4734 C   0  0  0  0  0  0  0  0  0  0  0  0
   -2.4564   10.0837  -22.9054 N   0  0  0  0  0  0  0  0  0  0  0  0
   -3.7090   10.2313  -23.1818 O   0  0  0  0  0  0  0  0  0  0  0  0
  5  1  1  1
 13  1  2  0
  1 18  1  0
 12  2  1  1
 13  2  1  0
  2 17  2  0
  8  3  1  0
  3 16  2  0
  6  4  2  0
 14  4  1  0
  7  6  1  0
 10  7  2  0
 15  8  1  0
 10  9  1  0
  9 14  2  0
 16 10  1  0
 11 13  1  0
 11 15  2  0
 11 16  1  0
 17 18  1  0
M  END
$$$$
