
     RDKit          3D

 18 20  0  0  0  0  0  0  0  0999 V2000
   -3.2738    8.4698  -22.4440 C   0  0  0  0  0  0  0  0  0  0  0  0
   -3.3544    9.7074  -20.6406 C   0  0  0  0  0  0  0  0  0  0  0  0
   -4.3036    5.3693  -19.2900 C   0  0  0  0  0  0  0  0  0  0  0  0
   -7.6606    5.8603  -22.9969 N   0  0  0  0  0  0  0  0  0  0  0  0
   -3.2661    7.2976  -23.3565 C   0  0  0  0  0  0  0  0  0  0  0  0
   -7.4995    7.0573  -22.4336 C   0  0  0  0  0  0  0  0  0  0  0  0
   -6.4695    7.2208  -21.5352 C   0  0  0  0  0  0  0  0  0  0  0  0
   -3.2144    5.7638  -18.6174 N   0  0  0  0  0  0  0  0  0  0  0  0
   -5.8411    4.9657  -21.8368 C   0  0  0  0  0  0  0  0  0  0  0  0
   -5.6291    6.1777  -21.2267 C   0  0  0  0  0  0  0  0  0  0  0  0
   -3.5421    7.2376  -20.2009 C   0  0  0  0  0  0  0  0  0  0  0  0
   -3.4401   10.2307  -19.2709 C   0  0  0  0  0  0  0  0  0  0  0  0
   -3.3970    8.3977  -21.0713 C   0  0  0  0  0  0  0  0  0  0  0  0
   -6.8725    4.8091  -22.7339 C   0  0  0  0  0  0  0  0  0  0  0  0
   -2.7761    6.8671  -19.1659 N   0  0  0  0  0  0  0  0  0  0  0  0
   -4.5254    6.2834  -20.2895 C   0  0  0  0  0  0  0  0  0  0  0  0
   -3.2115   10.5045  -21.7318 N   0  0  0  0  0  0  0  0  0  0  0  0
   -3.1652    9.7486  -22.8000 O   0  0  0  0  0  0  0  0  0  0  0  0
  1  5  1  0
 13  1  2  0
  1 18  1  0
  2 12  1  0
 13  2  1  0
  2 17  2  0
  8  3  1  0
  3 16  2  0
  6  4  2  0
 14  4  1  0
  7  6  1  0
 10  7  2  0
 15  8  1  0
 10  9  1  0
  9 14  2  0
 16 10  1  0
 11 13  1  0
 11 15  2  0
 11 16  1  0
 17 18  1  0
M  END
$$$$
