
     RDKit          3D

 18 20  0  0  0  0  0  0  0  0999 V2000
   -3.9472    6.1296  -21.7969 C   0  0  0  0  0  0  0  0  0  0  0  0
   -6.0911    6.5663  -21.8332 C   0  0  0  0  0  0  0  0  0  0  0  0
   -3.8565   10.2383  -19.9014 C   0  0  0  0  0  0  0  0  0  0  0  0
   -2.8693    6.2520  -16.8492 N   0  0  0  0  0  0  0  0  0  0  0  0
   -2.4873    6.2021  -21.6629 C   0  0  0  0  0  0  0  0  0  0  0  0
   -4.0710    6.0797  -17.4254 C   0  0  0  0  0  0  0  0  0  0  0  0
   -4.4742    6.9232  -18.4491 C   0  0  0  0  0  0  0  0  0  0  0  0
   -4.3291   10.6684  -21.0985 N   0  0  0  0  0  0  0  0  0  0  0  0
   -2.4254    8.0633  -18.2464 C   0  0  0  0  0  0  0  0  0  0  0  0
   -3.6389    7.9378  -18.8729 C   0  0  0  0  0  0  0  0  0  0  0  0
   -4.5580    8.4898  -21.1479 C   0  0  0  0  0  0  0  0  0  0  0  0
   -7.4137    7.2765  -21.7241 C   0  0  0  0  0  0  0  0  0  0  0  0
   -4.8627    7.1349  -21.5710 C   0  0  0  0  0  0  0  0  0  0  0  0
   -2.0233    7.2323  -17.2350 C   0  0  0  0  0  0  0  0  0  0  0  0
   -4.7421    9.6318  -21.8305 N   0  0  0  0  0  0  0  0  0  0  0  0
   -4.0054    8.8486  -19.9398 C   0  0  0  0  0  0  0  0  0  0  0  0
   -5.8812    5.2986  -22.1911 N   0  0  0  0  0  0  0  0  0  0  0  0
   -4.6139    5.0522  -22.1661 O   0  0  0  0  0  0  0  0  0  0  0  0
  5  1  1  1
 13  1  2  0
  1 18  1  0
 12  2  1  1
 13  2  1  0
  2 17  2  0
  8  3  1  0
  3 16  2  0
  6  4  2  0
 14  4  1  0
  7  6  1  0
 10  7  2  0
 15  8  1  0
 10  9  1  0
  9 14  2  0
 16 10  1  0
 11 13  1  0
 11 15  2  0
 11 16  1  0
 17 18  1  0
M  END
$$$$
