
     RDKit          3D

 18 20  0  0  0  0  0  0  0  0999 V2000
   -7.4077   19.0546  -26.0933 C   0  0  0  0  0  0  0  0  0  0  0  0
   -7.0025   19.5906  -28.1763 C   0  0  0  0  0  0  0  0  0  0  0  0
  -10.3673   16.4320  -28.3686 C   0  0  0  0  0  0  0  0  0  0  0  0
   -6.5682   13.8331  -26.3365 N   0  0  0  0  0  0  0  0  0  0  0  0
   -8.0283   18.4661  -24.8787 C   0  0  0  0  0  0  0  0  0  0  0  0
   -7.0668   14.7020  -25.4577 C   0  0  0  0  0  0  0  0  0  0  0  0
   -7.9254   15.6742  -25.9186 C   0  0  0  0  0  0  0  0  0  0  0  0
  -10.9345   17.5774  -28.7691 N   0  0  0  0  0  0  0  0  0  0  0  0
   -7.7168   14.8265  -28.1117 C   0  0  0  0  0  0  0  0  0  0  0  0
   -8.2599   15.7477  -27.2498 C   0  0  0  0  0  0  0  0  0  0  0  0
   -9.0128   18.1100  -27.8690 C   0  0  0  0  0  0  0  0  0  0  0  0
   -7.0121   19.7561  -29.6357 C   0  0  0  0  0  0  0  0  0  0  0  0
   -7.8708   18.8728  -27.3806 C   0  0  0  0  0  0  0  0  0  0  0  0
   -6.8593   13.8573  -27.6442 C   0  0  0  0  0  0  0  0  0  0  0  0
  -10.1243   18.5587  -28.4679 N   0  0  0  0  0  0  0  0  0  0  0  0
   -9.1583   16.7465  -27.8002 C   0  0  0  0  0  0  0  0  0  0  0  0
   -6.0714   20.1654  -27.3706 N   0  0  0  0  0  0  0  0  0  0  0  0
   -6.3288   19.8346  -26.1301 O   0  0  0  0  0  0  0  0  0  0  0  0
  1  5  1  0
 13  1  2  0
  1 18  1  0
  2 12  1  0
 13  2  1  0
  2 17  2  0
  8  3  1  0
  3 16  2  0
  6  4  2  0
 14  4  1  0
  7  6  1  0
 10  7  2  0
 15  8  1  0
 10  9  1  0
  9 14  2  0
 16 10  1  0
 11 13  1  0
 11 15  2  0
 11 16  1  0
 17 18  1  0
M  END
$$$$
