
     RDKit          3D

 18 20  0  0  0  0  0  0  0  0999 V2000
   -4.0665    9.5911  -21.8874 C   0  0  0  0  0  0  0  0  0  0  0  0
   -2.2982    8.4952  -22.5656 C   0  0  0  0  0  0  0  0  0  0  0  0
   -5.4780    5.3037  -21.2779 C   0  0  0  0  0  0  0  0  0  0  0  0
   -3.7716    7.6072  -17.0393 N   0  0  0  0  0  0  0  0  0  0  0  0
   -5.4070    9.9767  -21.4300 C   0  0  0  0  0  0  0  0  0  0  0  0
   -2.7982    7.6018  -17.9657 C   0  0  0  0  0  0  0  0  0  0  0  0
   -3.0845    7.2192  -19.2672 C   0  0  0  0  0  0  0  0  0  0  0  0
   -5.5596    5.3235  -22.6323 N   0  0  0  0  0  0  0  0  0  0  0  0
   -5.3196    6.8710  -18.6178 C   0  0  0  0  0  0  0  0  0  0  0  0
   -4.3696    6.8450  -19.6066 C   0  0  0  0  0  0  0  0  0  0  0  0
   -4.3864    7.0985  -22.1087 C   0  0  0  0  0  0  0  0  0  0  0  0
   -1.3695    7.3886  -22.9882 C   0  0  0  0  0  0  0  0  0  0  0  0
   -3.6130    8.3246  -22.1874 C   0  0  0  0  0  0  0  0  0  0  0  0
   -5.0409    7.2482  -17.3312 C   0  0  0  0  0  0  0  0  0  0  0  0
   -4.9132    6.3854  -23.1176 N   0  0  0  0  0  0  0  0  0  0  0  0
   -4.7288    6.4380  -20.9510 C   0  0  0  0  0  0  0  0  0  0  0  0
   -2.0201    9.7971  -22.4840 N   0  0  0  0  0  0  0  0  0  0  0  0
   -3.0697   10.4336  -22.0832 O   0  0  0  0  0  0  0  0  0  0  0  0
  5  1  1  1
 13  1  2  0
  1 18  1  0
 12  2  1  1
 13  2  1  0
  2 17  2  0
  8  3  1  0
  3 16  2  0
  6  4  2  0
 14  4  1  0
  7  6  1  0
 10  7  2  0
 15  8  1  0
 10  9  1  0
  9 14  2  0
 16 10  1  0
 11 13  1  0
 11 15  2  0
 11 16  1  0
 17 18  1  0
M  END
$$$$
