
     RDKit          3D

 18 20  0  0  0  0  0  0  0  0999 V2000
   -3.3211    8.4990  -22.7791 C   0  0  0  0  0  0  0  0  0  0  0  0
   -3.0064    9.6457  -20.9422 C   0  0  0  0  0  0  0  0  0  0  0  0
   -6.5522    7.0338  -19.7308 C   0  0  0  0  0  0  0  0  0  0  0  0
   -1.9817    5.9964  -17.6232 N   0  0  0  0  0  0  0  0  0  0  0  0
   -3.8454    7.6134  -23.8258 C   0  0  0  0  0  0  0  0  0  0  0  0
   -2.9894    6.6343  -17.0041 C   0  0  0  0  0  0  0  0  0  0  0  0
   -4.0691    7.0988  -17.7394 C   0  0  0  0  0  0  0  0  0  0  0  0
   -7.2137    7.6794  -20.7241 N   0  0  0  0  0  0  0  0  0  0  0  0
   -3.0472    6.2463  -19.6804 C   0  0  0  0  0  0  0  0  0  0  0  0
   -4.1047    6.9039  -19.1060 C   0  0  0  0  0  0  0  0  0  0  0  0
   -5.1042    8.1921  -21.0210 C   0  0  0  0  0  0  0  0  0  0  0  0
   -3.1826   10.2292  -19.5659 C   0  0  0  0  0  0  0  0  0  0  0  0
   -3.8725    8.7566  -21.5424 C   0  0  0  0  0  0  0  0  0  0  0  0
   -1.9789    5.7860  -18.9577 C   0  0  0  0  0  0  0  0  0  0  0  0
   -6.3538    8.3618  -21.4830 N   0  0  0  0  0  0  0  0  0  0  0  0
   -5.2079    7.3649  -19.9261 C   0  0  0  0  0  0  0  0  0  0  0  0
   -2.0110    9.8805  -21.7985 N   0  0  0  0  0  0  0  0  0  0  0  0
   -2.2069    9.1994  -22.8779 O   0  0  0  0  0  0  0  0  0  0  0  0
  5  1  1  1
 13  1  2  0
  1 18  1  0
 12  2  1  1
 13  2  1  0
  2 17  2  0
  8  3  1  0
  3 16  2  0
  6  4  2  0
 14  4  1  0
  7  6  1  0
 10  7  2  0
 15  8  1  0
 10  9  1  0
  9 14  2  0
 16 10  1  0
 11 13  1  0
 11 15  2  0
 11 16  1  0
 17 18  1  0
M  END
$$$$
