
     RDKit          3D

 36 39  0  0  0  0  0  0  0  0999 V2000
  -17.0794    8.6578   -1.0904 N   0  0  0  0  0  0  0  0  0  0  0  0
   -9.2083    8.3450    1.9540 N   0  0  0  0  0  4  0  0  0  0  0  0
  -24.4663    7.6095   -1.5891 C   0  0  0  0  0  0  0  0  0  0  0  0
  -24.6274    7.3966   -4.3218 C   0  0  0  0  0  0  0  0  0  0  0  0
  -23.5160    7.9953   -3.7178 C   0  0  0  0  0  0  0  0  0  0  0  0
  -23.4396    8.0997   -2.3524 C   0  0  0  0  0  0  0  0  0  0  0  0
  -20.5771    7.8010   -1.9984 C   0  0  1  0  0  0  0  0  0  0  0  0
  -19.8147    6.4314    0.8812 C   0  0  0  0  0  0  0  0  0  0  0  0
  -15.8248    8.2478   -0.7474 C   0  0  0  0  0  0  0  0  0  0  0  0
  -13.7919    9.3134    0.3496 C   0  0  0  0  0  0  0  0  0  0  0  0
  -12.1679    9.1778    2.1311 C   0  0  0  0  0  0  0  0  0  0  0  0
  -12.7347    9.4880   -0.5329 C   0  0  0  0  0  0  0  0  0  0  0  0
  -19.3635    8.6249   -1.7479 C   0  0  1  0  0  0  0  0  0  0  0  0
  -26.8117    6.2828   -4.1973 C   0  0  0  0  0  0  0  0  0  0  0  0
  -18.2596    6.5085   -1.0647 C   0  0  2  0  0  0  0  0  0  0  0  0
  -18.0946    7.8193   -1.7347 C   0  0  2  0  0  0  0  0  0  0  0  0
  -15.1536    9.3010   -0.1654 C   0  0  0  0  0  0  0  0  0  0  0  0
  -13.4747    9.1601    1.6820 C   0  0  0  0  0  0  0  0  0  0  0  0
  -11.1413    9.3535    1.2255 C   0  0  0  0  0  0  0  0  0  0  0  0
  -11.4275    9.5098   -0.1178 C   0  0  0  0  0  0  0  0  0  0  0  0
  -25.6454    6.9123   -3.5332 C   0  0  0  0  0  0  0  0  0  0  0  0
  -25.5858    7.0083   -2.1601 C   0  0  0  0  0  0  0  0  0  0  0  0
  -19.6394    6.1549   -0.6197 C   0  0  2  0  0  0  0  0  0  0  0  0
  -14.4695    8.9871    2.5818 F   0  0  0  0  0  0  0  0  0  0  0  0
  -11.8509    9.0294    3.4252 F   0  0  0  0  0  0  0  0  0  0  0  0
  -10.4040    9.6806   -0.9872 F   0  0  0  0  0  0  0  0  0  0  0  0
  -13.0354    9.6421   -1.8614 F   0  0  0  0  0  0  0  0  0  0  0  0
   -9.7713    9.3780    1.6488 N   0  0  0  0  0  0  0  0  0  0  0  0
   -8.9748    7.1875    2.3556 N   0  0  0  0  0  2  0  0  0  0  0  0
  -16.0343   10.3322   -0.1735 N   0  0  0  0  0  0  0  0  0  0  0  0
  -17.1770    9.9270   -0.7297 N   0  0  0  0  0  0  0  0  0  0  0  0
  -20.6728    6.6269   -1.3530 O   0  0  0  0  0  0  0  0  0  0  0  0
  -20.8501    5.6120    1.3495 O   0  0  0  0  0  0  0  0  0  0  0  0
  -17.4461    6.5216    0.0908 O   0  0  0  0  0  0  0  0  0  0  0  0
  -19.2539    9.5640   -2.7745 O   0  0  0  0  0  0  0  0  0  0  0  0
  -22.0242    8.8618   -1.6102 S   0  0  0  0  0  0  0  0  0  0  0  0
  9  1  1  0
 16  1  1  1
  1 31  1  0
 28  2  2  3
  2 29  2  0
  6  3  2  0
  3 22  1  0
  5  4  2  0
  4 21  1  0
  6  5  1  0
 36  6  1  0
 13  7  1  0
  7 32  1  0
  7 36  1  1
 23  8  1  0
  8 33  1  6
 17  9  2  0
 12 10  2  0
 10 17  1  0
 18 10  1  0
 11 18  2  0
 19 11  1  0
 11 25  1  0
 20 12  1  0
 12 27  1  0
 16 13  1  0
 13 35  1  6
 14 21  1  6
 16 15  1  0
 15 23  1  0
 15 34  1  1
 17 30  1  0
 18 24  1  0
 19 20  2  0
 19 28  1  0
 20 26  1  0
 21 22  2  0
 23 32  1  6
 30 31  2  0
M  CHG  2   2   1  29  -1
M  END
$$$$
