
     RDKit          3D

 36 39  0  0  0  0  0  0  0  0999 V2000
  -17.0126    8.5604   -0.9371 N   0  0  0  0  0  0  0  0  0  0  0  0
   -8.6851    9.6486   -0.3166 N   0  0  0  0  0  4  0  0  0  0  0  0
  -23.6458    7.4207   -2.2871 C   0  0  0  0  0  0  0  0  0  0  0  0
  -25.3894    9.0322   -3.6661 C   0  0  0  0  0  0  0  0  0  0  0  0
  -24.2019    9.5530   -3.1399 C   0  0  0  0  0  0  0  0  0  0  0  0
  -23.3337    8.7446   -2.4516 C   0  0  0  0  0  0  0  0  0  0  0  0
  -20.4831    8.2639   -2.2254 C   0  0  1  0  0  0  0  0  0  0  0  0
  -20.1416    6.4239    0.4666 C   0  0  0  0  0  0  0  0  0  0  0  0
  -15.6733    8.3291   -1.0497 C   0  0  0  0  0  0  0  0  0  0  0  0
  -13.5747    9.1370    0.1396 C   0  0  0  0  0  0  0  0  0  0  0  0
  -11.6145    8.8624    1.5223 C   0  0  0  0  0  0  0  0  0  0  0  0
  -12.7346    9.5675   -0.8782 C   0  0  0  0  0  0  0  0  0  0  0  0
  -19.2164    8.8934   -1.7634 C   0  0  1  0  0  0  0  0  0  0  0  0
  -26.9442    7.1723   -4.0542 C   0  0  0  0  0  0  0  0  0  0  0  0
  -18.4141    6.5854   -1.3224 C   0  0  2  0  0  0  0  0  0  0  0  0
  -18.0481    7.9477   -1.7746 C   0  0  2  0  0  0  0  0  0  0  0  0
  -15.0093    9.0752   -0.1006 C   0  0  0  0  0  0  0  0  0  0  0  0
  -12.9817    8.7897    1.3342 C   0  0  0  0  0  0  0  0  0  0  0  0
  -10.8092    9.2949    0.4882 C   0  0  0  0  0  0  0  0  0  0  0  0
  -11.3743    9.6503   -0.7222 C   0  0  0  0  0  0  0  0  0  0  0  0
  -25.6800    7.6994   -3.4873 C   0  0  0  0  0  0  0  0  0  0  0  0
  -24.8198    6.8723   -2.7988 C   0  0  0  0  0  0  0  0  0  0  0  0
  -19.8591    6.3409   -1.0411 C   0  0  2  0  0  0  0  0  0  0  0  0
  -13.7573    8.3641    2.3572 F   0  0  0  0  0  0  0  0  0  0  0  0
  -11.0298    8.5264    2.6810 F   0  0  0  0  0  0  0  0  0  0  0  0
  -10.5643   10.0713   -1.7217 F   0  0  0  0  0  0  0  0  0  0  0  0
  -13.3108    9.9166   -2.0720 F   0  0  0  0  0  0  0  0  0  0  0  0
   -9.3861    9.3853    0.6408 N   0  0  0  0  0  0  0  0  0  0  0  0
   -7.8308    9.5845   -1.2230 N   0  0  0  0  0  2  0  0  0  0  0  0
  -15.9801    9.7457    0.5680 N   0  0  0  0  0  0  0  0  0  0  0  0
  -17.1678    9.4241    0.0530 N   0  0  0  0  0  0  0  0  0  0  0  0
  -20.7636    7.0310   -1.7719 O   0  0  0  0  0  0  0  0  0  0  0  0
  -20.4707    5.1371    0.9120 O   0  0  0  0  0  0  0  0  0  0  0  0
  -17.7142    6.3394   -0.1196 O   0  0  0  0  0  0  0  0  0  0  0  0
  -18.9121    9.9467   -2.6269 O   0  0  0  0  0  0  0  0  0  0  0  0
  -21.8375    9.4255   -1.7939 S   0  0  0  0  0  0  0  0  0  0  0  0
  9  1  1  0
 16  1  1  1
  1 31  1  0
 28  2  2  3
  2 29  2  0
  6  3  2  0
  3 22  1  0
  5  4  2  0
  4 21  1  0
  6  5  1  0
 36  6  1  0
 13  7  1  0
  7 32  1  0
  7 36  1  1
 23  8  1  0
  8 33  1  6
 17  9  2  0
 12 10  2  0
 10 17  1  0
 18 10  1  0
 11 18  2  0
 19 11  1  0
 11 25  1  0
 20 12  1  0
 12 27  1  0
 16 13  1  0
 13 35  1  6
 14 21  1  6
 16 15  1  0
 15 23  1  0
 15 34  1  1
 17 30  1  0
 18 24  1  0
 19 20  2  0
 19 28  1  0
 20 26  1  0
 21 22  2  0
 23 32  1  6
 30 31  2  0
M  CHG  2   2   1  29  -1
M  END
$$$$
