
     RDKit          3D

 36 39  0  0  0  0  0  0  0  0999 V2000
  -16.8477    8.4911   -0.5237 N   0  0  0  0  0  0  0  0  0  0  0  0
   -8.8111   10.8859    1.0688 N   0  0  0  0  0  4  0  0  0  0  0  0
  -23.4094    7.4969   -2.3852 C   0  0  0  0  0  0  0  0  0  0  0  0
  -25.0802    9.3251   -3.5705 C   0  0  0  0  0  0  0  0  0  0  0  0
  -23.9338    9.7456   -2.8869 C   0  0  0  0  0  0  0  0  0  0  0  0
  -23.1019    8.8291   -2.2963 C   0  0  0  0  0  0  0  0  0  0  0  0
  -20.2815    8.2698   -1.9209 C   0  0  1  0  0  0  0  0  0  0  0  0
  -19.9909    6.2286    0.6282 C   0  0  0  0  0  0  0  0  0  0  0  0
  -15.4987    8.4240   -0.7128 C   0  0  0  0  0  0  0  0  0  0  0  0
  -13.4367    9.2141    0.5501 C   0  0  0  0  0  0  0  0  0  0  0  0
  -11.4316    9.0762    1.8882 C   0  0  0  0  0  0  0  0  0  0  0  0
  -12.6528    9.7096   -0.4829 C   0  0  0  0  0  0  0  0  0  0  0  0
  -19.0329    8.8709   -1.3787 C   0  0  1  0  0  0  0  0  0  0  0  0
  -26.5874    7.5621   -4.3751 C   0  0  0  0  0  0  0  0  0  0  0  0
  -18.2202    6.5417   -1.0973 C   0  0  2  0  0  0  0  0  0  0  0  0
  -17.8558    7.9377   -1.4329 C   0  0  2  0  0  0  0  0  0  0  0  0
  -14.8679    9.0491    0.3406 C   0  0  0  0  0  0  0  0  0  0  0  0
  -12.7937    8.9050    1.7293 C   0  0  0  0  0  0  0  0  0  0  0  0
  -10.6829    9.5713    0.8397 C   0  0  0  0  0  0  0  0  0  0  0  0
  -11.2990    9.8905   -0.3558 C   0  0  0  0  0  0  0  0  0  0  0  0
  -25.3671    7.9817   -3.6456 C   0  0  0  0  0  0  0  0  0  0  0  0
  -24.5429    7.0467   -3.0584 C   0  0  0  0  0  0  0  0  0  0  0  0
  -19.6695    6.2652   -0.8735 C   0  0  2  0  0  0  0  0  0  0  0  0
  -13.5135    8.4191    2.7660 F   0  0  0  0  0  0  0  0  0  0  0  0
  -10.7986    8.7781    3.0316 F   0  0  0  0  0  0  0  0  0  0  0  0
  -10.5441   10.3743   -1.3699 F   0  0  0  0  0  0  0  0  0  0  0  0
  -13.2791   10.0217   -1.6616 F   0  0  0  0  0  0  0  0  0  0  0  0
   -9.2671    9.7643    0.9620 N   0  0  0  0  0  0  0  0  0  0  0  0
   -8.6121   12.0633    1.4291 N   0  0  0  0  0  2  0  0  0  0  0  0
  -15.8678    9.4823    1.1477 N   0  0  0  0  0  0  0  0  0  0  0  0
  -17.0409    9.1390    0.6135 N   0  0  0  0  0  0  0  0  0  0  0  0
  -20.5617    7.0033   -1.5718 O   0  0  0  0  0  0  0  0  0  0  0  0
  -21.0411    5.3213    0.8193 O   0  0  0  0  0  0  0  0  0  0  0  0
  -17.5487    6.2081    0.1005 O   0  0  0  0  0  0  0  0  0  0  0  0
  -18.7169    9.9905   -2.1497 O   0  0  0  0  0  0  0  0  0  0  0  0
  -21.6573    9.3841   -1.4360 S   0  0  0  0  0  0  0  0  0  0  0  0
  9  1  1  0
 16  1  1  1
  1 31  1  0
 28  2  2  3
  2 29  2  0
  6  3  2  0
  3 22  1  0
  5  4  2  0
  4 21  1  0
  6  5  1  0
 36  6  1  0
 13  7  1  0
  7 32  1  0
  7 36  1  1
 23  8  1  0
  8 33  1  6
 17  9  2  0
 12 10  2  0
 10 17  1  0
 18 10  1  0
 11 18  2  0
 19 11  1  0
 11 25  1  0
 20 12  1  0
 12 27  1  0
 16 13  1  0
 13 35  1  6
 14 21  1  6
 16 15  1  0
 15 23  1  0
 15 34  1  1
 17 30  1  0
 18 24  1  0
 19 20  2  0
 19 28  1  0
 20 26  1  0
 21 22  2  0
 23 32  1  6
 30 31  2  0
M  CHG  2   2   1  29  -1
M  END
$$$$
