
     RDKit          3D

 36 39  0  0  0  0  0  0  0  0999 V2000
  -17.1729    8.9330   -0.7226 N   0  0  0  0  0  0  0  0  0  0  0  0
   -8.7637    9.5925    1.1850 N   0  0  0  0  0  4  0  0  0  0  0  0
  -23.8650    9.0059   -2.6968 C   0  0  0  0  0  0  0  0  0  0  0  0
  -25.7751    7.2863   -1.7316 C   0  0  0  0  0  0  0  0  0  0  0  0
  -24.6699    7.5791   -0.9302 C   0  0  0  0  0  0  0  0  0  0  0  0
  -23.7234    8.4391   -1.4234 C   0  0  0  0  0  0  0  0  0  0  0  0
  -20.8126    8.3156   -1.3903 C   0  0  1  0  0  0  0  0  0  0  0  0
  -20.8118    6.2993    0.8941 C   0  0  0  0  0  0  0  0  0  0  0  0
  -15.9727    8.3473   -0.5015 C   0  0  0  0  0  0  0  0  0  0  0  0
  -13.5970    9.1516   -0.0088 C   0  0  0  0  0  0  0  0  0  0  0  0
  -11.3013    9.2588   -0.7027 C   0  0  0  0  0  0  0  0  0  0  0  0
  -13.1352    8.7111    1.2150 C   0  0  0  0  0  0  0  0  0  0  0  0
  -19.6000    9.1315   -0.9992 C   0  0  1  0  0  0  0  0  0  0  0  0
  -27.1288    7.4872   -3.7968 C   0  0  0  0  0  0  0  0  0  0  0  0
  -18.5973    7.0764    0.0041 C   0  0  2  0  0  0  0  0  0  0  0  0
  -18.4111    8.2281   -0.9870 C   0  0  2  0  0  0  0  0  0  0  0  0
  -15.0198    9.3236   -0.2857 C   0  0  0  0  0  0  0  0  0  0  0  0
  -12.6449    9.4242   -0.9696 C   0  0  0  0  0  0  0  0  0  0  0  0
  -10.8420    8.8175    0.5239 C   0  0  0  0  0  0  0  0  0  0  0  0
  -11.7928    8.5443    1.4862 C   0  0  0  0  0  0  0  0  0  0  0  0
  -25.9354    7.8263   -2.9760 C   0  0  0  0  0  0  0  0  0  0  0  0
  -24.9604    8.6875   -3.4366 C   0  0  0  0  0  0  0  0  0  0  0  0
  -19.9106    6.4427   -0.3113 C   0  0  2  0  0  0  0  0  0  0  0  0
  -13.0866    9.8569   -2.1739 F   0  0  0  0  0  0  0  0  0  0  0  0
  -10.3634    9.5290   -1.6547 F   0  0  0  0  0  0  0  0  0  0  0  0
  -11.3554    8.1059    2.7086 F   0  0  0  0  0  0  0  0  0  0  0  0
  -14.0763    8.4400    2.1704 F   0  0  0  0  0  0  0  0  0  0  0  0
   -9.4495    8.6523    0.7815 N   0  0  0  0  0  0  0  0  0  0  0  0
   -8.1229   10.4668    1.7842 N   0  0  0  0  0  2  0  0  0  0  0  0
  -15.6833   10.4903   -0.3844 N   0  0  0  0  0  0  0  0  0  0  0  0
  -16.9506   10.2211   -0.6426 N   0  0  0  0  0  0  0  0  0  0  0  0
  -20.6030    6.9698   -1.3591 O   0  0  0  0  0  0  0  0  0  0  0  0
  -21.5300    5.0822    0.8079 O   0  0  0  0  0  0  0  0  0  0  0  0
  -18.4939    7.5172    1.3162 O   0  0  0  0  0  0  0  0  0  0  0  0
  -19.3542   10.1492   -1.9188 O   0  0  0  0  0  0  0  0  0  0  0  0
  -22.2714    8.8732   -0.4810 S   0  0  0  0  0  0  0  0  0  0  0  0
  9  1  1  0
 16  1  1  1
  1 31  1  0
 28  2  2  3
  2 29  2  0
  6  3  2  0
  3 22  1  0
  5  4  2  0
  4 21  1  0
  6  5  1  0
 36  6  1  0
 13  7  1  0
  7 32  1  0
  7 36  1  1
 23  8  1  1
  8 33  1  0
 17  9  2  0
 12 10  2  0
 10 17  1  0
 18 10  1  0
 11 18  2  0
 19 11  1  0
 11 25  1  0
 20 12  1  0
 12 27  1  0
 16 13  1  0
 13 35  1  6
 21 14  1  0
 16 15  1  0
 15 23  1  0
 15 34  1  1
 17 30  1  0
 18 24  1  0
 19 20  2  0
 19 28  1  0
 20 26  1  0
 21 22  2  0
 23 32  1  0
 30 31  2  0
M  CHG  2   2   1  29  -1
M  END
$$$$
