
     RDKit          3D

 36 39  0  0  0  0  0  0  0  0999 V2000
  -17.0099    7.9286   -0.3597 N   0  0  0  0  0  0  0  0  0  0  0  0
   -9.9150   12.3961    0.9912 N   0  0  0  0  0  4  0  0  0  0  0  0
  -23.4009   11.0251   -0.2601 C   0  0  0  0  0  0  0  0  0  0  0  0
  -25.6209    9.4113   -0.3231 C   0  0  0  0  0  0  0  0  0  0  0  0
  -24.4423    8.9092    0.2322 C   0  0  0  0  0  0  0  0  0  0  0  0
  -23.3410    9.7248    0.2578 C   0  0  0  0  0  0  0  0  0  0  0  0
  -20.5616    9.1364   -0.3886 C   0  0  1  0  0  0  0  0  0  0  0  0
  -21.4705    6.2284   -0.4221 C   0  0  0  0  0  0  0  0  0  0  0  0
  -16.0896    8.9208   -0.3271 C   0  0  0  0  0  0  0  0  0  0  0  0
  -13.6150    9.1143    0.2832 C   0  0  0  0  0  0  0  0  0  0  0  0
  -12.1058   10.3842    1.6516 C   0  0  0  0  0  0  0  0  0  0  0  0
  -12.6767    9.2136   -0.7241 C   0  0  0  0  0  0  0  0  0  0  0  0
  -19.1705    8.9533    0.1774 C   0  0  1  0  0  0  0  0  0  0  0  0
  -26.9800   11.1703   -1.4167 C   0  0  0  0  0  0  0  0  0  0  0  0
  -19.0624    6.7189   -0.9324 C   0  0  2  0  0  0  0  0  0  0  0  0
  -18.3945    8.0853   -0.7575 C   0  0  2  0  0  0  0  0  0  0  0  0
  -14.8797    8.4091    0.0995 C   0  0  0  0  0  0  0  0  0  0  0  0
  -13.3024    9.7181    1.4839 C   0  0  0  0  0  0  0  0  0  0  0  0
  -11.1682   10.4820    0.6409 C   0  0  0  0  0  0  0  0  0  0  0  0
  -11.4791    9.8787   -0.5608 C   0  0  0  0  0  0  0  0  0  0  0  0
  -25.7039   10.6752   -0.8341 C   0  0  0  0  0  0  0  0  0  0  0  0
  -24.5732   11.4652   -0.7897 C   0  0  0  0  0  0  0  0  0  0  0  0
  -20.4870    6.9771   -1.2926 C   0  0  2  0  0  0  0  0  0  0  0  0
  -14.2156    9.6270    2.4792 F   0  0  0  0  0  0  0  0  0  0  0  0
  -11.8004   10.9799    2.8395 F   0  0  0  0  0  0  0  0  0  0  0  0
  -10.5608    9.9654   -1.5742 F   0  0  0  0  0  0  0  0  0  0  0  0
  -12.9830    8.6160   -1.9161 F   0  0  0  0  0  0  0  0  0  0  0  0
   -9.9370   11.1748    0.8325 N   0  0  0  0  0  0  0  0  0  0  0  0
   -9.9276   13.6336    0.9420 N   0  0  0  0  0  2  0  0  0  0  0  0
  -15.1082    7.1005    0.3158 N   0  0  0  0  0  0  0  0  0  0  0  0
  -16.3751    6.8531    0.0346 N   0  0  0  0  0  0  0  0  0  0  0  0
  -20.8569    8.2828   -1.4084 O   0  0  0  0  0  0  0  0  0  0  0  0
  -22.1080    5.2202   -1.1849 O   0  0  0  0  0  0  0  0  0  0  0  0
  -18.9096    5.9329    0.2014 O   0  0  0  0  0  0  0  0  0  0  0  0
  -18.5014   10.1708    0.2852 O   0  0  0  0  0  0  0  0  0  0  0  0
  -21.7859    9.1764    0.9402 S   0  0  0  0  0  0  0  0  0  0  0  0
  9  1  1  0
 16  1  1  1
  1 31  1  0
 28  2  2  3
  2 29  2  0
  6  3  2  0
  3 22  1  0
  5  4  2  0
  4 21  1  0
  6  5  1  0
 36  6  1  0
 13  7  1  0
  7 32  1  0
  7 36  1  1
 23  8  1  1
  8 33  1  0
 17  9  2  0
 12 10  2  0
 10 17  1  0
 18 10  1  0
 11 18  2  0
 19 11  1  0
 11 25  1  0
 20 12  1  0
 12 27  1  0
 16 13  1  0
 13 35  1  6
 21 14  1  0
 16 15  1  0
 15 23  1  0
 15 34  1  1
 17 30  1  0
 18 24  1  0
 19 20  2  0
 19 28  1  0
 20 26  1  0
 21 22  2  0
 23 32  1  0
 30 31  2  0
M  CHG  2   2   1  29  -1
M  END
$$$$
