
     RDKit          3D

 36 39  0  0  0  0  0  0  0  0999 V2000
  -16.4780    7.6981   -0.9612 N   0  0  0  0  0  0  0  0  0  0  0  0
  -10.1219   12.8548    1.2999 N   0  0  0  0  0  4  0  0  0  0  0  0
  -23.0009   10.6638   -1.1268 C   0  0  0  0  0  0  0  0  0  0  0  0
  -25.0729    8.9310   -0.6358 C   0  0  0  0  0  0  0  0  0  0  0  0
  -23.8229    8.6569   -0.0774 C   0  0  0  0  0  0  0  0  0  0  0  0
  -22.7966    9.5298   -0.3299 C   0  0  0  0  0  0  0  0  0  0  0  0
  -20.0627    8.8026   -1.0268 C   0  0  1  0  0  0  0  0  0  0  0  0
  -20.8540    6.0376   -0.0205 C   0  0  0  0  0  0  0  0  0  0  0  0
  -15.7596    8.7679   -0.5466 C   0  0  0  0  0  0  0  0  0  0  0  0
  -13.3185    9.2197    0.0619 C   0  0  0  0  0  0  0  0  0  0  0  0
  -11.5528   10.7737   -0.4185 C   0  0  0  0  0  0  0  0  0  0  0  0
  -12.9070    9.2646    1.3785 C   0  0  0  0  0  0  0  0  0  0  0  0
  -18.6192    8.8258   -0.5740 C   0  0  1  0  0  0  0  0  0  0  0  0
  -26.6448   10.2838   -1.9910 C   0  0  0  0  0  0  0  0  0  0  0  0
  -18.5245    6.3519   -0.9007 C   0  0  2  0  0  0  0  0  0  0  0  0
  -17.8984    7.7051   -1.2479 C   0  0  2  0  0  0  0  0  0  0  0  0
  -14.4412    8.3946   -0.3730 C   0  0  0  0  0  0  0  0  0  0  0  0
  -12.6140    9.9964   -0.8350 C   0  0  0  0  0  0  0  0  0  0  0  0
  -11.1432   10.8165    0.9009 C   0  0  0  0  0  0  0  0  0  0  0  0
  -11.8466   10.0403    1.7994 C   0  0  0  0  0  0  0  0  0  0  0  0
  -25.2966   10.0298   -1.4157 C   0  0  0  0  0  0  0  0  0  0  0  0
  -24.2378   10.8842   -1.6464 C   0  0  0  0  0  0  0  0  0  0  0  0
  -19.9853    6.4669   -1.1811 C   0  0  2  0  0  0  0  0  0  0  0  0
  -13.0089    9.9601   -2.1294 F   0  0  0  0  0  0  0  0  0  0  0  0
  -10.8589   11.5397   -1.3077 F   0  0  0  0  0  0  0  0  0  0  0  0
  -11.4544   10.0706    3.1120 F   0  0  0  0  0  0  0  0  0  0  0  0
  -13.6033    8.4960    2.2709 F   0  0  0  0  0  0  0  0  0  0  0  0
  -10.0440   11.6256    1.3129 N   0  0  0  0  0  0  0  0  0  0  0  0
  -10.0971   14.0772    1.1021 N   0  0  0  0  0  2  0  0  0  0  0  0
  -14.4009    7.0880   -0.6931 N   0  0  0  0  0  0  0  0  0  0  0  0
  -15.6201    6.7114   -1.0351 N   0  0  0  0  0  0  0  0  0  0  0  0
  -20.4162    7.6595   -1.6782 O   0  0  0  0  0  0  0  0  0  0  0  0
  -21.9555    5.2902   -0.5029 O   0  0  0  0  0  0  0  0  0  0  0  0
  -18.2369    5.9825    0.4060 O   0  0  0  0  0  0  0  0  0  0  0  0
  -17.9922   10.0164   -0.9361 O   0  0  0  0  0  0  0  0  0  0  0  0
  -21.1602    9.2669    0.3318 S   0  0  0  0  0  0  0  0  0  0  0  0
  9  1  1  0
 16  1  1  1
  1 31  1  0
 28  2  2  3
  2 29  2  0
  6  3  2  0
  3 22  1  0
  5  4  2  0
  4 21  1  0
  6  5  1  0
 36  6  1  0
 13  7  1  0
  7 32  1  0
  7 36  1  1
 23  8  1  1
  8 33  1  0
 17  9  2  0
 12 10  2  0
 10 17  1  0
 18 10  1  0
 11 18  2  0
 19 11  1  0
 11 25  1  0
 20 12  1  0
 12 27  1  0
 16 13  1  0
 13 35  1  6
 21 14  1  0
 16 15  1  0
 15 23  1  0
 15 34  1  1
 17 30  1  0
 18 24  1  0
 19 20  2  0
 19 28  1  0
 20 26  1  0
 21 22  2  0
 23 32  1  0
 30 31  2  0
M  CHG  2   2   1  29  -1
M  END
$$$$
