
     RDKit          3D

 36 39  0  0  0  0  0  0  0  0999 V2000
  -17.0740    8.3953    0.0825 N   0  0  0  0  0  0  0  0  0  0  0  0
   -8.8731   10.9893   -0.3195 N   0  0  0  0  0  4  0  0  0  0  0  0
  -24.7449    8.8928   -1.0814 C   0  0  0  0  0  0  0  0  0  0  0  0
  -24.3022    8.4219   -3.7495 C   0  0  0  0  0  0  0  0  0  0  0  0
  -23.2311    8.3063   -2.8614 C   0  0  0  0  0  0  0  0  0  0  0  0
  -23.4651    8.5439   -1.5319 C   0  0  0  0  0  0  0  0  0  0  0  0
  -20.5984    8.1588   -1.1810 C   0  0  1  0  0  0  0  0  0  0  0  0
  -20.8615    5.4955    0.2754 C   0  0  0  0  0  0  0  0  0  0  0  0
  -15.8375    8.4098   -0.4683 C   0  0  0  0  0  0  0  0  0  0  0  0
  -13.5180    9.2165    0.2405 C   0  0  0  0  0  0  0  0  0  0  0  0
  -11.2931    8.3783   -0.0924 C   0  0  0  0  0  0  0  0  0  0  0  0
  -12.9680   10.4823    0.2374 C   0  0  0  0  0  0  0  0  0  0  0  0
  -19.4502    8.7559   -0.3973 C   0  0  1  0  0  0  0  0  0  0  0  0
  -26.6719    8.8725   -4.3148 C   0  0  0  0  0  0  0  0  0  0  0  0
  -18.5611    6.4511   -0.0319 C   0  0  2  0  0  0  0  0  0  0  0  0
  -18.2642    7.8613   -0.5485 C   0  0  2  0  0  0  0  0  0  0  0  0
  -14.9498    8.9925    0.4149 C   0  0  0  0  0  0  0  0  0  0  0  0
  -12.6458    8.1607    0.0709 C   0  0  0  0  0  0  0  0  0  0  0  0
  -10.7454    9.6473   -0.0951 C   0  0  0  0  0  0  0  0  0  0  0  0
  -11.6161   10.7045    0.0744 C   0  0  0  0  0  0  0  0  0  0  0  0
  -25.5587    8.7605   -3.3343 C   0  0  0  0  0  0  0  0  0  0  0  0
  -25.7534    8.9917   -1.9878 C   0  0  0  0  0  0  0  0  0  0  0  0
  -19.8201    6.0038   -0.6956 C   0  0  2  0  0  0  0  0  0  0  0  0
  -13.1744    6.9144    0.0724 F   0  0  0  0  0  0  0  0  0  0  0  0
  -10.4344    7.3326   -0.2595 F   0  0  0  0  0  0  0  0  0  0  0  0
  -11.0904   11.9699    0.0742 F   0  0  0  0  0  0  0  0  0  0  0  0
  -13.8296   11.5318    0.4051 F   0  0  0  0  0  0  0  0  0  0  0  0
   -9.3449    9.8528   -0.2650 N   0  0  0  0  0  0  0  0  0  0  0  0
   -8.3625   12.0876   -0.5784 N   0  0  0  0  0  2  0  0  0  0  0  0
  -15.6882    9.3186    1.4917 N   0  0  0  0  0  0  0  0  0  0  0  0
  -16.9360    8.9515    1.2601 N   0  0  0  0  0  0  0  0  0  0  0  0
  -20.3828    6.8740   -1.5795 O   0  0  0  0  0  0  0  0  0  0  0  0
  -21.7069    4.5667   -0.3783 O   0  0  0  0  0  0  0  0  0  0  0  0
  -18.6236    6.4237    1.3544 O   0  0  0  0  0  0  0  0  0  0  0  0
  -19.1018   10.0138   -0.8851 O   0  0  0  0  0  0  0  0  0  0  0  0
  -22.1628    8.4283   -0.3172 S   0  0  0  0  0  0  0  0  0  0  0  0
  9  1  1  0
 16  1  1  1
  1 31  1  0
 28  2  2  3
  2 29  2  0
  6  3  2  0
  3 22  1  0
  5  4  2  0
  4 21  1  0
  6  5  1  0
 36  6  1  0
 13  7  1  0
  7 32  1  0
  7 36  1  1
 23  8  1  1
  8 33  1  0
 17  9  2  0
 12 10  2  0
 10 17  1  0
 18 10  1  0
 11 18  2  0
 19 11  1  0
 11 25  1  0
 20 12  1  0
 12 27  1  0
 16 13  1  0
 13 35  1  6
 21 14  1  0
 16 15  1  0
 15 23  1  0
 15 34  1  1
 17 30  1  0
 18 24  1  0
 19 20  2  0
 19 28  1  0
 20 26  1  0
 21 22  2  0
 23 32  1  0
 30 31  2  0
M  CHG  2   2   1  29  -1
M  END
$$$$
