
     RDKit          3D

 36 39  0  0  0  0  0  0  0  0999 V2000
  -16.9743    8.4426   -0.4712 N   0  0  0  0  0  0  0  0  0  0  0  0
   -9.0714   11.4549   -0.1419 N   0  0  0  0  0  4  0  0  0  0  0  0
  -23.2203    8.2770   -3.0950 C   0  0  0  0  0  0  0  0  0  0  0  0
  -25.6933    9.0243   -2.1650 C   0  0  0  0  0  0  0  0  0  0  0  0
  -24.5407    9.2882   -1.4165 C   0  0  0  0  0  0  0  0  0  0  0  0
  -23.3074    8.9132   -1.8847 C   0  0  0  0  0  0  0  0  0  0  0  0
  -20.5074    8.2179   -1.5933 C   0  0  1  0  0  0  0  0  0  0  0  0
  -19.9568    6.0178    0.7743 C   0  0  0  0  0  0  0  0  0  0  0  0
  -15.6641    8.5599   -0.8309 C   0  0  0  0  0  0  0  0  0  0  0  0
  -13.5301    9.3777    0.2865 C   0  0  0  0  0  0  0  0  0  0  0  0
  -11.2724    8.9268    1.0140 C   0  0  0  0  0  0  0  0  0  0  0  0
  -13.0373   10.4852   -0.3898 C   0  0  0  0  0  0  0  0  0  0  0  0
  -19.2318    8.8165   -1.1149 C   0  0  1  0  0  0  0  0  0  0  0  0
  -26.8151    8.1158   -4.1508 C   0  0  0  0  0  0  0  0  0  0  0  0
  -18.3450    6.4979   -1.0649 C   0  0  2  0  0  0  0  0  0  0  0  0
  -18.0423    7.9234   -1.3308 C   0  0  2  0  0  0  0  0  0  0  0  0
  -14.9549    9.0842    0.2276 C   0  0  0  0  0  0  0  0  0  0  0  0
  -12.6182    8.6142    0.9829 C   0  0  0  0  0  0  0  0  0  0  0  0
  -10.8173   10.0357    0.3297 C   0  0  0  0  0  0  0  0  0  0  0  0
  -11.7075   10.8212   -0.3782 C   0  0  0  0  0  0  0  0  0  0  0  0
  -25.5793    8.3840   -3.3773 C   0  0  0  0  0  0  0  0  0  0  0  0
  -24.3487    8.0000   -3.8635 C   0  0  0  0  0  0  0  0  0  0  0  0
  -19.7636    6.1654   -0.7426 C   0  0  2  0  0  0  0  0  0  0  0  0
  -13.0487    7.5246    1.6586 F   0  0  0  0  0  0  0  0  0  0  0  0
  -10.3790    8.1896    1.6888 F   0  0  0  0  0  0  0  0  0  0  0  0
  -11.2376   11.9036   -1.0416 F   0  0  0  0  0  0  0  0  0  0  0  0
  -13.9332   11.2541   -1.0866 F   0  0  0  0  0  0  0  0  0  0  0  0
   -9.4291   10.3959    0.3355 N   0  0  0  0  0  0  0  0  0  0  0  0
   -8.3955   12.3489   -0.6891 N   0  0  0  0  0  2  0  0  0  0  0  0
  -15.8698    9.2716    1.2108 N   0  0  0  0  0  0  0  0  0  0  0  0
  -17.0682    8.8824    0.7731 N   0  0  0  0  0  0  0  0  0  0  0  0
  -20.7281    6.9232   -1.3118 O   0  0  0  0  0  0  0  0  0  0  0  0
  -20.9169    5.0203    0.9886 O   0  0  0  0  0  0  0  0  0  0  0  0
  -17.5677    6.1033    0.0474 O   0  0  0  0  0  0  0  0  0  0  0  0
  -19.0075    9.9944   -1.8290 O   0  0  0  0  0  0  0  0  0  0  0  0
  -21.8628    9.2568   -0.9201 S   0  0  0  0  0  0  0  0  0  0  0  0
  9  1  1  0
 16  1  1  1
  1 31  1  0
 28  2  2  3
  2 29  2  0
  6  3  2  0
  3 22  1  0
  5  4  2  0
  4 21  1  0
  6  5  1  0
 36  6  1  0
 13  7  1  0
  7 32  1  0
  7 36  1  1
 23  8  1  0
  8 33  1  6
 17  9  2  0
 12 10  2  0
 10 17  1  0
 18 10  1  0
 11 18  2  0
 19 11  1  0
 11 25  1  0
 20 12  1  0
 12 27  1  0
 16 13  1  0
 13 35  1  6
 14 21  1  6
 16 15  1  0
 15 23  1  0
 15 34  1  1
 17 30  1  0
 18 24  1  0
 19 20  2  0
 19 28  1  0
 20 26  1  0
 21 22  2  0
 23 32  1  1
 30 31  2  0
M  CHG  2   2   1  29  -1
M  END
$$$$
