
     RDKit          3D

 36 39  0  0  0  0  0  0  0  0999 V2000
  -20.6664    8.6108   -0.8042 N   0  0  0  0  0  0  0  0  0  0  0  0
  -29.2484    8.6116    0.1726 N   0  0  0  0  0  4  0  0  0  0  0  0
  -14.2829    9.7700    1.6930 C   0  0  0  0  0  0  0  0  0  0  0  0
  -12.0081    8.5288    0.7867 C   0  0  0  0  0  0  0  0  0  0  0  0
  -13.0852    8.6778   -0.0893 C   0  0  0  0  0  0  0  0  0  0  0  0
  -14.2151    9.2992    0.3753 C   0  0  0  0  0  0  0  0  0  0  0  0
  -17.0033    8.5403    0.0026 C   0  0  1  0  0  0  0  0  0  0  0  0
  -16.5282    7.0865   -2.6327 C   0  0  0  0  0  0  0  0  0  0  0  0
  -21.7781    8.1672   -0.1718 C   0  0  0  0  0  0  0  0  0  0  0  0
  -24.2697    8.7356   -0.2167 C   0  0  0  0  0  0  0  0  0  0  0  0
  -26.4615    7.8129   -0.5449 C   0  0  0  0  0  0  0  0  0  0  0  0
  -24.7824    9.3826    0.8894 C   0  0  0  0  0  0  0  0  0  0  0  0
  -18.3360    9.1854   -0.3087 C   0  0  1  0  0  0  0  0  0  0  0  0
  -10.8795    8.7998    2.9754 C   0  0  0  0  0  0  0  0  0  0  0  0
  -18.8827    7.2410   -1.7771 C   0  0  2  0  0  0  0  0  0  0  0  0
  -19.3255    8.1038   -0.5925 C   0  0  2  0  0  0  0  0  0  0  0  0
  -22.8744    8.8768   -0.6213 C   0  0  0  0  0  0  0  0  0  0  0  0
  -25.1433    7.9419   -0.9314 C   0  0  0  0  0  0  0  0  0  0  0  0
  -26.9719    8.4622    0.5633 C   0  0  0  0  0  0  0  0  0  0  0  0
  -26.0997    9.2565    1.2795 C   0  0  0  0  0  0  0  0  0  0  0  0
  -12.0504    8.9793    2.0754 C   0  0  0  0  0  0  0  0  0  0  0  0
  -13.2059    9.5995    2.5051 C   0  0  0  0  0  0  0  0  0  0  0  0
  -17.4840    6.8053   -1.4955 C   0  0  2  0  0  0  0  0  0  0  0  0
  -24.6511    7.3025   -2.0185 F   0  0  0  0  0  0  0  0  0  0  0  0
  -27.3219    7.0279   -1.2538 F   0  0  0  0  0  0  0  0  0  0  0  0
  -26.5887    9.9077    2.3816 F   0  0  0  0  0  0  0  0  0  0  0  0
  -23.9192   10.1704    1.6008 F   0  0  0  0  0  0  0  0  0  0  0  0
  -28.3373    8.3171    0.9475 N   0  0  0  0  0  0  0  0  0  0  0  0
  -30.2827    8.9264   -0.4315 N   0  0  0  0  0  2  0  0  0  0  0  0
  -22.3849    9.7432   -1.5274 N   0  0  0  0  0  0  0  0  0  0  0  0
  -21.0795    9.5577   -1.6091 N   0  0  0  0  0  0  0  0  0  0  0  0
  -16.9462    7.2164   -0.3135 O   0  0  0  0  0  0  0  0  0  0  0  0
  -15.9548    5.8725   -3.0822 O   0  0  0  0  0  0  0  0  0  0  0  0
  -19.0213    7.9226   -2.9782 O   0  0  0  0  0  0  0  0  0  0  0  0
  -18.8085    9.9236    0.7746 O   0  0  0  0  0  0  0  0  0  0  0  0
  -15.6480    9.5338   -0.6623 S   0  0  0  0  0  0  0  0  0  0  0  0
  9  1  1  0
 16  1  1  6
  1 31  1  0
 28  2  2  3
  2 29  2  0
  6  3  2  0
  3 22  1  0
  5  4  2  0
  4 21  1  0
  6  5  1  0
 36  6  1  0
 13  7  1  0
  7 32  1  0
  7 36  1  6
 23  8  1  6
  8 33  1  0
 17  9  2  0
 12 10  2  0
 10 17  1  0
 18 10  1  0
 11 18  2  0
 19 11  1  0
 11 25  1  0
 20 12  1  0
 12 27  1  0
 16 13  1  0
 13 35  1  1
 21 14  1  0
 16 15  1  0
 15 23  1  0
 15 34  1  6
 17 30  1  0
 18 24  1  0
 19 20  2  0
 19 28  1  0
 20 26  1  0
 21 22  2  0
 23 32  1  0
 30 31  2  0
M  CHG  2   2   1  29  -1
M  END
$$$$
