
     RDKit          3D

 36 39  0  0  0  0  0  0  0  0999 V2000
  -16.6647    7.5808   -1.7025 N   0  0  0  0  0  0  0  0  0  0  0  0
   -9.3504   10.2543    2.0268 N   0  0  0  0  0  4  0  0  0  0  0  0
  -23.7183    7.8594   -0.3012 C   0  0  0  0  0  0  0  0  0  0  0  0
  -25.0685    9.6825   -1.8472 C   0  0  0  0  0  0  0  0  0  0  0  0
  -23.7176    9.9054   -1.5732 C   0  0  0  0  0  0  0  0  0  0  0  0
  -23.0547    8.9878   -0.8003 C   0  0  0  0  0  0  0  0  0  0  0  0
  -20.3439    8.3101   -1.6256 C   0  0  1  0  0  0  0  0  0  0  0  0
  -20.6614    6.1014    0.4491 C   0  0  0  0  0  0  0  0  0  0  0  0
  -16.0112    8.3061   -0.7647 C   0  0  0  0  0  0  0  0  0  0  0  0
  -13.5789    8.9316   -0.2891 C   0  0  0  0  0  0  0  0  0  0  0  0
  -11.8129   10.5512   -0.1427 C   0  0  0  0  0  0  0  0  0  0  0  0
  -13.2547    8.5626    1.0007 C   0  0  0  0  0  0  0  0  0  0  0  0
  -18.8728    8.6118   -1.4413 C   0  0  1  0  0  0  0  0  0  0  0  0
  -27.1769    8.3913   -1.6883 C   0  0  0  0  0  0  0  0  0  0  0  0
  -18.5054    6.2185   -0.8305 C   0  0  2  0  0  0  0  0  0  0  0  0
  -18.0981    7.3730   -1.7497 C   0  0  2  0  0  0  0  0  0  0  0  0
  -14.6565    8.2872   -1.0335 C   0  0  0  0  0  0  0  0  0  0  0  0
  -12.8311    9.9463   -0.8506 C   0  0  0  0  0  0  0  0  0  0  0  0
  -11.4907   10.1793    1.1488 C   0  0  0  0  0  0  0  0  0  0  0  0
  -12.2374    9.1646    1.7121 C   0  0  0  0  0  0  0  0  0  0  0  0
  -25.7369    8.5901   -1.3721 C   0  0  0  0  0  0  0  0  0  0  0  0
  -25.0342    7.6896   -0.5976 C   0  0  0  0  0  0  0  0  0  0  0  0
  -19.9913    6.1094   -0.9061 C   0  0  2  0  0  0  0  0  0  0  0  0
  -13.1404   10.3164   -2.1156 F   0  0  0  0  0  0  0  0  0  0  0  0
  -11.0760   11.5534   -0.7009 F   0  0  0  0  0  0  0  0  0  0  0  0
  -11.9319    8.7831    2.9923 F   0  0  0  0  0  0  0  0  0  0  0  0
  -13.9940    7.5569    1.5609 F   0  0  0  0  0  0  0  0  0  0  0  0
  -10.4347   10.8157    1.8649 N   0  0  0  0  0  0  0  0  0  0  0  0
   -8.1817    9.8465    2.0702 N   0  0  0  0  0  2  0  0  0  0  0  0
  -14.5290    7.5384   -2.1444 N   0  0  0  0  0  0  0  0  0  0  0  0
  -15.7338    7.1388   -2.5106 N   0  0  0  0  0  0  0  0  0  0  0  0
  -20.6225    6.9816   -1.7404 O   0  0  0  0  0  0  0  0  0  0  0  0
  -21.6639    5.1020    0.4773 O   0  0  0  0  0  0  0  0  0  0  0  0
  -18.0268    6.4061    0.4588 O   0  0  0  0  0  0  0  0  0  0  0  0
  -18.4459    9.6112   -2.3134 O   0  0  0  0  0  0  0  0  0  0  0  0
  -21.3295    9.1835   -0.3879 S   0  0  0  0  0  0  0  0  0  0  0  0
  9  1  1  0
 16  1  1  1
  1 31  1  0
 28  2  2  3
  2 29  2  0
  6  3  2  0
  3 22  1  0
  5  4  2  0
  4 21  1  0
  6  5  1  0
 36  6  1  0
 13  7  1  0
  7 32  1  0
  7 36  1  1
 23  8  1  1
  8 33  1  0
 17  9  2  0
 12 10  2  0
 10 17  1  0
 18 10  1  0
 11 18  2  0
 19 11  1  0
 11 25  1  0
 20 12  1  0
 12 27  1  0
 16 13  1  0
 13 35  1  6
 21 14  1  0
 16 15  1  0
 15 23  1  0
 15 34  1  1
 17 30  1  0
 18 24  1  0
 19 20  2  0
 19 28  1  0
 20 26  1  0
 21 22  2  0
 23 32  1  0
 30 31  2  0
M  CHG  2   2   1  29  -1
M  END
$$$$
