
     RDKit          3D

 36 39  0  0  0  0  0  0  0  0999 V2000
  -16.8740    7.7106   -0.1661 N   0  0  0  0  0  0  0  0  0  0  0  0
   -9.6193   12.1334   -0.2968 N   0  0  0  0  0  4  0  0  0  0  0  0
  -23.3128   10.3096   -1.6692 C   0  0  0  0  0  0  0  0  0  0  0  0
  -25.4691    8.6523   -1.2942 C   0  0  0  0  0  0  0  0  0  0  0  0
  -24.3316    8.4613   -0.5073 C   0  0  0  0  0  0  0  0  0  0  0  0
  -23.2618    9.2953   -0.7042 C   0  0  0  0  0  0  0  0  0  0  0  0
  -20.4062    8.7475   -0.8892 C   0  0  1  0  0  0  0  0  0  0  0  0
  -21.3021    5.9264   -0.1661 C   0  0  0  0  0  0  0  0  0  0  0  0
  -15.9006    8.5965   -0.4825 C   0  0  0  0  0  0  0  0  0  0  0  0
  -13.4743    8.9907    0.2186 C   0  0  0  0  0  0  0  0  0  0  0  0
  -11.5999    9.9622    1.3615 C   0  0  0  0  0  0  0  0  0  0  0  0
  -12.8566    9.3549   -0.9607 C   0  0  0  0  0  0  0  0  0  0  0  0
  -19.0798    8.7788   -0.1620 C   0  0  1  0  0  0  0  0  0  0  0  0
  -26.7745    9.8026   -3.0579 C   0  0  0  0  0  0  0  0  0  0  0  0
  -18.8554    6.3238   -0.5601 C   0  0  2  0  0  0  0  0  0  0  0  0
  -18.2110    7.7027   -0.7249 C   0  0  2  0  0  0  0  0  0  0  0  0
  -14.7612    8.3022    0.2406 C   0  0  0  0  0  0  0  0  0  0  0  0
  -12.8157    9.3103    1.3883 C   0  0  0  0  0  0  0  0  0  0  0  0
  -10.9839   10.3255    0.1788 C   0  0  0  0  0  0  0  0  0  0  0  0
  -11.6411   10.0067   -0.9921 C   0  0  0  0  0  0  0  0  0  0  0  0
  -25.5426    9.6340   -2.2411 C   0  0  0  0  0  0  0  0  0  0  0  0
  -24.4445   10.4528   -2.4089 C   0  0  0  0  0  0  0  0  0  0  0  0
  -20.2361    6.4226   -1.1164 C   0  0  2  0  0  0  0  0  0  0  0  0
  -13.4126    8.9579    2.5512 F   0  0  0  0  0  0  0  0  0  0  0  0
  -10.9522   10.2765    2.5194 F   0  0  0  0  0  0  0  0  0  0  0  0
  -11.0447   10.3592   -2.1744 F   0  0  0  0  0  0  0  0  0  0  0  0
  -13.5065    9.0395   -2.1226 F   0  0  0  0  0  0  0  0  0  0  0  0
   -9.7273   10.9990    0.1707 N   0  0  0  0  0  0  0  0  0  0  0  0
   -9.4687   13.1752   -0.9496 N   0  0  0  0  0  2  0  0  0  0  0  0
  -15.0850    7.2290    0.9854 N   0  0  0  0  0  0  0  0  0  0  0  0
  -16.3385    6.9080    0.7194 N   0  0  0  0  0  0  0  0  0  0  0  0
  -20.5945    7.6273   -1.6413 O   0  0  0  0  0  0  0  0  0  0  0  0
  -22.2572    5.1635   -0.8804 O   0  0  0  0  0  0  0  0  0  0  0  0
  -18.8178    5.9033    0.7622 O   0  0  0  0  0  0  0  0  0  0  0  0
  -18.4272    9.9959   -0.3475 O   0  0  0  0  0  0  0  0  0  0  0  0
  -21.7598    9.1307    0.2453 S   0  0  0  0  0  0  0  0  0  0  0  0
  9  1  1  0
 16  1  1  1
  1 31  1  0
 28  2  2  3
  2 29  2  0
  6  3  2  0
  3 22  1  0
  5  4  2  0
  4 21  1  0
  6  5  1  0
 36  6  1  0
 13  7  1  0
  7 32  1  0
  7 36  1  1
 23  8  1  1
  8 33  1  0
 17  9  2  0
 12 10  2  0
 10 17  1  0
 18 10  1  0
 11 18  2  0
 19 11  1  0
 11 25  1  0
 20 12  1  0
 12 27  1  0
 16 13  1  0
 13 35  1  6
 21 14  1  0
 16 15  1  0
 15 23  1  0
 15 34  1  1
 17 30  1  0
 18 24  1  0
 19 20  2  0
 19 28  1  0
 20 26  1  0
 21 22  2  0
 23 32  1  0
 30 31  2  0
M  CHG  2   2   1  29  -1
M  END
$$$$
