
     RDKit          3D

 36 39  0  0  0  0  0  0  0  0999 V2000
  -17.0667    9.1486   -0.1986 N   0  0  0  0  0  0  0  0  0  0  0  0
   -8.5836   10.2008    1.0724 N   0  0  0  0  0  4  0  0  0  0  0  0
  -24.5756    7.9823   -1.2885 C   0  0  0  0  0  0  0  0  0  0  0  0
  -24.3593    7.9960   -4.0252 C   0  0  0  0  0  0  0  0  0  0  0  0
  -23.3019    8.5017   -3.2664 C   0  0  0  0  0  0  0  0  0  0  0  0
  -23.4221    8.4892   -1.9011 C   0  0  0  0  0  0  0  0  0  0  0  0
  -20.5365    8.5901   -1.5109 C   0  0  1  0  0  0  0  0  0  0  0  0
  -20.9296    6.4733    0.6452 C   0  0  0  0  0  0  0  0  0  0  0  0
  -15.8023    8.6673   -0.2459 C   0  0  0  0  0  0  0  0  0  0  0  0
  -13.4953    9.4830    0.4927 C   0  0  0  0  0  0  0  0  0  0  0  0
  -11.2740    9.5609   -0.4147 C   0  0  0  0  0  0  0  0  0  0  0  0
  -12.9131    9.2102    1.7139 C   0  0  0  0  0  0  0  0  0  0  0  0
  -19.4097    9.3782   -0.8800 C   0  0  1  0  0  0  0  0  0  0  0  0
  -26.5965    6.9672   -4.2975 C   0  0  0  0  0  0  0  0  0  0  0  0
  -18.5949    7.2723    0.1864 C   0  0  2  0  0  0  0  0  0  0  0  0
  -18.2406    8.4660   -0.7043 C   0  0  2  0  0  0  0  0  0  0  0  0
  -14.9421    9.5833    0.3272 C   0  0  0  0  0  0  0  0  0  0  0  0
  -12.6408    9.6578   -0.5767 C   0  0  0  0  0  0  0  0  0  0  0  0
  -10.6941    9.2875    0.8097 C   0  0  0  0  0  0  0  0  0  0  0  0
  -11.5470    9.1124    1.8804 C   0  0  0  0  0  0  0  0  0  0  0  0
  -25.4936    7.4965   -3.4511 C   0  0  0  0  0  0  0  0  0  0  0  0
  -25.5761    7.5017   -2.0735 C   0  0  0  0  0  0  0  0  0  0  0  0
  -19.8340    6.6637   -0.3791 C   0  0  2  0  0  0  0  0  0  0  0  0
  -13.2010    9.9258   -1.7796 F   0  0  0  0  0  0  0  0  0  0  0  0
  -10.4329    9.7339   -1.4737 F   0  0  0  0  0  0  0  0  0  0  0  0
  -10.9893    8.8409    3.1023 F   0  0  0  0  0  0  0  0  0  0  0  0
  -13.7571    9.0365    2.7767 F   0  0  0  0  0  0  0  0  0  0  0  0
   -9.2794    9.1908    0.9580 N   0  0  0  0  0  0  0  0  0  0  0  0
   -8.0083   11.2611    1.3530 N   0  0  0  0  0  2  0  0  0  0  0  0
  -15.7249   10.6086    0.7105 N   0  0  0  0  0  0  0  0  0  0  0  0
  -16.9715   10.3174    0.3844 N   0  0  0  0  0  0  0  0  0  0  0  0
  -20.3354    7.2427   -1.5054 O   0  0  0  0  0  0  0  0  0  0  0  0
  -21.4628    5.1666    0.5327 O   0  0  0  0  0  0  0  0  0  0  0  0
  -18.7194    7.6530    1.5154 O   0  0  0  0  0  0  0  0  0  0  0  0
  -19.0090   10.4342   -1.6961 O   0  0  0  0  0  0  0  0  0  0  0  0
  -22.1304    9.1176   -0.8421 S   0  0  0  0  0  0  0  0  0  0  0  0
  9  1  1  0
 16  1  1  1
  1 31  1  0
 28  2  2  3
  2 29  2  0
  6  3  2  0
  3 22  1  0
  5  4  2  0
  4 21  1  0
  6  5  1  0
 36  6  1  0
 13  7  1  0
  7 32  1  0
  7 36  1  1
 23  8  1  1
  8 33  1  0
 17  9  2  0
 12 10  2  0
 10 17  1  0
 18 10  1  0
 11 18  2  0
 19 11  1  0
 11 25  1  0
 20 12  1  0
 12 27  1  0
 16 13  1  0
 13 35  1  6
 21 14  1  0
 16 15  1  0
 15 23  1  0
 15 34  1  1
 17 30  1  0
 18 24  1  0
 19 20  2  0
 19 28  1  0
 20 26  1  0
 21 22  2  0
 23 32  1  0
 30 31  2  0
M  CHG  2   2   1  29  -1
M  END
$$$$
