
     RDKit          3D

 36 39  0  0  0  0  0  0  0  0999 V2000
  -18.8606    9.1286   -2.1671 N   0  0  0  0  0  0  0  0  0  0  0  0
  -11.7333    9.8935    2.4188 N   0  0  0  0  0  4  0  0  0  0  0  0
  -24.9594   10.9371    0.5295 C   0  0  0  0  0  0  0  0  0  0  0  0
  -26.3026    9.5856    2.5063 C   0  0  0  0  0  0  0  0  0  0  0  0
  -24.9264    9.4050    2.3281 C   0  0  0  0  0  0  0  0  0  0  0  0
  -24.2593   10.0821    1.3394 C   0  0  0  0  0  0  0  0  0  0  0  0
  -22.2292    9.5163   -0.6523 C   0  0  1  0  0  0  0  0  0  0  0  0
  -21.4221    6.3403   -0.7563 C   0  0  0  0  0  0  0  0  0  0  0  0
  -18.1298    9.0944   -1.0162 C   0  0  0  0  0  0  0  0  0  0  0  0
  -15.6606    8.9353   -0.4254 C   0  0  0  0  0  0  0  0  0  0  0  0
  -14.6081    8.2915    1.6500 C   0  0  0  0  0  0  0  0  0  0  0  0
  -14.4531    9.5072   -0.8020 C   0  0  0  0  0  0  0  0  0  0  0  0
  -20.7768    9.7302   -0.8957 C   0  0  1  0  0  0  0  0  0  0  0  0
  -28.4403   10.6233    1.8890 C   0  0  0  0  0  0  0  0  0  0  0  0
  -20.9609    7.9424   -2.6087 C   0  0  2  0  0  0  0  0  0  0  0  0
  -20.3217    9.2258   -2.2365 C   0  0  2  0  0  0  0  0  0  0  0  0
  -16.7933    9.0001   -1.3377 C   0  0  0  0  0  0  0  0  0  0  0  0
  -15.7068    8.3318    0.8127 C   0  0  0  0  0  0  0  0  0  0  0  0
  -13.4231    8.8704    1.2431 C   0  0  0  0  0  0  0  0  0  0  0  0
  -13.3452    9.4833    0.0066 C   0  0  0  0  0  0  0  0  0  0  0  0
  -26.9830   10.4498    1.6798 C   0  0  0  0  0  0  0  0  0  0  0  0
  -26.3294   11.1383    0.6814 C   0  0  0  0  0  0  0  0  0  0  0  0
  -22.0051    7.4218   -1.6784 C   0  0  2  0  0  0  0  0  0  0  0  0
  -16.8608    7.7602    1.2258 F   0  0  0  0  0  0  0  0  0  0  0  0
  -14.6447    7.7065    2.8557 F   0  0  0  0  0  0  0  0  0  0  0  0
  -12.1724   10.0440   -0.3708 F   0  0  0  0  0  0  0  0  0  0  0  0
  -14.3925   10.1113   -2.0310 F   0  0  0  0  0  0  0  0  0  0  0  0
  -12.2591    8.8511    2.0806 N   0  0  0  0  0  0  0  0  0  0  0  0
  -11.4538   11.1024    2.5449 N   0  0  0  0  0  2  0  0  0  0  0  0
  -16.7540    8.9796   -2.6931 N   0  0  0  0  0  0  0  0  0  0  0  0
  -17.9982    9.0572   -3.1679 N   0  0  0  0  0  0  0  0  0  0  0  0
  -22.7475    8.3275   -1.0023 O   0  0  0  0  0  0  0  0  0  0  0  0
  -22.0401    5.1249   -1.0777 O   0  0  0  0  0  0  0  0  0  0  0  0
  -19.9406    6.9663   -2.6685 O   0  0  0  0  0  0  0  0  0  0  0  0
  -20.5250   11.1024   -0.8558 O   0  0  0  0  0  0  0  0  0  0  0  0
  -22.5180    9.8373    1.1319 S   0  0  0  0  0  0  0  0  0  0  0  0
  9  1  1  0
 16  1  1  1
  1 31  1  0
 28  2  2  3
  2 29  2  0
  6  3  2  0
  3 22  1  0
  5  4  2  0
  4 21  1  0
  6  5  1  0
 36  6  1  0
 13  7  1  0
  7 32  1  0
  7 36  1  1
 23  8  1  0
  8 33  1  6
 17  9  2  0
 12 10  2  0
 10 17  1  0
 18 10  1  0
 11 18  2  0
 19 11  1  0
 11 25  1  0
 20 12  1  0
 12 27  1  0
 16 13  1  0
 13 35  1  6
 14 21  1  6
 16 15  1  0
 15 23  1  0
 15 34  1  1
 17 30  1  0
 18 24  1  0
 19 20  2  0
 19 28  1  0
 20 26  1  0
 21 22  2  0
 23 32  1  1
 30 31  2  0
M  CHG  2   2   1  29  -1
M  END
$$$$
