
     RDKit          3D

 36 39  0  0  0  0  0  0  0  0999 V2000
  -16.8448    8.1068   -0.0389 N   0  0  0  0  0  0  0  0  0  0  0  0
   -8.6191   10.7677    0.2054 N   0  0  0  0  0  4  0  0  0  0  0  0
  -23.4462   10.1159   -2.2970 C   0  0  0  0  0  0  0  0  0  0  0  0
  -25.0590    7.9282   -2.6840 C   0  0  0  0  0  0  0  0  0  0  0  0
  -24.0222    7.8407   -1.7529 C   0  0  0  0  0  0  0  0  0  0  0  0
  -23.2242    8.9398   -1.5688 C   0  0  0  0  0  0  0  0  0  0  0  0
  -20.3619    8.4706   -1.2927 C   0  0  1  0  0  0  0  0  0  0  0  0
  -21.0275    5.8064    0.0273 C   0  0  0  0  0  0  0  0  0  0  0  0
  -15.7739    8.6748   -0.6414 C   0  0  0  0  0  0  0  0  0  0  0  0
  -13.4272    9.3921    0.0742 C   0  0  0  0  0  0  0  0  0  0  0  0
  -11.9981   11.1323   -0.7579 C   0  0  0  0  0  0  0  0  0  0  0  0
  -12.2824    8.7502    0.5011 C   0  0  0  0  0  0  0  0  0  0  0  0
  -19.1382    8.8464   -0.4861 C   0  0  1  0  0  0  0  0  0  0  0  0
  -26.4115    9.1136   -4.3878 C   0  0  0  0  0  0  0  0  0  0  0  0
  -18.6084    6.4181   -0.2439 C   0  0  2  0  0  0  0  0  0  0  0  0
  -18.1007    7.7919   -0.6896 C   0  0  2  0  0  0  0  0  0  0  0  0
  -14.7572    8.8272    0.2809 C   0  0  0  0  0  0  0  0  0  0  0  0
  -13.2577   10.6036   -0.5644 C   0  0  0  0  0  0  0  0  0  0  0  0
  -10.8535   10.4870   -0.3292 C   0  0  0  0  0  0  0  0  0  0  0  0
  -11.0210    9.2752    0.3096 C   0  0  0  0  0  0  0  0  0  0  0  0
  -25.2953    9.0635   -3.4056 C   0  0  0  0  0  0  0  0  0  0  0  0
  -24.4696   10.1484   -3.1914 C   0  0  0  0  0  0  0  0  0  0  0  0
  -19.9192    6.2008   -0.9223 C   0  0  2  0  0  0  0  0  0  0  0  0
  -14.3739   11.2421   -0.9875 F   0  0  0  0  0  0  0  0  0  0  0  0
  -11.8345   12.3296   -1.3895 F   0  0  0  0  0  0  0  0  0  0  0  0
   -9.8970    8.6213    0.7417 F   0  0  0  0  0  0  0  0  0  0  0  0
  -12.4464    7.5488    1.1348 F   0  0  0  0  0  0  0  0  0  0  0  0
   -9.5599   11.0487   -0.5384 N   0  0  0  0  0  0  0  0  0  0  0  0
   -7.7330   10.2841    0.9229 N   0  0  0  0  0  2  0  0  0  0  0  0
  -15.2518    8.3386    1.4332 N   0  0  0  0  0  0  0  0  0  0  0  0
  -16.4851    7.9228    1.2068 N   0  0  0  0  0  0  0  0  0  0  0  0
  -20.3421    7.1902   -1.7574 O   0  0  0  0  0  0  0  0  0  0  0  0
  -22.0370    5.1129   -0.6829 O   0  0  0  0  0  0  0  0  0  0  0  0
  -18.6773    6.3293    1.1396 O   0  0  0  0  0  0  0  0  0  0  0  0
  -18.6027   10.0606   -0.9110 O   0  0  0  0  0  0  0  0  0  0  0  0
  -21.8693    8.9287   -0.4073 S   0  0  0  0  0  0  0  0  0  0  0  0
  9  1  1  0
 16  1  1  1
  1 31  1  0
 28  2  2  3
  2 29  2  0
  6  3  2  0
  3 22  1  0
  5  4  2  0
  4 21  1  0
  6  5  1  0
 36  6  1  0
 13  7  1  0
  7 32  1  0
  7 36  1  1
 23  8  1  1
  8 33  1  0
 17  9  2  0
 12 10  2  0
 10 17  1  0
 18 10  1  0
 11 18  2  0
 19 11  1  0
 11 25  1  0
 20 12  1  0
 12 27  1  0
 16 13  1  0
 13 35  1  6
 21 14  1  0
 16 15  1  0
 15 23  1  0
 15 34  1  1
 17 30  1  0
 18 24  1  0
 19 20  2  0
 19 28  1  0
 20 26  1  0
 21 22  2  0
 23 32  1  0
 30 31  2  0
M  CHG  2   2   1  29  -1
M  END
$$$$
