
     RDKit          3D

 36 39  0  0  0  0  0  0  0  0999 V2000
  -16.9335    8.5013   -1.5267 N   0  0  0  0  0  0  0  0  0  0  0  0
   -9.3226    9.5161    2.3428 N   0  0  0  0  0  4  0  0  0  0  0  0
  -23.6565    7.8390   -3.2306 C   0  0  0  0  0  0  0  0  0  0  0  0
  -25.6586    7.7581   -1.3534 C   0  0  0  0  0  0  0  0  0  0  0  0
  -24.4231    8.3424   -1.0529 C   0  0  0  0  0  0  0  0  0  0  0  0
  -23.4256    8.3807   -1.9935 C   0  0  0  0  0  0  0  0  0  0  0  0
  -20.5625    7.9273   -2.0676 C   0  0  1  0  0  0  0  0  0  0  0  0
  -19.6444    6.5930    0.7830 C   0  0  0  0  0  0  0  0  0  0  0  0
  -15.8661    7.9724   -0.8628 C   0  0  0  0  0  0  0  0  0  0  0  0
  -13.7278    8.8808    0.1735 C   0  0  0  0  0  0  0  0  0  0  0  0
  -12.3688    8.9673    2.1673 C   0  0  0  0  0  0  0  0  0  0  0  0
  -12.5780    8.5615   -0.5356 C   0  0  0  0  0  0  0  0  0  0  0  0
  -19.2649    8.6485   -1.9661 C   0  0  1  0  0  0  0  0  0  0  0  0
  -27.1829    6.6077   -2.8963 C   0  0  0  0  0  0  0  0  0  0  0  0
  -18.2837    6.4669   -1.3011 C   0  0  2  0  0  0  0  0  0  0  0  0
  -18.0737    7.7347   -2.0378 C   0  0  2  0  0  0  0  0  0  0  0  0
  -14.9944    8.9882   -0.5363 C   0  0  0  0  0  0  0  0  0  0  0  0
  -13.5902    9.0788    1.5305 C   0  0  0  0  0  0  0  0  0  0  0  0
  -11.2460    8.6482    1.4308 C   0  0  0  0  0  0  0  0  0  0  0  0
  -11.3518    8.4435    0.0679 C   0  0  0  0  0  0  0  0  0  0  0  0
  -25.8656    7.2209   -2.6030 C   0  0  0  0  0  0  0  0  0  0  0  0
  -24.8753    7.2504   -3.5603 C   0  0  0  0  0  0  0  0  0  0  0  0
  -19.6391    6.2519   -0.7148 C   0  0  2  0  0  0  0  0  0  0  0  0
  -14.6811    9.3922    2.2659 F   0  0  0  0  0  0  0  0  0  0  0  0
  -12.2264    9.1582    3.4866 F   0  0  0  0  0  0  0  0  0  0  0  0
  -10.2368    8.1314   -0.6333 F   0  0  0  0  0  0  0  0  0  0  0  0
  -12.6999    8.3621   -1.8864 F   0  0  0  0  0  0  0  0  0  0  0  0
   -9.9594    8.5226    2.0518 N   0  0  0  0  0  0  0  0  0  0  0  0
   -8.9067   10.6902    2.4059 N   0  0  0  0  0  2  0  0  0  0  0  0
  -15.5679   10.1182   -1.0193 N   0  0  0  0  0  0  0  0  0  0  0  0
  -16.7241    9.8052   -1.6064 N   0  0  0  0  0  0  0  0  0  0  0  0
  -20.6947    6.7885   -1.3676 O   0  0  0  0  0  0  0  0  0  0  0  0
  -20.7066    5.8985    1.3765 O   0  0  0  0  0  0  0  0  0  0  0  0
  -17.3642    6.4467   -0.2282 O   0  0  0  0  0  0  0  0  0  0  0  0
  -19.1757    9.5393   -3.0369 O   0  0  0  0  0  0  0  0  0  0  0  0
  -21.8701    9.1243   -1.5907 S   0  0  0  0  0  0  0  0  0  0  0  0
  9  1  1  0
 16  1  1  1
  1 31  1  0
 28  2  2  3
  2 29  2  0
  6  3  2  0
  3 22  1  0
  5  4  2  0
  4 21  1  0
  6  5  1  0
 36  6  1  0
 13  7  1  0
  7 32  1  0
  7 36  1  1
 23  8  1  0
  8 33  1  6
 17  9  2  0
 12 10  2  0
 10 17  1  0
 18 10  1  0
 11 18  2  0
 19 11  1  0
 11 25  1  0
 20 12  1  0
 12 27  1  0
 16 13  1  0
 13 35  1  6
 14 21  1  6
 16 15  1  0
 15 23  1  0
 15 34  1  1
 17 30  1  0
 18 24  1  0
 19 20  2  0
 19 28  1  0
 20 26  1  0
 21 22  2  0
 23 32  1  6
 30 31  2  0
M  CHG  2   2   1  29  -1
M  END
$$$$
