
     RDKit          3D

 36 39  0  0  0  0  0  0  0  0999 V2000
  -16.9609    7.9780   -0.5791 N   0  0  0  0  0  0  0  0  0  0  0  0
   -8.8017   10.3203    0.3045 N   0  0  0  0  0  4  0  0  0  0  0  0
  -23.5622   10.0667   -1.6496 C   0  0  0  0  0  0  0  0  0  0  0  0
  -25.6071    8.9955   -0.1630 C   0  0  0  0  0  0  0  0  0  0  0  0
  -24.2954    8.9955    0.3248 C   0  0  0  0  0  0  0  0  0  0  0  0
  -23.2769    9.5316   -0.4211 C   0  0  0  0  0  0  0  0  0  0  0  0
  -20.5585    8.7583   -1.0696 C   0  0  1  0  0  0  0  0  0  0  0  0
  -20.2262    5.6526   -0.0731 C   0  0  0  0  0  0  0  0  0  0  0  0
  -15.8401    8.7320   -0.7664 C   0  0  0  0  0  0  0  0  0  0  0  0
  -13.5614    8.9237    0.3481 C   0  0  0  0  0  0  0  0  0  0  0  0
  -11.1987    9.0127   -0.1411 C   0  0  0  0  0  0  0  0  0  0  0  0
  -13.3639    9.9657    1.2437 C   0  0  0  0  0  0  0  0  0  0  0  0
  -19.1544    8.8938   -0.5958 C   0  0  1  0  0  0  0  0  0  0  0  0
  -27.2652    9.5265   -1.8939 C   0  0  0  0  0  0  0  0  0  0  0  0
  -18.7249    6.7339   -1.7427 C   0  0  2  0  0  0  0  0  0  0  0  0
  -18.1813    8.0651   -1.3867 C   0  0  2  0  0  0  0  0  0  0  0  0
  -14.8999    8.3775    0.1764 C   0  0  0  0  0  0  0  0  0  0  0  0
  -12.4537    8.4667   -0.3327 C   0  0  0  0  0  0  0  0  0  0  0  0
  -11.0390   10.0481    0.7575 C   0  0  0  0  0  0  0  0  0  0  0  0
  -12.1310   10.5284    1.4556 C   0  0  0  0  0  0  0  0  0  0  0  0
  -25.8676    9.5389   -1.3998 C   0  0  0  0  0  0  0  0  0  0  0  0
  -24.8572   10.0818   -2.1629 C   0  0  0  0  0  0  0  0  0  0  0  0
  -20.1459    6.4716   -1.3702 C   0  0  2  0  0  0  0  0  0  0  0  0
  -12.5939    7.4527   -1.2165 F   0  0  0  0  0  0  0  0  0  0  0  0
  -10.1163    8.5741   -0.7992 F   0  0  0  0  0  0  0  0  0  0  0  0
  -11.9498   11.5446    2.3314 F   0  0  0  0  0  0  0  0  0  0  0  0
  -14.4569   10.4302    1.9284 F   0  0  0  0  0  0  0  0  0  0  0  0
   -9.7545   10.6434    0.9866 N   0  0  0  0  0  0  0  0  0  0  0  0
   -7.7497    9.7846   -0.0978 N   0  0  0  0  0  2  0  0  0  0  0  0
  -15.4879    7.4057    0.9172 N   0  0  0  0  0  0  0  0  0  0  0  0
  -16.7171    7.1826    0.4496 N   0  0  0  0  0  0  0  0  0  0  0  0
  -20.9956    7.5235   -1.3670 O   0  0  0  0  0  0  0  0  0  0  0  0
  -21.2864    4.7462   -0.2038 O   0  0  0  0  0  0  0  0  0  0  0  0
  -17.9400    5.7670   -1.0748 O   0  0  0  0  0  0  0  0  0  0  0  0
  -18.7751   10.2300   -0.7312 O   0  0  0  0  0  0  0  0  0  0  0  0
  -21.6249    9.5198    0.2159 S   0  0  0  0  0  0  0  0  0  0  0  0
  9  1  1  0
 16  1  1  1
  1 31  1  0
 28  2  2  3
  2 29  2  0
  6  3  2  0
  3 22  1  0
  5  4  2  0
  4 21  1  0
  6  5  1  0
 36  6  1  0
 13  7  1  0
  7 32  1  0
  7 36  1  1
 23  8  1  0
  8 33  1  6
 17  9  2  0
 12 10  2  0
 10 17  1  0
 18 10  1  0
 11 18  2  0
 19 11  1  0
 11 25  1  0
 20 12  1  0
 12 27  1  0
 16 13  1  0
 13 35  1  6
 14 21  1  6
 16 15  1  0
 15 23  1  0
 15 34  1  1
 17 30  1  0
 18 24  1  0
 19 20  2  0
 19 28  1  0
 20 26  1  0
 21 22  2  0
 23 32  1  1
 30 31  2  0
M  CHG  2   2   1  29  -1
M  END
$$$$
