
     RDKit          3D

 36 39  0  0  0  0  0  0  0  0999 V2000
  -17.1084    9.1748   -0.8559 N   0  0  0  0  0  0  0  0  0  0  0  0
   -8.9332    7.7806    1.0144 N   0  0  0  0  0  4  0  0  0  0  0  0
  -24.5030    7.6874   -0.9282 C   0  0  0  0  0  0  0  0  0  0  0  0
  -25.2333    9.5100   -2.8469 C   0  0  0  0  0  0  0  0  0  0  0  0
  -24.0348    9.7056   -2.1578 C   0  0  0  0  0  0  0  0  0  0  0  0
  -23.6814    8.7885   -1.2023 C   0  0  0  0  0  0  0  0  0  0  0  0
  -20.7791    8.5784   -1.3500 C   0  0  1  0  0  0  0  0  0  0  0  0
  -20.5806    6.2308    0.5820 C   0  0  0  0  0  0  0  0  0  0  0  0
  -15.9591    8.5768   -0.4632 C   0  0  0  0  0  0  0  0  0  0  0  0
  -13.5954    9.3469    0.1313 C   0  0  0  0  0  0  0  0  0  0  0  0
  -11.2435    9.3643   -0.3499 C   0  0  0  0  0  0  0  0  0  0  0  0
  -13.2606    8.9627    1.4138 C   0  0  0  0  0  0  0  0  0  0  0  0
  -19.5518    9.3534   -0.9231 C   0  0  1  0  0  0  0  0  0  0  0  0
  -27.3195    8.2744   -3.3555 C   0  0  0  0  0  0  0  0  0  0  0  0
  -18.4494    7.1924   -0.3307 C   0  0  2  0  0  0  0  0  0  0  0  0
  -18.3533    8.4892   -1.1387 C   0  0  2  0  0  0  0  0  0  0  0  0
  -14.9814    9.5361   -0.2858 C   0  0  0  0  0  0  0  0  0  0  0  0
  -12.5517    9.5456   -0.7493 C   0  0  0  0  0  0  0  0  0  0  0  0
  -10.9115    8.9795    0.9353 C   0  0  0  0  0  0  0  0  0  0  0  0
  -11.9540    8.7804    1.8175 C   0  0  0  0  0  0  0  0  0  0  0  0
  -26.0508    8.4446   -2.5975 C   0  0  0  0  0  0  0  0  0  0  0  0
  -25.6597    7.5437   -1.6280 C   0  0  0  0  0  0  0  0  0  0  0  0
  -19.7740    6.5832   -0.6472 C   0  0  2  0  0  0  0  0  0  0  0  0
  -12.8686    9.9226   -2.0103 F   0  0  0  0  0  0  0  0  0  0  0  0
  -10.2149    9.5613   -1.2229 F   0  0  0  0  0  0  0  0  0  0  0  0
  -11.6432    8.3987    3.0963 F   0  0  0  0  0  0  0  0  0  0  0  0
  -14.2927    8.7650    2.2899 F   0  0  0  0  0  0  0  0  0  0  0  0
   -9.5537    8.7967    1.3300 N   0  0  0  0  0  0  0  0  0  0  0  0
   -8.3017    6.8454    0.5039 N   0  0  0  0  0  2  0  0  0  0  0  0
  -15.5785   10.7054   -0.5815 N   0  0  0  0  0  0  0  0  0  0  0  0
  -16.8322   10.4536   -0.9134 N   0  0  0  0  0  0  0  0  0  0  0  0
  -20.5498    7.2500   -1.5464 O   0  0  0  0  0  0  0  0  0  0  0  0
  -20.7442    4.8264    0.6560 O   0  0  0  0  0  0  0  0  0  0  0  0
  -18.2542    7.4253    1.0236 O   0  0  0  0  0  0  0  0  0  0  0  0
  -19.3890   10.5080   -1.6860 O   0  0  0  0  0  0  0  0  0  0  0  0
  -22.1733    8.9505   -0.2620 S   0  0  0  0  0  0  0  0  0  0  0  0
  9  1  1  0
 16  1  1  1
  1 31  1  0
 28  2  2  3
  2 29  2  0
  6  3  2  0
  3 22  1  0
  5  4  2  0
  4 21  1  0
  6  5  1  0
 36  6  1  0
 13  7  1  0
  7 32  1  0
  7 36  1  1
 23  8  1  1
  8 33  1  0
 17  9  2  0
 12 10  2  0
 10 17  1  0
 18 10  1  0
 11 18  2  0
 19 11  1  0
 11 25  1  0
 20 12  1  0
 12 27  1  0
 16 13  1  0
 13 35  1  6
 21 14  1  0
 16 15  1  0
 15 23  1  0
 15 34  1  1
 17 30  1  0
 18 24  1  0
 19 20  2  0
 19 28  1  0
 20 26  1  0
 21 22  2  0
 23 32  1  0
 30 31  2  0
M  CHG  2   2   1  29  -1
M  END
$$$$
