
     RDKit          3D

 36 39  0  0  0  0  0  0  0  0999 V2000
  -17.3794    8.7304   -0.3755 N   0  0  0  0  0  0  0  0  0  0  0  0
   -9.0028    9.3864    0.9032 N   0  0  0  0  0  4  0  0  0  0  0  0
  -24.6839    8.0081    1.2184 C   0  0  0  0  0  0  0  0  0  0  0  0
  -25.4849    9.7813   -0.7190 C   0  0  0  0  0  0  0  0  0  0  0  0
  -24.2115    9.2029   -0.7648 C   0  0  0  0  0  0  0  0  0  0  0  0
  -23.8153    8.3177    0.2050 C   0  0  0  0  0  0  0  0  0  0  0  0
  -21.0840    8.8611   -0.6028 C   0  0  1  0  0  0  0  0  0  0  0  0
  -19.8640    7.3840   -3.2634 C   0  0  0  0  0  0  0  0  0  0  0  0
  -16.2438    9.3925   -0.0126 C   0  0  0  0  0  0  0  0  0  0  0  0
  -13.8931    8.7306    0.7000 C   0  0  0  0  0  0  0  0  0  0  0  0
  -12.1644    8.9157    2.3754 C   0  0  0  0  0  0  0  0  0  0  0  0
  -12.9390    9.0697   -0.2495 C   0  0  0  0  0  0  0  0  0  0  0  0
  -19.7296    8.6128   -0.0387 C   0  0  1  0  0  0  0  0  0  0  0  0
  -27.6820   10.0806    0.3350 C   0  0  0  0  0  0  0  0  0  0  0  0
  -18.8475    9.4060   -2.2198 C   0  0  2  0  0  0  0  0  0  0  0  0
  -18.6442    9.3683   -0.7530 C   0  0  2  0  0  0  0  0  0  0  0  0
  -15.2605    8.4706    0.2730 C   0  0  0  0  0  0  0  0  0  0  0  0
  -13.4729    8.6613    2.0108 C   0  0  0  0  0  0  0  0  0  0  0  0
  -11.2421    9.2501    1.4047 C   0  0  0  0  0  0  0  0  0  0  0  0
  -11.6330    9.3276    0.0811 C   0  0  0  0  0  0  0  0  0  0  0  0
  -26.3387    9.4542    0.3091 C   0  0  0  0  0  0  0  0  0  0  0  0
  -25.9579    8.5669    1.2919 C   0  0  0  0  0  0  0  0  0  0  0  0
  -20.1126    8.8046   -2.7342 C   0  0  2  0  0  0  0  0  0  0  0  0
  -14.3649    8.3350    2.9736 F   0  0  0  0  0  0  0  0  0  0  0  0
  -11.7476    8.8504    3.6479 F   0  0  0  0  0  0  0  0  0  0  0  0
  -10.7106    9.6572   -0.8533 F   0  0  0  0  0  0  0  0  0  0  0  0
  -13.3429    9.1427   -1.5575 F   0  0  0  0  0  0  0  0  0  0  0  0
   -9.8743    9.5217    1.7395 N   0  0  0  0  0  0  0  0  0  0  0  0
   -8.3770    9.0613   -0.1255 N   0  0  0  0  0  2  0  0  0  0  0  0
  -15.8382    7.2603    0.0718 N   0  0  0  0  0  0  0  0  0  0  0  0
  -17.1025    7.4381   -0.3147 N   0  0  0  0  0  0  0  0  0  0  0  0
  -21.2052    8.8731   -1.9405 O   0  0  0  0  0  0  0  0  0  0  0  0
  -20.4730    7.2829   -4.5210 O   0  0  0  0  0  0  0  0  0  0  0  0
  -17.7822    8.6895   -2.8105 O   0  0  0  0  0  0  0  0  0  0  0  0
  -19.7274    9.0328    1.2923 O   0  0  0  0  0  0  0  0  0  0  0  0
  -22.1991    7.5988    0.1272 S   0  0  0  0  0  0  0  0  0  0  0  0
  9  1  1  0
 16  1  1  6
  1 31  1  0
 28  2  2  3
  2 29  2  0
  6  3  2  0
  3 22  1  0
  5  4  2  0
  4 21  1  0
  6  5  1  0
 36  6  1  0
 13  7  1  0
  7 32  1  0
  7 36  1  1
 23  8  1  0
  8 33  1  6
 17  9  2  0
 12 10  2  0
 10 17  1  0
 18 10  1  0
 11 18  2  0
 19 11  1  0
 11 25  1  0
 20 12  1  0
 12 27  1  0
 16 13  1  0
 13 35  1  1
 14 21  1  6
 16 15  1  0
 15 23  1  0
 15 34  1  6
 17 30  1  0
 18 24  1  0
 19 20  2  0
 19 28  1  0
 20 26  1  0
 21 22  2  0
 23 32  1  1
 30 31  2  0
M  CHG  2   2   1  29  -1
M  END
$$$$
