
     RDKit          3D

 36 39  0  0  0  0  0  0  0  0999 V2000
  -17.0495    8.4831   -1.0054 N   0  0  0  0  0  0  0  0  0  0  0  0
   -9.2476    8.3279    2.2707 N   0  0  0  0  0  4  0  0  0  0  0  0
  -24.4841    9.0685   -2.8245 C   0  0  0  0  0  0  0  0  0  0  0  0
  -24.4742    6.4260   -3.5702 C   0  0  0  0  0  0  0  0  0  0  0  0
  -23.3511    6.9996   -2.9637 C   0  0  0  0  0  0  0  0  0  0  0  0
  -23.3602    8.3199   -2.5927 C   0  0  0  0  0  0  0  0  0  0  0  0
  -20.5445    7.8456   -2.0874 C   0  0  1  0  0  0  0  0  0  0  0  0
  -20.0522    6.5482    0.8830 C   0  0  0  0  0  0  0  0  0  0  0  0
  -15.7467    8.1065   -0.8612 C   0  0  0  0  0  0  0  0  0  0  0  0
  -13.6611    9.1133    0.1912 C   0  0  0  0  0  0  0  0  0  0  0  0
  -11.3033    9.1849   -0.3240 C   0  0  0  0  0  0  0  0  0  0  0  0
  -13.3148    9.0741    1.5349 C   0  0  0  0  0  0  0  0  0  0  0  0
  -19.2886    8.5887   -1.7966 C   0  0  1  0  0  0  0  0  0  0  0  0
  -26.7671    6.5678   -4.4363 C   0  0  0  0  0  0  0  0  0  0  0  0
  -18.3877    6.4285   -0.9679 C   0  0  2  0  0  0  0  0  0  0  0  0
  -18.0867    7.6940   -1.6767 C   0  0  2  0  0  0  0  0  0  0  0  0
  -15.0683    9.0944   -0.1814 C   0  0  0  0  0  0  0  0  0  0  0  0
  -12.6275    9.1687   -0.7188 C   0  0  0  0  0  0  0  0  0  0  0  0
  -10.9955    9.1449    1.0208 C   0  0  0  0  0  0  0  0  0  0  0  0
  -12.0101    9.0891    1.9580 C   0  0  0  0  0  0  0  0  0  0  0  0
  -25.5906    7.1989   -3.7921 C   0  0  0  0  0  0  0  0  0  0  0  0
  -25.6178    8.5268   -3.4261 C   0  0  0  0  0  0  0  0  0  0  0  0
  -19.8132    6.1959   -0.5930 C   0  0  2  0  0  0  0  0  0  0  0  0
  -12.9129    9.2083   -2.0402 F   0  0  0  0  0  0  0  0  0  0  0  0
  -10.2922    9.2388   -1.2026 F   0  0  0  0  0  0  0  0  0  0  0  0
  -11.6837    9.0507    3.2711 F   0  0  0  0  0  0  0  0  0  0  0  0
  -14.3326    9.0184    2.4515 F   0  0  0  0  0  0  0  0  0  0  0  0
   -9.6349    9.1600    1.4738 N   0  0  0  0  0  0  0  0  0  0  0  0
   -8.8562    7.7662    3.3132 N   0  0  0  0  0  2  0  0  0  0  0  0
  -15.9936   10.0535    0.0693 N   0  0  0  0  0  0  0  0  0  0  0  0
  -17.1689    9.6688   -0.4308 N   0  0  0  0  0  0  0  0  0  0  0  0
  -20.7648    6.7101   -1.4044 O   0  0  0  0  0  0  0  0  0  0  0  0
  -21.1583    5.8111    1.3256 O   0  0  0  0  0  0  0  0  0  0  0  0
  -17.6425    6.4317    0.2328 O   0  0  0  0  0  0  0  0  0  0  0  0
  -19.0504    9.4726   -2.8501 O   0  0  0  0  0  0  0  0  0  0  0  0
  -21.9273    9.0246   -1.8275 S   0  0  0  0  0  0  0  0  0  0  0  0
  9  1  1  0
 16  1  1  1
  1 31  1  0
 28  2  2  3
  2 29  2  0
  6  3  2  0
  3 22  1  0
  5  4  2  0
  4 21  1  0
  6  5  1  0
 36  6  1  0
 13  7  1  0
  7 32  1  0
  7 36  1  1
 23  8  1  0
  8 33  1  6
 17  9  2  0
 12 10  2  0
 10 17  1  0
 18 10  1  0
 11 18  2  0
 19 11  1  0
 11 25  1  0
 20 12  1  0
 12 27  1  0
 16 13  1  0
 13 35  1  6
 14 21  1  6
 16 15  1  0
 15 23  1  0
 15 34  1  1
 17 30  1  0
 18 24  1  0
 19 20  2  0
 19 28  1  0
 20 26  1  0
 21 22  2  0
 23 32  1  6
 30 31  2  0
M  CHG  2   2   1  29  -1
M  END
$$$$
