
     RDKit          3D

 36 39  0  0  0  0  0  0  0  0999 V2000
  -16.9694    8.3083   -0.4135 N   0  0  0  0  0  0  0  0  0  0  0  0
   -8.8037   10.1522    1.0758 N   0  0  0  0  0  4  0  0  0  0  0  0
  -24.3392    8.0040   -1.6363 C   0  0  0  0  0  0  0  0  0  0  0  0
  -24.2662    7.9455   -4.3804 C   0  0  0  0  0  0  0  0  0  0  0  0
  -23.1652    8.4031   -3.6478 C   0  0  0  0  0  0  0  0  0  0  0  0
  -23.2059    8.4307   -2.2771 C   0  0  0  0  0  0  0  0  0  0  0  0
  -20.4067    7.8837   -1.7538 C   0  0  1  0  0  0  0  0  0  0  0  0
  -20.0601    6.1123    0.9831 C   0  0  0  0  0  0  0  0  0  0  0  0
  -15.6297    8.0547   -0.4430 C   0  0  0  0  0  0  0  0  0  0  0  0
  -13.5796    8.9234    0.7874 C   0  0  0  0  0  0  0  0  0  0  0  0
  -11.6767    8.5876    2.2351 C   0  0  0  0  0  0  0  0  0  0  0  0
  -12.7028    9.4238   -0.1654 C   0  0  0  0  0  0  0  0  0  0  0  0
  -19.1669    8.5594   -1.2842 C   0  0  1  0  0  0  0  0  0  0  0  0
  -26.5454    7.0426   -4.5124 C   0  0  0  0  0  0  0  0  0  0  0  0
  -18.3067    6.2857   -0.7793 C   0  0  2  0  0  0  0  0  0  0  0  0
  -17.9720    7.6481   -1.2549 C   0  0  2  0  0  0  0  0  0  0  0  0
  -15.0016    8.8602    0.4817 C   0  0  0  0  0  0  0  0  0  0  0  0
  -13.0334    8.5111    1.9837 C   0  0  0  0  0  0  0  0  0  0  0  0
  -10.8340    9.0906    1.2647 C   0  0  0  0  0  0  0  0  0  0  0  0
  -11.3517    9.5121    0.0543 C   0  0  0  0  0  0  0  0  0  0  0  0
  -25.3927    7.5225   -3.7134 C   0  0  0  0  0  0  0  0  0  0  0  0
  -25.4515    7.5431   -2.3371 C   0  0  0  0  0  0  0  0  0  0  0  0
  -19.7488    6.0054   -0.5174 C   0  0  2  0  0  0  0  0  0  0  0  0
  -13.8462    8.0160    2.9446 F   0  0  0  0  0  0  0  0  0  0  0  0
  -11.1375    8.1888    3.3959 F   0  0  0  0  0  0  0  0  0  0  0  0
  -10.5055   10.0016   -0.8821 F   0  0  0  0  0  0  0  0  0  0  0  0
  -13.2321    9.8379   -1.3601 F   0  0  0  0  0  0  0  0  0  0  0  0
   -9.4200    9.1874    1.4841 N   0  0  0  0  0  0  0  0  0  0  0  0
   -8.4624   11.3190    0.7974 N   0  0  0  0  0  2  0  0  0  0  0  0
  -15.9937    9.5881    1.0517 N   0  0  0  0  0  0  0  0  0  0  0  0
  -17.1597    9.2432    0.5031 N   0  0  0  0  0  0  0  0  0  0  0  0
  -20.6597    6.6532   -1.2783 O   0  0  0  0  0  0  0  0  0  0  0  0
  -21.0881    5.2057    1.2728 O   0  0  0  0  0  0  0  0  0  0  0  0
  -17.6213    6.0859    0.4402 O   0  0  0  0  0  0  0  0  0  0  0  0
  -18.8779    9.6026   -2.1652 O   0  0  0  0  0  0  0  0  0  0  0  0
  -21.8012    9.0144   -1.3709 S   0  0  0  0  0  0  0  0  0  0  0  0
  9  1  1  0
 16  1  1  1
  1 31  1  0
 28  2  2  3
  2 29  2  0
  6  3  2  0
  3 22  1  0
  5  4  2  0
  4 21  1  0
  6  5  1  0
 36  6  1  0
 13  7  1  0
  7 32  1  0
  7 36  1  1
 23  8  1  0
  8 33  1  6
 17  9  2  0
 12 10  2  0
 10 17  1  0
 18 10  1  0
 11 18  2  0
 19 11  1  0
 11 25  1  0
 20 12  1  0
 12 27  1  0
 16 13  1  0
 13 35  1  6
 14 21  1  6
 16 15  1  0
 15 23  1  0
 15 34  1  1
 17 30  1  0
 18 24  1  0
 19 20  2  0
 19 28  1  0
 20 26  1  0
 21 22  2  0
 23 32  1  6
 30 31  2  0
M  CHG  2   2   1  29  -1
M  END
$$$$
