
     RDKit          3D

 36 39  0  0  0  0  0  0  0  0999 V2000
  -17.3289    8.3585   -1.1935 N   0  0  0  0  0  0  0  0  0  0  0  0
   -9.0526   10.6480   -1.1588 N   0  0  0  0  0  4  0  0  0  0  0  0
  -24.8723    9.6732   -0.5331 C   0  0  0  0  0  0  0  0  0  0  0  0
  -25.3464    7.3967   -1.9931 C   0  0  0  0  0  0  0  0  0  0  0  0
  -24.0434    7.7462   -1.6208 C   0  0  0  0  0  0  0  0  0  0  0  0
  -23.8111    8.8842   -0.8915 C   0  0  0  0  0  0  0  0  0  0  0  0
  -21.0331    8.2611   -1.4418 C   0  0  1  0  0  0  0  0  0  0  0  0
  -20.0044    5.9624    0.6574 C   0  0  0  0  0  0  0  0  0  0  0  0
  -16.1437    8.4748   -1.8581 C   0  0  0  0  0  0  0  0  0  0  0  0
  -13.7810    9.2064   -1.2629 C   0  0  0  0  0  0  0  0  0  0  0  0
  -11.5312    8.5260   -1.8155 C   0  0  0  0  0  0  0  0  0  0  0  0
  -13.3249   10.5172   -1.2389 C   0  0  0  0  0  0  0  0  0  0  0  0
  -19.6615    8.8105   -1.2655 C   0  0  1  0  0  0  0  0  0  0  0  0
  -27.7655    7.8136   -2.0280 C   0  0  0  0  0  0  0  0  0  0  0  0
  -18.8640    6.4709   -1.4994 C   0  0  2  0  0  0  0  0  0  0  0  0
  -18.5875    7.8975   -1.7871 C   0  0  2  0  0  0  0  0  0  0  0  0
  -15.1841    8.9363   -0.9836 C   0  0  0  0  0  0  0  0  0  0  0  0
  -12.8555    8.2281   -1.5559 C   0  0  0  0  0  0  0  0  0  0  0  0
  -11.1125    9.8408   -1.7831 C   0  0  0  0  0  0  0  0  0  0  0  0
  -12.0172   10.8446   -1.4924 C   0  0  0  0  0  0  0  0  0  0  0  0
  -26.3951    8.2057   -1.6210 C   0  0  0  0  0  0  0  0  0  0  0  0
  -26.1806    9.3526   -0.8884 C   0  0  0  0  0  0  0  0  0  0  0  0
  -20.1745    6.1612   -0.8564 C   0  0  2  0  0  0  0  0  0  0  0  0
  -13.2504    6.9351   -1.5913 F   0  0  0  0  0  0  0  0  0  0  0  0
  -10.6248    7.5806   -2.1013 F   0  0  0  0  0  0  0  0  0  0  0  0
  -11.5831   12.1265   -1.4666 F   0  0  0  0  0  0  0  0  0  0  0  0
  -14.2345   11.5008   -0.9486 F   0  0  0  0  0  0  0  0  0  0  0  0
   -9.7477   10.1939   -2.0465 N   0  0  0  0  0  0  0  0  0  0  0  0
   -8.6674   11.2261   -0.1229 N   0  0  0  0  0  2  0  0  0  0  0  0
  -15.8260    9.0880    0.2013 N   0  0  0  0  0  0  0  0  0  0  0  0
  -17.1047    8.7378    0.0540 N   0  0  0  0  0  0  0  0  0  0  0  0
  -21.2220    6.9626   -1.1546 O   0  0  0  0  0  0  0  0  0  0  0  0
  -20.5660    4.7234    0.9923 O   0  0  0  0  0  0  0  0  0  0  0  0
  -17.8567    6.0168   -0.6183 O   0  0  0  0  0  0  0  0  0  0  0  0
  -19.5762   10.0082   -1.9769 O   0  0  0  0  0  0  0  0  0  0  0  0
  -22.1541    9.3070   -0.4323 S   0  0  0  0  0  0  0  0  0  0  0  0
  9  1  1  0
 16  1  1  1
  1 31  1  0
 28  2  2  3
  2 29  2  0
  6  3  2  0
  3 22  1  0
  5  4  2  0
  4 21  1  0
  6  5  1  0
 36  6  1  0
 13  7  1  0
  7 32  1  0
  7 36  1  1
 23  8  1  0
  8 33  1  6
 17  9  2  0
 12 10  2  0
 10 17  1  0
 18 10  1  0
 11 18  2  0
 19 11  1  0
 11 25  1  0
 20 12  1  0
 12 27  1  0
 16 13  1  0
 13 35  1  6
 14 21  1  6
 16 15  1  0
 15 23  1  0
 15 34  1  1
 17 30  1  0
 18 24  1  0
 19 20  2  0
 19 28  1  0
 20 26  1  0
 21 22  2  0
 23 32  1  1
 30 31  2  0
M  CHG  2   2   1  29  -1
M  END
$$$$
