
     RDKit          3D

 36 39  0  0  0  0  0  0  0  0999 V2000
  -16.6891    7.5539   -1.6777 N   0  0  0  0  0  0  0  0  0  0  0  0
  -10.0680   11.0022    2.5499 N   0  0  0  0  0  4  0  0  0  0  0  0
  -23.2888    9.1011   -1.6441 C   0  0  0  0  0  0  0  0  0  0  0  0
  -24.9611   10.2192    0.2245 C   0  0  0  0  0  0  0  0  0  0  0  0
  -23.5823   10.1492    0.4532 C   0  0  0  0  0  0  0  0  0  0  0  0
  -22.7505    9.5898   -0.4828 C   0  0  0  0  0  0  0  0  0  0  0  0
  -20.3204    8.2299   -1.2913 C   0  0  1  0  0  0  0  0  0  0  0  0
  -19.4224    5.8168    0.7384 C   0  0  0  0  0  0  0  0  0  0  0  0
  -16.2339    8.3237   -0.6481 C   0  0  0  0  0  0  0  0  0  0  0  0
  -13.9559    8.9462    0.2976 C   0  0  0  0  0  0  0  0  0  0  0  0
  -13.1052    9.4117    2.5088 C   0  0  0  0  0  0  0  0  0  0  0  0
  -13.0099    9.8328   -0.1982 C   0  0  0  0  0  0  0  0  0  0  0  0
  -18.8569    8.4834   -1.3821 C   0  0  1  0  0  0  0  0  0  0  0  0
  -26.9409    9.8072   -1.1677 C   0  0  0  0  0  0  0  0  0  0  0  0
  -18.6039    6.0236   -1.6064 C   0  0  2  0  0  0  0  0  0  0  0  0
  -18.1000    7.3532   -2.0217 C   0  0  2  0  0  0  0  0  0  0  0  0
  -14.8571    8.2761   -0.6289 C   0  0  0  0  0  0  0  0  0  0  0  0
  -13.9788    8.7557    1.6624 C   0  0  0  0  0  0  0  0  0  0  0  0
  -12.1772   10.2865    1.9811 C   0  0  0  0  0  0  0  0  0  0  0  0
  -12.1293   10.4986    0.6160 C   0  0  0  0  0  0  0  0  0  0  0  0
  -25.4771    9.7212   -0.9496 C   0  0  0  0  0  0  0  0  0  0  0  0
  -24.6568    9.1559   -1.9012 C   0  0  0  0  0  0  0  0  0  0  0  0
  -19.8146    6.0110   -0.7341 C   0  0  2  0  0  0  0  0  0  0  0  0
  -14.8824    7.9018    2.1947 F   0  0  0  0  0  0  0  0  0  0  0  0
  -13.1208    9.2321    3.8372 F   0  0  0  0  0  0  0  0  0  0  0  0
  -11.2105   11.3610    0.1217 F   0  0  0  0  0  0  0  0  0  0  0  0
  -12.9758   10.0323   -1.5540 F   0  0  0  0  0  0  0  0  0  0  0  0
  -11.2522   10.9877    2.8234 N   0  0  0  0  0  0  0  0  0  0  0  0
   -8.9117   11.3809    2.2758 N   0  0  0  0  0  2  0  0  0  0  0  0
  -14.5146    7.4673   -1.6621 N   0  0  0  0  0  0  0  0  0  0  0  0
  -15.6227    7.0472   -2.2746 N   0  0  0  0  0  0  0  0  0  0  0  0
  -20.7141    7.0071   -0.8989 O   0  0  0  0  0  0  0  0  0  0  0  0
  -20.2507    4.8222    1.2746 O   0  0  0  0  0  0  0  0  0  0  0  0
  -17.5694    5.3893   -0.8822 O   0  0  0  0  0  0  0  0  0  0  0  0
  -18.6586    9.6194   -2.1683 O   0  0  0  0  0  0  0  0  0  0  0  0
  -21.0092    9.5113   -0.1717 S   0  0  0  0  0  0  0  0  0  0  0  0
  9  1  1  0
 16  1  1  1
  1 31  1  0
 28  2  2  3
  2 29  2  0
  6  3  2  0
  3 22  1  0
  5  4  2  0
  4 21  1  0
  6  5  1  0
 36  6  1  0
 13  7  1  0
  7 32  1  0
  7 36  1  1
 23  8  1  0
  8 33  1  6
 17  9  2  0
 12 10  2  0
 10 17  1  0
 18 10  1  0
 11 18  2  0
 19 11  1  0
 11 25  1  0
 20 12  1  0
 12 27  1  0
 16 13  1  0
 13 35  1  6
 14 21  1  6
 16 15  1  0
 15 23  1  0
 15 34  1  1
 17 30  1  0
 18 24  1  0
 19 20  2  0
 19 28  1  0
 20 26  1  0
 21 22  2  0
 23 32  1  1
 30 31  2  0
M  CHG  2   2   1  29  -1
M  END
$$$$
