
     RDKit          3D

 36 39  0  0  0  0  0  0  0  0999 V2000
  -17.0320    8.8495   -1.1134 N   0  0  0  0  0  0  0  0  0  0  0  0
   -8.8183   10.1325    0.9777 N   0  0  0  0  0  4  0  0  0  0  0  0
  -23.3663    7.6761   -3.5231 C   0  0  0  0  0  0  0  0  0  0  0  0
  -25.7572    8.0497   -2.2259 C   0  0  0  0  0  0  0  0  0  0  0  0
  -24.5922    8.6747   -1.7671 C   0  0  0  0  0  0  0  0  0  0  0  0
  -23.4000    8.4854   -2.4180 C   0  0  0  0  0  0  0  0  0  0  0  0
  -20.5526    8.1000   -2.0274 C   0  0  1  0  0  0  0  0  0  0  0  0
  -19.9540    7.0514    1.0207 C   0  0  0  0  0  0  0  0  0  0  0  0
  -15.7582    8.4460   -0.8404 C   0  0  0  0  0  0  0  0  0  0  0  0
  -13.6661    9.5294    0.1194 C   0  0  0  0  0  0  0  0  0  0  0  0
  -11.3067    9.8850   -0.2497 C   0  0  0  0  0  0  0  0  0  0  0  0
  -13.3580    9.1835    1.4279 C   0  0  0  0  0  0  0  0  0  0  0  0
  -19.2957    8.8737   -1.8381 C   0  0  1  0  0  0  0  0  0  0  0  0
  -26.9450    6.5910   -3.8035 C   0  0  0  0  0  0  0  0  0  0  0  0
  -18.3474    6.7947   -0.8671 C   0  0  2  0  0  0  0  0  0  0  0  0
  -18.0817    8.0008   -1.6850 C   0  0  2  0  0  0  0  0  0  0  0  0
  -15.0560    9.5080   -0.3134 C   0  0  0  0  0  0  0  0  0  0  0  0
  -12.6134    9.8772   -0.6993 C   0  0  0  0  0  0  0  0  0  0  0  0
  -11.0368    9.5354    1.0580 C   0  0  0  0  0  0  0  0  0  0  0  0
  -12.0714    9.1818    1.9037 C   0  0  0  0  0  0  0  0  0  0  0  0
  -25.6971    7.2417   -3.3378 C   0  0  0  0  0  0  0  0  0  0  0  0
  -24.5084    7.0400   -4.0044 C   0  0  0  0  0  0  0  0  0  0  0  0
  -19.7580    6.5824   -0.4289 C   0  0  2  0  0  0  0  0  0  0  0  0
  -12.8616   10.2220   -1.9833 F   0  0  0  0  0  0  0  0  0  0  0  0
  -10.2772   10.2220   -1.0394 F   0  0  0  0  0  0  0  0  0  0  0  0
  -11.7822    8.8430    3.1819 F   0  0  0  0  0  0  0  0  0  0  0  0
  -14.3952    8.8349    2.2536 F   0  0  0  0  0  0  0  0  0  0  0  0
   -9.6954    9.5303    1.5654 N   0  0  0  0  0  0  0  0  0  0  0  0
   -8.1024   10.6230    0.0820 N   0  0  0  0  0  2  0  0  0  0  0  0
  -15.9381   10.5375   -0.2826 N   0  0  0  0  0  0  0  0  0  0  0  0
  -17.1109   10.1232   -0.7643 N   0  0  0  0  0  0  0  0  0  0  0  0
  -20.7398    7.0220   -1.2482 O   0  0  0  0  0  0  0  0  0  0  0  0
  -20.7547    6.1045    1.6726 O   0  0  0  0  0  0  0  0  0  0  0  0
  -17.5648    6.9007    0.3049 O   0  0  0  0  0  0  0  0  0  0  0  0
  -19.0998    9.6711   -2.9667 O   0  0  0  0  0  0  0  0  0  0  0  0
  -21.9385    9.2857   -1.8192 S   0  0  0  0  0  0  0  0  0  0  0  0
  9  1  1  0
 16  1  1  1
  1 31  1  0
 28  2  2  3
  2 29  2  0
  6  3  2  0
  3 22  1  0
  5  4  2  0
  4 21  1  0
  6  5  1  0
 36  6  1  0
 13  7  1  0
  7 32  1  0
  7 36  1  1
 23  8  1  0
  8 33  1  6
 17  9  2  0
 12 10  2  0
 10 17  1  0
 18 10  1  0
 11 18  2  0
 19 11  1  0
 11 25  1  0
 20 12  1  0
 12 27  1  0
 16 13  1  0
 13 35  1  6
 14 21  1  6
 16 15  1  0
 15 23  1  0
 15 34  1  1
 17 30  1  0
 18 24  1  0
 19 20  2  0
 19 28  1  0
 20 26  1  0
 21 22  2  0
 23 32  1  6
 30 31  2  0
M  CHG  2   2   1  29  -1
M  END
$$$$
