
     RDKit          3D

 36 39  0  0  0  0  0  0  0  0999 V2000
  -17.9149    7.9534   -0.8374 N   0  0  0  0  0  0  0  0  0  0  0  0
  -10.3127    8.8154    2.6461 N   0  0  0  0  0  4  0  0  0  0  0  0
  -24.8334    7.6287   -4.1584 C   0  0  0  0  0  0  0  0  0  0  0  0
  -25.8152    6.4457   -1.8835 C   0  0  0  0  0  0  0  0  0  0  0  0
  -24.4982    6.9163   -1.9305 C   0  0  0  0  0  0  0  0  0  0  0  0
  -24.0117    7.5066   -3.0689 C   0  0  0  0  0  0  0  0  0  0  0  0
  -21.5226    7.4810   -1.5816 C   0  0  1  0  0  0  0  0  0  0  0  0
  -21.1111   10.1840    0.2276 C   0  0  0  0  0  0  0  0  0  0  0  0
  -16.9042    8.0684    0.0710 C   0  0  0  0  0  0  0  0  0  0  0  0
  -14.5033    8.9083    0.0342 C   0  0  0  0  0  0  0  0  0  0  0  0
  -12.7328   10.4175    0.6804 C   0  0  0  0  0  0  0  0  0  0  0  0
  -13.7384    7.8708    0.5494 C   0  0  0  0  0  0  0  0  0  0  0  0
  -20.0565    7.6001   -1.8066 C   0  0  1  0  0  0  0  0  0  0  0  0
  -28.0114    6.0734   -2.9157 C   0  0  0  0  0  0  0  0  0  0  0  0
  -19.8786    8.0553    0.6277 C   0  0  2  0  0  0  0  0  0  0  0  0
  -19.2492    7.4175   -0.5519 C   0  0  2  0  0  0  0  0  0  0  0  0
  -15.8019    8.6110   -0.5528 C   0  0  0  0  0  0  0  0  0  0  0  0
  -13.9706   10.1769    0.1149 C   0  0  0  0  0  0  0  0  0  0  0  0
  -11.9995    9.3618    1.1829 C   0  0  0  0  0  0  0  0  0  0  0  0
  -12.5068    8.0778    1.1168 C   0  0  0  0  0  0  0  0  0  0  0  0
  -26.6204    6.5801   -2.9909 C   0  0  0  0  0  0  0  0  0  0  0  0
  -26.1488    7.1704   -4.1430 C   0  0  0  0  0  0  0  0  0  0  0  0
  -21.2250    8.6641    0.4188 C   0  0  2  0  0  0  0  0  0  0  0  0
  -14.6771   11.2217   -0.3732 F   0  0  0  0  0  0  0  0  0  0  0  0
  -12.2077   11.6482    0.7628 F   0  0  0  0  0  0  0  0  0  0  0  0
  -11.7694    7.0585    1.6164 F   0  0  0  0  0  0  0  0  0  0  0  0
  -14.2556    6.6034    0.4756 F   0  0  0  0  0  0  0  0  0  0  0  0
  -10.7109    9.5672    1.7780 N   0  0  0  0  0  0  0  0  0  0  0  0
  -10.0835    8.2843    3.7511 N   0  0  0  0  0  2  0  0  0  0  0  0
  -16.1834    8.8111   -1.8386 N   0  0  0  0  0  0  0  0  0  0  0  0
  -17.4475    8.4120   -1.9870 N   0  0  0  0  0  0  0  0  0  0  0  0
  -22.0348    8.0902   -0.4995 O   0  0  0  0  0  0  0  0  0  0  0  0
  -21.4157   10.7936    1.4517 O   0  0  0  0  0  0  0  0  0  0  0  0
  -19.0197    9.0938    1.0526 O   0  0  0  0  0  0  0  0  0  0  0  0
  -19.6700    6.6029   -2.7033 O   0  0  0  0  0  0  0  0  0  0  0  0
  -22.3417    8.0939   -3.1058 S   0  0  0  0  0  0  0  0  0  0  0  0
  9  1  1  0
 16  1  1  6
  1 31  1  0
 28  2  2  3
  2 29  2  0
  6  3  2  0
  3 22  1  0
  5  4  2  0
  4 21  1  0
  6  5  1  0
 36  6  1  0
 13  7  1  0
  7 32  1  0
  7 36  1  6
 23  8  1  0
  8 33  1  6
 17  9  2  0
 12 10  2  0
 10 17  1  0
 18 10  1  0
 11 18  2  0
 19 11  1  0
 11 25  1  0
 20 12  1  0
 12 27  1  0
 16 13  1  0
 13 35  1  6
 14 21  1  6
 16 15  1  0
 15 23  1  0
 15 34  1  6
 17 30  1  0
 18 24  1  0
 19 20  2  0
 19 28  1  0
 20 26  1  0
 21 22  2  0
 23 32  1  6
 30 31  2  0
M  CHG  2   2   1  29  -1
M  END
$$$$
