
     RDKit          3D

 36 39  0  0  0  0  0  0  0  0999 V2000
  -16.8739    8.3155   -0.4103 N   0  0  0  0  0  0  0  0  0  0  0  0
   -8.5751    9.9999    0.4887 N   0  0  0  0  0  4  0  0  0  0  0  0
  -24.3871    9.4739   -1.5916 C   0  0  0  0  0  0  0  0  0  0  0  0
  -24.2574    7.7263   -3.7053 C   0  0  0  0  0  0  0  0  0  0  0  0
  -23.1051    8.0596   -2.9845 C   0  0  0  0  0  0  0  0  0  0  0  0
  -23.1744    8.9330   -1.9293 C   0  0  0  0  0  0  0  0  0  0  0  0
  -20.3603    8.2760   -1.6893 C   0  0  1  0  0  0  0  0  0  0  0  0
  -19.9984    5.9643    0.6072 C   0  0  0  0  0  0  0  0  0  0  0  0
  -15.5357    8.2937   -0.6722 C   0  0  0  0  0  0  0  0  0  0  0  0
  -13.4190    8.9384    0.5828 C   0  0  0  0  0  0  0  0  0  0  0  0
  -11.1994    9.3777   -0.2600 C   0  0  0  0  0  0  0  0  0  0  0  0
  -12.8554    8.7823    1.8418 C   0  0  0  0  0  0  0  0  0  0  0  0
  -19.0851    8.8040   -1.1331 C   0  0  1  0  0  0  0  0  0  0  0  0
  -26.6688    7.9139   -4.1261 C   0  0  0  0  0  0  0  0  0  0  0  0
  -18.2903    6.4518   -1.1408 C   0  0  2  0  0  0  0  0  0  0  0  0
  -17.9221    7.8735   -1.3349 C   0  0  2  0  0  0  0  0  0  0  0  0
  -14.8576    8.7821    0.4233 C   0  0  0  0  0  0  0  0  0  0  0  0
  -12.5606    9.2374   -0.4531 C   0  0  0  0  0  0  0  0  0  0  0  0
  -10.6733    9.2156    1.0056 C   0  0  0  0  0  0  0  0  0  0  0  0
  -11.5086    8.9154    2.0653 C   0  0  0  0  0  0  0  0  0  0  0  0
  -25.4632    8.2830   -3.3465 C   0  0  0  0  0  0  0  0  0  0  0  0
  -25.5518    9.1621   -2.2895 C   0  0  0  0  0  0  0  0  0  0  0  0
  -19.7333    6.1637   -0.8927 C   0  0  2  0  0  0  0  0  0  0  0  0
  -13.0610    9.3992   -1.6992 F   0  0  0  0  0  0  0  0  0  0  0  0
  -10.3578    9.6685   -1.2621 F   0  0  0  0  0  0  0  0  0  0  0  0
  -10.9696    8.7612    3.2973 F   0  0  0  0  0  0  0  0  0  0  0  0
  -13.6973    8.4843    2.8818 F   0  0  0  0  0  0  0  0  0  0  0  0
   -9.2668    9.3525    1.2501 N   0  0  0  0  0  0  0  0  0  0  0  0
   -7.6756   10.7241    0.0176 N   0  0  0  0  0  2  0  0  0  0  0  0
  -15.8191    9.0896    1.3288 N   0  0  0  0  0  0  0  0  0  0  0  0
  -17.0148    8.8035    0.8113 N   0  0  0  0  0  0  0  0  0  0  0  0
  -20.6423    6.9810   -1.4707 O   0  0  0  0  0  0  0  0  0  0  0  0
  -20.9953    4.9891    0.7400 O   0  0  0  0  0  0  0  0  0  0  0  0
  -17.5782    5.9831   -0.0137 O   0  0  0  0  0  0  0  0  0  0  0  0
  -18.7849    9.9993   -1.7882 O   0  0  0  0  0  0  0  0  0  0  0  0
  -21.7034    9.3408   -1.0320 S   0  0  0  0  0  0  0  0  0  0  0  0
  9  1  1  0
 16  1  1  1
  1 31  1  0
 28  2  2  3
  2 29  2  0
  6  3  2  0
  3 22  1  0
  5  4  2  0
  4 21  1  0
  6  5  1  0
 36  6  1  0
 13  7  1  0
  7 32  1  0
  7 36  1  1
 23  8  1  0
  8 33  1  6
 17  9  2  0
 12 10  2  0
 10 17  1  0
 18 10  1  0
 11 18  2  0
 19 11  1  0
 11 25  1  0
 20 12  1  0
 12 27  1  0
 16 13  1  0
 13 35  1  6
 14 21  1  6
 16 15  1  0
 15 23  1  0
 15 34  1  1
 17 30  1  0
 18 24  1  0
 19 20  2  0
 19 28  1  0
 20 26  1  0
 21 22  2  0
 23 32  1  1
 30 31  2  0
M  CHG  2   2   1  29  -1
M  END
$$$$
