
     RDKit          3D

 36 39  0  0  0  0  0  0  0  0999 V2000
  -17.0060    8.1989   -0.3797 N   0  0  0  0  0  0  0  0  0  0  0  0
   -8.7098    9.8202    1.2286 N   0  0  0  0  0  4  0  0  0  0  0  0
  -23.6763    7.5572   -2.0644 C   0  0  0  0  0  0  0  0  0  0  0  0
  -25.3757    9.6308   -2.6565 C   0  0  0  0  0  0  0  0  0  0  0  0
  -24.2056    9.8557   -1.9227 C   0  0  0  0  0  0  0  0  0  0  0  0
  -23.3594    8.8170   -1.6291 C   0  0  0  0  0  0  0  0  0  0  0  0
  -20.5759    8.0401   -1.3911 C   0  0  1  0  0  0  0  0  0  0  0  0
  -20.0069    5.8728    1.0022 C   0  0  0  0  0  0  0  0  0  0  0  0
  -15.6959    8.2210   -0.7580 C   0  0  0  0  0  0  0  0  0  0  0  0
  -13.5061    8.9834    0.2884 C   0  0  0  0  0  0  0  0  0  0  0  0
  -11.3055    8.6743    1.2325 C   0  0  0  0  0  0  0  0  0  0  0  0
  -12.9200    9.7740   -0.6906 C   0  0  0  0  0  0  0  0  0  0  0  0
  -19.2723    8.6161   -0.9630 C   0  0  1  0  0  0  0  0  0  0  0  0
  -26.9171    8.1446   -3.8576 C   0  0  0  0  0  0  0  0  0  0  0  0
  -18.4406    6.2777   -0.8935 C   0  0  2  0  0  0  0  0  0  0  0  0
  -18.1118    7.6899   -1.1966 C   0  0  2  0  0  0  0  0  0  0  0  0
  -14.9455    8.7671    0.2604 C   0  0  0  0  0  0  0  0  0  0  0  0
  -12.6682    8.4449    1.2409 C   0  0  0  0  0  0  0  0  0  0  0  0
  -10.7566    9.4656    0.2438 C   0  0  0  0  0  0  0  0  0  0  0  0
  -11.5710   10.0199   -0.7258 C   0  0  0  0  0  0  0  0  0  0  0  0
  -25.6715    8.3565   -3.0822 C   0  0  0  0  0  0  0  0  0  0  0  0
  -24.8334    7.3010   -2.7967 C   0  0  0  0  0  0  0  0  0  0  0  0
  -19.8563    5.9865   -0.5224 C   0  0  2  0  0  0  0  0  0  0  0  0
  -13.1910    7.6674    2.2164 F   0  0  0  0  0  0  0  0  0  0  0  0
  -10.4836    8.1544    2.1552 F   0  0  0  0  0  0  0  0  0  0  0  0
  -11.0098   10.7924   -1.6854 F   0  0  0  0  0  0  0  0  0  0  0  0
  -13.7414   10.3166   -1.6445 F   0  0  0  0  0  0  0  0  0  0  0  0
   -9.3476    9.7292    0.1979 N   0  0  0  0  0  0  0  0  0  0  0  0
   -8.3038   10.1777    2.3523 N   0  0  0  0  0  2  0  0  0  0  0  0
  -15.8363    9.0638    1.2389 N   0  0  0  0  0  0  0  0  0  0  0  0
  -17.0598    8.7168    0.8365 N   0  0  0  0  0  0  0  0  0  0  0  0
  -20.8191    6.7568   -1.0775 O   0  0  0  0  0  0  0  0  0  0  0  0
  -20.9430    4.8645    1.2660 O   0  0  0  0  0  0  0  0  0  0  0  0
  -17.6396    5.8854    0.2027 O   0  0  0  0  0  0  0  0  0  0  0  0
  -19.0414    9.7742   -1.7068 O   0  0  0  0  0  0  0  0  0  0  0  0
  -21.8848    9.1249   -0.6985 S   0  0  0  0  0  0  0  0  0  0  0  0
  9  1  1  0
 16  1  1  1
  1 31  1  0
 28  2  2  3
  2 29  2  0
  6  3  2  0
  3 22  1  0
  5  4  2  0
  4 21  1  0
  6  5  1  0
 36  6  1  0
 13  7  1  0
  7 32  1  0
  7 36  1  1
 23  8  1  0
  8 33  1  6
 17  9  2  0
 12 10  2  0
 10 17  1  0
 18 10  1  0
 11 18  2  0
 19 11  1  0
 11 25  1  0
 20 12  1  0
 12 27  1  0
 16 13  1  0
 13 35  1  6
 14 21  1  6
 16 15  1  0
 15 23  1  0
 15 34  1  1
 17 30  1  0
 18 24  1  0
 19 20  2  0
 19 28  1  0
 20 26  1  0
 21 22  2  0
 23 32  1  1
 30 31  2  0
M  CHG  2   2   1  29  -1
M  END
$$$$
