
     RDKit          3D

 36 39  0  0  0  0  0  0  0  0999 V2000
  -16.7851    7.6665   -1.1867 N   0  0  0  0  0  0  0  0  0  0  0  0
   -9.4562   11.6990    0.9305 N   0  0  0  0  0  4  0  0  0  0  0  0
  -23.4057   10.1774   -1.6472 C   0  0  0  0  0  0  0  0  0  0  0  0
  -25.4385    8.6526   -0.6082 C   0  0  0  0  0  0  0  0  0  0  0  0
  -24.1618    8.5346   -0.0554 C   0  0  0  0  0  0  0  0  0  0  0  0
  -23.1555    9.3013   -0.5830 C   0  0  0  0  0  0  0  0  0  0  0  0
  -20.3998    8.6659   -1.2840 C   0  0  1  0  0  0  0  0  0  0  0  0
  -21.0975    5.9816   -0.0225 C   0  0  0  0  0  0  0  0  0  0  0  0
  -16.1296    8.7239   -0.6530 C   0  0  0  0  0  0  0  0  0  0  0  0
  -13.7096    9.2650   -0.0329 C   0  0  0  0  0  0  0  0  0  0  0  0
  -11.8607   10.7538   -0.3908 C   0  0  0  0  0  0  0  0  0  0  0  0
  -13.4718    9.4047    1.3193 C   0  0  0  0  0  0  0  0  0  0  0  0
  -18.9505    8.7674   -0.8617 C   0  0  1  0  0  0  0  0  0  0  0  0
  -27.0824    9.5943   -2.2046 C   0  0  0  0  0  0  0  0  0  0  0  0
  -18.7921    6.2776   -0.9696 C   0  0  2  0  0  0  0  0  0  0  0  0
  -18.2096    7.6105   -1.4468 C   0  0  2  0  0  0  0  0  0  0  0  0
  -14.7853    8.4243   -0.5494 C   0  0  0  0  0  0  0  0  0  0  0  0
  -12.8766    9.9614   -0.8845 C   0  0  0  0  0  0  0  0  0  0  0  0
  -11.6251   10.8916    0.9641 C   0  0  0  0  0  0  0  0  0  0  0  0
  -12.4572   10.1959    1.8174 C   0  0  0  0  0  0  0  0  0  0  0  0
  -25.7070    9.4996   -1.6456 C   0  0  0  0  0  0  0  0  0  0  0  0
  -24.6670   10.2544   -2.1488 C   0  0  0  0  0  0  0  0  0  0  0  0
  -20.2598    6.3286   -1.2322 C   0  0  2  0  0  0  0  0  0  0  0  0
  -13.1007    9.8316   -2.2133 F   0  0  0  0  0  0  0  0  0  0  0  0
  -11.0394   11.4402   -1.2353 F   0  0  0  0  0  0  0  0  0  0  0  0
  -12.2383   10.3210    3.1643 F   0  0  0  0  0  0  0  0  0  0  0  0
  -14.2959    8.7159    2.1669 F   0  0  0  0  0  0  0  0  0  0  0  0
  -10.5701   11.7149    1.4559 N   0  0  0  0  0  0  0  0  0  0  0  0
   -8.4187   11.5360    0.2739 N   0  0  0  0  0  2  0  0  0  0  0  0
  -14.6659    7.1734   -1.0314 N   0  0  0  0  0  0  0  0  0  0  0  0
  -15.8654    6.7585   -1.3978 N   0  0  0  0  0  0  0  0  0  0  0  0
  -20.7316    7.4604   -1.8251 O   0  0  0  0  0  0  0  0  0  0  0  0
  -22.0399    4.9831   -0.3681 O   0  0  0  0  0  0  0  0  0  0  0  0
  -18.4735    6.0337    0.3592 O   0  0  0  0  0  0  0  0  0  0  0  0
  -18.3628    9.9371   -1.3392 O   0  0  0  0  0  0  0  0  0  0  0  0
  -21.4881    9.2202    0.0480 S   0  0  0  0  0  0  0  0  0  0  0  0
  9  1  1  0
 16  1  1  1
  1 31  1  0
 28  2  2  3
  2 29  2  0
  6  3  2  0
  3 22  1  0
  5  4  2  0
  4 21  1  0
  6  5  1  0
 36  6  1  0
 13  7  1  0
  7 32  1  0
  7 36  1  1
 23  8  1  1
  8 33  1  0
 17  9  2  0
 12 10  2  0
 10 17  1  0
 18 10  1  0
 11 18  2  0
 19 11  1  0
 11 25  1  0
 20 12  1  0
 12 27  1  0
 16 13  1  0
 13 35  1  6
 21 14  1  0
 16 15  1  0
 15 23  1  0
 15 34  1  1
 17 30  1  0
 18 24  1  0
 19 20  2  0
 19 28  1  0
 20 26  1  0
 21 22  2  0
 23 32  1  0
 30 31  2  0
M  CHG  2   2   1  29  -1
M  END
$$$$
