
     RDKit          3D

 36 39  0  0  0  0  0  0  0  0999 V2000
  -16.6040    7.8142   -1.6451 N   0  0  0  0  0  0  0  0  0  0  0  0
   -9.2596   10.2859    2.1829 N   0  0  0  0  0  4  0  0  0  0  0  0
  -23.9973    8.0144   -0.4423 C   0  0  0  0  0  0  0  0  0  0  0  0
  -24.8443    9.4380   -2.6314 C   0  0  0  0  0  0  0  0  0  0  0  0
  -23.5203    9.5787   -2.2113 C   0  0  0  0  0  0  0  0  0  0  0  0
  -23.1096    8.8624   -1.1172 C   0  0  0  0  0  0  0  0  0  0  0  0
  -20.3431    8.1197   -1.6497 C   0  0  1  0  0  0  0  0  0  0  0  0
  -20.4373    6.0737    0.6061 C   0  0  0  0  0  0  0  0  0  0  0  0
  -15.9441    8.2646   -0.5523 C   0  0  0  0  0  0  0  0  0  0  0  0
  -13.5600    9.0213   -0.0260 C   0  0  0  0  0  0  0  0  0  0  0  0
  -11.8619   10.6418    0.4777 C   0  0  0  0  0  0  0  0  0  0  0  0
  -13.1850    8.3696    1.1314 C   0  0  0  0  0  0  0  0  0  0  0  0
  -18.9189    8.6030   -1.4848 C   0  0  1  0  0  0  0  0  0  0  0  0
  -27.1307    8.4974   -2.4715 C   0  0  0  0  0  0  0  0  0  0  0  0
  -18.2899    6.3285   -0.6681 C   0  0  2  0  0  0  0  0  0  0  0  0
  -18.0034    7.4398   -1.6813 C   0  0  2  0  0  0  0  0  0  0  0  0
  -14.6290    8.5231   -0.8860 C   0  0  0  0  0  0  0  0  0  0  0  0
  -12.8722   10.1761   -0.3384 C   0  0  0  0  0  0  0  0  0  0  0  0
  -11.4887    9.9868    1.6361 C   0  0  0  0  0  0  0  0  0  0  0  0
  -12.1754    8.8317    1.9503 C   0  0  0  0  0  0  0  0  0  0  0  0
  -25.7282    8.6176   -1.9901 C   0  0  0  0  0  0  0  0  0  0  0  0
  -25.2762    7.9136   -0.8926 C   0  0  0  0  0  0  0  0  0  0  0  0
  -19.7524    6.0433   -0.7414 C   0  0  2  0  0  0  0  0  0  0  0  0
  -13.2317   10.8236   -1.4716 F   0  0  0  0  0  0  0  0  0  0  0  0
  -11.1844   11.7831    0.1656 F   0  0  0  0  0  0  0  0  0  0  0  0
  -11.8187    8.1693    3.0956 F   0  0  0  0  0  0  0  0  0  0  0  0
  -13.8648    7.2243    1.4447 F   0  0  0  0  0  0  0  0  0  0  0  0
  -10.4418   10.4830    2.4671 N   0  0  0  0  0  0  0  0  0  0  0  0
   -8.0646   10.2959    1.8574 N   0  0  0  0  0  2  0  0  0  0  0  0
  -14.5311    8.2163   -2.1927 N   0  0  0  0  0  0  0  0  0  0  0  0
  -15.7151    7.8017   -2.6068 N   0  0  0  0  0  0  0  0  0  0  0  0
  -20.4666    6.7630   -1.6509 O   0  0  0  0  0  0  0  0  0  0  0  0
  -21.1629    4.8730    0.7971 O   0  0  0  0  0  0  0  0  0  0  0  0
  -17.8551    6.6789    0.6026 O   0  0  0  0  0  0  0  0  0  0  0  0
  -18.5959    9.5670   -2.4377 O   0  0  0  0  0  0  0  0  0  0  0  0
  -21.4402    8.9761   -0.4969 S   0  0  0  0  0  0  0  0  0  0  0  0
  9  1  1  0
 16  1  1  1
  1 31  1  0
 28  2  2  3
  2 29  2  0
  6  3  2  0
  3 22  1  0
  5  4  2  0
  4 21  1  0
  6  5  1  0
 36  6  1  0
 13  7  1  0
  7 32  1  0
  7 36  1  1
 23  8  1  1
  8 33  1  0
 17  9  2  0
 12 10  2  0
 10 17  1  0
 18 10  1  0
 11 18  2  0
 19 11  1  0
 11 25  1  0
 20 12  1  0
 12 27  1  0
 16 13  1  0
 13 35  1  6
 21 14  1  0
 16 15  1  0
 15 23  1  0
 15 34  1  1
 17 30  1  0
 18 24  1  0
 19 20  2  0
 19 28  1  0
 20 26  1  0
 21 22  2  0
 23 32  1  0
 30 31  2  0
M  CHG  2   2   1  29  -1
M  END
$$$$
