
     RDKit          3D

 22 24  0  0  0  0  0  0  0  0999 V2000
   62.2724   16.0484   32.7900 O   0  0  0  0  0  0  0  0  0  0  0  0
   61.1551   16.4868   32.0758 C   0  0  1  0  0  0  0  0  0  0  0  0
   61.4312   17.8731   31.4821 C   0  0  0  0  0  0  0  0  0  0  0  0
   61.5723   17.7103   30.0757 N   0  0  1  0  0  4  0  0  0  0  0  0
   60.6772   16.5841   29.7329 C   0  0  0  0  0  0  0  0  0  0  0  0
   60.8749   15.6383   30.9051 C   0  0  2  0  0  0  0  0  0  0  0  0
   59.6543   14.7898   31.0434 C   0  0  0  0  0  0  0  0  0  0  0  0
   59.8575   13.0462   31.1726 S   0  0  0  0  0  0  0  0  0  0  0  0
   60.2384   12.3859   32.7634 C   0  0  0  0  0  0  0  0  0  0  0  0
   59.2121   12.7450   33.7578 C   0  0  0  0  0  0  0  0  0  0  0  0
   58.3782   13.0388   34.5610 C   0  0  0  0  0  0  0  0  0  0  0  0
   61.2045   18.8162   29.2580 C   0  0  0  0  0  0  0  0  0  0  0  0
   60.0896   18.5555   28.3467 C   0  0  0  0  0  0  0  0  0  0  0  0
   60.0722   18.6053   26.9732 C   0  0  0  0  0  0  0  0  0  0  0  0
   60.9963   18.8944   26.0414 N   0  0  0  0  0  0  0  0  0  0  0  0
   58.8181   18.1963   28.7207 C   0  0  0  0  0  0  0  0  0  0  0  0
   58.0687   18.0374   27.6175 N   0  0  0  0  0  0  0  0  0  0  0  0
   58.7938   18.2779   26.5141 C   0  0  0  0  0  0  0  0  0  0  0  0
   58.4724   18.2465   25.1733 C   0  0  0  0  0  0  0  0  0  0  0  0
   57.1981   17.9220   24.6770 N   0  0  0  0  0  0  0  0  0  0  0  0
   59.4582   18.5493   24.3149 N   0  0  0  0  0  0  0  0  0  0  0  0
   60.6910   18.8662   24.7293 C   0  0  0  0  0  0  0  0  0  0  0  0
  2  1  1  6
  2  3  1  0
  2  6  1  0
  3  4  1  0
  4  5  1  0
  4 12  1  6
  5  6  1  0
  6  7  1  1
  7  8  1  0
  8  9  1  0
  9 10  1  0
 10 11  3  0
 12 13  1  0
 13 14  1  0
 13 16  2  0
 14 15  2  0
 14 18  1  0
 15 22  1  0
 16 17  1  0
 17 18  1  0
 18 19  2  0
 19 20  1  0
 19 21  1  0
 21 22  2  0
M  CHG  1   4   1
M  END
$$$$
