
     RDKit          3D

 22 24  0  0  0  0  0  0  0  0999 V2000
   62.1559   17.5652   32.1144 O   0  0  0  0  0  0  0  0  0  0  0  0
   60.9616   17.7249   31.4509 C   0  0  1  0  0  0  0  0  0  0  0  0
   61.3232   18.1475   30.0399 C   0  0  0  0  0  0  0  0  0  0  0  0
   61.9470   16.8487   29.5735 N   0  0  1  0  0  4  0  0  0  0  0  0
   60.7812   16.0165   29.7725 C   0  0  0  0  0  0  0  0  0  0  0  0
   60.2814   16.3773   31.1407 C   0  0  2  0  0  0  0  0  0  0  0  0
   58.7885   16.4668   31.2272 C   0  0  0  0  0  0  0  0  0  0  0  0
   58.0735   14.7790   31.3183 S   0  0  0  0  0  0  0  0  0  0  0  0
   57.6703   14.3933   33.0882 C   0  0  0  0  0  0  0  0  0  0  0  0
   58.8437   13.7825   33.6524 C   0  0  0  0  0  0  0  0  0  0  0  0
   59.9303   13.2191   34.1929 C   0  0  0  0  0  0  0  0  0  0  0  0
   62.3667   17.0995   28.2483 C   0  0  0  0  0  0  0  0  0  0  0  0
   61.3719   16.9689   27.1855 C   0  0  0  0  0  0  0  0  0  0  0  0
   60.5545   18.0136   26.7411 C   0  0  0  0  0  0  0  0  0  0  0  0
   60.4414   19.3167   27.0489 N   0  0  0  0  0  0  0  0  0  0  0  0
   60.9916   15.8713   26.5285 C   0  0  0  0  0  0  0  0  0  0  0  0
   59.9572   16.1489   25.6740 N   0  0  0  0  0  0  0  0  0  0  0  0
   59.6931   17.4956   25.8060 C   0  0  0  0  0  0  0  0  0  0  0  0
   58.7362   18.2932   25.2065 C   0  0  0  0  0  0  0  0  0  0  0  0
   57.8784   17.7092   24.2123 N   0  0  0  0  0  0  0  0  0  0  0  0
   58.6372   19.5914   25.5250 N   0  0  0  0  0  0  0  0  0  0  0  0
   59.4982   20.1264   26.4637 C   0  0  0  0  0  0  0  0  0  0  0  0
  2  1  1  1
  3  2  1  1
  2  6  1  0
  3  4  1  0
  4  5  1  0
  4 12  1  6
  5  6  1  6
  6  7  1  6
  7  8  1  6
  8  9  1  0
  9 10  1  6
 10 11  3  0
 12 13  1  6
 13 14  1  0
 13 16  2  0
 14 15  2  0
 14 18  1  0
 15 22  1  0
 16 17  1  0
 17 18  1  0
 18 19  2  0
 19 20  1  0
 19 21  1  0
 21 22  2  0
M  CHG  1   4   1
M  END
$$$$
