
     RDKit          3D

 22 24  0  0  0  0  0  0  0  0999 V2000
   64.1704   16.7958   31.4513 O   0  0  0  0  0  0  0  0  0  0  0  0
   62.8366   16.5686   31.6986 C   0  0  1  0  0  0  0  0  0  0  0  0
   62.0907   17.7117   31.0372 C   0  0  0  0  0  0  0  0  0  0  0  0
   62.3667   17.3490   29.5930 N   0  0  1  0  0  4  0  0  0  0  0  0
   61.7496   16.0415   29.6229 C   0  0  0  0  0  0  0  0  0  0  0  0
   62.2806   15.3952   30.8687 C   0  0  2  0  0  0  0  0  0  0  0  0
   61.2492   14.6117   31.6217 C   0  0  0  0  0  0  0  0  0  0  0  0
   59.7659   14.3720   30.5680 S   0  0  0  0  0  0  0  0  0  0  0  0
   58.3910   13.6934   31.6134 C   0  0  0  0  0  0  0  0  0  0  0  0
   58.0758   14.7065   32.5843 C   0  0  0  0  0  0  0  0  0  0  0  0
   57.7962   15.6444   33.4967 C   0  0  0  0  0  0  0  0  0  0  0  0
   61.7401   18.3629   28.8350 C   0  0  0  0  0  0  0  0  0  0  0  0
   60.4575   18.0473   28.2090 C   0  0  0  0  0  0  0  0  0  0  0  0
   60.2793   17.8569   26.8346 C   0  0  0  0  0  0  0  0  0  0  0  0
   61.1004   17.8490   25.7710 N   0  0  0  0  0  0  0  0  0  0  0  0
   59.2491   17.9778   28.7710 C   0  0  0  0  0  0  0  0  0  0  0  0
   58.2840   17.7533   27.8248 N   0  0  0  0  0  0  0  0  0  0  0  0
   58.9372   17.6703   26.6136 C   0  0  0  0  0  0  0  0  0  0  0  0
   58.4497   17.4865   25.3331 C   0  0  0  0  0  0  0  0  0  0  0  0
   57.0403   17.2660   25.1587 N   0  0  0  0  0  0  0  0  0  0  0  0
   59.2828   17.4813   24.2831 N   0  0  0  0  0  0  0  0  0  0  0  0
   60.6360   17.6668   24.4908 C   0  0  0  0  0  0  0  0  0  0  0  0
  2  1  1  6
  3  2  1  1
  2  6  1  0
  3  4  1  0
  4  5  1  0
  4 12  1  6
  5  6  1  6
  6  7  1  1
  7  8  1  6
  8  9  1  0
  9 10  1  6
 10 11  3  0
 12 13  1  6
 13 14  1  0
 13 16  2  0
 14 15  2  0
 14 18  1  0
 15 22  1  0
 16 17  1  0
 17 18  1  0
 18 19  2  0
 19 20  1  0
 19 21  1  0
 21 22  2  0
M  CHG  1   4   1
M  END
$$$$
