
     RDKit          3D

 22 24  0  0  0  0  0  0  0  0999 V2000
   59.7676   16.1321   33.0219 O   0  0  0  0  0  0  0  0  0  0  0  0
   60.7142   16.1207   32.0239 C   0  0  1  0  0  0  0  0  0  0  0  0
   59.9844   15.6969   30.7637 C   0  0  0  0  0  0  0  0  0  0  0  0
   59.1262   16.9311   30.5799 N   0  0  1  0  0  4  0  0  0  0  0  0
   60.2115   17.8804   30.4687 C   0  0  0  0  0  0  0  0  0  0  0  0
   61.1348   17.5420   31.6021 C   0  0  2  0  0  0  0  0  0  0  0  0
   62.5850   17.6140   31.2334 C   0  0  0  0  0  0  0  0  0  0  0  0
   63.4799   16.1903   31.9685 S   0  0  0  0  0  0  0  0  0  0  0  0
   64.8912   16.8312   32.9889 C   0  0  0  0  0  0  0  0  0  0  0  0
   64.3555   17.8761   33.8192 C   0  0  0  0  0  0  0  0  0  0  0  0
   63.8657   18.8599   34.5825 C   0  0  0  0  0  0  0  0  0  0  0  0
   58.3509   16.6694   29.4286 C   0  0  0  0  0  0  0  0  0  0  0  0
   59.0407   16.6309   28.1405 C   0  0  0  0  0  0  0  0  0  0  0  0
   59.1738   17.7312   27.2869 C   0  0  0  0  0  0  0  0  0  0  0  0
   58.8150   19.0244   27.3549 N   0  0  0  0  0  0  0  0  0  0  0  0
   59.5667   15.5811   27.5066 C   0  0  0  0  0  0  0  0  0  0  0  0
   60.0369   15.9433   26.2716 N   0  0  0  0  0  0  0  0  0  0  0  0
   59.7949   17.2944   26.1431 C   0  0  0  0  0  0  0  0  0  0  0  0
   60.0360   18.1613   25.0935 C   0  0  0  0  0  0  0  0  0  0  0  0
   60.7157   17.6609   23.9304 N   0  0  0  0  0  0  0  0  0  0  0  0
   59.6715   19.4483   25.1779 N   0  0  0  0  0  0  0  0  0  0  0  0
   59.0466   19.9020   26.3235 C   0  0  0  0  0  0  0  0  0  0  0  0
  2  1  1  1
  3  2  1  1
  2  6  1  0
  3  4  1  0
  4  5  1  0
  4 12  1  6
  5  6  1  6
  6  7  1  6
  7  8  1  6
  8  9  1  0
  9 10  1  6
 10 11  3  0
 12 13  1  6
 13 14  1  0
 13 16  2  0
 14 15  2  0
 14 18  1  0
 15 22  1  0
 16 17  1  0
 17 18  1  0
 18 19  2  0
 19 20  1  0
 19 21  1  0
 21 22  2  0
M  CHG  1   4   1
M  END
$$$$
