
     RDKit          3D

 22 24  0  0  0  0  0  0  0  0999 V2000
   60.2153   17.6289   33.0237 O   0  0  0  0  0  0  0  0  0  0  0  0
   59.6996   16.8231   32.0354 C   0  0  1  0  0  0  0  0  0  0  0  0
   59.8447   17.6047   30.7438 C   0  0  0  0  0  0  0  0  0  0  0  0
   61.3548   17.5711   30.6339 N   0  0  1  0  0  4  0  0  0  0  0  0
   61.4925   16.1321   30.5946 C   0  0  0  0  0  0  0  0  0  0  0  0
   60.6234   15.6329   31.7113 C   0  0  2  0  0  0  0  0  0  0  0  0
   59.8498   14.3988   31.3608 C   0  0  0  0  0  0  0  0  0  0  0  0
   61.0077   13.0001   31.0936 S   0  0  0  0  0  0  0  0  0  0  0  0
   60.0259   11.4765   30.6955 C   0  0  0  0  0  0  0  0  0  0  0  0
   58.7609   11.6173   31.3651 C   0  0  0  0  0  0  0  0  0  0  0  0
   57.5890   11.7635   31.9940 C   0  0  0  0  0  0  0  0  0  0  0  0
   61.6526   18.3000   29.4612 C   0  0  0  0  0  0  0  0  0  0  0  0
   61.1200   17.7971   28.1963 C   0  0  0  0  0  0  0  0  0  0  0  0
   59.9328   18.2470   27.6089 C   0  0  0  0  0  0  0  0  0  0  0  0
   59.0249   19.1871   27.9217 N   0  0  0  0  0  0  0  0  0  0  0  0
   61.5749   16.7981   27.4375 C   0  0  0  0  0  0  0  0  0  0  0  0
   60.7360   16.5697   26.3786 N   0  0  0  0  0  0  0  0  0  0  0  0
   59.7124   17.4868   26.4872 C   0  0  0  0  0  0  0  0  0  0  0  0
   58.5862   17.6824   25.7097 C   0  0  0  0  0  0  0  0  0  0  0  0
   58.4174   16.8803   24.5292 N   0  0  0  0  0  0  0  0  0  0  0  0
   57.6906   18.6247   26.0360 N   0  0  0  0  0  0  0  0  0  0  0  0
   57.9000   19.3979   27.1617 C   0  0  0  0  0  0  0  0  0  0  0  0
  2  1  1  1
  3  2  1  1
  2  6  1  0
  3  4  1  0
  4  5  1  0
  4 12  1  6
  5  6  1  6
  6  7  1  6
  7  8  1  6
  8  9  1  0
  9 10  1  6
 10 11  3  0
 12 13  1  6
 13 14  1  0
 13 16  2  0
 14 15  2  0
 14 18  1  0
 15 22  1  0
 16 17  1  0
 17 18  1  0
 18 19  2  0
 19 20  1  0
 19 21  1  0
 21 22  2  0
M  CHG  1   4   1
M  END
$$$$
