
     RDKit          3D

 22 24  0  0  0  0  0  0  0  0999 V2000
   63.0115   18.8034   30.8700 O   0  0  0  0  0  0  0  0  0  0  0  0
   61.7369   18.3787   30.4882 C   0  0  1  0  0  0  0  0  0  0  0  0
   61.8006   17.7335   29.0989 C   0  0  0  0  0  0  0  0  0  0  0  0
   61.6061   16.3349   29.2729 N   0  0  1  0  0  4  0  0  0  0  0  0
   60.7054   16.2199   30.4401 C   0  0  0  0  0  0  0  0  0  0  0  0
   61.2210   17.3116   31.3622 C   0  0  2  0  0  0  0  0  0  0  0  0
   60.1081   17.7414   32.2598 C   0  0  0  0  0  0  0  0  0  0  0  0
   59.2053   16.5027   33.1252 S   0  0  0  0  0  0  0  0  0  0  0  0
   59.3322   16.4814   34.8846 C   0  0  0  0  0  0  0  0  0  0  0  0
   60.5035   17.2438   35.3515 C   0  0  0  0  0  0  0  0  0  0  0  0
   61.4536   17.8589   35.7333 C   0  0  0  0  0  0  0  0  0  0  0  0
   61.0039   15.6280   28.1937 C   0  0  0  0  0  0  0  0  0  0  0  0
   60.7305   16.4428   27.0092 C   0  0  0  0  0  0  0  0  0  0  0  0
   60.0502   17.6340   26.9235 C   0  0  0  0  0  0  0  0  0  0  0  0
   59.4322   18.4187   27.8225 N   0  0  0  0  0  0  0  0  0  0  0  0
   61.1269   16.1492   25.7278 C   0  0  0  0  0  0  0  0  0  0  0  0
   60.7019   17.1237   24.9069 N   0  0  0  0  0  0  0  0  0  0  0  0
   60.0328   18.0626   25.5937 C   0  0  0  0  0  0  0  0  0  0  0  0
   59.4168   19.2318   25.1990 C   0  0  0  0  0  0  0  0  0  0  0  0
   59.3800   19.6925   23.8716 N   0  0  0  0  0  0  0  0  0  0  0  0
   58.8252   19.9514   26.1646 N   0  0  0  0  0  0  0  0  0  0  0  0
   58.8279   19.5625   27.4456 C   0  0  0  0  0  0  0  0  0  0  0  0
  2  1  1  1
  2  3  1  0
  2  6  1  0
  3  4  1  0
  4  5  1  0
  4 12  1  6
  5  6  1  0
  6  7  1  6
  7  8  1  0
  8  9  1  0
  9 10  1  0
 10 11  3  0
 12 13  1  0
 13 14  1  0
 13 16  2  0
 14 15  2  0
 14 18  1  0
 15 22  1  0
 16 17  1  0
 17 18  1  0
 18 19  2  0
 19 20  1  0
 19 21  1  0
 21 22  2  0
M  CHG  1   4   1
M  END
$$$$
