
     RDKit          3D

 22 24  0  0  0  0  0  0  0  0999 V2000
   63.1697   17.9376   32.2769 O   0  0  0  0  0  0  0  0  0  0  0  0
   61.9146   17.6449   31.7964 C   0  0  1  0  0  0  0  0  0  0  0  0
   61.8890   18.1494   30.3662 C   0  0  0  0  0  0  0  0  0  0  0  0
   62.8628   17.1577   29.7649 N   0  0  1  0  0  4  0  0  0  0  0  0
   62.1171   15.9631   30.0939 C   0  0  0  0  0  0  0  0  0  0  0  0
   61.7273   16.1382   31.5323 C   0  0  2  0  0  0  0  0  0  0  0  0
   60.3321   15.6829   31.8331 C   0  0  0  0  0  0  0  0  0  0  0  0
   59.3681   15.5777   30.2750 S   0  0  0  0  0  0  0  0  0  0  0  0
   57.6804   14.9079   30.6581 C   0  0  0  0  0  0  0  0  0  0  0  0
   57.8428   13.9885   31.7520 C   0  0  0  0  0  0  0  0  0  0  0  0
   57.9989   13.1210   32.7587 C   0  0  0  0  0  0  0  0  0  0  0  0
   62.9651   17.5243   28.4046 C   0  0  0  0  0  0  0  0  0  0  0  0
   61.8698   17.1429   27.5150 C   0  0  0  0  0  0  0  0  0  0  0  0
   60.8479   18.0084   27.1105 C   0  0  0  0  0  0  0  0  0  0  0  0
   60.5758   19.3073   27.3214 N   0  0  0  0  0  0  0  0  0  0  0  0
   61.5806   15.9397   27.0156 C   0  0  0  0  0  0  0  0  0  0  0  0
   60.4109   15.9764   26.3031 N   0  0  0  0  0  0  0  0  0  0  0  0
   59.9606   17.2781   26.3595 C   0  0  0  0  0  0  0  0  0  0  0  0
   58.8200   17.8644   25.8433 C   0  0  0  0  0  0  0  0  0  0  0  0
   57.9385   17.0635   25.0390 N   0  0  0  0  0  0  0  0  0  0  0  0
   58.5637   19.1615   26.0632 N   0  0  0  0  0  0  0  0  0  0  0  0
   59.4485   19.9090   26.8164 C   0  0  0  0  0  0  0  0  0  0  0  0
  2  1  1  6
  3  2  1  1
  2  6  1  0
  3  4  1  0
  4  5  1  0
  4 12  1  6
  5  6  1  6
  6  7  1  6
  7  8  1  6
  8  9  1  0
  9 10  1  6
 10 11  3  0
 12 13  1  6
 13 14  1  0
 13 16  2  0
 14 15  2  0
 14 18  1  0
 15 22  1  0
 16 17  1  0
 17 18  1  0
 18 19  2  0
 19 20  1  0
 19 21  1  0
 21 22  2  0
M  CHG  1   4   1
M  END
$$$$
