
     RDKit          3D

 22 24  0  0  0  0  0  0  0  0999 V2000
   61.4608   17.9421   33.0466 O   0  0  0  0  0  0  0  0  0  0  0  0
   60.8365   17.9184   31.7974 C   0  0  1  0  0  0  0  0  0  0  0  0
   61.8086   18.4195   30.7230 C   0  0  0  0  0  0  0  0  0  0  0  0
   62.1847   17.2957   29.9357 N   0  0  1  0  0  4  0  0  0  0  0  0
   60.9981   16.4131   29.9441 C   0  0  0  0  0  0  0  0  0  0  0  0
   60.4962   16.5503   31.3713 C   0  0  2  0  0  0  0  0  0  0  0  0
   59.0341   16.2494   31.3928 C   0  0  0  0  0  0  0  0  0  0  0  0
   58.5181   14.5871   31.1305 S   0  0  0  0  0  0  0  0  0  0  0  0
   58.0327   13.6517   32.5451 C   0  0  0  0  0  0  0  0  0  0  0  0
   58.2761   14.3946   33.7941 C   0  0  0  0  0  0  0  0  0  0  0  0
   58.4770   14.9944   34.8074 C   0  0  0  0  0  0  0  0  0  0  0  0
   62.5253   17.5454   28.5761 C   0  0  0  0  0  0  0  0  0  0  0  0
   61.4350   17.3260   27.6250 C   0  0  0  0  0  0  0  0  0  0  0  0
   60.5266   18.2334   27.1343 C   0  0  0  0  0  0  0  0  0  0  0  0
   60.3209   19.5458   27.3372 N   0  0  0  0  0  0  0  0  0  0  0  0
   61.1213   16.1288   27.0302 C   0  0  0  0  0  0  0  0  0  0  0  0
   60.0683   16.3101   26.2165 N   0  0  0  0  0  0  0  0  0  0  0  0
   59.6633   17.5892   26.2444 C   0  0  0  0  0  0  0  0  0  0  0  0
   58.6415   18.2484   25.5936 C   0  0  0  0  0  0  0  0  0  0  0  0
   57.7553   17.6323   24.6933 N   0  0  0  0  0  0  0  0  0  0  0  0
   58.5110   19.5575   25.8573 N   0  0  0  0  0  0  0  0  0  0  0  0
   59.3250   20.1976   26.7057 C   0  0  0  0  0  0  0  0  0  0  0  0
  2  1  1  1
  2  3  1  0
  2  6  1  0
  3  4  1  0
  4  5  1  0
  4 12  1  6
  5  6  1  0
  6  7  1  6
  7  8  1  0
  8  9  1  0
  9 10  1  0
 10 11  3  0
 12 13  1  0
 13 14  1  0
 13 16  2  0
 14 15  2  0
 14 18  1  0
 15 22  1  0
 16 17  1  0
 17 18  1  0
 18 19  2  0
 19 20  1  0
 19 21  1  0
 21 22  2  0
M  CHG  1   4   1
M  END
$$$$
