
     RDKit          3D

 22 24  0  0  0  0  0  0  0  0999 V2000
   61.7366   18.7560   31.9569 O   0  0  0  0  0  0  0  0  0  0  0  0
   60.9190   17.9077   31.2068 C   0  0  1  0  0  0  0  0  0  0  0  0
   61.4140   17.8605   29.7565 C   0  0  0  0  0  0  0  0  0  0  0  0
   61.9897   16.5763   29.5478 N   0  0  1  0  0  4  0  0  0  0  0  0
   61.2144   15.6673   30.4193 C   0  0  0  0  0  0  0  0  0  0  0  0
   60.9986   16.5102   31.6646 C   0  0  2  0  0  0  0  0  0  0  0  0
   59.7708   16.0245   32.3613 C   0  0  0  0  0  0  0  0  0  0  0  0
   58.6297   15.0372   31.4550 S   0  0  0  0  0  0  0  0  0  0  0  0
   58.3134   13.4060   32.0476 C   0  0  0  0  0  0  0  0  0  0  0  0
   58.3389   13.3512   33.5198 C   0  0  0  0  0  0  0  0  0  0  0  0
   58.3565   13.3099   34.7135 C   0  0  0  0  0  0  0  0  0  0  0  0
   61.9368   16.0527   28.2249 C   0  0  0  0  0  0  0  0  0  0  0  0
   61.2673   16.9187   27.2536 C   0  0  0  0  0  0  0  0  0  0  0  0
   59.9234   17.0383   26.9912 C   0  0  0  0  0  0  0  0  0  0  0  0
   58.8231   16.4469   27.4864 N   0  0  0  0  0  0  0  0  0  0  0  0
   61.8905   17.8010   26.4059 C   0  0  0  0  0  0  0  0  0  0  0  0
   60.9593   18.4242   25.6653 N   0  0  0  0  0  0  0  0  0  0  0  0
   59.7307   17.9902   25.9866 C   0  0  0  0  0  0  0  0  0  0  0  0
   58.4801   18.3231   25.5100 C   0  0  0  0  0  0  0  0  0  0  0  0
   58.2500   19.2746   24.5015 N   0  0  0  0  0  0  0  0  0  0  0  0
   57.4393   17.6818   26.0630 N   0  0  0  0  0  0  0  0  0  0  0  0
   57.5974   16.7660   27.0265 C   0  0  0  0  0  0  0  0  0  0  0  0
  2  1  1  1
  2  3  1  0
  2  6  1  0
  3  4  1  0
  4  5  1  0
  4 12  1  6
  5  6  1  0
  6  7  1  6
  7  8  1  0
  8  9  1  0
  9 10  1  0
 10 11  3  0
 12 13  1  0
 13 14  1  0
 13 16  2  0
 14 15  2  0
 14 18  1  0
 15 22  1  0
 16 17  1  0
 17 18  1  0
 18 19  2  0
 19 20  1  0
 19 21  1  0
 21 22  2  0
M  CHG  1   4   1
M  END
$$$$
