
     RDKit          3D

 22 24  0  0  0  0  0  0  0  0999 V2000
   63.7050   17.1936   31.6168 O   0  0  0  0  0  0  0  0  0  0  0  0
   62.4837   16.5659   31.6969 C   0  0  1  0  0  0  0  0  0  0  0  0
   61.4710   17.5563   31.1548 C   0  0  0  0  0  0  0  0  0  0  0  0
   61.9073   17.5468   29.7046 N   0  0  1  0  0  4  0  0  0  0  0  0
   61.6939   16.1359   29.4699 C   0  0  0  0  0  0  0  0  0  0  0  0
   62.3301   15.4512   30.6438 C   0  0  2  0  0  0  0  0  0  0  0  0
   61.5352   14.2921   31.1625 C   0  0  0  0  0  0  0  0  0  0  0  0
   59.7445   14.6853   31.0787 S   0  0  0  0  0  0  0  0  0  0  0  0
   58.8889   13.8958   32.5238 C   0  0  0  0  0  0  0  0  0  0  0  0
   59.4766   12.5933   32.6867 C   0  0  0  0  0  0  0  0  0  0  0  0
   60.0086   11.3744   32.8333 C   0  0  0  0  0  0  0  0  0  0  0  0
   61.0506   18.4655   29.0587 C   0  0  0  0  0  0  0  0  0  0  0  0
   60.0310   17.9264   28.1608 C   0  0  0  0  0  0  0  0  0  0  0  0
   60.1022   17.9853   26.7649 C   0  0  0  0  0  0  0  0  0  0  0  0
   61.0111   18.4425   25.8871 N   0  0  0  0  0  0  0  0  0  0  0  0
   58.8487   17.3889   28.4674 C   0  0  0  0  0  0  0  0  0  0  0  0
   58.1383   17.0951   27.3333 N   0  0  0  0  0  0  0  0  0  0  0  0
   58.9330   17.4640   26.2689 C   0  0  0  0  0  0  0  0  0  0  0  0
   58.7000   17.4186   24.9070 C   0  0  0  0  0  0  0  0  0  0  0  0
   57.4728   16.8360   24.4381 N   0  0  0  0  0  0  0  0  0  0  0  0
   59.6174   17.8789   24.0450 N   0  0  0  0  0  0  0  0  0  0  0  0
   60.7992   18.4053   24.5301 C   0  0  0  0  0  0  0  0  0  0  0  0
  2  1  1  6
  3  2  1  1
  2  6  1  0
  3  4  1  0
  4  5  1  0
  4 12  1  6
  5  6  1  6
  6  7  1  1
  7  8  1  6
  8  9  1  0
  9 10  1  6
 10 11  3  0
 12 13  1  6
 13 14  1  0
 13 16  2  0
 14 15  2  0
 14 18  1  0
 15 22  1  0
 16 17  1  0
 17 18  1  0
 18 19  2  0
 19 20  1  0
 19 21  1  0
 21 22  2  0
M  CHG  1   4   1
M  END
$$$$
