
     RDKit          3D

 22 24  0  0  0  0  0  0  0  0999 V2000
   62.0622   15.0488   31.9601 O   0  0  0  0  0  0  0  0  0  0  0  0
   61.7498   16.3294   31.4983 C   0  0  1  0  0  0  0  0  0  0  0  0
   62.6331   16.6754   30.2940 C   0  0  0  0  0  0  0  0  0  0  0  0
   61.8000   16.6617   29.1407 N   0  0  1  0  0  4  0  0  0  0  0  0
   60.4736   17.0999   29.6262 C   0  0  0  0  0  0  0  0  0  0  0  0
   60.3747   16.4130   30.9775 C   0  0  2  0  0  0  0  0  0  0  0  0
   59.4405   17.1940   31.8413 C   0  0  0  0  0  0  0  0  0  0  0  0
   58.0510   16.3650   32.5343 S   0  0  0  0  0  0  0  0  0  0  0  0
   58.3647   15.1222   33.7463 C   0  0  0  0  0  0  0  0  0  0  0  0
   58.4647   13.7848   33.1360 C   0  0  0  0  0  0  0  0  0  0  0  0
   58.5472   12.7024   32.6375 C   0  0  0  0  0  0  0  0  0  0  0  0
   62.1702   17.5205   28.0672 C   0  0  0  0  0  0  0  0  0  0  0  0
   61.0437   18.0907   27.3273 C   0  0  0  0  0  0  0  0  0  0  0  0
   60.3138   17.5304   26.3062 C   0  0  0  0  0  0  0  0  0  0  0  0
   60.3681   16.3522   25.6623 N   0  0  0  0  0  0  0  0  0  0  0  0
   60.4953   19.3320   27.5371 C   0  0  0  0  0  0  0  0  0  0  0  0
   59.4787   19.5093   26.6775 N   0  0  0  0  0  0  0  0  0  0  0  0
   59.3253   18.4289   25.8965 C   0  0  0  0  0  0  0  0  0  0  0  0
   58.4363   18.1419   24.8818 C   0  0  0  0  0  0  0  0  0  0  0  0
   57.4309   19.0213   24.4444 N   0  0  0  0  0  0  0  0  0  0  0  0
   58.5650   16.9418   24.2958 N   0  0  0  0  0  0  0  0  0  0  0  0
   59.5036   16.0636   24.6698 C   0  0  0  0  0  0  0  0  0  0  0  0
  2  1  1  6
  2  3  1  0
  2  6  1  0
  3  4  1  0
  4  5  1  0
  4 12  1  6
  5  6  1  0
  6  7  1  1
  7  8  1  0
  8  9  1  0
  9 10  1  0
 10 11  3  0
 12 13  1  0
 13 14  1  0
 13 16  2  0
 14 15  2  0
 14 18  1  0
 15 22  1  0
 16 17  1  0
 17 18  1  0
 18 19  2  0
 19 20  1  0
 19 21  1  0
 21 22  2  0
M  CHG  1   4   1
M  END
$$$$
