
     RDKit          3D

 22 24  0  0  0  0  0  0  0  0999 V2000
   47.4310   44.2482   32.6210 O   0  0  0  0  0  0  0  0  0  0  0  0
   46.9010   45.0442   31.6031 C   0  0  1  0  0  0  0  0  0  0  0  0
   46.7598   44.2175   30.3197 C   0  0  0  0  0  0  0  0  0  0  0  0
   45.3700   43.9972   30.1094 N   0  0  1  0  0  4  0  0  0  0  0  0
   44.7084   45.2011   30.6572 C   0  0  0  0  0  0  0  0  0  0  0  0
   45.5296   45.4898   31.9022 C   0  0  2  0  0  0  0  0  0  0  0  0
   45.4153   46.9438   32.2211 C   0  0  0  0  0  0  0  0  0  0  0  0
   45.0005   48.0555   30.9211 S   0  0  0  0  0  0  0  0  0  0  0  0
   43.7750   49.2795   31.2554 C   0  0  0  0  0  0  0  0  0  0  0  0
   42.9538   48.9173   32.4240 C   0  0  0  0  0  0  0  0  0  0  0  0
   42.2847   48.6259   33.3697 C   0  0  0  0  0  0  0  0  0  0  0  0
   44.9376   43.8446   28.7615 C   0  0  0  0  0  0  0  0  0  0  0  0
   45.5153   44.8083   27.8239 C   0  0  0  0  0  0  0  0  0  0  0  0
   46.7937   44.8587   27.3215 C   0  0  0  0  0  0  0  0  0  0  0  0
   47.8926   44.1058   27.4984 N   0  0  0  0  0  0  0  0  0  0  0  0
   44.8521   45.8686   27.2569 C   0  0  0  0  0  0  0  0  0  0  0  0
   45.6975   46.5280   26.4479 N   0  0  0  0  0  0  0  0  0  0  0  0
   46.9070   45.9466   26.4522 C   0  0  0  0  0  0  0  0  0  0  0  0
   48.0807   46.2528   25.7958 C   0  0  0  0  0  0  0  0  0  0  0  0
   48.2300   47.3384   24.9156 N   0  0  0  0  0  0  0  0  0  0  0  0
   49.1264   45.4462   26.0330 N   0  0  0  0  0  0  0  0  0  0  0  0
   49.0435   44.3977   26.8613 C   0  0  0  0  0  0  0  0  0  0  0  0
  2  1  1  1
  2  3  1  0
  2  6  1  0
  3  4  1  0
  4  5  1  0
  4 12  1  6
  5  6  1  0
  6  7  1  6
  7  8  1  0
  8  9  1  0
  9 10  1  0
 10 11  3  0
 12 13  1  0
 13 14  1  0
 13 16  2  0
 14 15  2  0
 14 18  1  0
 15 22  1  0
 16 17  1  0
 17 18  1  0
 18 19  2  0
 19 20  1  0
 19 21  1  0
 21 22  2  0
M  CHG  1   4   1
M  END
$$$$
