
     RDKit          3D

 22 24  0  0  0  0  0  0  0  0999 V2000
   63.2546   15.0129   31.2334 O   0  0  0  0  0  0  0  0  0  0  0  0
   62.2713   16.0033   31.2867 C   0  0  1  0  0  0  0  0  0  0  0  0
   62.7274   17.2295   30.4872 C   0  0  0  0  0  0  0  0  0  0  0  0
   61.9319   17.2859   29.3090 N   0  0  1  0  0  4  0  0  0  0  0  0
   60.6235   16.7239   29.7079 C   0  0  0  0  0  0  0  0  0  0  0  0
   61.0224   15.5835   30.6287 C   0  0  2  0  0  0  0  0  0  0  0  0
   59.8954   15.3158   31.5707 C   0  0  0  0  0  0  0  0  0  0  0  0
   60.0875   14.0349   32.7626 S   0  0  0  0  0  0  0  0  0  0  0  0
   58.6547   13.0996   33.1917 C   0  0  0  0  0  0  0  0  0  0  0  0
   57.5236   13.9750   33.5458 C   0  0  0  0  0  0  0  0  0  0  0  0
   56.6077   14.6844   33.8371 C   0  0  0  0  0  0  0  0  0  0  0  0
   61.6947   18.5744   28.7518 C   0  0  0  0  0  0  0  0  0  0  0  0
   60.5318   18.6503   27.8666 C   0  0  0  0  0  0  0  0  0  0  0  0
   60.3670   18.1063   26.6152 C   0  0  0  0  0  0  0  0  0  0  0  0
   61.1524   17.3709   25.8101 N   0  0  0  0  0  0  0  0  0  0  0  0
   59.3548   19.2998   28.1465 C   0  0  0  0  0  0  0  0  0  0  0  0
   58.5184   19.1519   27.1061 N   0  0  0  0  0  0  0  0  0  0  0  0
   59.0937   18.4248   26.1359 C   0  0  0  0  0  0  0  0  0  0  0  0
   58.6427   18.0150   24.8986 C   0  0  0  0  0  0  0  0  0  0  0  0
   57.3696   18.3171   24.3855 N   0  0  0  0  0  0  0  0  0  0  0  0
   59.4950   17.2847   24.1634 N   0  0  0  0  0  0  0  0  0  0  0  0
   60.7199   16.9663   24.5998 C   0  0  0  0  0  0  0  0  0  0  0  0
  2  1  1  6
  2  3  1  0
  2  6  1  0
  3  4  1  0
  4  5  1  0
  4 12  1  1
  5  6  1  0
  6  7  1  1
  7  8  1  0
  8  9  1  0
  9 10  1  0
 10 11  3  0
 12 13  1  0
 13 14  1  0
 13 16  2  0
 14 15  2  0
 14 18  1  0
 15 22  1  0
 16 17  1  0
 17 18  1  0
 18 19  2  0
 19 20  1  0
 19 21  1  0
 21 22  2  0
M  CHG  1   4   1
M  END
$$$$
