
     RDKit          3D

 22 24  0  0  0  0  0  0  0  0999 V2000
   61.2905   17.6577   32.8751 O   0  0  0  0  0  0  0  0  0  0  0  0
   60.7446   17.6326   31.5898 C   0  0  1  0  0  0  0  0  0  0  0  0
   61.7842   18.1244   30.5760 C   0  0  0  0  0  0  0  0  0  0  0  0
   62.2019   16.9955   29.8174 N   0  0  1  0  0  4  0  0  0  0  0  0
   61.0122   16.1194   29.7553 C   0  0  0  0  0  0  0  0  0  0  0  0
   60.4236   16.2648   31.1482 C   0  0  2  0  0  0  0  0  0  0  0  0
   58.9613   15.9719   31.0801 C   0  0  0  0  0  0  0  0  0  0  0  0
   58.4006   14.3860   31.5985 S   0  0  0  0  0  0  0  0  0  0  0  0
   59.2935   13.5896   32.8948 C   0  0  0  0  0  0  0  0  0  0  0  0
   59.0738   14.2552   34.1909 C   0  0  0  0  0  0  0  0  0  0  0  0
   58.8983   14.7981   35.2403 C   0  0  0  0  0  0  0  0  0  0  0  0
   62.6275   17.2381   28.4806 C   0  0  0  0  0  0  0  0  0  0  0  0
   61.5613   17.1715   27.4805 C   0  0  0  0  0  0  0  0  0  0  0  0
   60.7300   18.1744   27.0418 C   0  0  0  0  0  0  0  0  0  0  0  0
   60.5995   19.4756   27.3507 N   0  0  0  0  0  0  0  0  0  0  0  0
   61.1954   16.0516   26.7751 C   0  0  0  0  0  0  0  0  0  0  0  0
   60.1863   16.3693   25.9475 N   0  0  0  0  0  0  0  0  0  0  0  0
   59.8614   17.6653   26.0731 C   0  0  0  0  0  0  0  0  0  0  0  0
   58.9074   18.4424   25.4500 C   0  0  0  0  0  0  0  0  0  0  0  0
   58.0181   17.9635   24.4726 N   0  0  0  0  0  0  0  0  0  0  0  0
   58.8495   19.7303   25.8215 N   0  0  0  0  0  0  0  0  0  0  0  0
   59.6702   20.2421   26.7470 C   0  0  0  0  0  0  0  0  0  0  0  0
  2  1  1  1
  2  3  1  0
  2  6  1  0
  3  4  1  0
  4  5  1  0
  4 12  1  6
  5  6  1  0
  6  7  1  6
  7  8  1  0
  8  9  1  0
  9 10  1  0
 10 11  3  0
 12 13  1  0
 13 14  1  0
 13 16  2  0
 14 15  2  0
 14 18  1  0
 15 22  1  0
 16 17  1  0
 17 18  1  0
 18 19  2  0
 19 20  1  0
 19 21  1  0
 21 22  2  0
M  CHG  1   4   1
M  END
$$$$
