
     RDKit          3D

 22 24  0  0  0  0  0  0  0  0999 V2000
   46.1480   43.6280   32.3959 O   0  0  0  0  0  0  0  0  0  0  0  0
   46.4051   44.8164   31.7529 C   0  0  1  0  0  0  0  0  0  0  0  0
   46.5221   44.4751   30.2797 C   0  0  0  0  0  0  0  0  0  0  0  0
   45.0756   44.1079   30.0227 N   0  0  1  0  0  4  0  0  0  0  0  0
   44.5051   45.3828   30.3975 C   0  0  0  0  0  0  0  0  0  0  0  0
   45.1659   45.7309   31.6990 C   0  0  2  0  0  0  0  0  0  0  0  0
   45.5295   47.1795   31.8160 C   0  0  0  0  0  0  0  0  0  0  0  0
   44.1620   48.2136   31.1611 S   0  0  0  0  0  0  0  0  0  0  0  0
   43.6574   49.4353   32.4636 C   0  0  0  0  0  0  0  0  0  0  0  0
   44.5603   49.2535   33.5682 C   0  0  0  0  0  0  0  0  0  0  0  0
   45.3972   49.1004   34.6009 C   0  0  0  0  0  0  0  0  0  0  0  0
   45.0295   43.7332   28.6616 C   0  0  0  0  0  0  0  0  0  0  0  0
   45.5012   44.7027   27.6747 C   0  0  0  0  0  0  0  0  0  0  0  0
   46.8260   44.7959   27.2351 C   0  0  0  0  0  0  0  0  0  0  0  0
   47.9518   44.1064   27.4858 N   0  0  0  0  0  0  0  0  0  0  0  0
   44.8293   45.7015   27.0987 C   0  0  0  0  0  0  0  0  0  0  0  0
   45.6562   46.4492   26.3022 N   0  0  0  0  0  0  0  0  0  0  0  0
   46.9051   45.8714   26.3856 C   0  0  0  0  0  0  0  0  0  0  0  0
   48.1100   46.2337   25.8127 C   0  0  0  0  0  0  0  0  0  0  0  0
   48.1333   47.3495   24.9072 N   0  0  0  0  0  0  0  0  0  0  0  0
   49.2236   45.5349   26.0734 N   0  0  0  0  0  0  0  0  0  0  0  0
   49.1586   44.4494   26.9257 C   0  0  0  0  0  0  0  0  0  0  0  0
  2  1  1  1
  3  2  1  1
  2  6  1  0
  3  4  1  0
  4  5  1  0
  4 12  1  6
  5  6  1  6
  6  7  1  6
  7  8  1  6
  8  9  1  0
  9 10  1  6
 10 11  3  0
 12 13  1  6
 13 14  1  0
 13 16  2  0
 14 15  2  0
 14 18  1  0
 15 22  1  0
 16 17  1  0
 17 18  1  0
 18 19  2  0
 19 20  1  0
 19 21  1  0
 21 22  2  0
M  CHG  1   4   1
M  END
$$$$
