
     RDKit          3D

 22 24  0  0  0  0  0  0  0  0999 V2000
   62.3957   17.3855   32.3613 O   0  0  0  0  0  0  0  0  0  0  0  0
   61.1758   17.5136   31.7389 C   0  0  1  0  0  0  0  0  0  0  0  0
   61.4719   18.0439   30.3492 C   0  0  0  0  0  0  0  0  0  0  0  0
   62.1574   16.8165   29.7860 N   0  0  1  0  0  4  0  0  0  0  0  0
   61.0485   15.9048   29.9603 C   0  0  0  0  0  0  0  0  0  0  0  0
   60.5675   16.1492   31.3605 C   0  0  2  0  0  0  0  0  0  0  0  0
   59.0749   16.1429   31.4893 C   0  0  0  0  0  0  0  0  0  0  0  0
   58.4135   14.5280   30.9211 S   0  0  0  0  0  0  0  0  0  0  0  0
   58.8300   13.2322   32.1826 C   0  0  0  0  0  0  0  0  0  0  0  0
   58.3764   13.7345   33.4515 C   0  0  0  0  0  0  0  0  0  0  0  0
   57.9413   14.1909   34.6317 C   0  0  0  0  0  0  0  0  0  0  0  0
   62.5239   17.1739   28.4695 C   0  0  0  0  0  0  0  0  0  0  0  0
   61.5239   17.0040   27.4171 C   0  0  0  0  0  0  0  0  0  0  0  0
   60.6844   18.0246   26.9582 C   0  0  0  0  0  0  0  0  0  0  0  0
   60.5501   19.3315   27.2406 N   0  0  0  0  0  0  0  0  0  0  0  0
   61.1587   15.8867   26.7853 C   0  0  0  0  0  0  0  0  0  0  0  0
   60.1132   16.1284   25.9333 N   0  0  0  0  0  0  0  0  0  0  0  0
   59.8258   17.4725   26.0402 C   0  0  0  0  0  0  0  0  0  0  0  0
   58.8503   18.2405   25.4322 C   0  0  0  0  0  0  0  0  0  0  0  0
   57.9959   17.6213   24.4565 N   0  0  0  0  0  0  0  0  0  0  0  0
   58.7301   19.5429   25.7254 N   0  0  0  0  0  0  0  0  0  0  0  0
   59.5881   20.1122   26.6466 C   0  0  0  0  0  0  0  0  0  0  0  0
  2  1  1  1
  3  2  1  1
  2  6  1  0
  3  4  1  0
  4  5  1  0
  4 12  1  6
  5  6  1  6
  6  7  1  6
  7  8  1  6
  8  9  1  0
  9 10  1  6
 10 11  3  0
 12 13  1  6
 13 14  1  0
 13 16  2  0
 14 15  2  0
 14 18  1  0
 15 22  1  0
 16 17  1  0
 17 18  1  0
 18 19  2  0
 19 20  1  0
 19 21  1  0
 21 22  2  0
M  CHG  1   4   1
M  END
$$$$
