
     RDKit          3D

 22 24  0  0  0  0  0  0  0  0999 V2000
   61.8857   17.2444   32.8853 O   0  0  0  0  0  0  0  0  0  0  0  0
   61.2081   17.1440   31.6682 C   0  0  1  0  0  0  0  0  0  0  0  0
   61.8931   18.0283   30.6196 C   0  0  0  0  0  0  0  0  0  0  0  0
   62.5399   17.1628   29.6940 N   0  0  1  0  0  4  0  0  0  0  0  0
   61.6906   15.9529   29.6494 C   0  0  0  0  0  0  0  0  0  0  0  0
   61.2792   15.7862   31.1021 C   0  0  2  0  0  0  0  0  0  0  0  0
   59.9889   15.0365   31.1485 C   0  0  0  0  0  0  0  0  0  0  0  0
   58.5353   15.8355   30.5595 S   0  0  0  0  0  0  0  0  0  0  0  0
   57.3847   16.4228   31.7608 C   0  0  0  0  0  0  0  0  0  0  0  0
   57.6202   15.8100   33.0799 C   0  0  0  0  0  0  0  0  0  0  0  0
   57.8110   15.3093   34.1475 C   0  0  0  0  0  0  0  0  0  0  0  0
   62.6833   17.6370   28.3592 C   0  0  0  0  0  0  0  0  0  0  0  0
   61.5428   17.3547   27.4869 C   0  0  0  0  0  0  0  0  0  0  0  0
   60.4716   18.1611   27.1842 C   0  0  0  0  0  0  0  0  0  0  0  0
   60.1070   19.4005   27.5539 N   0  0  0  0  0  0  0  0  0  0  0  0
   61.3397   16.1907   26.7874 C   0  0  0  0  0  0  0  0  0  0  0  0
   60.1941   16.2941   26.0939 N   0  0  0  0  0  0  0  0  0  0  0  0
   59.6200   17.4888   26.3038 C   0  0  0  0  0  0  0  0  0  0  0  0
   58.4553   18.0504   25.8240 C   0  0  0  0  0  0  0  0  0  0  0  0
   57.5763   17.4033   24.9385 N   0  0  0  0  0  0  0  0  0  0  0  0
   58.1716   19.2917   26.2470 N   0  0  0  0  0  0  0  0  0  0  0  0
   58.9708   19.9569   27.0901 C   0  0  0  0  0  0  0  0  0  0  0  0
  2  1  1  1
  2  3  1  0
  2  6  1  0
  3  4  1  0
  4  5  1  0
  4 12  1  6
  5  6  1  0
  6  7  1  6
  7  8  1  0
  8  9  1  0
  9 10  1  0
 10 11  3  0
 12 13  1  0
 13 14  1  0
 13 16  2  0
 14 15  2  0
 14 18  1  0
 15 22  1  0
 16 17  1  0
 17 18  1  0
 18 19  2  0
 19 20  1  0
 19 21  1  0
 21 22  2  0
M  CHG  1   4   1
M  END
$$$$
