
     RDKit          3D

 22 24  0  0  0  0  0  0  0  0999 V2000
   63.1696   17.8824   32.1071 O   0  0  0  0  0  0  0  0  0  0  0  0
   62.0725   17.0542   32.0585 C   0  0  1  0  0  0  0  0  0  0  0  0
   60.9299   17.9078   31.5425 C   0  0  0  0  0  0  0  0  0  0  0  0
   61.4268   18.1090   30.1262 N   0  0  1  0  0  4  0  0  0  0  0  0
   61.4707   16.7109   29.7590 C   0  0  0  0  0  0  0  0  0  0  0  0
   62.1614   16.0344   30.9066 C   0  0  2  0  0  0  0  0  0  0  0  0
   61.5556   14.7147   31.2747 C   0  0  0  0  0  0  0  0  0  0  0  0
   60.0786   14.4013   30.2313 S   0  0  0  0  0  0  0  0  0  0  0  0
   59.1187   12.9898   30.9592 C   0  0  0  0  0  0  0  0  0  0  0  0
   59.0275   13.2415   32.3722 C   0  0  0  0  0  0  0  0  0  0  0  0
   58.9299   13.4642   33.6880 C   0  0  0  0  0  0  0  0  0  0  0  0
   60.4547   18.9281   29.5103 C   0  0  0  0  0  0  0  0  0  0  0  0
   59.5976   18.3178   28.4957 C   0  0  0  0  0  0  0  0  0  0  0  0
   59.7991   18.4437   27.1171 C   0  0  0  0  0  0  0  0  0  0  0  0
   60.7318   19.0360   26.3522 N   0  0  0  0  0  0  0  0  0  0  0  0
   58.4603   17.6398   28.6620 C   0  0  0  0  0  0  0  0  0  0  0  0
   57.9039   17.3176   27.4521 N   0  0  0  0  0  0  0  0  0  0  0  0
   58.7523   17.8174   26.4873 C   0  0  0  0  0  0  0  0  0  0  0  0
   58.6619   17.8045   25.1078 C   0  0  0  0  0  0  0  0  0  0  0  0
   57.5620   17.1097   24.4971 N   0  0  0  0  0  0  0  0  0  0  0  0
   59.6011   18.4001   24.3598 N   0  0  0  0  0  0  0  0  0  0  0  0
   60.6608   19.0333   24.9802 C   0  0  0  0  0  0  0  0  0  0  0  0
  2  1  1  6
  3  2  1  1
  2  6  1  0
  3  4  1  0
  4  5  1  0
  4 12  1  6
  5  6  1  6
  6  7  1  1
  7  8  1  6
  8  9  1  0
  9 10  1  6
 10 11  3  0
 12 13  1  6
 13 14  1  0
 13 16  2  0
 14 15  2  0
 14 18  1  0
 15 22  1  0
 16 17  1  0
 17 18  1  0
 18 19  2  0
 19 20  1  0
 19 21  1  0
 21 22  2  0
M  CHG  1   4   1
M  END
$$$$
