
     RDKit          3D

 22 24  0  0  0  0  0  0  0  0999 V2000
   61.9564   16.7882   33.0467 O   0  0  0  0  0  0  0  0  0  0  0  0
   60.9601   16.9967   32.0904 C   0  0  1  0  0  0  0  0  0  0  0  0
   61.3595   18.1566   31.1708 C   0  0  0  0  0  0  0  0  0  0  0  0
   61.6822   17.5988   29.9024 N   0  0  1  0  0  4  0  0  0  0  0  0
   60.8039   16.4159   29.7741 C   0  0  0  0  0  0  0  0  0  0  0  0
   60.8110   15.8467   31.1825 C   0  0  2  0  0  0  0  0  0  0  0  0
   59.5551   15.0657   31.3867 C   0  0  0  0  0  0  0  0  0  0  0  0
   59.4626   13.4402   30.7177 S   0  0  0  0  0  0  0  0  0  0  0  0
   59.7465   12.0895   31.8162 C   0  0  0  0  0  0  0  0  0  0  0  0
   58.9616   12.2264   33.0557 C   0  0  0  0  0  0  0  0  0  0  0  0
   58.3253   12.3418   34.0600 C   0  0  0  0  0  0  0  0  0  0  0  0
   61.4645   18.4219   28.7613 C   0  0  0  0  0  0  0  0  0  0  0  0
   60.2057   18.1688   28.0592 C   0  0  0  0  0  0  0  0  0  0  0  0
   59.9745   18.1018   26.7059 C   0  0  0  0  0  0  0  0  0  0  0  0
   60.7557   18.2393   25.6212 N   0  0  0  0  0  0  0  0  0  0  0  0
   58.9898   17.9400   28.6547 C   0  0  0  0  0  0  0  0  0  0  0  0
   58.0671   17.7440   27.6986 N   0  0  0  0  0  0  0  0  0  0  0  0
   58.6220   17.8336   26.4800 C   0  0  0  0  0  0  0  0  0  0  0  0
   58.0913   17.7116   25.2128 C   0  0  0  0  0  0  0  0  0  0  0  0
   56.7372   17.4428   24.9493 N   0  0  0  0  0  0  0  0  0  0  0  0
   58.9457   17.8644   24.1896 N   0  0  0  0  0  0  0  0  0  0  0  0
   60.2456   18.1218   24.3796 C   0  0  0  0  0  0  0  0  0  0  0  0
  2  1  1  1
  2  3  1  0
  2  6  1  0
  3  4  1  0
  4  5  1  0
  4 12  1  6
  5  6  1  0
  6  7  1  1
  7  8  1  0
  8  9  1  0
  9 10  1  0
 10 11  3  0
 12 13  1  0
 13 14  1  0
 13 16  2  0
 14 15  2  0
 14 18  1  0
 15 22  1  0
 16 17  1  0
 17 18  1  0
 18 19  2  0
 19 20  1  0
 19 21  1  0
 21 22  2  0
M  CHG  1   4   1
M  END
$$$$
