
     RDKit          3D

 22 24  0  0  0  0  0  0  0  0999 V2000
   62.0714   18.0568   32.0335 O   0  0  0  0  0  0  0  0  0  0  0  0
   61.2270   17.8377   30.9428 C   0  0  1  0  0  0  0  0  0  0  0  0
   62.0615   17.6652   29.6682 C   0  0  0  0  0  0  0  0  0  0  0  0
   61.9827   16.2949   29.2936 N   0  0  1  0  0  4  0  0  0  0  0  0
   60.6395   15.8587   29.7323 C   0  0  0  0  0  0  0  0  0  0  0  0
   60.4795   16.5745   31.0627 C   0  0  2  0  0  0  0  0  0  0  0  0
   59.0225   16.7501   31.3365 C   0  0  0  0  0  0  0  0  0  0  0  0
   58.1867   15.5006   32.2523 S   0  0  0  0  0  0  0  0  0  0  0  0
   59.1104   14.6355   33.4812 C   0  0  0  0  0  0  0  0  0  0  0  0
   58.8860   15.2003   34.8235 C   0  0  0  0  0  0  0  0  0  0  0  0
   58.7085   15.6590   35.9121 C   0  0  0  0  0  0  0  0  0  0  0  0
   62.0995   15.9976   27.9062 C   0  0  0  0  0  0  0  0  0  0  0  0
   61.3620   16.9038   27.0251 C   0  0  0  0  0  0  0  0  0  0  0  0
   60.0200   16.9107   26.7276 C   0  0  0  0  0  0  0  0  0  0  0  0
   58.9806   16.1458   27.1023 N   0  0  0  0  0  0  0  0  0  0  0  0
   61.9036   17.9492   26.3186 C   0  0  0  0  0  0  0  0  0  0  0  0
   60.9273   18.5582   25.6258 N   0  0  0  0  0  0  0  0  0  0  0  0
   59.7473   17.9570   25.8427 C   0  0  0  0  0  0  0  0  0  0  0  0
   58.4795   18.2117   25.3631 C   0  0  0  0  0  0  0  0  0  0  0  0
   58.1698   19.2542   24.4727 N   0  0  0  0  0  0  0  0  0  0  0  0
   57.5034   17.3967   25.7911 N   0  0  0  0  0  0  0  0  0  0  0  0
   57.7388   16.3874   26.6386 C   0  0  0  0  0  0  0  0  0  0  0  0
  2  1  1  1
  2  3  1  0
  2  6  1  0
  3  4  1  0
  4  5  1  0
  4 12  1  6
  5  6  1  0
  6  7  1  6
  7  8  1  0
  8  9  1  0
  9 10  1  0
 10 11  3  0
 12 13  1  0
 13 14  1  0
 13 16  2  0
 14 15  2  0
 14 18  1  0
 15 22  1  0
 16 17  1  0
 17 18  1  0
 18 19  2  0
 19 20  1  0
 19 21  1  0
 21 22  2  0
M  CHG  1   4   1
M  END
$$$$
