
     RDKit          3D

 22 24  0  0  0  0  0  0  0  0999 V2000
   44.9338   42.8759   31.8283 O   0  0  0  0  0  0  0  0  0  0  0  0
   44.9923   44.1947   31.3722 C   0  0  1  0  0  0  0  0  0  0  0  0
   46.4543   44.6478   31.2838 C   0  0  0  0  0  0  0  0  0  0  0  0
   46.7845   44.7436   29.9032 N   0  0  1  0  0  4  0  0  0  0  0  0
   45.5240   45.1392   29.2387 C   0  0  0  0  0  0  0  0  0  0  0  0
   44.4849   44.3306   29.9964 C   0  0  2  0  0  0  0  0  0  0  0  0
   43.1704   45.0315   29.8961 C   0  0  0  0  0  0  0  0  0  0  0  0
   43.1177   46.6013   29.1017 S   0  0  0  0  0  0  0  0  0  0  0  0
   42.3136   47.9195   29.9546 C   0  0  0  0  0  0  0  0  0  0  0  0
   42.8399   48.0798   31.3215 C   0  0  0  0  0  0  0  0  0  0  0  0
   43.2634   48.2071   32.4312 C   0  0  0  0  0  0  0  0  0  0  0  0
   47.7785   45.6968   29.5422 C   0  0  0  0  0  0  0  0  0  0  0  0
   48.1913   45.6445   28.1392 C   0  0  0  0  0  0  0  0  0  0  0  0
   47.5996   46.2320   27.0465 C   0  0  0  0  0  0  0  0  0  0  0  0
   46.5106   47.0016   26.8803 N   0  0  0  0  0  0  0  0  0  0  0  0
   49.2881   44.9769   27.6526 C   0  0  0  0  0  0  0  0  0  0  0  0
   49.3520   45.1563   26.3230 N   0  0  0  0  0  0  0  0  0  0  0  0
   48.3346   45.9219   25.8993 C   0  0  0  0  0  0  0  0  0  0  0  0
   47.9784   46.3729   24.6455 C   0  0  0  0  0  0  0  0  0  0  0  0
   48.6938   46.0803   23.4716 N   0  0  0  0  0  0  0  0  0  0  0  0
   46.8766   47.1352   24.5750 N   0  0  0  0  0  0  0  0  0  0  0  0
   46.1553   47.4464   25.6590 C   0  0  0  0  0  0  0  0  0  0  0  0
  2  1  1  6
  2  3  1  0
  2  6  1  0
  3  4  1  0
  4  5  1  0
  4 12  1  1
  5  6  1  0
  6  7  1  1
  7  8  1  0
  8  9  1  0
  9 10  1  0
 10 11  3  0
 12 13  1  0
 13 14  1  0
 13 16  2  0
 14 15  2  0
 14 18  1  0
 15 22  1  0
 16 17  1  0
 17 18  1  0
 18 19  2  0
 19 20  1  0
 19 21  1  0
 21 22  2  0
M  CHG  1   4   1
M  END
$$$$
