
     RDKit          3D

 22 24  0  0  0  0  0  0  0  0999 V2000
   46.9582   43.0849   31.2611 O   0  0  0  0  0  0  0  0  0  0  0  0
   46.9140   44.2969   30.5685 C   0  0  1  0  0  0  0  0  0  0  0  0
   46.0910   44.1304   29.2857 C   0  0  0  0  0  0  0  0  0  0  0  0
   44.8681   44.8329   29.4737 N   0  0  1  0  0  4  0  0  0  0  0  0
   45.2153   45.9689   30.3546 C   0  0  0  0  0  0  0  0  0  0  0  0
   46.2044   45.3436   31.3233 C   0  0  2  0  0  0  0  0  0  0  0  0
   47.0912   46.4188   31.8585 C   0  0  0  0  0  0  0  0  0  0  0  0
   46.4739   47.4494   33.1449 S   0  0  0  0  0  0  0  0  0  0  0  0
   46.5269   46.8179   34.7912 C   0  0  0  0  0  0  0  0  0  0  0  0
   45.3005   46.0719   35.1239 C   0  0  0  0  0  0  0  0  0  0  0  0
   44.3083   45.4654   35.3971 C   0  0  0  0  0  0  0  0  0  0  0  0
   44.2448   45.3660   28.3100 C   0  0  0  0  0  0  0  0  0  0  0  0
   45.1379   45.5320   27.1626 C   0  0  0  0  0  0  0  0  0  0  0  0
   46.4902   45.2986   27.0849 C   0  0  0  0  0  0  0  0  0  0  0  0
   47.4124   44.8732   27.9649 N   0  0  0  0  0  0  0  0  0  0  0  0
   44.7635   45.9618   25.9134 C   0  0  0  0  0  0  0  0  0  0  0  0
   45.8463   45.9856   25.1190 N   0  0  0  0  0  0  0  0  0  0  0  0
   46.9362   45.5863   25.7924 C   0  0  0  0  0  0  0  0  0  0  0  0
   48.2555   45.4477   25.4147 C   0  0  0  0  0  0  0  0  0  0  0  0
   48.7382   45.7280   24.1249 N   0  0  0  0  0  0  0  0  0  0  0  0
   49.1057   45.0173   26.3592 N   0  0  0  0  0  0  0  0  0  0  0  0
   48.7034   44.7351   27.6045 C   0  0  0  0  0  0  0  0  0  0  0  0
  2  1  1  1
  2  3  1  0
  2  6  1  0
  3  4  1  0
  4  5  1  0
  4 12  1  6
  5  6  1  0
  6  7  1  6
  7  8  1  0
  8  9  1  0
  9 10  1  0
 10 11  3  0
 12 13  1  0
 13 14  1  0
 13 16  2  0
 14 15  2  0
 14 18  1  0
 15 22  1  0
 16 17  1  0
 17 18  1  0
 18 19  2  0
 19 20  1  0
 19 21  1  0
 21 22  2  0
M  CHG  1   4   1
M  END
$$$$
