
     RDKit          3D

 22 24  0  0  0  0  0  0  0  0999 V2000
   61.2486   18.0748   32.5474 O   0  0  0  0  0  0  0  0  0  0  0  0
   60.6552   17.8123   31.3106 C   0  0  1  0  0  0  0  0  0  0  0  0
   61.5900   18.2624   30.1818 C   0  0  0  0  0  0  0  0  0  0  0  0
   62.0984   17.0878   29.5602 N   0  0  1  0  0  4  0  0  0  0  0  0
   61.0120   16.0923   29.6853 C   0  0  0  0  0  0  0  0  0  0  0  0
   60.4701   16.3700   31.0771 C   0  0  2  0  0  0  0  0  0  0  0  0
   59.0479   15.9194   31.1329 C   0  0  0  0  0  0  0  0  0  0  0  0
   58.7213   14.2138   31.4200 S   0  0  0  0  0  0  0  0  0  0  0  0
   58.0405   13.7666   32.9847 C   0  0  0  0  0  0  0  0  0  0  0  0
   57.9070   14.9365   33.8705 C   0  0  0  0  0  0  0  0  0  0  0  0
   57.7951   15.8861   34.5865 C   0  0  0  0  0  0  0  0  0  0  0  0
   62.4376   17.1831   28.1808 C   0  0  0  0  0  0  0  0  0  0  0  0
   61.3012   17.0743   27.2653 C   0  0  0  0  0  0  0  0  0  0  0  0
   60.3895   18.0389   26.9080 C   0  0  0  0  0  0  0  0  0  0  0  0
   60.2192   19.3282   27.2464 N   0  0  0  0  0  0  0  0  0  0  0  0
   60.9373   15.9457   26.5729 C   0  0  0  0  0  0  0  0  0  0  0  0
   59.8522   16.2216   25.8309 N   0  0  0  0  0  0  0  0  0  0  0  0
   59.4742   17.4979   26.0015 C   0  0  0  0  0  0  0  0  0  0  0  0
   58.4371   18.2329   25.4664 C   0  0  0  0  0  0  0  0  0  0  0  0
   57.4991   17.7212   24.5534 N   0  0  0  0  0  0  0  0  0  0  0  0
   58.3446   19.5119   25.8614 N   0  0  0  0  0  0  0  0  0  0  0  0
   59.2087   20.0537   26.7285 C   0  0  0  0  0  0  0  0  0  0  0  0
  2  1  1  1
  2  3  1  0
  2  6  1  0
  3  4  1  0
  4  5  1  0
  4 12  1  6
  5  6  1  0
  6  7  1  6
  7  8  1  0
  8  9  1  0
  9 10  1  0
 10 11  3  0
 12 13  1  0
 13 14  1  0
 13 16  2  0
 14 15  2  0
 14 18  1  0
 15 22  1  0
 16 17  1  0
 17 18  1  0
 18 19  2  0
 19 20  1  0
 19 21  1  0
 21 22  2  0
M  CHG  1   4   1
M  END
$$$$
