
     RDKit          3D

 22 24  0  0  0  0  0  0  0  0999 V2000
   61.9389   17.8707   32.4885 O   0  0  0  0  0  0  0  0  0  0  0  0
   61.1249   17.6516   31.3749 C   0  0  1  0  0  0  0  0  0  0  0  0
   61.9313   17.8801   30.0911 C   0  0  0  0  0  0  0  0  0  0  0  0
   62.1416   16.6071   29.4917 N   0  0  1  0  0  4  0  0  0  0  0  0
   60.9431   15.8176   29.8484 C   0  0  0  0  0  0  0  0  0  0  0  0
   60.6773   16.2518   31.2797 C   0  0  2  0  0  0  0  0  0  0  0  0
   59.2278   16.0521   31.5763 C   0  0  0  0  0  0  0  0  0  0  0  0
   58.4083   14.6721   30.8538 S   0  0  0  0  0  0  0  0  0  0  0  0
   57.9987   13.3218   31.9124 C   0  0  0  0  0  0  0  0  0  0  0  0
   59.0282   13.1131   32.9456 C   0  0  0  0  0  0  0  0  0  0  0  0
   59.8598   12.9440   33.7863 C   0  0  0  0  0  0  0  0  0  0  0  0
   62.2716   16.5749   28.0742 C   0  0  0  0  0  0  0  0  0  0  0  0
   61.4162   17.5254   27.3626 C   0  0  0  0  0  0  0  0  0  0  0  0
   60.2605   17.2826   26.6593 C   0  0  0  0  0  0  0  0  0  0  0  0
   59.5547   16.1724   26.3853 N   0  0  0  0  0  0  0  0  0  0  0  0
   61.6256   18.8797   27.2753 C   0  0  0  0  0  0  0  0  0  0  0  0
   60.6368   19.4268   26.5495 N   0  0  0  0  0  0  0  0  0  0  0  0
   59.7695   18.4856   26.1457 C   0  0  0  0  0  0  0  0  0  0  0  0
   58.6174   18.5549   25.3908 C   0  0  0  0  0  0  0  0  0  0  0  0
   58.0956   19.7466   24.8589 N   0  0  0  0  0  0  0  0  0  0  0  0
   57.9783   17.3964   25.1677 N   0  0  0  0  0  0  0  0  0  0  0  0
   58.4281   16.2308   25.6485 C   0  0  0  0  0  0  0  0  0  0  0  0
  2  1  1  1
  2  3  1  0
  2  6  1  0
  3  4  1  0
  4  5  1  0
  4 12  1  6
  5  6  1  0
  6  7  1  6
  7  8  1  0
  8  9  1  0
  9 10  1  0
 10 11  3  0
 12 13  1  0
 13 14  1  0
 13 16  2  0
 14 15  2  0
 14 18  1  0
 15 22  1  0
 16 17  1  0
 17 18  1  0
 18 19  2  0
 19 20  1  0
 19 21  1  0
 21 22  2  0
M  CHG  1   4   1
M  END
$$$$
