
     RDKit          3D

 22 24  0  0  0  0  0  0  0  0999 V2000
   46.4714   43.8641   32.9139 O   0  0  0  0  0  0  0  0  0  0  0  0
   45.3518   44.2349   32.2061 C   0  0  1  0  0  0  0  0  0  0  0  0
   45.7293   45.5036   31.4658 C   0  0  0  0  0  0  0  0  0  0  0  0
   46.7211   44.9037   30.4911 N   0  0  1  0  0  4  0  0  0  0  0  0
   45.8054   43.9781   29.8617 C   0  0  0  0  0  0  0  0  0  0  0  0
   45.0910   43.3113   31.0003 C   0  0  2  0  0  0  0  0  0  0  0  0
   43.6275   43.1096   30.7516 C   0  0  0  0  0  0  0  0  0  0  0  0
   42.7668   42.8086   32.3443 S   0  0  0  0  0  0  0  0  0  0  0  0
   42.1640   41.0538   32.3779 C   0  0  0  0  0  0  0  0  0  0  0  0
   42.0301   40.6927   33.7636 C   0  0  0  0  0  0  0  0  0  0  0  0
   41.9068   40.3403   35.0484 C   0  0  0  0  0  0  0  0  0  0  0  0
   47.1914   45.9959   29.7288 C   0  0  0  0  0  0  0  0  0  0  0  0
   46.7930   46.0643   28.3241 C   0  0  0  0  0  0  0  0  0  0  0  0
   47.6355   45.7516   27.2520 C   0  0  0  0  0  0  0  0  0  0  0  0
   48.8971   45.3012   27.1463 N   0  0  0  0  0  0  0  0  0  0  0  0
   45.6473   46.5066   27.8021 C   0  0  0  0  0  0  0  0  0  0  0  0
   45.7016   46.5012   26.4331 N   0  0  0  0  0  0  0  0  0  0  0  0
   46.9480   46.0190   26.0942 C   0  0  0  0  0  0  0  0  0  0  0  0
   47.5422   45.8348   24.8596 C   0  0  0  0  0  0  0  0  0  0  0  0
   46.7693   46.1012   23.6776 N   0  0  0  0  0  0  0  0  0  0  0  0
   48.8016   45.3847   24.7721 N   0  0  0  0  0  0  0  0  0  0  0  0
   49.5052   45.1104   25.9291 C   0  0  0  0  0  0  0  0  0  0  0  0
  2  1  1  1
  3  2  1  1
  2  6  1  0
  3  4  1  0
  4  5  1  0
  4 12  1  6
  5  6  1  6
  6  7  1  6
  7  8  1  6
  8  9  1  0
  9 10  1  6
 10 11  3  0
 12 13  1  6
 13 14  1  0
 13 16  2  0
 14 15  2  0
 14 18  1  0
 15 22  1  0
 16 17  1  0
 17 18  1  0
 18 19  2  0
 19 20  1  0
 19 21  1  0
 21 22  2  0
M  CHG  1   4   1
M  END
$$$$
