
     RDKit          3D

 22 24  0  0  0  0  0  0  0  0999 V2000
   62.9208   17.9068   32.3132 O   0  0  0  0  0  0  0  0  0  0  0  0
   61.6832   18.1341   31.7575 C   0  0  1  0  0  0  0  0  0  0  0  0
   61.9281   18.3679   30.2790 C   0  0  0  0  0  0  0  0  0  0  0  0
   62.3594   16.9659   29.9023 N   0  0  1  0  0  4  0  0  0  0  0  0
   61.1432   16.2969   30.3080 C   0  0  0  0  0  0  0  0  0  0  0  0
   60.8378   16.8487   31.6696 C   0  0  2  0  0  0  0  0  0  0  0  0
   59.3808   17.1165   31.8929 C   0  0  0  0  0  0  0  0  0  0  0  0
   58.6080   15.6726   32.7212 S   0  0  0  0  0  0  0  0  0  0  0  0
   57.7093   14.6624   31.4501 C   0  0  0  0  0  0  0  0  0  0  0  0
   58.0684   13.2902   31.6882 C   0  0  0  0  0  0  0  0  0  0  0  0
   58.4116   12.0136   31.8952 C   0  0  0  0  0  0  0  0  0  0  0  0
   62.6535   17.0320   28.5223 C   0  0  0  0  0  0  0  0  0  0  0  0
   61.5448   16.8685   27.5839 C   0  0  0  0  0  0  0  0  0  0  0  0
   60.7122   17.9103   27.1616 C   0  0  0  0  0  0  0  0  0  0  0  0
   60.6689   19.2334   27.3923 N   0  0  0  0  0  0  0  0  0  0  0  0
   61.0651   15.7452   27.0463 C   0  0  0  0  0  0  0  0  0  0  0  0
   59.9511   16.0034   26.2916 N   0  0  0  0  0  0  0  0  0  0  0  0
   59.7397   17.3639   26.3613 C   0  0  0  0  0  0  0  0  0  0  0  0
   58.7448   18.1543   25.8166 C   0  0  0  0  0  0  0  0  0  0  0  0
   57.7675   17.5382   24.9617 N   0  0  0  0  0  0  0  0  0  0  0  0
   58.7165   19.4726   26.0568 N   0  0  0  0  0  0  0  0  0  0  0  0
   59.6895   20.0362   26.8595 C   0  0  0  0  0  0  0  0  0  0  0  0
  2  1  1  1
  3  2  1  1
  2  6  1  0
  3  4  1  0
  4  5  1  0
  4 12  1  6
  5  6  1  6
  6  7  1  6
  7  8  1  6
  8  9  1  0
  9 10  1  6
 10 11  3  0
 12 13  1  6
 13 14  1  0
 13 16  2  0
 14 15  2  0
 14 18  1  0
 15 22  1  0
 16 17  1  0
 17 18  1  0
 18 19  2  0
 19 20  1  0
 19 21  1  0
 21 22  2  0
M  CHG  1   4   1
M  END
$$$$
