
     RDKit          3D

 22 24  0  0  0  0  0  0  0  0999 V2000
   43.9676   42.1877   32.4804 O   0  0  0  0  0  0  0  0  0  0  0  0
   44.1008   43.5491   32.3356 C   0  0  1  0  0  0  0  0  0  0  0  0
   45.5905   43.8114   32.2245 C   0  0  0  0  0  0  0  0  0  0  0  0
   45.8270   43.1721   30.8722 N   0  0  1  0  0  4  0  0  0  0  0  0
   44.9161   44.0099   30.1241 C   0  0  0  0  0  0  0  0  0  0  0  0
   43.6580   44.0339   30.9415 C   0  0  2  0  0  0  0  0  0  0  0  0
   43.0056   45.3815   30.9948 C   0  0  0  0  0  0  0  0  0  0  0  0
   42.2739   45.7779   29.3591 S   0  0  0  0  0  0  0  0  0  0  0  0
   42.6308   47.5541   28.9571 C   0  0  0  0  0  0  0  0  0  0  0  0
   42.3035   48.3144   30.1332 C   0  0  0  0  0  0  0  0  0  0  0  0
   41.9845   49.0268   31.2200 C   0  0  0  0  0  0  0  0  0  0  0  0
   47.2118   43.3184   30.6355 C   0  0  0  0  0  0  0  0  0  0  0  0
   47.6769   44.5956   30.0978 C   0  0  0  0  0  0  0  0  0  0  0  0
   47.7592   44.8906   28.7328 C   0  0  0  0  0  0  0  0  0  0  0  0
   47.4449   44.2293   27.6060 N   0  0  0  0  0  0  0  0  0  0  0  0
   48.1813   45.6430   30.7530 C   0  0  0  0  0  0  0  0  0  0  0  0
   48.5947   46.6123   29.8774 N   0  0  0  0  0  0  0  0  0  0  0  0
   48.3199   46.1380   28.6124 C   0  0  0  0  0  0  0  0  0  0  0  0
   48.5575   46.6900   27.3674 C   0  0  0  0  0  0  0  0  0  0  0  0
   49.1190   48.0110   27.2964 N   0  0  0  0  0  0  0  0  0  0  0  0
   48.2378   46.0167   26.2534 N   0  0  0  0  0  0  0  0  0  0  0  0
   47.6719   44.7608   26.3595 C   0  0  0  0  0  0  0  0  0  0  0  0
  2  1  1  6
  3  2  1  1
  2  6  1  0
  3  4  1  0
  4  5  1  0
  4 12  1  6
  5  6  1  6
  6  7  1  1
  7  8  1  6
  8  9  1  0
  9 10  1  6
 10 11  3  0
 12 13  1  6
 13 14  1  0
 13 16  2  0
 14 15  2  0
 14 18  1  0
 15 22  1  0
 16 17  1  0
 17 18  1  0
 18 19  2  0
 19 20  1  0
 19 21  1  0
 21 22  2  0
M  CHG  1   4   1
M  END
$$$$
