
     RDKit          3D

 22 24  0  0  0  0  0  0  0  0999 V2000
   61.9508   16.8910   32.7351 O   0  0  0  0  0  0  0  0  0  0  0  0
   61.2091   17.3442   31.6419 C   0  0  1  0  0  0  0  0  0  0  0  0
   62.1277   18.0884   30.6656 C   0  0  0  0  0  0  0  0  0  0  0  0
   62.2764   17.2656   29.5144 N   0  0  1  0  0  4  0  0  0  0  0  0
   60.9924   16.5411   29.3980 C   0  0  0  0  0  0  0  0  0  0  0  0
   60.6549   16.2351   30.8471 C   0  0  2  0  0  0  0  0  0  0  0  0
   59.1754   16.0762   30.9680 C   0  0  0  0  0  0  0  0  0  0  0  0
   58.4480   16.2033   32.5658 S   0  0  0  0  0  0  0  0  0  0  0  0
   57.6294   14.7771   33.2043 C   0  0  0  0  0  0  0  0  0  0  0  0
   58.1330   13.5404   32.5813 C   0  0  0  0  0  0  0  0  0  0  0  0
   58.5386   12.5385   32.0728 C   0  0  0  0  0  0  0  0  0  0  0  0
   62.5114   17.9262   28.2753 C   0  0  0  0  0  0  0  0  0  0  0  0
   61.3002   18.2726   27.5307 C   0  0  0  0  0  0  0  0  0  0  0  0
   60.6293   17.5314   26.5874 C   0  0  0  0  0  0  0  0  0  0  0  0
   60.8282   16.3186   26.0441 N   0  0  0  0  0  0  0  0  0  0  0  0
   60.5929   19.4431   27.6542 C   0  0  0  0  0  0  0  0  0  0  0  0
   59.5412   19.4059   26.8195 N   0  0  0  0  0  0  0  0  0  0  0  0
   59.5179   18.2496   26.1388 C   0  0  0  0  0  0  0  0  0  0  0  0
   58.6522   17.7575   25.1845 C   0  0  0  0  0  0  0  0  0  0  0  0
   57.5261   18.4521   24.7106 N   0  0  0  0  0  0  0  0  0  0  0  0
   58.9293   16.5381   24.6980 N   0  0  0  0  0  0  0  0  0  0  0  0
   59.9876   15.8301   25.1111 C   0  0  0  0  0  0  0  0  0  0  0  0
  2  1  1  1
  2  3  1  0
  2  6  1  0
  3  4  1  0
  4  5  1  0
  4 12  1  6
  5  6  1  0
  6  7  1  6
  7  8  1  0
  8  9  1  0
  9 10  1  0
 10 11  3  0
 12 13  1  0
 13 14  1  0
 13 16  2  0
 14 15  2  0
 14 18  1  0
 15 22  1  0
 16 17  1  0
 17 18  1  0
 18 19  2  0
 19 20  1  0
 19 21  1  0
 21 22  2  0
M  CHG  1   4   1
M  END
$$$$
