
     RDKit          3D

 22 24  0  0  0  0  0  0  0  0999 V2000
   61.5344   17.5901   32.8718 O   0  0  0  0  0  0  0  0  0  0  0  0
   60.9334   17.4037   31.6249 C   0  0  1  0  0  0  0  0  0  0  0  0
   61.8641   17.9163   30.5196 C   0  0  0  0  0  0  0  0  0  0  0  0
   62.3644   16.7787   29.8268 N   0  0  1  0  0  4  0  0  0  0  0  0
   61.2745   15.7817   29.8987 C   0  0  0  0  0  0  0  0  0  0  0  0
   60.7412   15.9785   31.3074 C   0  0  2  0  0  0  0  0  0  0  0  0
   59.3174   15.5308   31.3442 C   0  0  0  0  0  0  0  0  0  0  0  0
   58.4543   15.6115   32.8761 S   0  0  0  0  0  0  0  0  0  0  0  0
   57.3813   14.2703   33.2784 C   0  0  0  0  0  0  0  0  0  0  0  0
   57.9378   12.9805   32.8340 C   0  0  0  0  0  0  0  0  0  0  0  0
   58.3921   11.9369   32.4713 C   0  0  0  0  0  0  0  0  0  0  0  0
   62.6968   16.9543   28.4536 C   0  0  0  0  0  0  0  0  0  0  0  0
   61.5612   16.8602   27.5354 C   0  0  0  0  0  0  0  0  0  0  0  0
   60.6842   17.8454   27.1488 C   0  0  0  0  0  0  0  0  0  0  0  0
   60.5561   19.1480   27.4532 N   0  0  0  0  0  0  0  0  0  0  0  0
   61.1624   15.7271   26.8702 C   0  0  0  0  0  0  0  0  0  0  0  0
   60.0904   16.0201   26.1159 N   0  0  0  0  0  0  0  0  0  0  0  0
   59.7550   17.3123   26.2518 C   0  0  0  0  0  0  0  0  0  0  0  0
   58.7456   18.0678   25.6927 C   0  0  0  0  0  0  0  0  0  0  0  0
   57.7948   17.5645   24.7883 N   0  0  0  0  0  0  0  0  0  0  0  0
   58.6947   19.3589   26.0543 N   0  0  0  0  0  0  0  0  0  0  0  0
   59.5729   19.8935   26.9117 C   0  0  0  0  0  0  0  0  0  0  0  0
  2  1  1  1
  2  3  1  0
  2  6  1  0
  3  4  1  0
  4  5  1  0
  4 12  1  6
  5  6  1  0
  6  7  1  6
  7  8  1  0
  8  9  1  0
  9 10  1  0
 10 11  3  0
 12 13  1  0
 13 14  1  0
 13 16  2  0
 14 15  2  0
 14 18  1  0
 15 22  1  0
 16 17  1  0
 17 18  1  0
 18 19  2  0
 19 20  1  0
 19 21  1  0
 21 22  2  0
M  CHG  1   4   1
M  END
$$$$
