
     RDKit          3D

 22 24  0  0  0  0  0  0  0  0999 V2000
   63.2359   17.9030   31.2998 O   0  0  0  0  0  0  0  0  0  0  0  0
   61.9461   18.1189   30.8735 C   0  0  1  0  0  0  0  0  0  0  0  0
   61.9960   18.0734   29.3583 C   0  0  0  0  0  0  0  0  0  0  0  0
   62.3029   16.5999   29.1917 N   0  0  1  0  0  4  0  0  0  0  0  0
   61.1233   16.1013   29.8635 C   0  0  0  0  0  0  0  0  0  0  0  0
   61.0354   16.9023   31.1293 C   0  0  2  0  0  0  0  0  0  0  0  0
   59.6377   17.3096   31.4829 C   0  0  0  0  0  0  0  0  0  0  0  0
   58.5055   15.8815   31.2662 S   0  0  0  0  0  0  0  0  0  0  0  0
   58.4929   14.8835   32.8307 C   0  0  0  0  0  0  0  0  0  0  0  0
   59.4363   15.5047   33.7209 C   0  0  0  0  0  0  0  0  0  0  0  0
   60.3099   16.0978   34.5427 C   0  0  0  0  0  0  0  0  0  0  0  0
   62.4070   16.4032   27.7968 C   0  0  0  0  0  0  0  0  0  0  0  0
   61.1924   16.5548   26.9979 C   0  0  0  0  0  0  0  0  0  0  0  0
   60.6091   17.7859   26.6799 C   0  0  0  0  0  0  0  0  0  0  0  0
   60.9310   19.0691   26.9159 N   0  0  0  0  0  0  0  0  0  0  0  0
   60.3839   15.6067   26.5202 C   0  0  0  0  0  0  0  0  0  0  0  0
   59.2927   16.1616   25.9049 N   0  0  0  0  0  0  0  0  0  0  0  0
   59.4438   17.5285   26.0013 C   0  0  0  0  0  0  0  0  0  0  0  0
   58.6267   18.5613   25.5809 C   0  0  0  0  0  0  0  0  0  0  0  0
   57.4328   18.2394   24.8485 N   0  0  0  0  0  0  0  0  0  0  0  0
   58.9627   19.8358   25.8245 N   0  0  0  0  0  0  0  0  0  0  0  0
   60.1332   20.1097   26.5055 C   0  0  0  0  0  0  0  0  0  0  0  0
  2  1  1  1
  3  2  1  1
  2  6  1  0
  3  4  1  0
  4  5  1  0
  4 12  1  6
  5  6  1  6
  6  7  1  6
  7  8  1  6
  8  9  1  0
  9 10  1  6
 10 11  3  0
 12 13  1  6
 13 14  1  0
 13 16  2  0
 14 15  2  0
 14 18  1  0
 15 22  1  0
 16 17  1  0
 17 18  1  0
 18 19  2  0
 19 20  1  0
 19 21  1  0
 21 22  2  0
M  CHG  1   4   1
M  END
$$$$
