
     RDKit          3D

 22 24  0  0  0  0  0  0  0  0999 V2000
   44.9882   44.0037   32.2196 O   0  0  0  0  0  0  0  0  0  0  0  0
   45.0905   45.3472   31.9431 C   0  0  1  0  0  0  0  0  0  0  0  0
   46.4865   45.5520   31.3867 C   0  0  0  0  0  0  0  0  0  0  0  0
   46.3112   44.8167   30.0745 N   0  0  1  0  0  4  0  0  0  0  0  0
   45.2324   45.6327   29.5627 C   0  0  0  0  0  0  0  0  0  0  0  0
   44.2671   45.7528   30.7052 C   0  0  2  0  0  0  0  0  0  0  0  0
   43.6753   47.1218   30.8463 C   0  0  0  0  0  0  0  0  0  0  0  0
   42.4171   47.3879   29.5369 S   0  0  0  0  0  0  0  0  0  0  0  0
   40.7405   46.9927   30.2273 C   0  0  0  0  0  0  0  0  0  0  0  0
   40.1111   48.2520   30.5217 C   0  0  0  0  0  0  0  0  0  0  0  0
   39.5292   49.4289   30.7797 C   0  0  0  0  0  0  0  0  0  0  0  0
   47.5688   44.9009   29.4370 C   0  0  0  0  0  0  0  0  0  0  0  0
   47.7937   46.0213   28.5256 C   0  0  0  0  0  0  0  0  0  0  0  0
   47.8308   45.9059   27.1320 C   0  0  0  0  0  0  0  0  0  0  0  0
   47.6533   44.8937   26.2661 N   0  0  0  0  0  0  0  0  0  0  0  0
   48.0904   47.2890   28.8187 C   0  0  0  0  0  0  0  0  0  0  0  0
   48.3242   48.0108   27.6778 N   0  0  0  0  0  0  0  0  0  0  0  0
   48.1519   47.1398   26.6232 C   0  0  0  0  0  0  0  0  0  0  0  0
   48.2932   47.3288   25.2610 C   0  0  0  0  0  0  0  0  0  0  0  0
   48.6010   48.6468   24.7776 N   0  0  0  0  0  0  0  0  0  0  0  0
   48.1124   46.3082   24.4111 N   0  0  0  0  0  0  0  0  0  0  0  0
   47.7879   45.0610   24.9091 C   0  0  0  0  0  0  0  0  0  0  0  0
  2  1  1  6
  3  2  1  1
  2  6  1  0
  3  4  1  0
  4  5  1  0
  4 12  1  6
  5  6  1  6
  6  7  1  1
  7  8  1  6
  8  9  1  0
  9 10  1  6
 10 11  3  0
 12 13  1  6
 13 14  1  0
 13 16  2  0
 14 15  2  0
 14 18  1  0
 15 22  1  0
 16 17  1  0
 17 18  1  0
 18 19  2  0
 19 20  1  0
 19 21  1  0
 21 22  2  0
M  CHG  1   4   1
M  END
$$$$
