
     RDKit          3D

 22 24  0  0  0  0  0  0  0  0999 V2000
   45.2089   42.9623   31.9370 O   0  0  0  0  0  0  0  0  0  0  0  0
   46.1236   43.8972   31.5113 C   0  0  1  0  0  0  0  0  0  0  0  0
   46.2569   43.6965   30.0138 C   0  0  0  0  0  0  0  0  0  0  0  0
   44.8783   44.1708   29.6040 N   0  0  1  0  0  4  0  0  0  0  0  0
   44.9910   45.5098   30.1385 C   0  0  0  0  0  0  0  0  0  0  0  0
   45.5456   45.3257   31.5206 C   0  0  2  0  0  0  0  0  0  0  0  0
   46.5760   46.3477   31.8922 C   0  0  0  0  0  0  0  0  0  0  0  0
   45.8389   48.0263   31.8065 S   0  0  0  0  0  0  0  0  0  0  0  0
   45.1700   48.4735   33.4787 C   0  0  0  0  0  0  0  0  0  0  0  0
   45.9696   47.7666   34.4427 C   0  0  0  0  0  0  0  0  0  0  0  0
   46.7260   47.1205   35.3375 C   0  0  0  0  0  0  0  0  0  0  0  0
   44.8404   44.0160   28.2005 C   0  0  0  0  0  0  0  0  0  0  0  0
   45.4605   45.0593   27.3859 C   0  0  0  0  0  0  0  0  0  0  0  0
   46.7819   45.0180   26.9285 C   0  0  0  0  0  0  0  0  0  0  0  0
   47.7818   44.1247   27.0182 N   0  0  0  0  0  0  0  0  0  0  0  0
   44.9579   46.2390   27.0165 C   0  0  0  0  0  0  0  0  0  0  0  0
   45.8931   46.9763   26.3390 N   0  0  0  0  0  0  0  0  0  0  0  0
   47.0322   46.2019   26.2800 C   0  0  0  0  0  0  0  0  0  0  0  0
   48.2785   46.4648   25.7427 C   0  0  0  0  0  0  0  0  0  0  0  0
   48.4801   47.7066   25.0480 N   0  0  0  0  0  0  0  0  0  0  0  0
   49.2649   45.5626   25.8411 N   0  0  0  0  0  0  0  0  0  0  0  0
   49.0269   44.3664   26.4901 C   0  0  0  0  0  0  0  0  0  0  0  0
  2  1  1  6
  3  2  1  1
  2  6  1  0
  3  4  1  0
  4  5  1  0
  4 12  1  6
  5  6  1  6
  6  7  1  6
  7  8  1  6
  8  9  1  0
  9 10  1  6
 10 11  3  0
 12 13  1  6
 13 14  1  0
 13 16  2  0
 14 15  2  0
 14 18  1  0
 15 22  1  0
 16 17  1  0
 17 18  1  0
 18 19  2  0
 19 20  1  0
 19 21  1  0
 21 22  2  0
M  CHG  1   4   1
M  END
$$$$
