
     RDKit          3D

 22 24  0  0  0  0  0  0  0  0999 V2000
   61.6788   18.6097   31.8596 O   0  0  0  0  0  0  0  0  0  0  0  0
   60.6812   17.8532   31.2900 C   0  0  1  0  0  0  0  0  0  0  0  0
   60.8863   17.9558   29.7907 C   0  0  0  0  0  0  0  0  0  0  0  0
   62.1800   17.1749   29.6909 N   0  0  1  0  0  4  0  0  0  0  0  0
   61.6759   15.9358   30.2402 C   0  0  0  0  0  0  0  0  0  0  0  0
   60.9194   16.3414   31.4709 C   0  0  2  0  0  0  0  0  0  0  0  0
   59.6383   15.5882   31.6604 C   0  0  0  0  0  0  0  0  0  0  0  0
   59.9444   13.7899   31.4584 S   0  0  0  0  0  0  0  0  0  0  0  0
   58.4352   12.8595   32.0067 C   0  0  0  0  0  0  0  0  0  0  0  0
   58.2774   13.1254   33.4113 C   0  0  0  0  0  0  0  0  0  0  0  0
   58.1417   13.3857   34.7167 C   0  0  0  0  0  0  0  0  0  0  0  0
   62.5207   17.2050   28.3205 C   0  0  0  0  0  0  0  0  0  0  0  0
   61.4450   17.0135   27.3496 C   0  0  0  0  0  0  0  0  0  0  0  0
   60.5278   18.0055   26.9867 C   0  0  0  0  0  0  0  0  0  0  0  0
   60.3619   19.2988   27.3119 N   0  0  0  0  0  0  0  0  0  0  0  0
   61.0765   15.8950   26.7220 C   0  0  0  0  0  0  0  0  0  0  0  0
   59.9547   16.1082   25.9648 N   0  0  0  0  0  0  0  0  0  0  0  0
   59.6202   17.4356   26.1286 C   0  0  0  0  0  0  0  0  0  0  0  0
   58.5659   18.1725   25.6221 C   0  0  0  0  0  0  0  0  0  0  0  0
   57.6607   17.5370   24.7044 N   0  0  0  0  0  0  0  0  0  0  0  0
   58.4152   19.4616   25.9567 N   0  0  0  0  0  0  0  0  0  0  0  0
   59.3217   20.0485   26.8184 C   0  0  0  0  0  0  0  0  0  0  0  0
  2  1  1  1
  3  2  1  1
  2  6  1  0
  3  4  1  0
  4  5  1  0
  4 12  1  6
  5  6  1  6
  6  7  1  6
  7  8  1  6
  8  9  1  0
  9 10  1  6
 10 11  3  0
 12 13  1  6
 13 14  1  0
 13 16  2  0
 14 15  2  0
 14 18  1  0
 15 22  1  0
 16 17  1  0
 17 18  1  0
 18 19  2  0
 19 20  1  0
 19 21  1  0
 21 22  2  0
M  CHG  1   4   1
M  END
$$$$
