
     RDKit          3D

 22 25  0  0  0  0  0  0  0  0999 V2000
  -23.7032   19.6014  -12.7659 C   0  0  0  0  0  0  0  0  0  0  0  0
  -22.4515   21.5545   -9.0198 C   0  0  0  0  0  0  0  0  0  0  0  0
  -21.6698   23.6443   -9.9972 C   0  0  0  0  0  0  0  0  0  0  0  0
  -21.9758   21.9739   -7.7958 C   0  0  0  0  0  0  0  0  0  0  0  0
  -24.7691   20.5243  -11.0659 C   0  0  0  0  0  0  0  0  0  0  0  0
  -24.8699   20.2359  -12.3905 C   0  0  0  0  0  0  0  0  0  0  0  0
  -16.7086   16.6648  -11.4485 N   0  0  0  0  0  0  0  0  0  0  0  0
  -17.8619   17.0279  -12.1909 C   0  0  0  0  0  0  0  0  0  0  0  0
  -18.0004   16.7894  -13.5075 N   0  0  0  0  0  0  0  0  0  0  0  0
  -19.1806   17.2539  -13.8627 N   0  0  0  0  0  0  0  0  0  0  0  0
  -19.8377   17.7963  -12.8257 C   0  0  0  0  0  0  0  0  0  0  0  0
  -19.0046   17.6610  -11.7368 C   0  0  0  0  0  0  0  0  0  0  0  0
  -21.1786   18.4133  -12.8413 C   0  0  0  0  0  0  0  0  0  0  0  0
  -21.9551   18.4864  -13.9725 C   0  0  0  0  0  0  0  0  0  0  0  0
  -23.2228   19.0796  -13.9481 C   0  0  0  0  0  0  0  0  0  0  0  0
  -22.9416   19.5398  -11.6171 C   0  0  0  0  0  0  0  0  0  0  0  0
  -21.6813   18.9412  -11.6760 C   0  0  0  0  0  0  0  0  0  0  0  0
  -23.5735   20.0916  -10.5911 N   0  0  0  0  0  0  0  0  0  0  0  0
  -23.1277   20.2352   -9.2209 C   0  0  0  0  0  0  0  0  0  0  0  0
  -22.2841   22.4153  -10.1108 C   0  0  0  0  0  0  0  0  0  0  0  0
  -21.1953   24.0588   -8.7681 C   0  0  0  0  0  0  0  0  0  0  0  0
  -21.3559   23.2187   -7.6912 C   0  0  0  0  0  0  0  0  0  0  0  0
  1  6  1  0
  1 15  2  0
 16  1  1  0
  2  4  2  0
 19  2  1  0
  2 20  1  0
 20  3  2  0
  3 21  1  0
  4 22  1  0
  5  6  2  0
 18  5  1  0
  8  7  1  0
  8  9  1  0
 12  8  2  0
 10  9  1  0
 11 10  2  0
 11 12  1  0
 13 11  1  0
 13 14  2  0
 17 13  1  0
 15 14  1  0
 16 17  2  0
 18 16  1  0
 19 18  1  6
 21 22  2  0
M  END
$$$$
