
     RDKit          3D

 22 25  0  0  0  0  0  0  0  0999 V2000
  -23.6404   20.6569  -11.8644 C   0  0  0  0  0  0  0  0  0  0  0  0
  -26.5168   18.0486   -9.4491 C   0  0  0  0  0  0  0  0  0  0  0  0
  -28.4137   16.8754   -8.4701 C   0  0  0  0  0  0  0  0  0  0  0  0
  -27.3925   18.9570  -10.0044 C   0  0  0  0  0  0  0  0  0  0  0  0
  -25.4397   20.3791  -10.6140 C   0  0  0  0  0  0  0  0  0  0  0  0
  -24.8225   21.2444  -11.4616 C   0  0  0  0  0  0  0  0  0  0  0  0
  -17.0569   16.8751  -13.3541 N   0  0  0  0  0  0  0  0  0  0  0  0
  -18.3898   17.1003  -12.9230 C   0  0  0  0  0  0  0  0  0  0  0  0
  -19.1699   16.1394  -12.3959 N   0  0  0  0  0  0  0  0  0  0  0  0
  -20.3296   16.6953  -12.1115 N   0  0  0  0  0  0  0  0  0  0  0  0
  -20.3515   17.9987  -12.4312 C   0  0  0  0  0  0  0  0  0  0  0  0
  -19.1096   18.2809  -12.9566 C   0  0  0  0  0  0  0  0  0  0  0  0
  -21.4731   18.9426  -12.2582 C   0  0  0  0  0  0  0  0  0  0  0  0
  -21.5279   20.1626  -12.8880 C   0  0  0  0  0  0  0  0  0  0  0  0
  -22.6090   21.0314  -12.6990 C   0  0  0  0  0  0  0  0  0  0  0  0
  -23.6076   19.4368  -11.2210 C   0  0  0  0  0  0  0  0  0  0  0  0
  -22.5144   18.5938  -11.4315 C   0  0  0  0  0  0  0  0  0  0  0  0
  -24.6839   19.2613  -10.4679 N   0  0  0  0  0  0  0  0  0  0  0  0
  -25.0345   18.1299   -9.6349 C   0  0  0  0  0  0  0  0  0  0  0  0
  -27.0581   17.0109   -8.6815 C   0  0  0  0  0  0  0  0  0  0  0  0
  -29.2860   17.7888   -9.0291 C   0  0  0  0  0  0  0  0  0  0  0  0
  -28.7619   18.8114   -9.7847 C   0  0  0  0  0  0  0  0  0  0  0  0
  1  6  1  0
  1 15  2  0
 16  1  1  0
  2  4  2  0
 19  2  1  0
  2 20  1  0
 20  3  2  0
  3 21  1  0
  4 22  1  0
  5  6  2  0
 18  5  1  0
  8  7  1  0
  8  9  1  0
 12  8  2  0
 10  9  1  0
 11 10  2  0
 11 12  1  0
 13 11  1  0
 13 14  2  0
 17 13  1  0
 15 14  1  0
 16 17  2  0
 18 16  1  0
 19 18  1  6
 21 22  2  0
M  END
$$$$
