
     RDKit          3D

 22 25  0  0  0  0  0  0  0  0999 V2000
  -23.8261   21.1306  -11.5216 C   0  0  0  0  0  0  0  0  0  0  0  0
  -26.1618   18.0745   -9.0495 C   0  0  0  0  0  0  0  0  0  0  0  0
  -28.4642   18.2196   -9.8314 C   0  0  0  0  0  0  0  0  0  0  0  0
  -26.6064   17.4020   -7.9313 C   0  0  0  0  0  0  0  0  0  0  0  0
  -25.5037   20.5638  -10.2015 C   0  0  0  0  0  0  0  0  0  0  0  0
  -25.0638   21.5254  -11.0557 C   0  0  0  0  0  0  0  0  0  0  0  0
  -18.1339   16.1524  -13.0021 N   0  0  0  0  0  0  0  0  0  0  0  0
  -18.7510   17.3966  -12.7119 C   0  0  0  0  0  0  0  0  0  0  0  0
  -18.0651   18.5406  -12.5382 N   0  0  0  0  0  0  0  0  0  0  0  0
  -18.9470   19.4861  -12.2870 N   0  0  0  0  0  0  0  0  0  0  0  0
  -20.2027   19.0119  -12.2868 C   0  0  0  0  0  0  0  0  0  0  0  0
  -20.0991   17.6653  -12.5590 C   0  0  0  0  0  0  0  0  0  0  0  0
  -21.4450   19.7717  -12.0454 C   0  0  0  0  0  0  0  0  0  0  0  0
  -21.7122   20.9785  -12.6454 C   0  0  0  0  0  0  0  0  0  0  0  0
  -22.9025   21.6700  -12.3913 C   0  0  0  0  0  0  0  0  0  0  0  0
  -23.5799   19.9201  -10.9069 C   0  0  0  0  0  0  0  0  0  0  0  0
  -22.3826   19.2562  -11.1825 C   0  0  0  0  0  0  0  0  0  0  0  0
  -24.5817   19.5718  -10.1123 N   0  0  0  0  0  0  0  0  0  0  0  0
  -24.7188   18.3878   -9.2899 C   0  0  0  0  0  0  0  0  0  0  0  0
  -27.1186   18.4744   -9.9897 C   0  0  0  0  0  0  0  0  0  0  0  0
  -28.9034   17.5453   -8.7088 C   0  0  0  0  0  0  0  0  0  0  0  0
  -27.9695   17.1491   -7.7804 C   0  0  0  0  0  0  0  0  0  0  0  0
  1  6  1  0
  1 15  2  0
 16  1  1  0
  2  4  2  0
 19  2  1  0
  2 20  1  0
 20  3  2  0
  3 21  1  0
  4 22  1  0
  5  6  2  0
 18  5  1  0
  8  7  1  0
  8  9  1  0
 12  8  2  0
 10  9  1  0
 11 10  2  0
 11 12  1  0
 13 11  1  0
 13 14  2  0
 17 13  1  0
 15 14  1  0
 16 17  2  0
 18 16  1  0
 19 18  1  6
 21 22  2  0
M  END
$$$$
