
     RDKit          3D

 22 25  0  0  0  0  0  0  0  0999 V2000
  -22.1013   23.9161  -10.3048 C   0  0  0  0  0  0  0  0  0  0  0  0
  -20.5599   25.9813   -6.6672 C   0  0  0  0  0  0  0  0  0  0  0  0
  -18.3459   26.6002   -7.4723 C   0  0  0  0  0  0  0  0  0  0  0  0
  -20.2419   26.5234   -5.4403 C   0  0  0  0  0  0  0  0  0  0  0  0
  -22.1424   25.9147   -9.3657 C   0  0  0  0  0  0  0  0  0  0  0  0
  -22.2103   25.2681  -10.5596 C   0  0  0  0  0  0  0  0  0  0  0  0
  -21.5723   17.7710   -5.6952 N   0  0  0  0  0  0  0  0  0  0  0  0
  -21.5785   18.5057   -6.9091 C   0  0  0  0  0  0  0  0  0  0  0  0
  -21.3816   17.9441   -8.1154 N   0  0  0  0  0  0  0  0  0  0  0  0
  -21.4530   18.9100   -9.0081 N   0  0  0  0  0  0  0  0  0  0  0  0
  -21.6917   20.1014   -8.4381 C   0  0  0  0  0  0  0  0  0  0  0  0
  -21.7762   19.8633   -7.0837 C   0  0  0  0  0  0  0  0  0  0  0  0
  -21.8354   21.4042   -9.1170 C   0  0  0  0  0  0  0  0  0  0  0  0
  -21.9672   21.5273  -10.4791 C   0  0  0  0  0  0  0  0  0  0  0  0
  -22.1013   22.7810  -11.0872 C   0  0  0  0  0  0  0  0  0  0  0  0
  -21.9703   23.8177   -8.9348 C   0  0  0  0  0  0  0  0  0  0  0  0
  -21.8385   22.5517   -8.3603 C   0  0  0  0  0  0  0  0  0  0  0  0
  -21.9938   25.0127   -8.3625 N   0  0  0  0  0  0  0  0  0  0  0  0
  -21.8843   25.3493   -6.9583 C   0  0  0  0  0  0  0  0  0  0  0  0
  -19.5868   26.0336   -7.6719 C   0  0  0  0  0  0  0  0  0  0  0  0
  -18.0332   27.1417   -6.2408 C   0  0  0  0  0  0  0  0  0  0  0  0
  -18.9840   27.0942   -5.2484 C   0  0  0  0  0  0  0  0  0  0  0  0
  1  6  1  0
  1 15  2  0
 16  1  1  0
  2  4  2  0
 19  2  1  0
  2 20  1  0
 20  3  2  0
  3 21  1  0
  4 22  1  0
  5  6  2  0
 18  5  1  0
  8  7  1  0
  8  9  1  0
 12  8  2  0
 10  9  1  0
 11 10  2  0
 11 12  1  0
 13 11  1  0
 13 14  2  0
 17 13  1  0
 15 14  1  0
 16 17  2  0
 18 16  1  0
 19 18  1  6
 21 22  2  0
M  END
$$$$
