
     RDKit          3D

 22 25  0  0  0  0  0  0  0  0999 V2000
  -23.4090   19.2403  -13.2150 C   0  0  0  0  0  0  0  0  0  0  0  0
  -24.8456   19.1233   -8.9272 C   0  0  0  0  0  0  0  0  0  0  0  0
  -25.9969   18.5565   -6.8568 C   0  0  0  0  0  0  0  0  0  0  0  0
  -25.9845   18.7875   -9.6275 C   0  0  0  0  0  0  0  0  0  0  0  0
  -24.7821   20.1083  -11.7186 C   0  0  0  0  0  0  0  0  0  0  0  0
  -24.6030   19.9130  -13.0519 C   0  0  0  0  0  0  0  0  0  0  0  0
  -16.3789   16.0120  -13.2568 N   0  0  0  0  0  0  0  0  0  0  0  0
  -17.6617   16.3920  -12.7841 C   0  0  0  0  0  0  0  0  0  0  0  0
  -18.1230   16.0774  -11.5603 N   0  0  0  0  0  0  0  0  0  0  0  0
  -19.3343   16.5850  -11.4612 N   0  0  0  0  0  0  0  0  0  0  0  0
  -19.6997   17.2300  -12.5801 C   0  0  0  0  0  0  0  0  0  0  0  0
  -18.6347   17.1177  -13.4470 C   0  0  0  0  0  0  0  0  0  0  0  0
  -20.9788   17.9205  -12.8364 C   0  0  0  0  0  0  0  0  0  0  0  0
  -21.4862   18.1106  -14.0991 C   0  0  0  0  0  0  0  0  0  0  0  0
  -22.7037   18.7708  -14.3026 C   0  0  0  0  0  0  0  0  0  0  0  0
  -22.9196   19.0614  -11.9375 C   0  0  0  0  0  0  0  0  0  0  0  0
  -21.7020   18.3985  -11.7696 C   0  0  0  0  0  0  0  0  0  0  0  0
  -23.7373   19.5794  -11.0324 N   0  0  0  0  0  0  0  0  0  0  0  0
  -23.5958   19.6080   -9.5915 C   0  0  0  0  0  0  0  0  0  0  0  0
  -24.8797   18.9975   -7.5336 C   0  0  0  0  0  0  0  0  0  0  0  0
  -27.1350   18.2215   -7.5641 C   0  0  0  0  0  0  0  0  0  0  0  0
  -27.1095   18.3424   -8.9338 C   0  0  0  0  0  0  0  0  0  0  0  0
  1  6  1  0
  1 15  2  0
 16  1  1  0
  2  4  2  0
 19  2  1  0
  2 20  1  0
 20  3  2  0
  3 21  1  0
  4 22  1  0
  5  6  2  0
 18  5  1  0
  8  7  1  0
  8  9  1  0
 12  8  2  0
 10  9  1  0
 11 10  2  0
 11 12  1  0
 13 11  1  0
 13 14  2  0
 17 13  1  0
 15 14  1  0
 16 17  2  0
 18 16  1  0
 19 18  1  6
 21 22  2  0
M  END
$$$$
