
     RDKit          3D

 22 25  0  0  0  0  0  0  0  0999 V2000
  -11.7333    7.2995  -29.4934 C   0  0  0  0  0  0  0  0  0  0  0  0
  -13.0865    9.6634  -25.9084 C   0  0  0  0  0  0  0  0  0  0  0  0
  -13.0354   11.1468  -23.9770 C   0  0  0  0  0  0  0  0  0  0  0  0
  -12.3921   10.6119  -26.6285 C   0  0  0  0  0  0  0  0  0  0  0  0
  -13.0070    8.9819  -28.8414 C   0  0  0  0  0  0  0  0  0  0  0  0
  -12.3055    8.4890  -29.8963 C   0  0  0  0  0  0  0  0  0  0  0  0
   -9.0916    0.6273  -26.6000 N   0  0  0  0  0  0  0  0  0  0  0  0
   -9.6866    1.9148  -26.6373 C   0  0  0  0  0  0  0  0  0  0  0  0
  -10.1664    2.5406  -25.5475 N   0  0  0  0  0  0  0  0  0  0  0  0
  -10.6407    3.7029  -25.9462 N   0  0  0  0  0  0  0  0  0  0  0  0
  -10.4940    3.8760  -27.2691 C   0  0  0  0  0  0  0  0  0  0  0  0
   -9.8803    2.7338  -27.7348 C   0  0  0  0  0  0  0  0  0  0  0  0
  -10.9038    5.0476  -28.0680 C   0  0  0  0  0  0  0  0  0  0  0  0
  -10.5204    5.2332  -29.3743 C   0  0  0  0  0  0  0  0  0  0  0  0
  -10.9295    6.3581  -30.1002 C   0  0  0  0  0  0  0  0  0  0  0  0
  -12.1311    7.1349  -28.1826 C   0  0  0  0  0  0  0  0  0  0  0  0
  -11.7053    6.0013  -27.4870 C   0  0  0  0  0  0  0  0  0  0  0  0
  -12.8962    8.1403  -27.7824 N   0  0  0  0  0  0  0  0  0  0  0  0
  -13.5136    8.3528  -26.4899 C   0  0  0  0  0  0  0  0  0  0  0  0
  -13.3971    9.9589  -24.5760 C   0  0  0  0  0  0  0  0  0  0  0  0
  -12.3397   12.0931  -24.7037 C   0  0  0  0  0  0  0  0  0  0  0  0
  -12.0307   11.8104  -26.0136 C   0  0  0  0  0  0  0  0  0  0  0  0
  1  6  1  0
  1 15  2  0
 16  1  1  0
  2  4  2  0
 19  2  1  0
  2 20  1  0
 20  3  2  0
  3 21  1  0
  4 22  1  0
  5  6  2  0
 18  5  1  0
  8  7  1  0
  8  9  1  0
 12  8  2  0
 10  9  1  0
 11 10  2  0
 11 12  1  0
 13 11  1  0
 13 14  2  0
 17 13  1  0
 15 14  1  0
 16 17  2  0
 18 16  1  0
 19 18  1  6
 21 22  2  0
M  END
$$$$
