
     RDKit          3D

 22 25  0  0  0  0  0  0  0  0999 V2000
  -12.6731    9.3744  -28.4292 C   0  0  0  0  0  0  0  0  0  0  0  0
  -12.1025    4.8612  -28.6485 C   0  0  0  0  0  0  0  0  0  0  0  0
  -11.6713    2.8376  -29.9340 C   0  0  0  0  0  0  0  0  0  0  0  0
  -13.4364    4.7636  -28.9825 C   0  0  0  0  0  0  0  0  0  0  0  0
  -12.1580    7.5691  -29.5927 C   0  0  0  0  0  0  0  0  0  0  0  0
  -12.5743    8.8582  -29.7054 C   0  0  0  0  0  0  0  0  0  0  0  0
  -13.1283   11.5150  -21.0074 N   0  0  0  0  0  0  0  0  0  0  0  0
  -12.8450   10.7120  -22.1424 C   0  0  0  0  0  0  0  0  0  0  0  0
  -12.2949    9.4870  -22.0641 N   0  0  0  0  0  0  0  0  0  0  0  0
  -12.1751    9.0372  -23.2962 N   0  0  0  0  0  0  0  0  0  0  0  0
  -12.6277    9.9221  -24.1982 C   0  0  0  0  0  0  0  0  0  0  0  0
  -13.0647   11.0103  -23.4749 C   0  0  0  0  0  0  0  0  0  0  0  0
  -12.6548    9.7678  -25.6659 C   0  0  0  0  0  0  0  0  0  0  0  0
  -13.0216   10.7815  -26.5179 C   0  0  0  0  0  0  0  0  0  0  0  0
  -13.0350   10.5972  -27.9054 C   0  0  0  0  0  0  0  0  0  0  0  0
  -12.3012    8.3413  -27.5937 C   0  0  0  0  0  0  0  0  0  0  0  0
  -12.2986    8.5587  -26.2142 C   0  0  0  0  0  0  0  0  0  0  0  0
  -11.9902    7.2533  -28.2834 N   0  0  0  0  0  0  0  0  0  0  0  0
  -11.5565    5.9612  -27.7941 C   0  0  0  0  0  0  0  0  0  0  0  0
  -11.2363    3.8782  -29.1411 C   0  0  0  0  0  0  0  0  0  0  0  0
  -13.0090    2.7453  -30.2652 C   0  0  0  0  0  0  0  0  0  0  0  0
  -13.8665    3.7073  -29.7851 C   0  0  0  0  0  0  0  0  0  0  0  0
  1  6  1  0
  1 15  2  0
 16  1  1  0
  2  4  2  0
 19  2  1  0
  2 20  1  0
 20  3  2  0
  3 21  1  0
  4 22  1  0
  5  6  2  0
 18  5  1  0
  8  7  1  0
  8  9  1  0
 12  8  2  0
 10  9  1  0
 11 10  2  0
 11 12  1  0
 13 11  1  0
 13 14  2  0
 17 13  1  0
 15 14  1  0
 16 17  2  0
 18 16  1  0
 19 18  1  6
 21 22  2  0
M  END
$$$$
