
     RDKit          3D

 22 25  0  0  0  0  0  0  0  0999 V2000
  -13.5504   10.1661  -28.0626 C   0  0  0  0  0  0  0  0  0  0  0  0
  -11.0642    6.4987  -28.9180 C   0  0  0  0  0  0  0  0  0  0  0  0
  -12.7303    4.9679  -29.8203 C   0  0  0  0  0  0  0  0  0  0  0  0
  -10.0833    5.5827  -29.2327 C   0  0  0  0  0  0  0  0  0  0  0  0
  -12.4603    9.0418  -29.6201 C   0  0  0  0  0  0  0  0  0  0  0  0
  -13.4790    9.9191  -29.4186 C   0  0  0  0  0  0  0  0  0  0  0  0
  -13.6340   10.4642  -20.3332 N   0  0  0  0  0  0  0  0  0  0  0  0
  -13.1258   10.3170  -21.6498 C   0  0  0  0  0  0  0  0  0  0  0  0
  -11.8385   10.0348  -21.9193 N   0  0  0  0  0  0  0  0  0  0  0  0
  -11.7226    9.9714  -23.2298 N   0  0  0  0  0  0  0  0  0  0  0  0
  -12.8917   10.2022  -23.8473 C   0  0  0  0  0  0  0  0  0  0  0  0
  -13.8109   10.4276  -22.8461 C   0  0  0  0  0  0  0  0  0  0  0  0
  -13.1476   10.2138  -25.3010 C   0  0  0  0  0  0  0  0  0  0  0  0
  -14.1431   10.9638  -25.8792 C   0  0  0  0  0  0  0  0  0  0  0  0
  -14.3555   10.9488  -27.2628 C   0  0  0  0  0  0  0  0  0  0  0  0
  -12.5444    9.4042  -27.5049 C   0  0  0  0  0  0  0  0  0  0  0  0
  -12.3593    9.4422  -26.1212 C   0  0  0  0  0  0  0  0  0  0  0  0
  -11.8845    8.7257  -28.4324 N   0  0  0  0  0  0  0  0  0  0  0  0
  -10.7702    7.8151  -28.2709 C   0  0  0  0  0  0  0  0  0  0  0  0
  -12.3881    6.1633  -29.2249 C   0  0  0  0  0  0  0  0  0  0  0  0
  -11.7429    4.0542  -30.1331 C   0  0  0  0  0  0  0  0  0  0  0  0
  -10.4396    4.3763  -29.8348 C   0  0  0  0  0  0  0  0  0  0  0  0
  1  6  1  0
  1 15  2  0
 16  1  1  0
  2  4  2  0
 19  2  1  0
  2 20  1  0
 20  3  2  0
  3 21  1  0
  4 22  1  0
  5  6  2  0
 18  5  1  0
  8  7  1  0
  8  9  1  0
 12  8  2  0
 10  9  1  0
 11 10  2  0
 11 12  1  0
 13 11  1  0
 13 14  2  0
 17 13  1  0
 15 14  1  0
 16 17  2  0
 18 16  1  0
 19 18  1  6
 21 22  2  0
M  END
$$$$
