
     RDKit          3D

 22 25  0  0  0  0  0  0  0  0999 V2000
  -21.9353   18.7426  -14.8873 C   0  0  0  0  0  0  0  0  0  0  0  0
  -23.1620   20.1417  -10.7258 C   0  0  0  0  0  0  0  0  0  0  0  0
  -25.4036   19.2376  -10.4240 C   0  0  0  0  0  0  0  0  0  0  0  0
  -23.3500   20.9242   -9.6066 C   0  0  0  0  0  0  0  0  0  0  0  0
  -23.2848   19.8965  -13.5738 C   0  0  0  0  0  0  0  0  0  0  0  0
  -23.1823   19.3282  -14.8044 C   0  0  0  0  0  0  0  0  0  0  0  0
  -14.8866   15.5689  -14.5485 N   0  0  0  0  0  0  0  0  0  0  0  0
  -16.0150   16.3397  -14.1669 C   0  0  0  0  0  0  0  0  0  0  0  0
  -16.0753   17.0495  -13.0258 N   0  0  0  0  0  0  0  0  0  0  0  0
  -17.2549   17.6349  -12.9963 N   0  0  0  0  0  0  0  0  0  0  0  0
  -17.9872   17.3399  -14.0816 C   0  0  0  0  0  0  0  0  0  0  0  0
  -17.2060   16.5052  -14.8504 C   0  0  0  0  0  0  0  0  0  0  0  0
  -19.3511   17.8099  -14.3943 C   0  0  0  0  0  0  0  0  0  0  0  0
  -19.9671   17.5700  -15.5988 C   0  0  0  0  0  0  0  0  0  0  0  0
  -21.2626   18.0322  -15.8587 C   0  0  0  0  0  0  0  0  0  0  0  0
  -21.3373   18.9960  -13.6700 C   0  0  0  0  0  0  0  0  0  0  0  0
  -20.0440   18.5206  -13.4433 C   0  0  0  0  0  0  0  0  0  0  0  0
  -22.1401   19.6883  -12.8748 N   0  0  0  0  0  0  0  0  0  0  0  0
  -21.8983   20.1579  -11.5265 C   0  0  0  0  0  0  0  0  0  0  0  0
  -24.2122   19.3020  -11.1147 C   0  0  0  0  0  0  0  0  0  0  0  0
  -25.5859   20.0241   -9.3033 C   0  0  0  0  0  0  0  0  0  0  0  0
  -24.5588   20.8518   -8.9148 C   0  0  0  0  0  0  0  0  0  0  0  0
  1  6  1  0
  1 15  2  0
 16  1  1  0
  2  4  2  0
 19  2  1  0
  2 20  1  0
 20  3  2  0
  3 21  1  0
  4 22  1  0
  5  6  2  0
 18  5  1  0
  8  7  1  0
  8  9  1  0
 12  8  2  0
 10  9  1  0
 11 10  2  0
 11 12  1  0
 13 11  1  0
 13 14  2  0
 17 13  1  0
 15 14  1  0
 16 17  2  0
 18 16  1  0
 19 18  1  6
 21 22  2  0
M  END
$$$$
