
     RDKit          3D

 22 25  0  0  0  0  0  0  0  0999 V2000
  -19.6777   16.4068  -17.6195 C   0  0  0  0  0  0  0  0  0  0  0  0
  -22.3459   17.0534  -13.9412 C   0  0  0  0  0  0  0  0  0  0  0  0
  -24.2700   18.5344  -14.1356 C   0  0  0  0  0  0  0  0  0  0  0  0
  -23.1481   16.1293  -13.3065 C   0  0  0  0  0  0  0  0  0  0  0  0
  -21.6025   16.7328  -16.5867 C   0  0  0  0  0  0  0  0  0  0  0  0
  -21.0350   16.5678  -17.8109 C   0  0  0  0  0  0  0  0  0  0  0  0
  -12.2617   15.2756  -15.7249 N   0  0  0  0  0  0  0  0  0  0  0  0
  -13.6278   15.6324  -15.5850 C   0  0  0  0  0  0  0  0  0  0  0  0
  -14.1592   16.0924  -14.4381 N   0  0  0  0  0  0  0  0  0  0  0  0
  -15.4361   16.3201  -14.6674 N   0  0  0  0  0  0  0  0  0  0  0  0
  -15.7774   16.0273  -15.9320 C   0  0  0  0  0  0  0  0  0  0  0  0
  -14.6252   15.5817  -16.5418 C   0  0  0  0  0  0  0  0  0  0  0  0
  -17.1120   16.1541  -16.5497 C   0  0  0  0  0  0  0  0  0  0  0  0
  -17.3185   16.0793  -17.9060 C   0  0  0  0  0  0  0  0  0  0  0  0
  -18.6001   16.2044  -18.4552 C   0  0  0  0  0  0  0  0  0  0  0  0
  -19.4951   16.4855  -16.2542 C   0  0  0  0  0  0  0  0  0  0  0  0
  -18.2035   16.3565  -15.7391 C   0  0  0  0  0  0  0  0  0  0  0  0
  -20.6453   16.6813  -15.6258 N   0  0  0  0  0  0  0  0  0  0  0  0
  -20.8916   16.8223  -14.2058 C   0  0  0  0  0  0  0  0  0  0  0  0
  -22.9366   18.2554  -14.3479 C   0  0  0  0  0  0  0  0  0  0  0  0
  -25.0686   17.6045  -13.4990 C   0  0  0  0  0  0  0  0  0  0  0  0
  -24.4956   16.4210  -13.0964 C   0  0  0  0  0  0  0  0  0  0  0  0
  1  6  1  0
  1 15  2  0
 16  1  1  0
  2  4  2  0
 19  2  1  0
  2 20  1  0
 20  3  2  0
  3 21  1  0
  4 22  1  0
  5  6  2  0
 18  5  1  0
  8  7  1  0
  8  9  1  0
 12  8  2  0
 10  9  1  0
 11 10  2  0
 11 12  1  0
 13 11  1  0
 13 14  2  0
 17 13  1  0
 15 14  1  0
 16 17  2  0
 18 16  1  0
 19 18  1  6
 21 22  2  0
M  END
$$$$
