
     RDKit          3D

 22 25  0  0  0  0  0  0  0  0999 V2000
  -23.5733   18.3580  -11.9014 C   0  0  0  0  0  0  0  0  0  0  0  0
  -22.8833   21.8348   -9.2022 C   0  0  0  0  0  0  0  0  0  0  0  0
  -22.4324   23.1737   -7.2179 C   0  0  0  0  0  0  0  0  0  0  0  0
  -23.3892   20.8416   -8.3909 C   0  0  0  0  0  0  0  0  0  0  0  0
  -24.6719   20.1109  -11.1279 C   0  0  0  0  0  0  0  0  0  0  0  0
  -24.8284   18.8446  -11.5969 C   0  0  0  0  0  0  0  0  0  0  0  0
  -16.2498   16.3032  -13.3223 N   0  0  0  0  0  0  0  0  0  0  0  0
  -17.3513   17.1111  -12.9383 C   0  0  0  0  0  0  0  0  0  0  0  0
  -17.2257   18.3818  -12.5153 N   0  0  0  0  0  0  0  0  0  0  0  0
  -18.4377   18.8217  -12.2466 N   0  0  0  0  0  0  0  0  0  0  0  0
  -19.3720   17.8858  -12.4762 C   0  0  0  0  0  0  0  0  0  0  0  0
  -18.6925   16.7738  -12.9232 C   0  0  0  0  0  0  0  0  0  0  0  0
  -20.8307   18.0145  -12.2900 C   0  0  0  0  0  0  0  0  0  0  0  0
  -21.7149   17.0070  -12.5915 C   0  0  0  0  0  0  0  0  0  0  0  0
  -23.0926   17.1665  -12.4013 C   0  0  0  0  0  0  0  0  0  0  0  0
  -22.7047   19.3842  -11.5913 C   0  0  0  0  0  0  0  0  0  0  0  0
  -21.3363   19.1922  -11.7931 C   0  0  0  0  0  0  0  0  0  0  0  0
  -23.3554   20.4408  -11.1263 N   0  0  0  0  0  0  0  0  0  0  0  0
  -22.8237   21.7160  -10.6923 C   0  0  0  0  0  0  0  0  0  0  0  0
  -22.4085   22.9980   -8.5851 C   0  0  0  0  0  0  0  0  0  0  0  0
  -22.9405   22.1749   -6.4105 C   0  0  0  0  0  0  0  0  0  0  0  0
  -23.4090   21.0289   -7.0091 C   0  0  0  0  0  0  0  0  0  0  0  0
  1  6  1  0
  1 15  2  0
 16  1  1  0
  2  4  2  0
 19  2  1  0
  2 20  1  0
 20  3  2  0
  3 21  1  0
  4 22  1  0
  5  6  2  0
 18  5  1  0
  8  7  1  0
  8  9  1  0
 12  8  2  0
 10  9  1  0
 11 10  2  0
 11 12  1  0
 13 11  1  0
 13 14  2  0
 17 13  1  0
 15 14  1  0
 16 17  2  0
 18 16  1  0
 19 18  1  6
 21 22  2  0
M  END
$$$$
