
     RDKit          3D

 63 63  0  0  0  0  0  0  0  0999 V2000
  -16.7092  -24.2582   19.2841 C   0  0  2  0  0  0  0  0  0  0  0  0
  -17.3742  -24.3391   20.6609 C   0  0  2  0  0  0  0  0  0  0  0  0
  -16.6844  -25.4755   21.3658 C   0  0  2  0  0  0  0  0  0  0  0  0
  -17.0441  -26.7568   20.6557 C   0  0  2  0  0  0  0  0  0  0  0  0
  -16.4644  -25.6477   18.7082 C   0  0  1  0  0  0  0  0  0  0  0  0
   -3.9518  -38.3058    9.1687 C   0  0  0  0  0  0  0  0  0  0  0  0
   -5.0985  -37.3707    9.4738 C   0  0  0  0  0  0  0  0  0  0  0  0
   -5.4281  -36.4426    8.3341 C   0  0  0  0  0  0  0  0  0  0  0  0
   -6.5976  -35.5514    8.5666 C   0  0  0  0  0  0  0  0  0  0  0  0
   -6.3801  -34.4689    9.5894 C   0  0  0  0  0  0  0  0  0  0  0  0
   -7.7363  -33.9985   10.0545 C   0  0  0  0  0  0  0  0  0  0  0  0
   -7.7255  -32.5038   10.4080 C   0  0  0  0  0  0  0  0  0  0  0  0
   -8.6220  -31.8341    9.4263 C   0  0  0  0  0  0  0  0  0  0  0  0
   -8.8467  -30.3971    9.6228 C   0  0  0  0  0  0  0  0  0  0  0  0
   -8.9716  -29.7802   10.9346 C   0  0  0  0  0  0  0  0  0  0  0  0
   -9.8913  -28.7269   11.3175 C   0  0  0  0  0  0  0  0  0  0  0  0
  -10.3222  -28.5361   12.6974 C   0  0  0  0  0  0  0  0  0  0  0  0
  -11.4963  -27.8204   13.1281 C   0  0  0  0  0  0  0  0  0  0  0  0
  -11.9926  -27.5720   14.4700 C   0  0  0  0  0  0  0  0  0  0  0  0
  -13.3395  -27.7099   14.9712 C   0  0  1  0  0  0  0  0  0  0  0  0
  -13.6725  -29.1587   14.8858 O   0  0  0  0  0  0  0  0  0  0  0  0
  -13.8279  -27.3160   16.2827 C   0  0  1  0  0  0  0  0  0  0  0  0
  -13.5432  -28.4427   17.1524 O   0  0  0  0  0  0  0  0  0  0  0  0
  -13.3894  -26.1198   16.9765 C   0  0  2  0  0  0  0  0  0  0  0  0
  -14.4129  -25.2966   17.7215 C   0  0  0  0  0  0  0  0  0  0  0  0
  -15.1029  -25.9479   18.7036 O   0  0  0  0  0  0  0  0  0  0  0  0
  -15.5331  -23.5648   19.4626 O   0  0  0  0  0  0  0  0  0  0  0  0
  -18.7445  -24.5326   20.5704 O   0  0  0  0  0  0  0  0  0  0  0  0
  -17.2059  -26.6286   19.2991 O   0  0  0  0  0  0  0  0  0  0  0  0
  -18.3005  -27.3720   21.2424 C   0  0  0  0  0  0  0  0  0  0  0  0
  -18.0651  -28.6881   21.6555 O   0  0  0  0  0  0  0  0  0  0  0  0
  -16.9953  -25.5819   22.7118 O   0  0  0  0  0  0  0  0  0  0  0  0
  -17.7716  -24.5020   23.1003 C   0  0  0  0  0  0  0  0  0  0  0  0
  -19.1248  -24.4544   22.4703 C   0  0  0  0  0  0  0  0  0  0  0  0
  -20.2093  -23.9274   23.3511 C   0  0  0  0  0  0  0  0  0  0  0  0
  -12.9029  -25.1814   15.9200 N   0  0  0  0  0  0  0  0  0  0  0  0
  -11.7362  -24.4265   16.1336 C   0  0  0  0  0  0  0  0  0  0  0  0
  -11.0752  -24.6062   17.2079 O   0  0  0  0  0  0  0  0  0  0  0  0
  -11.2799  -23.4193   15.1142 C   0  0  0  0  0  0  0  0  0  0  0  0
   -9.9802  -22.8652   15.6504 C   0  0  0  0  0  0  0  0  0  0  0  0
   -9.7761  -21.3955   15.3576 C   0  0  0  0  0  0  0  0  0  0  0  0
   -9.8712  -20.6580   16.6716 C   0  0  0  0  0  0  0  0  0  0  0  0
   -8.9535  -19.4647   16.7663 C   0  0  0  0  0  0  0  0  0  0  0  0
   -9.1455  -18.7458   18.0594 C   0  0  0  0  0  0  0  0  0  0  0  0
   -8.1059  -17.6301   18.2730 C   0  0  0  0  0  0  0  0  0  0  0  0
   -7.3502  -17.8562   19.5222 C   0  0  0  0  0  0  0  0  0  0  0  0
   -6.2529  -16.9306   19.8264 C   0  0  0  0  0  0  0  0  0  0  0  0
   -5.3808  -17.0047   20.9937 C   0  0  0  0  0  0  0  0  0  0  0  0
   -4.2317  -16.0896   21.1317 C   0  0  0  0  0  0  0  0  0  0  0  0
   -4.2395  -15.2746   22.4378 C   0  0  0  0  0  0  0  0  0  0  0  0
   -2.9979  -15.4871   23.2145 C   0  0  0  0  0  0  0  0  0  0  0  0
   -3.2101  -15.1799   24.7091 C   0  0  0  0  0  0  0  0  0  0  0  0
   -4.4859  -15.7475   25.1787 C   0  0  0  0  0  0  0  0  0  0  0  0
   -5.3273  -14.8868   26.0288 C   0  0  0  0  0  0  0  0  0  0  0  0
   -6.7496  -14.6959   25.8066 C   0  0  0  0  0  0  0  0  0  0  0  0
   -7.7956  -15.3542   26.6181 C   0  0  0  0  0  0  0  0  0  0  0  0
   -8.1732  -14.6142   27.8594 C   0  0  0  0  0  0  0  0  0  0  0  0
   -8.5107  -15.5616   28.9790 C   0  0  0  0  0  0  0  0  0  0  0  0
   -9.1734  -14.8753   30.1481 C   0  0  0  0  0  0  0  0  0  0  0  0
  -10.4661  -15.5265   30.5558 C   0  0  0  0  0  0  0  0  0  0  0  0
  -10.7305  -15.4830   32.0295 C   0  0  0  0  0  0  0  0  0  0  0  0
  -12.0639  -16.1368   32.3440 C   0  0  0  0  0  0  0  0  0  0  0  0
  -12.7000  -15.4580   33.5263 C   0  0  0  0  0  0  0  0  0  0  0  0
  1  2  1  0
  5  1  1  0
  1 27  1  1
  2  3  1  0
  2 28  1  6
  4  3  1  0
  3 32  1  1
 29  4  1  0
  4 30  1  1
  5 26  1  1
  5 29  1  0
  7  6  1  0
  8  7  1  0
  9  8  1  0
 10  9  1  0
 11 10  1  0
 12 11  1  0
 13 12  1  0
 14 13  1  0
 15 14  1  0
 16 15  1  0
 17 16  1  0
 18 17  1  0
 19 18  1  0
 20 19  1  0
 20 21  1  1
 22 20  1  0
 22 23  1  1
 24 22  1  0
 24 25  1  6
 24 36  1  0
 25 26  1  0
 30 31  1  0
 32 33  1  0
 33 34  1  0
 34 35  1  0
 36 37  1  0
 37 38  2  0
 37 39  1  0
 39 40  1  0
 40 41  1  0
 41 42  1  0
 42 43  1  0
 43 44  1  0
 44 45  1  0
 45 46  1  0
 46 47  1  0
 47 48  1  0
 48 49  1  0
 49 50  1  0
 50 51  1  0
 51 52  1  0
 52 53  1  0
 53 54  1  0
 54 55  1  0
 55 56  1  0
 56 57  1  0
 57 58  1  0
 58 59  1  0
 59 60  1  0
 60 61  1  0
 61 62  1  0
 62 63  1  0
M  END
$$$$
