
     RDKit          3D

 63 63  0  0  0  0  0  0  0  0999 V2000
  -19.0174  -29.2735   19.8662 C   0  0  2  0  0  0  0  0  0  0  0  0
  -20.0608  -28.1879   19.5885 C   0  0  2  0  0  0  0  0  0  0  0  0
  -19.2670  -26.9573   19.2428 C   0  0  2  0  0  0  0  0  0  0  0  0
  -18.5256  -26.5133   20.4792 C   0  0  2  0  0  0  0  0  0  0  0  0
  -17.8424  -28.7176   20.6616 C   0  0  1  0  0  0  0  0  0  0  0  0
   -4.0578  -28.8246    5.3476 C   0  0  0  0  0  0  0  0  0  0  0  0
   -4.5743  -29.6349    6.5134 C   0  0  0  0  0  0  0  0  0  0  0  0
   -5.1348  -28.7869    7.6250 C   0  0  0  0  0  0  0  0  0  0  0  0
   -5.6078  -29.5438    8.8163 C   0  0  0  0  0  0  0  0  0  0  0  0
   -7.0902  -29.7998    8.8610 C   0  0  0  0  0  0  0  0  0  0  0  0
   -7.6718  -28.9370    9.9538 C   0  0  0  0  0  0  0  0  0  0  0  0
   -6.8108  -28.9781   11.2251 C   0  0  0  0  0  0  0  0  0  0  0  0
   -7.4532  -28.0515   12.1970 C   0  0  0  0  0  0  0  0  0  0  0  0
   -8.8016  -28.4133   12.6497 C   0  0  0  0  0  0  0  0  0  0  0  0
   -9.6749  -27.4986   13.3691 C   0  0  0  0  0  0  0  0  0  0  0  0
  -10.6991  -27.8497   14.3332 C   0  0  0  0  0  0  0  0  0  0  0  0
  -11.4780  -26.8404   15.0408 C   0  0  0  0  0  0  0  0  0  0  0  0
  -12.5273  -27.0938   15.9954 C   0  0  0  0  0  0  0  0  0  0  0  0
  -12.5039  -27.8841   17.2134 C   0  0  0  0  0  0  0  0  0  0  0  0
  -13.2429  -29.0855   17.5210 C   0  0  1  0  0  0  0  0  0  0  0  0
  -12.2368  -30.1027   17.9338 O   0  0  0  0  0  0  0  0  0  0  0  0
  -14.3074  -29.2294   18.5008 C   0  0  1  0  0  0  0  0  0  0  0  0
  -14.4818  -30.6603   18.6705 O   0  0  0  0  0  0  0  0  0  0  0  0
  -14.2612  -28.6448   19.8277 C   0  0  2  0  0  0  0  0  0  0  0  0
  -15.5537  -28.4689   20.5885 C   0  0  0  0  0  0  0  0  0  0  0  0
  -16.6998  -28.6404   19.8663 O   0  0  0  0  0  0  0  0  0  0  0  0
  -18.6216  -29.7530   18.6378 O   0  0  0  0  0  0  0  0  0  0  0  0
  -20.9032  -27.9816   20.6708 O   0  0  0  0  0  0  0  0  0  0  0  0
  -18.1114  -27.5382   21.2922 O   0  0  0  0  0  0  0  0  0  0  0  0
  -19.3592  -25.5456   21.2976 C   0  0  0  0  0  0  0  0  0  0  0  0
  -18.6565  -25.1154   22.4287 O   0  0  0  0  0  0  0  0  0  0  0  0
  -20.0283  -25.9095   18.7506 O   0  0  0  0  0  0  0  0  0  0  0  0
  -20.1808  -24.9408   19.7294 C   0  0  0  0  0  0  0  0  0  0  0  0
  -21.5917  -24.5066   19.9556 C   0  0  0  0  0  0  0  0  0  0  0  0
  -21.7663  -23.0450   20.2064 C   0  0  0  0  0  0  0  0  0  0  0  0
  -13.7800  -27.2415   19.6470 N   0  0  0  0  0  0  0  0  0  0  0  0
  -14.3687  -26.1967   20.3809 C   0  0  0  0  0  0  0  0  0  0  0  0
  -14.5279  -26.3406   21.6368 O   0  0  0  0  0  0  0  0  0  0  0  0
  -14.8090  -24.9333   19.6939 C   0  0  0  0  0  0  0  0  0  0  0  0
  -13.9264  -23.8423   20.2546 C   0  0  0  0  0  0  0  0  0  0  0  0
  -14.1387  -22.4921   19.6070 C   0  0  0  0  0  0  0  0  0  0  0  0
  -13.2474  -21.5055   20.3224 C   0  0  0  0  0  0  0  0  0  0  0  0
  -11.7744  -21.7754   20.1416 C   0  0  0  0  0  0  0  0  0  0  0  0
  -10.9561  -20.8453   20.9728 C   0  0  0  0  0  0  0  0  0  0  0  0
   -9.5456  -20.6255   20.3954 C   0  0  0  0  0  0  0  0  0  0  0  0
   -9.3249  -19.1964   20.0925 C   0  0  0  0  0  0  0  0  0  0  0  0
   -7.9366  -18.7371   19.9696 C   0  0  0  0  0  0  0  0  0  0  0  0
   -6.8626  -19.4571   19.2939 C   0  0  0  0  0  0  0  0  0  0  0  0
   -5.4658  -19.3228   19.7500 C   0  0  0  0  0  0  0  0  0  0  0  0
   -5.1618  -17.9770   20.4330 C   0  0  0  0  0  0  0  0  0  0  0  0
   -5.0372  -18.1315   21.8995 C   0  0  0  0  0  0  0  0  0  0  0  0
   -4.7366  -16.7842   22.5833 C   0  0  0  0  0  0  0  0  0  0  0  0
   -4.4686  -16.9799   24.0187 C   0  0  0  0  0  0  0  0  0  0  0  0
   -3.4323  -16.1271   24.6272 C   0  0  0  0  0  0  0  0  0  0  0  0
   -2.3271  -15.5594   23.8756 C   0  0  0  0  0  0  0  0  0  0  0  0
   -0.9170  -15.6455   24.3118 C   0  0  0  0  0  0  0  0  0  0  0  0
   -0.5126  -14.6081   25.3074 C   0  0  0  0  0  0  0  0  0  0  0  0
    0.5602  -15.1235   26.2284 C   0  0  0  0  0  0  0  0  0  0  0  0
    1.8532  -14.3545   26.1106 C   0  0  0  0  0  0  0  0  0  0  0  0
    2.5007  -14.0866   27.4412 C   0  0  0  0  0  0  0  0  0  0  0  0
    3.7888  -13.3278   27.3486 C   0  0  0  0  0  0  0  0  0  0  0  0
    4.3822  -13.1287   28.7316 C   0  0  0  0  0  0  0  0  0  0  0  0
    5.8310  -13.5341   28.7295 C   0  0  0  0  0  0  0  0  0  0  0  0
  1  2  1  0
  5  1  1  0
  1 27  1  6
  2  3  1  0
  2 28  1  1
  4  3  1  0
  3 32  1  1
 29  4  1  0
  4 30  1  1
  5 26  1  6
  5 29  1  0
  7  6  1  0
  8  7  1  0
  9  8  1  0
 10  9  1  0
 11 10  1  0
 12 11  1  0
 13 12  1  0
 14 13  1  0
 15 14  1  0
 16 15  1  0
 17 16  1  0
 18 17  1  0
 19 18  1  0
 20 19  1  0
 20 21  1  1
 22 20  1  0
 22 23  1  1
 24 22  1  0
 24 25  1  6
 24 36  1  0
 25 26  1  0
 30 31  1  0
 32 33  1  0
 33 34  1  0
 34 35  1  0
 36 37  1  0
 37 38  2  0
 37 39  1  0
 39 40  1  0
 40 41  1  0
 41 42  1  0
 42 43  1  0
 43 44  1  0
 44 45  1  0
 45 46  1  0
 46 47  1  0
 47 48  1  0
 48 49  1  0
 49 50  1  0
 50 51  1  0
 51 52  1  0
 52 53  1  0
 53 54  1  0
 54 55  1  0
 55 56  1  0
 56 57  1  0
 57 58  1  0
 58 59  1  0
 59 60  1  0
 60 61  1  0
 61 62  1  0
 62 63  1  0
M  END
$$$$
