
     RDKit          3D

 63 63  0  0  0  0  0  0  0  0999 V2000
  -17.3413  -28.4495   18.2064 C   0  0  2  0  0  0  0  0  0  0  0  0
  -18.5174  -27.5286   18.5423 C   0  0  2  0  0  0  0  0  0  0  0  0
  -17.8924  -26.2142   18.9243 C   0  0  2  0  0  0  0  0  0  0  0  0
  -17.1374  -26.4102   20.2155 C   0  0  2  0  0  0  0  0  0  0  0  0
  -16.1945  -28.2603   19.1921 C   0  0  1  0  0  0  0  0  0  0  0  0
   -6.5165  -34.0621    3.6149 C   0  0  0  0  0  0  0  0  0  0  0  0
   -6.7635  -33.0138    4.6744 C   0  0  0  0  0  0  0  0  0  0  0  0
   -7.8575  -33.3898    5.6392 C   0  0  0  0  0  0  0  0  0  0  0  0
   -7.9789  -32.5037    6.8291 C   0  0  0  0  0  0  0  0  0  0  0  0
   -9.2506  -31.7017    6.8990 C   0  0  0  0  0  0  0  0  0  0  0  0
   -8.8845  -30.2963    7.3082 C   0  0  0  0  0  0  0  0  0  0  0  0
   -8.6343  -30.1948    8.8203 C   0  0  0  0  0  0  0  0  0  0  0  0
   -8.3498  -28.7614    9.1032 C   0  0  0  0  0  0  0  0  0  0  0  0
   -8.0244  -28.4230   10.4938 C   0  0  0  0  0  0  0  0  0  0  0  0
   -8.5745  -29.1332   11.6383 C   0  0  0  0  0  0  0  0  0  0  0  0
   -9.1040  -28.5475   12.8541 C   0  0  0  0  0  0  0  0  0  0  0  0
   -8.3978  -28.6299   14.1272 C   0  0  0  0  0  0  0  0  0  0  0  0
   -8.8821  -28.1539   15.3982 C   0  0  0  0  0  0  0  0  0  0  0  0
  -10.1220  -28.4547   16.0916 C   0  0  0  0  0  0  0  0  0  0  0  0
  -10.8392  -27.6427   17.0458 C   0  0  1  0  0  0  0  0  0  0  0  0
  -11.1881  -26.3778   16.3418 O   0  0  0  0  0  0  0  0  0  0  0  0
  -12.0597  -27.9976   17.7518 C   0  0  1  0  0  0  0  0  0  0  0  0
  -11.7454  -29.2182   18.4716 O   0  0  0  0  0  0  0  0  0  0  0  0
  -12.7335  -27.1137   18.6841 C   0  0  2  0  0  0  0  0  0  0  0  0
  -13.9953  -27.5963   19.3587 C   0  0  0  0  0  0  0  0  0  0  0  0
  -15.1162  -27.6234   18.5794 O   0  0  0  0  0  0  0  0  0  0  0  0
  -16.9640  -28.1413   16.9187 O   0  0  0  0  0  0  0  0  0  0  0  0
  -19.3142  -28.0439   19.5537 O   0  0  0  0  0  0  0  0  0  0  0  0
  -16.5614  -27.6479   20.3547 O   0  0  0  0  0  0  0  0  0  0  0  0
  -18.0288  -26.1476   21.4145 C   0  0  0  0  0  0  0  0  0  0  0  0
  -17.5338  -25.0866   22.1808 O   0  0  0  0  0  0  0  0  0  0  0  0
  -18.7968  -25.1737   19.0630 O   0  0  0  0  0  0  0  0  0  0  0  0
  -20.0129  -25.6661   19.5085 C   0  0  0  0  0  0  0  0  0  0  0  0
  -20.6027  -24.9127   20.6552 C   0  0  0  0  0  0  0  0  0  0  0  0
  -22.0039  -25.2940   21.0027 C   0  0  0  0  0  0  0  0  0  0  0  0
  -13.2036  -25.9438   17.8817 N   0  0  0  0  0  0  0  0  0  0  0  0
  -12.8136  -24.6421   18.2422 C   0  0  0  0  0  0  0  0  0  0  0  0
  -12.7825  -24.3288   19.4768 O   0  0  0  0  0  0  0  0  0  0  0  0
  -12.4456  -23.6346   17.1879 C   0  0  0  0  0  0  0  0  0  0  0  0
  -11.6556  -22.5676   17.9099 C   0  0  0  0  0  0  0  0  0  0  0  0
  -12.4986  -21.4136   18.4047 C   0  0  0  0  0  0  0  0  0  0  0  0
  -11.5620  -20.4103   19.0340 C   0  0  0  0  0  0  0  0  0  0  0  0
  -12.2624  -19.2099   19.6201 C   0  0  0  0  0  0  0  0  0  0  0  0
  -11.5366  -17.9512   19.2815 C   0  0  0  0  0  0  0  0  0  0  0  0
  -10.1423  -17.8823   19.9312 C   0  0  0  0  0  0  0  0  0  0  0  0
  -10.2234  -17.2659   21.2716 C   0  0  0  0  0  0  0  0  0  0  0  0
   -9.0473  -16.5307   21.7507 C   0  0  0  0  0  0  0  0  0  0  0  0
   -8.9121  -15.9125   23.0653 C   0  0  0  0  0  0  0  0  0  0  0  0
   -7.6536  -15.2494   23.4572 C   0  0  0  0  0  0  0  0  0  0  0  0
   -6.7294  -16.1294   24.3184 C   0  0  0  0  0  0  0  0  0  0  0  0
   -5.3766  -15.5408   24.4338 C   0  0  0  0  0  0  0  0  0  0  0  0
   -5.1290  -14.9727   25.8443 C   0  0  0  0  0  0  0  0  0  0  0  0
   -3.7103  -15.1100   26.2165 C   0  0  0  0  0  0  0  0  0  0  0  0
   -3.3623  -14.8598   27.6264 C   0  0  0  0  0  0  0  0  0  0  0  0
   -2.0047  -14.9358   28.1362 C   0  0  0  0  0  0  0  0  0  0  0  0
   -1.6799  -15.0266   29.5757 C   0  0  0  0  0  0  0  0  0  0  0  0
   -1.9373  -13.7745   30.3485 C   0  0  0  0  0  0  0  0  0  0  0  0
   -1.1839  -13.7719   31.6513 C   0  0  0  0  0  0  0  0  0  0  0  0
   -1.7249  -14.7720   32.6434 C   0  0  0  0  0  0  0  0  0  0  0  0
   -1.8803  -14.2024   34.0264 C   0  0  0  0  0  0  0  0  0  0  0  0
   -1.9874  -12.7087   34.0602 C   0  0  0  0  0  0  0  0  0  0  0  0
   -2.1293  -12.2241   35.4918 C   0  0  0  0  0  0  0  0  0  0  0  0
   -2.2257  -10.7230   35.5162 C   0  0  0  0  0  0  0  0  0  0  0  0
  1  2  1  0
  5  1  1  0
  1 27  1  6
  2  3  1  0
  2 28  1  1
  4  3  1  0
  3 32  1  1
 29  4  1  0
  4 30  1  1
  5 26  1  6
  5 29  1  0
  7  6  1  0
  8  7  1  0
  9  8  1  0
 10  9  1  0
 11 10  1  0
 12 11  1  0
 13 12  1  0
 14 13  1  0
 15 14  1  0
 16 15  1  0
 17 16  1  0
 18 17  1  0
 19 18  1  0
 20 19  1  0
 20 21  1  6
 22 20  1  0
 22 23  1  1
 24 22  1  0
 24 25  1  6
 24 36  1  0
 25 26  1  0
 30 31  1  0
 32 33  1  0
 33 34  1  0
 34 35  1  0
 36 37  1  0
 37 38  2  0
 37 39  1  0
 39 40  1  0
 40 41  1  0
 41 42  1  0
 42 43  1  0
 43 44  1  0
 44 45  1  0
 45 46  1  0
 46 47  1  0
 47 48  1  0
 48 49  1  0
 49 50  1  0
 50 51  1  0
 51 52  1  0
 52 53  1  0
 53 54  1  0
 54 55  1  0
 55 56  1  0
 56 57  1  0
 57 58  1  0
 58 59  1  0
 59 60  1  0
 60 61  1  0
 61 62  1  0
 62 63  1  0
M  END
$$$$
