
     RDKit          3D

 63 63  0  0  0  0  0  0  0  0999 V2000
  -17.6756  -27.9271   23.0141 C   0  0  2  0  0  0  0  0  0  0  0  0
  -18.9300  -27.8399   23.8877 C   0  0  2  0  0  0  0  0  0  0  0  0
  -19.9592  -27.1520   23.0323 C   0  0  2  0  0  0  0  0  0  0  0  0
  -19.5099  -25.7294   22.8088 C   0  0  2  0  0  0  0  0  0  0  0  0
  -17.4636  -26.6409   22.2247 C   0  0  1  0  0  0  0  0  0  0  0  0
   -8.0529  -26.0850   10.4570 C   0  0  0  0  0  0  0  0  0  0  0  0
   -7.5679  -24.8550   11.1879 C   0  0  0  0  0  0  0  0  0  0  0  0
   -8.6744  -24.0938   11.8701 C   0  0  0  0  0  0  0  0  0  0  0  0
   -8.2358  -22.8883   12.6253 C   0  0  0  0  0  0  0  0  0  0  0  0
   -9.3504  -22.0589   13.2042 C   0  0  0  0  0  0  0  0  0  0  0  0
   -8.7302  -20.8447   13.8506 C   0  0  0  0  0  0  0  0  0  0  0  0
   -8.4094  -21.0946   15.3317 C   0  0  0  0  0  0  0  0  0  0  0  0
   -9.5794  -20.5949   16.1046 C   0  0  0  0  0  0  0  0  0  0  0  0
   -9.4039  -20.4886   17.5578 C   0  0  0  0  0  0  0  0  0  0  0  0
   -9.5836  -21.6093   18.4681 C   0  0  0  0  0  0  0  0  0  0  0  0
  -10.6457  -21.7799   19.4401 C   0  0  0  0  0  0  0  0  0  0  0  0
  -11.0996  -23.0969   19.8711 C   0  0  0  0  0  0  0  0  0  0  0  0
  -12.4469  -23.6003   19.7836 C   0  0  0  0  0  0  0  0  0  0  0  0
  -13.1002  -24.3238   18.7073 C   0  0  0  0  0  0  0  0  0  0  0  0
  -14.4939  -24.6771   18.5766 C   0  0  1  0  0  0  0  0  0  0  0  0
  -14.6202  -25.4166   17.2903 O   0  0  0  0  0  0  0  0  0  0  0  0
  -15.2874  -25.4607   19.5094 C   0  0  1  0  0  0  0  0  0  0  0  0
  -16.2607  -24.5340   20.0578 O   0  0  0  0  0  0  0  0  0  0  0  0
  -16.0067  -26.6644   19.1373 C   0  0  2  0  0  0  0  0  0  0  0  0
  -16.6860  -27.4678   20.2205 C   0  0  0  0  0  0  0  0  0  0  0  0
  -17.7147  -26.8462   20.8688 O   0  0  0  0  0  0  0  0  0  0  0  0
  -17.8560  -29.0114   22.1850 O   0  0  0  0  0  0  0  0  0  0  0  0
  -18.6960  -27.1614   25.0743 O   0  0  0  0  0  0  0  0  0  0  0  0
  -18.1498  -25.5705   22.7191 O   0  0  0  0  0  0  0  0  0  0  0  0
  -20.0392  -24.8126   23.8953 C   0  0  0  0  0  0  0  0  0  0  0  0
  -19.8398  -23.4699   23.5555 O   0  0  0  0  0  0  0  0  0  0  0  0
  -21.2386  -27.1619   23.5639 O   0  0  0  0  0  0  0  0  0  0  0  0
  -21.1789  -26.9580   24.9330 C   0  0  0  0  0  0  0  0  0  0  0  0
  -22.5078  -26.7797   25.5906 C   0  0  0  0  0  0  0  0  0  0  0  0
  -23.1579  -25.4581   25.3443 C   0  0  0  0  0  0  0  0  0  0  0  0
  -14.9821  -27.6124   18.6036 N   0  0  0  0  0  0  0  0  0  0  0  0
  -14.6642  -27.6056   17.2341 C   0  0  0  0  0  0  0  0  0  0  0  0
  -15.6090  -27.5196   16.3836 O   0  0  0  0  0  0  0  0  0  0  0  0
  -13.2336  -27.7048   16.7806 C   0  0  0  0  0  0  0  0  0  0  0  0
  -13.2875  -28.3638   15.4217 C   0  0  0  0  0  0  0  0  0  0  0  0
  -12.8177  -29.8015   15.4214 C   0  0  0  0  0  0  0  0  0  0  0  0
  -12.2176  -30.0778   14.0637 C   0  0  0  0  0  0  0  0  0  0  0  0
  -11.7722  -31.5066   13.8759 C   0  0  0  0  0  0  0  0  0  0  0  0
  -11.6380  -31.8371   12.4273 C   0  0  0  0  0  0  0  0  0  0  0  0
  -10.3265  -31.3050   11.8208 C   0  0  0  0  0  0  0  0  0  0  0  0
   -9.5824  -32.3940   11.1550 C   0  0  0  0  0  0  0  0  0  0  0  0
   -8.5233  -33.0584   11.9233 C   0  0  0  0  0  0  0  0  0  0  0  0
   -7.2533  -32.4550   12.3128 C   0  0  0  0  0  0  0  0  0  0  0  0
   -7.1695  -31.0143   12.6198 C   0  0  0  0  0  0  0  0  0  0  0  0
   -6.6616  -30.7102   14.0410 C   0  0  0  0  0  0  0  0  0  0  0  0
   -5.7674  -29.5311   14.0542 C   0  0  0  0  0  0  0  0  0  0  0  0
   -5.2362  -29.2442   15.4715 C   0  0  0  0  0  0  0  0  0  0  0  0
   -5.9346  -28.0897   16.0628 C   0  0  0  0  0  0  0  0  0  0  0  0
   -5.1236  -26.8930   16.3485 C   0  0  0  0  0  0  0  0  0  0  0  0
   -4.4364  -26.1335   15.3191 C   0  0  0  0  0  0  0  0  0  0  0  0
   -4.6572  -24.6898   15.0889 C   0  0  0  0  0  0  0  0  0  0  0  0
   -4.1121  -24.1787   13.7956 C   0  0  0  0  0  0  0  0  0  0  0  0
   -3.1291  -25.1478   13.1959 C   0  0  0  0  0  0  0  0  0  0  0  0
   -3.0550  -25.0524   11.6918 C   0  0  0  0  0  0  0  0  0  0  0  0
   -2.1028  -26.0463   11.0863 C   0  0  0  0  0  0  0  0  0  0  0  0
   -1.8733  -25.8524    9.6188 C   0  0  0  0  0  0  0  0  0  0  0  0
   -2.8530  -26.6912    8.8182 C   0  0  0  0  0  0  0  0  0  0  0  0
   -2.5862  -26.5241    7.3471 C   0  0  0  0  0  0  0  0  0  0  0  0
  1  2  1  0
  5  1  1  0
  1 27  1  6
  2  3  1  0
  2 28  1  1
  4  3  1  0
  3 32  1  1
 29  4  1  0
  4 30  1  1
  5 26  1  6
  5 29  1  0
  7  6  1  0
  8  7  1  0
  9  8  1  0
 10  9  1  0
 11 10  1  0
 12 11  1  0
 13 12  1  0
 14 13  1  0
 15 14  1  0
 16 15  1  0
 17 16  1  0
 18 17  1  0
 19 18  1  0
 20 19  1  0
 20 21  1  6
 22 20  1  0
 22 23  1  6
 24 22  1  0
 24 25  1  1
 24 36  1  0
 25 26  1  0
 30 31  1  0
 32 33  1  0
 33 34  1  0
 34 35  1  0
 36 37  1  0
 37 38  2  0
 37 39  1  0
 39 40  1  0
 40 41  1  0
 41 42  1  0
 42 43  1  0
 43 44  1  0
 44 45  1  0
 45 46  1  0
 46 47  1  0
 47 48  1  0
 48 49  1  0
 49 50  1  0
 50 51  1  0
 51 52  1  0
 52 53  1  0
 53 54  1  0
 54 55  1  0
 55 56  1  0
 56 57  1  0
 57 58  1  0
 58 59  1  0
 59 60  1  0
 60 61  1  0
 61 62  1  0
 62 63  1  0
M  END
$$$$
