
     RDKit          3D

 63 63  0  0  0  0  0  0  0  0999 V2000
  -20.4736  -26.5741   20.9936 C   0  0  2  0  0  0  0  0  0  0  0  0
  -21.1035  -25.3729   21.7039 C   0  0  2  0  0  0  0  0  0  0  0  0
  -19.9424  -24.5350   22.1665 C   0  0  2  0  0  0  0  0  0  0  0  0
  -19.2018  -25.3050   23.2315 C   0  0  2  0  0  0  0  0  0  0  0  0
  -19.2521  -27.0828   21.7496 C   0  0  1  0  0  0  0  0  0  0  0  0
   -0.8329  -21.2551   23.1996 C   0  0  0  0  0  0  0  0  0  0  0  0
   -1.9365  -20.9395   22.2174 C   0  0  0  0  0  0  0  0  0  0  0  0
   -2.9507  -19.9645   22.7556 C   0  0  0  0  0  0  0  0  0  0  0  0
   -4.0644  -19.6367   21.8239 C   0  0  0  0  0  0  0  0  0  0  0  0
   -4.4130  -18.1751   21.7371 C   0  0  0  0  0  0  0  0  0  0  0  0
   -5.9131  -18.0681   21.6135 C   0  0  0  0  0  0  0  0  0  0  0  0
   -6.4279  -18.7739   20.3501 C   0  0  0  0  0  0  0  0  0  0  0  0
   -7.8387  -19.1577   20.6294 C   0  0  0  0  0  0  0  0  0  0  0  0
   -8.6690  -19.4836   19.4639 C   0  0  0  0  0  0  0  0  0  0  0  0
  -10.0363  -19.9699   19.5681 C   0  0  0  0  0  0  0  0  0  0  0  0
  -10.5207  -21.2894   19.2128 C   0  0  0  0  0  0  0  0  0  0  0  0
  -11.9329  -21.6445   19.2885 C   0  0  0  0  0  0  0  0  0  0  0  0
  -12.6944  -21.8421   20.4958 C   0  0  0  0  0  0  0  0  0  0  0  0
  -14.0083  -22.4326   20.6791 C   0  0  0  0  0  0  0  0  0  0  0  0
  -14.3700  -23.8298   20.7143 C   0  0  1  0  0  0  0  0  0  0  0  0
  -13.3629  -24.5020   21.5810 O   0  0  0  0  0  0  0  0  0  0  0  0
  -15.6375  -24.3931   21.1502 C   0  0  1  0  0  0  0  0  0  0  0  0
  -16.3469  -23.2967   21.7839 O   0  0  0  0  0  0  0  0  0  0  0  0
  -16.5744  -25.0478   20.2568 C   0  0  2  0  0  0  0  0  0  0  0  0
  -17.9230  -25.4614   20.7959 C   0  0  0  0  0  0  0  0  0  0  0  0
  -18.0818  -26.7938   21.0491 O   0  0  0  0  0  0  0  0  0  0  0  0
  -20.1484  -26.1471   19.7258 O   0  0  0  0  0  0  0  0  0  0  0  0
  -21.9246  -25.7563   22.7538 O   0  0  0  0  0  0  0  0  0  0  0  0
  -19.1923  -26.6647   23.0468 O   0  0  0  0  0  0  0  0  0  0  0  0
  -19.7576  -25.0022   24.6101 C   0  0  0  0  0  0  0  0  0  0  0  0
  -19.7249  -26.1414   25.4220 O   0  0  0  0  0  0  0  0  0  0  0  0
  -20.2994  -23.2875   22.6521 O   0  0  0  0  0  0  0  0  0  0  0  0
  -21.6702  -23.1174   22.5444 C   0  0  0  0  0  0  0  0  0  0  0  0
  -22.4428  -23.5391   23.7509 C   0  0  0  0  0  0  0  0  0  0  0  0
  -23.3110  -22.4783   24.3429 C   0  0  0  0  0  0  0  0  0  0  0  0
  -15.9464  -26.3500   19.8779 N   0  0  0  0  0  0  0  0  0  0  0  0
  -14.6642  -26.3705   19.3016 C   0  0  0  0  0  0  0  0  0  0  0  0
  -13.7051  -25.7976   19.9142 O   0  0  0  0  0  0  0  0  0  0  0  0
  -14.4301  -27.0515   17.9812 C   0  0  0  0  0  0  0  0  0  0  0  0
  -13.6368  -26.0653   17.1554 C   0  0  0  0  0  0  0  0  0  0  0  0
  -12.1395  -26.1894   17.3286 C   0  0  0  0  0  0  0  0  0  0  0  0
  -11.6059  -26.9176   16.1183 C   0  0  0  0  0  0  0  0  0  0  0  0
  -10.1102  -26.8112   15.9558 C   0  0  0  0  0  0  0  0  0  0  0  0
   -9.6641  -27.4601   14.6887 C   0  0  0  0  0  0  0  0  0  0  0  0
   -8.1459  -27.3336   14.4649 C   0  0  0  0  0  0  0  0  0  0  0  0
   -7.7411  -28.0432   13.2339 C   0  0  0  0  0  0  0  0  0  0  0  0
   -6.6587  -27.4536   12.4375 C   0  0  0  0  0  0  0  0  0  0  0  0
   -6.2618  -27.8800   11.0999 C   0  0  0  0  0  0  0  0  0  0  0  0
   -5.0257  -28.6595   10.8964 C   0  0  0  0  0  0  0  0  0  0  0  0
   -4.7495  -29.0135    9.4238 C   0  0  0  0  0  0  0  0  0  0  0  0
   -4.7346  -30.4783    9.2139 C   0  0  0  0  0  0  0  0  0  0  0  0
   -3.2970  -31.0094    9.0582 C   0  0  0  0  0  0  0  0  0  0  0  0
   -2.9207  -31.0768    7.6354 C   0  0  0  0  0  0  0  0  0  0  0  0
   -2.6078  -32.4093    7.0896 C   0  0  0  0  0  0  0  0  0  0  0  0
   -2.1334  -32.6221    5.7337 C   0  0  0  0  0  0  0  0  0  0  0  0
   -2.7913  -32.0460    4.5415 C   0  0  0  0  0  0  0  0  0  0  0  0
   -1.9182  -31.1511    3.7244 C   0  0  0  0  0  0  0  0  0  0  0  0
   -1.1839  -31.9249    2.6628 C   0  0  0  0  0  0  0  0  0  0  0  0
   -1.7473  -31.7036    1.2806 C   0  0  0  0  0  0  0  0  0  0  0  0
   -2.0151  -32.9864    0.5431 C   0  0  0  0  0  0  0  0  0  0  0  0
   -2.7016  -32.7980   -0.7749 C   0  0  0  0  0  0  0  0  0  0  0  0
   -2.5885  -34.0596   -1.6115 C   0  0  0  0  0  0  0  0  0  0  0  0
   -3.8383  -34.8842   -1.4647 C   0  0  0  0  0  0  0  0  0  0  0  0
  1  2  1  0
  5  1  1  0
  1 27  1  6
  2  3  1  0
  2 28  1  1
  4  3  1  0
  3 32  1  1
 29  4  1  0
  4 30  1  1
  5 26  1  6
  5 29  1  0
  7  6  1  0
  8  7  1  0
  9  8  1  0
 10  9  1  0
 11 10  1  0
 12 11  1  0
 13 12  1  0
 14 13  1  0
 15 14  1  0
 16 15  1  0
 17 16  1  0
 18 17  1  0
 19 18  1  0
 20 19  1  0
 20 21  1  1
 22 20  1  0
 22 23  1  6
 24 22  1  0
 24 25  1  1
 24 36  1  0
 25 26  1  0
 30 31  1  0
 32 33  1  0
 33 34  1  0
 34 35  1  0
 36 37  1  0
 37 38  2  0
 37 39  1  0
 39 40  1  0
 40 41  1  0
 41 42  1  0
 42 43  1  0
 43 44  1  0
 44 45  1  0
 45 46  1  0
 46 47  1  0
 47 48  1  0
 48 49  1  0
 49 50  1  0
 50 51  1  0
 51 52  1  0
 52 53  1  0
 53 54  1  0
 54 55  1  0
 55 56  1  0
 56 57  1  0
 57 58  1  0
 58 59  1  0
 59 60  1  0
 60 61  1  0
 61 62  1  0
 62 63  1  0
M  END
$$$$
