
     RDKit          3D

 63 63  0  0  0  0  0  0  0  0999 V2000
  -17.7766  -24.4161   20.6132 C   0  0  2  0  0  0  0  0  0  0  0  0
  -18.4920  -24.5588   21.9593 C   0  0  2  0  0  0  0  0  0  0  0  0
  -17.4562  -25.1130   22.8995 C   0  0  2  0  0  0  0  0  0  0  0  0
  -17.1220  -26.5158   22.4568 C   0  0  2  0  0  0  0  0  0  0  0  0
  -16.8732  -25.6126   20.3399 C   0  0  1  0  0  0  0  0  0  0  0  0
   -8.2813  -16.7842   21.8851 C   0  0  0  0  0  0  0  0  0  0  0  0
   -6.9124  -17.1529   21.3632 C   0  0  0  0  0  0  0  0  0  0  0  0
   -6.9498  -17.8117   20.0091 C   0  0  0  0  0  0  0  0  0  0  0  0
   -5.6168  -18.1050   19.4151 C   0  0  0  0  0  0  0  0  0  0  0  0
   -4.9722  -19.3780   19.8937 C   0  0  0  0  0  0  0  0  0  0  0  0
   -5.3777  -20.4812   18.9475 C   0  0  0  0  0  0  0  0  0  0  0  0
   -4.6402  -21.7921   19.2585 C   0  0  0  0  0  0  0  0  0  0  0  0
   -5.1220  -22.7904   18.2648 C   0  0  0  0  0  0  0  0  0  0  0  0
   -6.1109  -23.7630   18.7444 C   0  0  0  0  0  0  0  0  0  0  0  0
   -7.5424  -23.5036   18.7632 C   0  0  0  0  0  0  0  0  0  0  0  0
   -8.5627  -24.1942   17.9991 C   0  0  0  0  0  0  0  0  0  0  0  0
   -9.9703  -23.8200   18.0672 C   0  0  0  0  0  0  0  0  0  0  0  0
  -10.4921  -22.4769   18.0629 C   0  0  0  0  0  0  0  0  0  0  0  0
  -11.8007  -21.9875   18.4588 C   0  0  0  0  0  0  0  0  0  0  0  0
  -12.7414  -22.5784   19.3809 C   0  0  1  0  0  0  0  0  0  0  0  0
  -13.3605  -21.4497   20.1293 O   0  0  0  0  0  0  0  0  0  0  0  0
  -13.8670  -23.4371   19.0497 C   0  0  1  0  0  0  0  0  0  0  0  0
  -14.4546  -22.8561   17.8564 O   0  0  0  0  0  0  0  0  0  0  0  0
  -13.7464  -24.8636   18.8151 C   0  0  2  0  0  0  0  0  0  0  0  0
  -14.7583  -25.7906   19.4451 C   0  0  0  0  0  0  0  0  0  0  0  0
  -15.5304  -25.2493   20.4328 O   0  0  0  0  0  0  0  0  0  0  0  0
  -17.0622  -23.2408   20.6774 O   0  0  0  0  0  0  0  0  0  0  0  0
  -19.6117  -25.3726   21.8740 O   0  0  0  0  0  0  0  0  0  0  0  0
  -17.1639  -26.7083   21.0988 O   0  0  0  0  0  0  0  0  0  0  0  0
  -18.0320  -27.5301   23.1233 C   0  0  0  0  0  0  0  0  0  0  0  0
  -17.2956  -28.4106   23.9235 O   0  0  0  0  0  0  0  0  0  0  0  0
  -17.8423  -25.1204   24.2302 O   0  0  0  0  0  0  0  0  0  0  0  0
  -19.2237  -25.1827   24.3170 C   0  0  0  0  0  0  0  0  0  0  0  0
  -19.7717  -24.8950   25.6761 C   0  0  0  0  0  0  0  0  0  0  0  0
  -21.2583  -24.7697   25.7401 C   0  0  0  0  0  0  0  0  0  0  0  0
  -12.4604  -25.2821   19.4510 N   0  0  0  0  0  0  0  0  0  0  0  0
  -12.2094  -26.6430   19.6993 C   0  0  0  0  0  0  0  0  0  0  0  0
  -11.7452  -26.9858   20.8352 O   0  0  0  0  0  0  0  0  0  0  0  0
  -12.4781  -27.6758   18.6395 C   0  0  0  0  0  0  0  0  0  0  0  0
  -11.3233  -28.6470   18.7228 C   0  0  0  0  0  0  0  0  0  0  0  0
  -10.1229  -28.2403   17.8975 C   0  0  0  0  0  0  0  0  0  0  0  0
   -9.0269  -29.2410   18.1751 C   0  0  0  0  0  0  0  0  0  0  0  0
   -7.7146  -28.9041   17.5123 C   0  0  0  0  0  0  0  0  0  0  0  0
   -7.0654  -30.1292   16.9615 C   0  0  0  0  0  0  0  0  0  0  0  0
   -5.6393  -29.8596   16.4472 C   0  0  0  0  0  0  0  0  0  0  0  0
   -5.1313  -31.0223   15.6903 C   0  0  0  0  0  0  0  0  0  0  0  0
   -5.4735  -31.1044   14.2657 C   0  0  0  0  0  0  0  0  0  0  0  0
   -4.6656  -31.7490   13.2359 C   0  0  0  0  0  0  0  0  0  0  0  0
   -5.1066  -31.7515   11.8279 C   0  0  0  0  0  0  0  0  0  0  0  0
   -5.1187  -30.3560   11.1779 C   0  0  0  0  0  0  0  0  0  0  0  0
   -5.8245  -30.3720    9.8773 C   0  0  0  0  0  0  0  0  0  0  0  0
   -4.8342  -30.3029    8.6993 C   0  0  0  0  0  0  0  0  0  0  0  0
   -5.5351  -30.5112    7.4203 C   0  0  0  0  0  0  0  0  0  0  0  0
   -5.8071  -29.3142    6.6050 C   0  0  0  0  0  0  0  0  0  0  0  0
   -6.6823  -29.3231    5.4463 C   0  0  0  0  0  0  0  0  0  0  0  0
   -6.9746  -28.1200    4.6380 C   0  0  0  0  0  0  0  0  0  0  0  0
   -5.8740  -27.7128    3.7138 C   0  0  0  0  0  0  0  0  0  0  0  0
   -6.3941  -27.4536    2.3256 C   0  0  0  0  0  0  0  0  0  0  0  0
   -6.8473  -26.0283    2.1259 C   0  0  0  0  0  0  0  0  0  0  0  0
   -6.4619  -25.4719    0.7830 C   0  0  0  0  0  0  0  0  0  0  0  0
   -5.1302  -24.7864    0.7684 C   0  0  0  0  0  0  0  0  0  0  0  0
   -4.7484  -24.4097   -0.6518 C   0  0  0  0  0  0  0  0  0  0  0  0
   -3.2819  -24.0804   -0.7167 C   0  0  0  0  0  0  0  0  0  0  0  0
  1  2  1  0
  5  1  1  0
  1 27  1  1
  2  3  1  0
  2 28  1  6
  4  3  1  0
  3 32  1  1
 29  4  1  0
  4 30  1  1
  5 26  1  1
  5 29  1  0
  7  6  1  0
  8  7  1  0
  9  8  1  0
 10  9  1  0
 11 10  1  0
 12 11  1  0
 13 12  1  0
 14 13  1  0
 15 14  1  0
 16 15  1  0
 17 16  1  0
 18 17  1  0
 19 18  1  0
 20 19  1  0
 20 21  1  6
 22 20  1  0
 22 23  1  6
 24 22  1  0
 24 25  1  1
 24 36  1  0
 25 26  1  0
 30 31  1  0
 32 33  1  0
 33 34  1  0
 34 35  1  0
 36 37  1  0
 37 38  2  0
 37 39  1  0
 39 40  1  0
 40 41  1  0
 41 42  1  0
 42 43  1  0
 43 44  1  0
 44 45  1  0
 45 46  1  0
 46 47  1  0
 47 48  1  0
 48 49  1  0
 49 50  1  0
 50 51  1  0
 51 52  1  0
 52 53  1  0
 53 54  1  0
 54 55  1  0
 55 56  1  0
 56 57  1  0
 57 58  1  0
 58 59  1  0
 59 60  1  0
 60 61  1  0
 61 62  1  0
 62 63  1  0
M  END
$$$$
