
     RDKit          3D

 63 63  0  0  0  0  0  0  0  0999 V2000
  -12.7161  -20.9441   22.1610 C   0  0  2  0  0  0  0  0  0  0  0  0
  -12.2828  -19.6738   22.8978 C   0  0  2  0  0  0  0  0  0  0  0  0
  -10.7882  -19.6137   22.7345 C   0  0  2  0  0  0  0  0  0  0  0  0
  -10.1848  -20.7641   23.5013 C   0  0  2  0  0  0  0  0  0  0  0  0
  -11.7441  -22.0891   22.4187 C   0  0  1  0  0  0  0  0  0  0  0  0
   -1.8900  -32.8427    7.7892 C   0  0  0  0  0  0  0  0  0  0  0  0
   -2.3809  -31.8428    8.8098 C   0  0  0  0  0  0  0  0  0  0  0  0
   -3.6793  -31.1854    8.4213 C   0  0  0  0  0  0  0  0  0  0  0  0
   -4.1929  -30.1831    9.3947 C   0  0  0  0  0  0  0  0  0  0  0  0
   -5.4894  -29.5246    9.0067 C   0  0  0  0  0  0  0  0  0  0  0  0
   -5.8699  -28.5732   10.1143 C   0  0  0  0  0  0  0  0  0  0  0  0
   -6.4232  -27.2520    9.5595 C   0  0  0  0  0  0  0  0  0  0  0  0
   -6.3097  -26.2550   10.6590 C   0  0  0  0  0  0  0  0  0  0  0  0
   -7.3672  -26.2828   11.6764 C   0  0  0  0  0  0  0  0  0  0  0  0
   -7.5593  -25.2260   12.6578 C   0  0  0  0  0  0  0  0  0  0  0  0
   -8.4874  -25.2303   13.7716 C   0  0  0  0  0  0  0  0  0  0  0  0
   -8.1752  -24.5918   15.0448 C   0  0  0  0  0  0  0  0  0  0  0  0
   -8.3330  -23.1931   15.3535 C   0  0  0  0  0  0  0  0  0  0  0  0
   -8.4969  -22.5385   16.6393 C   0  0  0  0  0  0  0  0  0  0  0  0
   -8.5304  -23.1334   17.9542 C   0  0  1  0  0  0  0  0  0  0  0  0
   -7.1118  -23.3156   18.3685 O   0  0  0  0  0  0  0  0  0  0  0  0
   -9.1742  -22.5937   19.1409 C   0  0  1  0  0  0  0  0  0  0  0  0
   -8.0969  -22.0528   19.9494 O   0  0  0  0  0  0  0  0  0  0  0  0
  -10.2219  -21.5911   19.0998 C   0  0  2  0  0  0  0  0  0  0  0  0
  -11.0966  -21.4053   20.3167 C   0  0  0  0  0  0  0  0  0  0  0  0
  -11.0034  -22.3758   21.2728 O   0  0  0  0  0  0  0  0  0  0  0  0
  -12.7757  -20.6154   20.8253 O   0  0  0  0  0  0  0  0  0  0  0  0
  -12.6645  -19.6853   24.2311 O   0  0  0  0  0  0  0  0  0  0  0  0
  -10.9498  -21.9033   23.5121 O   0  0  0  0  0  0  0  0  0  0  0  0
   -9.8797  -20.3658   24.9328 C   0  0  0  0  0  0  0  0  0  0  0  0
   -8.5828  -20.7497   25.2915 O   0  0  0  0  0  0  0  0  0  0  0  0
  -10.2183  -18.4216   23.1515 O   0  0  0  0  0  0  0  0  0  0  0  0
  -11.1277  -17.7101   23.9174 C   0  0  0  0  0  0  0  0  0  0  0  0
  -10.6321  -17.3334   25.2749 C   0  0  0  0  0  0  0  0  0  0  0  0
  -11.3666  -16.2050   25.9206 C   0  0  0  0  0  0  0  0  0  0  0  0
  -11.1881  -22.0423   18.0529 N   0  0  0  0  0  0  0  0  0  0  0  0
  -11.9861  -23.1782   18.2758 C   0  0  0  0  0  0  0  0  0  0  0  0
  -12.9629  -23.0938   19.0894 O   0  0  0  0  0  0  0  0  0  0  0  0
  -11.6875  -24.4727   17.5707 C   0  0  0  0  0  0  0  0  0  0  0  0
  -12.9210  -24.7788   16.7530 C   0  0  0  0  0  0  0  0  0  0  0  0
  -13.7332  -25.9389   17.2842 C   0  0  0  0  0  0  0  0  0  0  0  0
  -13.1207  -27.2050   16.7351 C   0  0  0  0  0  0  0  0  0  0  0  0
  -14.0897  -28.0614   15.9587 C   0  0  0  0  0  0  0  0  0  0  0  0
  -13.3971  -29.2370   15.3554 C   0  0  0  0  0  0  0  0  0  0  0  0
  -12.5912  -28.8642   14.0975 C   0  0  0  0  0  0  0  0  0  0  0  0
  -12.8653  -29.8180   13.0030 C   0  0  0  0  0  0  0  0  0  0  0  0
  -12.2642  -31.1530   13.1021 C   0  0  0  0  0  0  0  0  0  0  0  0
  -12.1799  -32.1268   12.0190 C   0  0  0  0  0  0  0  0  0  0  0  0
  -12.8436  -33.4393   12.1362 C   0  0  0  0  0  0  0  0  0  0  0  0
  -11.9148  -34.6333   11.8504 C   0  0  0  0  0  0  0  0  0  0  0  0
  -12.6848  -35.8815   11.6523 C   0  0  0  0  0  0  0  0  0  0  0  0
  -13.9260  -35.6427   10.7717 C   0  0  0  0  0  0  0  0  0  0  0  0
  -14.7766  -36.8450   10.7382 C   0  0  0  0  0  0  0  0  0  0  0  0
  -15.1699  -37.3483    9.4102 C   0  0  0  0  0  0  0  0  0  0  0  0
  -16.2173  -38.3342    9.2114 C   0  0  0  0  0  0  0  0  0  0  0  0
  -17.4786  -38.0483    8.4948 C   0  0  0  0  0  0  0  0  0  0  0  0
  -18.5786  -39.0218    8.7655 C   0  0  0  0  0  0  0  0  0  0  0  0
  -18.2625  -39.8863    9.9561 C   0  0  0  0  0  0  0  0  0  0  0  0
  -19.3897  -40.8225   10.3168 C   0  0  0  0  0  0  0  0  0  0  0  0
  -19.0502  -41.7372   11.4611 C   0  0  0  0  0  0  0  0  0  0  0  0
  -20.1425  -42.6991   11.8151 C   0  0  0  0  0  0  0  0  0  0  0  0
  -20.2774  -43.7608   10.7385 C   0  0  0  0  0  0  0  0  0  0  0  0
  -21.5337  -44.5580   10.9612 C   0  0  0  0  0  0  0  0  0  0  0  0
  1  2  1  0
  5  1  1  0
  1 27  1  6
  2  3  1  0
  2 28  1  1
  4  3  1  0
  3 32  1  1
 29  4  1  0
  4 30  1  1
  5 26  1  6
  5 29  1  0
  7  6  1  0
  8  7  1  0
  9  8  1  0
 10  9  1  0
 11 10  1  0
 12 11  1  0
 13 12  1  0
 14 13  1  0
 15 14  1  0
 16 15  1  0
 17 16  1  0
 18 17  1  0
 19 18  1  0
 20 19  1  0
 20 21  1  1
 22 20  1  0
 22 23  1  1
 24 22  1  0
 24 25  1  1
 24 36  1  0
 25 26  1  0
 30 31  1  0
 32 33  1  0
 33 34  1  0
 34 35  1  0
 36 37  1  0
 37 38  2  0
 37 39  1  0
 39 40  1  0
 40 41  1  0
 41 42  1  0
 42 43  1  0
 43 44  1  0
 44 45  1  0
 45 46  1  0
 46 47  1  0
 47 48  1  0
 48 49  1  0
 49 50  1  0
 50 51  1  0
 51 52  1  0
 52 53  1  0
 53 54  1  0
 54 55  1  0
 55 56  1  0
 56 57  1  0
 57 58  1  0
 58 59  1  0
 59 60  1  0
 60 61  1  0
 61 62  1  0
 62 63  1  0
M  END
$$$$
