
     RDKit          3D

 63 63  0  0  0  0  0  0  0  0999 V2000
  -15.6598  -28.7056   18.8653 C   0  0  2  0  0  0  0  0  0  0  0  0
  -16.8680  -28.1842   18.0825 C   0  0  2  0  0  0  0  0  0  0  0  0
  -16.3729  -26.9585   17.3636 C   0  0  2  0  0  0  0  0  0  0  0  0
  -16.0600  -25.9029   18.3948 C   0  0  2  0  0  0  0  0  0  0  0  0
  -14.8738  -27.5604   19.4924 C   0  0  1  0  0  0  0  0  0  0  0  0
   -5.6960  -36.2092    5.0790 C   0  0  0  0  0  0  0  0  0  0  0  0
   -5.3675  -34.8931    5.7439 C   0  0  0  0  0  0  0  0  0  0  0  0
   -6.0366  -33.7128    5.0894 C   0  0  0  0  0  0  0  0  0  0  0  0
   -5.7781  -32.4008    5.7432 C   0  0  0  0  0  0  0  0  0  0  0  0
   -6.1548  -32.3292    7.1986 C   0  0  0  0  0  0  0  0  0  0  0  0
   -6.3167  -30.8729    7.5592 C   0  0  0  0  0  0  0  0  0  0  0  0
   -7.6683  -30.6057    8.2382 C   0  0  0  0  0  0  0  0  0  0  0  0
   -7.4875  -29.3812    9.0652 C   0  0  0  0  0  0  0  0  0  0  0  0
   -8.6561  -28.9334    9.8318 C   0  0  0  0  0  0  0  0  0  0  0  0
   -8.5821  -27.9439   10.8959 C   0  0  0  0  0  0  0  0  0  0  0  0
   -8.5969  -28.1974   12.3232 C   0  0  0  0  0  0  0  0  0  0  0  0
   -8.4525  -27.1275   13.3034 C   0  0  0  0  0  0  0  0  0  0  0  0
   -8.4602  -27.2828   14.7360 C   0  0  0  0  0  0  0  0  0  0  0  0
   -9.5699  -27.5404   15.6365 C   0  0  0  0  0  0  0  0  0  0  0  0
   -9.9482  -26.8183   16.8279 C   0  0  1  0  0  0  0  0  0  0  0  0
   -9.9118  -25.3729   16.4716 O   0  0  0  0  0  0  0  0  0  0  0  0
  -11.1840  -26.9614   17.5804 C   0  0  1  0  0  0  0  0  0  0  0  0
  -10.9056  -27.9694   18.5871 O   0  0  0  0  0  0  0  0  0  0  0  0
  -11.8470  -25.8595   18.2518 C   0  0  2  0  0  0  0  0  0  0  0  0
  -13.1851  -26.1079   18.9060 C   0  0  0  0  0  0  0  0  0  0  0  0
  -13.6489  -27.3910   18.8485 O   0  0  0  0  0  0  0  0  0  0  0  0
  -14.8961  -29.4185   17.9686 O   0  0  0  0  0  0  0  0  0  0  0  0
  -17.9476  -27.9077   18.9079 O   0  0  0  0  0  0  0  0  0  0  0  0
  -15.5747  -26.3934   19.5810 O   0  0  0  0  0  0  0  0  0  0  0  0
  -17.2760  -25.0427   18.6818 C   0  0  0  0  0  0  0  0  0  0  0  0
  -16.8964  -23.7365   19.0103 O   0  0  0  0  0  0  0  0  0  0  0  0
  -17.2596  -26.4516   16.4274 O   0  0  0  0  0  0  0  0  0  0  0  0
  -18.1700  -27.4314   16.0656 C   0  0  0  0  0  0  0  0  0  0  0  0
  -17.8877  -28.0835   14.7521 C   0  0  0  0  0  0  0  0  0  0  0  0
  -18.5367  -29.4144   14.5594 C   0  0  0  0  0  0  0  0  0  0  0  0
  -12.1692  -24.8590   17.1894 N   0  0  0  0  0  0  0  0  0  0  0  0
  -12.0057  -23.4860   17.4443 C   0  0  0  0  0  0  0  0  0  0  0  0
  -11.5487  -23.1204   18.5760 O   0  0  0  0  0  0  0  0  0  0  0  0
  -12.3705  -22.4660   16.4010 C   0  0  0  0  0  0  0  0  0  0  0  0
  -11.1836  -21.5343   16.3175 C   0  0  0  0  0  0  0  0  0  0  0  0
  -10.6130  -21.1502   17.6644 C   0  0  0  0  0  0  0  0  0  0  0  0
  -10.1731  -19.7088   17.5716 C   0  0  0  0  0  0  0  0  0  0  0  0
   -8.8582  -19.4297   18.2559 C   0  0  0  0  0  0  0  0  0  0  0  0
   -8.4286  -18.0190   18.0302 C   0  0  0  0  0  0  0  0  0  0  0  0
   -7.1257  -17.6737   18.7747 C   0  0  0  0  0  0  0  0  0  0  0  0
   -6.1431  -18.7685   18.6377 C   0  0  0  0  0  0  0  0  0  0  0  0
   -5.4084  -19.1732   19.8418 C   0  0  0  0  0  0  0  0  0  0  0  0
   -4.0256  -18.8234   20.1483 C   0  0  0  0  0  0  0  0  0  0  0  0
   -3.4411  -19.1539   21.4621 C   0  0  0  0  0  0  0  0  0  0  0  0
   -3.3585  -17.9553   22.4248 C   0  0  0  0  0  0  0  0  0  0  0  0
   -3.4214  -18.3917   23.8374 C   0  0  0  0  0  0  0  0  0  0  0  0
   -3.3172  -17.1943   24.8010 C   0  0  0  0  0  0  0  0  0  0  0  0
   -4.2184  -17.3755   25.9522 C   0  0  0  0  0  0  0  0  0  0  0  0
   -4.3440  -16.2434   26.8871 C   0  0  0  0  0  0  0  0  0  0  0  0
   -5.3919  -16.1508   27.8880 C   0  0  0  0  0  0  0  0  0  0  0  0
   -6.4260  -15.0941   27.8882 C   0  0  0  0  0  0  0  0  0  0  0  0
   -7.3987  -15.1801   29.0185 C   0  0  0  0  0  0  0  0  0  0  0  0
   -8.3050  -13.9791   29.0520 C   0  0  0  0  0  0  0  0  0  0  0  0
   -9.4082  -14.0482   28.0248 C   0  0  0  0  0  0  0  0  0  0  0  0
  -10.7813  -13.9467   28.6297 C   0  0  0  0  0  0  0  0  0  0  0  0
  -11.6303  -12.8668   28.0325 C   0  0  0  0  0  0  0  0  0  0  0  0
  -12.5276  -12.2561   29.0938 C   0  0  0  0  0  0  0  0  0  0  0  0
  -13.6464  -11.4922   28.4395 C   0  0  0  0  0  0  0  0  0  0  0  0
  1  2  1  0
  5  1  1  0
  1 27  1  6
  2  3  1  0
  2 28  1  1
  4  3  1  0
  3 32  1  6
 29  4  1  0
  4 30  1  1
  5 26  1  6
  5 29  1  0
  7  6  1  0
  8  7  1  0
  9  8  1  0
 10  9  1  0
 11 10  1  0
 12 11  1  0
 13 12  1  0
 14 13  1  0
 15 14  1  0
 16 15  1  0
 17 16  1  0
 18 17  1  0
 19 18  1  0
 20 19  1  0
 20 21  1  6
 22 20  1  0
 22 23  1  1
 24 22  1  0
 24 25  1  6
 24 36  1  0
 25 26  1  0
 30 31  1  0
 32 33  1  0
 33 34  1  0
 34 35  1  0
 36 37  1  0
 37 38  2  0
 37 39  1  0
 39 40  1  0
 40 41  1  0
 41 42  1  0
 42 43  1  0
 43 44  1  0
 44 45  1  0
 45 46  1  0
 46 47  1  0
 47 48  1  0
 48 49  1  0
 49 50  1  0
 50 51  1  0
 51 52  1  0
 52 53  1  0
 53 54  1  0
 54 55  1  0
 55 56  1  0
 56 57  1  0
 57 58  1  0
 58 59  1  0
 59 60  1  0
 60 61  1  0
 61 62  1  0
 62 63  1  0
M  END
$$$$
