
     RDKit          3D

 63 63  0  0  0  0  0  0  0  0999 V2000
  -18.3100  -26.5085   20.0866 C   0  0  2  0  0  0  0  0  0  0  0  0
  -18.4244  -28.0274   20.2421 C   0  0  2  0  0  0  0  0  0  0  0  0
  -17.0117  -28.5125   20.4245 C   0  0  2  0  0  0  0  0  0  0  0  0
  -16.2654  -28.2828   19.1339 C   0  0  2  0  0  0  0  0  0  0  0  0
  -17.1182  -26.1322   19.2146 C   0  0  1  0  0  0  0  0  0  0  0  0
   -4.7439  -13.6508   27.9709 C   0  0  0  0  0  0  0  0  0  0  0  0
   -5.9993  -13.8237   27.1484 C   0  0  0  0  0  0  0  0  0  0  0  0
   -5.8543  -14.8437   26.0495 C   0  0  0  0  0  0  0  0  0  0  0  0
   -7.0861  -15.0858   25.2495 C   0  0  0  0  0  0  0  0  0  0  0  0
   -6.9334  -16.0803   24.1301 C   0  0  0  0  0  0  0  0  0  0  0  0
   -7.7096  -15.5599   22.9454 C   0  0  0  0  0  0  0  0  0  0  0  0
   -8.5772  -16.6576   22.3118 C   0  0  0  0  0  0  0  0  0  0  0  0
   -8.0851  -16.8287   20.9173 C   0  0  0  0  0  0  0  0  0  0  0  0
   -9.0523  -17.3483   19.9434 C   0  0  0  0  0  0  0  0  0  0  0  0
   -9.3425  -18.7650   19.7837 C   0  0  0  0  0  0  0  0  0  0  0  0
   -9.9809  -19.6374   20.7498 C   0  0  0  0  0  0  0  0  0  0  0  0
  -10.7747  -20.7924   20.3475 C   0  0  0  0  0  0  0  0  0  0  0  0
  -12.2096  -20.8335   20.2224 C   0  0  0  0  0  0  0  0  0  0  0  0
  -13.2207  -21.1350   21.2202 C   0  0  0  0  0  0  0  0  0  0  0  0
  -13.5479  -22.4100   21.8130 C   0  0  1  0  0  0  0  0  0  0  0  0
  -14.1093  -22.1145   23.1602 O   0  0  0  0  0  0  0  0  0  0  0  0
  -14.4454  -23.4191   21.2743 C   0  0  1  0  0  0  0  0  0  0  0  0
  -15.6025  -23.4105   22.1507 O   0  0  0  0  0  0  0  0  0  0  0  0
  -14.9422  -23.4061   19.9114 C   0  0  2  0  0  0  0  0  0  0  0  0
  -15.2998  -24.7191   19.2569 C   0  0  0  0  0  0  0  0  0  0  0  0
  -16.1115  -25.5453   19.9801 O   0  0  0  0  0  0  0  0  0  0  0  0
  -18.1932  -25.9969   21.3596 O   0  0  0  0  0  0  0  0  0  0  0  0
  -19.0459  -28.6202   19.1533 O   0  0  0  0  0  0  0  0  0  0  0  0
  -16.6497  -27.1584   18.4475 O   0  0  0  0  0  0  0  0  0  0  0  0
  -16.3844  -29.4827   18.2134 C   0  0  0  0  0  0  0  0  0  0  0  0
  -15.2886  -29.5565   17.3464 O   0  0  0  0  0  0  0  0  0  0  0  0
  -16.9113  -29.8441   20.7940 O   0  0  0  0  0  0  0  0  0  0  0  0
  -18.0781  -30.5124   20.4601 C   0  0  0  0  0  0  0  0  0  0  0  0
  -18.9431  -30.8668   21.6249 C   0  0  0  0  0  0  0  0  0  0  0  0
  -20.4100  -30.7282   21.3828 C   0  0  0  0  0  0  0  0  0  0  0  0
  -13.8198  -22.8993   19.0648 N   0  0  0  0  0  0  0  0  0  0  0  0
  -12.7081  -23.7203   18.8067 C   0  0  0  0  0  0  0  0  0  0  0  0
  -12.0917  -24.2481   19.7890 O   0  0  0  0  0  0  0  0  0  0  0  0
  -12.2503  -23.9662   17.3954 C   0  0  0  0  0  0  0  0  0  0  0  0
  -10.7727  -23.6491   17.3910 C   0  0  0  0  0  0  0  0  0  0  0  0
   -9.9739  -24.4754   16.4079 C   0  0  0  0  0  0  0  0  0  0  0  0
  -10.9038  -25.5201   15.8390 C   0  0  0  0  0  0  0  0  0  0  0  0
  -10.1921  -26.7238   15.2737 C   0  0  0  0  0  0  0  0  0  0  0  0
   -9.9159  -26.5451   13.8186 C   0  0  0  0  0  0  0  0  0  0  0  0
   -9.1183  -27.7193   13.2219 C   0  0  0  0  0  0  0  0  0  0  0  0
   -7.9650  -27.2220   12.4437 C   0  0  0  0  0  0  0  0  0  0  0  0
   -7.5645  -27.9918   11.2603 C   0  0  0  0  0  0  0  0  0  0  0  0
   -7.6616  -27.5336    9.8786 C   0  0  0  0  0  0  0  0  0  0  0  0
   -6.4897  -27.5918    8.9842 C   0  0  0  0  0  0  0  0  0  0  0  0
   -5.5025  -28.7227    9.3261 C   0  0  0  0  0  0  0  0  0  0  0  0
   -5.4819  -29.7594    8.2702 C   0  0  0  0  0  0  0  0  0  0  0  0
   -4.0420  -30.1936    7.9367 C   0  0  0  0  0  0  0  0  0  0  0  0
   -3.8042  -30.1276    6.4843 C   0  0  0  0  0  0  0  0  0  0  0  0
   -2.9227  -31.1563    5.9043 C   0  0  0  0  0  0  0  0  0  0  0  0
   -3.1709  -32.5812    6.0334 C   0  0  0  0  0  0  0  0  0  0  0  0
   -2.1317  -33.6109    5.8189 C   0  0  0  0  0  0  0  0  0  0  0  0
   -2.6155  -35.0171    5.9591 C   0  0  0  0  0  0  0  0  0  0  0  0
   -2.9944  -35.6003    4.6245 C   0  0  0  0  0  0  0  0  0  0  0  0
   -1.9315  -36.5098    4.0590 C   0  0  0  0  0  0  0  0  0  0  0  0
   -2.4893  -37.5744    3.1551 C   0  0  0  0  0  0  0  0  0  0  0  0
   -2.4192  -37.2330    1.6983 C   0  0  0  0  0  0  0  0  0  0  0  0
   -3.7164  -37.6116    1.0066 C   0  0  0  0  0  0  0  0  0  0  0  0
   -3.4363  -38.0328   -0.4102 C   0  0  0  0  0  0  0  0  0  0  0  0
  1  2  1  0
  5  1  1  0
  1 27  1  1
  2  3  1  0
  2 28  1  6
  4  3  1  0
  3 32  1  6
 29  4  1  0
  4 30  1  6
  5 26  1  1
  5 29  1  0
  7  6  1  0
  8  7  1  0
  9  8  1  0
 10  9  1  0
 11 10  1  0
 12 11  1  0
 13 12  1  0
 14 13  1  0
 15 14  1  0
 16 15  1  0
 17 16  1  0
 18 17  1  0
 19 18  1  0
 20 19  1  0
 20 21  1  1
 22 20  1  0
 22 23  1  1
 24 22  1  0
 24 25  1  6
 24 36  1  0
 25 26  1  0
 30 31  1  0
 32 33  1  0
 33 34  1  0
 34 35  1  0
 36 37  1  0
 37 38  2  0
 37 39  1  0
 39 40  1  0
 40 41  1  0
 41 42  1  0
 42 43  1  0
 43 44  1  0
 44 45  1  0
 45 46  1  0
 46 47  1  0
 47 48  1  0
 48 49  1  0
 49 50  1  0
 50 51  1  0
 51 52  1  0
 52 53  1  0
 53 54  1  0
 54 55  1  0
 55 56  1  0
 56 57  1  0
 57 58  1  0
 58 59  1  0
 59 60  1  0
 60 61  1  0
 61 62  1  0
 62 63  1  0
M  END
$$$$
