
     RDKit          3D

 63 63  0  0  0  0  0  0  0  0999 V2000
  -21.1245  -26.8445   20.4510 C   0  0  2  0  0  0  0  0  0  0  0  0
  -21.6371  -26.8792   21.8934 C   0  0  2  0  0  0  0  0  0  0  0  0
  -20.4076  -26.7540   22.7518 C   0  0  2  0  0  0  0  0  0  0  0  0
  -19.5816  -28.0039   22.5751 C   0  0  2  0  0  0  0  0  0  0  0  0
  -19.8455  -27.6594   20.3012 C   0  0  1  0  0  0  0  0  0  0  0  0
    0.5054  -18.8964   17.9073 C   0  0  0  0  0  0  0  0  0  0  0  0
   -0.8896  -19.1708   17.3963 C   0  0  0  0  0  0  0  0  0  0  0  0
   -1.9100  -18.1800   17.8923 C   0  0  0  0  0  0  0  0  0  0  0  0
   -3.3026  -18.4248   17.4270 C   0  0  0  0  0  0  0  0  0  0  0  0
   -4.2999  -18.7017   18.5196 C   0  0  0  0  0  0  0  0  0  0  0  0
   -5.6768  -18.6668   17.9033 C   0  0  0  0  0  0  0  0  0  0  0  0
   -6.7738  -18.8715   18.9587 C   0  0  0  0  0  0  0  0  0  0  0  0
   -7.8675  -19.6249   18.2863 C   0  0  0  0  0  0  0  0  0  0  0  0
   -9.0229  -19.9796   19.1190 C   0  0  0  0  0  0  0  0  0  0  0  0
  -10.1619  -20.7373   18.6236 C   0  0  0  0  0  0  0  0  0  0  0  0
  -11.0422  -21.5913   19.3967 C   0  0  0  0  0  0  0  0  0  0  0  0
  -12.2534  -22.1733   18.8306 C   0  0  0  0  0  0  0  0  0  0  0  0
  -13.1841  -23.0313   19.5190 C   0  0  0  0  0  0  0  0  0  0  0  0
  -14.1685  -23.9542   18.9824 C   0  0  0  0  0  0  0  0  0  0  0  0
  -15.0317  -24.8646   19.6965 C   0  0  1  0  0  0  0  0  0  0  0  0
  -15.1388  -24.3386   21.0855 O   0  0  0  0  0  0  0  0  0  0  0  0
  -16.3981  -25.2236   19.3528 C   0  0  1  0  0  0  0  0  0  0  0  0
  -16.8692  -24.1568   18.4886 O   0  0  0  0  0  0  0  0  0  0  0  0
  -16.7638  -26.4774   18.7212 C   0  0  2  0  0  0  0  0  0  0  0  0
  -18.1829  -26.9739   18.8620 C   0  0  0  0  0  0  0  0  0  0  0  0
  -18.7485  -26.8238   20.0958 O   0  0  0  0  0  0  0  0  0  0  0  0
  -20.9237  -25.5175   20.1436 O   0  0  0  0  0  0  0  0  0  0  0  0
  -22.3526  -28.0350   22.1676 O   0  0  0  0  0  0  0  0  0  0  0  0
  -19.6343  -28.5465   21.3158 O   0  0  0  0  0  0  0  0  0  0  0  0
  -19.9770  -29.0666   23.5828 C   0  0  0  0  0  0  0  0  0  0  0  0
  -18.9741  -30.0346   23.7058 O   0  0  0  0  0  0  0  0  0  0  0  0
  -20.6716  -26.5525   24.0969 O   0  0  0  0  0  0  0  0  0  0  0  0
  -21.8958  -27.1133   24.4234 C   0  0  0  0  0  0  0  0  0  0  0  0
  -22.8755  -26.1566   25.0194 C   0  0  0  0  0  0  0  0  0  0  0  0
  -24.1533  -26.7741   25.4836 C   0  0  0  0  0  0  0  0  0  0  0  0
  -15.9638  -27.5370   19.4071 N   0  0  0  0  0  0  0  0  0  0  0  0
  -14.5797  -27.6309   19.1790 C   0  0  0  0  0  0  0  0  0  0  0  0
  -14.1172  -27.2743   18.0466 O   0  0  0  0  0  0  0  0  0  0  0  0
  -13.6614  -28.1497   20.2512 C   0  0  0  0  0  0  0  0  0  0  0  0
  -12.2752  -28.1010   19.6513 C   0  0  0  0  0  0  0  0  0  0  0  0
  -11.9547  -26.7946   18.9599 C   0  0  0  0  0  0  0  0  0  0  0  0
  -10.4673  -26.7764   18.7007 C   0  0  0  0  0  0  0  0  0  0  0  0
   -9.9923  -25.5427   17.9747 C   0  0  0  0  0  0  0  0  0  0  0  0
   -8.7686  -24.9830   18.6190 C   0  0  0  0  0  0  0  0  0  0  0  0
   -8.4889  -23.5308   18.1901 C   0  0  0  0  0  0  0  0  0  0  0  0
   -7.1597  -23.4236   17.5539 C   0  0  0  0  0  0  0  0  0  0  0  0
   -7.0241  -23.9237   16.1810 C   0  0  0  0  0  0  0  0  0  0  0  0
   -5.8083  -24.4814   15.5986 C   0  0  0  0  0  0  0  0  0  0  0  0
   -5.8663  -25.2722   14.3543 C   0  0  0  0  0  0  0  0  0  0  0  0
   -4.7195  -26.2891   14.2101 C   0  0  0  0  0  0  0  0  0  0  0  0
   -5.0433  -27.5674   14.8817 C   0  0  0  0  0  0  0  0  0  0  0  0
   -3.9461  -28.6220   14.6424 C   0  0  0  0  0  0  0  0  0  0  0  0
   -3.3888  -28.4911   13.2850 C   0  0  0  0  0  0  0  0  0  0  0  0
   -4.1061  -29.1819   12.1989 C   0  0  0  0  0  0  0  0  0  0  0  0
   -3.7022  -29.1081   10.8060 C   0  0  0  0  0  0  0  0  0  0  0  0
   -4.3378  -29.9000    9.7313 C   0  0  0  0  0  0  0  0  0  0  0  0
   -4.2603  -29.2781    8.3755 C   0  0  0  0  0  0  0  0  0  0  0  0
   -5.2975  -28.2005    8.2086 C   0  0  0  0  0  0  0  0  0  0  0  0
   -5.6391  -27.9344    6.7631 C   0  0  0  0  0  0  0  0  0  0  0  0
   -4.7141  -26.9423    6.1138 C   0  0  0  0  0  0  0  0  0  0  0  0
   -3.7318  -27.5575    5.1650 C   0  0  0  0  0  0  0  0  0  0  0  0
   -2.7548  -26.5082    4.6663 C   0  0  0  0  0  0  0  0  0  0  0  0
   -1.7807  -27.1326    3.7047 C   0  0  0  0  0  0  0  0  0  0  0  0
  1  2  1  0
  5  1  1  0
  1 27  1  1
  2  3  1  0
  2 28  1  1
  4  3  1  0
  3 32  1  1
 29  4  1  0
  4 30  1  1
  5 26  1  1
  5 29  1  0
  7  6  1  0
  8  7  1  0
  9  8  1  0
 10  9  1  0
 11 10  1  0
 12 11  1  0
 13 12  1  0
 14 13  1  0
 15 14  1  0
 16 15  1  0
 17 16  1  0
 18 17  1  0
 19 18  1  0
 20 19  1  0
 20 21  1  1
 22 20  1  0
 22 23  1  6
 24 22  1  0
 24 25  1  1
 24 36  1  0
 25 26  1  0
 30 31  1  0
 32 33  1  0
 33 34  1  0
 34 35  1  0
 36 37  1  0
 37 38  2  0
 37 39  1  0
 39 40  1  0
 40 41  1  0
 41 42  1  0
 42 43  1  0
 43 44  1  0
 44 45  1  0
 45 46  1  0
 46 47  1  0
 47 48  1  0
 48 49  1  0
 49 50  1  0
 50 51  1  0
 51 52  1  0
 52 53  1  0
 53 54  1  0
 54 55  1  0
 55 56  1  0
 56 57  1  0
 57 58  1  0
 58 59  1  0
 59 60  1  0
 60 61  1  0
 61 62  1  0
 62 63  1  0
M  END
$$$$
