
     RDKit          3D

 63 63  0  0  0  0  0  0  0  0999 V2000
  -16.2808  -27.1827   19.6262 C   0  0  2  0  0  0  0  0  0  0  0  0
  -16.3066  -28.4547   18.7744 C   0  0  2  0  0  0  0  0  0  0  0  0
  -15.0169  -28.4363   17.9994 C   0  0  2  0  0  0  0  0  0  0  0  0
  -15.0695  -27.2846   17.0265 C   0  0  2  0  0  0  0  0  0  0  0  0
  -15.7325  -26.0011   18.8354 C   0  0  1  0  0  0  0  0  0  0  0  0
   -4.6810  -14.7988   27.6603 C   0  0  0  0  0  0  0  0  0  0  0  0
   -5.0862  -16.1237   27.0580 C   0  0  0  0  0  0  0  0  0  0  0  0
   -4.5915  -16.3120   25.6478 C   0  0  0  0  0  0  0  0  0  0  0  0
   -4.9612  -17.6098   25.0194 C   0  0  0  0  0  0  0  0  0  0  0  0
   -3.8670  -18.2652   24.2204 C   0  0  0  0  0  0  0  0  0  0  0  0
   -4.5204  -19.0937   23.1416 C   0  0  0  0  0  0  0  0  0  0  0  0
   -3.7027  -20.3546   22.8241 C   0  0  0  0  0  0  0  0  0  0  0  0
   -4.6704  -21.4852   22.7922 C   0  0  0  0  0  0  0  0  0  0  0  0
   -4.2613  -22.6728   22.0332 C   0  0  0  0  0  0  0  0  0  0  0  0
   -5.0414  -23.2286   20.9380 C   0  0  0  0  0  0  0  0  0  0  0  0
   -6.1906  -24.1059   21.0451 C   0  0  0  0  0  0  0  0  0  0  0  0
   -6.9031  -24.5988   19.8723 C   0  0  0  0  0  0  0  0  0  0  0  0
   -8.1595  -25.3045   19.8774 C   0  0  0  0  0  0  0  0  0  0  0  0
   -9.4769  -24.8588   19.4598 C   0  0  0  0  0  0  0  0  0  0  0  0
  -10.7591  -25.4655   19.7284 C   0  0  1  0  0  0  0  0  0  0  0  0
  -10.5104  -26.5524   20.7153 O   0  0  0  0  0  0  0  0  0  0  0  0
  -11.9507  -24.8022   20.2324 C   0  0  1  0  0  0  0  0  0  0  0  0
  -11.5128  -24.0635   21.4025 O   0  0  0  0  0  0  0  0  0  0  0  0
  -12.7640  -23.9007   19.4383 C   0  0  2  0  0  0  0  0  0  0  0  0
  -14.1557  -24.3351   19.0449 C   0  0  0  0  0  0  0  0  0  0  0  0
  -14.4684  -25.6397   19.2996 O   0  0  0  0  0  0  0  0  0  0  0  0
  -15.5012  -27.4682   20.7245 O   0  0  0  0  0  0  0  0  0  0  0  0
  -17.4164  -28.5072   17.9445 O   0  0  0  0  0  0  0  0  0  0  0  0
  -15.7514  -26.1851   17.4838 O   0  0  0  0  0  0  0  0  0  0  0  0
  -15.6688  -27.7161   15.7015 C   0  0  0  0  0  0  0  0  0  0  0  0
  -15.3787  -26.7864   14.6968 O   0  0  0  0  0  0  0  0  0  0  0  0
  -14.7455  -29.6126   17.3195 O   0  0  0  0  0  0  0  0  0  0  0  0
  -15.8592  -30.0017   16.5929 C   0  0  0  0  0  0  0  0  0  0  0  0
  -16.3910  -31.3506   16.9506 C   0  0  0  0  0  0  0  0  0  0  0  0
  -17.8556  -31.3920   17.2385 C   0  0  0  0  0  0  0  0  0  0  0  0
  -12.0674  -23.7617   18.1235 N   0  0  0  0  0  0  0  0  0  0  0  0
  -11.5041  -22.5278   17.7536 C   0  0  0  0  0  0  0  0  0  0  0  0
  -12.1790  -21.4632   17.9389 O   0  0  0  0  0  0  0  0  0  0  0  0
  -10.1308  -22.4664   17.1435 C   0  0  0  0  0  0  0  0  0  0  0  0
  -10.2229  -21.4276   16.0498 C   0  0  0  0  0  0  0  0  0  0  0  0
   -9.9894  -21.9804   14.6615 C   0  0  0  0  0  0  0  0  0  0  0  0
   -9.9174  -20.8054   13.7162 C   0  0  0  0  0  0  0  0  0  0  0  0
   -9.5551  -21.1848   12.3020 C   0  0  0  0  0  0  0  0  0  0  0  0
  -10.7545  -21.6616   11.5540 C   0  0  0  0  0  0  0  0  0  0  0  0
  -10.3832  -22.4014   10.2556 C   0  0  0  0  0  0  0  0  0  0  0  0
  -11.1044  -23.6878   10.1659 C   0  0  0  0  0  0  0  0  0  0  0  0
  -10.9045  -24.4929    8.9555 C   0  0  0  0  0  0  0  0  0  0  0  0
  -10.3287  -25.8328    8.9147 C   0  0  0  0  0  0  0  0  0  0  0  0
  -11.1522  -27.0139    9.2369 C   0  0  0  0  0  0  0  0  0  0  0  0
  -10.4240  -28.0636   10.0960 C   0  0  0  0  0  0  0  0  0  0  0  0
   -8.9759  -28.0993    9.7932 C   0  0  0  0  0  0  0  0  0  0  0  0
   -8.5558  -29.4641    9.2153 C   0  0  0  0  0  0  0  0  0  0  0  0
   -7.5082  -30.0793   10.0485 C   0  0  0  0  0  0  0  0  0  0  0  0
   -6.1845  -30.2652    9.4281 C   0  0  0  0  0  0  0  0  0  0  0  0
   -5.0479  -30.8304   10.1333 C   0  0  0  0  0  0  0  0  0  0  0  0
   -3.9513  -31.5574    9.4587 C   0  0  0  0  0  0  0  0  0  0  0  0
   -2.5911  -31.2729   10.0065 C   0  0  0  0  0  0  0  0  0  0  0  0
   -2.1795  -29.8509    9.7357 C   0  0  0  0  0  0  0  0  0  0  0  0
   -1.0500  -29.7468    8.7404 C   0  0  0  0  0  0  0  0  0  0  0  0
    0.0421  -30.7515    8.9841 C   0  0  0  0  0  0  0  0  0  0  0  0
    1.1814  -30.6577    8.0162 C   0  0  0  0  0  0  0  0  0  0  0  0
    1.1352  -31.8159    7.0359 C   0  0  0  0  0  0  0  0  0  0  0  0
    1.2308  -31.2973    5.6269 C   0  0  0  0  0  0  0  0  0  0  0  0
  1  2  1  0
  5  1  1  0
  1 27  1  1
  2  3  1  0
  2 28  1  6
  4  3  1  0
  3 32  1  6
 29  4  1  0
  4 30  1  6
  5 26  1  1
  5 29  1  0
  7  6  1  0
  8  7  1  0
  9  8  1  0
 10  9  1  0
 11 10  1  0
 12 11  1  0
 13 12  1  0
 14 13  1  0
 15 14  1  0
 16 15  1  0
 17 16  1  0
 18 17  1  0
 19 18  1  0
 20 19  1  0
 20 21  1  1
 22 20  1  0
 22 23  1  1
 24 22  1  0
 24 25  1  6
 24 36  1  0
 25 26  1  0
 30 31  1  0
 32 33  1  0
 33 34  1  0
 34 35  1  0
 36 37  1  0
 37 38  2  0
 37 39  1  0
 39 40  1  0
 40 41  1  0
 41 42  1  0
 42 43  1  0
 43 44  1  0
 44 45  1  0
 45 46  1  0
 46 47  1  0
 47 48  1  0
 48 49  1  0
 49 50  1  0
 50 51  1  0
 51 52  1  0
 52 53  1  0
 53 54  1  0
 54 55  1  0
 55 56  1  0
 56 57  1  0
 57 58  1  0
 58 59  1  0
 59 60  1  0
 60 61  1  0
 61 62  1  0
 62 63  1  0
M  END
$$$$
