
     RDKit          3D

 63 63  0  0  0  0  0  0  0  0999 V2000
  -20.3240  -26.2364   20.2468 C   0  0  2  0  0  0  0  0  0  0  0  0
  -20.9003  -25.0830   21.0725 C   0  0  2  0  0  0  0  0  0  0  0  0
  -19.7064  -24.3994   21.6820 C   0  0  2  0  0  0  0  0  0  0  0  0
  -19.0782  -25.3463   22.6742 C   0  0  2  0  0  0  0  0  0  0  0  0
  -19.1822  -26.9253   20.9844 C   0  0  1  0  0  0  0  0  0  0  0  0
  -12.5940  -24.1165    8.1872 C   0  0  0  0  0  0  0  0  0  0  0  0
  -11.2466  -23.6811    8.7138 C   0  0  0  0  0  0  0  0  0  0  0  0
  -10.4260  -24.8195    9.2612 C   0  0  0  0  0  0  0  0  0  0  0  0
   -9.0937  -24.4322    9.8005 C   0  0  0  0  0  0  0  0  0  0  0  0
   -8.3490  -25.5318   10.5086 C   0  0  0  0  0  0  0  0  0  0  0  0
   -7.8255  -24.9687   11.8070 C   0  0  0  0  0  0  0  0  0  0  0  0
   -8.4165  -25.7021   13.0203 C   0  0  0  0  0  0  0  0  0  0  0  0
   -7.7671  -27.0411   13.0583 C   0  0  0  0  0  0  0  0  0  0  0  0
   -8.4094  -28.0537   13.9045 C   0  0  0  0  0  0  0  0  0  0  0  0
   -9.8523  -28.1841   14.0387 C   0  0  0  0  0  0  0  0  0  0  0  0
  -10.5672  -29.1282   14.8750 C   0  0  0  0  0  0  0  0  0  0  0  0
  -12.0054  -29.0350   15.0967 C   0  0  0  0  0  0  0  0  0  0  0  0
  -12.6692  -28.1113   15.9813 C   0  0  0  0  0  0  0  0  0  0  0  0
  -13.8381  -28.3061   16.8207 C   0  0  0  0  0  0  0  0  0  0  0  0
  -14.1281  -27.7225   18.1089 C   0  0  1  0  0  0  0  0  0  0  0  0
  -14.2230  -26.2525   17.8917 O   0  0  0  0  0  0  0  0  0  0  0  0
  -15.2620  -28.0225   18.9682 C   0  0  1  0  0  0  0  0  0  0  0  0
  -15.0591  -29.3910   19.4072 O   0  0  0  0  0  0  0  0  0  0  0  0
  -15.6068  -27.2441   20.1428 C   0  0  2  0  0  0  0  0  0  0  0  0
  -16.9519  -27.4672   20.7919 C   0  0  0  0  0  0  0  0  0  0  0  0
  -17.9602  -26.6469   20.3736 O   0  0  0  0  0  0  0  0  0  0  0  0
  -19.9051  -25.6878   19.0555 O   0  0  0  0  0  0  0  0  0  0  0  0
  -21.7989  -25.5236   22.0325 O   0  0  0  0  0  0  0  0  0  0  0  0
  -19.1578  -26.6708   22.3245 O   0  0  0  0  0  0  0  0  0  0  0  0
  -19.6794  -25.1677   24.0554 C   0  0  0  0  0  0  0  0  0  0  0  0
  -18.6978  -25.2865   25.0455 O   0  0  0  0  0  0  0  0  0  0  0  0
  -19.9962  -23.1947   22.3020 O   0  0  0  0  0  0  0  0  0  0  0  0
  -21.3559  -23.1132   22.5554 C   0  0  0  0  0  0  0  0  0  0  0  0
  -22.1078  -22.2257   21.6187 C   0  0  0  0  0  0  0  0  0  0  0  0
  -22.2458  -20.8092   22.0705 C   0  0  0  0  0  0  0  0  0  0  0  0
  -15.6794  -25.8212   19.6918 N   0  0  0  0  0  0  0  0  0  0  0  0
  -14.7925  -24.8690   20.2241 C   0  0  0  0  0  0  0  0  0  0  0  0
  -13.8186  -25.2690   20.9417 O   0  0  0  0  0  0  0  0  0  0  0  0
  -14.9938  -23.4028   19.9564 C   0  0  0  0  0  0  0  0  0  0  0  0
  -13.6309  -22.8731   19.5746 C   0  0  0  0  0  0  0  0  0  0  0  0
  -12.7880  -22.4483   20.7564 C   0  0  0  0  0  0  0  0  0  0  0  0
  -11.4117  -22.1174   20.2310 C   0  0  0  0  0  0  0  0  0  0  0  0
  -10.7463  -20.9708   20.9505 C   0  0  0  0  0  0  0  0  0  0  0  0
   -9.6579  -20.3795   20.1191 C   0  0  0  0  0  0  0  0  0  0  0  0
   -8.2558  -20.7899   20.6058 C   0  0  0  0  0  0  0  0  0  0  0  0
   -7.3720  -21.0812   19.4583 C   0  0  0  0  0  0  0  0  0  0  0  0
   -6.0230  -21.5786   19.7521 C   0  0  0  0  0  0  0  0  0  0  0  0
   -4.8600  -21.4377   18.8826 C   0  0  0  0  0  0  0  0  0  0  0  0
   -3.8514  -20.3924   19.1414 C   0  0  0  0  0  0  0  0  0  0  0  0
   -2.5740  -20.5380   18.2946 C   0  0  0  0  0  0  0  0  0  0  0  0
   -2.4914  -21.8756   17.6670 C   0  0  0  0  0  0  0  0  0  0  0  0
   -1.1675  -22.0563   16.9003 C   0  0  0  0  0  0  0  0  0  0  0  0
   -1.0943  -23.4006   16.3023 C   0  0  0  0  0  0  0  0  0  0  0  0
   -1.9090  -23.6413   15.0981 C   0  0  0  0  0  0  0  0  0  0  0  0
   -2.6143  -24.8863   14.8508 C   0  0  0  0  0  0  0  0  0  0  0  0
   -1.9360  -26.1450   14.4744 C   0  0  0  0  0  0  0  0  0  0  0  0
   -2.6090  -26.9077   13.3807 C   0  0  0  0  0  0  0  0  0  0  0  0
   -2.2077  -28.3580   13.3990 C   0  0  0  0  0  0  0  0  0  0  0  0
   -1.8665  -28.8893   12.0284 C   0  0  0  0  0  0  0  0  0  0  0  0
   -1.3994  -30.3186   12.0519 C   0  0  0  0  0  0  0  0  0  0  0  0
   -0.3335  -30.5931   13.0679 C   0  0  0  0  0  0  0  0  0  0  0  0
    0.4981  -31.7913   12.6466 C   0  0  0  0  0  0  0  0  0  0  0  0
    1.5545  -32.0695   13.6810 C   0  0  0  0  0  0  0  0  0  0  0  0
  1  2  1  0
  5  1  1  0
  1 27  1  6
  2  3  1  0
  2 28  1  1
  4  3  1  0
  3 32  1  1
 29  4  1  0
  4 30  1  1
  5 26  1  6
  5 29  1  0
  7  6  1  0
  8  7  1  0
  9  8  1  0
 10  9  1  0
 11 10  1  0
 12 11  1  0
 13 12  1  0
 14 13  1  0
 15 14  1  0
 16 15  1  0
 17 16  1  0
 18 17  1  0
 19 18  1  0
 20 19  1  0
 20 21  1  6
 22 20  1  0
 22 23  1  1
 24 22  1  0
 24 25  1  6
 24 36  1  0
 25 26  1  0
 30 31  1  0
 32 33  1  0
 33 34  1  0
 34 35  1  0
 36 37  1  0
 37 38  2  0
 37 39  1  0
 39 40  1  0
 40 41  1  0
 41 42  1  0
 42 43  1  0
 43 44  1  0
 44 45  1  0
 45 46  1  0
 46 47  1  0
 47 48  1  0
 48 49  1  0
 49 50  1  0
 50 51  1  0
 51 52  1  0
 52 53  1  0
 53 54  1  0
 54 55  1  0
 55 56  1  0
 56 57  1  0
 57 58  1  0
 58 59  1  0
 59 60  1  0
 60 61  1  0
 61 62  1  0
 62 63  1  0
M  END
$$$$
