
     RDKit          3D

 63 63  0  0  0  0  0  0  0  0999 V2000
  -18.1652  -27.4738   20.3522 C   0  0  2  0  0  0  0  0  0  0  0  0
  -19.3924  -26.5975   20.6178 C   0  0  2  0  0  0  0  0  0  0  0  0
  -18.8413  -25.2360   20.9445 C   0  0  2  0  0  0  0  0  0  0  0  0
  -18.1061  -25.3292   22.2584 C   0  0  2  0  0  0  0  0  0  0  0  0
  -17.0511  -27.1783   21.3491 C   0  0  1  0  0  0  0  0  0  0  0  0
   -2.4520  -18.7503   25.1749 C   0  0  0  0  0  0  0  0  0  0  0  0
   -2.8121  -18.1613   23.8312 C   0  0  0  0  0  0  0  0  0  0  0  0
   -4.2867  -18.2242   23.5302 C   0  0  0  0  0  0  0  0  0  0  0  0
   -4.6877  -17.6355   22.2232 C   0  0  0  0  0  0  0  0  0  0  0  0
   -5.8467  -18.3167   21.5465 C   0  0  0  0  0  0  0  0  0  0  0  0
   -7.1036  -17.9218   22.2820 C   0  0  0  0  0  0  0  0  0  0  0  0
   -8.2071  -17.4706   21.3135 C   0  0  0  0  0  0  0  0  0  0  0  0
   -8.7469  -18.7082   20.6866 C   0  0  0  0  0  0  0  0  0  0  0  0
   -9.8821  -18.5348   19.7727 C   0  0  0  0  0  0  0  0  0  0  0  0
  -11.1054  -19.3175   19.8610 C   0  0  0  0  0  0  0  0  0  0  0  0
  -11.7766  -19.7507   21.0708 C   0  0  0  0  0  0  0  0  0  0  0  0
  -12.6161  -20.9423   21.1088 C   0  0  0  0  0  0  0  0  0  0  0  0
  -12.4910  -22.0389   22.0351 C   0  0  0  0  0  0  0  0  0  0  0  0
  -13.2977  -23.2390   22.1684 C   0  0  0  0  0  0  0  0  0  0  0  0
  -14.4916  -23.6057   21.4443 C   0  0  1  0  0  0  0  0  0  0  0  0
  -15.5749  -22.7137   21.9425 O   0  0  0  0  0  0  0  0  0  0  0  0
  -14.6735  -23.6038   20.0018 C   0  0  1  0  0  0  0  0  0  0  0  0
  -13.3443  -23.4214   19.4478 O   0  0  0  0  0  0  0  0  0  0  0  0
  -15.2954  -24.6910   19.2698 C   0  0  2  0  0  0  0  0  0  0  0  0
  -16.3962  -25.4795   19.9383 C   0  0  0  0  0  0  0  0  0  0  0  0
  -15.9923  -26.5194   20.7257 O   0  0  0  0  0  0  0  0  0  0  0  0
  -17.7754  -27.2116   19.0580 O   0  0  0  0  0  0  0  0  0  0  0  0
  -20.1849  -27.1011   21.6384 O   0  0  0  0  0  0  0  0  0  0  0  0
  -17.4731  -26.5279   22.4716 O   0  0  0  0  0  0  0  0  0  0  0  0
  -19.0355  -25.0522   23.4249 C   0  0  0  0  0  0  0  0  0  0  0  0
  -18.3101  -24.8678   24.6072 O   0  0  0  0  0  0  0  0  0  0  0  0
  -19.7987  -24.2366   21.0125 O   0  0  0  0  0  0  0  0  0  0  0  0
  -20.9662  -24.7426   21.5606 C   0  0  0  0  0  0  0  0  0  0  0  0
  -22.0688  -23.7446   21.6970 C   0  0  0  0  0  0  0  0  0  0  0  0
  -22.0698  -22.9814   22.9804 C   0  0  0  0  0  0  0  0  0  0  0  0
  -14.2266  -25.7135   19.0569 N   0  0  0  0  0  0  0  0  0  0  0  0
  -14.4133  -26.7396   18.1141 C   0  0  0  0  0  0  0  0  0  0  0  0
  -15.2289  -26.5514   17.1534 O   0  0  0  0  0  0  0  0  0  0  0  0
  -13.6680  -28.0397   18.2410 C   0  0  0  0  0  0  0  0  0  0  0  0
  -12.5663  -27.9739   17.2087 C   0  0  0  0  0  0  0  0  0  0  0  0
  -12.2629  -26.5723   16.7281 C   0  0  0  0  0  0  0  0  0  0  0  0
  -10.7811  -26.5048   16.4463 C   0  0  0  0  0  0  0  0  0  0  0  0
  -10.4095  -25.4979   15.3866 C   0  0  0  0  0  0  0  0  0  0  0  0
  -10.1908  -26.1652   14.0704 C   0  0  0  0  0  0  0  0  0  0  0  0
   -8.8378  -26.8968   13.9985 C   0  0  0  0  0  0  0  0  0  0  0  0
   -8.2318  -26.7384   12.6603 C   0  0  0  0  0  0  0  0  0  0  0  0
   -6.9312  -27.3763   12.4265 C   0  0  0  0  0  0  0  0  0  0  0  0
   -6.6888  -28.5037   11.5326 C   0  0  0  0  0  0  0  0  0  0  0  0
   -5.3288  -29.0514   11.3670 C   0  0  0  0  0  0  0  0  0  0  0  0
   -4.7939  -28.9619    9.9262 C   0  0  0  0  0  0  0  0  0  0  0  0
   -4.4211  -30.2956    9.4044 C   0  0  0  0  0  0  0  0  0  0  0  0
   -3.8264  -30.1986    7.9866 C   0  0  0  0  0  0  0  0  0  0  0  0
   -4.8944  -30.2404    6.9728 C   0  0  0  0  0  0  0  0  0  0  0  0
   -4.5801  -30.9108    5.6987 C   0  0  0  0  0  0  0  0  0  0  0  0
   -4.6358  -32.3512    5.5228 C   0  0  0  0  0  0  0  0  0  0  0  0
   -4.6485  -33.0094    4.1989 C   0  0  0  0  0  0  0  0  0  0  0  0
   -3.2968  -33.3621    3.6701 C   0  0  0  0  0  0  0  0  0  0  0  0
   -2.5324  -34.2129    4.6482 C   0  0  0  0  0  0  0  0  0  0  0  0
   -2.3776  -35.6413    4.1867 C   0  0  0  0  0  0  0  0  0  0  0  0
   -1.5531  -35.7683    2.9355 C   0  0  0  0  0  0  0  0  0  0  0  0
   -1.6285  -37.1190    2.2923 C   0  0  0  0  0  0  0  0  0  0  0  0
   -0.6045  -38.0536    2.9107 C   0  0  0  0  0  0  0  0  0  0  0  0
   -0.6782  -39.4027    2.2490 C   0  0  0  0  0  0  0  0  0  0  0  0
  1  2  1  0
  5  1  1  0
  1 27  1  6
  2  3  1  0
  2 28  1  1
  4  3  1  0
  3 32  1  1
 29  4  1  0
  4 30  1  1
  5 26  1  6
  5 29  1  0
  7  6  1  0
  8  7  1  0
  9  8  1  0
 10  9  1  0
 11 10  1  0
 12 11  1  0
 13 12  1  0
 14 13  1  0
 15 14  1  0
 16 15  1  0
 17 16  1  0
 18 17  1  0
 19 18  1  0
 20 19  1  0
 20 21  1  1
 22 20  1  0
 22 23  1  6
 24 22  1  0
 24 25  1  1
 24 36  1  0
 25 26  1  0
 30 31  1  0
 32 33  1  0
 33 34  1  0
 34 35  1  0
 36 37  1  0
 37 38  2  0
 37 39  1  0
 39 40  1  0
 40 41  1  0
 41 42  1  0
 42 43  1  0
 43 44  1  0
 44 45  1  0
 45 46  1  0
 46 47  1  0
 47 48  1  0
 48 49  1  0
 49 50  1  0
 50 51  1  0
 51 52  1  0
 52 53  1  0
 53 54  1  0
 54 55  1  0
 55 56  1  0
 56 57  1  0
 57 58  1  0
 58 59  1  0
 59 60  1  0
 60 61  1  0
 61 62  1  0
 62 63  1  0
M  END
$$$$
