
     RDKit          3D

 63 63  0  0  0  0  0  0  0  0999 V2000
  -20.3605  -27.6263   18.9990 C   0  0  2  0  0  0  0  0  0  0  0  0
  -21.3550  -26.4710   19.1427 C   0  0  2  0  0  0  0  0  0  0  0  0
  -20.5895  -25.3755   19.8342 C   0  0  2  0  0  0  0  0  0  0  0  0
  -20.2793  -25.8326   21.2379 C   0  0  2  0  0  0  0  0  0  0  0  0
  -19.5159  -27.7858   20.2574 C   0  0  1  0  0  0  0  0  0  0  0  0
   -6.1772  -15.5632   17.6919 C   0  0  0  0  0  0  0  0  0  0  0  0
   -6.4555  -16.8433   18.4443 C   0  0  0  0  0  0  0  0  0  0  0  0
   -5.4044  -17.9005   18.2283 C   0  0  0  0  0  0  0  0  0  0  0  0
   -5.6452  -19.1827   18.9451 C   0  0  0  0  0  0  0  0  0  0  0  0
   -6.9215  -19.8893   18.5751 C   0  0  0  0  0  0  0  0  0  0  0  0
   -6.9543  -21.1988   19.3241 C   0  0  0  0  0  0  0  0  0  0  0  0
   -8.3717  -21.7889   19.3691 C   0  0  0  0  0  0  0  0  0  0  0  0
   -8.6920  -22.2175   17.9800 C   0  0  0  0  0  0  0  0  0  0  0  0
   -9.6206  -23.3458   17.8432 C   0  0  0  0  0  0  0  0  0  0  0  0
   -9.4961  -24.3618   16.8092 C   0  0  0  0  0  0  0  0  0  0  0  0
   -9.9844  -25.7257   16.8655 C   0  0  0  0  0  0  0  0  0  0  0  0
  -11.3027  -26.0573   17.3927 C   0  0  0  0  0  0  0  0  0  0  0  0
  -11.6399  -27.2314   18.1573 C   0  0  0  0  0  0  0  0  0  0  0  0
  -12.9400  -27.7299   18.5692 C   0  0  0  0  0  0  0  0  0  0  0  0
  -14.0436  -28.1563   17.7418 C   0  0  1  0  0  0  0  0  0  0  0  0
  -13.5973  -29.4001   17.0556 O   0  0  0  0  0  0  0  0  0  0  0  0
  -15.3953  -28.4649   18.1799 C   0  0  1  0  0  0  0  0  0  0  0  0
  -15.5113  -29.9082   18.0784 O   0  0  0  0  0  0  0  0  0  0  0  0
  -15.9257  -28.0841   19.4753 C   0  0  2  0  0  0  0  0  0  0  0  0
  -17.3544  -28.4426   19.8082 C   0  0  0  0  0  0  0  0  0  0  0  0
  -18.1994  -27.3915   20.0222 O   0  0  0  0  0  0  0  0  0  0  0  0
  -19.5866  -27.3359   17.8978 O   0  0  0  0  0  0  0  0  0  0  0  0
  -22.4909  -26.8419   19.8466 O   0  0  0  0  0  0  0  0  0  0  0  0
  -20.0461  -27.1795   21.3585 O   0  0  0  0  0  0  0  0  0  0  0  0
  -21.3867  -25.4398   22.1973 C   0  0  0  0  0  0  0  0  0  0  0  0
  -20.9708  -25.5860   23.5254 O   0  0  0  0  0  0  0  0  0  0  0  0
  -21.2494  -24.1578   19.8724 O   0  0  0  0  0  0  0  0  0  0  0  0
  -22.6089  -24.3665   20.0392 C   0  0  0  0  0  0  0  0  0  0  0  0
  -23.4481  -23.1430   19.8688 C   0  0  0  0  0  0  0  0  0  0  0  0
  -24.4753  -23.2316   18.7886 C   0  0  0  0  0  0  0  0  0  0  0  0
  -15.9369  -26.5898   19.4968 N   0  0  0  0  0  0  0  0  0  0  0  0
  -15.5916  -25.9013   20.6730 C   0  0  0  0  0  0  0  0  0  0  0  0
  -15.3296  -26.5720   21.7241 O   0  0  0  0  0  0  0  0  0  0  0  0
  -15.5389  -24.3984   20.6917 C   0  0  0  0  0  0  0  0  0  0  0  0
  -14.2044  -24.0507   21.3098 C   0  0  0  0  0  0  0  0  0  0  0  0
  -13.9116  -22.5670   21.3358 C   0  0  0  0  0  0  0  0  0  0  0  0
  -12.4277  -22.3979   21.1145 C   0  0  0  0  0  0  0  0  0  0  0  0
  -12.0611  -22.0510   19.6932 C   0  0  0  0  0  0  0  0  0  0  0  0
  -10.7777  -22.7019   19.2996 C   0  0  0  0  0  0  0  0  0  0  0  0
  -10.3183  -22.2927   17.8880 C   0  0  0  0  0  0  0  0  0  0  0  0
   -9.0386  -22.9479   17.5476 C   0  0  0  0  0  0  0  0  0  0  0  0
   -8.0443  -23.0883   18.6178 C   0  0  0  0  0  0  0  0  0  0  0  0
   -6.6704  -23.5470   18.4430 C   0  0  0  0  0  0  0  0  0  0  0  0
   -5.5731  -22.9458   19.2250 C   0  0  0  0  0  0  0  0  0  0  0  0
   -4.9747  -21.6800   18.5848 C   0  0  0  0  0  0  0  0  0  0  0  0
   -3.9153  -21.0935   19.4355 C   0  0  0  0  0  0  0  0  0  0  0  0
   -3.8544  -19.5619   19.2820 C   0  0  0  0  0  0  0  0  0  0  0  0
   -2.5005  -19.0645   19.5815 C   0  0  0  0  0  0  0  0  0  0  0  0
   -2.1412  -18.9201   21.0033 C   0  0  0  0  0  0  0  0  0  0  0  0
   -1.8491  -17.6401   21.6238 C   0  0  0  0  0  0  0  0  0  0  0  0
   -2.5166  -16.3781   21.2392 C   0  0  0  0  0  0  0  0  0  0  0  0
   -2.1717  -15.2079   22.1011 C   0  0  0  0  0  0  0  0  0  0  0  0
   -3.3542  -14.7651   22.9200 C   0  0  0  0  0  0  0  0  0  0  0  0
   -2.9586  -14.1908   24.2582 C   0  0  0  0  0  0  0  0  0  0  0  0
   -3.9876  -13.2496   24.8209 C   0  0  0  0  0  0  0  0  0  0  0  0
   -3.6958  -12.7945   26.2178 C   0  0  0  0  0  0  0  0  0  0  0  0
   -4.8423  -11.9516   26.7463 C   0  0  0  0  0  0  0  0  0  0  0  0
   -4.5558  -11.5283   28.1613 C   0  0  0  0  0  0  0  0  0  0  0  0
  1  2  1  0
  5  1  1  0
  1 27  1  6
  2  3  1  0
  2 28  1  1
  4  3  1  0
  3 32  1  1
 29  4  1  0
  4 30  1  1
  5 26  1  6
  5 29  1  0
  7  6  1  0
  8  7  1  0
  9  8  1  0
 10  9  1  0
 11 10  1  0
 12 11  1  0
 13 12  1  0
 14 13  1  0
 15 14  1  0
 16 15  1  0
 17 16  1  0
 18 17  1  0
 19 18  1  0
 20 19  1  0
 20 21  1  1
 22 20  1  0
 22 23  1  1
 24 22  1  0
 24 25  1  6
 24 36  1  0
 25 26  1  0
 30 31  1  0
 32 33  1  0
 33 34  1  0
 34 35  1  0
 36 37  1  0
 37 38  2  0
 37 39  1  0
 39 40  1  0
 40 41  1  0
 41 42  1  0
 42 43  1  0
 43 44  1  0
 44 45  1  0
 45 46  1  0
 46 47  1  0
 47 48  1  0
 48 49  1  0
 49 50  1  0
 50 51  1  0
 51 52  1  0
 52 53  1  0
 53 54  1  0
 54 55  1  0
 55 56  1  0
 56 57  1  0
 57 58  1  0
 58 59  1  0
 59 60  1  0
 60 61  1  0
 61 62  1  0
 62 63  1  0
M  END
$$$$
