
     RDKit          3D

 63 63  0  0  0  0  0  0  0  0999 V2000
  -18.1456  -26.5278   21.7880 C   0  0  2  0  0  0  0  0  0  0  0  0
  -19.6086  -26.1203   21.9826 C   0  0  2  0  0  0  0  0  0  0  0  0
  -20.2682  -26.3725   20.6539 C   0  0  2  0  0  0  0  0  0  0  0  0
  -19.6965  -25.3996   19.6530 C   0  0  2  0  0  0  0  0  0  0  0  0
  -17.6223  -26.0710   20.4316 C   0  0  1  0  0  0  0  0  0  0  0  0
  -17.7367  -43.3227   10.8984 C   0  0  0  0  0  0  0  0  0  0  0  0
  -18.0186  -41.8708   10.5906 C   0  0  0  0  0  0  0  0  0  0  0  0
  -18.1334  -41.0130   11.8235 C   0  0  0  0  0  0  0  0  0  0  0  0
  -18.3808  -39.5683   11.5640 C   0  0  0  0  0  0  0  0  0  0  0  0
  -18.5426  -38.7184   12.7955 C   0  0  0  0  0  0  0  0  0  0  0  0
  -17.8939  -37.3841   12.5204 C   0  0  0  0  0  0  0  0  0  0  0  0
  -16.6160  -37.1948   13.3513 C   0  0  0  0  0  0  0  0  0  0  0  0
  -17.0356  -36.5481   14.6247 C   0  0  0  0  0  0  0  0  0  0  0  0
  -16.4733  -35.2203   14.8980 C   0  0  0  0  0  0  0  0  0  0  0  0
  -15.3374  -35.0000   15.7801 C   0  0  0  0  0  0  0  0  0  0  0  0
  -15.3175  -34.2047   16.9921 C   0  0  0  0  0  0  0  0  0  0  0  0
  -14.1255  -33.4891   17.4317 C   0  0  0  0  0  0  0  0  0  0  0  0
  -13.9989  -32.7134   18.6395 C   0  0  0  0  0  0  0  0  0  0  0  0
  -13.9763  -31.2727   18.8201 C   0  0  0  0  0  0  0  0  0  0  0  0
  -14.6692  -30.2596   18.0602 C   0  0  1  0  0  0  0  0  0  0  0  0
  -15.1898  -30.9340   16.8389 O   0  0  0  0  0  0  0  0  0  0  0  0
  -15.7838  -29.4408   18.5089 C   0  0  1  0  0  0  0  0  0  0  0  0
  -16.9705  -30.0801   17.9706 O   0  0  0  0  0  0  0  0  0  0  0  0
  -16.0530  -29.1465   19.9037 C   0  0  2  0  0  0  0  0  0  0  0  0
  -17.2827  -28.3420   20.2513 C   0  0  0  0  0  0  0  0  0  0  0  0
  -17.4321  -27.1607   19.5828 O   0  0  0  0  0  0  0  0  0  0  0  0
  -18.1053  -27.8981   21.9159 O   0  0  0  0  0  0  0  0  0  0  0  0
  -19.7353  -24.8004   22.3888 O   0  0  0  0  0  0  0  0  0  0  0  0
  -18.3740  -25.0915   19.8514 O   0  0  0  0  0  0  0  0  0  0  0  0
  -20.4994  -24.1129   19.6222 C   0  0  0  0  0  0  0  0  0  0  0  0
  -20.1235  -23.3166   18.5347 O   0  0  0  0  0  0  0  0  0  0  0  0
  -21.6495  -26.2658   20.6757 O   0  0  0  0  0  0  0  0  0  0  0  0
  -22.0151  -25.0009   21.1070 C   0  0  0  0  0  0  0  0  0  0  0  0
  -23.1750  -24.4092   20.3757 C   0  0  0  0  0  0  0  0  0  0  0  0
  -23.1764  -22.9178   20.3025 C   0  0  0  0  0  0  0  0  0  0  0  0
  -14.9331  -28.2723   20.3675 N   0  0  0  0  0  0  0  0  0  0  0  0
  -15.0613  -27.5396   21.5606 C   0  0  0  0  0  0  0  0  0  0  0  0
  -16.1034  -27.7046   22.2749 O   0  0  0  0  0  0  0  0  0  0  0  0
  -13.9896  -26.5728   21.9831 C   0  0  0  0  0  0  0  0  0  0  0  0
  -14.7023  -25.2618   22.2220 C   0  0  0  0  0  0  0  0  0  0  0  0
  -13.7726  -24.1075   22.5232 C   0  0  0  0  0  0  0  0  0  0  0  0
  -12.5199  -24.3146   21.7062 C   0  0  0  0  0  0  0  0  0  0  0  0
  -11.9935  -23.0520   21.0707 C   0  0  0  0  0  0  0  0  0  0  0  0
  -10.5405  -23.1787   20.7572 C   0  0  0  0  0  0  0  0  0  0  0  0
   -9.7074  -22.0275   21.3503 C   0  0  0  0  0  0  0  0  0  0  0  0
   -9.3941  -21.0241   20.3121 C   0  0  0  0  0  0  0  0  0  0  0  0
   -8.5727  -19.8744   20.7078 C   0  0  0  0  0  0  0  0  0  0  0  0
   -8.1487  -18.7922   19.8259 C   0  0  0  0  0  0  0  0  0  0  0  0
   -6.7271  -18.6310   19.4653 C   0  0  0  0  0  0  0  0  0  0  0  0
   -6.2449  -19.6147   18.3836 C   0  0  0  0  0  0  0  0  0  0  0  0
   -4.9562  -19.1838   17.7973 C   0  0  0  0  0  0  0  0  0  0  0  0
   -3.7616  -19.7854   18.5617 C   0  0  0  0  0  0  0  0  0  0  0  0
   -3.1031  -18.7572   19.3860 C   0  0  0  0  0  0  0  0  0  0  0  0
   -2.2841  -17.7573   18.6783 C   0  0  0  0  0  0  0  0  0  0  0  0
   -1.6212  -16.6532   19.3493 C   0  0  0  0  0  0  0  0  0  0  0  0
   -1.4224  -16.5919   20.8131 C   0  0  0  0  0  0  0  0  0  0  0  0
   -0.4565  -15.5452   21.2633 C   0  0  0  0  0  0  0  0  0  0  0  0
   -1.1363  -14.5015   22.1080 C   0  0  0  0  0  0  0  0  0  0  0  0
   -0.1682  -13.5136   22.7111 C   0  0  0  0  0  0  0  0  0  0  0  0
   -0.3948  -13.2916   24.1811 C   0  0  0  0  0  0  0  0  0  0  0  0
    0.3905  -12.1509   24.7517 C   0  0  0  0  0  0  0  0  0  0  0  0
    0.3158  -12.1677   26.2679 C   0  0  0  0  0  0  0  0  0  0  0  0
    1.1393  -11.0424   26.8328 C   0  0  0  0  0  0  0  0  0  0  0  0
  1  2  1  0
  5  1  1  0
  1 27  1  6
  2  3  1  0
  2 28  1  6
  4  3  1  0
  3 32  1  1
 29  4  1  0
  4 30  1  1
  5 26  1  6
  5 29  1  0
  7  6  1  0
  8  7  1  0
  9  8  1  0
 10  9  1  0
 11 10  1  0
 12 11  1  0
 13 12  1  0
 14 13  1  0
 15 14  1  0
 16 15  1  0
 17 16  1  0
 18 17  1  0
 19 18  1  0
 20 19  1  0
 20 21  1  6
 22 20  1  0
 22 23  1  1
 24 22  1  0
 24 25  1  6
 24 36  1  0
 25 26  1  0
 30 31  1  0
 32 33  1  0
 33 34  1  0
 34 35  1  0
 36 37  1  0
 37 38  2  0
 37 39  1  0
 39 40  1  0
 40 41  1  0
 41 42  1  0
 42 43  1  0
 43 44  1  0
 44 45  1  0
 45 46  1  0
 46 47  1  0
 47 48  1  0
 48 49  1  0
 49 50  1  0
 50 51  1  0
 51 52  1  0
 52 53  1  0
 53 54  1  0
 54 55  1  0
 55 56  1  0
 56 57  1  0
 57 58  1  0
 58 59  1  0
 59 60  1  0
 60 61  1  0
 61 62  1  0
 62 63  1  0
M  END
$$$$
