
     RDKit          3D

 27 30  0  0  0  0  0  0  0  0999 V2000
   -6.2229    3.9467  -23.9140 C   0  0  0  0  0  0  0  0  0  0  0  0
   -5.3574    3.2973  -23.0566 C   0  0  0  0  0  0  0  0  0  0  0  0
   -4.2514    3.9465  -22.5708 C   0  0  0  0  0  0  0  0  0  0  0  0
   -7.4110    3.2857  -24.4605 C   0  0  0  0  0  0  0  0  0  0  0  0
   -2.8385    5.9387  -22.4498 C   0  0  0  0  0  0  0  0  0  0  0  0
   -2.7120    6.9057  -21.5017 C   0  0  0  0  0  0  0  0  0  0  0  0
   -0.9045    8.3014  -20.4724 C   0  0  0  0  0  0  0  0  0  0  0  0
   -5.3614    9.2293  -20.2715 C   0  0  0  0  0  0  0  0  0  0  0  0
   -5.1980    7.4642  -18.7493 C   0  0  0  0  0  0  0  0  0  0  0  0
   -4.2108    6.9079  -19.5373 C   0  0  0  0  0  0  0  0  0  0  0  0
   -3.6505    5.7192  -19.1295 C   0  0  0  0  0  0  0  0  0  0  0  0
   -5.0089    5.6203  -17.1937 C   0  0  0  0  0  0  0  0  0  0  0  0
   -4.0046    5.2446  -22.9378 C   0  0  0  0  0  0  0  0  0  0  0  0
   -0.7249    6.5421  -22.2524 C   0  0  0  0  0  0  0  0  0  0  0  0
   -3.7769    7.4976  -20.7066 C   0  0  0  0  0  0  0  0  0  0  0  0
   -4.3668    8.6833  -21.0791 C   0  0  0  0  0  0  0  0  0  0  0  0
   -3.3149    3.2572  -21.6620 C   0  0  0  0  0  0  0  0  0  0  0  0
   -4.8979    5.9032  -23.8167 C   0  0  0  0  0  0  0  0  0  0  0  0
   -4.0248    5.0551  -17.9704 C   0  0  0  0  0  0  0  0  0  0  0  0
   -5.5870    6.8212  -17.5914 C   0  0  0  0  0  0  0  0  0  0  0  0
   -4.5559    7.3300  -24.1689 C   0  0  0  0  0  0  0  0  0  0  0  0
   -5.9937    5.2707  -24.3029 C   0  0  0  0  0  0  0  0  0  0  0  0
   -5.3697    4.9630  -16.0586 F   0  0  0  0  0  0  0  0  0  0  0  0
   -1.5705    5.7223  -22.9125 N   0  0  0  0  0  0  0  0  0  0  0  0
   -5.7664    8.6280  -19.1288 N   0  0  0  0  0  0  0  0  0  0  0  0
   -8.6398    3.6626  -23.8322 N   0  0  0  0  0  4  0  0  0  0  0  0
   -1.4151    7.2798  -21.3777 N   0  0  0  0  0  0  0  0  0  0  0  0
  2  1  2  0
  1  4  1  0
  1 22  1  0
  3  2  1  0
 13  3  2  0
  3 17  1  0
  4 26  1  0
  6  5  2  0
  5 13  1  0
  5 24  1  0
 15  6  1  0
  6 27  1  0
 27  7  1  0
  8 16  2  0
 25  8  1  0
 10  9  1  0
  9 20  1  0
  9 25  2  0
 10 11  1  0
 10 15  2  0
 11 19  2  0
 19 12  1  0
 12 20  2  0
 12 23  1  0
 13 18  1  0
 24 14  2  0
 14 27  1  0
 15 16  1  0
 18 21  1  0
 18 22  2  0
M  CHG  1  26   1
M  END
$$$$
