
     RDKit          3D

 27 30  0  0  0  0  0  0  0  0999 V2000
   -6.3059    3.9653  -24.2705 C   0  0  0  0  0  0  0  0  0  0  0  0
   -5.8510    5.2612  -24.4101 C   0  0  0  0  0  0  0  0  0  0  0  0
   -4.7263    5.6730  -23.7422 C   0  0  0  0  0  0  0  0  0  0  0  0
   -7.5073    3.4888  -24.9610 C   0  0  0  0  0  0  0  0  0  0  0  0
   -2.8761    5.2138  -22.2107 C   0  0  0  0  0  0  0  0  0  0  0  0
   -2.7337    5.6858  -20.9431 C   0  0  0  0  0  0  0  0  0  0  0  0
   -0.9067    6.5089  -19.4399 C   0  0  0  0  0  0  0  0  0  0  0  0
   -5.1858    5.1038  -18.1899 C   0  0  0  0  0  0  0  0  0  0  0  0
   -5.4981    7.2825  -18.9742 C   0  0  0  0  0  0  0  0  0  0  0  0
   -4.4752    7.0779  -19.8780 C   0  0  0  0  0  0  0  0  0  0  0  0
   -4.1399    8.1125  -20.7208 C   0  0  0  0  0  0  0  0  0  0  0  0
   -5.7941    9.5361  -19.8045 C   0  0  0  0  0  0  0  0  0  0  0  0
   -4.0516    4.7948  -22.9333 C   0  0  0  0  0  0  0  0  0  0  0  0
   -0.7567    5.6728  -21.8009 C   0  0  0  0  0  0  0  0  0  0  0  0
   -3.7865    5.8853  -19.9590 C   0  0  0  0  0  0  0  0  0  0  0  0
   -4.1517    4.8788  -19.0951 C   0  0  0  0  0  0  0  0  0  0  0  0
   -4.2383    7.0594  -23.8770 C   0  0  0  0  0  0  0  0  0  0  0  0
   -4.5246    3.4675  -22.7967 C   0  0  0  0  0  0  0  0  0  0  0  0
   -4.7763    9.3453  -20.7093 C   0  0  0  0  0  0  0  0  0  0  0  0
   -6.1456    8.5012  -18.9443 C   0  0  0  0  0  0  0  0  0  0  0  0
   -3.7243    2.5645  -21.8906 C   0  0  0  0  0  0  0  0  0  0  0  0
   -5.6354    3.0503  -23.4520 C   0  0  0  0  0  0  0  0  0  0  0  0
   -6.4131   10.7475  -19.8001 F   0  0  0  0  0  0  0  0  0  0  0  0
   -1.6143    5.2127  -22.7366 N   0  0  0  0  0  0  0  0  0  0  0  0
   -5.8442    6.2848  -18.1337 N   0  0  0  0  0  0  0  0  0  0  0  0
   -7.2561    2.5306  -25.9933 N   0  0  0  0  0  4  0  0  0  0  0  0
   -1.4331    5.9698  -20.6873 N   0  0  0  0  0  0  0  0  0  0  0  0
  2  1  2  0
  1  4  1  0
  1 22  1  0
  3  2  1  0
 13  3  2  0
  3 17  1  0
  4 26  1  0
  6  5  2  0
  5 13  1  0
  5 24  1  0
 15  6  1  0
  6 27  1  0
 27  7  1  0
  8 16  2  0
 25  8  1  0
 10  9  1  0
  9 20  1  0
  9 25  2  0
 10 11  1  0
 10 15  2  0
 11 19  2  0
 19 12  1  0
 12 20  2  0
 12 23  1  0
 13 18  1  0
 24 14  2  0
 14 27  1  0
 15 16  1  0
 18 21  1  0
 18 22  2  0
M  CHG  1  26   1
M  END
$$$$
