
     RDKit          3D

 27 30  0  0  0  0  0  0  0  0999 V2000
   -2.1960    5.7126  -24.5826 C   0  0  0  0  0  0  0  0  0  0  0  0
   -2.7777    4.6869  -23.8647 C   0  0  0  0  0  0  0  0  0  0  0  0
   -2.8542    4.7590  -22.4974 C   0  0  0  0  0  0  0  0  0  0  0  0
   -2.0884    5.6701  -26.0433 C   0  0  0  0  0  0  0  0  0  0  0  0
   -2.4082    5.9399  -20.4030 C   0  0  0  0  0  0  0  0  0  0  0  0
   -3.2294    6.6548  -19.5878 C   0  0  0  0  0  0  0  0  0  0  0  0
   -3.5645    7.0475  -17.1366 C   0  0  0  0  0  0  0  0  0  0  0  0
   -5.2750    9.7171  -20.1957 C   0  0  0  0  0  0  0  0  0  0  0  0
   -6.5278    7.8725  -20.8937 C   0  0  0  0  0  0  0  0  0  0  0  0
   -5.4786    7.0528  -20.5301 C   0  0  0  0  0  0  0  0  0  0  0  0
   -5.6204    5.6974  -20.7202 C   0  0  0  0  0  0  0  0  0  0  0  0
   -7.7988    5.9429  -21.6127 C   0  0  0  0  0  0  0  0  0  0  0  0
   -2.3512    5.8533  -21.8413 C   0  0  0  0  0  0  0  0  0  0  0  0
   -1.8850    5.5823  -18.2890 C   0  0  0  0  0  0  0  0  0  0  0  0
   -4.3073    7.5444  -19.9920 C   0  0  0  0  0  0  0  0  0  0  0  0
   -4.2062    8.9060  -19.8227 C   0  0  0  0  0  0  0  0  0  0  0  0
   -3.4648    3.6626  -21.7206 C   0  0  0  0  0  0  0  0  0  0  0  0
   -1.7572    6.9010  -22.5855 C   0  0  0  0  0  0  0  0  0  0  0  0
   -6.7604    5.1153  -21.2551 C   0  0  0  0  0  0  0  0  0  0  0  0
   -7.6722    7.3156  -21.4283 C   0  0  0  0  0  0  0  0  0  0  0  0
   -1.2309    8.0693  -21.7887 C   0  0  0  0  0  0  0  0  0  0  0  0
   -1.6762    6.8396  -23.9371 C   0  0  0  0  0  0  0  0  0  0  0  0
   -8.9131    5.3640  -22.1360 F   0  0  0  0  0  0  0  0  0  0  0  0
   -1.5653    5.2677  -19.5625 N   0  0  0  0  0  0  0  0  0  0  0  0
   -6.4127    9.2060  -20.7208 N   0  0  0  0  0  0  0  0  0  0  0  0
   -2.8760    6.6516  -26.7238 N   0  0  0  0  0  4  0  0  0  0  0  0
   -2.9109    6.4386  -18.2881 N   0  0  0  0  0  0  0  0  0  0  0  0
  2  1  2  0
  1  4  1  0
  1 22  1  0
  3  2  1  0
 13  3  2  0
  3 17  1  0
  4 26  1  0
  6  5  2  0
  5 13  1  0
  5 24  1  0
 15  6  1  0
  6 27  1  0
 27  7  1  0
  8 16  2  0
 25  8  1  0
 10  9  1  0
  9 20  1  0
  9 25  2  0
 10 11  1  0
 10 15  2  0
 11 19  2  0
 19 12  1  0
 12 20  2  0
 12 23  1  0
 13 18  1  0
 24 14  2  0
 14 27  1  0
 15 16  1  0
 18 21  1  0
 18 22  2  0
M  CHG  1  26   1
M  END
$$$$
