
     RDKit          3D

 27 30  0  0  0  0  0  0  0  0999 V2000
   10.1185    7.9575   -8.5177 C   0  0  0  0  0  0  0  0  0  0  0  0
    9.8205    6.8774   -7.7112 C   0  0  0  0  0  0  0  0  0  0  0  0
    8.6136    6.2377   -7.8333 C   0  0  0  0  0  0  0  0  0  0  0  0
   11.3933    8.6723   -8.4132 C   0  0  0  0  0  0  0  0  0  0  0  0
    6.4197    6.0223   -8.8916 C   0  0  0  0  0  0  0  0  0  0  0  0
    5.3200    6.0547   -8.0918 C   0  0  0  0  0  0  0  0  0  0  0  0
    3.0258    5.0522   -8.0121 C   0  0  0  0  0  0  0  0  0  0  0  0
    4.7996    6.8964   -4.4929 C   0  0  0  0  0  0  0  0  0  0  0  0
    4.9789    8.9034   -5.6759 C   0  0  0  0  0  0  0  0  0  0  0  0
    5.1578    8.1760   -6.8352 C   0  0  0  0  0  0  0  0  0  0  0  0
    5.3413    8.8670   -8.0108 C   0  0  0  0  0  0  0  0  0  0  0  0
    5.1738   10.9650   -6.9279 C   0  0  0  0  0  0  0  0  0  0  0  0
    7.7001    6.6723   -8.7593 C   0  0  0  0  0  0  0  0  0  0  0  0
    4.8259    4.7489   -9.7335 C   0  0  0  0  0  0  0  0  0  0  0  0
    5.1611    6.7965   -6.8504 C   0  0  0  0  0  0  0  0  0  0  0  0
    4.9782    6.1457   -5.6522 C   0  0  0  0  0  0  0  0  0  0  0  0
    8.2819    5.0886   -6.9685 C   0  0  0  0  0  0  0  0  0  0  0  0
    8.0144    7.7801   -9.5829 C   0  0  0  0  0  0  0  0  0  0  0  0
    5.3539   10.2520   -8.0899 C   0  0  0  0  0  0  0  0  0  0  0  0
    4.9879   10.2827   -5.7302 C   0  0  0  0  0  0  0  0  0  0  0  0
    6.9568    8.1931  -10.5767 C   0  0  0  0  0  0  0  0  0  0  0  0
    9.2041    8.4197   -9.4701 C   0  0  0  0  0  0  0  0  0  0  0  0
    5.1871   12.3226   -7.0143 F   0  0  0  0  0  0  0  0  0  0  0  0
    6.0871    5.1913   -9.9248 N   0  0  0  0  0  0  0  0  0  0  0  0
    4.8005    8.2496   -4.5087 N   0  0  0  0  0  0  0  0  0  0  0  0
   12.5476    7.8630   -8.6568 N   0  0  0  0  0  4  0  0  0  0  0  0
    4.3386    5.2731   -8.6051 N   0  0  0  0  0  0  0  0  0  0  0  0
  2  1  2  0
  1  4  1  0
  1 22  1  0
  3  2  1  0
 13  3  2  0
  3 17  1  0
  4 26  1  0
  6  5  2  0
  5 13  1  0
  5 24  1  0
 15  6  1  0
  6 27  1  0
 27  7  1  0
  8 16  2  0
 25  8  1  0
 10  9  1  0
  9 20  1  0
  9 25  2  0
 10 11  1  0
 10 15  2  0
 11 19  2  0
 19 12  1  0
 12 20  2  0
 12 23  1  0
 13 18  1  0
 24 14  2  0
 14 27  1  0
 15 16  1  0
 18 21  1  0
 18 22  2  0
M  CHG  1  26   1
M  END
$$$$
