
     RDKit          3D

 27 30  0  0  0  0  0  0  0  0999 V2000
    6.2471    5.7496   -3.9215 C   0  0  0  0  0  0  0  0  0  0  0  0
    5.4231    6.7922   -4.2879 C   0  0  0  0  0  0  0  0  0  0  0  0
    4.8045    6.7894   -5.5459 C   0  0  0  0  0  0  0  0  0  0  0  0
    6.9412    5.6722   -2.6158 C   0  0  0  0  0  0  0  0  0  0  0  0
    4.3428    5.7896   -7.7520 C   0  0  0  0  0  0  0  0  0  0  0  0
    4.8364    6.0603   -9.0042 C   0  0  0  0  0  0  0  0  0  0  0  0
    3.8208    6.1574  -11.2657 C   0  0  0  0  0  0  0  0  0  0  0  0
    8.2782    5.8459  -10.3793 C   0  0  0  0  0  0  0  0  0  0  0  0
    8.0567    7.9143   -9.2682 C   0  0  0  0  0  0  0  0  0  0  0  0
    6.7631    7.5763   -8.9546 C   0  0  0  0  0  0  0  0  0  0  0  0
    6.0492    8.5124   -8.2150 C   0  0  0  0  0  0  0  0  0  0  0  0
    7.8999   10.0094   -8.1530 C   0  0  0  0  0  0  0  0  0  0  0  0
    4.9939    5.7624   -6.4459 C   0  0  0  0  0  0  0  0  0  0  0  0
    2.6760    5.6331   -9.1424 C   0  0  0  0  0  0  0  0  0  0  0  0
    6.2182    6.3794   -9.3476 C   0  0  0  0  0  0  0  0  0  0  0  0
    6.9896    5.5031  -10.0701 C   0  0  0  0  0  0  0  0  0  0  0  0
    3.9487    7.9722   -5.8251 C   0  0  0  0  0  0  0  0  0  0  0  0
    5.8126    4.7191   -6.0922 C   0  0  0  0  0  0  0  0  0  0  0  0
    6.6028    9.7062   -7.8202 C   0  0  0  0  0  0  0  0  0  0  0  0
    8.6468    9.1142   -8.8841 C   0  0  0  0  0  0  0  0  0  0  0  0
    6.0710    3.5688   -7.0397 C   0  0  0  0  0  0  0  0  0  0  0  0
    6.4084    4.7456   -4.8507 C   0  0  0  0  0  0  0  0  0  0  0  0
    8.4427   11.2106   -7.7487 F   0  0  0  0  0  0  0  0  0  0  0  0
    3.0094    5.5284   -7.8561 N   0  0  0  0  0  0  0  0  0  0  0  0
    8.7693    7.0183   -9.9790 N   0  0  0  0  0  0  0  0  0  0  0  0
    8.2124    4.9407   -2.6973 N   0  0  0  0  0  4  0  0  0  0  0  0
    3.7902    5.9578   -9.8449 N   0  0  0  0  0  0  0  0  0  0  0  0
  2  1  2  0
  4  1  1  1
  1 22  1  0
  3  2  1  0
 13  3  2  0
 17  3  1  6
 26  4  1  6
  6  5  2  0
  5 13  1  0
  5 24  1  0
 15  6  1  0
  6 27  1  0
  7 27  1  6
  8 16  2  0
 25  8  1  0
 10  9  1  0
  9 20  1  0
  9 25  2  0
 10 11  1  0
 10 15  2  0
 11 19  2  0
 19 12  1  0
 12 20  2  0
 12 23  1  0
 13 18  1  0
 24 14  2  0
 14 27  1  0
 15 16  1  0
 21 18  1  6
 18 22  2  0
M  CHG  1  26   1
M  END
$$$$
