
     RDKit          3D

 27 30  0  0  0  0  0  0  0  0999 V2000
   -6.5804    3.6154  -22.4265 C   0  0  0  0  0  0  0  0  0  0  0  0
   -5.2025    3.5796  -22.4445 C   0  0  0  0  0  0  0  0  0  0  0  0
   -4.4710    4.7687  -22.5716 C   0  0  0  0  0  0  0  0  0  0  0  0
   -7.4308    2.4100  -22.2978 C   0  0  0  0  0  0  0  0  0  0  0  0
   -4.3046    7.2163  -22.8197 C   0  0  0  0  0  0  0  0  0  0  0  0
   -3.4789    7.8665  -21.9364 C   0  0  0  0  0  0  0  0  0  0  0  0
   -2.1259    9.9424  -22.0611 C   0  0  0  0  0  0  0  0  0  0  0  0
   -1.6054    6.7529  -18.9309 C   0  0  0  0  0  0  0  0  0  0  0  0
   -3.8731    7.0039  -18.3339 C   0  0  0  0  0  0  0  0  0  0  0  0
   -4.1431    7.3824  -19.6261 C   0  0  0  0  0  0  0  0  0  0  0  0
   -5.4703    7.6839  -19.9098 C   0  0  0  0  0  0  0  0  0  0  0  0
   -6.1472    7.2265  -17.6731 C   0  0  0  0  0  0  0  0  0  0  0  0
   -5.0917    5.9949  -22.6809 C   0  0  0  0  0  0  0  0  0  0  0  0
   -3.5469    8.9843  -23.8376 C   0  0  0  0  0  0  0  0  0  0  0  0
   -3.1547    7.4499  -20.5761 C   0  0  0  0  0  0  0  0  0  0  0  0
   -1.8678    7.1295  -20.2205 C   0  0  0  0  0  0  0  0  0  0  0  0
   -2.9946    4.5967  -22.5872 C   0  0  0  0  0  0  0  0  0  0  0  0
   -6.4633    6.0428  -22.6645 C   0  0  0  0  0  0  0  0  0  0  0  0
   -6.4556    7.6088  -18.9553 C   0  0  0  0  0  0  0  0  0  0  0  0
   -4.8471    6.9179  -17.3442 C   0  0  0  0  0  0  0  0  0  0  0  0
   -7.2038    7.3553  -22.7932 C   0  0  0  0  0  0  0  0  0  0  0  0
   -7.1586    4.8606  -22.5386 C   0  0  0  0  0  0  0  0  0  0  0  0
   -7.1466    7.1542  -16.7261 F   0  0  0  0  0  0  0  0  0  0  0  0
   -4.3347    7.9194  -23.9867 N   0  0  0  0  0  0  0  0  0  0  0  0
   -2.5937    6.7006  -18.0386 N   0  0  0  0  0  0  0  0  0  0  0  0
   -8.2254    2.1511  -23.5059 N   0  0  0  0  0  4  0  0  0  0  0  0
   -3.0235    8.9537  -22.5865 N   0  0  0  0  0  0  0  0  0  0  0  0
  2  1  2  0
  4  1  1  1
  1 22  1  0
  3  2  1  0
 13  3  2  0
 17  3  1  6
 26  4  1  6
  6  5  2  0
  5 13  1  0
  5 24  1  0
 15  6  1  0
  6 27  1  0
  7 27  1  6
  8 16  2  0
 25  8  1  0
 10  9  1  0
  9 20  1  0
  9 25  2  0
 10 11  1  0
 10 15  2  0
 11 19  2  0
 19 12  1  0
 12 20  2  0
 12 23  1  0
 13 18  1  0
 24 14  2  0
 14 27  1  0
 15 16  1  0
 21 18  1  6
 18 22  2  0
M  CHG  1  26   1
M  END
$$$$
