
     RDKit          3D

 27 30  0  0  0  0  0  0  0  0999 V2000
   -7.3525    4.4063  -24.0459 C   0  0  0  0  0  0  0  0  0  0  0  0
   -6.4939    3.4389  -23.5635 C   0  0  0  0  0  0  0  0  0  0  0  0
   -5.2314    3.7807  -23.1514 C   0  0  0  0  0  0  0  0  0  0  0  0
   -8.7062    4.0806  -24.5028 C   0  0  0  0  0  0  0  0  0  0  0  0
   -3.4916    5.4637  -22.8047 C   0  0  0  0  0  0  0  0  0  0  0  0
   -3.0010    5.7857  -21.5777 C   0  0  0  0  0  0  0  0  0  0  0  0
   -0.8292    6.4954  -20.5507 C   0  0  0  0  0  0  0  0  0  0  0  0
   -4.6510    4.7619  -18.3901 C   0  0  0  0  0  0  0  0  0  0  0  0
   -5.0312    7.0480  -18.6875 C   0  0  0  0  0  0  0  0  0  0  0  0
   -4.3039    6.9918  -19.8593 C   0  0  0  0  0  0  0  0  0  0  0  0
   -4.1463    8.1537  -20.5794 C   0  0  0  0  0  0  0  0  0  0  0  0
   -5.4035    9.4157  -19.0208 C   0  0  0  0  0  0  0  0  0  0  0  0
   -4.8207    5.0874  -23.2186 C   0  0  0  0  0  0  0  0  0  0  0  0
   -1.3448    5.9553  -22.9462 C   0  0  0  0  0  0  0  0  0  0  0  0
   -3.7357    5.8231  -20.3225 C   0  0  0  0  0  0  0  0  0  0  0  0
   -3.9146    4.6857  -19.5695 C   0  0  0  0  0  0  0  0  0  0  0  0
   -4.3028    2.7518  -22.6440 C   0  0  0  0  0  0  0  0  0  0  0  0
   -5.7081    6.0732  -23.7138 C   0  0  0  0  0  0  0  0  0  0  0  0
   -4.6805    9.3733  -20.1898 C   0  0  0  0  0  0  0  0  0  0  0  0
   -5.5720    8.2508  -18.2798 C   0  0  0  0  0  0  0  0  0  0  0  0
   -5.1802    7.4862  -23.7527 C   0  0  0  0  0  0  0  0  0  0  0  0
   -6.9579    5.7460  -24.1240 C   0  0  0  0  0  0  0  0  0  0  0  0
   -5.9242   10.6154  -18.6462 F   0  0  0  0  0  0  0  0  0  0  0  0
   -2.4286    5.5765  -23.6567 N   0  0  0  0  0  0  0  0  0  0  0  0
   -5.1975    5.9230  -17.9607 N   0  0  0  0  0  0  0  0  0  0  0  0
   -9.7366    4.3662  -23.5523 N   0  0  0  0  0  4  0  0  0  0  0  0
   -1.6824    6.0891  -21.6602 N   0  0  0  0  0  0  0  0  0  0  0  0
  2  1  2  0
  1  4  1  0
  1 22  1  0
  3  2  1  0
 13  3  2  0
  3 17  1  0
  4 26  1  0
  6  5  2  0
  5 13  1  0
  5 24  1  0
 15  6  1  0
  6 27  1  0
 27  7  1  0
  8 16  2  0
 25  8  1  0
 10  9  1  0
  9 20  1  0
  9 25  2  0
 10 11  1  0
 10 15  2  0
 11 19  2  0
 19 12  1  0
 12 20  2  0
 12 23  1  0
 13 18  1  0
 24 14  2  0
 14 27  1  0
 15 16  1  0
 18 21  1  0
 18 22  2  0
M  CHG  1  26   1
M  END
$$$$
