
     RDKit          3D

 27 30  0  0  0  0  0  0  0  0999 V2000
   -7.3805    4.7734  -25.6240 C   0  0  0  0  0  0  0  0  0  0  0  0
   -6.7769    5.5022  -26.6263 C   0  0  0  0  0  0  0  0  0  0  0  0
   -6.6465    6.8925  -26.5023 C   0  0  0  0  0  0  0  0  0  0  0  0
   -7.5616    3.3045  -25.6729 C   0  0  0  0  0  0  0  0  0  0  0  0
   -6.9659    9.0184  -25.2946 C   0  0  0  0  0  0  0  0  0  0  0  0
   -7.7161   10.0400  -25.8222 C   0  0  0  0  0  0  0  0  0  0  0  0
   -7.5487   12.5139  -25.7372 C   0  0  0  0  0  0  0  0  0  0  0  0
  -10.1230   10.2665  -28.6396 C   0  0  0  0  0  0  0  0  0  0  0  0
  -11.1662    9.1056  -26.8716 C   0  0  0  0  0  0  0  0  0  0  0  0
  -10.0190    9.2567  -26.1318 C   0  0  0  0  0  0  0  0  0  0  0  0
  -10.0428    8.7179  -24.8505 C   0  0  0  0  0  0  0  0  0  0  0  0
  -12.2769    7.9396  -25.1211 C   0  0  0  0  0  0  0  0  0  0  0  0
   -7.1084    7.5691  -25.3934 C   0  0  0  0  0  0  0  0  0  0  0  0
   -6.0316   10.8830  -24.6730 C   0  0  0  0  0  0  0  0  0  0  0  0
   -8.9208    9.9086  -26.6349 C   0  0  0  0  0  0  0  0  0  0  0  0
   -8.9767   10.4204  -27.9077 C   0  0  0  0  0  0  0  0  0  0  0  0
   -5.9871    7.5644  -27.6525 C   0  0  0  0  0  0  0  0  0  0  0  0
   -7.7116    6.8538  -24.3892 C   0  0  0  0  0  0  0  0  0  0  0  0
  -11.1476    8.0714  -24.3513 C   0  0  0  0  0  0  0  0  0  0  0  0
  -12.3013    8.4568  -26.3961 C   0  0  0  0  0  0  0  0  0  0  0  0
   -8.2505    7.5388  -23.1531 C   0  0  0  0  0  0  0  0  0  0  0  0
   -7.8273    5.4892  -24.5352 C   0  0  0  0  0  0  0  0  0  0  0  0
  -13.3786    7.2897  -24.6064 F   0  0  0  0  0  0  0  0  0  0  0  0
   -5.9315    9.5564  -24.5890 N   0  0  0  0  0  0  0  0  0  0  0  0
  -11.1672    9.6265  -28.1144 N   0  0  0  0  0  0  0  0  0  0  0  0
   -8.9675    2.9171  -25.8497 N   0  0  0  0  0  4  0  0  0  0  0  0
   -7.1205   11.1801  -25.4255 N   0  0  0  0  0  0  0  0  0  0  0  0
  2  1  2  0
  4  1  1  1
  1 22  1  0
  3  2  1  0
 13  3  2  0
 17  3  1  6
 26  4  1  6
  6  5  2  0
  5 13  1  0
  5 24  1  0
 15  6  1  0
  6 27  1  0
  7 27  1  6
  8 16  2  0
 25  8  1  0
 10  9  1  0
  9 20  1  0
  9 25  2  0
 10 11  1  0
 10 15  2  0
 11 19  2  0
 19 12  1  0
 12 20  2  0
 12 23  1  0
 13 18  1  0
 24 14  2  0
 14 27  1  0
 15 16  1  0
 21 18  1  6
 18 22  2  0
M  CHG  1  26   1
M  END
$$$$
