
     RDKit          3D

 27 30  0  0  0  0  0  0  0  0999 V2000
   -3.7778    2.6467  -23.0381 C   0  0  0  0  0  0  0  0  0  0  0  0
   -2.7652    3.2102  -22.2879 C   0  0  0  0  0  0  0  0  0  0  0  0
   -2.5782    4.5688  -22.2916 C   0  0  0  0  0  0  0  0  0  0  0  0
   -4.0055    1.1994  -23.0667 C   0  0  0  0  0  0  0  0  0  0  0  0
   -3.2088    6.7989  -23.0719 C   0  0  0  0  0  0  0  0  0  0  0  0
   -3.9014    7.8003  -22.4656 C   0  0  0  0  0  0  0  0  0  0  0  0
   -3.8600   10.3016  -22.3369 C   0  0  0  0  0  0  0  0  0  0  0  0
   -7.4050    7.7727  -21.1790 C   0  0  0  0  0  0  0  0  0  0  0  0
   -5.9888    7.2253  -19.4029 C   0  0  0  0  0  0  0  0  0  0  0  0
   -4.9122    7.3329  -20.2599 C   0  0  0  0  0  0  0  0  0  0  0  0
   -3.6552    7.0969  -19.7526 C   0  0  0  0  0  0  0  0  0  0  0  0
   -4.4969    6.6561  -17.5847 C   0  0  0  0  0  0  0  0  0  0  0  0
   -3.3997    5.3698  -23.0428 C   0  0  0  0  0  0  0  0  0  0  0  0
   -2.3384    8.7570  -23.5998 C   0  0  0  0  0  0  0  0  0  0  0  0
   -5.0564    7.6624  -21.5918 C   0  0  0  0  0  0  0  0  0  0  0  0
   -6.3312    7.8862  -22.0584 C   0  0  0  0  0  0  0  0  0  0  0  0
   -1.4919    5.1795  -21.5010 C   0  0  0  0  0  0  0  0  0  0  0  0
   -4.4362    4.7835  -23.8085 C   0  0  0  0  0  0  0  0  0  0  0  0
   -3.4159    6.7593  -18.4284 C   0  0  0  0  0  0  0  0  0  0  0  0
   -5.7749    6.8903  -18.0810 C   0  0  0  0  0  0  0  0  0  0  0  0
   -5.2962    5.7340  -24.6046 C   0  0  0  0  0  0  0  0  0  0  0  0
   -4.6294    3.4419  -23.8122 C   0  0  0  0  0  0  0  0  0  0  0  0
   -4.2535    6.3251  -16.2879 F   0  0  0  0  0  0  0  0  0  0  0  0
   -2.2240    7.4244  -23.7843 N   0  0  0  0  0  0  0  0  0  0  0  0
   -7.2328    7.4483  -19.8765 N   0  0  0  0  0  0  0  0  0  0  0  0
   -3.8643    0.5527  -21.7984 N   0  0  0  0  0  4  0  0  0  0  0  0
   -3.3703    9.0051  -22.7878 N   0  0  0  0  0  0  0  0  0  0  0  0
  2  1  2  0
  1  4  1  0
  1 22  1  0
  3  2  1  0
 13  3  2  0
  3 17  1  0
  4 26  1  0
  6  5  2  0
  5 13  1  0
  5 24  1  0
 15  6  1  0
  6 27  1  0
 27  7  1  0
  8 16  2  0
 25  8  1  0
 10  9  1  0
  9 20  1  0
  9 25  2  0
 10 11  1  0
 10 15  2  0
 11 19  2  0
 19 12  1  0
 12 20  2  0
 12 23  1  0
 13 18  1  0
 24 14  2  0
 14 27  1  0
 15 16  1  0
 18 21  1  0
 18 22  2  0
M  CHG  1  26   1
M  END
$$$$
