
     RDKit          3D

 27 30  0  0  0  0  0  0  0  0999 V2000
   -4.0433    8.6838  -24.9959 C   0  0  0  0  0  0  0  0  0  0  0  0
   -3.4257    9.6385  -24.2130 C   0  0  0  0  0  0  0  0  0  0  0  0
   -2.6872    9.2621  -23.1205 C   0  0  0  0  0  0  0  0  0  0  0  0
   -4.8469    9.0455  -26.1666 C   0  0  0  0  0  0  0  0  0  0  0  0
   -1.8026    7.5191  -21.6510 C   0  0  0  0  0  0  0  0  0  0  0  0
   -2.1196    7.5291  -20.3284 C   0  0  0  0  0  0  0  0  0  0  0  0
   -1.0587    6.9347  -18.1384 C   0  0  0  0  0  0  0  0  0  0  0  0
   -4.6666    9.5783  -18.5268 C   0  0  0  0  0  0  0  0  0  0  0  0
   -5.6791    7.5657  -19.1464 C   0  0  0  0  0  0  0  0  0  0  0  0
   -4.4918    7.1770  -19.7333 C   0  0  0  0  0  0  0  0  0  0  0  0
   -4.4443    5.9443  -20.3426 C   0  0  0  0  0  0  0  0  0  0  0  0
   -6.7012    5.4739  -19.8063 C   0  0  0  0  0  0  0  0  0  0  0  0
   -2.5619    7.9334  -22.8048 C   0  0  0  0  0  0  0  0  0  0  0  0
   -0.1162    6.7452  -20.4561 C   0  0  0  0  0  0  0  0  0  0  0  0
   -3.3678    7.9770  -19.7300 C   0  0  0  0  0  0  0  0  0  0  0  0
   -3.4604    9.2032  -19.1132 C   0  0  0  0  0  0  0  0  0  0  0  0
   -2.0318   10.2760  -22.2715 C   0  0  0  0  0  0  0  0  0  0  0  0
   -3.1979    6.9610  -23.6137 C   0  0  0  0  0  0  0  0  0  0  0  0
   -5.5243    5.0751  -20.3953 C   0  0  0  0  0  0  0  0  0  0  0  0
   -6.7673    6.7173  -19.1867 C   0  0  0  0  0  0  0  0  0  0  0  0
   -3.0088    5.5224  -23.1998 C   0  0  0  0  0  0  0  0  0  0  0  0
   -3.9304    7.3223  -24.6955 C   0  0  0  0  0  0  0  0  0  0  0  0
   -7.7551    4.6155  -19.8621 F   0  0  0  0  0  0  0  0  0  0  0  0
   -0.5316    7.0194  -21.7112 N   0  0  0  0  0  0  0  0  0  0  0  0
   -5.7531    8.7717  -18.5451 N   0  0  0  0  0  0  0  0  0  0  0  0
   -6.1991    9.4052  -25.8683 N   0  0  0  0  0  4  0  0  0  0  0  0
   -1.0860    7.0551  -19.5906 N   0  0  0  0  0  0  0  0  0  0  0  0
  2  1  2  0
  1  4  1  0
  1 22  1  0
  3  2  1  0
 13  3  2  0
  3 17  1  0
  4 26  1  0
  6  5  2  0
  5 13  1  0
  5 24  1  0
 15  6  1  0
  6 27  1  0
 27  7  1  0
  8 16  2  0
 25  8  1  0
 10  9  1  0
  9 20  1  0
  9 25  2  0
 10 11  1  0
 10 15  2  0
 11 19  2  0
 19 12  1  0
 12 20  2  0
 12 23  1  0
 13 18  1  0
 24 14  2  0
 14 27  1  0
 15 16  1  0
 18 21  1  0
 18 22  2  0
M  CHG  1  26   1
M  END
$$$$
