
     RDKit          3D

 27 30  0  0  0  0  0  0  0  0999 V2000
   -1.0577    7.9873  -22.6608 C   0  0  0  0  0  0  0  0  0  0  0  0
   -1.0830    7.1910  -21.5358 C   0  0  0  0  0  0  0  0  0  0  0  0
   -2.0029    6.1373  -21.4421 C   0  0  0  0  0  0  0  0  0  0  0  0
   -0.1226    9.1210  -22.8427 C   0  0  0  0  0  0  0  0  0  0  0  0
   -3.8510    4.7647  -22.3253 C   0  0  0  0  0  0  0  0  0  0  0  0
   -5.1877    4.7564  -22.0119 C   0  0  0  0  0  0  0  0  0  0  0  0
   -6.8774    2.9593  -21.7456 C   0  0  0  0  0  0  0  0  0  0  0  0
   -7.7827    7.3930  -22.3231 C   0  0  0  0  0  0  0  0  0  0  0  0
   -6.6267    7.7332  -20.2958 C   0  0  0  0  0  0  0  0  0  0  0  0
   -5.8481    6.6403  -20.5880 C   0  0  0  0  0  0  0  0  0  0  0  0
   -4.8710    6.3186  -19.6529 C   0  0  0  0  0  0  0  0  0  0  0  0
   -5.4912    8.1361  -18.2450 C   0  0  0  0  0  0  0  0  0  0  0  0
   -2.8992    5.8639  -22.4533 C   0  0  0  0  0  0  0  0  0  0  0  0
   -4.4940    2.6856  -22.3274 C   0  0  0  0  0  0  0  0  0  0  0  0
   -6.0280    5.9181  -21.7414 C   0  0  0  0  0  0  0  0  0  0  0  0
   -7.0102    6.3027  -22.6202 C   0  0  0  0  0  0  0  0  0  0  0  0
   -1.9364    5.3591  -20.1775 C   0  0  0  0  0  0  0  0  0  0  0  0
   -2.8836    6.6504  -23.5781 C   0  0  0  0  0  0  0  0  0  0  0  0
   -4.6929    7.0493  -18.5031 C   0  0  0  0  0  0  0  0  0  0  0  0
   -6.4724    8.4938  -19.1412 C   0  0  0  0  0  0  0  0  0  0  0  0
   -3.8496    6.4098  -24.7167 C   0  0  0  0  0  0  0  0  0  0  0  0
   -1.9702    7.6790  -23.6455 C   0  0  0  0  0  0  0  0  0  0  0  0
   -5.3001    8.8608  -17.0878 F   0  0  0  0  0  0  0  0  0  0  0  0
   -3.4401    3.4795  -22.5165 N   0  0  0  0  0  0  0  0  0  0  0  0
   -7.5760    8.0668  -21.1922 N   0  0  0  0  0  0  0  0  0  0  0  0
   -0.8156   10.4133  -22.9278 N   0  0  0  0  0  4  0  0  0  0  0  0
   -5.5619    3.4633  -22.0192 N   0  0  0  0  0  0  0  0  0  0  0  0
  2  1  2  0
  4  1  1  1
  1 22  1  0
  3  2  1  0
 13  3  2  0
 17  3  1  6
 26  4  1  6
  6  5  2  0
  5 13  1  0
  5 24  1  0
 15  6  1  0
  6 27  1  0
  7 27  1  6
  8 16  2  0
 25  8  1  0
 10  9  1  0
  9 20  1  0
  9 25  2  0
 10 11  1  0
 10 15  2  0
 11 19  2  0
 19 12  1  0
 12 20  2  0
 12 23  1  0
 13 18  1  0
 24 14  2  0
 14 27  1  0
 15 16  1  0
 21 18  1  6
 18 22  2  0
M  CHG  1  26   1
M  END
$$$$
