
     RDKit          3D

 27 30  0  0  0  0  0  0  0  0999 V2000
   -6.0740    5.6216  -24.8814 C   0  0  0  0  0  0  0  0  0  0  0  0
   -7.0780    6.1167  -24.0735 C   0  0  0  0  0  0  0  0  0  0  0  0
   -6.9915    5.9914  -22.7107 C   0  0  0  0  0  0  0  0  0  0  0  0
   -6.1327    5.7290  -26.3416 C   0  0  0  0  0  0  0  0  0  0  0  0
   -5.8031    5.2171  -20.7187 C   0  0  0  0  0  0  0  0  0  0  0  0
   -5.3217    6.0594  -19.7654 C   0  0  0  0  0  0  0  0  0  0  0  0
   -4.9788    6.0877  -17.2842 C   0  0  0  0  0  0  0  0  0  0  0  0
   -5.0227    9.7393  -20.3142 C   0  0  0  0  0  0  0  0  0  0  0  0
   -2.8653    8.8420  -20.3049 C   0  0  0  0  0  0  0  0  0  0  0  0
   -3.4113    7.5943  -20.0810 C   0  0  0  0  0  0  0  0  0  0  0  0
   -2.5541    6.5244  -19.9642 C   0  0  0  0  0  0  0  0  0  0  0  0
   -0.6433    7.8840  -20.2850 C   0  0  0  0  0  0  0  0  0  0  0  0
   -5.9044    5.3724  -22.1488 C   0  0  0  0  0  0  0  0  0  0  0  0
   -5.9543    4.2806  -18.7260 C   0  0  0  0  0  0  0  0  0  0  0  0
   -4.7712    7.3906  -19.9696 C   0  0  0  0  0  0  0  0  0  0  0  0
   -5.5918    8.4883  -20.0889 C   0  0  0  0  0  0  0  0  0  0  0  0
   -8.0648    6.5082  -21.8394 C   0  0  0  0  0  0  0  0  0  0  0  0
   -4.8789    4.8684  -22.9847 C   0  0  0  0  0  0  0  0  0  0  0  0
   -1.1746    6.6355  -20.0612 C   0  0  0  0  0  0  0  0  0  0  0  0
   -1.4952    8.9769  -20.4048 C   0  0  0  0  0  0  0  0  0  0  0  0
   -3.7171    4.2040  -22.2880 C   0  0  0  0  0  0  0  0  0  0  0  0
   -4.9548    4.9867  -24.3329 C   0  0  0  0  0  0  0  0  0  0  0  0
    0.7101    7.9841  -20.3792 F   0  0  0  0  0  0  0  0  0  0  0  0
   -6.1988    4.0977  -20.0412 N   0  0  0  0  0  0  0  0  0  0  0  0
   -3.6843    9.9087  -20.4198 N   0  0  0  0  0  0  0  0  0  0  0  0
   -6.4671    4.5101  -27.0119 N   0  0  0  0  0  4  0  0  0  0  0  0
   -5.4121    5.4877  -18.5396 N   0  0  0  0  0  0  0  0  0  0  0  0
  2  1  2  0
  1  4  1  0
  1 22  1  0
  3  2  1  0
 13  3  2  0
  3 17  1  0
  4 26  1  0
  6  5  2  0
  5 13  1  0
  5 24  1  0
 15  6  1  0
  6 27  1  0
 27  7  1  0
  8 16  2  0
 25  8  1  0
 10  9  1  0
  9 20  1  0
  9 25  2  0
 10 11  1  0
 10 15  2  0
 11 19  2  0
 19 12  1  0
 12 20  2  0
 12 23  1  0
 13 18  1  0
 24 14  2  0
 14 27  1  0
 15 16  1  0
 18 21  1  0
 18 22  2  0
M  CHG  1  26   1
M  END
$$$$
