
     RDKit          3D

 27 30  0  0  0  0  0  0  0  0999 V2000
  -11.3603    2.8587  -25.0576 C   0  0  0  0  0  0  0  0  0  0  0  0
  -10.3693    1.9707  -25.4175 C   0  0  0  0  0  0  0  0  0  0  0  0
   -9.0211    2.3262  -25.2712 C   0  0  0  0  0  0  0  0  0  0  0  0
  -12.8070    2.5674  -25.1800 C   0  0  0  0  0  0  0  0  0  0  0  0
   -7.2325    3.9003  -24.6364 C   0  0  0  0  0  0  0  0  0  0  0  0
   -6.2620    3.4299  -23.7870 C   0  0  0  0  0  0  0  0  0  0  0  0
   -3.8608    3.9625  -23.4611 C   0  0  0  0  0  0  0  0  0  0  0  0
   -5.8666    0.2805  -21.8616 C   0  0  0  0  0  0  0  0  0  0  0  0
   -7.4525    1.6277  -20.7519 C   0  0  0  0  0  0  0  0  0  0  0  0
   -7.2879    2.5787  -21.7289 C   0  0  0  0  0  0  0  0  0  0  0  0
   -8.0567    3.7295  -21.5972 C   0  0  0  0  0  0  0  0  0  0  0  0
   -9.0678    2.9340  -19.5934 C   0  0  0  0  0  0  0  0  0  0  0  0
   -8.6442    3.5542  -24.7708 C   0  0  0  0  0  0  0  0  0  0  0  0
   -5.4015    4.9820  -25.0983 C   0  0  0  0  0  0  0  0  0  0  0  0
   -6.4174    2.3917  -22.7735 C   0  0  0  0  0  0  0  0  0  0  0  0
   -5.6977    1.2243  -22.8385 C   0  0  0  0  0  0  0  0  0  0  0  0
   -8.0495    1.2873  -25.7026 C   0  0  0  0  0  0  0  0  0  0  0  0
   -9.6223    4.4468  -24.4094 C   0  0  0  0  0  0  0  0  0  0  0  0
   -8.9303    3.9076  -20.5518 C   0  0  0  0  0  0  0  0  0  0  0  0
   -8.3280    1.7770  -19.6810 C   0  0  0  0  0  0  0  0  0  0  0  0
   -9.2740    5.8146  -23.8659 C   0  0  0  0  0  0  0  0  0  0  0  0
  -10.9391    4.0733  -24.5629 C   0  0  0  0  0  0  0  0  0  0  0  0
   -9.9493    3.1259  -18.5508 F   0  0  0  0  0  0  0  0  0  0  0  0
   -6.6844    4.8566  -25.4379 N   0  0  0  0  0  0  0  0  0  0  0  0
   -6.7218    0.5010  -20.8637 N   0  0  0  0  0  0  0  0  0  0  0  0
  -13.5601    3.6910  -25.7529 N   0  0  0  0  0  4  0  0  0  0  0  0
   -5.1418    4.1118  -24.0905 N   0  0  0  0  0  0  0  0  0  0  0  0
  2  1  2  0
  4  1  1  1
  1 22  1  0
  3  2  1  0
 13  3  2  0
 17  3  1  6
 26  4  1  6
  6  5  2  0
  5 13  1  0
  5 24  1  0
 15  6  1  0
  6 27  1  0
  7 27  1  6
  8 16  2  0
 25  8  1  0
 10  9  1  0
  9 20  1  0
  9 25  2  0
 10 11  1  0
 10 15  2  0
 11 19  2  0
 19 12  1  0
 12 20  2  0
 12 23  1  0
 13 18  1  0
 24 14  2  0
 14 27  1  0
 15 16  1  0
 21 18  1  6
 18 22  2  0
M  CHG  1  26   1
M  END
$$$$
