
     RDKit          3D

 27 30  0  0  0  0  0  0  0  0999 V2000
   -7.7938    6.2556  -23.6589 C   0  0  0  0  0  0  0  0  0  0  0  0
   -7.7885    7.1757  -22.6298 C   0  0  0  0  0  0  0  0  0  0  0  0
   -6.6064    7.7199  -22.1972 C   0  0  0  0  0  0  0  0  0  0  0  0
   -9.0346    5.6459  -24.1447 C   0  0  0  0  0  0  0  0  0  0  0  0
   -4.1716    7.8983  -22.3374 C   0  0  0  0  0  0  0  0  0  0  0  0
   -3.2990    7.4598  -21.3907 C   0  0  0  0  0  0  0  0  0  0  0  0
   -1.1235    8.1674  -20.3701 C   0  0  0  0  0  0  0  0  0  0  0  0
   -3.2023    3.9135  -20.2304 C   0  0  0  0  0  0  0  0  0  0  0  0
   -4.1261    5.2008  -18.5131 C   0  0  0  0  0  0  0  0  0  0  0  0
   -3.9676    6.3225  -19.3015 C   0  0  0  0  0  0  0  0  0  0  0  0
   -4.3677    7.5353  -18.7892 C   0  0  0  0  0  0  0  0  0  0  0  0
   -5.0747    6.5613  -16.7510 C   0  0  0  0  0  0  0  0  0  0  0  0
   -5.4261    7.3489  -22.7889 C   0  0  0  0  0  0  0  0  0  0  0  0
   -2.4590    9.2812  -22.1789 C   0  0  0  0  0  0  0  0  0  0  0  0
   -3.4251    6.2660  -20.5687 C   0  0  0  0  0  0  0  0  0  0  0  0
   -3.0349    5.0339  -21.0402 C   0  0  0  0  0  0  0  0  0  0  0  0
   -6.5896    8.6965  -21.0907 C   0  0  0  0  0  0  0  0  0  0  0  0
   -5.4409    6.4053  -23.8443 C   0  0  0  0  0  0  0  0  0  0  0  0
   -4.9215    7.6868  -17.5262 C   0  0  0  0  0  0  0  0  0  0  0  0
   -4.6747    5.3273  -17.2528 C   0  0  0  0  0  0  0  0  0  0  0  0
   -4.1012    6.0531  -24.4424 C   0  0  0  0  0  0  0  0  0  0  0  0
   -6.6037    5.8612  -24.2791 C   0  0  0  0  0  0  0  0  0  0  0  0
   -5.6189    6.7186  -15.5142 F   0  0  0  0  0  0  0  0  0  0  0  0
   -3.6222    9.0513  -22.8246 N   0  0  0  0  0  0  0  0  0  0  0  0
   -3.7384    3.9995  -18.9908 N   0  0  0  0  0  0  0  0  0  0  0  0
   -9.7196    4.8457  -23.1766 N   0  0  0  0  0  4  0  0  0  0  0  0
   -2.2456    8.3070  -21.2896 N   0  0  0  0  0  0  0  0  0  0  0  0
  2  1  2  0
  1  4  1  0
  1 22  1  0
  3  2  1  0
 13  3  2  0
  3 17  1  0
  4 26  1  0
  6  5  2  0
  5 13  1  0
  5 24  1  0
 15  6  1  0
  6 27  1  0
 27  7  1  0
  8 16  2  0
 25  8  1  0
 10  9  1  0
  9 20  1  0
  9 25  2  0
 10 11  1  0
 10 15  2  0
 11 19  2  0
 19 12  1  0
 12 20  2  0
 12 23  1  0
 13 18  1  0
 24 14  2  0
 14 27  1  0
 15 16  1  0
 18 21  1  0
 18 22  2  0
M  CHG  1  26   1
M  END
$$$$
