
     RDKit          3D

 27 30  0  0  0  0  0  0  0  0999 V2000
  -12.6542   13.7472  -26.2932 C   0  0  0  0  0  0  0  0  0  0  0  0
  -11.9623   13.7524  -27.4878 C   0  0  0  0  0  0  0  0  0  0  0  0
  -10.6001   13.5942  -27.4965 C   0  0  0  0  0  0  0  0  0  0  0  0
  -14.1083   13.9206  -26.2410 C   0  0  0  0  0  0  0  0  0  0  0  0
   -8.4894   13.2784  -26.3028 C   0  0  0  0  0  0  0  0  0  0  0  0
   -7.7026   12.2402  -26.6941 C   0  0  0  0  0  0  0  0  0  0  0  0
   -5.2683   11.6546  -26.7733 C   0  0  0  0  0  0  0  0  0  0  0  0
   -8.4337    9.4716  -29.0883 C   0  0  0  0  0  0  0  0  0  0  0  0
   -9.2223    8.8236  -26.9865 C   0  0  0  0  0  0  0  0  0  0  0  0
   -8.7697   10.0226  -26.4738 C   0  0  0  0  0  0  0  0  0  0  0  0
   -8.9573   10.2647  -25.1324 C   0  0  0  0  0  0  0  0  0  0  0  0
  -10.0241    8.1787  -24.7963 C   0  0  0  0  0  0  0  0  0  0  0  0
   -9.9233   13.4304  -26.3150 C   0  0  0  0  0  0  0  0  0  0  0  0
   -6.3628   13.7632  -25.9659 C   0  0  0  0  0  0  0  0  0  0  0  0
   -8.1413   10.9710  -27.2540 C   0  0  0  0  0  0  0  0  0  0  0  0
   -7.9708   10.6865  -28.5891 C   0  0  0  0  0  0  0  0  0  0  0  0
   -9.8505   13.6088  -28.7678 C   0  0  0  0  0  0  0  0  0  0  0  0
  -10.6410   13.4254  -25.0946 C   0  0  0  0  0  0  0  0  0  0  0  0
   -9.5771    9.3692  -24.2729 C   0  0  0  0  0  0  0  0  0  0  0  0
   -9.8419    7.9170  -26.1501 C   0  0  0  0  0  0  0  0  0  0  0  0
   -9.8228   13.2375  -23.8409 C   0  0  0  0  0  0  0  0  0  0  0  0
  -11.9873   13.5813  -25.0748 C   0  0  0  0  0  0  0  0  0  0  0  0
  -10.6311    7.3065  -23.9469 F   0  0  0  0  0  0  0  0  0  0  0  0
   -7.6233   14.2321  -25.8456 N   0  0  0  0  0  0  0  0  0  0  0  0
   -9.0475    8.5601  -28.2985 N   0  0  0  0  0  0  0  0  0  0  0  0
  -14.8452   12.7019  -26.1046 N   0  0  0  0  0  4  0  0  0  0  0  0
   -6.3953   12.5336  -26.4882 N   0  0  0  0  0  0  0  0  0  0  0  0
  2  1  2  0
  1  4  1  0
  1 22  1  0
  3  2  1  0
 13  3  2  0
  3 17  1  0
  4 26  1  0
  6  5  2  0
  5 13  1  0
  5 24  1  0
 15  6  1  0
  6 27  1  0
 27  7  1  0
  8 16  2  0
 25  8  1  0
 10  9  1  0
  9 20  1  0
  9 25  2  0
 10 11  1  0
 10 15  2  0
 11 19  2  0
 19 12  1  0
 12 20  2  0
 12 23  1  0
 13 18  1  0
 24 14  2  0
 14 27  1  0
 15 16  1  0
 18 21  1  0
 18 22  2  0
M  CHG  1  26   1
M  END
$$$$
