
     RDKit          3D

 27 30  0  0  0  0  0  0  0  0999 V2000
    0.6505    5.6326  -22.4194 C   0  0  0  0  0  0  0  0  0  0  0  0
   -0.4346    4.7917  -22.2955 C   0  0  0  0  0  0  0  0  0  0  0  0
   -1.7335    5.3190  -22.2826 C   0  0  0  0  0  0  0  0  0  0  0  0
    2.0546    5.1625  -22.4403 C   0  0  0  0  0  0  0  0  0  0  0  0
   -3.3316    7.1948  -22.3676 C   0  0  0  0  0  0  0  0  0  0  0  0
   -4.2914    7.1750  -21.3861 C   0  0  0  0  0  0  0  0  0  0  0  0
   -6.6263    8.0029  -21.2515 C   0  0  0  0  0  0  0  0  0  0  0  0
   -4.9321    5.2485  -18.2780 C   0  0  0  0  0  0  0  0  0  0  0  0
   -2.9043    6.4228  -18.0116 C   0  0  0  0  0  0  0  0  0  0  0  0
   -3.0684    6.9380  -19.2740 C   0  0  0  0  0  0  0  0  0  0  0  0
   -2.0739    7.8038  -19.7147 C   0  0  0  0  0  0  0  0  0  0  0  0
   -0.8595    7.5910  -17.6775 C   0  0  0  0  0  0  0  0  0  0  0  0
   -1.9686    6.6730  -22.3916 C   0  0  0  0  0  0  0  0  0  0  0  0
   -5.0952    8.1776  -23.1799 C   0  0  0  0  0  0  0  0  0  0  0  0
   -4.1572    6.6156  -20.0452 C   0  0  0  0  0  0  0  0  0  0  0  0
   -5.1016    5.7583  -19.5369 C   0  0  0  0  0  0  0  0  0  0  0  0
   -2.8165    4.3116  -22.1348 C   0  0  0  0  0  0  0  0  0  0  0  0
   -0.8957    7.5201  -22.5151 C   0  0  0  0  0  0  0  0  0  0  0  0
   -0.9896    8.1264  -18.9352 C   0  0  0  0  0  0  0  0  0  0  0  0
   -1.8186    6.7289  -17.1973 C   0  0  0  0  0  0  0  0  0  0  0  0
   -1.0865    9.0164  -22.6259 C   0  0  0  0  0  0  0  0  0  0  0  0
    0.3700    6.9770  -22.5252 C   0  0  0  0  0  0  0  0  0  0  0  0
    0.2333    7.9249  -16.9060 F   0  0  0  0  0  0  0  0  0  0  0  0
   -3.8444    7.8167  -23.4664 N   0  0  0  0  0  0  0  0  0  0  0  0
   -3.8603    5.5863  -17.5618 N   0  0  0  0  0  0  0  0  0  0  0  0
    2.6932    5.2407  -21.1198 N   0  0  0  0  0  4  0  0  0  0  0  0
   -5.3699    7.7867  -21.9102 N   0  0  0  0  0  0  0  0  0  0  0  0
  2  1  2  0
  4  1  1  1
  1 22  1  0
  3  2  1  0
 13  3  2  0
 17  3  1  6
 26  4  1  6
  6  5  2  0
  5 13  1  0
  5 24  1  0
 15  6  1  0
  6 27  1  0
  7 27  1  6
  8 16  2  0
 25  8  1  0
 10  9  1  0
  9 20  1  0
  9 25  2  0
 10 11  1  0
 10 15  2  0
 11 19  2  0
 19 12  1  0
 12 20  2  0
 12 23  1  0
 13 18  1  0
 24 14  2  0
 14 27  1  0
 15 16  1  0
 21 18  1  6
 18 22  2  0
M  CHG  1  26   1
M  END
$$$$
