
     RDKit          3D

 27 30  0  0  0  0  0  0  0  0999 V2000
   -2.7196    2.4001  -22.4594 C   0  0  0  0  0  0  0  0  0  0  0  0
   -1.7629    3.3166  -22.0785 C   0  0  0  0  0  0  0  0  0  0  0  0
   -1.9622    4.6824  -22.3238 C   0  0  0  0  0  0  0  0  0  0  0  0
   -2.5907    0.9411  -22.2415 C   0  0  0  0  0  0  0  0  0  0  0  0
   -3.2790    6.5774  -23.1927 C   0  0  0  0  0  0  0  0  0  0  0  0
   -4.1543    7.4885  -22.6554 C   0  0  0  0  0  0  0  0  0  0  0  0
   -4.5531    9.9094  -23.0235 C   0  0  0  0  0  0  0  0  0  0  0  0
   -7.4052    6.9854  -20.9345 C   0  0  0  0  0  0  0  0  0  0  0  0
   -5.6823    6.7192  -19.3462 C   0  0  0  0  0  0  0  0  0  0  0  0
   -4.7664    6.9733  -20.3375 C   0  0  0  0  0  0  0  0  0  0  0  0
   -3.4303    6.9568  -19.9537 C   0  0  0  0  0  0  0  0  0  0  0  0
   -3.9910    6.4512  -17.6954 C   0  0  0  0  0  0  0  0  0  0  0  0
   -3.1015    5.1502  -22.9432 C   0  0  0  0  0  0  0  0  0  0  0  0
   -2.8763    8.4901  -24.1495 C   0  0  0  0  0  0  0  0  0  0  0  0
   -5.1577    7.2334  -21.6272 C   0  0  0  0  0  0  0  0  0  0  0  0
   -6.4975    7.2393  -21.9271 C   0  0  0  0  0  0  0  0  0  0  0  0
   -0.8553    5.5670  -21.8747 C   0  0  0  0  0  0  0  0  0  0  0  0
   -4.0609    4.2468  -23.3273 C   0  0  0  0  0  0  0  0  0  0  0  0
   -3.0461    6.7012  -18.6596 C   0  0  0  0  0  0  0  0  0  0  0  0
   -5.3266    6.4568  -18.0271 C   0  0  0  0  0  0  0  0  0  0  0  0
   -5.3270    4.6952  -24.0225 C   0  0  0  0  0  0  0  0  0  0  0  0
   -3.8410    2.9108  -23.0749 C   0  0  0  0  0  0  0  0  0  0  0  0
   -3.5908    6.1977  -16.4006 F   0  0  0  0  0  0  0  0  0  0  0  0
   -2.4986    7.2123  -24.1120 N   0  0  0  0  0  0  0  0  0  0  0  0
   -6.9838    6.7370  -19.6950 N   0  0  0  0  0  0  0  0  0  0  0  0
   -1.2743    0.5665  -21.7080 N   0  0  0  0  0  4  0  0  0  0  0  0
   -3.8870    8.6606  -23.2609 N   0  0  0  0  0  0  0  0  0  0  0  0
  2  1  2  0
  4  1  1  1
  1 22  1  0
  3  2  1  0
 13  3  2  0
 17  3  1  6
 26  4  1  6
  6  5  2  0
  5 13  1  0
  5 24  1  0
 15  6  1  0
  6 27  1  0
  7 27  1  6
  8 16  2  0
 25  8  1  0
 10  9  1  0
  9 20  1  0
  9 25  2  0
 10 11  1  0
 10 15  2  0
 11 19  2  0
 19 12  1  0
 12 20  2  0
 12 23  1  0
 13 18  1  0
 24 14  2  0
 14 27  1  0
 15 16  1  0
 21 18  1  6
 18 22  2  0
M  CHG  1  26   1
M  END
$$$$
