
     RDKit          3D

 27 30  0  0  0  0  0  0  0  0999 V2000
    8.2807    5.2326   -7.8259 C   0  0  0  0  0  0  0  0  0  0  0  0
    7.8143    6.4584   -8.2503 C   0  0  0  0  0  0  0  0  0  0  0  0
    6.8198    6.5282   -9.2359 C   0  0  0  0  0  0  0  0  0  0  0  0
    9.3287    5.0663   -6.7931 C   0  0  0  0  0  0  0  0  0  0  0  0
    5.2523    5.4972  -10.8358 C   0  0  0  0  0  0  0  0  0  0  0  0
    3.9061    5.7521  -10.7480 C   0  0  0  0  0  0  0  0  0  0  0  0
    2.0788    5.9229  -12.4176 C   0  0  0  0  0  0  0  0  0  0  0  0
    1.8743    7.4619   -8.1536 C   0  0  0  0  0  0  0  0  0  0  0  0
    2.2553    5.2443   -7.4474 C   0  0  0  0  0  0  0  0  0  0  0  0
    2.9726    5.0298   -8.5986 C   0  0  0  0  0  0  0  0  0  0  0  0
    3.5122    3.7581   -8.7543 C   0  0  0  0  0  0  0  0  0  0  0  0
    2.6152    3.0239   -6.6744 C   0  0  0  0  0  0  0  0  0  0  0  0
    6.2816    5.3942   -9.8059 C   0  0  0  0  0  0  0  0  0  0  0  0
    4.4597    5.4459  -12.8619 C   0  0  0  0  0  0  0  0  0  0  0  0
    3.1461    6.0213   -9.5319 C   0  0  0  0  0  0  0  0  0  0  0  0
    2.5880    7.2547   -9.3031 C   0  0  0  0  0  0  0  0  0  0  0  0
    6.4086    7.9058   -9.6136 C   0  0  0  0  0  0  0  0  0  0  0  0
    6.7385    4.1681   -9.3915 C   0  0  0  0  0  0  0  0  0  0  0  0
    3.3392    2.7720   -7.8134 C   0  0  0  0  0  0  0  0  0  0  0  0
    2.0615    4.2679   -6.4755 C   0  0  0  0  0  0  0  0  0  0  0  0
    6.1975    2.8873   -9.9870 C   0  0  0  0  0  0  0  0  0  0  0  0
    7.7159    4.1267   -8.4220 C   0  0  0  0  0  0  0  0  0  0  0  0
    2.4510    2.0251   -5.7382 F   0  0  0  0  0  0  0  0  0  0  0  0
    5.5762    5.3110  -12.1463 N   0  0  0  0  0  0  0  0  0  0  0  0
    1.7289    6.4725   -7.2730 N   0  0  0  0  0  0  0  0  0  0  0  0
   10.5283    4.3961   -7.3122 N   0  0  0  0  0  4  0  0  0  0  0  0
    3.4390    5.7152  -12.0100 N   0  0  0  0  0  0  0  0  0  0  0  0
  2  1  2  0
  4  1  1  1
  1 22  1  0
  3  2  1  0
 13  3  2  0
 17  3  1  6
 26  4  1  6
  6  5  2  0
  5 13  1  0
  5 24  1  0
 15  6  1  0
  6 27  1  0
  7 27  1  6
  8 16  2  0
 25  8  1  0
 10  9  1  0
  9 20  1  0
  9 25  2  0
 10 11  1  0
 10 15  2  0
 11 19  2  0
 19 12  1  0
 12 20  2  0
 12 23  1  0
 13 18  1  0
 24 14  2  0
 14 27  1  0
 15 16  1  0
 21 18  1  6
 18 22  2  0
M  CHG  1  26   1
M  END
$$$$
