
     RDKit          3D

 27 30  0  0  0  0  0  0  0  0999 V2000
  -20.3991   12.8731   -3.4258 C   0  0  0  0  0  0  0  0  0  0  0  0
  -21.2690   13.2980   -2.4445 C   0  0  0  0  0  0  0  0  0  0  0  0
  -20.8801   13.2621   -1.0981 C   0  0  0  0  0  0  0  0  0  0  0  0
  -20.7272   12.8746   -4.8698 C   0  0  0  0  0  0  0  0  0  0  0  0
  -19.2608   12.7760    0.6967 C   0  0  0  0  0  0  0  0  0  0  0  0
  -18.9188   13.7816    1.5665 C   0  0  0  0  0  0  0  0  0  0  0  0
  -18.2462   13.8315    3.9541 C   0  0  0  0  0  0  0  0  0  0  0  0
  -19.7042   17.4098    1.5223 C   0  0  0  0  0  0  0  0  0  0  0  0
  -17.8109   17.0497    0.1630 C   0  0  0  0  0  0  0  0  0  0  0  0
  -17.8919   15.7097    0.4525 C   0  0  0  0  0  0  0  0  0  0  0  0
  -16.9307   14.8977   -0.1388 C   0  0  0  0  0  0  0  0  0  0  0  0
  -15.9069   16.7497   -1.2306 C   0  0  0  0  0  0  0  0  0  0  0  0
  -19.6361   12.8092   -0.7135 C   0  0  0  0  0  0  0  0  0  0  0  0
  -18.8193   11.8408    2.6115 C   0  0  0  0  0  0  0  0  0  0  0  0
  -18.8718   15.2104    1.2739 C   0  0  0  0  0  0  0  0  0  0  0  0
  -19.7904   16.0755    1.8149 C   0  0  0  0  0  0  0  0  0  0  0  0
  -21.9090   13.7377   -0.1366 C   0  0  0  0  0  0  0  0  0  0  0  0
  -18.7617   12.3831   -1.6819 C   0  0  0  0  0  0  0  0  0  0  0  0
  -15.9561   15.4036   -0.9644 C   0  0  0  0  0  0  0  0  0  0  0  0
  -16.8370   17.5937   -0.6683 C   0  0  0  0  0  0  0  0  0  0  0  0
  -17.3873   11.8631   -1.3238 C   0  0  0  0  0  0  0  0  0  0  0  0
  -19.1679   12.4285   -2.9972 C   0  0  0  0  0  0  0  0  0  0  0  0
  -14.9239   17.2430   -2.0621 F   0  0  0  0  0  0  0  0  0  0  0  0
  -19.1941   11.5862    1.3579 N   0  0  0  0  0  0  0  0  0  0  0  0
  -18.7371   17.8543    0.7205 N   0  0  0  0  0  0  0  0  0  0  0  0
  -20.6634   14.2186   -5.4594 N   0  0  0  0  0  4  0  0  0  0  0  0
  -18.6507   13.1806    2.7407 N   0  0  0  0  0  0  0  0  0  0  0  0
  2  1  2  0
  4  1  1  1
  1 22  1  0
  3  2  1  0
 13  3  2  0
 17  3  1  6
 26  4  1  6
  6  5  2  0
  5 13  1  0
  5 24  1  0
 15  6  1  0
  6 27  1  0
  7 27  1  6
  8 16  2  0
 25  8  1  0
 10  9  1  0
  9 20  1  0
  9 25  2  0
 10 11  1  0
 10 15  2  0
 11 19  2  0
 19 12  1  0
 12 20  2  0
 12 23  1  0
 13 18  1  0
 24 14  2  0
 14 27  1  0
 15 16  1  0
 21 18  1  6
 18 22  2  0
M  CHG  1  26   1
M  END
$$$$
