
     RDKit          3D

 27 30  0  0  0  0  0  0  0  0999 V2000
   -3.6009   11.0220  -24.0844 C   0  0  0  0  0  0  0  0  0  0  0  0
   -2.4558   10.8575  -23.3349 C   0  0  0  0  0  0  0  0  0  0  0  0
   -2.0159    9.5695  -22.9987 C   0  0  0  0  0  0  0  0  0  0  0  0
   -4.1380   12.3433  -24.4826 C   0  0  0  0  0  0  0  0  0  0  0  0
   -2.2226    7.1127  -23.0273 C   0  0  0  0  0  0  0  0  0  0  0  0
   -2.2322    6.4504  -21.8247 C   0  0  0  0  0  0  0  0  0  0  0  0
   -1.4320    4.2212  -21.0860 C   0  0  0  0  0  0  0  0  0  0  0  0
   -2.5074    7.8098  -18.3810 C   0  0  0  0  0  0  0  0  0  0  0  0
   -4.6871    7.4693  -19.2145 C   0  0  0  0  0  0  0  0  0  0  0  0
   -4.1378    7.0051  -20.3845 C   0  0  0  0  0  0  0  0  0  0  0  0
   -5.0379    6.6034  -21.3650 C   0  0  0  0  0  0  0  0  0  0  0  0
   -6.9098    7.1368  -19.9934 C   0  0  0  0  0  0  0  0  0  0  0  0
   -2.6998    8.4413  -23.3984 C   0  0  0  0  0  0  0  0  0  0  0  0
   -1.2853    5.1766  -23.3574 C   0  0  0  0  0  0  0  0  0  0  0  0
   -2.7784    6.9397  -20.5632 C   0  0  0  0  0  0  0  0  0  0  0  0
   -1.9535    7.3484  -19.5445 C   0  0  0  0  0  0  0  0  0  0  0  0
   -0.7753    9.5254  -22.1811 C   0  0  0  0  0  0  0  0  0  0  0  0
   -3.8417    8.5928  -24.1448 C   0  0  0  0  0  0  0  0  0  0  0  0
   -6.3974    6.6665  -21.1772 C   0  0  0  0  0  0  0  0  0  0  0  0
   -6.0584    7.5460  -18.9927 C   0  0  0  0  0  0  0  0  0  0  0  0
   -4.6438    7.3953  -24.6031 C   0  0  0  0  0  0  0  0  0  0  0  0
   -4.2526    9.8686  -24.4617 C   0  0  0  0  0  0  0  0  0  0  0  0
   -8.2763    7.1930  -19.8185 F   0  0  0  0  0  0  0  0  0  0  0  0
   -1.6351    6.3124  -23.9609 N   0  0  0  0  0  0  0  0  0  0  0  0
   -3.8325    7.8578  -18.2478 N   0  0  0  0  0  0  0  0  0  0  0  0
   -4.6545   12.3489  -25.8577 N   0  0  0  0  0  4  0  0  0  0  0  0
   -1.6490    5.2590  -22.0532 N   0  0  0  0  0  0  0  0  0  0  0  0
  2  1  2  0
  4  1  1  1
  1 22  1  0
  3  2  1  0
 13  3  2  0
 17  3  1  6
 26  4  1  6
  6  5  2  0
  5 13  1  0
  5 24  1  0
 15  6  1  0
  6 27  1  0
  7 27  1  6
  8 16  2  0
 25  8  1  0
 10  9  1  0
  9 20  1  0
  9 25  2  0
 10 11  1  0
 10 15  2  0
 11 19  2  0
 19 12  1  0
 12 20  2  0
 12 23  1  0
 13 18  1  0
 24 14  2  0
 14 27  1  0
 15 16  1  0
 21 18  1  6
 18 22  2  0
M  CHG  1  26   1
M  END
$$$$
