
     RDKit          3D

 27 30  0  0  0  0  0  0  0  0999 V2000
   -6.1910    8.3474  -24.9981 C   0  0  0  0  0  0  0  0  0  0  0  0
   -5.7140    7.0721  -25.2260 C   0  0  0  0  0  0  0  0  0  0  0  0
   -4.5807    6.6356  -24.5891 C   0  0  0  0  0  0  0  0  0  0  0  0
   -7.3938    8.8538  -25.6644 C   0  0  0  0  0  0  0  0  0  0  0  0
   -2.7173    7.0328  -23.0562 C   0  0  0  0  0  0  0  0  0  0  0  0
   -2.5455    6.3055  -21.9198 C   0  0  0  0  0  0  0  0  0  0  0  0
   -0.6640    5.4332  -20.5148 C   0  0  0  0  0  0  0  0  0  0  0  0
   -5.2177    4.0966  -20.5371 C   0  0  0  0  0  0  0  0  0  0  0  0
   -5.0198    5.9467  -19.1238 C   0  0  0  0  0  0  0  0  0  0  0  0
   -4.0131    6.4288  -19.9357 C   0  0  0  0  0  0  0  0  0  0  0  0
   -3.4204    7.6221  -19.5923 C   0  0  0  0  0  0  0  0  0  0  0  0
   -4.7876    7.8720  -17.6764 C   0  0  0  0  0  0  0  0  0  0  0  0
   -3.9193    7.4684  -23.7232 C   0  0  0  0  0  0  0  0  0  0  0  0
   -0.5667    6.7715  -22.6350 C   0  0  0  0  0  0  0  0  0  0  0  0
   -3.5871    5.7586  -21.0638 C   0  0  0  0  0  0  0  0  0  0  0  0
   -4.2043    4.5673  -21.3682 C   0  0  0  0  0  0  0  0  0  0  0  0
   -4.0572    5.2776  -24.8344 C   0  0  0  0  0  0  0  0  0  0  0  0
   -4.4160    8.7743  -23.4946 C   0  0  0  0  0  0  0  0  0  0  0  0
   -3.7829    8.3630  -18.4767 C   0  0  0  0  0  0  0  0  0  0  0  0
   -5.3972    6.6667  -18.0082 C   0  0  0  0  0  0  0  0  0  0  0  0
   -3.6320    9.6258  -22.5266 C   0  0  0  0  0  0  0  0  0  0  0  0
   -5.5351    9.2158  -24.1192 C   0  0  0  0  0  0  0  0  0  0  0  0
   -5.1373    8.6049  -16.5849 F   0  0  0  0  0  0  0  0  0  0  0  0
   -1.4540    7.3176  -23.4939 N   0  0  0  0  0  0  0  0  0  0  0  0
   -5.6152    4.7766  -19.4366 N   0  0  0  0  0  0  0  0  0  0  0  0
   -7.3462    8.7997  -27.0933 N   0  0  0  0  0  4  0  0  0  0  0  0
   -1.2257    6.1432  -21.6569 N   0  0  0  0  0  0  0  0  0  0  0  0
  2  1  2  0
  1  4  1  0
  1 22  1  0
  3  2  1  0
 13  3  2  0
  3 17  1  0
  4 26  1  0
  6  5  2  0
  5 13  1  0
  5 24  1  0
 15  6  1  0
  6 27  1  0
 27  7  1  0
  8 16  2  0
 25  8  1  0
 10  9  1  0
  9 20  1  0
  9 25  2  0
 10 11  1  0
 10 15  2  0
 11 19  2  0
 19 12  1  0
 12 20  2  0
 12 23  1  0
 13 18  1  0
 24 14  2  0
 14 27  1  0
 15 16  1  0
 18 21  1  0
 18 22  2  0
M  CHG  1  26   1
M  END
$$$$
