
     RDKit          3D

 27 30  0  0  0  0  0  0  0  0999 V2000
    5.7004   -1.0059   -7.0114 C   0  0  0  0  0  0  0  0  0  0  0  0
    4.5105   -1.3960   -7.5926 C   0  0  0  0  0  0  0  0  0  0  0  0
    4.1878   -0.9707   -8.8557 C   0  0  0  0  0  0  0  0  0  0  0  0
    6.0781   -1.4325   -5.6614 C   0  0  0  0  0  0  0  0  0  0  0  0
    4.7208    0.3148  -10.8665 C   0  0  0  0  0  0  0  0  0  0  0  0
    4.1816    1.4921  -11.2824 C   0  0  0  0  0  0  0  0  0  0  0  0
    3.4737    2.5805  -13.4246 C   0  0  0  0  0  0  0  0  0  0  0  0
    2.1516    3.9238   -9.3082 C   0  0  0  0  0  0  0  0  0  0  0  0
    4.3728    4.6475   -9.2638 C   0  0  0  0  0  0  0  0  0  0  0  0
    4.7196    3.5521  -10.0285 C   0  0  0  0  0  0  0  0  0  0  0  0
    6.0427    3.3959  -10.3726 C   0  0  0  0  0  0  0  0  0  0  0  0
    6.6825    5.3685   -9.2316 C   0  0  0  0  0  0  0  0  0  0  0  0
    5.0498   -0.1555   -9.5436 C   0  0  0  0  0  0  0  0  0  0  0  0
    4.4834    0.3126  -13.0607 C   0  0  0  0  0  0  0  0  0  0  0  0
    3.7935    2.6205  -10.4500 C   0  0  0  0  0  0  0  0  0  0  0  0
    2.4825    2.8130  -10.0802 C   0  0  0  0  0  0  0  0  0  0  0  0
    2.9134   -1.3741   -9.4813 C   0  0  0  0  0  0  0  0  0  0  0  0
    6.2683    0.2391   -8.9403 C   0  0  0  0  0  0  0  0  0  0  0  0
    7.0413    4.2809   -9.9928 C   0  0  0  0  0  0  0  0  0  0  0  0
    5.3496    5.5415   -8.8738 C   0  0  0  0  0  0  0  0  0  0  0  0
    7.1610    1.1340   -9.7642 C   0  0  0  0  0  0  0  0  0  0  0  0
    6.5967   -0.1753   -7.6922 C   0  0  0  0  0  0  0  0  0  0  0  0
    7.6677    6.2316   -8.8638 F   0  0  0  0  0  0  0  0  0  0  0  0
    4.9049   -0.4176  -12.0060 N   0  0  0  0  0  0  0  0  0  0  0  0
    3.0822    4.8219   -8.9097 N   0  0  0  0  0  0  0  0  0  0  0  0
    7.1521   -2.3767   -5.6177 N   0  0  0  0  0  4  0  0  0  0  0  0
    4.0334    1.4947  -12.6298 N   0  0  0  0  0  0  0  0  0  0  0  0
  2  1  2  0
  1  4  1  0
  1 22  1  0
  3  2  1  0
 13  3  2  0
  3 17  1  0
  4 26  1  0
  6  5  2  0
  5 13  1  0
  5 24  1  0
 15  6  1  0
  6 27  1  0
 27  7  1  0
  8 16  2  0
 25  8  1  0
 10  9  1  0
  9 20  1  0
  9 25  2  0
 10 11  1  0
 10 15  2  0
 11 19  2  0
 19 12  1  0
 12 20  2  0
 12 23  1  0
 13 18  1  0
 24 14  2  0
 14 27  1  0
 15 16  1  0
 18 21  1  0
 18 22  2  0
M  CHG  1  26   1
M  END
$$$$
