
     RDKit          3D

 27 30  0  0  0  0  0  0  0  0999 V2000
    0.4983    6.7477  -21.5188 C   0  0  0  0  0  0  0  0  0  0  0  0
   -0.2128    5.9387  -22.3823 C   0  0  0  0  0  0  0  0  0  0  0  0
   -1.4643    6.3102  -22.8024 C   0  0  0  0  0  0  0  0  0  0  0  0
    1.8346    6.3828  -21.0411 C   0  0  0  0  0  0  0  0  0  0  0  0
   -3.3317    7.8889  -22.7816 C   0  0  0  0  0  0  0  0  0  0  0  0
   -4.5585    7.4579  -22.3827 C   0  0  0  0  0  0  0  0  0  0  0  0
   -6.9671    7.8995  -22.9104 C   0  0  0  0  0  0  0  0  0  0  0  0
   -5.6126    4.2709  -20.7505 C   0  0  0  0  0  0  0  0  0  0  0  0
   -4.9830    5.7613  -19.0647 C   0  0  0  0  0  0  0  0  0  0  0  0
   -4.6874    6.6968  -20.0355 C   0  0  0  0  0  0  0  0  0  0  0  0
   -4.2137    7.9231  -19.6295 C   0  0  0  0  0  0  0  0  0  0  0  0
   -4.3193    7.3253  -17.3417 C   0  0  0  0  0  0  0  0  0  0  0  0
   -2.0109    7.4889  -22.3634 C   0  0  0  0  0  0  0  0  0  0  0  0
   -4.9134    8.9570  -23.8898 C   0  0  0  0  0  0  0  0  0  0  0  0
   -4.8476    6.4422  -21.3819 C   0  0  0  0  0  0  0  0  0  0  0  0
   -5.3201    5.2020  -21.7440 C   0  0  0  0  0  0  0  0  0  0  0  0
   -2.2364    5.4470  -23.7173 C   0  0  0  0  0  0  0  0  0  0  0  0
   -1.2742    8.3129  -21.4786 C   0  0  0  0  0  0  0  0  0  0  0  0
   -4.0203    8.2660  -18.2992 C   0  0  0  0  0  0  0  0  0  0  0  0
   -4.7984    6.0801  -17.7344 C   0  0  0  0  0  0  0  0  0  0  0  0
   -1.9454    9.5929  -21.0452 C   0  0  0  0  0  0  0  0  0  0  0  0
   -0.0367    7.9549  -21.0570 C   0  0  0  0  0  0  0  0  0  0  0  0
   -4.1273    7.6698  -16.0397 F   0  0  0  0  0  0  0  0  0  0  0  0
   -3.5775    8.8373  -23.7349 N   0  0  0  0  0  0  0  0  0  0  0  0
   -5.4460    4.5493  -19.4367 N   0  0  0  0  0  0  0  0  0  0  0  0
    1.9325    5.0575  -20.5113 N   0  0  0  0  0  4  0  0  0  0  0  0
   -5.5332    8.1111  -23.0616 N   0  0  0  0  0  0  0  0  0  0  0  0
  2  1  2  0
  1  4  1  0
  1 22  1  0
  3  2  1  0
 13  3  2  0
  3 17  1  0
  4 26  1  0
  6  5  2  0
  5 13  1  0
  5 24  1  0
 15  6  1  0
  6 27  1  0
 27  7  1  0
  8 16  2  0
 25  8  1  0
 10  9  1  0
  9 20  1  0
  9 25  2  0
 10 11  1  0
 10 15  2  0
 11 19  2  0
 19 12  1  0
 12 20  2  0
 12 23  1  0
 13 18  1  0
 24 14  2  0
 14 27  1  0
 15 16  1  0
 18 21  1  0
 18 22  2  0
M  CHG  1  26   1
M  END
$$$$
