
     RDKit          3D

 27 30  0  0  0  0  0  0  0  0999 V2000
    8.7443    5.3621   -8.6806 C   0  0  0  0  0  0  0  0  0  0  0  0
    7.9768    4.2902   -9.0901 C   0  0  0  0  0  0  0  0  0  0  0  0
    6.7220    4.4966   -9.6035 C   0  0  0  0  0  0  0  0  0  0  0  0
   10.0863    5.1829   -8.1201 C   0  0  0  0  0  0  0  0  0  0  0  0
    4.9051    6.0075  -10.2328 C   0  0  0  0  0  0  0  0  0  0  0  0
    3.7310    6.2637   -9.5959 C   0  0  0  0  0  0  0  0  0  0  0  0
    1.3292    6.6729  -10.1781 C   0  0  0  0  0  0  0  0  0  0  0  0
    3.1946    7.6599   -6.1762 C   0  0  0  0  0  0  0  0  0  0  0  0
    3.3244    5.3348   -5.9849 C   0  0  0  0  0  0  0  0  0  0  0  0
    3.4940    5.2560   -7.3524 C   0  0  0  0  0  0  0  0  0  0  0  0
    3.6400    4.0090   -7.9154 C   0  0  0  0  0  0  0  0  0  0  0  0
    3.4578    2.9243   -5.8195 C   0  0  0  0  0  0  0  0  0  0  0  0
    6.2283    5.7716   -9.7103 C   0  0  0  0  0  0  0  0  0  0  0  0
    3.2751    6.2414  -11.7022 C   0  0  0  0  0  0  0  0  0  0  0  0
    3.5185    6.3735   -8.1609 C   0  0  0  0  0  0  0  0  0  0  0  0
    3.3650    7.6001   -7.5571 C   0  0  0  0  0  0  0  0  0  0  0  0
    5.8899    3.3562  -10.0342 C   0  0  0  0  0  0  0  0  0  0  0  0
    7.0226    6.8651   -9.2887 C   0  0  0  0  0  0  0  0  0  0  0  0
    3.6269    2.8320   -7.1811 C   0  0  0  0  0  0  0  0  0  0  0  0
    3.3078    4.1768   -5.2337 C   0  0  0  0  0  0  0  0  0  0  0  0
    6.4073    8.2342   -9.4420 C   0  0  0  0  0  0  0  0  0  0  0  0
    8.2639    6.6721   -8.7796 C   0  0  0  0  0  0  0  0  0  0  0  0
    3.4467    1.7655   -5.1070 F   0  0  0  0  0  0  0  0  0  0  0  0
    4.5960    5.9979  -11.5644 N   0  0  0  0  0  0  0  0  0  0  0  0
    3.1754    6.5459   -5.4081 N   0  0  0  0  0  0  0  0  0  0  0  0
   10.4017    3.8352   -7.7583 N   0  0  0  0  0  4  0  0  0  0  0  0
    2.7267    6.4074  -10.4950 N   0  0  0  0  0  0  0  0  0  0  0  0
  2  1  2  0
  1  4  1  0
  1 22  1  0
  3  2  1  0
 13  3  2  0
  3 17  1  0
  4 26  1  0
  6  5  2  0
  5 13  1  0
  5 24  1  0
 15  6  1  0
  6 27  1  0
 27  7  1  0
  8 16  2  0
 25  8  1  0
 10  9  1  0
  9 20  1  0
  9 25  2  0
 10 11  1  0
 10 15  2  0
 11 19  2  0
 19 12  1  0
 12 20  2  0
 12 23  1  0
 13 18  1  0
 24 14  2  0
 14 27  1  0
 15 16  1  0
 18 21  1  0
 18 22  2  0
M  CHG  1  26   1
M  END
$$$$
