
     RDKit          3D

 27 30  0  0  0  0  0  0  0  0999 V2000
   -3.7223   10.0220  -24.1738 C   0  0  0  0  0  0  0  0  0  0  0  0
   -4.9171    9.3309  -24.1970 C   0  0  0  0  0  0  0  0  0  0  0  0
   -4.9460    7.9932  -23.8962 C   0  0  0  0  0  0  0  0  0  0  0  0
   -3.6483   11.4496  -24.4960 C   0  0  0  0  0  0  0  0  0  0  0  0
   -3.7925    5.9307  -23.2674 C   0  0  0  0  0  0  0  0  0  0  0  0
   -3.6159    5.2748  -22.0890 C   0  0  0  0  0  0  0  0  0  0  0  0
   -3.5367    2.9175  -21.2453 C   0  0  0  0  0  0  0  0  0  0  0  0
   -1.9508    6.3485  -18.9257 C   0  0  0  0  0  0  0  0  0  0  0  0
   -4.1783    7.0478  -18.8320 C   0  0  0  0  0  0  0  0  0  0  0  0
   -4.3769    6.5025  -20.0842 C   0  0  0  0  0  0  0  0  0  0  0  0
   -5.6299    6.6051  -20.6433 C   0  0  0  0  0  0  0  0  0  0  0  0
   -6.4889    7.7637  -18.7665 C   0  0  0  0  0  0  0  0  0  0  0  0
   -3.7845    7.3403  -23.5713 C   0  0  0  0  0  0  0  0  0  0  0  0
   -3.9199    3.7499  -23.5812 C   0  0  0  0  0  0  0  0  0  0  0  0
   -3.3706    5.8690  -20.7838 C   0  0  0  0  0  0  0  0  0  0  0  0
   -2.1323    5.7923  -20.1894 C   0  0  0  0  0  0  0  0  0  0  0  0
   -6.2169    7.2435  -23.9285 C   0  0  0  0  0  0  0  0  0  0  0  0
   -2.5638    8.0571  -23.5491 C   0  0  0  0  0  0  0  0  0  0  0  0
   -6.6998    7.2250  -20.0141 C   0  0  0  0  0  0  0  0  0  0  0  0
   -5.2281    7.6698  -18.1867 C   0  0  0  0  0  0  0  0  0  0  0  0
   -1.3330    7.2663  -23.1798 C   0  0  0  0  0  0  0  0  0  0  0  0
   -2.5241    9.3793  -23.8451 C   0  0  0  0  0  0  0  0  0  0  0  0
   -7.5432    8.3692  -18.1563 F   0  0  0  0  0  0  0  0  0  0  0  0
   -3.9838    4.9487  -24.1990 N   0  0  0  0  0  0  0  0  0  0  0  0
   -2.9574    6.9637  -18.2627 N   0  0  0  0  0  0  0  0  0  0  0  0
   -2.9264   12.2350  -23.5428 N   0  0  0  0  0  4  0  0  0  0  0  0
   -3.6928    3.9346  -22.2774 N   0  0  0  0  0  0  0  0  0  0  0  0
  2  1  2  0
  1  4  1  0
  1 22  1  0
  3  2  1  0
 13  3  2  0
  3 17  1  0
  4 26  1  0
  6  5  2  0
  5 13  1  0
  5 24  1  0
 15  6  1  0
  6 27  1  0
 27  7  1  0
  8 16  2  0
 25  8  1  0
 10  9  1  0
  9 20  1  0
  9 25  2  0
 10 11  1  0
 10 15  2  0
 11 19  2  0
 19 12  1  0
 12 20  2  0
 12 23  1  0
 13 18  1  0
 24 14  2  0
 14 27  1  0
 15 16  1  0
 18 21  1  0
 18 22  2  0
M  CHG  1  26   1
M  END
$$$$
