
     RDKit          3D

 27 30  0  0  0  0  0  0  0  0999 V2000
   -2.3985    2.6753  -22.3505 C   0  0  0  0  0  0  0  0  0  0  0  0
   -1.5156    3.7109  -22.1310 C   0  0  0  0  0  0  0  0  0  0  0  0
   -1.8729    5.0225  -22.4737 C   0  0  0  0  0  0  0  0  0  0  0  0
   -2.1036    1.2620  -22.0212 C   0  0  0  0  0  0  0  0  0  0  0  0
   -3.4402    6.6932  -23.3860 C   0  0  0  0  0  0  0  0  0  0  0  0
   -4.3236    7.5800  -22.8222 C   0  0  0  0  0  0  0  0  0  0  0  0
   -4.9938    9.9087  -23.3550 C   0  0  0  0  0  0  0  0  0  0  0  0
   -7.2786    7.1205  -20.6223 C   0  0  0  0  0  0  0  0  0  0  0  0
   -5.3366    6.8972  -19.3030 C   0  0  0  0  0  0  0  0  0  0  0  0
   -4.5803    7.1257  -20.4262 C   0  0  0  0  0  0  0  0  0  0  0  0
   -3.2017    7.1201  -20.2462 C   0  0  0  0  0  0  0  0  0  0  0  0
   -3.4165    6.6738  -17.9171 C   0  0  0  0  0  0  0  0  0  0  0  0
   -3.0980    5.3190  -23.0321 C   0  0  0  0  0  0  0  0  0  0  0  0
   -3.3446    8.5228  -24.5605 C   0  0  0  0  0  0  0  0  0  0  0  0
   -5.1610    7.3515  -21.6493 C   0  0  0  0  0  0  0  0  0  0  0  0
   -6.5306    7.3487  -21.7456 C   0  0  0  0  0  0  0  0  0  0  0  0
   -0.8325    6.0473  -22.1965 C   0  0  0  0  0  0  0  0  0  0  0  0
   -3.9851    4.2958  -23.2557 C   0  0  0  0  0  0  0  0  0  0  0  0
   -2.6274    6.8989  -19.0179 C   0  0  0  0  0  0  0  0  0  0  0  0
   -4.7866    6.6699  -18.0454 C   0  0  0  0  0  0  0  0  0  0  0  0
   -5.3397    4.5539  -23.8769 C   0  0  0  0  0  0  0  0  0  0  0  0
   -3.6101    3.0164  -22.9102 C   0  0  0  0  0  0  0  0  0  0  0  0
   -2.8262    6.4546  -16.6905 F   0  0  0  0  0  0  0  0  0  0  0  0
   -2.8455    7.2912  -24.4565 N   0  0  0  0  0  0  0  0  0  0  0  0
   -6.6757    6.9050  -19.4536 N   0  0  0  0  0  0  0  0  0  0  0  0
   -1.2903    0.6027  -23.0516 N   0  0  0  0  0  4  0  0  0  0  0  0
   -4.2472    8.7010  -23.5636 N   0  0  0  0  0  0  0  0  0  0  0  0
  2  1  2  0
  4  1  1  1
  1 22  1  0
  3  2  1  0
 13  3  2  0
 17  3  1  6
 26  4  1  6
  6  5  2  0
  5 13  1  0
  5 24  1  0
 15  6  1  0
  6 27  1  0
  7 27  1  6
  8 16  2  0
 25  8  1  0
 10  9  1  0
  9 20  1  0
  9 25  2  0
 10 11  1  0
 10 15  2  0
 11 19  2  0
 19 12  1  0
 12 20  2  0
 12 23  1  0
 13 18  1  0
 24 14  2  0
 14 27  1  0
 15 16  1  0
 21 18  1  6
 18 22  2  0
M  CHG  1  26   1
M  END
$$$$
