
     RDKit          3D

 27 30  0  0  0  0  0  0  0  0999 V2000
   -0.8998    7.5142  -19.0463 C   0  0  0  0  0  0  0  0  0  0  0  0
   -1.5603    8.5825  -19.6144 C   0  0  0  0  0  0  0  0  0  0  0  0
   -2.3707    8.3878  -20.7416 C   0  0  0  0  0  0  0  0  0  0  0  0
   -0.0235    7.6292  -17.8581 C   0  0  0  0  0  0  0  0  0  0  0  0
   -3.3782    6.9716  -22.4906 C   0  0  0  0  0  0  0  0  0  0  0  0
   -4.7408    7.0367  -22.6453 C   0  0  0  0  0  0  0  0  0  0  0  0
   -6.2650    6.7387  -24.5801 C   0  0  0  0  0  0  0  0  0  0  0  0
   -7.6097    8.5225  -20.8165 C   0  0  0  0  0  0  0  0  0  0  0  0
   -6.5991    6.9139  -19.4191 C   0  0  0  0  0  0  0  0  0  0  0  0
   -5.6846    6.6649  -20.4129 C   0  0  0  0  0  0  0  0  0  0  0  0
   -4.7219    5.7026  -20.1302 C   0  0  0  0  0  0  0  0  0  0  0  0
   -5.6173    5.3140  -17.9583 C   0  0  0  0  0  0  0  0  0  0  0  0
   -2.5339    7.1435  -21.3123 C   0  0  0  0  0  0  0  0  0  0  0  0
   -3.8027    6.5630  -24.5856 C   0  0  0  0  0  0  0  0  0  0  0  0
   -5.7236    7.3365  -21.6093 C   0  0  0  0  0  0  0  0  0  0  0  0
   -6.7014    8.2790  -21.8111 C   0  0  0  0  0  0  0  0  0  0  0  0
   -3.0207    9.6178  -21.2651 C   0  0  0  0  0  0  0  0  0  0  0  0
   -1.8808    6.0724  -20.7555 C   0  0  0  0  0  0  0  0  0  0  0  0
   -4.6855    5.0381  -18.9283 C   0  0  0  0  0  0  0  0  0  0  0  0
   -6.5901    6.2589  -18.1916 C   0  0  0  0  0  0  0  0  0  0  0  0
   -2.0088    4.6843  -21.3423 C   0  0  0  0  0  0  0  0  0  0  0  0
   -1.0907    6.2902  -19.6485 C   0  0  0  0  0  0  0  0  0  0  0  0
   -5.5676    4.6403  -16.7564 F   0  0  0  0  0  0  0  0  0  0  0  0
   -2.8159    6.6786  -23.6969 N   0  0  0  0  0  0  0  0  0  0  0  0
   -7.5374    7.8481  -19.6694 N   0  0  0  0  0  0  0  0  0  0  0  0
    1.3188    7.0814  -18.0945 N   0  0  0  0  0  4  0  0  0  0  0  0
   -4.9786    6.7813  -23.9454 N   0  0  0  0  0  0  0  0  0  0  0  0
  2  1  2  0
  4  1  1  1
  1 22  1  0
  3  2  1  0
 13  3  2  0
 17  3  1  6
 26  4  1  6
  6  5  2  0
  5 13  1  0
  5 24  1  0
 15  6  1  0
  6 27  1  0
  7 27  1  6
  8 16  2  0
 25  8  1  0
 10  9  1  0
  9 20  1  0
  9 25  2  0
 10 11  1  0
 10 15  2  0
 11 19  2  0
 19 12  1  0
 12 20  2  0
 12 23  1  0
 13 18  1  0
 24 14  2  0
 14 27  1  0
 15 16  1  0
 21 18  1  6
 18 22  2  0
M  CHG  1  26   1
M  END
$$$$
