
     RDKit          3D

 27 30  0  0  0  0  0  0  0  0999 V2000
    2.9080    6.6097   -9.9297 C   0  0  0  0  0  0  0  0  0  0  0  0
    3.9177    7.5095  -10.1960 C   0  0  0  0  0  0  0  0  0  0  0  0
    4.6788    8.0416   -9.1458 C   0  0  0  0  0  0  0  0  0  0  0  0
    2.0549    6.0006  -10.9757 C   0  0  0  0  0  0  0  0  0  0  0  0
    5.2529    8.2664   -6.7585 C   0  0  0  0  0  0  0  0  0  0  0  0
    6.2345    7.7199   -5.9693 C   0  0  0  0  0  0  0  0  0  0  0  0
    7.6328    8.5949   -4.1160 C   0  0  0  0  0  0  0  0  0  0  0  0
    7.0041    4.1813   -5.1517 C   0  0  0  0  0  0  0  0  0  0  0  0
    7.9961    4.6893   -7.2301 C   0  0  0  0  0  0  0  0  0  0  0  0
    7.4989    5.9651   -7.1247 C   0  0  0  0  0  0  0  0  0  0  0  0
    7.7998    6.8267   -8.1735 C   0  0  0  0  0  0  0  0  0  0  0  0
    9.0301    5.1433   -9.3235 C   0  0  0  0  0  0  0  0  0  0  0  0
    4.4495    7.6905   -7.8326 C   0  0  0  0  0  0  0  0  0  0  0  0
    5.9089    9.8230   -5.3864 C   0  0  0  0  0  0  0  0  0  0  0  0
    6.7547    6.3585   -6.0405 C   0  0  0  0  0  0  0  0  0  0  0  0
    6.5056    5.4512   -5.0406 C   0  0  0  0  0  0  0  0  0  0  0  0
    5.7301    9.0068   -9.5613 C   0  0  0  0  0  0  0  0  0  0  0  0
    3.4464    6.7957   -7.5553 C   0  0  0  0  0  0  0  0  0  0  0  0
    8.5501    6.4277   -9.2530 C   0  0  0  0  0  0  0  0  0  0  0  0
    8.7585    4.2537   -8.3093 C   0  0  0  0  0  0  0  0  0  0  0  0
    3.1368    6.3800   -6.1344 C   0  0  0  0  0  0  0  0  0  0  0  0
    2.7133    6.2876   -8.6047 C   0  0  0  0  0  0  0  0  0  0  0  0
    9.7828    4.7574  -10.4123 F   0  0  0  0  0  0  0  0  0  0  0  0
    5.0652    9.5635   -6.3852 N   0  0  0  0  0  0  0  0  0  0  0  0
    7.7219    3.8392   -6.2211 N   0  0  0  0  0  0  0  0  0  0  0  0
    0.8061    6.7448  -11.1865 N   0  0  0  0  0  4  0  0  0  0  0  0
    6.6236    8.6986   -5.1311 N   0  0  0  0  0  0  0  0  0  0  0  0
  2  1  2  0
  4  1  1  1
  1 22  1  0
  3  2  1  0
 13  3  2  0
 17  3  1  6
 26  4  1  6
  6  5  2  0
  5 13  1  0
  5 24  1  0
 15  6  1  0
  6 27  1  0
  7 27  1  6
  8 16  2  0
 25  8  1  0
 10  9  1  0
  9 20  1  0
  9 25  2  0
 10 11  1  0
 10 15  2  0
 11 19  2  0
 19 12  1  0
 12 20  2  0
 12 23  1  0
 13 18  1  0
 24 14  2  0
 14 27  1  0
 15 16  1  0
 21 18  1  6
 18 22  2  0
M  CHG  1  26   1
M  END
$$$$
