
     RDKit          3D

 27 30  0  0  0  0  0  0  0  0999 V2000
   -1.3602    3.8932  -22.9273 C   0  0  0  0  0  0  0  0  0  0  0  0
   -0.7962    5.1349  -22.7130 C   0  0  0  0  0  0  0  0  0  0  0  0
   -1.5945    6.2432  -22.5900 C   0  0  0  0  0  0  0  0  0  0  0  0
   -0.5416    2.6865  -23.0715 C   0  0  0  0  0  0  0  0  0  0  0  0
   -3.8122    7.2733  -22.5691 C   0  0  0  0  0  0  0  0  0  0  0  0
   -4.6643    7.6565  -21.5806 C   0  0  0  0  0  0  0  0  0  0  0  0
   -6.2679    9.5203  -21.1015 C   0  0  0  0  0  0  0  0  0  0  0  0
   -6.3536    5.7171  -18.8756 C   0  0  0  0  0  0  0  0  0  0  0  0
   -4.2182    6.2870  -18.1174 C   0  0  0  0  0  0  0  0  0  0  0  0
   -3.9839    6.9153  -19.3238 C   0  0  0  0  0  0  0  0  0  0  0  0
   -2.7593    7.5126  -19.5152 C   0  0  0  0  0  0  0  0  0  0  0  0
   -1.9990    6.8878  -17.3625 C   0  0  0  0  0  0  0  0  0  0  0  0
   -2.9572    6.1174  -22.6801 C   0  0  0  0  0  0  0  0  0  0  0  0
   -4.8082    9.1666  -23.1114 C   0  0  0  0  0  0  0  0  0  0  0  0
   -4.9261    6.9595  -20.3306 C   0  0  0  0  0  0  0  0  0  0  0  0
   -6.1356    6.3463  -20.0987 C   0  0  0  0  0  0  0  0  0  0  0  0
   -1.0003    7.5763  -22.3712 C   0  0  0  0  0  0  0  0  0  0  0  0
   -3.5272    4.8401  -22.8991 C   0  0  0  0  0  0  0  0  0  0  0  0
   -1.7528    7.5166  -18.5604 C   0  0  0  0  0  0  0  0  0  0  0  0
   -3.2313    6.2780  -17.1524 C   0  0  0  0  0  0  0  0  0  0  0  0
   -5.0328    4.7875  -22.9834 C   0  0  0  0  0  0  0  0  0  0  0  0
   -2.7472    3.7384  -23.0224 C   0  0  0  0  0  0  0  0  0  0  0  0
   -1.0071    6.8968  -16.4316 F   0  0  0  0  0  0  0  0  0  0  0  0
   -3.9172    8.2417  -23.5282 N   0  0  0  0  0  0  0  0  0  0  0  0
   -5.4102    5.6903  -17.9058 N   0  0  0  0  0  0  0  0  0  0  0  0
   -0.3195    1.9725  -21.8518 N   0  0  0  0  0  4  0  0  0  0  0  0
   -5.2789    8.8189  -21.9101 N   0  0  0  0  0  0  0  0  0  0  0  0
  2  1  2  0
  1  4  1  0
  1 22  1  0
  3  2  1  0
 13  3  2  0
  3 17  1  0
  4 26  1  0
  6  5  2  0
  5 13  1  0
  5 24  1  0
 15  6  1  0
  6 27  1  0
 27  7  1  0
  8 16  2  0
 25  8  1  0
 10  9  1  0
  9 20  1  0
  9 25  2  0
 10 11  1  0
 10 15  2  0
 11 19  2  0
 19 12  1  0
 12 20  2  0
 12 23  1  0
 13 18  1  0
 24 14  2  0
 14 27  1  0
 15 16  1  0
 18 21  1  0
 18 22  2  0
M  CHG  1  26   1
M  END
$$$$
