
     RDKit          3D

 27 30  0  0  0  0  0  0  0  0999 V2000
   -2.3747   -1.7958  -13.0079 C   0  0  0  0  0  0  0  0  0  0  0  0
   -3.0032   -2.4401  -11.9638 C   0  0  0  0  0  0  0  0  0  0  0  0
   -4.0471   -3.3400  -12.2207 C   0  0  0  0  0  0  0  0  0  0  0  0
   -1.2667   -0.8300  -12.8280 C   0  0  0  0  0  0  0  0  0  0  0  0
   -5.5694   -4.5449  -13.7407 C   0  0  0  0  0  0  0  0  0  0  0  0
   -5.6027   -5.9174  -13.7417 C   0  0  0  0  0  0  0  0  0  0  0  0
   -7.3873   -7.5910  -14.1533 C   0  0  0  0  0  0  0  0  0  0  0  0
   -3.3487   -8.3391  -12.0572 C   0  0  0  0  0  0  0  0  0  0  0  0
   -2.4486   -7.8502  -14.1815 C   0  0  0  0  0  0  0  0  0  0  0  0
   -3.5064   -7.0033  -14.4046 C   0  0  0  0  0  0  0  0  0  0  0  0
   -3.5158   -6.3470  -15.6302 C   0  0  0  0  0  0  0  0  0  0  0  0
   -1.4840   -7.3887  -16.3061 C   0  0  0  0  0  0  0  0  0  0  0  0
   -4.4749   -3.6087  -13.5034 C   0  0  0  0  0  0  0  0  0  0  0  0
   -7.6100   -5.1333  -14.2159 C   0  0  0  0  0  0  0  0  0  0  0  0
   -4.4886   -6.8177  -13.4638 C   0  0  0  0  0  0  0  0  0  0  0  0
   -4.4056   -7.4966  -12.2733 C   0  0  0  0  0  0  0  0  0  0  0  0
   -4.6486   -3.9622  -11.0122 C   0  0  0  0  0  0  0  0  0  0  0  0
   -3.8568   -2.9727  -14.5509 C   0  0  0  0  0  0  0  0  0  0  0  0
   -2.5264   -6.5333  -16.5650 C   0  0  0  0  0  0  0  0  0  0  0  0
   -1.4311   -8.0610  -15.1066 C   0  0  0  0  0  0  0  0  0  0  0  0
   -4.2881   -3.2149  -15.9802 C   0  0  0  0  0  0  0  0  0  0  0  0
   -2.8341   -2.0934  -14.2719 C   0  0  0  0  0  0  0  0  0  0  0  0
   -0.4975   -7.5647  -17.2531 F   0  0  0  0  0  0  0  0  0  0  0  0
   -6.8156   -4.0783  -14.0349 N   0  0  0  0  0  0  0  0  0  0  0  0
   -2.4162   -8.4916  -12.9968 N   0  0  0  0  0  0  0  0  0  0  0  0
   -1.7091    0.4228  -12.2015 N   0  0  0  0  0  4  0  0  0  0  0  0
   -6.8712   -6.2570  -14.0373 N   0  0  0  0  0  0  0  0  0  0  0  0
  2  1  2  0
  4  1  1  1
  1 22  1  0
  3  2  1  0
 13  3  2  0
 17  3  1  6
 26  4  1  6
  6  5  2  0
  5 13  1  0
  5 24  1  0
 15  6  1  0
  6 27  1  0
  7 27  1  6
  8 16  2  0
 25  8  1  0
 10  9  1  0
  9 20  1  0
  9 25  2  0
 10 11  1  0
 10 15  2  0
 11 19  2  0
 19 12  1  0
 12 20  2  0
 12 23  1  0
 13 18  1  0
 24 14  2  0
 14 27  1  0
 15 16  1  0
 21 18  1  6
 18 22  2  0
M  CHG  1  26   1
M  END
$$$$
