
     RDKit          3D

 27 30  0  0  0  0  0  0  0  0999 V2000
    4.9136    4.0862  -13.1624 C   0  0  0  0  0  0  0  0  0  0  0  0
    5.4455    3.2415  -12.2087 C   0  0  0  0  0  0  0  0  0  0  0  0
    5.8837    3.7435  -11.0101 C   0  0  0  0  0  0  0  0  0  0  0  0
    4.4414    3.5902  -14.4578 C   0  0  0  0  0  0  0  0  0  0  0  0
    6.2632    5.6372   -9.5102 C   0  0  0  0  0  0  0  0  0  0  0  0
    5.7065    5.6263   -8.2692 C   0  0  0  0  0  0  0  0  0  0  0  0
    6.2208    6.4846   -5.9727 C   0  0  0  0  0  0  0  0  0  0  0  0
    3.1702    3.2803   -6.8568 C   0  0  0  0  0  0  0  0  0  0  0  0
    2.0223    5.0268   -7.9016 C   0  0  0  0  0  0  0  0  0  0  0  0
    3.2361    5.5956   -8.2304 C   0  0  0  0  0  0  0  0  0  0  0  0
    3.2272    6.7807   -8.9296 C   0  0  0  0  0  0  0  0  0  0  0  0
    0.8620    6.8518   -8.9872 C   0  0  0  0  0  0  0  0  0  0  0  0
    5.7932    5.0886  -10.7582 C   0  0  0  0  0  0  0  0  0  0  0  0
    7.5635    6.7038   -8.0811 C   0  0  0  0  0  0  0  0  0  0  0  0
    4.4412    5.0216   -7.8819 C   0  0  0  0  0  0  0  0  0  0  0  0
    4.4042    3.8390   -7.1799 C   0  0  0  0  0  0  0  0  0  0  0  0
    6.4633    2.8499   -9.9885 C   0  0  0  0  0  0  0  0  0  0  0  0
    5.2457    5.9474  -11.7415 C   0  0  0  0  0  0  0  0  0  0  0  0
    2.0647    7.4293   -9.3205 C   0  0  0  0  0  0  0  0  0  0  0  0
    0.8525    5.6543   -8.2798 C   0  0  0  0  0  0  0  0  0  0  0  0
    5.1796    7.4121  -11.3853 C   0  0  0  0  0  0  0  0  0  0  0  0
    4.8099    5.4616  -12.9296 C   0  0  0  0  0  0  0  0  0  0  0  0
   -0.2730    7.4940   -9.3747 F   0  0  0  0  0  0  0  0  0  0  0  0
    7.4374    6.3230   -9.3703 N   0  0  0  0  0  0  0  0  0  0  0  0
    2.0035    3.8662   -7.2129 N   0  0  0  0  0  0  0  0  0  0  0  0
    3.1026    3.9731  -14.7860 N   0  0  0  0  0  4  0  0  0  0  0  0
    6.5018    6.2812   -7.3882 N   0  0  0  0  0  0  0  0  0  0  0  0
  2  1  2  0
  1  4  1  0
  1 22  1  0
  3  2  1  0
 13  3  2  0
  3 17  1  0
  4 26  1  0
  6  5  2  0
  5 13  1  0
  5 24  1  0
 15  6  1  0
  6 27  1  0
 27  7  1  0
  8 16  2  0
 25  8  1  0
 10  9  1  0
  9 20  1  0
  9 25  2  0
 10 11  1  0
 10 15  2  0
 11 19  2  0
 19 12  1  0
 12 20  2  0
 12 23  1  0
 13 18  1  0
 24 14  2  0
 14 27  1  0
 15 16  1  0
 18 21  1  0
 18 22  2  0
M  CHG  1  26   1
M  END
$$$$
