
     RDKit          3D

 27 30  0  0  0  0  0  0  0  0999 V2000
   -7.9556    8.1559  -24.1450 C   0  0  0  0  0  0  0  0  0  0  0  0
   -8.2794    7.2175  -23.1886 C   0  0  0  0  0  0  0  0  0  0  0  0
   -7.3444    6.2406  -22.8188 C   0  0  0  0  0  0  0  0  0  0  0  0
   -8.8809    9.2201  -24.5965 C   0  0  0  0  0  0  0  0  0  0  0  0
   -5.1391    5.1508  -22.9885 C   0  0  0  0  0  0  0  0  0  0  0  0
   -4.0506    5.1961  -22.1530 C   0  0  0  0  0  0  0  0  0  0  0  0
   -2.3688    3.5206  -21.4323 C   0  0  0  0  0  0  0  0  0  0  0  0
   -2.2625    8.3117  -21.2157 C   0  0  0  0  0  0  0  0  0  0  0  0
   -3.6134    7.6620  -19.3952 C   0  0  0  0  0  0  0  0  0  0  0  0
   -4.0322    6.5785  -20.1278 C   0  0  0  0  0  0  0  0  0  0  0  0
   -4.9363    5.7291  -19.5002 C   0  0  0  0  0  0  0  0  0  0  0  0
   -4.9449    7.0526  -17.5207 C   0  0  0  0  0  0  0  0  0  0  0  0
   -6.0899    6.1840  -23.3876 C   0  0  0  0  0  0  0  0  0  0  0  0
   -4.2618    3.1593  -22.9750 C   0  0  0  0  0  0  0  0  0  0  0  0
   -3.5743    6.3529  -21.4020 C   0  0  0  0  0  0  0  0  0  0  0  0
   -2.6759    7.2339  -21.9513 C   0  0  0  0  0  0  0  0  0  0  0  0
   -7.8162    5.2821  -21.7853 C   0  0  0  0  0  0  0  0  0  0  0  0
   -5.7564    7.1130  -24.3414 C   0  0  0  0  0  0  0  0  0  0  0  0
   -5.3861    5.9580  -18.2224 C   0  0  0  0  0  0  0  0  0  0  0  0
   -4.0494    7.9224  -18.0999 C   0  0  0  0  0  0  0  0  0  0  0  0
   -4.4008    7.0966  -25.0120 C   0  0  0  0  0  0  0  0  0  0  0  0
   -6.6927    8.0622  -24.6869 C   0  0  0  0  0  0  0  0  0  0  0  0
   -5.4039    7.2688  -16.2387 F   0  0  0  0  0  0  0  0  0  0  0  0
   -5.2543    3.8875  -23.4864 N   0  0  0  0  0  0  0  0  0  0  0  0
   -2.7316    8.4950  -19.9820 N   0  0  0  0  0  0  0  0  0  0  0  0
   -9.6506    8.8289  -25.7849 N   0  0  0  0  0  4  0  0  0  0  0  0
   -3.5258    3.9566  -22.1607 N   0  0  0  0  0  0  0  0  0  0  0  0
  2  1  2  0
  4  1  1  1
  1 22  1  0
  3  2  1  0
 13  3  2  0
 17  3  1  6
 26  4  1  6
  6  5  2  0
  5 13  1  0
  5 24  1  0
 15  6  1  0
  6 27  1  0
  7 27  1  6
  8 16  2  0
 25  8  1  0
 10  9  1  0
  9 20  1  0
  9 25  2  0
 10 11  1  0
 10 15  2  0
 11 19  2  0
 19 12  1  0
 12 20  2  0
 12 23  1  0
 13 18  1  0
 24 14  2  0
 14 27  1  0
 15 16  1  0
 21 18  1  6
 18 22  2  0
M  CHG  1  26   1
M  END
$$$$
