
     RDKit          3D

 27 30  0  0  0  0  0  0  0  0999 V2000
   -6.4365    4.3229  -23.2432 C   0  0  0  0  0  0  0  0  0  0  0  0
   -5.2059    3.8963  -22.7920 C   0  0  0  0  0  0  0  0  0  0  0  0
   -4.1742    4.8227  -22.5853 C   0  0  0  0  0  0  0  0  0  0  0  0
   -7.5798    3.4147  -23.4901 C   0  0  0  0  0  0  0  0  0  0  0  0
   -3.2552    7.1107  -22.6045 C   0  0  0  0  0  0  0  0  0  0  0  0
   -2.6305    7.5233  -21.4538 C   0  0  0  0  0  0  0  0  0  0  0  0
   -0.7941    9.1217  -20.9757 C   0  0  0  0  0  0  0  0  0  0  0  0
   -2.2618    6.0376  -18.0716 C   0  0  0  0  0  0  0  0  0  0  0  0
   -4.4546    6.8829  -18.2694 C   0  0  0  0  0  0  0  0  0  0  0  0
   -4.1546    7.2859  -19.5475 C   0  0  0  0  0  0  0  0  0  0  0  0
   -5.1792    7.9141  -20.2465 C   0  0  0  0  0  0  0  0  0  0  0  0
   -6.6824    7.7039  -18.4117 C   0  0  0  0  0  0  0  0  0  0  0  0
   -4.3498    6.1696  -22.8213 C   0  0  0  0  0  0  0  0  0  0  0  0
   -1.7379    8.5583  -23.1861 C   0  0  0  0  0  0  0  0  0  0  0  0
   -2.9148    7.0711  -20.0959 C   0  0  0  0  0  0  0  0  0  0  0  0
   -1.9564    6.4369  -19.3446 C   0  0  0  0  0  0  0  0  0  0  0  0
   -2.8943    4.2378  -22.1068 C   0  0  0  0  0  0  0  0  0  0  0  0
   -5.5709    6.6060  -23.2712 C   0  0  0  0  0  0  0  0  0  0  0  0
   -6.4197    8.1209  -19.6932 C   0  0  0  0  0  0  0  0  0  0  0  0
   -5.6998    7.0771  -17.6801 C   0  0  0  0  0  0  0  0  0  0  0  0
   -5.8230    8.0689  -23.5607 C   0  0  0  0  0  0  0  0  0  0  0  0
   -6.5678    5.6758  -23.4662 C   0  0  0  0  0  0  0  0  0  0  0  0
   -7.9323    7.9170  -17.8701 F   0  0  0  0  0  0  0  0  0  0  0  0
   -2.6922    7.7590  -23.6628 N   0  0  0  0  0  0  0  0  0  0  0  0
   -3.4777    6.2657  -17.5761 N   0  0  0  0  0  0  0  0  0  0  0  0
   -8.2065    2.9489  -22.2459 N   0  0  0  0  0  4  0  0  0  0  0  0
   -1.6988    8.4158  -21.8376 N   0  0  0  0  0  0  0  0  0  0  0  0
  2  1  2  0
  4  1  1  1
  1 22  1  0
  3  2  1  0
 13  3  2  0
 17  3  1  6
 26  4  1  6
  6  5  2  0
  5 13  1  0
  5 24  1  0
 15  6  1  0
  6 27  1  0
  7 27  1  6
  8 16  2  0
 25  8  1  0
 10  9  1  0
  9 20  1  0
  9 25  2  0
 10 11  1  0
 10 15  2  0
 11 19  2  0
 19 12  1  0
 12 20  2  0
 12 23  1  0
 13 18  1  0
 24 14  2  0
 14 27  1  0
 15 16  1  0
 21 18  1  6
 18 22  2  0
M  CHG  1  26   1
M  END
$$$$
