
     RDKit          3D

 20 22  0  0  0  0  0  0  0  0999 V2000
   -9.7126    3.3275  -16.8594 C   0  0  0  0  0  0  0  0  0  0  0  0
  -10.6764    3.8352  -17.7112 C   0  0  0  0  0  0  0  0  0  0  0  0
  -10.5920    5.1151  -18.2171 C   0  0  0  0  0  0  0  0  0  0  0  0
   -9.5397    5.9448  -17.8938 C   0  0  0  0  0  0  0  0  0  0  0  0
   -8.5734    5.4462  -17.0444 C   0  0  0  0  0  0  0  0  0  0  0  0
   -8.6620    4.1589  -16.5379 C   0  0  0  0  0  0  0  0  0  0  0  0
   -9.7399    1.9774  -16.2855 C   0  0  0  0  0  0  0  0  0  0  0  0
   -7.5730    3.7195  -15.6344 C   0  0  0  0  0  0  0  0  0  0  0  0
   -9.8028    0.9556  -17.3014 N   0  0  0  0  0  0  0  0  0  0  0  0
   -9.2777   -0.3675  -19.0258 C   0  0  0  0  0  0  0  0  0  0  0  0
   -8.4980   -0.8503  -20.0515 C   0  0  0  0  0  0  0  0  0  0  0  0
   -7.2619   -0.3009  -20.3157 C   0  0  0  0  0  0  0  0  0  0  0  0
   -6.8259    0.7372  -19.5345 C   0  0  0  0  0  0  0  0  0  0  0  0
   -7.6105    1.2172  -18.5085 C   0  0  0  0  0  0  0  0  0  0  0  0
  -11.9243   -0.6982  -15.5678 O   0  0  0  0  0  0  0  0  0  0  0  0
  -12.0894   -0.0313  -16.7799 C   0  0  0  0  0  0  0  0  0  0  0  0
  -10.8095    0.0945  -17.5146 C   0  0  0  0  0  0  0  0  0  0  0  0
   -8.8667    0.6795  -18.2185 C   0  0  0  0  0  0  0  0  0  0  0  0
  -10.4878   -0.7137  -18.5686 N   0  0  0  0  0  0  0  0  0  0  0  0
  -11.6388    5.6218  -19.1227 C   0  0  0  0  0  0  0  0  0  0  0  0
  1  2  2  0
  1  6  1  0
  7  1  1  0
  2  3  1  0
  3  4  2  0
  3 20  1  0
  5  4  1  0
  6  5  2  0
  6  8  1  0
  9  7  1  0
 17  9  1  0
  9 18  1  0
 10 11  2  0
 18 10  1  0
 10 19  1  0
 11 12  1  0
 13 12  2  0
 14 13  1  0
 18 14  2  0
 16 15  1  0
 16 17  1  0
 17 19  2  0
M  END
$$$$
