
     RDKit          3D

 20 22  0  0  0  0  0  0  0  0999 V2000
   -8.5217    2.7604  -15.4508 C   0  0  0  0  0  0  0  0  0  0  0  0
   -7.1569    2.9634  -15.5432 C   0  0  0  0  0  0  0  0  0  0  0  0
   -6.6225    4.2259  -15.6913 C   0  0  0  0  0  0  0  0  0  0  0  0
   -7.4291    5.3420  -15.7537 C   0  0  0  0  0  0  0  0  0  0  0  0
   -8.7922    5.1485  -15.6623 C   0  0  0  0  0  0  0  0  0  0  0  0
   -9.3255    3.8777  -15.5134 C   0  0  0  0  0  0  0  0  0  0  0  0
   -9.1567    1.4472  -15.2925 C   0  0  0  0  0  0  0  0  0  0  0  0
  -10.8012    3.7780  -15.4249 C   0  0  0  0  0  0  0  0  0  0  0  0
   -9.5028    0.8538  -16.5606 N   0  0  0  0  0  0  0  0  0  0  0  0
   -9.4155    0.1821  -18.6916 C   0  0  0  0  0  0  0  0  0  0  0  0
   -8.8644    0.0306  -19.9432 C   0  0  0  0  0  0  0  0  0  0  0  0
   -7.6168    0.5412  -20.2303 C   0  0  0  0  0  0  0  0  0  0  0  0
   -6.9366    1.2033  -19.2419 C   0  0  0  0  0  0  0  0  0  0  0  0
   -7.4928    1.3524  -17.9900 C   0  0  0  0  0  0  0  0  0  0  0  0
  -12.7216   -0.9169  -16.6109 O   0  0  0  0  0  0  0  0  0  0  0  0
  -11.8019   -0.0747  -15.9895 C   0  0  0  0  0  0  0  0  0  0  0  0
  -10.6365    0.2019  -16.8607 C   0  0  0  0  0  0  0  0  0  0  0  0
   -8.7549    0.8453  -17.6715 C   0  0  0  0  0  0  0  0  0  0  0  0
  -10.5823   -0.2083  -18.1631 N   0  0  0  0  0  0  0  0  0  0  0  0
   -5.1623    4.4032  -15.7864 C   0  0  0  0  0  0  0  0  0  0  0  0
  1  2  2  0
  1  6  1  0
  7  1  1  0
  2  3  1  0
  3  4  2  0
  3 20  1  0
  5  4  1  0
  6  5  2  0
  6  8  1  0
  9  7  1  0
 17  9  1  0
  9 18  1  0
 10 11  2  0
 18 10  1  0
 10 19  1  0
 11 12  1  0
 13 12  2  0
 14 13  1  0
 18 14  2  0
 16 15  1  0
 16 17  1  0
 17 19  2  0
M  END
$$$$
