
     RDKit          3D

 20 22  0  0  0  0  0  0  0  0999 V2000
  -10.3661    0.8996  -17.6131 C   0  0  0  0  0  0  0  0  0  0  0  0
   -9.9225    1.5759  -18.7328 C   0  0  0  0  0  0  0  0  0  0  0  0
  -10.6491    1.6996  -19.9014 C   0  0  0  0  0  0  0  0  0  0  0  0
  -11.8815    1.1020  -19.9186 C   0  0  0  0  0  0  0  0  0  0  0  0
  -12.3704    0.4145  -18.8319 C   0  0  0  0  0  0  0  0  0  0  0  0
  -11.6067    0.3089  -17.6687 C   0  0  0  0  0  0  0  0  0  0  0  0
   -9.5930    0.9455  -16.3448 C   0  0  0  0  0  0  0  0  0  0  0  0
  -12.1152   -0.5403  -16.5809 C   0  0  0  0  0  0  0  0  0  0  0  0
   -8.3567    1.6983  -16.4188 N   0  0  0  0  0  0  0  0  0  0  0  0
   -6.8099    3.2366  -16.4579 C   0  0  0  0  0  0  0  0  0  0  0  0
   -6.3033    4.5116  -16.2622 C   0  0  0  0  0  0  0  0  0  0  0  0
   -7.0390    5.5590  -15.7577 C   0  0  0  0  0  0  0  0  0  0  0  0
   -8.3531    5.2892  -15.4385 C   0  0  0  0  0  0  0  0  0  0  0  0
   -8.8719    4.0299  -15.6282 C   0  0  0  0  0  0  0  0  0  0  0  0
   -6.8922   -0.5631  -18.6349 O   0  0  0  0  0  0  0  0  0  0  0  0
   -6.9940   -0.3097  -17.3062 C   0  0  0  0  0  0  0  0  0  0  0  0
   -7.2147    1.1115  -16.9168 C   0  0  0  0  0  0  0  0  0  0  0  0
   -8.1429    2.9780  -16.1314 C   0  0  0  0  0  0  0  0  0  0  0  0
   -6.2998    2.0936  -16.9213 N   0  0  0  0  0  0  0  0  0  0  0  0
  -10.1154    2.4535  -21.0666 C   0  0  0  0  0  0  0  0  0  0  0  0
  1  2  2  0
  1  6  1  0
  7  1  1  0
  2  3  1  0
  3  4  2  0
 20  3  1  6
  5  4  1  0
  6  5  2  0
  8  6  1  6
  7  9  1  6
 17  9  1  0
  9 18  1  0
 10 11  2  0
 18 10  1  0
 10 19  1  0
 11 12  1  0
 13 12  2  0
 14 13  1  0
 18 14  2  0
 16 15  1  1
 16 17  1  0
 17 19  2  0
M  END
$$$$
