
     RDKit          3D

 20 22  0  0  0  0  0  0  0  0999 V2000
   -9.3401    1.1455  -19.2087 C   0  0  0  0  0  0  0  0  0  0  0  0
  -10.5028    1.8741  -19.0365 C   0  0  0  0  0  0  0  0  0  0  0  0
  -11.1087    2.5276  -20.0887 C   0  0  0  0  0  0  0  0  0  0  0  0
  -10.5789    2.4817  -21.3605 C   0  0  0  0  0  0  0  0  0  0  0  0
   -9.4188    1.7569  -21.5413 C   0  0  0  0  0  0  0  0  0  0  0  0
   -8.8128    1.1014  -20.4808 C   0  0  0  0  0  0  0  0  0  0  0  0
   -8.6441    0.4272  -18.1353 C   0  0  0  0  0  0  0  0  0  0  0  0
   -7.5708    0.3508  -20.7805 C   0  0  0  0  0  0  0  0  0  0  0  0
   -9.0519    0.8761  -16.8268 N   0  0  0  0  0  0  0  0  0  0  0  0
   -9.1627    2.0132  -14.9046 C   0  0  0  0  0  0  0  0  0  0  0  0
   -8.7983    2.9671  -13.9825 C   0  0  0  0  0  0  0  0  0  0  0  0
   -7.7515    3.8275  -14.2347 C   0  0  0  0  0  0  0  0  0  0  0  0
   -7.0810    3.7125  -15.4243 C   0  0  0  0  0  0  0  0  0  0  0  0
   -7.4498    2.7555  -16.3446 C   0  0  0  0  0  0  0  0  0  0  0  0
  -12.2133   -0.2602  -16.8439 O   0  0  0  0  0  0  0  0  0  0  0  0
  -10.9788   -0.7302  -16.4007 C   0  0  0  0  0  0  0  0  0  0  0  0
  -10.0521    0.3804  -16.0821 C   0  0  0  0  0  0  0  0  0  0  0  0
   -8.5062    1.8708  -16.1154 C   0  0  0  0  0  0  0  0  0  0  0  0
  -10.1190    1.0759  -14.9077 N   0  0  0  0  0  0  0  0  0  0  0  0
  -12.3476    3.2947  -19.8667 C   0  0  0  0  0  0  0  0  0  0  0  0
  1  2  2  0
  1  6  1  0
  7  1  1  0
  2  3  1  0
  3  4  2  0
  3 20  1  0
  5  4  1  0
  6  5  2  0
  6  8  1  0
  9  7  1  0
 17  9  1  0
  9 18  1  0
 10 11  2  0
 18 10  1  0
 10 19  1  0
 11 12  1  0
 13 12  2  0
 14 13  1  0
 18 14  2  0
 16 15  1  0
 16 17  1  0
 17 19  2  0
M  END
$$$$
