
     RDKit          3D

 20 22  0  0  0  0  0  0  0  0999 V2000
   -8.4392    2.9570  -16.0163 C   0  0  0  0  0  0  0  0  0  0  0  0
   -8.7524    1.8983  -16.8490 C   0  0  0  0  0  0  0  0  0  0  0  0
   -8.0984    1.7033  -18.0472 C   0  0  0  0  0  0  0  0  0  0  0  0
   -7.1018    2.5585  -18.4664 C   0  0  0  0  0  0  0  0  0  0  0  0
   -6.7829    3.6176  -17.6414 C   0  0  0  0  0  0  0  0  0  0  0  0
   -7.4428    3.8101  -16.4377 C   0  0  0  0  0  0  0  0  0  0  0  0
   -9.0936    3.2233  -14.7304 C   0  0  0  0  0  0  0  0  0  0  0  0
   -7.0255    4.9771  -15.6256 C   0  0  0  0  0  0  0  0  0  0  0  0
   -9.6291    2.0243  -14.1338 N   0  0  0  0  0  0  0  0  0  0  0  0
  -10.9844    0.3180  -13.6322 C   0  0  0  0  0  0  0  0  0  0  0  0
  -12.1207   -0.4537  -13.7117 C   0  0  0  0  0  0  0  0  0  0  0  0
  -13.1448   -0.1138  -14.5692 C   0  0  0  0  0  0  0  0  0  0  0  0
  -13.0069    1.0099  -15.3414 C   0  0  0  0  0  0  0  0  0  0  0  0
  -11.8669    1.7795  -15.2581 C   0  0  0  0  0  0  0  0  0  0  0  0
   -7.7248    2.4711  -11.6383 O   0  0  0  0  0  0  0  0  0  0  0  0
   -7.7155    1.4310  -12.5653 C   0  0  0  0  0  0  0  0  0  0  0  0
   -9.0396    1.2557  -13.2054 C   0  0  0  0  0  0  0  0  0  0  0  0
  -10.8138    1.4587  -14.3982 C   0  0  0  0  0  0  0  0  0  0  0  0
   -9.8685    0.2132  -12.8994 N   0  0  0  0  0  0  0  0  0  0  0  0
   -8.4596    0.5632  -18.9087 C   0  0  0  0  0  0  0  0  0  0  0  0
  1  2  2  0
  1  6  1  0
  7  1  1  0
  2  3  1  0
  3  4  2  0
  3 20  1  0
  5  4  1  0
  6  5  2  0
  6  8  1  0
  9  7  1  0
 17  9  1  0
  9 18  1  0
 10 11  2  0
 18 10  1  0
 10 19  1  0
 11 12  1  0
 13 12  2  0
 14 13  1  0
 18 14  2  0
 16 15  1  0
 16 17  1  0
 17 19  2  0
M  END
$$$$
