
     RDKit          3D

 20 22  0  0  0  0  0  0  0  0999 V2000
  -10.6327    2.2361  -19.0921 C   0  0  0  0  0  0  0  0  0  0  0  0
   -9.8398    1.1877  -19.5219 C   0  0  0  0  0  0  0  0  0  0  0  0
   -9.2101    1.2136  -20.7482 C   0  0  0  0  0  0  0  0  0  0  0  0
   -9.3450    2.2891  -21.5999 C   0  0  0  0  0  0  0  0  0  0  0  0
  -10.1344    3.3395  -21.1789 C   0  0  0  0  0  0  0  0  0  0  0  0
  -10.7658    3.3097  -19.9453 C   0  0  0  0  0  0  0  0  0  0  0  0
  -11.3306    2.2743  -17.8020 C   0  0  0  0  0  0  0  0  0  0  0  0
  -11.5908    4.4874  -19.5877 C   0  0  0  0  0  0  0  0  0  0  0  0
  -10.4536    1.9641  -16.6998 N   0  0  0  0  0  0  0  0  0  0  0  0
   -8.8115    2.0832  -15.1867 C   0  0  0  0  0  0  0  0  0  0  0  0
   -7.7210    2.6314  -14.5516 C   0  0  0  0  0  0  0  0  0  0  0  0
   -7.1883    3.8302  -14.9745 C   0  0  0  0  0  0  0  0  0  0  0  0
   -7.7683    4.4647  -16.0417 C   0  0  0  0  0  0  0  0  0  0  0  0
   -8.8603    3.9115  -16.6745 C   0  0  0  0  0  0  0  0  0  0  0  0
  -11.0854   -1.2090  -16.8805 O   0  0  0  0  0  0  0  0  0  0  0  0
  -11.4681   -0.2455  -15.9497 C   0  0  0  0  0  0  0  0  0  0  0  0
  -10.5113    0.8842  -15.9056 C   0  0  0  0  0  0  0  0  0  0  0  0
   -9.4206    2.6984  -16.2673 C   0  0  0  0  0  0  0  0  0  0  0  0
   -9.5074    0.9577  -14.9813 N   0  0  0  0  0  0  0  0  0  0  0  0
   -8.3725    0.0773  -21.1724 C   0  0  0  0  0  0  0  0  0  0  0  0
  1  2  2  0
  1  6  1  0
  7  1  1  0
  2  3  1  0
  3  4  2  0
  3 20  1  0
  5  4  1  0
  6  5  2  0
  6  8  1  0
  9  7  1  0
 17  9  1  0
  9 18  1  0
 10 11  2  0
 18 10  1  0
 10 19  1  0
 11 12  1  0
 13 12  2  0
 14 13  1  0
 18 14  2  0
 16 15  1  0
 16 17  1  0
 17 19  2  0
M  END
$$$$
