
     RDKit          3D

 20 22  0  0  0  0  0  0  0  0999 V2000
   -9.2068    1.8751  -17.9553 C   0  0  0  0  0  0  0  0  0  0  0  0
   -9.8789    3.0777  -17.8343 C   0  0  0  0  0  0  0  0  0  0  0  0
  -10.6134    3.6030  -18.8764 C   0  0  0  0  0  0  0  0  0  0  0  0
  -10.7089    2.9491  -20.0861 C   0  0  0  0  0  0  0  0  0  0  0  0
  -10.0413    1.7485  -20.2154 C   0  0  0  0  0  0  0  0  0  0  0  0
   -9.3039    1.2238  -19.1655 C   0  0  0  0  0  0  0  0  0  0  0  0
   -8.4084    1.2596  -16.8892 C   0  0  0  0  0  0  0  0  0  0  0  0
   -8.6250   -0.0710  -19.4066 C   0  0  0  0  0  0  0  0  0  0  0  0
   -8.3346    2.0931  -15.7145 N   0  0  0  0  0  0  0  0  0  0  0  0
   -7.6533    3.6099  -14.2193 C   0  0  0  0  0  0  0  0  0  0  0  0
   -6.8368    4.5874  -13.6990 C   0  0  0  0  0  0  0  0  0  0  0  0
   -5.7154    5.0062  -14.3822 C   0  0  0  0  0  0  0  0  0  0  0  0
   -5.4310    4.4278  -15.5916 C   0  0  0  0  0  0  0  0  0  0  0  0
   -6.2519    3.4491  -16.1085 C   0  0  0  0  0  0  0  0  0  0  0  0
  -10.1081   -0.0037  -14.0785 O   0  0  0  0  0  0  0  0  0  0  0  0
  -10.4143    1.2929  -14.4861 C   0  0  0  0  0  0  0  0  0  0  0  0
   -9.1934    2.1078  -14.6836 C   0  0  0  0  0  0  0  0  0  0  0  0
   -7.3943    3.0057  -15.4379 C   0  0  0  0  0  0  0  0  0  0  0  0
   -8.7763    3.0350  -13.7705 N   0  0  0  0  0  0  0  0  0  0  0  0
  -11.3166    4.8877  -18.7102 C   0  0  0  0  0  0  0  0  0  0  0  0
  1  2  2  0
  1  6  1  0
  7  1  1  0
  2  3  1  0
  3  4  2  0
  3 20  1  0
  5  4  1  0
  6  5  2  0
  6  8  1  0
  9  7  1  0
 17  9  1  0
  9 18  1  0
 10 11  2  0
 18 10  1  0
 10 19  1  0
 11 12  1  0
 13 12  2  0
 14 13  1  0
 18 14  2  0
 16 15  1  0
 16 17  1  0
 17 19  2  0
M  END
$$$$
