
     RDKit          3D

 20 22  0  0  0  0  0  0  0  0999 V2000
   -9.0251    2.1175  -17.8683 C   0  0  0  0  0  0  0  0  0  0  0  0
   -8.3392    2.7479  -16.8485 C   0  0  0  0  0  0  0  0  0  0  0  0
   -6.9645    2.8790  -16.8050 C   0  0  0  0  0  0  0  0  0  0  0  0
   -6.2677    2.3381  -17.8529 C   0  0  0  0  0  0  0  0  0  0  0  0
   -6.9009    1.6978  -18.8929 C   0  0  0  0  0  0  0  0  0  0  0  0
   -8.2917    1.5831  -18.9015 C   0  0  0  0  0  0  0  0  0  0  0  0
  -10.5097    2.1558  -17.9193 C   0  0  0  0  0  0  0  0  0  0  0  0
   -8.9141    0.7821  -19.9666 C   0  0  0  0  0  0  0  0  0  0  0  0
  -11.1640    1.8867  -16.6543 N   0  0  0  0  0  0  0  0  0  0  0  0
  -12.2099    1.0090  -14.9525 C   0  0  0  0  0  0  0  0  0  0  0  0
  -12.7259   -0.0331  -14.1986 C   0  0  0  0  0  0  0  0  0  0  0  0
  -12.6240   -1.3586  -14.5532 C   0  0  0  0  0  0  0  0  0  0  0  0
  -11.9637   -1.6300  -15.7330 C   0  0  0  0  0  0  0  0  0  0  0  0
  -11.4474   -0.6074  -16.4937 C   0  0  0  0  0  0  0  0  0  0  0  0
  -10.5105    4.9599  -15.0393 O   0  0  0  0  0  0  0  0  0  0  0  0
  -11.2806    4.3823  -15.9949 C   0  0  0  0  0  0  0  0  0  0  0  0
  -11.5519    2.9257  -15.8379 C   0  0  0  0  0  0  0  0  0  0  0  0
  -11.5447    0.7194  -16.1458 C   0  0  0  0  0  0  0  0  0  0  0  0
  -12.1876    2.3362  -14.8132 N   0  0  0  0  0  0  0  0  0  0  0  0
   -6.2908    3.5817  -15.6812 C   0  0  0  0  0  0  0  0  0  0  0  0
  1  2  2  0
  1  6  1  0
  7  1  1  0
  2  3  1  0
  3  4  2  0
 20  3  1  6
  5  4  1  0
  6  5  2  0
  8  6  1  6
  7  9  1  6
 17  9  1  0
  9 18  1  0
 10 11  2  0
 18 10  1  0
 10 19  1  0
 11 12  1  0
 13 12  2  0
 14 13  1  0
 18 14  2  0
 16 15  1  1
 16 17  1  0
 17 19  2  0
M  END
$$$$
