
     RDKit          3D

 20 22  0  0  0  0  0  0  0  0999 V2000
   -9.6403    2.6089  -15.3433 C   0  0  0  0  0  0  0  0  0  0  0  0
   -9.6673    3.5962  -16.3089 C   0  0  0  0  0  0  0  0  0  0  0  0
  -10.4751    4.7154  -16.2499 C   0  0  0  0  0  0  0  0  0  0  0  0
  -11.2888    4.8221  -15.1532 C   0  0  0  0  0  0  0  0  0  0  0  0
  -11.3029    3.8666  -14.1635 C   0  0  0  0  0  0  0  0  0  0  0  0
  -10.4739    2.7480  -14.2585 C   0  0  0  0  0  0  0  0  0  0  0  0
   -8.6324    1.5185  -15.4029 C   0  0  0  0  0  0  0  0  0  0  0  0
  -10.6146    1.6934  -13.2431 C   0  0  0  0  0  0  0  0  0  0  0  0
   -8.0909    1.2691  -16.7240 N   0  0  0  0  0  0  0  0  0  0  0  0
   -7.6380    0.5238  -18.7240 C   0  0  0  0  0  0  0  0  0  0  0  0
   -7.8848   -0.2035  -19.8776 C   0  0  0  0  0  0  0  0  0  0  0  0
   -9.0157   -0.9610  -20.0781 C   0  0  0  0  0  0  0  0  0  0  0  0
   -9.9362   -0.9746  -19.0514 C   0  0  0  0  0  0  0  0  0  0  0  0
   -9.7058   -0.2598  -17.8994 C   0  0  0  0  0  0  0  0  0  0  0  0
   -4.9525    2.2184  -15.6715 O   0  0  0  0  0  0  0  0  0  0  0  0
   -6.0108    2.7509  -16.3319 C   0  0  0  0  0  0  0  0  0  0  0  0
   -6.8713    1.7963  -17.0858 C   0  0  0  0  0  0  0  0  0  0  0  0
   -8.5785    0.4998  -17.6918 C   0  0  0  0  0  0  0  0  0  0  0  0
   -6.6397    1.3096  -18.3151 N   0  0  0  0  0  0  0  0  0  0  0  0
  -10.4448    5.7471  -17.3201 C   0  0  0  0  0  0  0  0  0  0  0  0
  1  2  2  0
  1  6  1  0
  7  1  1  0
  2  3  1  0
  3  4  2  0
 20  3  1  6
  5  4  1  0
  6  5  2  0
  8  6  1  6
  7  9  1  6
 17  9  1  0
  9 18  1  0
 10 11  2  0
 18 10  1  0
 10 19  1  0
 11 12  1  0
 13 12  2  0
 14 13  1  0
 18 14  2  0
 16 15  1  1
 16 17  1  0
 17 19  2  0
M  END
$$$$
