
     RDKit          3D

 20 22  0  0  0  0  0  0  0  0999 V2000
   -8.7917    1.6242  -14.5040 C   0  0  0  0  0  0  0  0  0  0  0  0
   -8.7579    1.9697  -15.8409 C   0  0  0  0  0  0  0  0  0  0  0  0
   -9.8766    2.0563  -16.6471 C   0  0  0  0  0  0  0  0  0  0  0  0
  -11.0784    1.7745  -16.0535 C   0  0  0  0  0  0  0  0  0  0  0  0
  -11.1683    1.4232  -14.7264 C   0  0  0  0  0  0  0  0  0  0  0  0
  -10.0159    1.3443  -13.9435 C   0  0  0  0  0  0  0  0  0  0  0  0
   -7.5651    1.7061  -13.6693 C   0  0  0  0  0  0  0  0  0  0  0  0
  -10.1467    0.8433  -12.5668 C   0  0  0  0  0  0  0  0  0  0  0  0
   -6.4739    2.4462  -14.2714 N   0  0  0  0  0  0  0  0  0  0  0  0
   -5.1429    3.9656  -15.0961 C   0  0  0  0  0  0  0  0  0  0  0  0
   -4.7097    5.2613  -15.3290 C   0  0  0  0  0  0  0  0  0  0  0  0
   -5.3477    6.3806  -14.8462 C   0  0  0  0  0  0  0  0  0  0  0  0
   -6.4805    6.1641  -14.0903 C   0  0  0  0  0  0  0  0  0  0  0  0
   -6.9248    4.8848  -13.8513 C   0  0  0  0  0  0  0  0  0  0  0  0
   -4.8199   -0.3364  -14.0089 O   0  0  0  0  0  0  0  0  0  0  0  0
   -5.2726    0.3169  -15.1080 C   0  0  0  0  0  0  0  0  0  0  0  0
   -5.4861    1.7848  -14.9666 C   0  0  0  0  0  0  0  0  0  0  0  0
   -6.2925    3.7613  -14.3298 C   0  0  0  0  0  0  0  0  0  0  0  0
   -4.6994    2.7581  -15.4518 N   0  0  0  0  0  0  0  0  0  0  0  0
   -9.7692    2.4466  -18.0778 C   0  0  0  0  0  0  0  0  0  0  0  0
  1  2  2  0
  1  6  1  0
  7  1  1  0
  2  3  1  0
  3  4  2  0
 20  3  1  6
  5  4  1  0
  6  5  2  0
  8  6  1  6
  7  9  1  6
 17  9  1  0
  9 18  1  0
 10 11  2  0
 18 10  1  0
 10 19  1  0
 11 12  1  0
 13 12  2  0
 14 13  1  0
 18 14  2  0
 16 15  1  1
 16 17  1  0
 17 19  2  0
M  END
$$$$
