
     RDKit          3D

 20 22  0  0  0  0  0  0  0  0999 V2000
   -8.5003    0.6970  -17.5296 C   0  0  0  0  0  0  0  0  0  0  0  0
   -9.4495    0.6815  -16.5240 C   0  0  0  0  0  0  0  0  0  0  0  0
  -10.7178    0.1834  -16.7350 C   0  0  0  0  0  0  0  0  0  0  0  0
  -11.0939   -0.3216  -17.9613 C   0  0  0  0  0  0  0  0  0  0  0  0
  -10.1529   -0.3100  -18.9704 C   0  0  0  0  0  0  0  0  0  0  0  0
   -8.8789    0.1916  -18.7542 C   0  0  0  0  0  0  0  0  0  0  0  0
   -7.1349    1.2111  -17.3744 C   0  0  0  0  0  0  0  0  0  0  0  0
   -7.9434    0.1585  -19.9028 C   0  0  0  0  0  0  0  0  0  0  0  0
   -6.9791    1.9856  -16.1678 N   0  0  0  0  0  0  0  0  0  0  0  0
   -6.8989    3.6986  -14.7327 C   0  0  0  0  0  0  0  0  0  0  0  0
   -6.9873    5.0121  -14.3327 C   0  0  0  0  0  0  0  0  0  0  0  0
   -7.3117    6.0030  -15.2341 C   0  0  0  0  0  0  0  0  0  0  0  0
   -7.5445    5.6517  -16.5381 C   0  0  0  0  0  0  0  0  0  0  0  0
   -7.4547    4.3348  -16.9339 C   0  0  0  0  0  0  0  0  0  0  0  0
   -5.0509   -0.0525  -14.1739 O   0  0  0  0  0  0  0  0  0  0  0  0
   -6.3845    0.1266  -14.5354 C   0  0  0  0  0  0  0  0  0  0  0  0
   -6.6570    1.5220  -14.9506 C   0  0  0  0  0  0  0  0  0  0  0  0
   -7.1279    3.3106  -16.0420 C   0  0  0  0  0  0  0  0  0  0  0  0
   -6.6081    2.5695  -14.0743 N   0  0  0  0  0  0  0  0  0  0  0  0
  -11.7031    0.1834  -15.6387 C   0  0  0  0  0  0  0  0  0  0  0  0
  1  2  2  0
  1  6  1  0
  7  1  1  0
  2  3  1  0
  3  4  2  0
  3 20  1  0
  5  4  1  0
  6  5  2  0
  6  8  1  0
  9  7  1  0
 17  9  1  0
  9 18  1  0
 10 11  2  0
 18 10  1  0
 10 19  1  0
 11 12  1  0
 13 12  2  0
 14 13  1  0
 18 14  2  0
 16 15  1  0
 16 17  1  0
 17 19  2  0
M  END
$$$$
