
     RDKit          3D

 20 22  0  0  0  0  0  0  0  0999 V2000
   -8.7688    2.9064  -17.2209 C   0  0  0  0  0  0  0  0  0  0  0  0
   -8.4659    4.1572  -16.7147 C   0  0  0  0  0  0  0  0  0  0  0  0
   -7.1849    4.6651  -16.7619 C   0  0  0  0  0  0  0  0  0  0  0  0
   -6.1491    3.9449  -17.3175 C   0  0  0  0  0  0  0  0  0  0  0  0
   -6.4425    2.6958  -17.8251 C   0  0  0  0  0  0  0  0  0  0  0  0
   -7.7317    2.1888  -17.7757 C   0  0  0  0  0  0  0  0  0  0  0  0
  -10.1073    2.3058  -17.2036 C   0  0  0  0  0  0  0  0  0  0  0  0
   -7.9414    0.8382  -18.3479 C   0  0  0  0  0  0  0  0  0  0  0  0
  -10.3212    1.4874  -16.0354 N   0  0  0  0  0  0  0  0  0  0  0  0
  -10.1535    0.6283  -13.9777 C   0  0  0  0  0  0  0  0  0  0  0  0
   -9.6609    0.5093  -12.6986 C   0  0  0  0  0  0  0  0  0  0  0  0
   -8.6641    1.3469  -12.2465 C   0  0  0  0  0  0  0  0  0  0  0  0
   -8.1737    2.3014  -13.0990 C   0  0  0  0  0  0  0  0  0  0  0  0
   -8.6704    2.4166  -14.3792 C   0  0  0  0  0  0  0  0  0  0  0  0
  -12.3135   -1.4190  -16.8072 O   0  0  0  0  0  0  0  0  0  0  0  0
  -12.1617   -0.0376  -16.9080 C   0  0  0  0  0  0  0  0  0  0  0  0
  -11.2010    0.4824  -15.9078 C   0  0  0  0  0  0  0  0  0  0  0  0
   -9.6800    1.5815  -14.8634 C   0  0  0  0  0  0  0  0  0  0  0  0
  -11.0978   -0.0420  -14.6501 N   0  0  0  0  0  0  0  0  0  0  0  0
   -6.9001    6.0027  -16.2120 C   0  0  0  0  0  0  0  0  0  0  0  0
  1  2  2  0
  1  6  1  0
  7  1  1  0
  2  3  1  0
  3  4  2  0
  3 20  1  0
  5  4  1  0
  6  5  2  0
  6  8  1  0
  9  7  1  0
 17  9  1  0
  9 18  1  0
 10 11  2  0
 18 10  1  0
 10 19  1  0
 11 12  1  0
 13 12  2  0
 14 13  1  0
 18 14  2  0
 16 15  1  0
 16 17  1  0
 17 19  2  0
M  END
$$$$
