
     RDKit          3D

 20 22  0  0  0  0  0  0  0  0999 V2000
   -8.7397    0.9045  -17.7669 C   0  0  0  0  0  0  0  0  0  0  0  0
   -9.5527    0.7668  -16.6566 C   0  0  0  0  0  0  0  0  0  0  0  0
  -10.8253    0.2451  -16.7532 C   0  0  0  0  0  0  0  0  0  0  0  0
  -11.3423   -0.1623  -17.9644 C   0  0  0  0  0  0  0  0  0  0  0  0
  -10.5378   -0.0283  -19.0774 C   0  0  0  0  0  0  0  0  0  0  0  0
   -9.2588    0.4966  -18.9762 C   0  0  0  0  0  0  0  0  0  0  0  0
   -7.3782    1.4505  -17.7361 C   0  0  0  0  0  0  0  0  0  0  0  0
   -8.4765    0.5982  -20.2304 C   0  0  0  0  0  0  0  0  0  0  0  0
   -7.0731    2.0806  -16.4751 N   0  0  0  0  0  0  0  0  0  0  0  0
   -6.8400    3.6096  -14.8602 C   0  0  0  0  0  0  0  0  0  0  0  0
   -6.9120    4.8590  -14.2884 C   0  0  0  0  0  0  0  0  0  0  0  0
   -7.3971    5.9337  -15.0021 C   0  0  0  0  0  0  0  0  0  0  0  0
   -7.8064    5.7312  -16.2942 C   0  0  0  0  0  0  0  0  0  0  0  0
   -7.7323    4.4780  -16.8624 C   0  0  0  0  0  0  0  0  0  0  0  0
   -4.9279   -0.2062  -15.7238 O   0  0  0  0  0  0  0  0  0  0  0  0
   -6.1856    0.0706  -15.1919 C   0  0  0  0  0  0  0  0  0  0  0  0
   -6.5614    1.4903  -15.3842 C   0  0  0  0  0  0  0  0  0  0  0  0
   -7.2452    3.3714  -16.1626 C   0  0  0  0  0  0  0  0  0  0  0  0
   -6.4193    2.4254  -14.3979 N   0  0  0  0  0  0  0  0  0  0  0  0
  -11.6629    0.1135  -15.5475 C   0  0  0  0  0  0  0  0  0  0  0  0
  1  2  2  0
  1  6  1  0
  7  1  1  0
  2  3  1  0
  3  4  2  0
  3 20  1  0
  5  4  1  0
  6  5  2  0
  6  8  1  0
  9  7  1  0
 17  9  1  0
  9 18  1  0
 10 11  2  0
 18 10  1  0
 10 19  1  0
 11 12  1  0
 13 12  2  0
 14 13  1  0
 18 14  2  0
 16 15  1  0
 16 17  1  0
 17 19  2  0
M  END
$$$$
