
     RDKit          3D

 20 22  0  0  0  0  0  0  0  0999 V2000
   -5.4229    2.9685  -14.5944 C   0  0  0  0  0  0  0  0  0  0  0  0
   -6.3852    2.2914  -15.3179 C   0  0  0  0  0  0  0  0  0  0  0  0
   -6.9057    2.7342  -16.5187 C   0  0  0  0  0  0  0  0  0  0  0  0
   -6.4168    3.9224  -16.9933 C   0  0  0  0  0  0  0  0  0  0  0  0
   -5.4598    4.6381  -16.3117 C   0  0  0  0  0  0  0  0  0  0  0  0
   -4.9588    4.1601  -15.1001 C   0  0  0  0  0  0  0  0  0  0  0  0
   -4.8030    2.3499  -13.3939 C   0  0  0  0  0  0  0  0  0  0  0  0
   -4.0324    5.0188  -14.3467 C   0  0  0  0  0  0  0  0  0  0  0  0
   -5.5300    1.2176  -12.8553 N   0  0  0  0  0  0  0  0  0  0  0  0
   -6.9130   -0.1180  -11.8238 C   0  0  0  0  0  0  0  0  0  0  0  0
   -8.0692   -0.4324  -11.1273 C   0  0  0  0  0  0  0  0  0  0  0  0
   -9.0369    0.4873  -10.7944 C   0  0  0  0  0  0  0  0  0  0  0  0
   -8.8112    1.7880  -11.1927 C   0  0  0  0  0  0  0  0  0  0  0  0
   -7.6683    2.1172  -11.8830 C   0  0  0  0  0  0  0  0  0  0  0  0
   -2.6621   -0.7304  -12.7368 O   0  0  0  0  0  0  0  0  0  0  0  0
   -3.7185   -0.4880  -13.5523 C   0  0  0  0  0  0  0  0  0  0  0  0
   -4.9782   -0.0436  -12.8921 C   0  0  0  0  0  0  0  0  0  0  0  0
   -6.6970    1.2038  -12.2198 C   0  0  0  0  0  0  0  0  0  0  0  0
   -5.8615   -0.8221  -12.2477 N   0  0  0  0  0  0  0  0  0  0  0  0
   -7.9326    1.9478  -17.2521 C   0  0  0  0  0  0  0  0  0  0  0  0
  1  2  2  0
  1  6  1  0
  7  1  1  0
  2  3  1  0
  3  4  2  0
 20  3  1  6
  5  4  1  0
  6  5  2  0
  8  6  1  6
  7  9  1  6
 17  9  1  0
  9 18  1  0
 10 11  2  0
 18 10  1  0
 10 19  1  0
 11 12  1  0
 13 12  2  0
 14 13  1  0
 18 14  2  0
 16 15  1  1
 16 17  1  0
 17 19  2  0
M  END
$$$$
