
     RDKit          3D

 20 22  0  0  0  0  0  0  0  0999 V2000
   -9.3073    2.4204  -17.1937 C   0  0  0  0  0  0  0  0  0  0  0  0
  -10.0524    1.4128  -17.7747 C   0  0  0  0  0  0  0  0  0  0  0  0
   -9.6717    0.7244  -18.9104 C   0  0  0  0  0  0  0  0  0  0  0  0
   -8.4763    1.0885  -19.4714 C   0  0  0  0  0  0  0  0  0  0  0  0
   -7.6962    2.0865  -18.9347 C   0  0  0  0  0  0  0  0  0  0  0  0
   -8.1146    2.7615  -17.7872 C   0  0  0  0  0  0  0  0  0  0  0  0
   -9.7097    3.0030  -15.8872 C   0  0  0  0  0  0  0  0  0  0  0  0
   -7.3116    3.9033  -17.3237 C   0  0  0  0  0  0  0  0  0  0  0  0
  -10.0167    2.0271  -14.8605 N   0  0  0  0  0  0  0  0  0  0  0  0
  -10.9676    0.6572  -13.4536 C   0  0  0  0  0  0  0  0  0  0  0  0
  -12.0227   -0.0781  -12.9370 C   0  0  0  0  0  0  0  0  0  0  0  0
  -13.2862   -0.0909  -13.4812 C   0  0  0  0  0  0  0  0  0  0  0  0
  -13.4788    0.6839  -14.6057 C   0  0  0  0  0  0  0  0  0  0  0  0
  -12.4429    1.4208  -15.1299 C   0  0  0  0  0  0  0  0  0  0  0  0
   -7.3142    3.2162  -13.3167 O   0  0  0  0  0  0  0  0  0  0  0  0
   -7.6157    2.0320  -13.9055 C   0  0  0  0  0  0  0  0  0  0  0  0
   -9.0575    1.6581  -13.9438 C   0  0  0  0  0  0  0  0  0  0  0  0
  -11.1774    1.4383  -14.5921 C   0  0  0  0  0  0  0  0  0  0  0  0
   -9.6896    0.8216  -13.1057 N   0  0  0  0  0  0  0  0  0  0  0  0
  -10.5176   -0.3595  -19.4765 C   0  0  0  0  0  0  0  0  0  0  0  0
  1  2  2  0
  1  6  1  0
  7  1  1  0
  2  3  1  0
  3  4  2  0
 20  3  1  6
  5  4  1  0
  6  5  2  0
  8  6  1  6
  7  9  1  6
 17  9  1  0
  9 18  1  0
 10 11  2  0
 18 10  1  0
 10 19  1  0
 11 12  1  0
 13 12  2  0
 14 13  1  0
 18 14  2  0
 16 15  1  1
 16 17  1  0
 17 19  2  0
M  END
$$$$
