
     RDKit          3D

 20 22  0  0  0  0  0  0  0  0999 V2000
   -7.9440    2.1693  -14.8581 C   0  0  0  0  0  0  0  0  0  0  0  0
   -7.7856    3.1779  -15.7884 C   0  0  0  0  0  0  0  0  0  0  0  0
   -7.2214    4.4077  -15.5090 C   0  0  0  0  0  0  0  0  0  0  0  0
   -6.8046    4.6078  -14.2197 C   0  0  0  0  0  0  0  0  0  0  0  0
   -6.9405    3.6378  -13.2536 C   0  0  0  0  0  0  0  0  0  0  0  0
   -7.5173    2.4078  -13.5728 C   0  0  0  0  0  0  0  0  0  0  0  0
   -8.4153    0.8227  -15.2738 C   0  0  0  0  0  0  0  0  0  0  0  0
   -7.7568    1.4511  -12.4817 C   0  0  0  0  0  0  0  0  0  0  0  0
   -9.0377    0.7786  -16.5820 N   0  0  0  0  0  0  0  0  0  0  0  0
   -9.4909    0.7944  -18.7162 C   0  0  0  0  0  0  0  0  0  0  0  0
   -9.1773    0.7583  -20.0657 C   0  0  0  0  0  0  0  0  0  0  0  0
   -7.8945    0.6508  -20.5513 C   0  0  0  0  0  0  0  0  0  0  0  0
   -6.8866    0.5765  -19.6131 C   0  0  0  0  0  0  0  0  0  0  0  0
   -7.1805    0.6127  -18.2702 C   0  0  0  0  0  0  0  0  0  0  0  0
  -11.8803   -0.2817  -15.1811 O   0  0  0  0  0  0  0  0  0  0  0  0
  -11.4352    0.9189  -15.6285 C   0  0  0  0  0  0  0  0  0  0  0  0
  -10.4052    0.8858  -16.7047 C   0  0  0  0  0  0  0  0  0  0  0  0
   -8.4598    0.7195  -17.7772 C   0  0  0  0  0  0  0  0  0  0  0  0
  -10.6302    0.8922  -18.0279 N   0  0  0  0  0  0  0  0  0  0  0  0
   -7.0702    5.4455  -16.5630 C   0  0  0  0  0  0  0  0  0  0  0  0
  1  2  2  0
  1  6  1  0
  7  1  1  0
  2  3  1  0
  3  4  2  0
 20  3  1  6
  5  4  1  0
  6  5  2  0
  8  6  1  6
  7  9  1  6
 17  9  1  0
  9 18  1  0
 10 11  2  0
 18 10  1  0
 10 19  1  0
 11 12  1  0
 13 12  2  0
 14 13  1  0
 18 14  2  0
 16 15  1  1
 16 17  1  0
 17 19  2  0
M  END
$$$$
