
     RDKit          3D

 20 22  0  0  0  0  0  0  0  0999 V2000
   -7.5796    3.0746  -15.9224 C   0  0  0  0  0  0  0  0  0  0  0  0
   -8.6172    3.8954  -16.3251 C   0  0  0  0  0  0  0  0  0  0  0  0
   -8.4399    5.2517  -16.4990 C   0  0  0  0  0  0  0  0  0  0  0  0
   -7.2169    5.8481  -16.2779 C   0  0  0  0  0  0  0  0  0  0  0  0
   -6.1761    5.0364  -15.8757 C   0  0  0  0  0  0  0  0  0  0  0  0
   -6.3584    3.6733  -15.7021 C   0  0  0  0  0  0  0  0  0  0  0  0
   -7.6981    1.6265  -15.7183 C   0  0  0  0  0  0  0  0  0  0  0  0
   -5.1775    2.8906  -15.2682 C   0  0  0  0  0  0  0  0  0  0  0  0
   -8.7736    1.0545  -16.4906 N   0  0  0  0  0  0  0  0  0  0  0  0
   -9.9994    0.3023  -18.2028 C   0  0  0  0  0  0  0  0  0  0  0  0
  -10.2850    0.0166  -19.5180 C   0  0  0  0  0  0  0  0  0  0  0  0
   -9.3763    0.3014  -20.5144 C   0  0  0  0  0  0  0  0  0  0  0  0
   -8.1814    0.8754  -20.1668 C   0  0  0  0  0  0  0  0  0  0  0  0
   -7.9001    1.1596  -18.8481 C   0  0  0  0  0  0  0  0  0  0  0  0
  -11.0023    1.7501  -14.2348 O   0  0  0  0  0  0  0  0  0  0  0  0
  -10.4228    0.5435  -14.6216 C   0  0  0  0  0  0  0  0  0  0  0  0
   -9.9420    0.5906  -16.0217 C   0  0  0  0  0  0  0  0  0  0  0  0
   -8.8022    0.8818  -17.8183 C   0  0  0  0  0  0  0  0  0  0  0  0
  -10.6905    0.1311  -17.0687 N   0  0  0  0  0  0  0  0  0  0  0  0
   -9.5696    6.0950  -16.9293 C   0  0  0  0  0  0  0  0  0  0  0  0
  1  2  2  0
  1  6  1  0
  7  1  1  0
  2  3  1  0
  3  4  2  0
  3 20  1  0
  5  4  1  0
  6  5  2  0
  6  8  1  0
  9  7  1  0
 17  9  1  0
  9 18  1  0
 10 11  2  0
 18 10  1  0
 10 19  1  0
 11 12  1  0
 13 12  2  0
 14 13  1  0
 18 14  2  0
 16 15  1  0
 16 17  1  0
 17 19  2  0
M  END
$$$$
