
     RDKit          3D

 20 22  0  0  0  0  0  0  0  0999 V2000
   -9.1140    0.7923  -17.1249 C   0  0  0  0  0  0  0  0  0  0  0  0
  -10.2433    0.7940  -16.3295 C   0  0  0  0  0  0  0  0  0  0  0  0
  -11.5217    0.5620  -16.7990 C   0  0  0  0  0  0  0  0  0  0  0  0
  -11.6430    0.3198  -18.1416 C   0  0  0  0  0  0  0  0  0  0  0  0
  -10.5515    0.3087  -18.9791 C   0  0  0  0  0  0  0  0  0  0  0  0
   -9.2751    0.5493  -18.4688 C   0  0  0  0  0  0  0  0  0  0  0  0
   -7.7609    0.8947  -16.5194 C   0  0  0  0  0  0  0  0  0  0  0  0
   -8.1574    0.6526  -19.4192 C   0  0  0  0  0  0  0  0  0  0  0  0
   -7.6426    1.8890  -15.4714 N   0  0  0  0  0  0  0  0  0  0  0  0
   -7.2542    3.6697  -14.2721 C   0  0  0  0  0  0  0  0  0  0  0  0
   -6.9334    5.0033  -14.0737 C   0  0  0  0  0  0  0  0  0  0  0  0
   -6.6757    5.8891  -15.0944 C   0  0  0  0  0  0  0  0  0  0  0  0
   -6.7500    5.3875  -16.3767 C   0  0  0  0  0  0  0  0  0  0  0  0
   -7.0654    4.0662  -16.5909 C   0  0  0  0  0  0  0  0  0  0  0  0
   -9.4243    0.1468  -13.0233 O   0  0  0  0  0  0  0  0  0  0  0  0
   -8.1922    0.2084  -13.5872 C   0  0  0  0  0  0  0  0  0  0  0  0
   -7.7854    1.5265  -14.1506 C   0  0  0  0  0  0  0  0  0  0  0  0
   -7.3247    3.1750  -15.5763 C   0  0  0  0  0  0  0  0  0  0  0  0
   -7.5367    2.6497  -13.4591 N   0  0  0  0  0  0  0  0  0  0  0  0
  -12.6934    0.5665  -15.8835 C   0  0  0  0  0  0  0  0  0  0  0  0
  1  2  2  0
  1  6  1  0
  7  1  1  0
  2  3  1  0
  3  4  2  0
 20  3  1  6
  5  4  1  0
  6  5  2  0
  8  6  1  6
  7  9  1  6
 17  9  1  0
  9 18  1  0
 10 11  2  0
 18 10  1  0
 10 19  1  0
 11 12  1  0
 13 12  2  0
 14 13  1  0
 18 14  2  0
 16 15  1  1
 16 17  1  0
 17 19  2  0
M  END
$$$$
