
     RDKit          3D

 20 22  0  0  0  0  0  0  0  0999 V2000
  -10.1076    1.3481  -19.3049 C   0  0  0  0  0  0  0  0  0  0  0  0
   -8.8781    0.7212  -19.2163 C   0  0  0  0  0  0  0  0  0  0  0  0
   -8.2004    0.2974  -20.3398 C   0  0  0  0  0  0  0  0  0  0  0  0
   -8.7218    0.4814  -21.6025 C   0  0  0  0  0  0  0  0  0  0  0  0
   -9.9483    1.1061  -21.7001 C   0  0  0  0  0  0  0  0  0  0  0  0
  -10.6264    1.5307  -20.5682 C   0  0  0  0  0  0  0  0  0  0  0  0
  -10.8818    1.8235  -18.1529 C   0  0  0  0  0  0  0  0  0  0  0  0
  -11.9359    2.1904  -20.7813 C   0  0  0  0  0  0  0  0  0  0  0  0
  -10.2096    1.5678  -16.9028 N   0  0  0  0  0  0  0  0  0  0  0  0
   -8.8366    1.7504  -15.1473 C   0  0  0  0  0  0  0  0  0  0  0  0
   -7.8484    2.3151  -14.3742 C   0  0  0  0  0  0  0  0  0  0  0  0
   -7.2138    3.4709  -14.7756 C   0  0  0  0  0  0  0  0  0  0  0  0
   -7.5884    4.0459  -15.9619 C   0  0  0  0  0  0  0  0  0  0  0  0
   -8.5787    3.4764  -16.7325 C   0  0  0  0  0  0  0  0  0  0  0  0
  -10.7719   -1.7808  -16.4375 O   0  0  0  0  0  0  0  0  0  0  0  0
  -11.4065   -0.5639  -16.1973 C   0  0  0  0  0  0  0  0  0  0  0  0
  -10.4332    0.5445  -16.0641 C   0  0  0  0  0  0  0  0  0  0  0  0
   -9.2383    2.3059  -16.3502 C   0  0  0  0  0  0  0  0  0  0  0  0
   -9.5938    0.6570  -14.9916 N   0  0  0  0  0  0  0  0  0  0  0  0
   -6.8916   -0.3672  -20.2060 C   0  0  0  0  0  0  0  0  0  0  0  0
  1  2  2  0
  1  6  1  0
  7  1  1  0
  2  3  1  0
  3  4  2  0
  3 20  1  0
  5  4  1  0
  6  5  2  0
  6  8  1  0
  9  7  1  0
 17  9  1  0
  9 18  1  0
 10 11  2  0
 18 10  1  0
 10 19  1  0
 11 12  1  0
 13 12  2  0
 14 13  1  0
 18 14  2  0
 16 15  1  0
 16 17  1  0
 17 19  2  0
M  END
$$$$
