
     RDKit          3D

 20 22  0  0  0  0  0  0  0  0999 V2000
   -6.9477    2.9678  -16.0189 C   0  0  0  0  0  0  0  0  0  0  0  0
   -7.0278    1.8430  -16.8194 C   0  0  0  0  0  0  0  0  0  0  0  0
   -7.7036    1.8581  -18.0212 C   0  0  0  0  0  0  0  0  0  0  0  0
   -8.3297    2.9987  -18.4764 C   0  0  0  0  0  0  0  0  0  0  0  0
   -8.2547    4.1257  -17.6838 C   0  0  0  0  0  0  0  0  0  0  0  0
   -7.5743    4.1064  -16.4762 C   0  0  0  0  0  0  0  0  0  0  0  0
   -6.2465    3.0219  -14.7312 C   0  0  0  0  0  0  0  0  0  0  0  0
   -7.5529    5.3688  -15.7006 C   0  0  0  0  0  0  0  0  0  0  0  0
   -6.4739    1.8391  -13.9378 N   0  0  0  0  0  0  0  0  0  0  0  0
   -7.4500    0.2977  -12.6449 C   0  0  0  0  0  0  0  0  0  0  0  0
   -8.4669   -0.2742  -11.9157 C   0  0  0  0  0  0  0  0  0  0  0  0
   -9.6956    0.3424  -11.8160 C   0  0  0  0  0  0  0  0  0  0  0  0
   -9.8827    1.5380  -12.4591 C   0  0  0  0  0  0  0  0  0  0  0  0
   -8.8610    2.1067  -13.1882 C   0  0  0  0  0  0  0  0  0  0  0  0
   -3.3270    1.5148  -13.3854 O   0  0  0  0  0  0  0  0  0  0  0  0
   -4.1921    0.7330  -14.1481 C   0  0  0  0  0  0  0  0  0  0  0  0
   -5.5940    0.8577  -13.6867 C   0  0  0  0  0  0  0  0  0  0  0  0
   -7.6063    1.5041  -13.3062 C   0  0  0  0  0  0  0  0  0  0  0  0
   -6.1913   -0.0838  -12.8966 N   0  0  0  0  0  0  0  0  0  0  0  0
   -7.7676    0.6393  -18.8478 C   0  0  0  0  0  0  0  0  0  0  0  0
  1  2  2  0
  1  6  1  0
  7  1  1  0
  2  3  1  0
  3  4  2  0
  3 20  1  0
  5  4  1  0
  6  5  2  0
  6  8  1  0
  9  7  1  0
 17  9  1  0
  9 18  1  0
 10 11  2  0
 18 10  1  0
 10 19  1  0
 11 12  1  0
 13 12  2  0
 14 13  1  0
 18 14  2  0
 16 15  1  0
 16 17  1  0
 17 19  2  0
M  END
$$$$
