
     RDKit          3D

 20 22  0  0  0  0  0  0  0  0999 V2000
   -3.6250    0.3576   -8.8186 C   0  0  0  0  0  0  0  0  0  0  0  0
   -3.4917   -0.1140  -10.1100 C   0  0  0  0  0  0  0  0  0  0  0  0
   -4.5273   -0.1772  -11.0223 C   0  0  0  0  0  0  0  0  0  0  0  0
   -5.7498    0.2616  -10.5874 C   0  0  0  0  0  0  0  0  0  0  0  0
   -5.9380    0.7390   -9.3109 C   0  0  0  0  0  0  0  0  0  0  0  0
   -4.8682    0.7860   -8.4161 C   0  0  0  0  0  0  0  0  0  0  0  0
   -2.4318    0.5391   -7.9517 C   0  0  0  0  0  0  0  0  0  0  0  0
   -5.1437    1.1839   -7.0273 C   0  0  0  0  0  0  0  0  0  0  0  0
   -1.1828    0.1056   -8.5458 N   0  0  0  0  0  0  0  0  0  0  0  0
    0.6130   -0.1476   -9.7587 C   0  0  0  0  0  0  0  0  0  0  0  0
    1.5651    0.2422  -10.6874 C   0  0  0  0  0  0  0  0  0  0  0  0
    1.5523    1.4567  -11.3336 C   0  0  0  0  0  0  0  0  0  0  0  0
    0.5184    2.3116  -11.0146 C   0  0  0  0  0  0  0  0  0  0  0  0
   -0.4355    1.9395  -10.0966 C   0  0  0  0  0  0  0  0  0  0  0  0
   -1.1692   -1.7495   -5.9670 O   0  0  0  0  0  0  0  0  0  0  0  0
   -1.1622   -2.1391   -7.2663 C   0  0  0  0  0  0  0  0  0  0  0  0
   -0.6711   -1.1396   -8.2562 C   0  0  0  0  0  0  0  0  0  0  0  0
   -0.4293    0.7279   -9.4463 C   0  0  0  0  0  0  0  0  0  0  0  0
    0.4247   -1.2458   -9.0239 N   0  0  0  0  0  0  0  0  0  0  0  0
   -4.3107   -0.6856  -12.4026 C   0  0  0  0  0  0  0  0  0  0  0  0
  1  2  2  0
  1  6  1  0
  7  1  1  0
  2  3  1  0
  3  4  2  0
 20  3  1  6
  5  4  1  0
  6  5  2  0
  8  6  1  6
  7  9  1  6
 17  9  1  0
  9 18  1  0
 10 11  2  0
 18 10  1  0
 10 19  1  0
 11 12  1  0
 13 12  2  0
 14 13  1  0
 18 14  2  0
 16 15  1  1
 16 17  1  0
 17 19  2  0
M  END
$$$$
