
     RDKit          3D

 20 22  0  0  0  0  0  0  0  0999 V2000
   -7.4581    3.5023  -16.0576 C   0  0  0  0  0  0  0  0  0  0  0  0
   -7.5145    2.3071  -16.7510 C   0  0  0  0  0  0  0  0  0  0  0  0
   -8.2404    2.1816  -17.9166 C   0  0  0  0  0  0  0  0  0  0  0  0
   -8.9425    3.2456  -18.4411 C   0  0  0  0  0  0  0  0  0  0  0  0
   -8.8917    4.4419  -17.7554 C   0  0  0  0  0  0  0  0  0  0  0  0
   -8.1608    4.5641  -16.5840 C   0  0  0  0  0  0  0  0  0  0  0  0
   -6.7069    3.7056  -14.8138 C   0  0  0  0  0  0  0  0  0  0  0  0
   -8.1711    5.8910  -15.9247 C   0  0  0  0  0  0  0  0  0  0  0  0
   -6.4924    2.4710  -14.0998 N   0  0  0  0  0  0  0  0  0  0  0  0
   -6.8047    0.6916  -12.7821 C   0  0  0  0  0  0  0  0  0  0  0  0
   -7.4905   -0.1329  -11.9202 C   0  0  0  0  0  0  0  0  0  0  0  0
   -8.7751    0.1728  -11.5251 C   0  0  0  0  0  0  0  0  0  0  0  0
   -9.3548    1.3162  -12.0093 C   0  0  0  0  0  0  0  0  0  0  0  0
   -8.6638    2.1387  -12.8723 C   0  0  0  0  0  0  0  0  0  0  0  0
   -3.4449    3.0666  -14.3855 O   0  0  0  0  0  0  0  0  0  0  0  0
   -4.1207    1.9421  -14.8546 C   0  0  0  0  0  0  0  0  0  0  0  0
   -5.3842    1.7147  -14.1160 C   0  0  0  0  0  0  0  0  0  0  0  0
   -7.3614    1.8534  -13.2892 C   0  0  0  0  0  0  0  0  0  0  0  0
   -5.5759    0.6275  -13.3105 N   0  0  0  0  0  0  0  0  0  0  0  0
   -8.2769    0.8914  -18.6284 C   0  0  0  0  0  0  0  0  0  0  0  0
  1  2  2  0
  1  6  1  0
  7  1  1  0
  2  3  1  0
  3  4  2  0
  3 20  1  0
  5  4  1  0
  6  5  2  0
  6  8  1  0
  9  7  1  0
 17  9  1  0
  9 18  1  0
 10 11  2  0
 18 10  1  0
 10 19  1  0
 11 12  1  0
 13 12  2  0
 14 13  1  0
 18 14  2  0
 16 15  1  0
 16 17  1  0
 17 19  2  0
M  END
$$$$
