
     RDKit          3D

 26 29  0  0  0  0  0  0  0  0999 V2000
    8.8842   23.5830   20.6510 C   0  0  0  0  0  0  0  0  0  0  0  0
    9.7761   23.1754   21.7095 C   0  0  0  0  0  0  0  0  0  0  0  0
    7.5482   22.6501   22.2715 C   0  0  1  0  0  0  0  0  0  0  0  0
    8.9776   22.6166   22.6803 C   0  0  0  0  0  0  0  0  0  0  0  0
   11.1357   23.2180   21.9437 C   0  0  0  0  0  0  0  0  0  0  0  0
    6.3410   23.5033   20.2123 C   0  0  1  0  0  0  0  0  0  0  0  0
    5.3433   24.4157   20.8762 C   0  0  0  0  0  0  0  0  0  0  0  0
    7.5159   23.2714   20.9731 N   0  0  0  0  0  0  0  0  0  0  0  0
    5.6557   22.1728   19.9876 C   0  0  0  0  0  0  0  0  0  0  0  0
    4.1789   24.5367   19.8902 C   0  0  0  0  0  0  0  0  0  0  0  0
    4.2075   22.2356   20.3449 C   0  0  0  0  0  0  0  0  0  0  0  0
    3.6857   24.0686   17.3909 C   0  0  0  0  0  0  0  0  0  0  0  0
   12.0243   23.7905   20.9660 C   0  0  0  0  0  0  0  0  0  0  0  0
    2.9800   23.8017   16.0534 C   0  0  0  0  0  0  0  0  0  0  0  0
    1.6314   21.8705   16.9045 C   0  0  0  0  0  0  0  0  0  0  0  0
    2.6957   22.3118   15.9000 C   0  0  0  0  0  0  0  0  0  0  0  0
    9.1909   24.1310   19.5859 O   0  0  0  0  0  0  0  0  0  0  0  0
    3.2201   23.0144   18.3415 C   0  0  2  0  0  0  0  0  0  0  0  0
    9.5056   22.1180   23.8410 C   0  0  0  0  0  0  0  0  0  0  0  0
    6.9367   21.2634   22.2444 C   0  0  0  0  0  0  0  0  0  0  0  0
   11.7021   22.7134   23.1257 C   0  0  0  0  0  0  0  0  0  0  0  0
    1.7332   22.8333   18.0717 C   0  0  0  0  0  0  0  0  0  0  0  0
    3.4832   23.3054   19.7236 N   0  0  2  0  0  4  0  0  0  0  0  0
   10.8618   22.1693   24.0561 C   0  0  0  0  0  0  0  0  0  0  0  0
   13.2392   23.8826   21.1398 O   0  0  0  0  0  0  0  0  0  0  0  0
   11.4948   24.2755   19.7424 N   0  0  0  0  0  0  0  0  0  0  0  0
  1  2  1  0
  8  1  1  0
  1 17  2  0
  4  2  2  0
  2  5  1  0
  3  4  1  0
  8  3  1  0
  3 20  1  6
  4 19  1  0
  5 13  1  0
  5 21  2  0
  7  6  1  0
  6  8  1  1
  9  6  1  0
 10  7  1  0
 11  9  1  0
 23 10  1  6
 23 11  1  0
 12 14  1  0
 18 12  1  6
 13 25  2  0
 13 26  1  0
 14 16  1  0
 15 16  1  0
 22 15  1  0
 18 22  1  0
 18 23  1  0
 19 24  2  0
 21 24  1  0
M  CHG  1  23   1
M  END
$$$$
