
     RDKit          3D

 26 29  0  0  0  0  0  0  0  0999 V2000
    9.3054   23.4423   20.4652 C   0  0  0  0  0  0  0  0  0  0  0  0
   10.1788   23.0888   21.5580 C   0  0  0  0  0  0  0  0  0  0  0  0
    7.9507   22.5223   22.0776 C   0  0  1  0  0  0  0  0  0  0  0  0
    9.3691   22.5378   22.5239 C   0  0  0  0  0  0  0  0  0  0  0  0
   11.5302   23.1735   21.8258 C   0  0  0  0  0  0  0  0  0  0  0  0
    6.7775   23.2839   19.9634 C   0  0  1  0  0  0  0  0  0  0  0  0
    5.9538   24.4903   20.3306 C   0  0  0  0  0  0  0  0  0  0  0  0
    7.9372   23.1047   20.7609 N   0  0  0  0  0  0  0  0  0  0  0  0
    5.8955   22.0662   20.1354 C   0  0  0  0  0  0  0  0  0  0  0  0
    4.7785   24.4981   19.3501 C   0  0  0  0  0  0  0  0  0  0  0  0
    4.4888   22.4499   20.4563 C   0  0  0  0  0  0  0  0  0  0  0  0
    4.6971   22.2132   17.5376 C   0  0  0  0  0  0  0  0  0  0  0  0
   12.4297   23.7404   20.8550 C   0  0  0  0  0  0  0  0  0  0  0  0
    4.1929   21.9565   16.1100 C   0  0  0  0  0  0  0  0  0  0  0  0
    1.8953   22.8613   16.5286 C   0  0  0  0  0  0  0  0  0  0  0  0
    2.7047   21.6267   16.1322 C   0  0  0  0  0  0  0  0  0  0  0  0
    9.6263   23.9670   19.3926 O   0  0  0  0  0  0  0  0  0  0  0  0
    3.5413   22.7589   18.3111 C   0  0  2  0  0  0  0  0  0  0  0  0
    9.8785   22.0868   23.7121 C   0  0  0  0  0  0  0  0  0  0  0  0
    7.3753   21.1199   22.0757 C   0  0  0  0  0  0  0  0  0  0  0  0
   12.0776   22.7182   23.0365 C   0  0  0  0  0  0  0  0  0  0  0  0
    2.8220   23.7160   17.3714 C   0  0  0  0  0  0  0  0  0  0  0  0
    3.9034   23.3925   19.5487 N   0  0  2  0  0  4  0  0  0  0  0  0
   11.2268   22.1796   23.9606 C   0  0  0  0  0  0  0  0  0  0  0  0
   13.6492   23.5800   20.8999 O   0  0  0  0  0  0  0  0  0  0  0  0
   11.9063   24.5213   19.7924 N   0  0  0  0  0  0  0  0  0  0  0  0
  1  2  1  0
  8  1  1  0
  1 17  2  0
  4  2  2  0
  2  5  1  0
  3  4  1  0
  8  3  1  0
  3 20  1  6
  4 19  1  0
  5 13  1  0
  5 21  2  0
  7  6  1  0
  6  8  1  1
  9  6  1  0
 10  7  1  0
 11  9  1  0
 23 10  1  6
 23 11  1  0
 12 14  1  0
 18 12  1  6
 13 25  2  0
 13 26  1  0
 14 16  1  0
 15 16  1  0
 22 15  1  0
 18 22  1  0
 18 23  1  0
 19 24  2  0
 21 24  1  0
M  CHG  1  23   1
M  END
$$$$
