
     RDKit          3D

 26 29  0  0  0  0  0  0  0  0999 V2000
    9.1278   23.4957   20.6033 C   0  0  0  0  0  0  0  0  0  0  0  0
   10.0946   23.0378   21.5716 C   0  0  0  0  0  0  0  0  0  0  0  0
    7.9236   22.3808   22.2120 C   0  0  1  0  0  0  0  0  0  0  0  0
    9.3751   22.3700   22.5351 C   0  0  0  0  0  0  0  0  0  0  0  0
   11.4636   23.1145   21.7315 C   0  0  0  0  0  0  0  0  0  0  0  0
    6.5673   23.3522   20.3034 C   0  0  1  0  0  0  0  0  0  0  0  0
    5.4524   23.8195   21.2020 C   0  0  0  0  0  0  0  0  0  0  0  0
    7.7927   23.1050   20.9745 N   0  0  0  0  0  0  0  0  0  0  0  0
    6.1151   22.0601   19.6583 C   0  0  0  0  0  0  0  0  0  0  0  0
    4.2481   24.0356   20.2825 C   0  0  0  0  0  0  0  0  0  0  0  0
    4.6926   21.7511   19.9898 C   0  0  0  0  0  0  0  0  0  0  0  0
    4.0042   21.7797   17.5017 C   0  0  0  0  0  0  0  0  0  0  0  0
   12.2721   23.8002   20.7572 C   0  0  0  0  0  0  0  0  0  0  0  0
    4.0138   22.2439   16.0379 C   0  0  0  0  0  0  0  0  0  0  0  0
    3.2748   24.5815   16.5498 C   0  0  0  0  0  0  0  0  0  0  0  0
    2.9263   23.2883   15.8131 C   0  0  0  0  0  0  0  0  0  0  0  0
    9.3515   24.1411   19.5726 O   0  0  0  0  0  0  0  0  0  0  0  0
    3.5096   22.9309   18.3154 C   0  0  2  0  0  0  0  0  0  0  0  0
    9.9881   21.7988   23.6180 C   0  0  0  0  0  0  0  0  0  0  0  0
    7.3598   20.9779   22.1024 C   0  0  0  0  0  0  0  0  0  0  0  0
   12.1163   22.5372   22.8329 C   0  0  0  0  0  0  0  0  0  0  0  0
    4.1524   24.1742   17.7175 C   0  0  0  0  0  0  0  0  0  0  0  0
    3.7707   22.8160   19.7235 N   0  0  2  0  0  4  0  0  0  0  0  0
   11.3521   21.8857   23.7599 C   0  0  0  0  0  0  0  0  0  0  0  0
   13.4868   23.9518   20.8842 O   0  0  0  0  0  0  0  0  0  0  0  0
   11.6597   24.3313   19.5928 N   0  0  0  0  0  0  0  0  0  0  0  0
  1  2  1  0
  8  1  1  0
  1 17  2  0
  4  2  2  0
  2  5  1  0
  3  4  1  0
  8  3  1  0
  3 20  1  6
  4 19  1  0
  5 13  1  0
  5 21  2  0
  7  6  1  0
  6  8  1  1
  9  6  1  0
 10  7  1  0
 11  9  1  0
 23 10  1  6
 23 11  1  0
 12 14  1  0
 18 12  1  6
 13 25  2  0
 13 26  1  0
 14 16  1  0
 15 16  1  0
 22 15  1  0
 18 22  1  0
 18 23  1  0
 19 24  2  0
 21 24  1  0
M  CHG  1  23   1
M  END
$$$$
