
     RDKit          3D

 26 29  0  0  0  0  0  0  0  0999 V2000
    8.9463   23.6284   20.6601 C   0  0  0  0  0  0  0  0  0  0  0  0
    9.8511   23.1710   21.6868 C   0  0  0  0  0  0  0  0  0  0  0  0
    7.6330   22.5945   22.2374 C   0  0  1  0  0  0  0  0  0  0  0  0
    9.0663   22.5518   22.6317 C   0  0  0  0  0  0  0  0  0  0  0  0
   11.2123   23.2134   21.9117 C   0  0  0  0  0  0  0  0  0  0  0  0
    6.4001   23.5491   20.2388 C   0  0  1  0  0  0  0  0  0  0  0  0
    5.2851   24.1523   21.0522 C   0  0  0  0  0  0  0  0  0  0  0  0
    7.5837   23.2865   20.9758 N   0  0  0  0  0  0  0  0  0  0  0  0
    5.8925   22.2372   19.6807 C   0  0  0  0  0  0  0  0  0  0  0  0
    4.1293   24.3625   20.0711 C   0  0  0  0  0  0  0  0  0  0  0  0
    4.4429   22.0397   19.9786 C   0  0  0  0  0  0  0  0  0  0  0  0
    2.7790   24.4038   17.6491 C   0  0  0  0  0  0  0  0  0  0  0  0
   12.0870   23.8477   20.9600 C   0  0  0  0  0  0  0  0  0  0  0  0
    2.2693   24.0944   16.2339 C   0  0  0  0  0  0  0  0  0  0  0  0
    2.9110   21.6744   16.2995 C   0  0  0  0  0  0  0  0  0  0  0  0
    3.1302   23.0120   15.5928 C   0  0  0  0  0  0  0  0  0  0  0  0
    9.2386   24.2374   19.6245 O   0  0  0  0  0  0  0  0  0  0  0  0
    3.3940   23.1459   18.1700 C   0  0  2  0  0  0  0  0  0  0  0  0
    9.6089   21.9945   23.7585 C   0  0  0  0  0  0  0  0  0  0  0  0
    7.0338   21.2056   22.1383 C   0  0  0  0  0  0  0  0  0  0  0  0
   11.7936   22.6495   23.0592 C   0  0  0  0  0  0  0  0  0  0  0  0
    2.4841   22.0140   17.7144 C   0  0  0  0  0  0  0  0  0  0  0  0
    3.5980   23.1313   19.5921 N   0  0  2  0  0  4  0  0  0  0  0  0
   10.9665   22.0467   23.9648 C   0  0  0  0  0  0  0  0  0  0  0  0
   13.2123   24.2517   21.2523 O   0  0  0  0  0  0  0  0  0  0  0  0
   11.6505   24.0237   19.6217 N   0  0  0  0  0  0  0  0  0  0  0  0
  1  2  1  0
  8  1  1  0
  1 17  2  0
  4  2  2  0
  2  5  1  0
  3  4  1  0
  8  3  1  0
  3 20  1  6
  4 19  1  0
  5 13  1  0
  5 21  2  0
  7  6  1  0
  6  8  1  1
  9  6  1  0
 10  7  1  0
 11  9  1  0
 23 10  1  6
 23 11  1  0
 12 14  1  0
 18 12  1  1
 13 25  2  0
 13 26  1  0
 14 16  1  0
 15 16  1  0
 22 15  1  0
 18 22  1  0
 18 23  1  0
 19 24  2  0
 21 24  1  0
M  CHG  1  23   1
M  END
$$$$
