
     RDKit          3D

 26 29  0  0  0  0  0  0  0  0999 V2000
    9.1529   23.4523   20.8021 C   0  0  0  0  0  0  0  0  0  0  0  0
   10.0574   23.0408   21.8483 C   0  0  0  0  0  0  0  0  0  0  0  0
    7.8527   22.3945   22.3743 C   0  0  1  0  0  0  0  0  0  0  0  0
    9.2804   22.4073   22.7901 C   0  0  0  0  0  0  0  0  0  0  0  0
   11.4128   23.1337   22.0925 C   0  0  0  0  0  0  0  0  0  0  0  0
    6.6177   23.2785   20.3447 C   0  0  1  0  0  0  0  0  0  0  0  0
    5.3956   23.5776   21.1727 C   0  0  0  0  0  0  0  0  0  0  0  0
    7.7984   23.0673   21.1025 N   0  0  0  0  0  0  0  0  0  0  0  0
    6.3320   22.0178   19.5578 C   0  0  0  0  0  0  0  0  0  0  0  0
    4.2593   23.7814   20.1677 C   0  0  0  0  0  0  0  0  0  0  0  0
    4.9176   21.5726   19.7316 C   0  0  0  0  0  0  0  0  0  0  0  0
    5.0681   23.0519   17.3341 C   0  0  0  0  0  0  0  0  0  0  0  0
   12.2793   23.7853   21.1450 C   0  0  0  0  0  0  0  0  0  0  0  0
    4.6972   23.6544   15.9711 C   0  0  0  0  0  0  0  0  0  0  0  0
    2.2349   23.7115   16.4250 C   0  0  0  0  0  0  0  0  0  0  0  0
    3.3322   23.1416   15.5263 C   0  0  0  0  0  0  0  0  0  0  0  0
    9.4396   24.0572   19.7626 O   0  0  0  0  0  0  0  0  0  0  0  0
    3.7853   22.8020   18.0579 C   0  0  2  0  0  0  0  0  0  0  0  0
    9.8250   21.8845   23.9324 C   0  0  0  0  0  0  0  0  0  0  0  0
    7.3036   20.9844   22.2859 C   0  0  0  0  0  0  0  0  0  0  0  0
   11.9960   22.6059   23.2561 C   0  0  0  0  0  0  0  0  0  0  0  0
    2.8949   23.9998   17.7595 C   0  0  0  0  0  0  0  0  0  0  0  0
    3.9352   22.5832   19.4699 N   0  0  2  0  0  4  0  0  0  0  0  0
   11.1766   21.9869   24.1579 C   0  0  0  0  0  0  0  0  0  0  0  0
   13.4874   23.9278   21.3321 O   0  0  0  0  0  0  0  0  0  0  0  0
   11.7351   24.2920   19.9367 N   0  0  0  0  0  0  0  0  0  0  0  0
  1  2  1  0
  8  1  1  0
  1 17  2  0
  4  2  2  0
  2  5  1  0
  3  4  1  0
  8  3  1  0
  3 20  1  6
  4 19  1  0
  5 13  1  0
  5 21  2  0
  7  6  1  0
  6  8  1  1
  9  6  1  0
 10  7  1  0
 11  9  1  0
 23 10  1  1
 23 11  1  0
 12 14  1  0
 18 12  1  1
 13 25  2  0
 13 26  1  0
 14 16  1  0
 15 16  1  0
 22 15  1  0
 18 22  1  0
 18 23  1  0
 19 24  2  0
 21 24  1  0
M  CHG  1  23   1
M  END
$$$$
