
     RDKit          3D

 26 29  0  0  0  0  0  0  0  0999 V2000
    9.1279   23.6050   20.7131 C   0  0  0  0  0  0  0  0  0  0  0  0
   10.1152   23.2004   21.6845 C   0  0  0  0  0  0  0  0  0  0  0  0
    7.9679   22.5068   22.3652 C   0  0  1  0  0  0  0  0  0  0  0  0
    9.4221   22.5426   22.6740 C   0  0  0  0  0  0  0  0  0  0  0  0
   11.4831   23.3168   21.8284 C   0  0  0  0  0  0  0  0  0  0  0  0
    6.5693   23.3873   20.4431 C   0  0  1  0  0  0  0  0  0  0  0  0
    5.3680   23.3704   21.3516 C   0  0  0  0  0  0  0  0  0  0  0  0
    7.8068   23.1912   21.1088 N   0  0  0  0  0  0  0  0  0  0  0  0
    6.3920   22.2681   19.4400 C   0  0  0  0  0  0  0  0  0  0  0  0
    4.1617   23.6108   20.4407 C   0  0  0  0  0  0  0  0  0  0  0  0
    5.0523   21.6226   19.5710 C   0  0  0  0  0  0  0  0  0  0  0  0
    3.3907   24.4462   18.0918 C   0  0  0  0  0  0  0  0  0  0  0  0
   12.2645   23.9943   20.8267 C   0  0  0  0  0  0  0  0  0  0  0  0
    2.7614   24.6681   16.7087 C   0  0  0  0  0  0  0  0  0  0  0  0
    2.7770   22.2451   16.0752 C   0  0  0  0  0  0  0  0  0  0  0  0
    3.2955   23.6384   15.7196 C   0  0  0  0  0  0  0  0  0  0  0  0
    9.3252   24.2258   19.6621 O   0  0  0  0  0  0  0  0  0  0  0  0
    3.6913   22.9867   18.1992 C   0  0  2  0  0  0  0  0  0  0  0  0
   10.0597   22.0189   23.7667 C   0  0  0  0  0  0  0  0  0  0  0  0
    7.4397   21.0873   22.3016 C   0  0  0  0  0  0  0  0  0  0  0  0
   12.1607   22.7885   22.9394 C   0  0  0  0  0  0  0  0  0  0  0  0
    2.5082   22.2671   17.5675 C   0  0  0  0  0  0  0  0  0  0  0  0
    3.9439   22.5311   19.5381 N   0  0  2  0  0  4  0  0  0  0  0  0
   11.4223   22.1448   23.8924 C   0  0  0  0  0  0  0  0  0  0  0  0
   13.4761   24.1803   20.9370 O   0  0  0  0  0  0  0  0  0  0  0  0
   11.6277   24.4760   19.6540 N   0  0  0  0  0  0  0  0  0  0  0  0
  1  2  1  0
  8  1  1  0
  1 17  2  0
  4  2  2  0
  2  5  1  0
  3  4  1  0
  8  3  1  0
  3 20  1  6
  4 19  1  0
  5 13  1  0
  5 21  2  0
  7  6  1  0
  6  8  1  1
  9  6  1  0
 10  7  1  0
 11  9  1  0
 23 10  1  1
 23 11  1  0
 12 14  1  0
 18 12  1  1
 13 25  2  0
 13 26  1  0
 14 16  1  0
 15 16  1  0
 22 15  1  0
 18 22  1  0
 18 23  1  0
 19 24  2  0
 21 24  1  0
M  CHG  1  23   1
M  END
$$$$
