
     RDKit          3D

 26 29  0  0  0  0  0  0  0  0999 V2000
    9.2944   23.5805   20.6671 C   0  0  0  0  0  0  0  0  0  0  0  0
   10.1957   23.3983   21.7791 C   0  0  0  0  0  0  0  0  0  0  0  0
    8.0234   22.6961   22.3652 C   0  0  1  0  0  0  0  0  0  0  0  0
    9.4362   22.8688   22.7964 C   0  0  0  0  0  0  0  0  0  0  0  0
   11.5356   23.6184   22.0270 C   0  0  0  0  0  0  0  0  0  0  0  0
    6.7881   23.1688   20.2027 C   0  0  1  0  0  0  0  0  0  0  0  0
    5.7328   24.1397   20.6635 C   0  0  0  0  0  0  0  0  0  0  0  0
    7.9597   23.1575   21.0029 N   0  0  0  0  0  0  0  0  0  0  0  0
    6.1768   21.7850   20.2441 C   0  0  0  0  0  0  0  0  0  0  0  0
    4.5814   23.9982   19.6651 C   0  0  0  0  0  0  0  0  0  0  0  0
    4.7211   21.8391   20.5713 C   0  0  0  0  0  0  0  0  0  0  0  0
    4.6657   22.6350   17.3875 C   0  0  0  0  0  0  0  0  0  0  0  0
   12.3834   24.1707   21.0026 C   0  0  0  0  0  0  0  0  0  0  0  0
    4.0440   22.2519   16.0365 C   0  0  0  0  0  0  0  0  0  0  0  0
    1.9641   21.2709   17.0286 C   0  0  0  0  0  0  0  0  0  0  0  0
    3.2072   20.9864   16.1858 C   0  0  0  0  0  0  0  0  0  0  0  0
    9.5691   24.0339   19.5500 O   0  0  0  0  0  0  0  0  0  0  0  0
    3.7305   22.1477   18.4457 C   0  0  2  0  0  0  0  0  0  0  0  0
    9.9829   22.5679   24.0151 C   0  0  0  0  0  0  0  0  0  0  0  0
    7.5674   21.2560   22.4909 C   0  0  0  0  0  0  0  0  0  0  0  0
   12.1206   23.3184   23.2681 C   0  0  0  0  0  0  0  0  0  0  0  0
    2.3275   22.4347   17.9303 C   0  0  0  0  0  0  0  0  0  0  0  0
    3.9536   22.7224   19.7434 N   0  0  2  0  0  4  0  0  0  0  0  0
   11.3190   22.7940   24.2430 C   0  0  0  0  0  0  0  0  0  0  0  0
   13.6090   24.2191   21.1036 O   0  0  0  0  0  0  0  0  0  0  0  0
   11.7987   24.6869   19.8175 N   0  0  0  0  0  0  0  0  0  0  0  0
  1  2  1  0
  8  1  1  0
  1 17  2  0
  4  2  2  0
  2  5  1  0
  3  4  1  0
  8  3  1  0
  3 20  1  6
  4 19  1  0
  5 13  1  0
  5 21  2  0
  7  6  1  0
  6  8  1  1
  9  6  1  0
 10  7  1  0
 11  9  1  0
 23 10  1  6
 23 11  1  0
 12 14  1  0
 18 12  1  6
 13 25  2  0
 13 26  1  0
 14 16  1  0
 15 16  1  0
 22 15  1  0
 18 22  1  0
 18 23  1  0
 19 24  2  0
 21 24  1  0
M  CHG  1  23   1
M  END
$$$$
