
     RDKit          3D

 26 29  0  0  0  0  0  0  0  0999 V2000
    8.9895   23.4651   20.7181 C   0  0  0  0  0  0  0  0  0  0  0  0
    9.9569   23.1272   21.7339 C   0  0  0  0  0  0  0  0  0  0  0  0
    7.8013   22.4458   22.4004 C   0  0  1  0  0  0  0  0  0  0  0  0
    9.2470   22.5168   22.7416 C   0  0  0  0  0  0  0  0  0  0  0  0
   11.3194   23.2684   21.9039 C   0  0  0  0  0  0  0  0  0  0  0  0
    6.4409   23.2010   20.3993 C   0  0  1  0  0  0  0  0  0  0  0  0
    5.2152   23.1798   21.2745 C   0  0  0  0  0  0  0  0  0  0  0  0
    7.6637   23.0575   21.1043 N   0  0  0  0  0  0  0  0  0  0  0  0
    6.3205   22.0479   19.4265 C   0  0  0  0  0  0  0  0  0  0  0  0
    4.0294   23.3611   20.3238 C   0  0  0  0  0  0  0  0  0  0  0  0
    4.9943   21.3717   19.5405 C   0  0  0  0  0  0  0  0  0  0  0  0
    3.7332   24.1319   17.8668 C   0  0  0  0  0  0  0  0  0  0  0  0
   12.1178   23.8990   20.8851 C   0  0  0  0  0  0  0  0  0  0  0  0
    3.0791   24.4163   16.5068 C   0  0  0  0  0  0  0  0  0  0  0  0
    2.3935   22.0423   16.0984 C   0  0  0  0  0  0  0  0  0  0  0  0
    3.2372   23.2102   15.5878 C   0  0  0  0  0  0  0  0  0  0  0  0
    9.2058   24.0290   19.6391 O   0  0  0  0  0  0  0  0  0  0  0  0
    3.6384   22.6578   18.0905 C   0  0  2  0  0  0  0  0  0  0  0  0
    9.8631   22.0625   23.8768 C   0  0  0  0  0  0  0  0  0  0  0  0
    7.2905   21.0186   22.4035 C   0  0  0  0  0  0  0  0  0  0  0  0
   11.9753   22.8110   23.0586 C   0  0  0  0  0  0  0  0  0  0  0  0
    2.2595   22.2460   17.5951 C   0  0  0  0  0  0  0  0  0  0  0  0
    3.8647   22.2495   19.4492 N   0  0  2  0  0  4  0  0  0  0  0  0
   11.2207   22.2121   24.0280 C   0  0  0  0  0  0  0  0  0  0  0  0
   13.3003   23.6171   20.6928 O   0  0  0  0  0  0  0  0  0  0  0  0
   11.5334   24.8912   20.0564 N   0  0  0  0  0  0  0  0  0  0  0  0
  1  2  1  0
  8  1  1  0
  1 17  2  0
  4  2  2  0
  2  5  1  0
  3  4  1  0
  8  3  1  0
  3 20  1  6
  4 19  1  0
  5 13  1  0
  5 21  2  0
  7  6  1  0
  6  8  1  1
  9  6  1  0
 10  7  1  0
 11  9  1  0
 23 10  1  1
 23 11  1  0
 12 14  1  0
 18 12  1  1
 13 25  2  0
 13 26  1  0
 14 16  1  0
 15 16  1  0
 22 15  1  0
 18 22  1  0
 18 23  1  0
 19 24  2  0
 21 24  1  0
M  CHG  1  23   1
M  END
$$$$
