
     RDKit          3D

 26 29  0  0  0  0  0  0  0  0999 V2000
    8.9014   23.4443   20.6995 C   0  0  0  0  0  0  0  0  0  0  0  0
    9.7702   22.9673   21.7481 C   0  0  0  0  0  0  0  0  0  0  0  0
    7.5255   22.4542   22.2512 C   0  0  1  0  0  0  0  0  0  0  0  0
    8.9479   22.3743   22.6777 C   0  0  0  0  0  0  0  0  0  0  0  0
   11.1268   22.9736   22.0032 C   0  0  0  0  0  0  0  0  0  0  0  0
    6.3640   23.4327   20.2216 C   0  0  1  0  0  0  0  0  0  0  0  0
    5.3573   24.3008   20.9299 C   0  0  0  0  0  0  0  0  0  0  0  0
    7.5232   23.1414   20.9860 N   0  0  0  0  0  0  0  0  0  0  0  0
    5.6780   22.1251   19.8900 C   0  0  0  0  0  0  0  0  0  0  0  0
    4.2124   24.4976   19.9332 C   0  0  0  0  0  0  0  0  0  0  0  0
    4.2235   22.1699   20.2236 C   0  0  0  0  0  0  0  0  0  0  0  0
    2.5979   24.2429   17.5915 C   0  0  0  0  0  0  0  0  0  0  0  0
   12.0395   23.5792   21.0687 C   0  0  0  0  0  0  0  0  0  0  0  0
    2.0686   23.7208   16.2479 C   0  0  0  0  0  0  0  0  0  0  0  0
    2.8130   21.3598   16.6273 C   0  0  0  0  0  0  0  0  0  0  0  0
    2.9590   22.5937   15.7371 C   0  0  0  0  0  0  0  0  0  0  0  0
    9.2333   24.0402   19.6682 O   0  0  0  0  0  0  0  0  0  0  0  0
    3.2775   23.0940   18.2625 C   0  0  2  0  0  0  0  0  0  0  0  0
    9.4498   21.8077   23.8186 C   0  0  0  0  0  0  0  0  0  0  0  0
    6.8907   21.0818   22.1445 C   0  0  0  0  0  0  0  0  0  0  0  0
   11.6667   22.3994   23.1657 C   0  0  0  0  0  0  0  0  0  0  0  0
    2.4057   21.8758   17.9939 C   0  0  0  0  0  0  0  0  0  0  0  0
    3.5154   23.2848   19.6665 N   0  0  2  0  0  4  0  0  0  0  0  0
   10.8034   21.8237   24.0551 C   0  0  0  0  0  0  0  0  0  0  0  0
   13.2514   23.6526   21.2703 O   0  0  0  0  0  0  0  0  0  0  0  0
   11.5389   24.1206   19.8567 N   0  0  0  0  0  0  0  0  0  0  0  0
  1  2  1  0
  8  1  1  0
  1 17  2  0
  4  2  2  0
  2  5  1  0
  3  4  1  0
  8  3  1  0
  3 20  1  6
  4 19  1  0
  5 13  1  0
  5 21  2  0
  7  6  1  0
  6  8  1  1
  9  6  1  0
 10  7  1  0
 11  9  1  0
 23 10  1  6
 23 11  1  0
 12 14  1  0
 18 12  1  1
 13 25  2  0
 13 26  1  0
 14 16  1  0
 15 16  1  0
 22 15  1  0
 18 22  1  0
 18 23  1  0
 19 24  2  0
 21 24  1  0
M  CHG  1  23   1
M  END
$$$$
