
     RDKit          3D

 26 29  0  0  0  0  0  0  0  0999 V2000
    9.1739   23.5217   20.8964 C   0  0  0  0  0  0  0  0  0  0  0  0
   10.1011   23.0974   21.9173 C   0  0  0  0  0  0  0  0  0  0  0  0
    7.9003   22.5019   22.5148 C   0  0  1  0  0  0  0  0  0  0  0  0
    9.3401   22.4866   22.8867 C   0  0  0  0  0  0  0  0  0  0  0  0
   11.4651   23.1627   22.1192 C   0  0  0  0  0  0  0  0  0  0  0  0
    6.6227   23.3995   20.5179 C   0  0  1  0  0  0  0  0  0  0  0  0
    5.4237   23.6875   21.3829 C   0  0  0  0  0  0  0  0  0  0  0  0
    7.8214   23.1678   21.2407 N   0  0  0  0  0  0  0  0  0  0  0  0
    6.3104   22.1562   19.7135 C   0  0  0  0  0  0  0  0  0  0  0  0
    4.2631   23.9167   20.4117 C   0  0  0  0  0  0  0  0  0  0  0  0
    4.8987   21.7141   19.9149 C   0  0  0  0  0  0  0  0  0  0  0  0
    3.8537   24.4181   17.9027 C   0  0  0  0  0  0  0  0  0  0  0  0
   12.3157   23.7896   21.1412 C   0  0  0  0  0  0  0  0  0  0  0  0
    3.2392   24.5480   16.5013 C   0  0  0  0  0  0  0  0  0  0  0  0
    2.5273   22.1512   16.3567 C   0  0  0  0  0  0  0  0  0  0  0  0
    3.4019   23.2400   15.7354 C   0  0  0  0  0  0  0  0  0  0  0  0
    9.4413   24.1138   19.8444 O   0  0  0  0  0  0  0  0  0  0  0  0
    3.7302   22.9821   18.2957 C   0  0  2  0  0  0  0  0  0  0  0  0
    9.9082   21.9594   24.0154 C   0  0  0  0  0  0  0  0  0  0  0  0
    7.3189   21.1034   22.4530 C   0  0  0  0  0  0  0  0  0  0  0  0
   12.0723   22.6298   23.2681 C   0  0  0  0  0  0  0  0  0  0  0  0
    2.3581   22.5319   17.8148 C   0  0  0  0  0  0  0  0  0  0  0  0
    3.9151   22.7342   19.6987 N   0  0  2  0  0  4  0  0  0  0  0  0
   11.2680   22.0341   24.1988 C   0  0  0  0  0  0  0  0  0  0  0  0
   13.5322   23.9038   21.2886 O   0  0  0  0  0  0  0  0  0  0  0  0
   11.7449   24.3044   19.9488 N   0  0  0  0  0  0  0  0  0  0  0  0
  1  2  1  0
  8  1  1  0
  1 17  2  0
  4  2  2  0
  2  5  1  0
  3  4  1  0
  8  3  1  0
  3 20  1  6
  4 19  1  0
  5 13  1  0
  5 21  2  0
  7  6  1  0
  6  8  1  1
  9  6  1  0
 10  7  1  0
 11  9  1  0
 23 10  1  1
 23 11  1  0
 12 14  1  0
 18 12  1  1
 13 25  2  0
 13 26  1  0
 14 16  1  0
 15 16  1  0
 22 15  1  0
 18 22  1  0
 18 23  1  0
 19 24  2  0
 21 24  1  0
M  CHG  1  23   1
M  END
$$$$
