
     RDKit          3D

 26 29  0  0  0  0  0  0  0  0999 V2000
    9.1287   23.7305   20.5162 C   0  0  0  0  0  0  0  0  0  0  0  0
   10.0993   23.3440   21.5114 C   0  0  0  0  0  0  0  0  0  0  0  0
    7.9343   22.7079   22.1921 C   0  0  1  0  0  0  0  0  0  0  0  0
    9.3857   22.7316   22.5153 C   0  0  0  0  0  0  0  0  0  0  0  0
   11.4673   23.4439   21.6661 C   0  0  0  0  0  0  0  0  0  0  0  0
    6.5698   23.5438   20.2261 C   0  0  1  0  0  0  0  0  0  0  0  0
    5.4519   24.0628   21.0918 C   0  0  0  0  0  0  0  0  0  0  0  0
    7.7971   23.3512   20.9114 N   0  0  0  0  0  0  0  0  0  0  0  0
    6.1267   22.2077   19.6702 C   0  0  0  0  0  0  0  0  0  0  0  0
    4.2458   24.2077   20.1608 C   0  0  0  0  0  0  0  0  0  0  0  0
    4.7065   21.9118   20.0230 C   0  0  0  0  0  0  0  0  0  0  0  0
    2.9810   24.2656   17.7624 C   0  0  0  0  0  0  0  0  0  0  0  0
   12.2697   24.0744   20.6504 C   0  0  0  0  0  0  0  0  0  0  0  0
    2.3886   23.9849   16.3737 C   0  0  0  0  0  0  0  0  0  0  0  0
    2.8362   21.5217   16.4439 C   0  0  0  0  0  0  0  0  0  0  0  0
    3.1319   22.8304   15.7114 C   0  0  0  0  0  0  0  0  0  0  0  0
    9.3467   24.3117   19.4468 O   0  0  0  0  0  0  0  0  0  0  0  0
    3.5147   22.9671   18.2735 C   0  0  2  0  0  0  0  0  0  0  0  0
   10.0035   22.2358   23.6320 C   0  0  0  0  0  0  0  0  0  0  0  0
    7.3841   21.2955   22.1714 C   0  0  0  0  0  0  0  0  0  0  0  0
   12.1250   22.9436   22.8018 C   0  0  0  0  0  0  0  0  0  0  0  0
    2.4984   21.9082   17.8708 C   0  0  0  0  0  0  0  0  0  0  0  0
    3.7770   22.9497   19.6860 N   0  0  2  0  0  4  0  0  0  0  0  0
   11.3665   22.3446   23.7682 C   0  0  0  0  0  0  0  0  0  0  0  0
   13.4826   24.2469   20.7683 O   0  0  0  0  0  0  0  0  0  0  0  0
   11.6533   24.5233   19.4541 N   0  0  0  0  0  0  0  0  0  0  0  0
  1  2  1  0
  8  1  1  0
  1 17  2  0
  4  2  2  0
  2  5  1  0
  3  4  1  0
  8  3  1  0
  3 20  1  6
  4 19  1  0
  5 13  1  0
  5 21  2  0
  7  6  1  0
  6  8  1  1
  9  6  1  0
 10  7  1  0
 11  9  1  0
 23 10  1  6
 23 11  1  0
 12 14  1  0
 18 12  1  1
 13 25  2  0
 13 26  1  0
 14 16  1  0
 15 16  1  0
 22 15  1  0
 18 22  1  0
 18 23  1  0
 19 24  2  0
 21 24  1  0
M  CHG  1  23   1
M  END
$$$$
