
     RDKit          3D

 26 29  0  0  0  0  0  0  0  0999 V2000
    9.1062   23.5271   20.6234 C   0  0  0  0  0  0  0  0  0  0  0  0
   10.0373   23.0821   21.6318 C   0  0  0  0  0  0  0  0  0  0  0  0
    7.8369   22.4903   22.2343 C   0  0  1  0  0  0  0  0  0  0  0  0
    9.2788   22.4611   22.5968 C   0  0  0  0  0  0  0  0  0  0  0  0
   11.4029   23.1365   21.8261 C   0  0  0  0  0  0  0  0  0  0  0  0
    6.5520   23.4253   20.2593 C   0  0  1  0  0  0  0  0  0  0  0  0
    5.5062   24.1661   21.0505 C   0  0  0  0  0  0  0  0  0  0  0  0
    7.7538   23.1758   20.9709 N   0  0  0  0  0  0  0  0  0  0  0  0
    5.9559   22.0926   19.8606 C   0  0  0  0  0  0  0  0  0  0  0  0
    4.3184   24.3374   20.1006 C   0  0  0  0  0  0  0  0  0  0  0  0
    4.5136   22.0037   20.2358 C   0  0  0  0  0  0  0  0  0  0  0  0
    3.7758   21.6413   17.7857 C   0  0  0  0  0  0  0  0  0  0  0  0
   12.2510   23.7732   20.8522 C   0  0  0  0  0  0  0  0  0  0  0  0
    3.8183   21.8200   16.2611 C   0  0  0  0  0  0  0  0  0  0  0  0
    3.3780   24.2847   16.3220 C   0  0  0  0  0  0  0  0  0  0  0  0
    2.8627   22.9297   15.8375 C   0  0  0  0  0  0  0  0  0  0  0  0
    9.3705   24.1335   19.5788 O   0  0  0  0  0  0  0  0  0  0  0  0
    3.4384   22.9758   18.3666 C   0  0  2  0  0  0  0  0  0  0  0  0
    9.8509   21.9137   23.7138 C   0  0  0  0  0  0  0  0  0  0  0  0
    7.2469   21.0962   22.1551 C   0  0  0  0  0  0  0  0  0  0  0  0
   12.0141   22.5828   22.9629 C   0  0  0  0  0  0  0  0  0  0  0  0
    4.2182   23.9975   17.5513 C   0  0  0  0  0  0  0  0  0  0  0  0
    3.7062   23.0941   19.7731 N   0  0  2  0  0  4  0  0  0  0  0  0
   11.2123   21.9778   23.8896 C   0  0  0  0  0  0  0  0  0  0  0  0
   13.4672   23.8906   21.0000 O   0  0  0  0  0  0  0  0  0  0  0  0
   11.6780   24.2945   19.6637 N   0  0  0  0  0  0  0  0  0  0  0  0
  1  2  1  0
  8  1  1  0
  1 17  2  0
  4  2  2  0
  2  5  1  0
  3  4  1  0
  8  3  1  0
  3 20  1  6
  4 19  1  0
  5 13  1  0
  5 21  2  0
  7  6  1  0
  6  8  1  1
  9  6  1  0
 10  7  1  0
 11  9  1  0
 23 10  1  6
 23 11  1  0
 12 14  1  0
 18 12  1  6
 13 25  2  0
 13 26  1  0
 14 16  1  0
 15 16  1  0
 22 15  1  0
 18 22  1  0
 18 23  1  0
 19 24  2  0
 21 24  1  0
M  CHG  1  23   1
M  END
$$$$
