
     RDKit          3D

 26 29  0  0  0  0  0  0  0  0999 V2000
    9.0081   23.5191   20.4762 C   0  0  0  0  0  0  0  0  0  0  0  0
   10.0005   23.0953   21.4341 C   0  0  0  0  0  0  0  0  0  0  0  0
    7.8514   22.4291   22.1361 C   0  0  1  0  0  0  0  0  0  0  0  0
    9.3094   22.4426   22.4283 C   0  0  0  0  0  0  0  0  0  0  0  0
   11.3715   23.1914   21.5628 C   0  0  0  0  0  0  0  0  0  0  0  0
    6.4437   23.3394   20.2347 C   0  0  1  0  0  0  0  0  0  0  0  0
    5.2878   23.5770   21.1707 C   0  0  0  0  0  0  0  0  0  0  0  0
    7.6858   23.1222   20.8850 N   0  0  0  0  0  0  0  0  0  0  0  0
    6.1177   22.1070   19.4191 C   0  0  0  0  0  0  0  0  0  0  0  0
    4.0700   23.7983   20.2703 C   0  0  0  0  0  0  0  0  0  0  0  0
    4.7305   21.6244   19.6868 C   0  0  0  0  0  0  0  0  0  0  0  0
    2.5922   24.1033   17.9300 C   0  0  0  0  0  0  0  0  0  0  0  0
   12.1510   23.8628   20.5556 C   0  0  0  0  0  0  0  0  0  0  0  0
    2.0811   24.0094   16.4849 C   0  0  0  0  0  0  0  0  0  0  0  0
    3.1439   21.7885   16.0258 C   0  0  0  0  0  0  0  0  0  0  0  0
    3.0899   23.2615   15.6207 C   0  0  0  0  0  0  0  0  0  0  0  0
    9.2023   24.1422   19.4261 O   0  0  0  0  0  0  0  0  0  0  0  0
    3.4436   22.8984   18.1649 C   0  0  2  0  0  0  0  0  0  0  0  0
    9.9519   21.9042   23.5110 C   0  0  0  0  0  0  0  0  0  0  0  0
    7.3022   21.0177   22.0716 C   0  0  0  0  0  0  0  0  0  0  0  0
   12.0542   22.6478   22.6633 C   0  0  0  0  0  0  0  0  0  0  0  0
    2.7289   21.7402   17.4836 C   0  0  0  0  0  0  0  0  0  0  0  0
    3.7119   22.6237   19.5493 N   0  0  2  0  0  4  0  0  0  0  0  0
   11.3175   22.0100   23.6216 C   0  0  0  0  0  0  0  0  0  0  0  0
   13.3680   24.0216   20.6479 O   0  0  0  0  0  0  0  0  0  0  0  0
   11.5059   24.3705   19.3985 N   0  0  0  0  0  0  0  0  0  0  0  0
  1  2  1  0
  8  1  1  0
  1 17  2  0
  4  2  2  0
  2  5  1  0
  3  4  1  0
  8  3  1  0
  3 20  1  6
  4 19  1  0
  5 13  1  0
  5 21  2  0
  7  6  1  0
  6  8  1  1
  9  6  1  0
 10  7  1  0
 11  9  1  0
 23 10  1  1
 23 11  1  0
 12 14  1  0
 18 12  1  1
 13 25  2  0
 13 26  1  0
 14 16  1  0
 15 16  1  0
 22 15  1  0
 18 22  1  0
 18 23  1  0
 19 24  2  0
 21 24  1  0
M  CHG  1  23   1
M  END
$$$$
