
     RDKit          3D

 74 76  0  0  0  0  0  0  0  0999 V2000
   19.3352   -1.6581   31.7296 N   0  0  0  0  0  4  0  0  0  0  0  0
   19.7610   -2.7767   32.5396 C   0  0  2  0  0  0  0  0  0  0  0  0
   19.2450   -2.5944   33.9317 C   0  0  0  0  0  0  0  0  0  0  0  0
   18.4969   -1.5647   34.1315 O   0  0  0  0  0  0  0  0  0  0  0  0
   21.2931   -2.7136   32.6460 C   0  0  0  0  0  0  0  0  0  0  0  0
   21.8943   -1.7550   31.6713 C   0  0  0  0  0  0  0  0  0  0  0  0
   21.9982   -0.0872   32.2546 S   0  0  0  0  0  0  0  0  0  0  0  0
   22.8104    1.1120   31.2095 C   0  0  0  0  0  0  0  0  0  0  0  0
   19.5115   -3.4650   34.9951 N   0  0  0  0  0  0  0  0  0  0  0  0
   18.8471   -3.1535   36.2916 C   0  0  2  0  0  0  0  0  0  0  0  0
   19.4393   -2.0723   37.0223 C   0  0  0  0  0  0  0  0  0  0  0  0
   19.6983   -0.9988   36.3632 O   0  0  0  0  0  0  0  0  0  0  0  0
   18.8761   -4.4864   37.0273 C   0  0  0  0  0  0  0  0  0  0  0  0
   18.4358   -4.4830   38.4072 C   0  0  0  0  0  0  0  0  0  0  0  0
   19.1342   -4.8802   39.5226 C   0  0  0  0  0  0  0  0  0  0  0  0
   17.2229   -3.9829   38.8764 C   0  0  0  0  0  0  0  0  0  0  0  0
   18.3815   -4.6355   40.6238 N   0  0  0  0  0  0  0  0  0  0  0  0
   17.2009   -4.0866   40.2627 C   0  0  0  0  0  0  0  0  0  0  0  0
   16.1390   -3.4906   38.1632 C   0  0  0  0  0  0  0  0  0  0  0  0
   16.0855   -3.6931   40.9628 C   0  0  0  0  0  0  0  0  0  0  0  0
   14.9965   -3.0887   38.8761 C   0  0  0  0  0  0  0  0  0  0  0  0
   15.0275   -3.2090   40.2346 C   0  0  0  0  0  0  0  0  0  0  0  0
   19.7853   -2.0604   38.4403 N   0  0  0  0  0  0  0  0  0  0  0  0
   19.6318   -0.8244   39.1335 C   0  0  2  0  0  0  0  0  0  0  0  0
   20.1461   -0.8704   40.5591 C   0  0  0  0  0  0  0  0  0  0  0  0
   21.0053   -0.0234   40.8784 O   0  0  0  0  0  0  0  0  0  0  0  0
   18.2576   -0.2695   39.1500 C   0  0  0  0  0  0  0  0  0  0  0  0
   17.9045    0.5156   40.3580 C   0  0  1  0  0  0  0  0  0  0  0  0
   17.5635    1.9672   40.0201 C   0  0  0  0  0  0  0  0  0  0  0  0
   16.7489   -0.0328   41.1651 C   0  0  0  0  0  0  0  0  0  0  0  0
   19.7503   -1.7512   41.5589 N   0  0  0  0  0  0  0  0  0  0  0  0
   20.6237   -2.1731   42.6527 C   0  0  2  0  0  0  0  0  0  0  0  0
   21.7317   -2.8819   42.0572 C   0  0  0  0  0  0  0  0  0  0  0  0
   22.5371   -3.5289   42.8412 O   0  0  0  0  0  0  0  0  0  0  0  0
   19.8797   -2.9281   43.7180 C   0  0  0  0  0  0  0  0  0  0  0  0
   20.6739   -4.0432   44.3582 C   0  0  1  0  0  0  0  0  0  0  0  0
   19.9405   -4.4883   45.6433 C   0  0  0  0  0  0  0  0  0  0  0  0
   20.6789   -5.2880   43.4880 C   0  0  0  0  0  0  0  0  0  0  0  0
   22.0045   -2.9262   40.6505 N   0  0  0  0  0  0  0  0  0  0  0  0
   23.2142   -3.5408   40.1936 C   0  0  2  0  0  0  0  0  0  0  0  0
   24.2036   -2.7522   39.4814 C   0  0  0  0  0  0  0  0  0  0  0  0
   25.3941   -3.2408   39.2828 O   0  0  0  0  0  0  0  0  0  0  0  0
   22.9649   -4.8682   39.4951 C   0  0  0  0  0  0  0  0  0  0  0  0
   24.0583   -5.5613   38.8550 C   0  0  1  0  0  0  0  0  0  0  0  0
   24.9221   -6.4831   39.6517 C   0  0  0  0  0  0  0  0  0  0  0  0
   23.6759   -6.3655   37.5867 C   0  0  0  0  0  0  0  0  0  0  0  0
   24.0584   -1.4441   38.9308 N   0  0  0  0  0  0  0  0  0  0  0  0
   25.2241   -0.5305   38.9778 C   0  0  2  0  0  0  0  0  0  0  0  0
   25.3445    0.2831   40.1482 C   0  0  0  0  0  0  0  0  0  0  0  0
   26.2543    1.1806   40.1490 O   0  0  0  0  0  0  0  0  0  0  0  0
   25.1496    0.2650   37.6799 C   0  0  0  0  0  0  0  0  0  0  0  0
   23.8252    0.8471   37.3467 C   0  0  1  0  0  0  0  0  0  0  0  0
   23.4144    1.9174   38.3506 C   0  0  0  0  0  0  0  0  0  0  0  0
   23.9963    1.5700   36.0032 C   0  0  0  0  0  0  0  0  0  0  0  0
   24.5779    0.2445   41.3448 N   0  0  0  0  0  0  0  0  0  0  0  0
   25.1238    0.7704   42.5926 C   0  0  2  0  0  0  0  0  0  0  0  0
   25.6261   -0.2471   43.5163 C   0  0  0  0  0  0  0  0  0  0  0  0
   24.7405   -0.8194   44.2391 O   0  0  0  0  0  0  0  0  0  0  0  0
   24.1471    1.7494   43.2049 C   0  0  0  0  0  0  0  0  0  0  0  0
   24.5852    2.2225   44.5307 C   0  0  0  0  0  0  0  0  0  0  0  0
   24.5161    1.4164   45.6523 C   0  0  0  0  0  0  0  0  0  0  0  0
   25.0588    3.5222   44.7148 C   0  0  0  0  0  0  0  0  0  0  0  0
   24.9015    1.9033   46.8650 C   0  0  0  0  0  0  0  0  0  0  0  0
   25.4469    4.0095   45.9323 C   0  0  0  0  0  0  0  0  0  0  0  0
   25.3732    3.1947   47.0511 C   0  0  0  0  0  0  0  0  0  0  0  0
   26.9523   -0.6563   43.6967 N   0  0  0  0  0  0  0  0  0  0  0  0
   27.2476   -1.7197   44.6527 C   0  0  2  0  0  0  0  0  0  0  0  0
   28.6621   -1.9234   44.9051 C   0  0  0  0  0  0  0  0  0  0  0  0
   29.1897   -2.9559   45.6879 O   0  0  0  0  0  1  0  0  0  0  0  0
   26.4315   -2.9600   44.4424 C   0  0  0  0  0  0  0  0  0  0  0  0
   26.7429   -4.0625   45.3924 C   0  0  1  0  0  0  0  0  0  0  0  0
   25.9221   -5.2973   45.1380 C   0  0  0  0  0  0  0  0  0  0  0  0
   28.2317   -4.3922   45.3496 C   0  0  0  0  0  0  0  0  0  0  0  0
   29.5472   -1.1432   44.4147 O   0  0  0  0  0  0  0  0  0  0  0  0
  2  1  1  6
  2  3  1  0
  2  5  1  0
  3  4  2  0
  3  9  1  0
  5  6  1  0
  6  7  1  0
  7  8  1  0
  9 10  1  0
 10 11  1  0
 10 13  1  1
 11 12  2  0
 11 23  1  0
 13 14  1  0
 14 15  2  0
 14 16  1  0
 15 17  1  0
 16 18  2  0
 16 19  1  0
 17 18  1  0
 18 20  1  0
 19 21  2  0
 20 22  2  0
 21 22  1  0
 23 24  1  0
 24 25  1  0
 24 27  1  1
 25 26  2  0
 25 31  1  0
 27 28  1  0
 28 29  1  6
 28 30  1  0
 31 32  1  0
 32 33  1  0
 32 35  1  1
 33 34  2  0
 33 39  1  0
 35 36  1  0
 36 37  1  1
 36 38  1  0
 39 40  1  0
 40 41  1  0
 40 43  1  6
 41 42  2  0
 41 47  1  0
 43 44  1  0
 44 45  1  1
 44 46  1  0
 47 48  1  0
 48 49  1  0
 48 51  1  6
 49 50  2  0
 49 55  1  0
 51 52  1  0
 52 53  1  1
 52 54  1  0
 55 56  1  0
 56 57  1  0
 56 59  1  1
 57 58  2  0
 57 66  1  0
 59 60  1  0
 60 61  2  0
 60 62  1  0
 61 63  1  0
 62 64  2  0
 63 65  2  0
 64 65  1  0
 66 67  1  0
 67 68  1  0
 67 70  1  6
 68 69  1  0
 68 74  2  0
 70 71  1  0
 71 72  1  6
 71 73  1  0
M  CHG  2   1   1  69  -1
M  END
$$$$
