
     RDKit          3D

 74 76  0  0  0  0  0  0  0  0999 V2000
   22.0796   -2.5071   31.7499 N   0  0  0  0  0  4  0  0  0  0  0  0
   22.9075   -2.6788   32.9220 C   0  0  2  0  0  0  0  0  0  0  0  0
   22.1007   -2.3565   34.1396 C   0  0  0  0  0  0  0  0  0  0  0  0
   21.2473   -1.3987   34.0204 O   0  0  0  0  0  0  0  0  0  0  0  0
   24.0203   -1.6203   32.8609 C   0  0  0  0  0  0  0  0  0  0  0  0
   24.6373   -1.3625   34.1963 C   0  0  0  0  0  0  0  0  0  0  0  0
   26.4048   -1.2696   34.1799 S   0  0  0  0  0  0  0  0  0  0  0  0
   27.1983   -0.2724   35.4313 C   0  0  0  0  0  0  0  0  0  0  0  0
   22.2094   -3.0296   35.3623 N   0  0  0  0  0  0  0  0  0  0  0  0
   20.9351   -3.3171   36.0783 C   0  0  2  0  0  0  0  0  0  0  0  0
   20.4603   -2.2483   36.9065 C   0  0  0  0  0  0  0  0  0  0  0  0
   21.3496   -1.5426   37.5108 O   0  0  0  0  0  0  0  0  0  0  0  0
   21.2445   -4.5989   36.8398 C   0  0  0  0  0  0  0  0  0  0  0  0
   20.3753   -5.7318   36.5965 C   0  0  0  0  0  0  0  0  0  0  0  0
   19.0044   -5.7844   36.6822 C   0  0  0  0  0  0  0  0  0  0  0  0
   20.7758   -6.9844   36.1362 C   0  0  0  0  0  0  0  0  0  0  0  0
   18.5858   -7.0143   36.2932 N   0  0  0  0  0  0  0  0  0  0  0  0
   19.6480   -7.7768   35.9534 C   0  0  0  0  0  0  0  0  0  0  0  0
   22.0557   -7.4727   35.9141 C   0  0  0  0  0  0  0  0  0  0  0  0
   19.7849   -9.0803   35.5391 C   0  0  0  0  0  0  0  0  0  0  0  0
   22.1990   -8.8054   35.4919 C   0  0  0  0  0  0  0  0  0  0  0  0
   21.0608   -9.5389   35.3256 C   0  0  0  0  0  0  0  0  0  0  0  0
   19.0688   -1.8756   37.1419 N   0  0  0  0  0  0  0  0  0  0  0  0
   18.8344   -0.7383   37.9686 C   0  0  2  0  0  0  0  0  0  0  0  0
   19.7656   -0.6649   39.1629 C   0  0  0  0  0  0  0  0  0  0  0  0
   20.8866   -0.1491   38.9757 O   0  0  0  0  0  0  0  0  0  0  0  0
   17.4422   -0.5771   38.4507 C   0  0  0  0  0  0  0  0  0  0  0  0
   16.8631   -1.7639   39.1264 C   0  0  1  0  0  0  0  0  0  0  0  0
   16.5717   -1.4985   40.6036 C   0  0  0  0  0  0  0  0  0  0  0  0
   15.5857   -2.2925   38.5127 C   0  0  0  0  0  0  0  0  0  0  0  0
   19.4976   -1.1001   40.4555 N   0  0  0  0  0  0  0  0  0  0  0  0
   20.2024   -0.6017   41.6354 C   0  0  2  0  0  0  0  0  0  0  0  0
   20.9217   -1.7194   42.1993 C   0  0  0  0  0  0  0  0  0  0  0  0
   21.8880   -1.4705   43.0277 O   0  0  0  0  0  0  0  0  0  0  0  0
   19.2861    0.1149   42.5868 C   0  0  0  0  0  0  0  0  0  0  0  0
   19.7656    0.1273   44.0200 C   0  0  1  0  0  0  0  0  0  0  0  0
   20.9585    1.1038   44.1264 C   0  0  0  0  0  0  0  0  0  0  0  0
   18.7201    0.7219   44.9473 C   0  0  0  0  0  0  0  0  0  0  0  0
   20.6390   -3.0949   41.9110 N   0  0  0  0  0  0  0  0  0  0  0  0
   21.7058   -3.9536   41.4933 C   0  0  2  0  0  0  0  0  0  0  0  0
   22.9794   -3.3842   41.0912 C   0  0  0  0  0  0  0  0  0  0  0  0
   23.9863   -3.4135   41.9162 O   0  0  0  0  0  0  0  0  0  0  0  0
   21.2455   -5.0171   40.5089 C   0  0  0  0  0  0  0  0  0  0  0  0
   20.1560   -5.8983   40.8583 C   0  0  1  0  0  0  0  0  0  0  0  0
   20.2893   -7.3692   40.6366 C   0  0  0  0  0  0  0  0  0  0  0  0
   19.6345   -5.7569   42.3108 C   0  0  0  0  0  0  0  0  0  0  0  0
   23.3150   -2.7620   39.8521 N   0  0  0  0  0  0  0  0  0  0  0  0
   24.7175   -2.3332   39.6403 C   0  0  2  0  0  0  0  0  0  0  0  0
   25.1584   -1.2081   40.4059 C   0  0  0  0  0  0  0  0  0  0  0  0
   26.4183   -1.0102   40.4875 O   0  0  0  0  0  0  0  0  0  0  0  0
   24.8439   -2.1404   38.1337 C   0  0  0  0  0  0  0  0  0  0  0  0
   25.0561   -0.7463   37.6700 C   0  0  1  0  0  0  0  0  0  0  0  0
   25.2872   -0.6848   36.1650 C   0  0  0  0  0  0  0  0  0  0  0  0
   23.7393    0.0000   37.9270 C   0  0  0  0  0  0  0  0  0  0  0  0
   24.3815   -0.2458   41.1070 N   0  0  0  0  0  0  0  0  0  0  0  0
   24.9771    0.5535   42.1737 C   0  0  2  0  0  0  0  0  0  0  0  0
   25.2086   -0.1712   43.4235 C   0  0  0  0  0  0  0  0  0  0  0  0
   25.8231    0.4834   44.3335 O   0  0  0  0  0  0  0  0  0  0  0  0
   24.2118    1.8487   42.3294 C   0  0  0  0  0  0  0  0  0  0  0  0
   24.7301    2.6761   43.4340 C   0  0  0  0  0  0  0  0  0  0  0  0
   24.7463    2.2219   44.7402 C   0  0  0  0  0  0  0  0  0  0  0  0
   25.1969    3.9719   43.2098 C   0  0  0  0  0  0  0  0  0  0  0  0
   25.2042    3.0307   45.7364 C   0  0  0  0  0  0  0  0  0  0  0  0
   25.6580    4.7825   44.2102 C   0  0  0  0  0  0  0  0  0  0  0  0
   25.6695    4.3191   45.5165 C   0  0  0  0  0  0  0  0  0  0  0  0
   24.8396   -1.4863   43.7286 N   0  0  0  0  0  0  0  0  0  0  0  0
   25.3666   -2.1134   44.9374 C   0  0  2  0  0  0  0  0  0  0  0  0
   26.7403   -1.7614   45.2455 C   0  0  0  0  0  0  0  0  0  0  0  0
   27.4803   -2.2977   46.3048 O   0  0  0  0  0  1  0  0  0  0  0  0
   25.0157   -3.5659   45.0622 C   0  0  0  0  0  0  0  0  0  0  0  0
   23.5925   -3.8207   45.4152 C   0  0  1  0  0  0  0  0  0  0  0  0
   23.2883   -5.2847   45.5801 C   0  0  0  0  0  0  0  0  0  0  0  0
   23.2151   -3.0509   46.6770 C   0  0  0  0  0  0  0  0  0  0  0  0
   27.3835   -0.9062   44.5471 O   0  0  0  0  0  0  0  0  0  0  0  0
  2  1  1  6
  2  3  1  0
  2  5  1  0
  3  4  2  0
  3  9  1  0
  5  6  1  0
  6  7  1  0
  7  8  1  0
  9 10  1  0
 10 11  1  0
 10 13  1  1
 11 12  2  0
 11 23  1  0
 13 14  1  0
 14 15  2  0
 14 16  1  0
 15 17  1  0
 16 18  2  0
 16 19  1  0
 17 18  1  0
 18 20  1  0
 19 21  2  0
 20 22  2  0
 21 22  1  0
 23 24  1  0
 24 25  1  0
 24 27  1  1
 25 26  2  0
 25 31  1  0
 27 28  1  0
 28 29  1  1
 28 30  1  0
 31 32  1  0
 32 33  1  0
 32 35  1  1
 33 34  2  0
 33 39  1  0
 35 36  1  0
 36 37  1  6
 36 38  1  0
 39 40  1  0
 40 41  1  0
 40 43  1  6
 41 42  2  0
 41 47  1  0
 43 44  1  0
 44 45  1  1
 44 46  1  0
 47 48  1  0
 48 49  1  0
 48 51  1  6
 49 50  2  0
 49 55  1  0
 51 52  1  0
 52 53  1  6
 52 54  1  0
 55 56  1  0
 56 57  1  0
 56 59  1  1
 57 58  2  0
 57 66  1  0
 59 60  1  0
 60 61  2  0
 60 62  1  0
 61 63  1  0
 62 64  2  0
 63 65  2  0
 64 65  1  0
 66 67  1  0
 67 68  1  0
 67 70  1  6
 68 69  1  0
 68 74  2  0
 70 71  1  0
 71 72  1  1
 71 73  1  0
M  CHG  2   1   1  69  -1
M  END
$$$$
