
     RDKit          3D

 74 76  0  0  0  0  0  0  0  0999 V2000
   28.5610   -4.0540   43.5006 N   0  0  0  0  0  4  0  0  0  0  0  0
   27.4687   -3.1124   43.4067 C   0  0  2  0  0  0  0  0  0  0  0  0
   26.1838   -3.8677   43.2812 C   0  0  0  0  0  0  0  0  0  0  0  0
   26.0866   -4.9463   43.9792 O   0  0  0  0  0  0  0  0  0  0  0  0
   27.6353   -2.3413   42.0875 C   0  0  0  0  0  0  0  0  0  0  0  0
   28.2447   -0.9926   42.2873 C   0  0  0  0  0  0  0  0  0  0  0  0
   28.3877   -0.0283   40.8099 S   0  0  0  0  0  0  0  0  0  0  0  0
   27.3450    1.4131   40.6515 C   0  0  0  0  0  0  0  0  0  0  0  0
   25.1065   -3.4698   42.4805 N   0  0  0  0  0  0  0  0  0  0  0  0
   23.8857   -4.3218   42.5376 C   0  0  2  0  0  0  0  0  0  0  0  0
   23.2933   -4.6038   41.2636 C   0  0  0  0  0  0  0  0  0  0  0  0
   23.3581   -3.6766   40.3748 O   0  0  0  0  0  0  0  0  0  0  0  0
   22.9730   -3.5599   43.4890 C   0  0  0  0  0  0  0  0  0  0  0  0
   21.5463   -3.7255   43.3018 C   0  0  0  0  0  0  0  0  0  0  0  0
   20.8294   -3.6555   42.1310 C   0  0  0  0  0  0  0  0  0  0  0  0
   20.6288   -4.0798   44.2887 C   0  0  0  0  0  0  0  0  0  0  0  0
   19.5319   -3.9522   42.3907 N   0  0  0  0  0  0  0  0  0  0  0  0
   19.3735   -4.2157   43.7063 C   0  0  0  0  0  0  0  0  0  0  0  0
   20.8230   -4.2445   45.6529 C   0  0  0  0  0  0  0  0  0  0  0  0
   18.2846   -4.5239   44.4865 C   0  0  0  0  0  0  0  0  0  0  0  0
   19.7114   -4.5582   46.4534 C   0  0  0  0  0  0  0  0  0  0  0  0
   18.5032   -4.6824   45.8323 C   0  0  0  0  0  0  0  0  0  0  0  0
   22.6175   -5.8350   40.8661 N   0  0  0  0  0  0  0  0  0  0  0  0
   22.1291   -5.9025   39.5287 C   0  0  2  0  0  0  0  0  0  0  0  0
   20.8437   -5.1255   39.3216 C   0  0  0  0  0  0  0  0  0  0  0  0
   20.3691   -5.1138   38.1674 O   0  0  0  0  0  0  0  0  0  0  0  0
   21.9416   -7.2692   38.9871 C   0  0  0  0  0  0  0  0  0  0  0  0
   23.0392   -8.2235   39.2783 C   0  0  1  0  0  0  0  0  0  0  0  0
   22.5126   -9.5709   39.7731 C   0  0  0  0  0  0  0  0  0  0  0  0
   23.9649   -8.5111   38.1173 C   0  0  0  0  0  0  0  0  0  0  0  0
   20.1248   -4.4324   40.2886 N   0  0  0  0  0  0  0  0  0  0  0  0
   19.0224   -3.5246   39.9760 C   0  0  2  0  0  0  0  0  0  0  0  0
   19.5016   -2.6135   38.9635 C   0  0  0  0  0  0  0  0  0  0  0  0
   18.6311   -1.8945   38.3253 O   0  0  0  0  0  0  0  0  0  0  0  0
   18.4538   -2.8733   41.2052 C   0  0  0  0  0  0  0  0  0  0  0  0
   17.1078   -2.2190   40.9949 C   0  0  1  0  0  0  0  0  0  0  0  0
   16.0069   -3.2504   41.3294 C   0  0  0  0  0  0  0  0  0  0  0  0
   16.8765   -1.0979   41.9931 C   0  0  0  0  0  0  0  0  0  0  0  0
   20.8813   -2.4417   38.6141 N   0  0  0  0  0  0  0  0  0  0  0  0
   21.3302   -1.1624   38.1538 C   0  0  2  0  0  0  0  0  0  0  0  0
   22.6952   -0.9981   37.6872 C   0  0  0  0  0  0  0  0  0  0  0  0
   23.3878    0.0341   38.0750 O   0  0  0  0  0  0  0  0  0  0  0  0
   20.9317   -0.0337   39.0914 C   0  0  0  0  0  0  0  0  0  0  0  0
   19.9168    0.9119   38.6894 C   0  0  1  0  0  0  0  0  0  0  0  0
   19.4276    1.9351   39.6610 C   0  0  0  0  0  0  0  0  0  0  0  0
   20.2309    1.7048   37.3955 C   0  0  0  0  0  0  0  0  0  0  0  0
   23.4381   -1.8504   36.8171 N   0  0  0  0  0  0  0  0  0  0  0  0
   23.1535   -1.7883   35.3642 C   0  0  2  0  0  0  0  0  0  0  0  0
   21.7757   -1.8559   34.9852 C   0  0  0  0  0  0  0  0  0  0  0  0
   21.3858   -1.0813   34.0465 O   0  0  0  0  0  0  0  0  0  0  0  0
   24.0156   -2.8849   34.7501 C   0  0  0  0  0  0  0  0  0  0  0  0
   23.6033   -4.2803   35.0440 C   0  0  1  0  0  0  0  0  0  0  0  0
   24.3721   -5.2834   34.1926 C   0  0  0  0  0  0  0  0  0  0  0  0
   24.0144   -4.5556   36.4974 C   0  0  0  0  0  0  0  0  0  0  0  0
   20.7454   -2.6837   35.5091 N   0  0  0  0  0  0  0  0  0  0  0  0
   19.4137   -2.6783   34.9108 C   0  0  2  0  0  0  0  0  0  0  0  0
   18.8272   -1.3490   34.7377 C   0  0  0  0  0  0  0  0  0  0  0  0
   17.6752   -1.3236   34.1841 O   0  0  0  0  0  0  0  0  0  0  0  0
   18.5263   -3.6690   35.6309 C   0  0  0  0  0  0  0  0  0  0  0  0
   19.1688   -4.9868   35.7857 C   0  0  0  0  0  0  0  0  0  0  0  0
   18.7382   -6.0956   35.0801 C   0  0  0  0  0  0  0  0  0  0  0  0
   20.2220   -5.1775   36.6810 C   0  0  0  0  0  0  0  0  0  0  0  0
   19.3389   -7.3027   35.2764 C   0  0  0  0  0  0  0  0  0  0  0  0
   20.8255   -6.3891   36.8762 C   0  0  0  0  0  0  0  0  0  0  0  0
   20.3865   -7.4952   36.1654 C   0  0  0  0  0  0  0  0  0  0  0  0
   19.3816   -0.1171   35.1033 N   0  0  0  0  0  0  0  0  0  0  0  0
   18.6496    1.1112   34.8076 C   0  0  2  0  0  0  0  0  0  0  0  0
   19.1569    1.8518   33.6673 C   0  0  0  0  0  0  0  0  0  0  0  0
   19.0727    3.2404   33.5196 O   0  0  0  0  0  1  0  0  0  0  0  0
   18.3205    1.9221   36.0252 C   0  0  0  0  0  0  0  0  0  0  0  0
   18.9566    1.4277   37.2766 C   0  0  1  0  0  0  0  0  0  0  0  0
   20.4550    1.5591   37.2574 C   0  0  0  0  0  0  0  0  0  0  0  0
   18.3723    2.1492   38.4871 C   0  0  0  0  0  0  0  0  0  0  0  0
   19.7295    1.2621   32.6890 O   0  0  0  0  0  0  0  0  0  0  0  0
  2  1  1  6
  2  3  1  0
  2  5  1  0
  3  4  2  0
  3  9  1  0
  5  6  1  0
  6  7  1  0
  7  8  1  0
  9 10  1  0
 10 11  1  0
 10 13  1  1
 11 12  2  0
 11 23  1  0
 13 14  1  0
 14 15  2  0
 14 16  1  0
 15 17  1  0
 16 18  2  0
 16 19  1  0
 17 18  1  0
 18 20  1  0
 19 21  2  0
 20 22  2  0
 21 22  1  0
 23 24  1  0
 24 25  1  0
 24 27  1  1
 25 26  2  0
 25 31  1  0
 27 28  1  0
 28 29  1  6
 28 30  1  0
 31 32  1  0
 32 33  1  0
 32 35  1  1
 33 34  2  0
 33 39  1  0
 35 36  1  0
 36 37  1  1
 36 38  1  0
 39 40  1  0
 40 41  1  0
 40 43  1  1
 41 42  2  0
 41 47  1  0
 43 44  1  0
 44 45  1  1
 44 46  1  0
 47 48  1  0
 48 49  1  0
 48 51  1  6
 49 50  2  0
 49 55  1  0
 51 52  1  0
 52 53  1  6
 52 54  1  0
 55 56  1  0
 56 57  1  0
 56 59  1  1
 57 58  2  0
 57 66  1  0
 59 60  1  0
 60 61  2  0
 60 62  1  0
 61 63  1  0
 62 64  2  0
 63 65  2  0
 64 65  1  0
 66 67  1  0
 67 68  1  0
 67 70  1  1
 68 69  1  0
 68 74  2  0
 70 71  1  0
 71 72  1  6
 71 73  1  0
M  CHG  2   1   1  69  -1
M  END
$$$$
