
     RDKit          3D

 74 76  0  0  0  0  0  0  0  0999 V2000
   23.4050    0.2972   34.1152 N   0  0  0  0  0  4  0  0  0  0  0  0
   22.0314   -0.0973   33.9000 C   0  0  2  0  0  0  0  0  0  0  0  0
   21.1675    0.5669   34.9246 C   0  0  0  0  0  0  0  0  0  0  0  0
   21.7248    0.8285   36.0564 O   0  0  0  0  0  0  0  0  0  0  0  0
   21.9344   -1.6055   34.1800 C   0  0  0  0  0  0  0  0  0  0  0  0
   20.5222   -2.0899   34.2165 C   0  0  0  0  0  0  0  0  0  0  0  0
   19.8019   -2.3654   32.6233 S   0  0  0  0  0  0  0  0  0  0  0  0
   18.0506   -2.7086   32.5488 C   0  0  0  0  0  0  0  0  0  0  0  0
   19.8289    0.9225   34.7211 N   0  0  0  0  0  0  0  0  0  0  0  0
   19.2824    1.9884   35.6069 C   0  0  2  0  0  0  0  0  0  0  0  0
   18.8878    1.5394   36.9093 C   0  0  0  0  0  0  0  0  0  0  0  0
   17.6424    1.6517   37.2098 O   0  0  0  0  0  0  0  0  0  0  0  0
   18.1438    2.5758   34.7840 C   0  0  0  0  0  0  0  0  0  0  0  0
   17.3908    3.6574   35.3851 C   0  0  0  0  0  0  0  0  0  0  0  0
   17.7222    4.4156   36.4827 C   0  0  0  0  0  0  0  0  0  0  0  0
   16.2029    4.1963   34.8954 C   0  0  0  0  0  0  0  0  0  0  0  0
   16.7786    5.3738   36.6572 N   0  0  0  0  0  0  0  0  0  0  0  0
   15.8300    5.2664   35.7011 C   0  0  0  0  0  0  0  0  0  0  0  0
   15.4221    3.7796   33.8264 C   0  0  0  0  0  0  0  0  0  0  0  0
   14.6616    5.9436   35.4454 C   0  0  0  0  0  0  0  0  0  0  0  0
   14.2261    4.4691   33.5633 C   0  0  0  0  0  0  0  0  0  0  0  0
   13.9078    5.5126   34.3823 C   0  0  0  0  0  0  0  0  0  0  0  0
   19.7528    0.9694   37.9377 N   0  0  0  0  0  0  0  0  0  0  0  0
   19.2174   -0.0993   38.7142 C   0  0  2  0  0  0  0  0  0  0  0  0
   20.1615   -1.2791   38.8390 C   0  0  0  0  0  0  0  0  0  0  0  0
   19.8349   -2.1837   39.6345 O   0  0  0  0  0  0  0  0  0  0  0  0
   17.8941   -0.6037   38.2773 C   0  0  0  0  0  0  0  0  0  0  0  0
   16.8514   -0.6463   39.3314 C   0  0  1  0  0  0  0  0  0  0  0  0
   15.7359   -1.6366   38.9961 C   0  0  0  0  0  0  0  0  0  0  0  0
   17.3512   -0.9967   40.7152 C   0  0  0  0  0  0  0  0  0  0  0  0
   21.3521   -1.4694   38.1474 N   0  0  0  0  0  0  0  0  0  0  0  0
   22.5354   -2.0932   38.7375 C   0  0  2  0  0  0  0  0  0  0  0  0
   22.7286   -1.4872   40.0337 C   0  0  0  0  0  0  0  0  0  0  0  0
   23.8721   -0.9291   40.2844 O   0  0  0  0  0  0  0  0  0  0  0  0
   23.7257   -2.0381   37.8218 C   0  0  0  0  0  0  0  0  0  0  0  0
   24.3914   -0.6832   37.7496 C   0  0  1  0  0  0  0  0  0  0  0  0
   25.1612   -0.4474   39.0686 C   0  0  0  0  0  0  0  0  0  0  0  0
   25.4723   -0.6548   36.6831 C   0  0  0  0  0  0  0  0  0  0  0  0
   21.7379   -1.4536   41.0693 N   0  0  0  0  0  0  0  0  0  0  0  0
   22.1575   -1.3261   42.4322 C   0  0  2  0  0  0  0  0  0  0  0  0
   22.7742   -2.4529   43.1091 C   0  0  0  0  0  0  0  0  0  0  0  0
   23.8144   -2.2571   43.8673 O   0  0  0  0  0  0  0  0  0  0  0  0
   21.1005   -0.6721   43.3080 C   0  0  0  0  0  0  0  0  0  0  0  0
   21.2420    0.7121   43.6949 C   0  0  1  0  0  0  0  0  0  0  0  0
   22.1216    1.6200   42.8996 C   0  0  0  0  0  0  0  0  0  0  0  0
   19.9113    1.4883   43.8630 C   0  0  0  0  0  0  0  0  0  0  0  0
   22.3869   -3.8253   43.0681 N   0  0  0  0  0  0  0  0  0  0  0  0
   23.2078   -4.8077   43.8143 C   0  0  2  0  0  0  0  0  0  0  0  0
   24.5673   -4.9482   43.3917 C   0  0  0  0  0  0  0  0  0  0  0  0
   25.2065   -5.9765   43.8006 O   0  0  0  0  0  0  0  0  0  0  0  0
   22.4093   -6.1048   43.7608 C   0  0  0  0  0  0  0  0  0  0  0  0
   22.2511   -6.8270   45.0482 C   0  0  1  0  0  0  0  0  0  0  0  0
   21.4574   -8.1161   44.8742 C   0  0  0  0  0  0  0  0  0  0  0  0
   23.6611   -7.2530   45.4811 C   0  0  0  0  0  0  0  0  0  0  0  0
   25.3354   -4.0918   42.5565 N   0  0  0  0  0  0  0  0  0  0  0  0
   26.7433   -4.3774   42.2962 C   0  0  2  0  0  0  0  0  0  0  0  0
   27.6760   -3.7652   43.2429 C   0  0  0  0  0  0  0  0  0  0  0  0
   28.9147   -3.9828   43.0138 O   0  0  0  0  0  0  0  0  0  0  0  0
   27.0579   -4.1111   40.8410 C   0  0  0  0  0  0  0  0  0  0  0  0
   26.4250   -5.0935   39.9423 C   0  0  0  0  0  0  0  0  0  0  0  0
   27.1341   -6.1510   39.4025 C   0  0  0  0  0  0  0  0  0  0  0  0
   25.0851   -4.9760   39.5708 C   0  0  0  0  0  0  0  0  0  0  0  0
   26.5192   -7.0185   38.5506 C   0  0  0  0  0  0  0  0  0  0  0  0
   24.4682   -5.8482   38.7169 C   0  0  0  0  0  0  0  0  0  0  0  0
   25.1871   -6.9046   38.1799 C   0  0  0  0  0  0  0  0  0  0  0  0
   27.3666   -2.9803   44.3595 N   0  0  0  0  0  0  0  0  0  0  0  0
   28.1767   -1.8006   44.6495 C   0  0  2  0  0  0  0  0  0  0  0  0
   27.5358   -0.8323   45.5200 C   0  0  0  0  0  0  0  0  0  0  0  0
   28.1919    0.2364   46.1401 O   0  0  0  0  0  1  0  0  0  0  0  0
   28.8765   -1.2421   43.4467 C   0  0  0  0  0  0  0  0  0  0  0  0
   29.6891   -0.0265   43.7244 C   0  0  1  0  0  0  0  0  0  0  0  0
   31.1106   -0.3505   44.0950 C   0  0  0  0  0  0  0  0  0  0  0  0
   29.6508    0.9193   42.5281 C   0  0  0  0  0  0  0  0  0  0  0  0
   26.2884   -0.8983   45.7886 O   0  0  0  0  0  0  0  0  0  0  0  0
  2  1  1  1
  2  3  1  0
  2  5  1  0
  3  4  2  0
  3  9  1  0
  5  6  1  0
  6  7  1  0
  7  8  1  0
  9 10  1  0
 10 11  1  0
 10 13  1  6
 11 12  2  0
 11 23  1  0
 13 14  1  0
 14 15  2  0
 14 16  1  0
 15 17  1  0
 16 18  2  0
 16 19  1  0
 17 18  1  0
 18 20  1  0
 19 21  2  0
 20 22  2  0
 21 22  1  0
 23 24  1  0
 24 25  1  0
 24 27  1  6
 25 26  2  0
 25 31  1  0
 27 28  1  0
 28 29  1  6
 28 30  1  0
 31 32  1  0
 32 33  1  0
 32 35  1  6
 33 34  2  0
 33 39  1  0
 35 36  1  0
 36 37  1  1
 36 38  1  0
 39 40  1  0
 40 41  1  0
 40 43  1  1
 41 42  2  0
 41 47  1  0
 43 44  1  0
 44 45  1  6
 44 46  1  0
 47 48  1  0
 48 49  1  0
 48 51  1  6
 49 50  2  0
 49 55  1  0
 51 52  1  0
 52 53  1  6
 52 54  1  0
 55 56  1  0
 56 57  1  0
 56 59  1  6
 57 58  2  0
 57 66  1  0
 59 60  1  0
 60 61  2  0
 60 62  1  0
 61 63  1  0
 62 64  2  0
 63 65  2  0
 64 65  1  0
 66 67  1  0
 67 68  1  0
 67 70  1  6
 68 69  1  0
 68 74  2  0
 70 71  1  0
 71 72  1  6
 71 73  1  0
M  CHG  2   1   1  69  -1
M  END
$$$$
