
     RDKit          3D

 74 76  0  0  0  0  0  0  0  0999 V2000
   27.9757   -6.8309   44.2293 N   0  0  0  0  0  4  0  0  0  0  0  0
   27.5295   -5.8292   43.2879 C   0  0  2  0  0  0  0  0  0  0  0  0
   26.0574   -5.9846   43.0726 C   0  0  0  0  0  0  0  0  0  0  0  0
   25.5254   -7.0641   43.5322 O   0  0  0  0  0  0  0  0  0  0  0  0
   28.1889   -6.1403   41.9348 C   0  0  0  0  0  0  0  0  0  0  0  0
   27.7591   -5.1970   40.8597 C   0  0  0  0  0  0  0  0  0  0  0  0
   27.4376   -5.9652   39.2979 S   0  0  0  0  0  0  0  0  0  0  0  0
   27.0338   -4.9075   37.9165 C   0  0  0  0  0  0  0  0  0  0  0  0
   25.2475   -5.0407   42.4300 N   0  0  0  0  0  0  0  0  0  0  0  0
   23.8603   -4.8900   42.9520 C   0  0  2  0  0  0  0  0  0  0  0  0
   22.9079   -4.4174   41.9912 C   0  0  0  0  0  0  0  0  0  0  0  0
   23.1826   -3.3103   41.3972 O   0  0  0  0  0  0  0  0  0  0  0  0
   24.0373   -3.9693   44.1518 C   0  0  0  0  0  0  0  0  0  0  0  0
   22.8411   -3.3514   44.6860 C   0  0  0  0  0  0  0  0  0  0  0  0
   21.7113   -3.9665   45.1706 C   0  0  0  0  0  0  0  0  0  0  0  0
   22.6481   -1.9867   44.8900 C   0  0  0  0  0  0  0  0  0  0  0  0
   20.8651   -3.0202   45.6479 N   0  0  0  0  0  0  0  0  0  0  0  0
   21.4085   -1.7935   45.4892 C   0  0  0  0  0  0  0  0  0  0  0  0
   23.4673   -0.9207   44.5454 C   0  0  0  0  0  0  0  0  0  0  0  0
   20.9670   -0.5198   45.7578 C   0  0  0  0  0  0  0  0  0  0  0  0
   23.0181    0.3828   44.8174 C   0  0  0  0  0  0  0  0  0  0  0  0
   21.7958    0.5170   45.4083 C   0  0  0  0  0  0  0  0  0  0  0  0
   21.6517   -5.0589   41.6157 N   0  0  0  0  0  0  0  0  0  0  0  0
   20.9767   -4.5404   40.4723 C   0  0  2  0  0  0  0  0  0  0  0  0
   20.7943   -3.0359   40.5167 C   0  0  0  0  0  0  0  0  0  0  0  0
   20.7475   -2.4389   39.4216 O   0  0  0  0  0  0  0  0  0  0  0  0
   19.6654   -5.1617   40.1705 C   0  0  0  0  0  0  0  0  0  0  0  0
   19.7156   -6.5910   39.7772 C   0  0  1  0  0  0  0  0  0  0  0  0
   18.3227   -7.1632   39.5128 C   0  0  0  0  0  0  0  0  0  0  0  0
   20.5553   -6.8918   38.5557 C   0  0  0  0  0  0  0  0  0  0  0  0
   20.6581   -2.2470   41.6529 N   0  0  0  0  0  0  0  0  0  0  0  0
   20.4020   -0.8083   41.6085 C   0  0  2  0  0  0  0  0  0  0  0  0
   21.6818   -0.1575   41.4562 C   0  0  0  0  0  0  0  0  0  0  0  0
   21.6965    1.0851   41.0851 O   0  0  0  0  0  0  0  0  0  0  0  0
   19.5805   -0.3389   42.7760 C   0  0  0  0  0  0  0  0  0  0  0  0
   18.0896   -0.5051   42.5930 C   0  0  1  0  0  0  0  0  0  0  0  0
   17.3936   -0.1668   43.9305 C   0  0  0  0  0  0  0  0  0  0  0  0
   17.5346    0.5206   41.6201 C   0  0  0  0  0  0  0  0  0  0  0  0
   22.9466   -0.7895   41.6926 N   0  0  0  0  0  0  0  0  0  0  0  0
   24.1401   -0.1647   41.2075 C   0  0  2  0  0  0  0  0  0  0  0  0
   24.4840   -0.2538   39.7997 C   0  0  0  0  0  0  0  0  0  0  0  0
   25.7073   -0.0197   39.4202 O   0  0  0  0  0  0  0  0  0  0  0  0
   25.3470   -0.4541   42.0860 C   0  0  0  0  0  0  0  0  0  0  0  0
   26.6396    0.0853   41.7339 C   0  0  1  0  0  0  0  0  0  0  0  0
   27.0595    1.4161   42.2661 C   0  0  0  0  0  0  0  0  0  0  0  0
   27.8417   -0.8538   42.0070 C   0  0  0  0  0  0  0  0  0  0  0  0
   23.6321   -0.5814   38.7032 N   0  0  0  0  0  0  0  0  0  0  0  0
   24.2158   -0.5924   37.3412 C   0  0  2  0  0  0  0  0  0  0  0  0
   23.2896   -0.6948   36.2559 C   0  0  0  0  0  0  0  0  0  0  0  0
   23.7226   -1.1851   35.1580 O   0  0  0  0  0  0  0  0  0  0  0  0
   25.2554   -1.7065   37.3707 C   0  0  0  0  0  0  0  0  0  0  0  0
   24.7253   -3.0927   37.4025 C   0  0  1  0  0  0  0  0  0  0  0  0
   25.1689   -3.8910   36.1826 C   0  0  0  0  0  0  0  0  0  0  0  0
   25.3741   -3.7761   38.6145 C   0  0  0  0  0  0  0  0  0  0  0  0
   21.9172   -0.3258   36.2157 N   0  0  0  0  0  0  0  0  0  0  0  0
   21.2241   -0.1855   34.9385 C   0  0  2  0  0  0  0  0  0  0  0  0
   19.8003    0.1334   35.0479 C   0  0  0  0  0  0  0  0  0  0  0  0
   19.1410    0.0906   33.9535 O   0  0  0  0  0  0  0  0  0  0  0  0
   21.5374   -1.3720   34.0544 C   0  0  0  0  0  0  0  0  0  0  0  0
   20.3314   -1.9258   33.4122 C   0  0  0  0  0  0  0  0  0  0  0  0
   19.6306   -1.2239   32.4485 C   0  0  0  0  0  0  0  0  0  0  0  0
   19.8260   -3.1742   33.7774 C   0  0  0  0  0  0  0  0  0  0  0  0
   18.5024   -1.7586   31.9029 C   0  0  0  0  0  0  0  0  0  0  0  0
   18.6944   -3.7108   33.2279 C   0  0  0  0  0  0  0  0  0  0  0  0
   17.9979   -2.9997   32.2634 C   0  0  0  0  0  0  0  0  0  0  0  0
   19.0893    0.4791   36.2028 N   0  0  0  0  0  0  0  0  0  0  0  0
   17.8186   -0.1831   36.4838 C   0  0  2  0  0  0  0  0  0  0  0  0
   16.7062    0.2879   35.6796 C   0  0  0  0  0  0  0  0  0  0  0  0
   15.6452   -0.5126   35.2431 O   0  0  0  0  0  1  0  0  0  0  0  0
   17.5442   -0.3597   37.9474 C   0  0  0  0  0  0  0  0  0  0  0  0
   18.5687   -1.1649   38.6665 C   0  0  1  0  0  0  0  0  0  0  0  0
   18.5468   -0.9379   40.1534 C   0  0  0  0  0  0  0  0  0  0  0  0
   18.3941   -2.6468   38.3493 C   0  0  0  0  0  0  0  0  0  0  0  0
   16.6234    1.5058   35.3021 O   0  0  0  0  0  0  0  0  0  0  0  0
  2  1  1  1
  2  3  1  0
  2  5  1  0
  3  4  2  0
  3  9  1  0
  5  6  1  0
  6  7  1  0
  7  8  1  0
  9 10  1  0
 10 11  1  0
 10 13  1  1
 11 12  2  0
 11 23  1  0
 13 14  1  0
 14 15  2  0
 14 16  1  0
 15 17  1  0
 16 18  2  0
 16 19  1  0
 17 18  1  0
 18 20  1  0
 19 21  2  0
 20 22  2  0
 21 22  1  0
 23 24  1  0
 24 25  1  0
 24 27  1  1
 25 26  2  0
 25 31  1  0
 27 28  1  0
 28 29  1  6
 28 30  1  0
 31 32  1  0
 32 33  1  0
 32 35  1  1
 33 34  2  0
 33 39  1  0
 35 36  1  0
 36 37  1  1
 36 38  1  0
 39 40  1  0
 40 41  1  0
 40 43  1  1
 41 42  2  0
 41 47  1  0
 43 44  1  0
 44 45  1  1
 44 46  1  0
 47 48  1  0
 48 49  1  0
 48 51  1  1
 49 50  2  0
 49 55  1  0
 51 52  1  0
 52 53  1  6
 52 54  1  0
 55 56  1  0
 56 57  1  0
 56 59  1  1
 57 58  2  0
 57 66  1  0
 59 60  1  0
 60 61  2  0
 60 62  1  0
 61 63  1  0
 62 64  2  0
 63 65  2  0
 64 65  1  0
 66 67  1  0
 67 68  1  0
 67 70  1  1
 68 69  1  0
 68 74  2  0
 70 71  1  0
 71 72  1  1
 71 73  1  0
M  CHG  2   1   1  69  -1
M  END
$$$$
