
     RDKit          3D

 74 76  0  0  0  0  0  0  0  0999 V2000
   27.0402   -6.7714   46.6262 N   0  0  0  0  0  4  0  0  0  0  0  0
   27.2665   -6.5526   45.2157 C   0  0  2  0  0  0  0  0  0  0  0  0
   26.7360   -5.2053   44.8404 C   0  0  0  0  0  0  0  0  0  0  0  0
   26.4540   -4.4123   45.8158 O   0  0  0  0  0  0  0  0  0  0  0  0
   26.4109   -7.5720   44.4467 C   0  0  0  0  0  0  0  0  0  0  0  0
   26.5404   -7.4251   42.9662 C   0  0  0  0  0  0  0  0  0  0  0  0
   25.0208   -7.6074   42.0772 S   0  0  0  0  0  0  0  0  0  0  0  0
   25.1138   -8.0624   40.3525 C   0  0  0  0  0  0  0  0  0  0  0  0
   26.5486   -4.7669   43.5242 N   0  0  0  0  0  0  0  0  0  0  0  0
   26.3727   -3.3002   43.3310 C   0  0  2  0  0  0  0  0  0  0  0  0
   25.0881   -2.9133   42.8273 C   0  0  0  0  0  0  0  0  0  0  0  0
   24.5497   -3.6876   41.9529 O   0  0  0  0  0  0  0  0  0  0  0  0
   27.5329   -2.9272   42.4181 C   0  0  0  0  0  0  0  0  0  0  0  0
   27.3234   -1.8162   41.5126 C   0  0  0  0  0  0  0  0  0  0  0  0
   26.9096   -1.8546   40.2023 C   0  0  0  0  0  0  0  0  0  0  0  0
   27.4239   -0.4656   41.8400 C   0  0  0  0  0  0  0  0  0  0  0  0
   26.7650   -0.5848   39.7487 N   0  0  0  0  0  0  0  0  0  0  0  0
   27.0748    0.2928   40.7281 C   0  0  0  0  0  0  0  0  0  0  0  0
   27.8391    0.1242   43.0256 C   0  0  0  0  0  0  0  0  0  0  0  0
   27.1336    1.6648   40.7871 C   0  0  0  0  0  0  0  0  0  0  0  0
   27.9016    1.5267   43.0886 C   0  0  0  0  0  0  0  0  0  0  0  0
   27.5464    2.2235   41.9710 C   0  0  0  0  0  0  0  0  0  0  0  0
   24.3235   -1.7269   43.1991 N   0  0  0  0  0  0  0  0  0  0  0  0
   22.9659   -1.6705   42.7683 C   0  0  2  0  0  0  0  0  0  0  0  0
   22.7715   -0.8479   41.5096 C   0  0  0  0  0  0  0  0  0  0  0  0
   21.5980   -0.6778   41.1202 O   0  0  0  0  0  0  0  0  0  0  0  0
   21.9935   -1.2055   43.7855 C   0  0  0  0  0  0  0  0  0  0  0  0
   22.5263   -0.2415   44.7790 C   0  0  1  0  0  0  0  0  0  0  0  0
   23.1245    0.9979   44.1131 C   0  0  0  0  0  0  0  0  0  0  0  0
   21.5241    0.2471   45.8011 C   0  0  0  0  0  0  0  0  0  0  0  0
   23.7655   -0.2470   40.7461 N   0  0  0  0  0  0  0  0  0  0  0  0
   23.6594   -0.0430   39.3023 C   0  0  2  0  0  0  0  0  0  0  0  0
   23.2554   -1.3044   38.7276 C   0  0  0  0  0  0  0  0  0  0  0  0
   22.2023   -1.3232   37.9708 O   0  0  0  0  0  0  0  0  0  0  0  0
   24.9075    0.5558   38.7176 C   0  0  0  0  0  0  0  0  0  0  0  0
   24.8982    0.6613   37.2100 C   0  0  1  0  0  0  0  0  0  0  0  0
   23.6071    1.3939   36.7806 C   0  0  0  0  0  0  0  0  0  0  0  0
   26.0148    1.5624   36.7123 C   0  0  0  0  0  0  0  0  0  0  0  0
   23.9429   -2.5458   38.9308 N   0  0  0  0  0  0  0  0  0  0  0  0
   23.4185   -3.7389   38.3380 C   0  0  2  0  0  0  0  0  0  0  0  0
   22.0262   -4.0974   38.5408 C   0  0  0  0  0  0  0  0  0  0  0  0
   21.4215   -4.8490   37.6663 O   0  0  0  0  0  0  0  0  0  0  0  0
   24.3291   -4.9393   38.5425 C   0  0  0  0  0  0  0  0  0  0  0  0
   23.9373   -6.2344   38.0374 C   0  0  1  0  0  0  0  0  0  0  0  0
   23.6993   -7.3618   38.9875 C   0  0  0  0  0  0  0  0  0  0  0  0
   22.7020   -6.2302   37.1017 C   0  0  0  0  0  0  0  0  0  0  0  0
   21.1696   -3.7300   39.6209 N   0  0  0  0  0  0  0  0  0  0  0  0
   19.7286   -4.0590   39.5156 C   0  0  2  0  0  0  0  0  0  0  0  0
   18.8848   -3.0415   38.9687 C   0  0  0  0  0  0  0  0  0  0  0  0
   17.6325   -3.1244   39.2094 O   0  0  0  0  0  0  0  0  0  0  0  0
   19.3264   -4.5052   40.9164 C   0  0  0  0  0  0  0  0  0  0  0  0
   19.8487   -3.6843   42.0376 C   0  0  1  0  0  0  0  0  0  0  0  0
   21.2969   -4.0318   42.3601 C   0  0  0  0  0  0  0  0  0  0  0  0
   19.8624   -2.2319   41.5402 C   0  0  0  0  0  0  0  0  0  0  0  0
   19.2420   -1.9157   38.1774 N   0  0  0  0  0  0  0  0  0  0  0  0
   18.2639   -0.8705   37.8906 C   0  0  2  0  0  0  0  0  0  0  0  0
   18.6763    0.0870   36.8640 C   0  0  0  0  0  0  0  0  0  0  0  0
   18.3554    1.3044   37.0862 O   0  0  0  0  0  0  0  0  0  0  0  0
   17.7928   -0.2432   39.1837 C   0  0  0  0  0  0  0  0  0  0  0  0
   17.5322   -1.2476   40.2310 C   0  0  0  0  0  0  0  0  0  0  0  0
   16.5116   -2.1738   40.1155 C   0  0  0  0  0  0  0  0  0  0  0  0
   18.2878   -1.2828   41.4036 C   0  0  0  0  0  0  0  0  0  0  0  0
   16.2841   -3.0645   41.1211 C   0  0  0  0  0  0  0  0  0  0  0  0
   18.0597   -2.1784   42.4117 C   0  0  0  0  0  0  0  0  0  0  0  0
   17.0340   -3.1024   42.2877 C   0  0  0  0  0  0  0  0  0  0  0  0
   19.3718   -0.1787   35.6789 N   0  0  0  0  0  0  0  0  0  0  0  0
   19.0823    0.6151   34.4880 C   0  0  2  0  0  0  0  0  0  0  0  0
   19.7749    0.1749   33.2911 C   0  0  0  0  0  0  0  0  0  0  0  0
   19.2335    0.2077   32.0015 O   0  0  0  0  0  1  0  0  0  0  0  0
   19.0761    2.0935   34.7385 C   0  0  0  0  0  0  0  0  0  0  0  0
   18.9321    2.9191   33.5086 C   0  0  1  0  0  0  0  0  0  0  0  0
   17.6710    2.6126   32.7479 C   0  0  0  0  0  0  0  0  0  0  0  0
   18.9988    4.4027   33.8573 C   0  0  0  0  0  0  0  0  0  0  0  0
   20.9637   -0.2909   33.3404 O   0  0  0  0  0  0  0  0  0  0  0  0
  2  1  1  1
  2  3  1  0
  2  5  1  0
  3  4  2  0
  3  9  1  0
  5  6  1  0
  6  7  1  0
  7  8  1  0
  9 10  1  0
 10 11  1  0
 10 13  1  6
 11 12  2  0
 11 23  1  0
 13 14  1  0
 14 15  2  0
 14 16  1  0
 15 17  1  0
 16 18  2  0
 16 19  1  0
 17 18  1  0
 18 20  1  0
 19 21  2  0
 20 22  2  0
 21 22  1  0
 23 24  1  0
 24 25  1  0
 24 27  1  1
 25 26  2  0
 25 31  1  0
 27 28  1  0
 28 29  1  6
 28 30  1  0
 31 32  1  0
 32 33  1  0
 32 35  1  6
 33 34  2  0
 33 39  1  0
 35 36  1  0
 36 37  1  1
 36 38  1  0
 39 40  1  0
 40 41  1  0
 40 43  1  1
 41 42  2  0
 41 47  1  0
 43 44  1  0
 44 45  1  1
 44 46  1  0
 47 48  1  0
 48 49  1  0
 48 51  1  1
 49 50  2  0
 49 55  1  0
 51 52  1  0
 52 53  1  6
 52 54  1  0
 55 56  1  0
 56 57  1  0
 56 59  1  1
 57 58  2  0
 57 66  1  0
 59 60  1  0
 60 61  2  0
 60 62  1  0
 61 63  1  0
 62 64  2  0
 63 65  2  0
 64 65  1  0
 66 67  1  0
 67 68  1  0
 67 70  1  1
 68 69  1  0
 68 74  2  0
 70 71  1  0
 71 72  1  1
 71 73  1  0
M  CHG  2   1   1  69  -1
M  END
$$$$
