
     RDKit          3D

 74 76  0  0  0  0  0  0  0  0999 V2000
   21.0833   -5.6489   34.3398 N   0  0  0  0  0  4  0  0  0  0  0  0
   22.2188   -6.0708   35.1281 C   0  0  2  0  0  0  0  0  0  0  0  0
   22.4678   -7.5253   34.8839 C   0  0  0  0  0  0  0  0  0  0  0  0
   21.4374   -8.2967   34.9386 O   0  0  0  0  0  0  0  0  0  0  0  0
   21.8229   -5.9533   36.6086 C   0  0  0  0  0  0  0  0  0  0  0  0
   23.0028   -6.0150   37.5220 C   0  0  0  0  0  0  0  0  0  0  0  0
   22.6063   -5.8662   39.2406 S   0  0  0  0  0  0  0  0  0  0  0  0
   23.1520   -7.1660   40.3372 C   0  0  0  0  0  0  0  0  0  0  0  0
   23.7217   -8.0758   34.5930 N   0  0  0  0  0  0  0  0  0  0  0  0
   23.7339   -9.4888   34.1211 C   0  0  2  0  0  0  0  0  0  0  0  0
   23.8483  -10.4661   35.1628 C   0  0  0  0  0  0  0  0  0  0  0  0
   23.9367  -11.6962   34.7981 O   0  0  0  0  0  0  0  0  0  0  0  0
   24.8825   -9.5127   33.1217 C   0  0  0  0  0  0  0  0  0  0  0  0
   25.3329  -10.8138   32.6719 C   0  0  0  0  0  0  0  0  0  0  0  0
   25.2305  -12.0200   33.3231 C   0  0  0  0  0  0  0  0  0  0  0  0
   25.8897  -11.0999   31.4271 C   0  0  0  0  0  0  0  0  0  0  0  0
   25.7047  -12.9992   32.5135 N   0  0  0  0  0  0  0  0  0  0  0  0
   26.1196  -12.4686   31.3424 C   0  0  0  0  0  0  0  0  0  0  0  0
   26.2396  -10.2352   30.3996 C   0  0  0  0  0  0  0  0  0  0  0  0
   26.7055  -12.9977   30.2172 C   0  0  0  0  0  0  0  0  0  0  0  0
   26.8401  -10.7731   29.2485 C   0  0  0  0  0  0  0  0  0  0  0  0
   27.0413  -12.1219   29.2151 C   0  0  0  0  0  0  0  0  0  0  0  0
   23.8712  -10.2142   36.6004 N   0  0  0  0  0  0  0  0  0  0  0  0
   23.6654  -11.3346   37.4572 C   0  0  2  0  0  0  0  0  0  0  0  0
   22.2071  -11.5625   37.8038 C   0  0  0  0  0  0  0  0  0  0  0  0
   21.7805  -12.7321   37.7160 O   0  0  0  0  0  0  0  0  0  0  0  0
   24.4493  -11.3273   38.7150 C   0  0  0  0  0  0  0  0  0  0  0  0
   25.8940  -11.6278   38.5644 C   0  0  1  0  0  0  0  0  0  0  0  0
   26.7553  -10.7999   39.5185 C   0  0  0  0  0  0  0  0  0  0  0  0
   26.2734  -13.0771   38.7723 C   0  0  0  0  0  0  0  0  0  0  0  0
   21.2921  -10.6048   38.2255 N   0  0  0  0  0  0  0  0  0  0  0  0
   19.8743  -10.8865   38.4436 C   0  0  2  0  0  0  0  0  0  0  0  0
   19.3945  -11.5690   37.2651 C   0  0  0  0  0  0  0  0  0  0  0  0
   18.4582  -12.4546   37.4090 O   0  0  0  0  0  0  0  0  0  0  0  0
   19.1013   -9.6571   38.8300 C   0  0  0  0  0  0  0  0  0  0  0  0
   19.5179   -9.0512   40.1504 C   0  0  1  0  0  0  0  0  0  0  0  0
   18.6479   -9.6708   41.2671 C   0  0  0  0  0  0  0  0  0  0  0  0
   20.9342   -9.4552   40.5213 C   0  0  0  0  0  0  0  0  0  0  0  0
   19.8791  -11.3323   35.9369 N   0  0  0  0  0  0  0  0  0  0  0  0
   19.1942  -11.9257   34.8284 C   0  0  2  0  0  0  0  0  0  0  0  0
   19.4984  -13.2895   34.4343 C   0  0  0  0  0  0  0  0  0  0  0  0
   18.5943  -13.9995   33.8229 O   0  0  0  0  0  0  0  0  0  0  0  0
   19.1370  -11.0055   33.6193 C   0  0  0  0  0  0  0  0  0  0  0  0
   18.4578  -11.4349   32.4193 C   0  0  1  0  0  0  0  0  0  0  0  0
   17.9884  -10.4214   31.4278 C   0  0  0  0  0  0  0  0  0  0  0  0
   19.2115  -12.4980   31.5806 C   0  0  0  0  0  0  0  0  0  0  0  0
   20.7136  -14.0121   34.6255 N   0  0  0  0  0  0  0  0  0  0  0  0
   20.7094  -15.4712   34.3671 C   0  0  2  0  0  0  0  0  0  0  0  0
   20.0679  -16.2870   35.3517 C   0  0  0  0  0  0  0  0  0  0  0  0
   19.6029  -17.4141   34.9686 O   0  0  0  0  0  0  0  0  0  0  0  0
   22.1713  -15.8298   34.1279 C   0  0  0  0  0  0  0  0  0  0  0  0
   22.8192  -15.1822   32.9598 C   0  0  1  0  0  0  0  0  0  0  0  0
   24.2632  -15.6398   32.7942 C   0  0  0  0  0  0  0  0  0  0  0  0
   22.0707  -15.6843   31.7169 C   0  0  0  0  0  0  0  0  0  0  0  0
   19.8679  -16.0258   36.7347 N   0  0  0  0  0  0  0  0  0  0  0  0
   19.0745  -16.9370   37.5543 C   0  0  2  0  0  0  0  0  0  0  0  0
   17.7403  -17.2269   37.0284 C   0  0  0  0  0  0  0  0  0  0  0  0
   16.7686  -16.7052   37.6749 O   0  0  0  0  0  0  0  0  0  0  0  0
   19.0972  -16.4787   38.9955 C   0  0  0  0  0  0  0  0  0  0  0  0
   20.4685  -16.2728   39.4961 C   0  0  0  0  0  0  0  0  0  0  0  0
   20.7156  -15.7790   40.7641 C   0  0  0  0  0  0  0  0  0  0  0  0
   21.5790  -16.5378   38.6937 C   0  0  0  0  0  0  0  0  0  0  0  0
   21.9978  -15.5733   41.1763 C   0  0  0  0  0  0  0  0  0  0  0  0
   22.8657  -16.3326   39.1090 C   0  0  0  0  0  0  0  0  0  0  0  0
   23.1038  -15.8363   40.3811 C   0  0  0  0  0  0  0  0  0  0  0  0
   17.4132  -18.0050   35.9120 N   0  0  0  0  0  0  0  0  0  0  0  0
   16.0136  -18.3323   35.6550 C   0  0  2  0  0  0  0  0  0  0  0  0
   15.4594  -19.3358   36.5448 C   0  0  0  0  0  0  0  0  0  0  0  0
   16.0232  -20.5958   36.7721 O   0  0  0  0  0  1  0  0  0  0  0  0
   15.6921  -18.4939   34.1994 C   0  0  0  0  0  0  0  0  0  0  0  0
   14.2360  -18.4800   33.8919 C   0  0  1  0  0  0  0  0  0  0  0  0
   13.9497  -18.6784   32.4285 C   0  0  0  0  0  0  0  0  0  0  0  0
   13.5098  -19.5307   34.7260 C   0  0  0  0  0  0  0  0  0  0  0  0
   14.3810  -19.1272   37.1977 O   0  0  0  0  0  0  0  0  0  0  0  0
  2  1  1  6
  2  3  1  0
  2  5  1  0
  3  4  2  0
  3  9  1  0
  5  6  1  0
  6  7  1  0
  7  8  1  0
  9 10  1  0
 10 11  1  0
 10 13  1  6
 11 12  2  0
 11 23  1  0
 13 14  1  0
 14 15  2  0
 14 16  1  0
 15 17  1  0
 16 18  2  0
 16 19  1  0
 17 18  1  0
 18 20  1  0
 19 21  2  0
 20 22  2  0
 21 22  1  0
 23 24  1  0
 24 25  1  0
 24 27  1  1
 25 26  2  0
 25 31  1  0
 27 28  1  0
 28 29  1  1
 28 30  1  0
 31 32  1  0
 32 33  1  0
 32 35  1  6
 33 34  2  0
 33 39  1  0
 35 36  1  0
 36 37  1  1
 36 38  1  0
 39 40  1  0
 40 41  1  0
 40 43  1  6
 41 42  2  0
 41 47  1  0
 43 44  1  0
 44 45  1  6
 44 46  1  0
 47 48  1  0
 48 49  1  0
 48 51  1  1
 49 50  2  0
 49 55  1  0
 51 52  1  0
 52 53  1  6
 52 54  1  0
 55 56  1  0
 56 57  1  0
 56 59  1  1
 57 58  2  0
 57 66  1  0
 59 60  1  0
 60 61  2  0
 60 62  1  0
 61 63  1  0
 62 64  2  0
 63 65  2  0
 64 65  1  0
 66 67  1  0
 67 68  1  0
 67 70  1  6
 68 69  1  0
 68 74  2  0
 70 71  1  0
 71 72  1  6
 71 73  1  0
M  CHG  2   1   1  69  -1
M  END
$$$$
