
     RDKit          3D

 74 76  0  0  0  0  0  0  0  0999 V2000
   26.7619  -13.2127   38.0844 N   0  0  0  0  0  4  0  0  0  0  0  0
   25.4589  -12.6982   37.7293 C   0  0  2  0  0  0  0  0  0  0  0  0
   25.5230  -11.2048   37.6756 C   0  0  0  0  0  0  0  0  0  0  0  0
   26.1720  -10.6279   38.6273 O   0  0  0  0  0  0  0  0  0  0  0  0
   24.4985  -13.0382   38.8801 C   0  0  0  0  0  0  0  0  0  0  0  0
   23.0943  -12.6165   38.5956 C   0  0  0  0  0  0  0  0  0  0  0  0
   22.2834  -13.5700   37.3442 S   0  0  0  0  0  0  0  0  0  0  0  0
   20.5819  -13.1771   36.9690 C   0  0  0  0  0  0  0  0  0  0  0  0
   24.9449  -10.4234   36.6681 N   0  0  0  0  0  0  0  0  0  0  0  0
   25.1724   -8.9536   36.7540 C   0  0  2  0  0  0  0  0  0  0  0  0
   24.3927   -8.2853   37.7536 C   0  0  0  0  0  0  0  0  0  0  0  0
   23.2234   -7.8803   37.4035 O   0  0  0  0  0  0  0  0  0  0  0  0
   24.8995   -8.4749   35.3345 C   0  0  0  0  0  0  0  0  0  0  0  0
   23.7954   -9.0977   34.6337 C   0  0  0  0  0  0  0  0  0  0  0  0
   23.0015  -10.1383   35.0536 C   0  0  0  0  0  0  0  0  0  0  0  0
   23.2691   -8.6877   33.4105 C   0  0  0  0  0  0  0  0  0  0  0  0
   22.0344  -10.3557   34.1281 N   0  0  0  0  0  0  0  0  0  0  0  0
   22.1708   -9.4838   33.1051 C   0  0  0  0  0  0  0  0  0  0  0  0
   23.7190   -7.7003   32.5453 C   0  0  0  0  0  0  0  0  0  0  0  0
   21.4984   -9.3005   31.9204 C   0  0  0  0  0  0  0  0  0  0  0  0
   23.0344   -7.5114   31.3326 C   0  0  0  0  0  0  0  0  0  0  0  0
   21.9625   -8.3173   31.0826 C   0  0  0  0  0  0  0  0  0  0  0  0
   24.7871   -8.0100   39.1317 N   0  0  0  0  0  0  0  0  0  0  0  0
   23.9903   -7.0786   39.8592 C   0  0  2  0  0  0  0  0  0  0  0  0
   24.0607   -5.6695   39.3040 C   0  0  0  0  0  0  0  0  0  0  0  0
   23.0754   -4.9310   39.5076 O   0  0  0  0  0  0  0  0  0  0  0  0
   24.2501   -7.0200   41.3172 C   0  0  0  0  0  0  0  0  0  0  0  0
   23.5361   -5.9437   42.0465 C   0  0  1  0  0  0  0  0  0  0  0  0
   22.0179   -6.0744   41.9211 C   0  0  0  0  0  0  0  0  0  0  0  0
   23.8505   -5.8507   43.5230 C   0  0  0  0  0  0  0  0  0  0  0  0
   25.1176   -5.1038   38.6005 N   0  0  0  0  0  0  0  0  0  0  0  0
   25.1062   -3.7319   38.0952 C   0  0  2  0  0  0  0  0  0  0  0  0
   23.9892   -3.6274   37.1863 C   0  0  0  0  0  0  0  0  0  0  0  0
   23.3165   -2.5188   37.1679 O   0  0  0  0  0  0  0  0  0  0  0  0
   26.4352   -3.3229   37.5252 C   0  0  0  0  0  0  0  0  0  0  0  0
   26.4948   -1.8869   37.0578 C   0  0  1  0  0  0  0  0  0  0  0  0
   27.7687   -1.7053   36.2022 C   0  0  0  0  0  0  0  0  0  0  0  0
   25.3601   -1.5704   36.0992 C   0  0  0  0  0  0  0  0  0  0  0  0
   23.5705   -4.6671   36.2925 N   0  0  0  0  0  0  0  0  0  0  0  0
   22.3872   -4.4787   35.5089 C   0  0  2  0  0  0  0  0  0  0  0  0
   21.0991   -4.3372   36.1637 C   0  0  0  0  0  0  0  0  0  0  0  0
   20.0070   -4.4160   35.4591 O   0  0  0  0  0  0  0  0  0  0  0  0
   22.3039   -5.4459   34.3386 C   0  0  0  0  0  0  0  0  0  0  0  0
   21.0471   -6.0806   34.0172 C   0  0  1  0  0  0  0  0  0  0  0  0
   20.8971   -6.8230   32.7300 C   0  0  0  0  0  0  0  0  0  0  0  0
   20.4987   -7.0423   35.1016 C   0  0  0  0  0  0  0  0  0  0  0  0
   20.8335   -4.1139   37.5476 N   0  0  0  0  0  0  0  0  0  0  0  0
   19.4210   -3.9968   37.9800 C   0  0  2  0  0  0  0  0  0  0  0  0
   19.1061   -2.8825   38.8201 C   0  0  0  0  0  0  0  0  0  0  0  0
   18.0677   -2.1987   38.5245 O   0  0  0  0  0  0  0  0  0  0  0  0
   19.0890   -5.3488   38.6004 C   0  0  0  0  0  0  0  0  0  0  0  0
   17.7262   -5.8726   38.3321 C   0  0  1  0  0  0  0  0  0  0  0  0
   16.9022   -5.9728   39.6101 C   0  0  0  0  0  0  0  0  0  0  0  0
   17.0245   -4.8242   37.4571 C   0  0  0  0  0  0  0  0  0  0  0  0
   19.7935   -2.4103   39.9715 N   0  0  0  0  0  0  0  0  0  0  0  0
   19.5275   -1.0749   40.4982 C   0  0  2  0  0  0  0  0  0  0  0  0
   20.6164   -0.1159   40.3099 C   0  0  0  0  0  0  0  0  0  0  0  0
   20.8859    0.6165   41.3224 O   0  0  0  0  0  0  0  0  0  0  0  0
   19.0182   -1.1783   41.9186 C   0  0  0  0  0  0  0  0  0  0  0  0
   17.5692   -1.4437   41.9761 C   0  0  0  0  0  0  0  0  0  0  0  0
   17.0417   -2.6830   41.6624 C   0  0  0  0  0  0  0  0  0  0  0  0
   16.6629   -0.4395   42.3190 C   0  0  0  0  0  0  0  0  0  0  0  0
   15.6936   -2.8774   41.6973 C   0  0  0  0  0  0  0  0  0  0  0  0
   15.3100   -0.6361   42.3554 C   0  0  0  0  0  0  0  0  0  0  0  0
   14.7901   -1.8812   42.0384 C   0  0  0  0  0  0  0  0  0  0  0  0
   21.3841    0.0885   39.1577 N   0  0  0  0  0  0  0  0  0  0  0  0
   22.7321    0.6349   39.2857 C   0  0  2  0  0  0  0  0  0  0  0  0
   23.4477    0.7662   38.0300 C   0  0  0  0  0  0  0  0  0  0  0  0
   24.6170    1.5140   37.8554 O   0  0  0  0  0  1  0  0  0  0  0  0
   23.5097    0.0538   40.4285 C   0  0  0  0  0  0  0  0  0  0  0  0
   24.8675    0.6384   40.6013 C   0  0  1  0  0  0  0  0  0  0  0  0
   25.0587    1.2733   41.9517 C   0  0  0  0  0  0  0  0  0  0  0  0
   25.9351   -0.4226   40.3534 C   0  0  0  0  0  0  0  0  0  0  0  0
   23.0392    0.1902   36.9651 O   0  0  0  0  0  0  0  0  0  0  0  0
  2  1  1  1
  2  3  1  0
  2  5  1  0
  3  4  2  0
  3  9  1  0
  5  6  1  0
  6  7  1  0
  7  8  1  0
  9 10  1  0
 10 11  1  0
 10 13  1  6
 11 12  2  0
 11 23  1  0
 13 14  1  0
 14 15  2  0
 14 16  1  0
 15 17  1  0
 16 18  2  0
 16 19  1  0
 17 18  1  0
 18 20  1  0
 19 21  2  0
 20 22  2  0
 21 22  1  0
 23 24  1  0
 24 25  1  0
 24 27  1  1
 25 26  2  0
 25 31  1  0
 27 28  1  0
 28 29  1  1
 28 30  1  0
 31 32  1  0
 32 33  1  0
 32 35  1  6
 33 34  2  0
 33 39  1  0
 35 36  1  0
 36 37  1  6
 36 38  1  0
 39 40  1  0
 40 41  1  0
 40 43  1  6
 41 42  2  0
 41 47  1  0
 43 44  1  0
 44 45  1  6
 44 46  1  0
 47 48  1  0
 48 49  1  0
 48 51  1  1
 49 50  2  0
 49 55  1  0
 51 52  1  0
 52 53  1  1
 52 54  1  0
 55 56  1  0
 56 57  1  0
 56 59  1  1
 57 58  2  0
 57 66  1  0
 59 60  1  0
 60 61  2  0
 60 62  1  0
 61 63  1  0
 62 64  2  0
 63 65  2  0
 64 65  1  0
 66 67  1  0
 67 68  1  0
 67 70  1  1
 68 69  1  0
 68 74  2  0
 70 71  1  0
 71 72  1  1
 71 73  1  0
M  CHG  2   1   1  69  -1
M  END
$$$$
