
     RDKit          3D

 74 76  0  0  0  0  0  0  0  0999 V2000
   29.8580   -3.1313   39.6819 N   0  0  0  0  0  4  0  0  0  0  0  0
   28.6238   -3.8685   39.5336 C   0  0  2  0  0  0  0  0  0  0  0  0
   27.7382   -3.5761   40.7031 C   0  0  0  0  0  0  0  0  0  0  0  0
   28.3218   -3.4688   41.8467 O   0  0  0  0  0  0  0  0  0  0  0  0
   28.9650   -5.3643   39.6264 C   0  0  0  0  0  0  0  0  0  0  0  0
   27.7472   -6.2287   39.6308 C   0  0  0  0  0  0  0  0  0  0  0  0
   28.0830   -7.9658   39.6846 S   0  0  0  0  0  0  0  0  0  0  0  0
   26.6949   -9.0860   39.5941 C   0  0  0  0  0  0  0  0  0  0  0  0
   26.3513   -3.4035   40.6223 N   0  0  0  0  0  0  0  0  0  0  0  0
   25.6609   -2.9759   41.8712 C   0  0  2  0  0  0  0  0  0  0  0  0
   24.2456   -3.2004   41.8789 C   0  0  0  0  0  0  0  0  0  0  0  0
   23.5634   -2.6393   40.9442 O   0  0  0  0  0  0  0  0  0  0  0  0
   26.0555   -1.5112   42.0038 C   0  0  0  0  0  0  0  0  0  0  0  0
   25.2412   -0.6893   42.8753 C   0  0  0  0  0  0  0  0  0  0  0  0
   24.5217    0.4366   42.5530 C   0  0  0  0  0  0  0  0  0  0  0  0
   24.9635   -0.9470   44.2161 C   0  0  0  0  0  0  0  0  0  0  0  0
   23.8362    0.8496   43.6478 N   0  0  0  0  0  0  0  0  0  0  0  0
   24.0865    0.0237   44.6873 C   0  0  0  0  0  0  0  0  0  0  0  0
   25.4630   -1.9435   45.0428 C   0  0  0  0  0  0  0  0  0  0  0  0
   23.6902    0.0101   46.0033 C   0  0  0  0  0  0  0  0  0  0  0  0
   25.0608   -1.9593   46.3893 C   0  0  0  0  0  0  0  0  0  0  0  0
   24.1976   -0.9860   46.7999 C   0  0  0  0  0  0  0  0  0  0  0  0
   23.4913   -3.9982   42.8408 N   0  0  0  0  0  0  0  0  0  0  0  0
   22.3077   -4.6352   42.3665 C   0  0  2  0  0  0  0  0  0  0  0  0
   21.2418   -3.6562   41.9146 C   0  0  0  0  0  0  0  0  0  0  0  0
   20.0781   -3.8610   42.3166 O   0  0  0  0  0  0  0  0  0  0  0  0
   21.6870   -5.6035   43.3012 C   0  0  0  0  0  0  0  0  0  0  0  0
   20.4537   -6.2624   42.8062 C   0  0  1  0  0  0  0  0  0  0  0  0
   19.2297   -5.3543   42.9261 C   0  0  0  0  0  0  0  0  0  0  0  0
   20.5114   -6.7381   41.3716 C   0  0  0  0  0  0  0  0  0  0  0  0
   21.4253   -2.5397   41.1072 N   0  0  0  0  0  0  0  0  0  0  0  0
   20.3334   -1.6668   40.6796 C   0  0  2  0  0  0  0  0  0  0  0  0
   20.9063   -0.6766   39.7988 C   0  0  0  0  0  0  0  0  0  0  0  0
   20.0999    0.0815   39.1228 O   0  0  0  0  0  0  0  0  0  0  0  0
   19.5553   -1.1158   41.8413 C   0  0  0  0  0  0  0  0  0  0  0  0
   20.1290    0.1540   42.4265 C   0  0  1  0  0  0  0  0  0  0  0  0
   19.8714    1.3086   41.4325 C   0  0  0  0  0  0  0  0  0  0  0  0
   19.3791    0.5731   43.6789 C   0  0  0  0  0  0  0  0  0  0  0  0
   22.3131   -0.4664   39.6203 N   0  0  0  0  0  0  0  0  0  0  0  0
   22.8614   -0.5013   38.2981 C   0  0  2  0  0  0  0  0  0  0  0  0
   22.9851   -1.7672   37.5980 C   0  0  0  0  0  0  0  0  0  0  0  0
   22.9241   -1.7919   36.2976 O   0  0  0  0  0  0  0  0  0  0  0  0
   24.1348    0.3204   38.1742 C   0  0  0  0  0  0  0  0  0  0  0  0
   24.1499    1.6956   38.6149 C   0  0  1  0  0  0  0  0  0  0  0  0
   22.9092    2.3103   39.1749 C   0  0  0  0  0  0  0  0  0  0  0  0
   25.2665    2.0498   39.6294 C   0  0  0  0  0  0  0  0  0  0  0  0
   23.1778   -3.0669   38.1538 N   0  0  0  0  0  0  0  0  0  0  0  0
   22.7421   -4.2401   37.3604 C   0  0  2  0  0  0  0  0  0  0  0  0
   21.4110   -4.1929   36.8385 C   0  0  0  0  0  0  0  0  0  0  0  0
   21.1388   -4.9595   35.8529 O   0  0  0  0  0  0  0  0  0  0  0  0
   23.0084   -5.4410   38.2604 C   0  0  0  0  0  0  0  0  0  0  0  0
   24.3878   -5.9884   38.2266 C   0  0  1  0  0  0  0  0  0  0  0  0
   24.4733   -7.2408   37.3626 C   0  0  0  0  0  0  0  0  0  0  0  0
   25.2552   -4.9319   37.5277 C   0  0  0  0  0  0  0  0  0  0  0  0
   20.3116   -3.4004   37.2677 N   0  0  0  0  0  0  0  0  0  0  0  0
   18.9708   -3.6472   36.7452 C   0  0  2  0  0  0  0  0  0  0  0  0
   18.5171   -2.6800   35.7455 C   0  0  0  0  0  0  0  0  0  0  0  0
   17.3161   -2.8343   35.3358 O   0  0  0  0  0  0  0  0  0  0  0  0
   18.0085   -3.8664   37.8912 C   0  0  0  0  0  0  0  0  0  0  0  0
   16.6186   -4.0377   37.4305 C   0  0  0  0  0  0  0  0  0  0  0  0
   16.2762   -3.9426   36.0940 C   0  0  0  0  0  0  0  0  0  0  0  0
   15.5807   -4.2707   38.3337 C   0  0  0  0  0  0  0  0  0  0  0  0
   14.9747   -4.0757   35.7138 C   0  0  0  0  0  0  0  0  0  0  0  0
   14.2747   -4.4058   37.9509 C   0  0  0  0  0  0  0  0  0  0  0  0
   13.9407   -4.3079   36.6092 C   0  0  0  0  0  0  0  0  0  0  0  0
   19.2440   -1.6197   35.1921 N   0  0  0  0  0  0  0  0  0  0  0  0
   18.5270   -0.5150   34.5616 C   0  0  2  0  0  0  0  0  0  0  0  0
   19.3773    0.4289   33.8600 C   0  0  0  0  0  0  0  0  0  0  0  0
   18.9107    1.4729   33.0541 O   0  0  0  0  0  1  0  0  0  0  0  0
   17.4586    0.0805   35.4289 C   0  0  0  0  0  0  0  0  0  0  0  0
   16.6826    1.1708   34.7776 C   0  0  1  0  0  0  0  0  0  0  0  0
   15.5689    0.6522   33.9095 C   0  0  0  0  0  0  0  0  0  0  0  0
   16.1374    2.1322   35.8291 C   0  0  0  0  0  0  0  0  0  0  0  0
   20.6512    0.3623   33.9326 O   0  0  0  0  0  0  0  0  0  0  0  0
  2  1  1  1
  2  3  1  0
  2  5  1  0
  3  4  2  0
  3  9  1  0
  5  6  1  0
  6  7  1  0
  7  8  1  0
  9 10  1  0
 10 11  1  0
 10 13  1  6
 11 12  2  0
 11 23  1  0
 13 14  1  0
 14 15  2  0
 14 16  1  0
 15 17  1  0
 16 18  2  0
 16 19  1  0
 17 18  1  0
 18 20  1  0
 19 21  2  0
 20 22  2  0
 21 22  1  0
 23 24  1  0
 24 25  1  0
 24 27  1  1
 25 26  2  0
 25 31  1  0
 27 28  1  0
 28 29  1  6
 28 30  1  0
 31 32  1  0
 32 33  1  0
 32 35  1  1
 33 34  2  0
 33 39  1  0
 35 36  1  0
 36 37  1  6
 36 38  1  0
 39 40  1  0
 40 41  1  0
 40 43  1  1
 41 42  2  0
 41 47  1  0
 43 44  1  0
 44 45  1  1
 44 46  1  0
 47 48  1  0
 48 49  1  0
 48 51  1  1
 49 50  2  0
 49 55  1  0
 51 52  1  0
 52 53  1  6
 52 54  1  0
 55 56  1  0
 56 57  1  0
 56 59  1  1
 57 58  2  0
 57 66  1  0
 59 60  1  0
 60 61  2  0
 60 62  1  0
 61 63  1  0
 62 64  2  0
 63 65  2  0
 64 65  1  0
 66 67  1  0
 67 68  1  0
 67 70  1  1
 68 69  1  0
 68 74  2  0
 70 71  1  0
 71 72  1  1
 71 73  1  0
M  CHG  2   1   1  69  -1
M  END
$$$$
