
     RDKit          3D

 74 76  0  0  0  0  0  0  0  0999 V2000
   31.4542   -0.0670   40.5225 N   0  0  0  0  0  4  0  0  0  0  0  0
   30.5794   -1.1555   40.8948 C   0  0  2  0  0  0  0  0  0  0  0  0
   29.1721   -0.7920   40.5417 C   0  0  0  0  0  0  0  0  0  0  0  0
   28.8829   -0.7877   39.2862 O   0  0  0  0  0  0  0  0  0  0  0  0
   30.6132   -1.2722   42.4271 C   0  0  0  0  0  0  0  0  0  0  0  0
   31.6803   -2.2008   42.9058 C   0  0  0  0  0  0  0  0  0  0  0  0
   32.2464   -1.8786   44.5516 S   0  0  0  0  0  0  0  0  0  0  0  0
   33.2767   -3.1097   45.3343 C   0  0  0  0  0  0  0  0  0  0  0  0
   28.1772   -0.4794   41.4756 N   0  0  0  0  0  0  0  0  0  0  0  0
   26.9722   -1.3554   41.4813 C   0  0  2  0  0  0  0  0  0  0  0  0
   26.7224   -2.0204   42.7259 C   0  0  0  0  0  0  0  0  0  0  0  0
   27.1675   -3.2214   42.8425 O   0  0  0  0  0  0  0  0  0  0  0  0
   27.2230   -2.3009   40.3144 C   0  0  0  0  0  0  0  0  0  0  0  0
   27.7941   -1.7243   39.1147 C   0  0  0  0  0  0  0  0  0  0  0  0
   29.1164   -1.6751   38.7423 C   0  0  0  0  0  0  0  0  0  0  0  0
   27.0793   -1.1761   38.0518 C   0  0  0  0  0  0  0  0  0  0  0  0
   29.2060   -1.1204   37.5081 N   0  0  0  0  0  0  0  0  0  0  0  0
   27.9738   -0.8005   37.0558 C   0  0  0  0  0  0  0  0  0  0  0  0
   25.7149   -0.9530   37.9305 C   0  0  0  0  0  0  0  0  0  0  0  0
   27.5124   -0.1933   35.9122 C   0  0  0  0  0  0  0  0  0  0  0  0
   25.2402   -0.3312   36.7631 C   0  0  0  0  0  0  0  0  0  0  0  0
   26.1591    0.0153   35.8162 C   0  0  0  0  0  0  0  0  0  0  0  0
   26.0100   -1.4796   43.8794 N   0  0  0  0  0  0  0  0  0  0  0  0
   25.6086   -2.4066   44.8851 C   0  0  2  0  0  0  0  0  0  0  0  0
   24.4274   -3.2627   44.4721 C   0  0  0  0  0  0  0  0  0  0  0  0
   23.9566   -4.0318   45.3350 O   0  0  0  0  0  0  0  0  0  0  0  0
   25.3178   -1.8185   46.2141 C   0  0  0  0  0  0  0  0  0  0  0  0
   24.6492   -0.4947   46.1899 C   0  0  1  0  0  0  0  0  0  0  0  0
   23.6379   -0.3412   47.3262 C   0  0  0  0  0  0  0  0  0  0  0  0
   25.5792    0.6958   46.2631 C   0  0  0  0  0  0  0  0  0  0  0  0
   23.7994   -3.2725   43.2321 N   0  0  0  0  0  0  0  0  0  0  0  0
   22.6308   -4.0964   42.9276 C   0  0  2  0  0  0  0  0  0  0  0  0
   22.3641   -3.9438   41.5169 C   0  0  0  0  0  0  0  0  0  0  0  0
   21.4469   -4.6892   40.9829 O   0  0  0  0  0  0  0  0  0  0  0  0
   21.4701   -3.7971   43.8341 C   0  0  0  0  0  0  0  0  0  0  0  0
   20.1833   -4.4867   43.4433 C   0  0  1  0  0  0  0  0  0  0  0  0
   19.0946   -4.1064   44.4719 C   0  0  0  0  0  0  0  0  0  0  0  0
   19.6476   -3.9520   42.1266 C   0  0  0  0  0  0  0  0  0  0  0  0
   23.0420   -3.0169   40.6587 N   0  0  0  0  0  0  0  0  0  0  0  0
   23.0136   -3.2281   39.2429 C   0  0  2  0  0  0  0  0  0  0  0  0
   21.9862   -4.0696   38.6561 C   0  0  0  0  0  0  0  0  0  0  0  0
   21.3081   -4.8812   39.4155 O   0  0  0  0  0  0  0  0  0  0  0  0
   24.3848   -3.5613   38.6765 C   0  0  0  0  0  0  0  0  0  0  0  0
   25.0937   -2.5834   37.8847 C   0  0  1  0  0  0  0  0  0  0  0  0
   24.9698   -2.6010   36.3965 C   0  0  0  0  0  0  0  0  0  0  0  0
   24.8522   -1.1074   38.2902 C   0  0  0  0  0  0  0  0  0  0  0  0
   21.5814   -4.1438   37.2901 N   0  0  0  0  0  0  0  0  0  0  0  0
   20.1657   -4.4673   36.9953 C   0  0  2  0  0  0  0  0  0  0  0  0
   19.1993   -3.4814   37.3702 C   0  0  0  0  0  0  0  0  0  0  0  0
   18.4665   -2.9945   36.4433 O   0  0  0  0  0  0  0  0  0  0  0  0
   19.9349   -5.8307   37.6362 C   0  0  0  0  0  0  0  0  0  0  0  0
   18.8151   -6.6315   37.0807 C   0  0  1  0  0  0  0  0  0  0  0  0
   19.1476   -7.1763   35.6969 C   0  0  0  0  0  0  0  0  0  0  0  0
   18.6654   -7.8568   37.9934 C   0  0  0  0  0  0  0  0  0  0  0  0
   18.9207   -2.9493   38.6588 N   0  0  0  0  0  0  0  0  0  0  0  0
   17.9334   -1.8867   38.8247 C   0  0  2  0  0  0  0  0  0  0  0  0
   18.1746   -0.6961   38.0092 C   0  0  0  0  0  0  0  0  0  0  0  0
   17.2981    0.2288   38.1129 O   0  0  0  0  0  0  0  0  0  0  0  0
   17.7239   -1.6096   40.2967 C   0  0  0  0  0  0  0  0  0  0  0  0
   16.3121   -1.3331   40.6191 C   0  0  0  0  0  0  0  0  0  0  0  0
   15.8931   -1.0953   41.9154 C   0  0  0  0  0  0  0  0  0  0  0  0
   15.3302   -1.3336   39.6276 C   0  0  0  0  0  0  0  0  0  0  0  0
   14.5736   -0.8756   42.1746 C   0  0  0  0  0  0  0  0  0  0  0  0
   14.0062   -1.1113   39.8885 C   0  0  0  0  0  0  0  0  0  0  0  0
   13.5952   -0.8748   41.1910 C   0  0  0  0  0  0  0  0  0  0  0  0
   19.2431   -0.4613   37.1364 N   0  0  0  0  0  0  0  0  0  0  0  0
   19.7271    0.9039   36.9514 C   0  0  2  0  0  0  0  0  0  0  0  0
   18.8613    1.7428   36.1436 C   0  0  0  0  0  0  0  0  0  0  0  0
   19.1821    3.0345   35.7125 O   0  0  0  0  0  1  0  0  0  0  0  0
   21.1931    0.9852   36.6467 C   0  0  0  0  0  0  0  0  0  0  0  0
   21.8470    2.2327   37.1276 C   0  0  1  0  0  0  0  0  0  0  0  0
   21.7444    3.3608   36.1377 C   0  0  0  0  0  0  0  0  0  0  0  0
   21.2647    2.6490   38.4747 C   0  0  0  0  0  0  0  0  0  0  0  0
   17.7085    1.3431   35.7642 O   0  0  0  0  0  0  0  0  0  0  0  0
  2  1  1  1
  2  3  1  0
  2  5  1  0
  3  4  2  0
  3  9  1  0
  5  6  1  0
  6  7  1  0
  7  8  1  0
  9 10  1  0
 10 11  1  0
 10 13  1  6
 11 12  2  0
 11 23  1  0
 13 14  1  0
 14 15  2  0
 14 16  1  0
 15 17  1  0
 16 18  2  0
 16 19  1  0
 17 18  1  0
 18 20  1  0
 19 21  2  0
 20 22  2  0
 21 22  1  0
 23 24  1  0
 24 25  1  0
 24 27  1  1
 25 26  2  0
 25 31  1  0
 27 28  1  0
 28 29  1  1
 28 30  1  0
 31 32  1  0
 32 33  1  0
 32 35  1  1
 33 34  2  0
 33 39  1  0
 35 36  1  0
 36 37  1  1
 36 38  1  0
 39 40  1  0
 40 41  1  0
 40 43  1  1
 41 42  2  0
 41 47  1  0
 43 44  1  0
 44 45  1  6
 44 46  1  0
 47 48  1  0
 48 49  1  0
 48 51  1  1
 49 50  2  0
 49 55  1  0
 51 52  1  0
 52 53  1  6
 52 54  1  0
 55 56  1  0
 56 57  1  0
 56 59  1  1
 57 58  2  0
 57 66  1  0
 59 60  1  0
 60 61  2  0
 60 62  1  0
 61 63  1  0
 62 64  2  0
 63 65  2  0
 64 65  1  0
 66 67  1  0
 67 68  1  0
 67 70  1  6
 68 69  1  0
 68 74  2  0
 70 71  1  0
 71 72  1  6
 71 73  1  0
M  CHG  2   1   1  69  -1
M  END
$$$$
