
     RDKit          3D

 74 76  0  0  0  0  0  0  0  0999 V2000
   29.4855  -13.7604   41.9674 N   0  0  0  0  0  4  0  0  0  0  0  0
   28.4589  -14.3308   41.1252 C   0  0  2  0  0  0  0  0  0  0  0  0
   28.2069  -13.4106   39.9732 C   0  0  0  0  0  0  0  0  0  0  0  0
   28.7921  -12.2639   40.0217 O   0  0  0  0  0  0  0  0  0  0  0  0
   27.1548  -14.3556   41.9384 C   0  0  0  0  0  0  0  0  0  0  0  0
   27.1883  -15.3626   43.0408 C   0  0  0  0  0  0  0  0  0  0  0  0
   25.7845  -15.3151   44.1178 S   0  0  0  0  0  0  0  0  0  0  0  0
   25.0817  -13.7184   44.5009 C   0  0  0  0  0  0  0  0  0  0  0  0
   27.4043  -13.7247   38.8701 N   0  0  0  0  0  0  0  0  0  0  0  0
   27.3107  -12.6916   37.8007 C   0  0  2  0  0  0  0  0  0  0  0  0
   26.2462  -11.7478   37.9727 C   0  0  0  0  0  0  0  0  0  0  0  0
   25.0535  -12.1686   37.7399 O   0  0  0  0  0  0  0  0  0  0  0  0
   27.2047  -13.5179   36.5260 C   0  0  0  0  0  0  0  0  0  0  0  0
   26.6996  -12.8434   35.3479 C   0  0  0  0  0  0  0  0  0  0  0  0
   26.0715  -11.6231   35.2715 C   0  0  0  0  0  0  0  0  0  0  0  0
   26.8391  -13.2821   34.0328 C   0  0  0  0  0  0  0  0  0  0  0  0
   25.8361  -11.3298   33.9685 N   0  0  0  0  0  0  0  0  0  0  0  0
   26.2930  -12.3283   33.1813 C   0  0  0  0  0  0  0  0  0  0  0  0
   27.3705  -14.4711   33.5532 C   0  0  0  0  0  0  0  0  0  0  0  0
   26.2728  -12.5501   31.8250 C   0  0  0  0  0  0  0  0  0  0  0  0
   27.3501  -14.7015   32.1671 C   0  0  0  0  0  0  0  0  0  0  0  0
   26.8051  -13.7330   31.3759 C   0  0  0  0  0  0  0  0  0  0  0  0
   26.3717  -10.3522   38.3817 N   0  0  0  0  0  0  0  0  0  0  0  0
   25.1687   -9.5927   38.4690 C   0  0  2  0  0  0  0  0  0  0  0  0
   24.4944   -9.3842   37.1272 C   0  0  0  0  0  0  0  0  0  0  0  0
   23.2907   -9.0545   37.1437 O   0  0  0  0  0  0  0  0  0  0  0  0
   25.2933   -8.2766   39.1390 C   0  0  0  0  0  0  0  0  0  0  0  0
   25.6765   -8.3271   40.5711 C   0  0  1  0  0  0  0  0  0  0  0  0
   25.8859   -6.9315   41.1592 C   0  0  0  0  0  0  0  0  0  0  0  0
   24.6964   -9.0435   41.4732 C   0  0  0  0  0  0  0  0  0  0  0  0
   25.0805   -9.5076   35.8728 N   0  0  0  0  0  0  0  0  0  0  0  0
   24.5620   -8.8516   34.6736 C   0  0  2  0  0  0  0  0  0  0  0  0
   23.3010   -9.4814   34.3610 C   0  0  0  0  0  0  0  0  0  0  0  0
   22.4445   -8.8169   33.6491 O   0  0  0  0  0  0  0  0  0  0  0  0
   25.5641   -8.8357   33.5537 C   0  0  0  0  0  0  0  0  0  0  0  0
   25.0928   -8.1197   32.3090 C   0  0  1  0  0  0  0  0  0  0  0  0
   26.1778   -7.1015   31.8921 C   0  0  0  0  0  0  0  0  0  0  0  0
   25.0048   -9.0681   31.1260 C   0  0  0  0  0  0  0  0  0  0  0  0
   22.9270  -10.8003   34.7800 N   0  0  0  0  0  0  0  0  0  0  0  0
   21.6483  -11.3178   34.3965 C   0  0  2  0  0  0  0  0  0  0  0  0
   20.4796  -11.0397   35.2120 C   0  0  0  0  0  0  0  0  0  0  0  0
   19.3010  -11.0135   34.6594 O   0  0  0  0  0  0  0  0  0  0  0  0
   21.7077  -12.7862   34.0063 C   0  0  0  0  0  0  0  0  0  0  0  0
   20.5007  -13.4771   33.6171 C   0  0  1  0  0  0  0  0  0  0  0  0
   20.2621  -13.8040   32.1796 C   0  0  0  0  0  0  0  0  0  0  0  0
   20.2219  -14.7966   34.3805 C   0  0  0  0  0  0  0  0  0  0  0  0
   20.4246  -10.7776   36.6133 N   0  0  0  0  0  0  0  0  0  0  0  0
   19.2033  -10.1406   37.1596 C   0  0  2  0  0  0  0  0  0  0  0  0
   18.8789   -8.8464   36.6437 C   0  0  0  0  0  0  0  0  0  0  0  0
   17.7775   -8.7270   36.0065 O   0  0  0  0  0  0  0  0  0  0  0  0
   19.3899  -10.1714   38.6720 C   0  0  0  0  0  0  0  0  0  0  0  0
   19.8512  -11.4603   39.2462 C   0  0  1  0  0  0  0  0  0  0  0  0
   20.5149  -11.2639   40.6038 C   0  0  0  0  0  0  0  0  0  0  0  0
   18.5885  -12.2932   39.5088 C   0  0  0  0  0  0  0  0  0  0  0  0
   19.6182   -7.6360   36.7401 N   0  0  0  0  0  0  0  0  0  0  0  0
   19.0588   -6.3835   36.2402 C   0  0  2  0  0  0  0  0  0  0  0  0
   19.8008   -5.7825   35.1316 C   0  0  0  0  0  0  0  0  0  0  0  0
   20.6990   -4.9363   35.4652 O   0  0  0  0  0  0  0  0  0  0  0  0
   18.7877   -5.4476   37.3970 C   0  0  0  0  0  0  0  0  0  0  0  0
   19.3037   -5.9721   38.6745 C   0  0  0  0  0  0  0  0  0  0  0  0
   20.6596   -6.0663   38.9298 C   0  0  0  0  0  0  0  0  0  0  0  0
   18.4399   -6.4289   39.6707 C   0  0  0  0  0  0  0  0  0  0  0  0
   21.0951   -6.5868   40.1112 C   0  0  0  0  0  0  0  0  0  0  0  0
   18.8779   -6.9497   40.8570 C   0  0  0  0  0  0  0  0  0  0  0  0
   20.2388   -7.0412   41.1037 C   0  0  0  0  0  0  0  0  0  0  0  0
   19.6365   -6.0256   33.7631 N   0  0  0  0  0  0  0  0  0  0  0  0
   20.4957   -5.3335   32.8068 C   0  0  2  0  0  0  0  0  0  0  0  0
   20.5476   -3.8935   32.9800 C   0  0  0  0  0  0  0  0  0  0  0  0
   19.7511   -3.1710   33.8748 O   0  0  0  0  0  1  0  0  0  0  0  0
   20.3408   -5.8215   31.3975 C   0  0  0  0  0  0  0  0  0  0  0  0
   18.9764   -6.3185   31.0714 C   0  0  1  0  0  0  0  0  0  0  0  0
   18.1296   -5.2819   30.3847 C   0  0  0  0  0  0  0  0  0  0  0  0
   19.0635   -7.5842   30.2243 C   0  0  0  0  0  0  0  0  0  0  0  0
   21.3493   -3.1674   32.2999 O   0  0  0  0  0  0  0  0  0  0  0  0
  2  1  1  1
  2  3  1  0
  2  5  1  0
  3  4  2  0
  3  9  1  0
  5  6  1  0
  6  7  1  0
  7  8  1  0
  9 10  1  0
 10 11  1  0
 10 13  1  6
 11 12  2  0
 11 23  1  0
 13 14  1  0
 14 15  2  0
 14 16  1  0
 15 17  1  0
 16 18  2  0
 16 19  1  0
 17 18  1  0
 18 20  1  0
 19 21  2  0
 20 22  2  0
 21 22  1  0
 23 24  1  0
 24 25  1  0
 24 27  1  6
 25 26  2  0
 25 31  1  0
 27 28  1  0
 28 29  1  1
 28 30  1  0
 31 32  1  0
 32 33  1  0
 32 35  1  6
 33 34  2  0
 33 39  1  0
 35 36  1  0
 36 37  1  6
 36 38  1  0
 39 40  1  0
 40 41  1  0
 40 43  1  1
 41 42  2  0
 41 47  1  0
 43 44  1  0
 44 45  1  6
 44 46  1  0
 47 48  1  0
 48 49  1  0
 48 51  1  1
 49 50  2  0
 49 55  1  0
 51 52  1  0
 52 53  1  1
 52 54  1  0
 55 56  1  0
 56 57  1  0
 56 59  1  1
 57 58  2  0
 57 66  1  0
 59 60  1  0
 60 61  2  0
 60 62  1  0
 61 63  1  0
 62 64  2  0
 63 65  2  0
 64 65  1  0
 66 67  1  0
 67 68  1  0
 67 70  1  6
 68 69  1  0
 68 74  2  0
 70 71  1  0
 71 72  1  6
 71 73  1  0
M  CHG  2   1   1  69  -1
M  END
$$$$
