
     RDKit          3D

 74 76  0  0  0  0  0  0  0  0999 V2000
   28.7157   -2.4967   42.7017 N   0  0  0  0  0  4  0  0  0  0  0  0
   27.9542   -3.3017   43.6295 C   0  0  2  0  0  0  0  0  0  0  0  0
   26.5025   -2.9730   43.4820 C   0  0  0  0  0  0  0  0  0  0  0  0
   25.7700   -3.8697   42.9171 O   0  0  0  0  0  0  0  0  0  0  0  0
   28.3439   -2.8628   45.0500 C   0  0  0  0  0  0  0  0  0  0  0  0
   27.4248   -3.4135   46.0903 C   0  0  0  0  0  0  0  0  0  0  0  0
   27.9411   -3.1123   47.7564 S   0  0  0  0  0  0  0  0  0  0  0  0
   27.2840   -1.6729   48.5850 C   0  0  0  0  0  0  0  0  0  0  0  0
   25.9111   -1.7839   43.9250 N   0  0  0  0  0  0  0  0  0  0  0  0
   24.4854   -1.5705   43.5491 C   0  0  2  0  0  0  0  0  0  0  0  0
   24.2823   -1.1268   42.2017 C   0  0  0  0  0  0  0  0  0  0  0  0
   23.0645   -0.9702   41.8191 O   0  0  0  0  0  0  0  0  0  0  0  0
   23.9895   -0.5911   44.6043 C   0  0  0  0  0  0  0  0  0  0  0  0
   23.9839   -1.0537   45.9769 C   0  0  0  0  0  0  0  0  0  0  0  0
   23.2842   -2.1073   46.5153 C   0  0  0  0  0  0  0  0  0  0  0  0
   24.7738   -0.5542   47.0103 C   0  0  0  0  0  0  0  0  0  0  0  0
   23.6296   -2.2447   47.8195 N   0  0  0  0  0  0  0  0  0  0  0  0
   24.5406   -1.3058   48.1566 C   0  0  0  0  0  0  0  0  0  0  0  0
   25.6383    0.5314   47.0116 C   0  0  0  0  0  0  0  0  0  0  0  0
   25.1767   -0.9814   49.3312 C   0  0  0  0  0  0  0  0  0  0  0  0
   26.2890    0.8664   48.2113 C   0  0  0  0  0  0  0  0  0  0  0  0
   26.0271    0.0958   49.3060 C   0  0  0  0  0  0  0  0  0  0  0  0
   25.3142   -0.8360   41.2112 N   0  0  0  0  0  0  0  0  0  0  0  0
   24.8786   -0.5832   39.8778 C   0  0  2  0  0  0  0  0  0  0  0  0
   24.9898   -1.7943   38.9725 C   0  0  0  0  0  0  0  0  0  0  0  0
   26.1361   -2.2419   38.7642 O   0  0  0  0  0  0  0  0  0  0  0  0
   25.5269    0.5660   39.2028 C   0  0  0  0  0  0  0  0  0  0  0  0
   26.4856    1.3328   40.0354 C   0  0  1  0  0  0  0  0  0  0  0  0
   27.7936    0.5718   40.2531 C   0  0  0  0  0  0  0  0  0  0  0  0
   26.8535    2.6980   39.4983 C   0  0  0  0  0  0  0  0  0  0  0  0
   23.9442   -2.4728   38.3575 N   0  0  0  0  0  0  0  0  0  0  0  0
   23.5991   -3.8617   38.6561 C   0  0  2  0  0  0  0  0  0  0  0  0
   22.1853   -3.8908   38.9475 C   0  0  0  0  0  0  0  0  0  0  0  0
   21.4125   -4.5763   38.1634 O   0  0  0  0  0  0  0  0  0  0  0  0
   24.4833   -4.4535   39.7174 C   0  0  0  0  0  0  0  0  0  0  0  0
   25.6209   -5.2917   39.1814 C   0  0  1  0  0  0  0  0  0  0  0  0
   25.8459   -4.9172   37.6992 C   0  0  0  0  0  0  0  0  0  0  0  0
   26.9349   -4.9348   39.8542 C   0  0  0  0  0  0  0  0  0  0  0  0
   21.5706   -3.2156   40.0527 N   0  0  0  0  0  0  0  0  0  0  0  0
   20.1496   -3.2886   40.2118 C   0  0  2  0  0  0  0  0  0  0  0  0
   19.2821   -2.5167   39.3402 C   0  0  0  0  0  0  0  0  0  0  0  0
   17.9998   -2.7428   39.3446 O   0  0  0  0  0  0  0  0  0  0  0  0
   19.7194   -3.1627   41.6647 C   0  0  0  0  0  0  0  0  0  0  0  0
   19.7465   -4.3212   42.5266 C   0  0  1  0  0  0  0  0  0  0  0  0
   19.8817   -4.1458   44.0036 C   0  0  0  0  0  0  0  0  0  0  0  0
   18.5623   -5.3044   42.3458 C   0  0  0  0  0  0  0  0  0  0  0  0
   19.6447   -1.4832   38.4260 N   0  0  0  0  0  0  0  0  0  0  0  0
   18.8194   -1.3031   37.2086 C   0  0  2  0  0  0  0  0  0  0  0  0
   18.8382   -2.3788   36.2657 C   0  0  0  0  0  0  0  0  0  0  0  0
   17.7547   -2.6263   35.6349 O   0  0  0  0  0  0  0  0  0  0  0  0
   19.2667    0.0330   36.6275 C   0  0  0  0  0  0  0  0  0  0  0  0
   18.3323    0.6724   35.6674 C   0  0  1  0  0  0  0  0  0  0  0  0
   19.0700    1.5645   34.6764 C   0  0  0  0  0  0  0  0  0  0  0  0
   17.7191   -0.4649   34.8382 C   0  0  0  0  0  0  0  0  0  0  0  0
   19.9152   -3.2366   35.9116 N   0  0  0  0  0  0  0  0  0  0  0  0
   19.9063   -3.9513   34.6385 C   0  0  2  0  0  0  0  0  0  0  0  0
   19.7843   -5.4047   34.7547 C   0  0  0  0  0  0  0  0  0  0  0  0
   20.5777   -5.9585   35.5903 O   0  0  0  0  0  0  0  0  0  0  0  0
   21.0614   -3.4829   33.7819 C   0  0  0  0  0  0  0  0  0  0  0  0
   20.9408   -3.9342   32.3836 C   0  0  0  0  0  0  0  0  0  0  0  0
   21.0691   -5.2659   32.0333 C   0  0  0  0  0  0  0  0  0  0  0  0
   20.7245   -3.0261   31.3465 C   0  0  0  0  0  0  0  0  0  0  0  0
   20.9826   -5.6369   30.7252 C   0  0  0  0  0  0  0  0  0  0  0  0
   20.6361   -3.3996   30.0338 C   0  0  0  0  0  0  0  0  0  0  0  0
   20.7670   -4.7365   29.6920 C   0  0  0  0  0  0  0  0  0  0  0  0
   18.9086   -6.2462   34.0592 N   0  0  0  0  0  0  0  0  0  0  0  0
   18.3255   -7.3949   34.7465 C   0  0  2  0  0  0  0  0  0  0  0  0
   17.4267   -8.1895   33.9299 C   0  0  0  0  0  0  0  0  0  0  0  0
   16.9241   -7.7945   32.6855 O   0  0  0  0  0  1  0  0  0  0  0  0
   17.8535   -7.0873   36.1361 C   0  0  0  0  0  0  0  0  0  0  0  0
   18.6247   -7.7745   37.2076 C   0  0  1  0  0  0  0  0  0  0  0  0
   19.4500   -6.8231   38.0302 C   0  0  0  0  0  0  0  0  0  0  0  0
   17.6858   -8.5784   38.1016 C   0  0  0  0  0  0  0  0  0  0  0  0
   17.0192   -9.3393   34.3101 O   0  0  0  0  0  0  0  0  0  0  0  0
  2  1  1  6
  2  3  1  0
  2  5  1  0
  3  4  2  0
  3  9  1  0
  5  6  1  0
  6  7  1  0
  7  8  1  0
  9 10  1  0
 10 11  1  0
 10 13  1  1
 11 12  2  0
 11 23  1  0
 13 14  1  0
 14 15  2  0
 14 16  1  0
 15 17  1  0
 16 18  2  0
 16 19  1  0
 17 18  1  0
 18 20  1  0
 19 21  2  0
 20 22  2  0
 21 22  1  0
 23 24  1  0
 24 25  1  0
 24 27  1  6
 25 26  2  0
 25 31  1  0
 27 28  1  0
 28 29  1  6
 28 30  1  0
 31 32  1  0
 32 33  1  0
 32 35  1  1
 33 34  2  0
 33 39  1  0
 35 36  1  0
 36 37  1  6
 36 38  1  0
 39 40  1  0
 40 41  1  0
 40 43  1  1
 41 42  2  0
 41 47  1  0
 43 44  1  0
 44 45  1  1
 44 46  1  0
 47 48  1  0
 48 49  1  0
 48 51  1  6
 49 50  2  0
 49 55  1  0
 51 52  1  0
 52 53  1  6
 52 54  1  0
 55 56  1  0
 56 57  1  0
 56 59  1  1
 57 58  2  0
 57 66  1  0
 59 60  1  0
 60 61  2  0
 60 62  1  0
 61 63  1  0
 62 64  2  0
 63 65  2  0
 64 65  1  0
 66 67  1  0
 67 68  1  0
 67 70  1  1
 68 69  1  0
 68 74  2  0
 70 71  1  0
 71 72  1  1
 71 73  1  0
M  CHG  2   1   1  69  -1
M  END
$$$$
