
     RDKit          3D

 74 76  0  0  0  0  0  0  0  0999 V2000
   25.8129   -4.5500   48.9726 N   0  0  0  0  0  4  0  0  0  0  0  0
   25.4911   -3.7329   47.8247 C   0  0  2  0  0  0  0  0  0  0  0  0
   25.7468   -4.5207   46.5791 C   0  0  0  0  0  0  0  0  0  0  0  0
   26.1705   -5.7261   46.7444 O   0  0  0  0  0  0  0  0  0  0  0  0
   26.4878   -2.5632   47.7960 C   0  0  0  0  0  0  0  0  0  0  0  0
   26.2378   -1.6275   46.6592 C   0  0  0  0  0  0  0  0  0  0  0  0
   27.2450   -0.1721   46.6744 S   0  0  0  0  0  0  0  0  0  0  0  0
   27.8168    0.4619   45.1056 C   0  0  0  0  0  0  0  0  0  0  0  0
   25.5424   -4.0377   45.2811 N   0  0  0  0  0  0  0  0  0  0  0  0
   24.4153   -4.6420   44.5169 C   0  0  2  0  0  0  0  0  0  0  0  0
   24.4359   -4.3743   43.1093 C   0  0  0  0  0  0  0  0  0  0  0  0
   23.6079   -3.4919   42.6736 O   0  0  0  0  0  0  0  0  0  0  0  0
   23.1823   -4.1046   45.2307 C   0  0  0  0  0  0  0  0  0  0  0  0
   21.8945   -4.4530   44.6666 C   0  0  0  0  0  0  0  0  0  0  0  0
   21.3016   -5.6915   44.6042 C   0  0  0  0  0  0  0  0  0  0  0  0
   20.9611   -3.5581   44.1478 C   0  0  0  0  0  0  0  0  0  0  0  0
   20.0621   -5.5599   44.0698 N   0  0  0  0  0  0  0  0  0  0  0  0
   19.8218   -4.2633   43.7762 C   0  0  0  0  0  0  0  0  0  0  0  0
   21.0710   -2.1893   43.9472 C   0  0  0  0  0  0  0  0  0  0  0  0
   18.7649   -3.6033   43.1960 C   0  0  0  0  0  0  0  0  0  0  0  0
   19.9926   -1.5119   43.3529 C   0  0  0  0  0  0  0  0  0  0  0  0
   18.8980   -2.2500   43.0094 C   0  0  0  0  0  0  0  0  0  0  0  0
   25.2971   -5.0017   42.1117 N   0  0  0  0  0  0  0  0  0  0  0  0
   26.1251   -4.1384   41.3364 C   0  0  2  0  0  0  0  0  0  0  0  0
   25.3384   -3.1855   40.4579 C   0  0  0  0  0  0  0  0  0  0  0  0
   25.8491   -2.0687   40.2351 O   0  0  0  0  0  0  0  0  0  0  0  0
   27.1426   -4.8153   40.4980 C   0  0  0  0  0  0  0  0  0  0  0  0
   27.9293   -3.9238   39.6110 C   0  0  1  0  0  0  0  0  0  0  0  0
   29.0915   -4.6588   38.9427 C   0  0  0  0  0  0  0  0  0  0  0  0
   27.1388   -3.2540   38.5092 C   0  0  0  0  0  0  0  0  0  0  0  0
   24.1083   -3.4293   39.8583 N   0  0  0  0  0  0  0  0  0  0  0  0
   23.4085   -2.4498   39.0287 C   0  0  2  0  0  0  0  0  0  0  0  0
   22.9766   -3.1399   37.8363 C   0  0  0  0  0  0  0  0  0  0  0  0
   22.7221   -2.4340   36.7785 O   0  0  0  0  0  0  0  0  0  0  0  0
   24.2294   -1.2138   38.7905 C   0  0  0  0  0  0  0  0  0  0  0  0
   23.6122   -0.2367   37.8166 C   0  0  1  0  0  0  0  0  0  0  0  0
   22.2939    0.2915   38.4256 C   0  0  0  0  0  0  0  0  0  0  0  0
   24.4703    1.0070   37.6632 C   0  0  0  0  0  0  0  0  0  0  0  0
   22.8126   -4.5605   37.7356 N   0  0  0  0  0  0  0  0  0  0  0  0
   22.0081   -5.0967   36.6795 C   0  0  2  0  0  0  0  0  0  0  0  0
   20.5711   -4.8890   36.6861 C   0  0  0  0  0  0  0  0  0  0  0  0
   19.7726   -5.9137   36.5997 O   0  0  0  0  0  0  0  0  0  0  0  0
   22.3514   -6.5439   36.3636 C   0  0  0  0  0  0  0  0  0  0  0  0
   23.4372   -6.8456   35.4605 C   0  0  1  0  0  0  0  0  0  0  0  0
   24.8187   -6.3734   35.7753 C   0  0  0  0  0  0  0  0  0  0  0  0
   23.5974   -8.3444   35.1007 C   0  0  0  0  0  0  0  0  0  0  0  0
   19.8590   -3.6564   36.7813 N   0  0  0  0  0  0  0  0  0  0  0  0
   18.4273   -3.7018   37.1608 C   0  0  2  0  0  0  0  0  0  0  0  0
   17.7477   -2.4444   37.2207 C   0  0  0  0  0  0  0  0  0  0  0  0
   16.4826   -2.4510   37.0398 O   0  0  0  0  0  0  0  0  0  0  0  0
   18.3946   -4.4823   38.4695 C   0  0  0  0  0  0  0  0  0  0  0  0
   17.0540   -4.6878   39.0731 C   0  0  1  0  0  0  0  0  0  0  0  0
   16.5416   -6.1026   38.8326 C   0  0  0  0  0  0  0  0  0  0  0  0
   17.2388   -4.5568   40.5915 C   0  0  0  0  0  0  0  0  0  0  0  0
   18.2843   -1.1504   37.4627 N   0  0  0  0  0  0  0  0  0  0  0  0
   17.7442    0.0174   36.7727 C   0  0  2  0  0  0  0  0  0  0  0  0
   18.6454    0.6160   35.7877 C   0  0  0  0  0  0  0  0  0  0  0  0
   18.1432    1.5563   35.0821 O   0  0  0  0  0  0  0  0  0  0  0  0
   17.1791    0.9912   37.7826 C   0  0  0  0  0  0  0  0  0  0  0  0
   16.8019    2.2778   37.1696 C   0  0  0  0  0  0  0  0  0  0  0  0
   15.4948    2.5638   36.8200 C   0  0  0  0  0  0  0  0  0  0  0  0
   17.7598    3.2518   36.8848 C   0  0  0  0  0  0  0  0  0  0  0  0
   15.1937    3.7526   36.2262 C   0  0  0  0  0  0  0  0  0  0  0  0
   17.4564    4.4455   36.2903 C   0  0  0  0  0  0  0  0  0  0  0  0
   16.1437    4.7230   35.9423 C   0  0  0  0  0  0  0  0  0  0  0  0
   19.9788    0.2756   35.5329 N   0  0  0  0  0  0  0  0  0  0  0  0
   20.5740    0.6332   34.2484 C   0  0  2  0  0  0  0  0  0  0  0  0
   20.3367   -0.3295   33.1887 C   0  0  0  0  0  0  0  0  0  0  0  0
   19.7031   -1.5644   33.3634 O   0  0  0  0  0  1  0  0  0  0  0  0
   21.9748    1.1565   34.3604 C   0  0  0  0  0  0  0  0  0  0  0  0
   22.0632    2.5628   34.8397 C   0  0  1  0  0  0  0  0  0  0  0  0
   22.7059    2.6748   36.1953 C   0  0  0  0  0  0  0  0  0  0  0  0
   22.8077    3.4219   33.8225 C   0  0  0  0  0  0  0  0  0  0  0  0
   20.7078   -0.1049   31.9868 O   0  0  0  0  0  0  0  0  0  0  0  0
  2  1  1  1
  2  3  1  0
  2  5  1  0
  3  4  2  0
  3  9  1  0
  5  6  1  0
  6  7  1  0
  7  8  1  0
  9 10  1  0
 10 11  1  0
 10 13  1  1
 11 12  2  0
 11 23  1  0
 13 14  1  0
 14 15  2  0
 14 16  1  0
 15 17  1  0
 16 18  2  0
 16 19  1  0
 17 18  1  0
 18 20  1  0
 19 21  2  0
 20 22  2  0
 21 22  1  0
 23 24  1  0
 24 25  1  0
 24 27  1  6
 25 26  2  0
 25 31  1  0
 27 28  1  0
 28 29  1  6
 28 30  1  0
 31 32  1  0
 32 33  1  0
 32 35  1  6
 33 34  2  0
 33 39  1  0
 35 36  1  0
 36 37  1  1
 36 38  1  0
 39 40  1  0
 40 41  1  0
 40 43  1  1
 41 42  2  0
 41 47  1  0
 43 44  1  0
 44 45  1  1
 44 46  1  0
 47 48  1  0
 48 49  1  0
 48 51  1  1
 49 50  2  0
 49 55  1  0
 51 52  1  0
 52 53  1  1
 52 54  1  0
 55 56  1  0
 56 57  1  0
 56 59  1  1
 57 58  2  0
 57 66  1  0
 59 60  1  0
 60 61  2  0
 60 62  1  0
 61 63  1  0
 62 64  2  0
 63 65  2  0
 64 65  1  0
 66 67  1  0
 67 68  1  0
 67 70  1  1
 68 69  1  0
 68 74  2  0
 70 71  1  0
 71 72  1  1
 71 73  1  0
M  CHG  2   1   1  69  -1
M  END
$$$$
