
     RDKit          3D

 74 76  0  0  0  0  0  0  0  0999 V2000
   28.7052   -5.5104   45.1814 N   0  0  0  0  0  4  0  0  0  0  0  0
   27.8115   -5.2013   44.0885 C   0  0  2  0  0  0  0  0  0  0  0  0
   26.4612   -4.8721   44.6416 C   0  0  0  0  0  0  0  0  0  0  0  0
   25.7373   -5.8721   45.0099 O   0  0  0  0  0  0  0  0  0  0  0  0
   27.6280   -6.4856   43.2642 C   0  0  0  0  0  0  0  0  0  0  0  0
   26.5344   -6.3647   42.2543 C   0  0  0  0  0  0  0  0  0  0  0  0
   26.3760   -7.7600   41.1768 S   0  0  0  0  0  0  0  0  0  0  0  0
   24.8368   -7.9598   40.2930 C   0  0  0  0  0  0  0  0  0  0  0  0
   25.9619   -3.5727   44.7899 N   0  0  0  0  0  0  0  0  0  0  0  0
   24.4793   -3.4266   44.7914 C   0  0  2  0  0  0  0  0  0  0  0  0
   23.7918   -4.2973   43.8843 C   0  0  0  0  0  0  0  0  0  0  0  0
   23.7214   -5.5390   44.2117 O   0  0  0  0  0  0  0  0  0  0  0  0
   24.2745   -1.9457   44.5022 C   0  0  0  0  0  0  0  0  0  0  0  0
   24.6524   -1.0157   45.5464 C   0  0  0  0  0  0  0  0  0  0  0  0
   24.0763   -0.8472   46.7831 C   0  0  0  0  0  0  0  0  0  0  0  0
   25.7511   -0.1594   45.5191 C   0  0  0  0  0  0  0  0  0  0  0  0
   24.7899    0.0718   47.4798 N   0  0  0  0  0  0  0  0  0  0  0  0
   25.8239    0.5161   46.7322 C   0  0  0  0  0  0  0  0  0  0  0  0
   26.6494    0.0874   44.4904 C   0  0  0  0  0  0  0  0  0  0  0  0
   26.8069    1.4546   46.9374 C   0  0  0  0  0  0  0  0  0  0  0  0
   27.6548    1.0474   44.6966 C   0  0  0  0  0  0  0  0  0  0  0  0
   27.6832    1.6796   45.9051 C   0  0  0  0  0  0  0  0  0  0  0  0
   23.1635   -3.9247   42.6205 N   0  0  0  0  0  0  0  0  0  0  0  0
   21.7643   -4.1673   42.4971 C   0  0  2  0  0  0  0  0  0  0  0  0
   21.2646   -4.0723   41.0688 C   0  0  0  0  0  0  0  0  0  0  0  0
   21.3731   -2.9649   40.5036 O   0  0  0  0  0  0  0  0  0  0  0  0
   20.8941   -3.3272   43.3536 C   0  0  0  0  0  0  0  0  0  0  0  0
   19.4516   -3.3500   43.0087 C   0  0  1  0  0  0  0  0  0  0  0  0
   18.6031   -2.6039   44.0387 C   0  0  0  0  0  0  0  0  0  0  0  0
   19.1064   -2.7753   41.6530 C   0  0  0  0  0  0  0  0  0  0  0  0
   20.7085   -5.0967   40.3115 N   0  0  0  0  0  0  0  0  0  0  0  0
   20.4582   -4.9917   38.8750 C   0  0  2  0  0  0  0  0  0  0  0  0
   19.7350   -3.7603   38.6626 C   0  0  0  0  0  0  0  0  0  0  0  0
   19.9869   -3.0798   37.5877 O   0  0  0  0  0  0  0  0  0  0  0  0
   19.8009   -6.2235   38.3190 C   0  0  0  0  0  0  0  0  0  0  0  0
   20.7635   -7.2284   37.7294 C   0  0  1  0  0  0  0  0  0  0  0  0
   19.9446   -8.3252   37.0124 C   0  0  0  0  0  0  0  0  0  0  0  0
   21.5982   -6.6098   36.6216 C   0  0  0  0  0  0  0  0  0  0  0  0
   18.7474   -3.2344   39.5590 N   0  0  0  0  0  0  0  0  0  0  0  0
   18.1056   -1.9949   39.2403 C   0  0  2  0  0  0  0  0  0  0  0  0
   18.8066   -0.7409   39.4498 C   0  0  0  0  0  0  0  0  0  0  0  0
   18.5527   -0.0315   40.5118 O   0  0  0  0  0  0  0  0  0  0  0  0
   16.6826   -1.9229   39.7713 C   0  0  0  0  0  0  0  0  0  0  0  0
   16.4499   -1.7715   41.1886 C   0  0  1  0  0  0  0  0  0  0  0  0
   15.6762   -0.5980   41.6935 C   0  0  0  0  0  0  0  0  0  0  0  0
   15.8157   -3.0010   41.8869 C   0  0  0  0  0  0  0  0  0  0  0  0
   19.7936   -0.1330   38.6182 N   0  0  0  0  0  0  0  0  0  0  0  0
   21.0324    0.3722   39.2553 C   0  0  2  0  0  0  0  0  0  0  0  0
   22.2652   -0.1172   38.7197 C   0  0  0  0  0  0  0  0  0  0  0  0
   23.1874    0.7377   38.4917 O   0  0  0  0  0  0  0  0  0  0  0  0
   20.8510    0.0880   40.7417 C   0  0  0  0  0  0  0  0  0  0  0  0
   20.8850    1.2689   41.6406 C   0  0  1  0  0  0  0  0  0  0  0  0
   19.5689    2.0363   41.6085 C   0  0  0  0  0  0  0  0  0  0  0  0
   21.0214    0.7217   43.0685 C   0  0  0  0  0  0  0  0  0  0  0  0
   22.6307   -1.4527   38.3972 N   0  0  0  0  0  0  0  0  0  0  0  0
   23.4214   -1.7375   37.2033 C   0  0  2  0  0  0  0  0  0  0  0  0
   22.6642   -1.7230   35.9514 C   0  0  0  0  0  0  0  0  0  0  0  0
   23.3656   -1.7673   34.8836 O   0  0  0  0  0  0  0  0  0  0  0  0
   24.2489   -2.9840   37.4242 C   0  0  0  0  0  0  0  0  0  0  0  0
   24.8983   -3.4518   36.1862 C   0  0  0  0  0  0  0  0  0  0  0  0
   24.2550   -4.2951   35.2988 C   0  0  0  0  0  0  0  0  0  0  0  0
   26.2088   -3.0873   35.8745 C   0  0  0  0  0  0  0  0  0  0  0  0
   24.9027   -4.7298   34.1817 C   0  0  0  0  0  0  0  0  0  0  0  0
   26.8576   -3.5228   34.7521 C   0  0  0  0  0  0  0  0  0  0  0  0
   26.2052   -4.3687   33.8689 C   0  0  0  0  0  0  0  0  0  0  0  0
   21.2747   -1.6634   35.7948 N   0  0  0  0  0  0  0  0  0  0  0  0
   20.7184   -1.1635   34.5408 C   0  0  2  0  0  0  0  0  0  0  0  0
   20.9524    0.2486   34.3017 C   0  0  0  0  0  0  0  0  0  0  0  0
   21.4214    1.1508   35.2625 O   0  0  0  0  0  1  0  0  0  0  0  0
   19.3306   -1.6573   34.2603 C   0  0  0  0  0  0  0  0  0  0  0  0
   18.7859   -1.2282   32.9434 C   0  0  1  0  0  0  0  0  0  0  0  0
   18.5731   -2.3804   31.9999 C   0  0  0  0  0  0  0  0  0  0  0  0
   17.4887   -0.4490   33.1367 C   0  0  0  0  0  0  0  0  0  0  0  0
   20.7337    0.7779   33.1595 O   0  0  0  0  0  0  0  0  0  0  0  0
  2  1  1  1
  2  3  1  0
  2  5  1  0
  3  4  2  0
  3  9  1  0
  5  6  1  0
  6  7  1  0
  7  8  1  0
  9 10  1  0
 10 11  1  0
 10 13  1  6
 11 12  2  0
 11 23  1  0
 13 14  1  0
 14 15  2  0
 14 16  1  0
 15 17  1  0
 16 18  2  0
 16 19  1  0
 17 18  1  0
 18 20  1  0
 19 21  2  0
 20 22  2  0
 21 22  1  0
 23 24  1  0
 24 25  1  0
 24 27  1  1
 25 26  2  0
 25 31  1  0
 27 28  1  0
 28 29  1  1
 28 30  1  0
 31 32  1  0
 32 33  1  0
 32 35  1  1
 33 34  2  0
 33 39  1  0
 35 36  1  0
 36 37  1  6
 36 38  1  0
 39 40  1  0
 40 41  1  0
 40 43  1  1
 41 42  2  0
 41 47  1  0
 43 44  1  0
 44 45  1  6
 44 46  1  0
 47 48  1  0
 48 49  1  0
 48 51  1  1
 49 50  2  0
 49 55  1  0
 51 52  1  0
 52 53  1  1
 52 54  1  0
 55 56  1  0
 56 57  1  0
 56 59  1  1
 57 58  2  0
 57 66  1  0
 59 60  1  0
 60 61  2  0
 60 62  1  0
 61 63  1  0
 62 64  2  0
 63 65  2  0
 64 65  1  0
 66 67  1  0
 67 68  1  0
 67 70  1  1
 68 69  1  0
 68 74  2  0
 70 71  1  0
 71 72  1  6
 71 73  1  0
M  CHG  2   1   1  69  -1
M  END
$$$$
