
     RDKit          3D

 74 76  0  0  0  0  0  0  0  0999 V2000
   27.0606   -7.0059   42.8113 N   0  0  0  0  0  4  0  0  0  0  0  0
   27.0531   -6.0086   43.8574 C   0  0  2  0  0  0  0  0  0  0  0  0
   25.6793   -5.4270   43.9660 C   0  0  0  0  0  0  0  0  0  0  0  0
   25.3122   -5.0489   45.1416 O   0  0  0  0  0  0  0  0  0  0  0  0
   27.9643   -4.8567   43.4043 C   0  0  0  0  0  0  0  0  0  0  0  0
   27.9592   -3.7129   44.3644 C   0  0  0  0  0  0  0  0  0  0  0  0
   26.4458   -2.7957   44.4017 S   0  0  0  0  0  0  0  0  0  0  0  0
   26.1275   -1.7708   45.8294 C   0  0  0  0  0  0  0  0  0  0  0  0
   24.8018   -5.2627   42.8877 N   0  0  0  0  0  0  0  0  0  0  0  0
   23.6925   -4.2863   43.0764 C   0  0  2  0  0  0  0  0  0  0  0  0
   22.6636   -4.3505   42.0809 C   0  0  0  0  0  0  0  0  0  0  0  0
   22.7516   -3.5231   41.1004 O   0  0  0  0  0  0  0  0  0  0  0  0
   24.4136   -2.9465   43.1350 C   0  0  0  0  0  0  0  0  0  0  0  0
   23.6464   -1.8090   43.5995 C   0  0  0  0  0  0  0  0  0  0  0  0
   22.7957   -1.7412   44.6771 C   0  0  0  0  0  0  0  0  0  0  0  0
   23.6987   -0.5194   43.0747 C   0  0  0  0  0  0  0  0  0  0  0  0
   22.3471   -0.4678   44.8045 N   0  0  0  0  0  0  0  0  0  0  0  0
   22.8802    0.3081   43.8354 C   0  0  0  0  0  0  0  0  0  0  0  0
   24.3791   -0.0495   41.9601 C   0  0  0  0  0  0  0  0  0  0  0  0
   22.7311    1.6304   43.4911 C   0  0  0  0  0  0  0  0  0  0  0  0
   24.2275    1.3016   41.6047 C   0  0  0  0  0  0  0  0  0  0  0  0
   23.4150    2.0706   42.3854 C   0  0  0  0  0  0  0  0  0  0  0  0
   21.5189   -5.2559   42.0628 N   0  0  0  0  0  0  0  0  0  0  0  0
   20.6386   -5.1640   40.9454 C   0  0  2  0  0  0  0  0  0  0  0  0
   20.3430   -3.7353   40.5330 C   0  0  0  0  0  0  0  0  0  0  0  0
   19.9052   -3.5587   39.3776 O   0  0  0  0  0  0  0  0  0  0  0  0
   19.3519   -5.8856   41.0870 C   0  0  0  0  0  0  0  0  0  0  0  0
   19.4658   -7.3376   41.3679 C   0  0  1  0  0  0  0  0  0  0  0  0
   18.2983   -8.1299   40.7790 C   0  0  0  0  0  0  0  0  0  0  0  0
   20.7368   -7.9899   40.8711 C   0  0  0  0  0  0  0  0  0  0  0  0
   20.4944   -2.5952   41.3135 N   0  0  0  0  0  0  0  0  0  0  0  0
   20.1058   -1.2576   40.8694 C   0  0  2  0  0  0  0  0  0  0  0  0
   21.1726   -0.7666   40.0294 C   0  0  0  0  0  0  0  0  0  0  0  0
   20.8779    0.0963   39.1071 O   0  0  0  0  0  0  0  0  0  0  0  0
   19.7311   -0.3621   42.0166 C   0  0  0  0  0  0  0  0  0  0  0  0
   19.2379   -1.0964   43.2420 C   0  0  1  0  0  0  0  0  0  0  0  0
   19.0212   -0.0662   44.3732 C   0  0  0  0  0  0  0  0  0  0  0  0
   17.8576   -1.6873   43.0137 C   0  0  0  0  0  0  0  0  0  0  0  0
   22.5451   -1.1636   40.1460 N   0  0  0  0  0  0  0  0  0  0  0  0
   23.4161   -1.0016   39.0212 C   0  0  2  0  0  0  0  0  0  0  0  0
   23.1947   -1.7792   37.8152 C   0  0  0  0  0  0  0  0  0  0  0  0
   23.4869   -1.2648   36.6553 O   0  0  0  0  0  0  0  0  0  0  0  0
   24.8844   -1.0087   39.4162 C   0  0  0  0  0  0  0  0  0  0  0  0
   25.5085    0.2048   39.8891 C   0  0  1  0  0  0  0  0  0  0  0  0
   26.9684    0.2158   40.2040 C   0  0  0  0  0  0  0  0  0  0  0  0
   25.2804    1.4528   38.9992 C   0  0  0  0  0  0  0  0  0  0  0  0
   22.6760   -3.1035   37.7029 N   0  0  0  0  0  0  0  0  0  0  0  0
   22.0900   -3.5191   36.4070 C   0  0  2  0  0  0  0  0  0  0  0  0
   20.8580   -2.8922   36.0387 C   0  0  0  0  0  0  0  0  0  0  0  0
   20.0569   -3.5596   35.2999 O   0  0  0  0  0  0  0  0  0  0  0  0
   22.0083   -5.0390   36.4847 C   0  0  0  0  0  0  0  0  0  0  0  0
   23.3021   -5.7565   36.6072 C   0  0  1  0  0  0  0  0  0  0  0  0
   24.3575   -5.1727   35.6758 C   0  0  0  0  0  0  0  0  0  0  0  0
   23.8066   -5.4975   38.0340 C   0  0  0  0  0  0  0  0  0  0  0  0
   20.3749   -1.6009   36.3856 N   0  0  0  0  0  0  0  0  0  0  0  0
   19.2134   -1.0361   35.7048 C   0  0  2  0  0  0  0  0  0  0  0  0
   19.5324   -0.1624   34.5754 C   0  0  0  0  0  0  0  0  0  0  0  0
   18.6395    0.7035   34.2801 O   0  0  0  0  0  0  0  0  0  0  0  0
   18.2696   -0.4324   36.7208 C   0  0  0  0  0  0  0  0  0  0  0  0
   17.3682   -1.4369   37.3141 C   0  0  0  0  0  0  0  0  0  0  0  0
   16.8362   -2.4715   36.5664 C   0  0  0  0  0  0  0  0  0  0  0  0
   16.9863   -1.3643   38.6543 C   0  0  0  0  0  0  0  0  0  0  0  0
   15.9815   -3.3604   37.1459 C   0  0  0  0  0  0  0  0  0  0  0  0
   16.1296   -2.2579   39.2355 C   0  0  0  0  0  0  0  0  0  0  0  0
   15.6004   -3.2912   38.4781 C   0  0  0  0  0  0  0  0  0  0  0  0
   20.6907   -0.1712   33.7898 N   0  0  0  0  0  0  0  0  0  0  0  0
   21.1025    1.0543   33.1112 C   0  0  2  0  0  0  0  0  0  0  0  0
   22.2548    0.9006   32.2426 C   0  0  0  0  0  0  0  0  0  0  0  0
   23.1987   -0.1265   32.3480 O   0  0  0  0  0  1  0  0  0  0  0  0
   21.1054    2.2615   34.0008 C   0  0  0  0  0  0  0  0  0  0  0  0
   19.7720    2.9028   34.1616 C   0  0  1  0  0  0  0  0  0  0  0  0
   19.3940    3.1026   35.6040 C   0  0  0  0  0  0  0  0  0  0  0  0
   19.7294    4.2292   33.4092 C   0  0  0  0  0  0  0  0  0  0  0  0
   22.4918    1.7246   31.2952 O   0  0  0  0  0  0  0  0  0  0  0  0
  2  1  1  6
  2  3  1  0
  2  5  1  0
  3  4  2  0
  3  9  1  0
  5  6  1  0
  6  7  1  0
  7  8  1  0
  9 10  1  0
 10 11  1  0
 10 13  1  6
 11 12  2  0
 11 23  1  0
 13 14  1  0
 14 15  2  0
 14 16  1  0
 15 17  1  0
 16 18  2  0
 16 19  1  0
 17 18  1  0
 18 20  1  0
 19 21  2  0
 20 22  2  0
 21 22  1  0
 23 24  1  0
 24 25  1  0
 24 27  1  1
 25 26  2  0
 25 31  1  0
 27 28  1  0
 28 29  1  6
 28 30  1  0
 31 32  1  0
 32 33  1  0
 32 35  1  1
 33 34  2  0
 33 39  1  0
 35 36  1  0
 36 37  1  1
 36 38  1  0
 39 40  1  0
 40 41  1  0
 40 43  1  1
 41 42  2  0
 41 47  1  0
 43 44  1  0
 44 45  1  6
 44 46  1  0
 47 48  1  0
 48 49  1  0
 48 51  1  1
 49 50  2  0
 49 55  1  0
 51 52  1  0
 52 53  1  6
 52 54  1  0
 55 56  1  0
 56 57  1  0
 56 59  1  1
 57 58  2  0
 57 66  1  0
 59 60  1  0
 60 61  2  0
 60 62  1  0
 61 63  1  0
 62 64  2  0
 63 65  2  0
 64 65  1  0
 66 67  1  0
 67 68  1  0
 67 70  1  1
 68 69  1  0
 68 74  2  0
 70 71  1  0
 71 72  1  1
 71 73  1  0
M  CHG  2   1   1  69  -1
M  END
$$$$
