
     RDKit          3D

 74 76  0  0  0  0  0  0  0  0999 V2000
   29.9251   -0.8501   43.0311 N   0  0  0  0  0  4  0  0  0  0  0  0
   28.9446   -0.0810   42.2990 C   0  0  2  0  0  0  0  0  0  0  0  0
   27.7088   -0.9057   42.1260 C   0  0  0  0  0  0  0  0  0  0  0  0
   27.6607   -2.0066   42.7935 O   0  0  0  0  0  0  0  0  0  0  0  0
   29.5000    0.1488   40.8843 C   0  0  0  0  0  0  0  0  0  0  0  0
   30.7866    0.9070   40.8920 C   0  0  0  0  0  0  0  0  0  0  0  0
   31.4837    1.1814   39.2883 S   0  0  0  0  0  0  0  0  0  0  0  0
   31.6693    2.8706   38.7385 C   0  0  0  0  0  0  0  0  0  0  0  0
   26.6267   -0.5492   41.3126 N   0  0  0  0  0  0  0  0  0  0  0  0
   25.2878   -1.0523   41.7296 C   0  0  2  0  0  0  0  0  0  0  0  0
   24.7618   -2.1029   40.9091 C   0  0  0  0  0  0  0  0  0  0  0  0
   25.0316   -2.0492   39.6528 O   0  0  0  0  0  0  0  0  0  0  0  0
   24.4318    0.2069   41.7461 C   0  0  0  0  0  0  0  0  0  0  0  0
   22.9952    0.0227   41.7617 C   0  0  0  0  0  0  0  0  0  0  0  0
   22.1677   -0.2920   40.7101 C   0  0  0  0  0  0  0  0  0  0  0  0
   22.1808    0.0476   42.8919 C   0  0  0  0  0  0  0  0  0  0  0  0
   20.9042   -0.4507   41.1763 N   0  0  0  0  0  0  0  0  0  0  0  0
   20.8763   -0.2473   42.5116 C   0  0  0  0  0  0  0  0  0  0  0  0
   22.5077    0.3518   44.2059 C   0  0  0  0  0  0  0  0  0  0  0  0
   19.8710   -0.2451   43.4489 C   0  0  0  0  0  0  0  0  0  0  0  0
   21.4818    0.3563   45.1663 C   0  0  0  0  0  0  0  0  0  0  0  0
   20.2203    0.0581   44.7412 C   0  0  0  0  0  0  0  0  0  0  0  0
   23.9453   -3.2304   41.3480 N   0  0  0  0  0  0  0  0  0  0  0  0
   24.0556   -4.4391   40.6006 C   0  0  2  0  0  0  0  0  0  0  0  0
   23.2787   -5.5908   41.2079 C   0  0  0  0  0  0  0  0  0  0  0  0
   23.0173   -6.5544   40.4591 O   0  0  0  0  0  0  0  0  0  0  0  0
   25.4390   -4.8983   40.3323 C   0  0  0  0  0  0  0  0  0  0  0  0
   25.8252   -6.1694   40.9923 C   0  0  1  0  0  0  0  0  0  0  0  0
   26.9093   -6.9147   40.2134 C   0  0  0  0  0  0  0  0  0  0  0  0
   26.3207   -6.0296   42.4144 C   0  0  0  0  0  0  0  0  0  0  0  0
   22.8362   -5.6956   42.5213 N   0  0  0  0  0  0  0  0  0  0  0  0
   21.6568   -6.4647   42.9148 C   0  0  2  0  0  0  0  0  0  0  0  0
   20.5220   -5.8611   42.2572 C   0  0  0  0  0  0  0  0  0  0  0  0
   19.3339   -6.2060   42.6464 O   0  0  0  0  0  0  0  0  0  0  0  0
   21.5348   -6.5986   44.4067 C   0  0  0  0  0  0  0  0  0  0  0  0
   22.3587   -7.7187   44.9989 C   0  0  1  0  0  0  0  0  0  0  0  0
   23.5406   -8.0103   44.0471 C   0  0  0  0  0  0  0  0  0  0  0  0
   23.0268   -7.2884   46.2931 C   0  0  0  0  0  0  0  0  0  0  0  0
   20.6150   -4.8969   41.2004 N   0  0  0  0  0  0  0  0  0  0  0  0
   19.4142   -4.3262   40.6691 C   0  0  2  0  0  0  0  0  0  0  0  0
   19.4477   -3.6160   39.4032 C   0  0  0  0  0  0  0  0  0  0  0  0
   20.3950   -2.7525   39.1748 O   0  0  0  0  0  0  0  0  0  0  0  0
   18.6276   -3.5492   41.7129 C   0  0  0  0  0  0  0  0  0  0  0  0
   18.0681   -2.2600   41.3804 C   0  0  1  0  0  0  0  0  0  0  0  0
   17.0855   -1.6160   42.3025 C   0  0  0  0  0  0  0  0  0  0  0  0
   19.1060   -1.1536   41.0635 C   0  0  0  0  0  0  0  0  0  0  0  0
   18.5455   -3.7306   38.3040 N   0  0  0  0  0  0  0  0  0  0  0  0
   18.8557   -2.9843   37.0620 C   0  0  2  0  0  0  0  0  0  0  0  0
   18.6571   -1.5683   37.1075 C   0  0  0  0  0  0  0  0  0  0  0  0
   18.0908   -1.0217   36.1006 O   0  0  0  0  0  0  0  0  0  0  0  0
   18.0501   -3.6844   35.9740 C   0  0  0  0  0  0  0  0  0  0  0  0
   18.2334   -3.1701   34.5935 C   0  0  1  0  0  0  0  0  0  0  0  0
   17.3346   -3.8967   33.6004 C   0  0  0  0  0  0  0  0  0  0  0  0
   17.7553   -1.7113   34.6086 C   0  0  0  0  0  0  0  0  0  0  0  0
   19.0017   -0.6512   38.1377 N   0  0  0  0  0  0  0  0  0  0  0  0
   18.9942    0.7864   37.8838 C   0  0  2  0  0  0  0  0  0  0  0  0
   20.3118    1.4211   37.9263 C   0  0  0  0  0  0  0  0  0  0  0  0
   21.0822    1.0272   38.8674 O   0  0  0  0  0  0  0  0  0  0  0  0
   17.9465    1.4522   38.7479 C   0  0  0  0  0  0  0  0  0  0  0  0
   16.6179    0.8318   38.5952 C   0  0  0  0  0  0  0  0  0  0  0  0
   16.1335   -0.0883   39.5070 C   0  0  0  0  0  0  0  0  0  0  0  0
   15.8044    1.1245   37.4999 C   0  0  0  0  0  0  0  0  0  0  0  0
   14.9133   -0.6622   39.3117 C   0  0  0  0  0  0  0  0  0  0  0  0
   14.5790    0.5491   37.3056 C   0  0  0  0  0  0  0  0  0  0  0  0
   14.1021   -0.3729   38.2240 C   0  0  0  0  0  0  0  0  0  0  0  0
   20.8153    2.4017   37.0640 N   0  0  0  0  0  0  0  0  0  0  0  0
   22.2126    2.8084   37.1836 C   0  0  2  0  0  0  0  0  0  0  0  0
   22.6404    3.7819   36.1960 C   0  0  0  0  0  0  0  0  0  0  0  0
   22.2392    3.7840   34.8557 O   0  0  0  0  0  1  0  0  0  0  0  0
   23.1516    1.6659   37.4310 C   0  0  0  0  0  0  0  0  0  0  0  0
   24.5915    2.0392   37.3819 C   0  0  1  0  0  0  0  0  0  0  0  0
   24.8462    3.4366   37.8773 C   0  0  0  0  0  0  0  0  0  0  0  0
   25.4254    1.0328   38.1687 C   0  0  0  0  0  0  0  0  0  0  0  0
   23.4419    4.7305   36.4966 O   0  0  0  0  0  0  0  0  0  0  0  0
  2  1  1  1
  2  3  1  0
  2  5  1  0
  3  4  2  0
  3  9  1  0
  5  6  1  0
  6  7  1  0
  7  8  1  0
  9 10  1  0
 10 11  1  0
 10 13  1  6
 11 12  2  0
 11 23  1  0
 13 14  1  0
 14 15  2  0
 14 16  1  0
 15 17  1  0
 16 18  2  0
 16 19  1  0
 17 18  1  0
 18 20  1  0
 19 21  2  0
 20 22  2  0
 21 22  1  0
 23 24  1  0
 24 25  1  0
 24 27  1  1
 25 26  2  0
 25 31  1  0
 27 28  1  0
 28 29  1  6
 28 30  1  0
 31 32  1  0
 32 33  1  0
 32 35  1  1
 33 34  2  0
 33 39  1  0
 35 36  1  0
 36 37  1  6
 36 38  1  0
 39 40  1  0
 40 41  1  0
 40 43  1  1
 41 42  2  0
 41 47  1  0
 43 44  1  0
 44 45  1  1
 44 46  1  0
 47 48  1  0
 48 49  1  0
 48 51  1  6
 49 50  2  0
 49 55  1  0
 51 52  1  0
 52 53  1  6
 52 54  1  0
 55 56  1  0
 56 57  1  0
 56 59  1  1
 57 58  2  0
 57 66  1  0
 59 60  1  0
 60 61  2  0
 60 62  1  0
 61 63  1  0
 62 64  2  0
 63 65  2  0
 64 65  1  0
 66 67  1  0
 67 68  1  0
 67 70  1  6
 68 69  1  0
 68 74  2  0
 70 71  1  0
 71 72  1  1
 71 73  1  0
M  CHG  2   1   1  69  -1
M  END
$$$$
