
     RDKit          3D

 74 76  0  0  0  0  0  0  0  0999 V2000
   29.9127   -1.7268   47.1128 N   0  0  0  0  0  4  0  0  0  0  0  0
   28.6280   -1.0654   47.1412 C   0  0  2  0  0  0  0  0  0  0  0  0
   27.7186   -1.7250   46.1537 C   0  0  0  0  0  0  0  0  0  0  0  0
   28.2258   -1.9865   44.9986 O   0  0  0  0  0  0  0  0  0  0  0  0
   28.8355    0.3695   46.6308 C   0  0  0  0  0  0  0  0  0  0  0  0
   27.5611    1.1461   46.5760 C   0  0  0  0  0  0  0  0  0  0  0  0
   27.7083    2.8313   47.0967 S   0  0  0  0  0  0  0  0  0  0  0  0
   28.4808    3.9859   45.9740 C   0  0  0  0  0  0  0  0  0  0  0  0
   26.3888   -2.0766   46.4141 N   0  0  0  0  0  0  0  0  0  0  0  0
   25.7112   -2.9191   45.3891 C   0  0  2  0  0  0  0  0  0  0  0  0
   25.3588   -2.2274   44.1845 C   0  0  0  0  0  0  0  0  0  0  0  0
   24.5274   -1.2527   44.2964 O   0  0  0  0  0  0  0  0  0  0  0  0
   24.5200   -3.4946   46.1430 C   0  0  0  0  0  0  0  0  0  0  0  0
   23.5888   -4.3003   45.3802 C   0  0  0  0  0  0  0  0  0  0  0  0
   23.6710   -5.6395   45.0815 C   0  0  0  0  0  0  0  0  0  0  0  0
   22.3654   -3.8714   44.8698 C   0  0  0  0  0  0  0  0  0  0  0  0
   22.5491   -6.0122   44.4171 N   0  0  0  0  0  0  0  0  0  0  0  0
   21.7271   -4.9504   44.2683 C   0  0  0  0  0  0  0  0  0  0  0  0
   21.8103   -2.5995   44.8661 C   0  0  0  0  0  0  0  0  0  0  0  0
   20.5119   -4.7720   43.6512 C   0  0  0  0  0  0  0  0  0  0  0  0
   20.5687   -2.4136   44.2348 C   0  0  0  0  0  0  0  0  0  0  0  0
   19.9840   -3.5050   43.6621 C   0  0  0  0  0  0  0  0  0  0  0  0
   25.8415   -2.5148   42.8373 N   0  0  0  0  0  0  0  0  0  0  0  0
   25.2107   -1.8230   41.7625 C   0  0  2  0  0  0  0  0  0  0  0  0
   24.2692   -2.6983   40.9586 C   0  0  0  0  0  0  0  0  0  0  0  0
   24.7702   -3.6806   40.3740 O   0  0  0  0  0  0  0  0  0  0  0  0
   26.1270   -1.1353   40.8223 C   0  0  0  0  0  0  0  0  0  0  0  0
   27.2977   -0.4727   41.4473 C   0  0  1  0  0  0  0  0  0  0  0  0
   27.5117   -0.9272   42.8913 C   0  0  0  0  0  0  0  0  0  0  0  0
   28.6105   -0.6714   40.7230 C   0  0  0  0  0  0  0  0  0  0  0  0
   22.8969   -2.5313   40.8137 N   0  0  0  0  0  0  0  0  0  0  0  0
   22.0812   -3.3262   39.8971 C   0  0  2  0  0  0  0  0  0  0  0  0
   22.4639   -2.9482   38.5573 C   0  0  0  0  0  0  0  0  0  0  0  0
   22.3667   -1.6991   38.2221 O   0  0  0  0  0  0  0  0  0  0  0  0
   20.6131   -3.2158   40.1982 C   0  0  0  0  0  0  0  0  0  0  0  0
   19.9658   -4.5156   40.6174 C   0  0  1  0  0  0  0  0  0  0  0  0
   20.3071   -4.7734   42.1023 C   0  0  0  0  0  0  0  0  0  0  0  0
   18.4509   -4.4085   40.6018 C   0  0  0  0  0  0  0  0  0  0  0  0
   22.9521   -3.8605   37.5651 N   0  0  0  0  0  0  0  0  0  0  0  0
   23.1726   -3.3883   36.2315 C   0  0  2  0  0  0  0  0  0  0  0  0
   22.1566   -2.5915   35.5675 C   0  0  0  0  0  0  0  0  0  0  0  0
   22.1223   -1.3040   35.7582 O   0  0  0  0  0  0  0  0  0  0  0  0
   23.7065   -4.4739   35.3104 C   0  0  0  0  0  0  0  0  0  0  0  0
   25.1239   -4.7475   35.2661 C   0  0  1  0  0  0  0  0  0  0  0  0
   25.9630   -4.5203   36.4805 C   0  0  0  0  0  0  0  0  0  0  0  0
   25.5056   -6.1666   34.7741 C   0  0  0  0  0  0  0  0  0  0  0  0
   21.1292   -3.0333   34.6817 N   0  0  0  0  0  0  0  0  0  0  0  0
   20.1173   -2.0474   34.2349 C   0  0  2  0  0  0  0  0  0  0  0  0
   19.0361   -1.7960   35.1373 C   0  0  0  0  0  0  0  0  0  0  0  0
   18.1315   -0.9774   34.7570 O   0  0  0  0  0  0  0  0  0  0  0  0
   19.6721   -2.5390   32.8626 C   0  0  0  0  0  0  0  0  0  0  0  0
   20.4817   -2.0735   31.7087 C   0  0  1  0  0  0  0  0  0  0  0  0
   19.6168   -1.8329   30.4774 C   0  0  0  0  0  0  0  0  0  0  0  0
   21.0479   -0.7020   32.1030 C   0  0  0  0  0  0  0  0  0  0  0  0
   18.8083   -2.3400   36.4309 N   0  0  0  0  0  0  0  0  0  0  0  0
   17.6017   -1.9967   37.1777 C   0  0  2  0  0  0  0  0  0  0  0  0
   17.6670   -0.7209   37.8910 C   0  0  0  0  0  0  0  0  0  0  0  0
   16.7319   -0.5155   38.7381 O   0  0  0  0  0  0  0  0  0  0  0  0
   17.1759   -3.1725   38.0284 C   0  0  0  0  0  0  0  0  0  0  0  0
   16.3092   -4.1112   37.2929 C   0  0  0  0  0  0  0  0  0  0  0  0
   15.8792   -5.2997   37.8544 C   0  0  0  0  0  0  0  0  0  0  0  0
   15.9128   -3.8527   35.9801 C   0  0  0  0  0  0  0  0  0  0  0  0
   15.1052   -6.1544   37.1287 C   0  0  0  0  0  0  0  0  0  0  0  0
   15.1345   -4.7105   35.2530 C   0  0  0  0  0  0  0  0  0  0  0  0
   14.7091   -5.8999   35.8236 C   0  0  0  0  0  0  0  0  0  0  0  0
   18.6257    0.2887   37.7485 N   0  0  0  0  0  0  0  0  0  0  0  0
   19.0968    0.9985   38.9343 C   0  0  2  0  0  0  0  0  0  0  0  0
   20.0983    2.0141   38.6670 C   0  0  0  0  0  0  0  0  0  0  0  0
   20.6446    2.8661   39.6328 O   0  0  0  0  0  1  0  0  0  0  0  0
   19.3667    0.1002   40.1043 C   0  0  0  0  0  0  0  0  0  0  0  0
   19.5800    0.8206   41.3890 C   0  0  1  0  0  0  0  0  0  0  0  0
   18.5524    0.4685   42.4297 C   0  0  0  0  0  0  0  0  0  0  0  0
   20.9869    0.5559   41.9160 C   0  0  0  0  0  0  0  0  0  0  0  0
   20.5588    2.2047   37.4904 O   0  0  0  0  0  0  0  0  0  0  0  0
  2  1  1  6
  2  3  1  0
  2  5  1  0
  3  4  2  0
  3  9  1  0
  5  6  1  0
  6  7  1  0
  7  8  1  0
  9 10  1  0
 10 11  1  0
 10 13  1  1
 11 12  2  0
 11 23  1  0
 13 14  1  0
 14 15  2  0
 14 16  1  0
 15 17  1  0
 16 18  2  0
 16 19  1  0
 17 18  1  0
 18 20  1  0
 19 21  2  0
 20 22  2  0
 21 22  1  0
 23 24  1  0
 24 25  1  0
 24 27  1  6
 25 26  2  0
 25 31  1  0
 27 28  1  0
 28 29  1  1
 28 30  1  0
 31 32  1  0
 32 33  1  0
 32 35  1  1
 33 34  2  0
 33 39  1  0
 35 36  1  0
 36 37  1  1
 36 38  1  0
 39 40  1  0
 40 41  1  0
 40 43  1  6
 41 42  2  0
 41 47  1  0
 43 44  1  0
 44 45  1  1
 44 46  1  0
 47 48  1  0
 48 49  1  0
 48 51  1  6
 49 50  2  0
 49 55  1  0
 51 52  1  0
 52 53  1  6
 52 54  1  0
 55 56  1  0
 56 57  1  0
 56 59  1  1
 57 58  2  0
 57 66  1  0
 59 60  1  0
 60 61  2  0
 60 62  1  0
 61 63  1  0
 62 64  2  0
 63 65  2  0
 64 65  1  0
 66 67  1  0
 67 68  1  0
 67 70  1  1
 68 69  1  0
 68 74  2  0
 70 71  1  0
 71 72  1  1
 71 73  1  0
M  CHG  2   1   1  69  -1
M  END
$$$$
