
     RDKit          3D

 74 76  0  0  0  0  0  0  0  0999 V2000
   28.2910    1.5598   46.1563 N   0  0  0  0  0  4  0  0  0  0  0  0
   27.9740    0.4671   45.2651 C   0  0  2  0  0  0  0  0  0  0  0  0
   26.8518    0.8809   44.3669 C   0  0  0  0  0  0  0  0  0  0  0  0
   26.2479    1.9758   44.6774 O   0  0  0  0  0  0  0  0  0  0  0  0
   27.4253   -0.6844   46.1227 C   0  0  0  0  0  0  0  0  0  0  0  0
   25.9857   -0.4991   46.4741 C   0  0  0  0  0  0  0  0  0  0  0  0
   25.2832   -1.8290   47.4072 S   0  0  0  0  0  0  0  0  0  0  0  0
   25.7395   -1.9714   49.1282 C   0  0  0  0  0  0  0  0  0  0  0  0
   26.4436    0.1709   43.2316 N   0  0  0  0  0  0  0  0  0  0  0  0
   25.2621    0.7086   42.5006 C   0  0  2  0  0  0  0  0  0  0  0  0
   24.0717   -0.0792   42.6266 C   0  0  0  0  0  0  0  0  0  0  0  0
   23.7756   -0.5000   43.8052 O   0  0  0  0  0  0  0  0  0  0  0  0
   25.7675    0.8412   41.0704 C   0  0  0  0  0  0  0  0  0  0  0  0
   24.8090    1.2723   40.0738 C   0  0  0  0  0  0  0  0  0  0  0  0
   24.1570    2.4795   39.9886 C   0  0  0  0  0  0  0  0  0  0  0  0
   24.4281    0.5540   38.9423 C   0  0  0  0  0  0  0  0  0  0  0  0
   23.4100    2.4977   38.8569 N   0  0  0  0  0  0  0  0  0  0  0  0
   23.5518    1.3301   38.1920 C   0  0  0  0  0  0  0  0  0  0  0  0
   24.7682   -0.7371   38.5636 C   0  0  0  0  0  0  0  0  0  0  0  0
   23.0000    0.8229   37.0398 C   0  0  0  0  0  0  0  0  0  0  0  0
   24.2047   -1.2590   37.3868 C   0  0  0  0  0  0  0  0  0  0  0  0
   23.3530   -0.4557   36.6866 C   0  0  0  0  0  0  0  0  0  0  0  0
   23.1572   -0.4604   41.5547 N   0  0  0  0  0  0  0  0  0  0  0  0
   21.9445   -1.1047   41.9371 C   0  0  2  0  0  0  0  0  0  0  0  0
   21.0908   -1.5221   40.7557 C   0  0  0  0  0  0  0  0  0  0  0  0
   20.2253   -2.3969   40.9638 O   0  0  0  0  0  0  0  0  0  0  0  0
   21.0928   -0.3485   42.8854 C   0  0  0  0  0  0  0  0  0  0  0  0
   19.8320   -1.0217   43.2820 C   0  0  1  0  0  0  0  0  0  0  0  0
   18.6305   -0.0790   43.2106 C   0  0  0  0  0  0  0  0  0  0  0  0
   19.4779   -2.2498   42.4733 C   0  0  0  0  0  0  0  0  0  0  0  0
   21.1594   -1.0215   39.4608 N   0  0  0  0  0  0  0  0  0  0  0  0
   20.7115   -1.7656   38.2849 C   0  0  2  0  0  0  0  0  0  0  0  0
   21.6674   -2.8258   38.0683 C   0  0  0  0  0  0  0  0  0  0  0  0
   22.2894   -2.8665   36.9310 O   0  0  0  0  0  0  0  0  0  0  0  0
   20.4695   -0.8710   37.1019 C   0  0  0  0  0  0  0  0  0  0  0  0
   19.2400   -0.0005   37.2229 C   0  0  1  0  0  0  0  0  0  0  0  0
   19.1683    0.9170   35.9816 C   0  0  0  0  0  0  0  0  0  0  0  0
   17.9681   -0.8266   37.1433 C   0  0  0  0  0  0  0  0  0  0  0  0
   21.9843   -3.8412   39.0294 N   0  0  0  0  0  0  0  0  0  0  0  0
   23.2690   -4.4714   38.9804 C   0  0  2  0  0  0  0  0  0  0  0  0
   23.7294   -5.2668   40.1044 C   0  0  0  0  0  0  0  0  0  0  0  0
   24.7334   -6.0810   39.9480 O   0  0  0  0  0  0  0  0  0  0  0  0
   24.3597   -3.5324   38.4900 C   0  0  0  0  0  0  0  0  0  0  0  0
   24.7202   -3.5157   37.0916 C   0  0  1  0  0  0  0  0  0  0  0  0
   25.7622   -2.5634   36.6040 C   0  0  0  0  0  0  0  0  0  0  0  0
   25.1231   -4.8897   36.4989 C   0  0  0  0  0  0  0  0  0  0  0  0
   23.2180   -5.2903   41.4360 N   0  0  0  0  0  0  0  0  0  0  0  0
   22.5988   -6.5439   41.9269 C   0  0  2  0  0  0  0  0  0  0  0  0
   21.3160   -6.8713   41.3850 C   0  0  0  0  0  0  0  0  0  0  0  0
   21.0073   -8.1092   41.3126 O   0  0  0  0  0  0  0  0  0  0  0  0
   22.6115   -6.4171   43.4457 C   0  0  0  0  0  0  0  0  0  0  0  0
   21.4095   -5.7982   44.0587 C   0  0  1  0  0  0  0  0  0  0  0  0
   20.6075   -6.8109   44.8670 C   0  0  0  0  0  0  0  0  0  0  0  0
   21.9239   -4.7624   45.0685 C   0  0  0  0  0  0  0  0  0  0  0  0
   20.3011   -5.9994   40.9046 N   0  0  0  0  0  0  0  0  0  0  0  0
   19.0971   -6.5372   40.2779 C   0  0  2  0  0  0  0  0  0  0  0  0
   19.2008   -6.7444   38.8332 C   0  0  0  0  0  0  0  0  0  0  0  0
   18.1255   -7.1190   38.2523 O   0  0  0  0  0  0  0  0  0  0  0  0
   17.8921   -5.7337   40.7137 C   0  0  0  0  0  0  0  0  0  0  0  0
   17.8853   -4.3769   40.1371 C   0  0  0  0  0  0  0  0  0  0  0  0
   16.8000   -3.5310   40.2754 C   0  0  0  0  0  0  0  0  0  0  0  0
   18.9670   -3.9008   39.3951 C   0  0  0  0  0  0  0  0  0  0  0  0
   16.8217   -2.2964   39.6995 C   0  0  0  0  0  0  0  0  0  0  0  0
   18.9885   -2.6608   38.8188 C   0  0  0  0  0  0  0  0  0  0  0  0
   17.8958   -1.8201   38.9618 C   0  0  0  0  0  0  0  0  0  0  0  0
   20.3333   -6.5831   38.0269 N   0  0  0  0  0  0  0  0  0  0  0  0
   20.2746   -6.9861   36.6247 C   0  0  2  0  0  0  0  0  0  0  0  0
   20.7524   -8.3319   36.3670 C   0  0  0  0  0  0  0  0  0  0  0  0
   21.3794   -9.1482   37.3144 O   0  0  0  0  0  1  0  0  0  0  0  0
   20.7482   -5.9267   35.6750 C   0  0  0  0  0  0  0  0  0  0  0  0
   19.9763   -4.6561   35.7456 C   0  0  1  0  0  0  0  0  0  0  0  0
   20.6810   -3.5105   35.0718 C   0  0  0  0  0  0  0  0  0  0  0  0
   18.5840   -4.8500   35.1532 C   0  0  0  0  0  0  0  0  0  0  0  0
   20.6302   -8.8754   35.2171 O   0  0  0  0  0  0  0  0  0  0  0  0
  2  1  1  1
  2  3  1  0
  2  5  1  0
  3  4  2  0
  3  9  1  0
  5  6  1  0
  6  7  1  0
  7  8  1  0
  9 10  1  0
 10 11  1  0
 10 13  1  6
 11 12  2  0
 11 23  1  0
 13 14  1  0
 14 15  2  0
 14 16  1  0
 15 17  1  0
 16 18  2  0
 16 19  1  0
 17 18  1  0
 18 20  1  0
 19 21  2  0
 20 22  2  0
 21 22  1  0
 23 24  1  0
 24 25  1  0
 24 27  1  1
 25 26  2  0
 25 31  1  0
 27 28  1  0
 28 29  1  6
 28 30  1  0
 31 32  1  0
 32 33  1  0
 32 35  1  6
 33 34  2  0
 33 39  1  0
 35 36  1  0
 36 37  1  6
 36 38  1  0
 39 40  1  0
 40 41  1  0
 40 43  1  1
 41 42  2  0
 41 47  1  0
 43 44  1  0
 44 45  1  1
 44 46  1  0
 47 48  1  0
 48 49  1  0
 48 51  1  1
 49 50  2  0
 49 55  1  0
 51 52  1  0
 52 53  1  1
 52 54  1  0
 55 56  1  0
 56 57  1  0
 56 59  1  6
 57 58  2  0
 57 66  1  0
 59 60  1  0
 60 61  2  0
 60 62  1  0
 61 63  1  0
 62 64  2  0
 63 65  2  0
 64 65  1  0
 66 67  1  0
 67 68  1  0
 67 70  1  6
 68 69  1  0
 68 74  2  0
 70 71  1  0
 71 72  1  6
 71 73  1  0
M  CHG  2   1   1  69  -1
M  END
$$$$
