
     RDKit          3D

 74 76  0  0  0  0  0  0  0  0999 V2000
   27.9036   -5.0623   40.3056 N   0  0  0  0  0  4  0  0  0  0  0  0
   27.1806   -6.2380   40.7342 C   0  0  2  0  0  0  0  0  0  0  0  0
   25.7697   -6.1472   40.2458 C   0  0  0  0  0  0  0  0  0  0  0  0
   25.4260   -5.0310   39.7018 O   0  0  0  0  0  0  0  0  0  0  0  0
   27.0993   -6.1969   42.2685 C   0  0  0  0  0  0  0  0  0  0  0  0
   26.0682   -7.1310   42.8111 C   0  0  0  0  0  0  0  0  0  0  0  0
   26.6279   -8.7971   43.0202 S   0  0  0  0  0  0  0  0  0  0  0  0
   27.0982   -9.3182   44.6626 C   0  0  0  0  0  0  0  0  0  0  0  0
   24.8338   -7.1846   40.3322 N   0  0  0  0  0  0  0  0  0  0  0  0
   23.5325   -6.9651   39.6409 C   0  0  2  0  0  0  0  0  0  0  0  0
   22.6375   -6.0753   40.3198 C   0  0  0  0  0  0  0  0  0  0  0  0
   21.6430   -5.6225   39.6415 O   0  0  0  0  0  0  0  0  0  0  0  0
   22.9877   -8.3763   39.4667 C   0  0  0  0  0  0  0  0  0  0  0  0
   21.6346   -8.6175   39.9238 C   0  0  0  0  0  0  0  0  0  0  0  0
   21.2184   -9.0225   41.1697 C   0  0  0  0  0  0  0  0  0  0  0  0
   20.4722   -8.3944   39.1887 C   0  0  0  0  0  0  0  0  0  0  0  0
   19.8628   -9.0474   41.1947 N   0  0  0  0  0  0  0  0  0  0  0  0
   19.3725   -8.6693   39.9938 C   0  0  0  0  0  0  0  0  0  0  0  0
   20.3293   -8.0119   37.8623 C   0  0  0  0  0  0  0  0  0  0  0  0
   18.1020   -8.5619   39.4804 C   0  0  0  0  0  0  0  0  0  0  0  0
   19.0317   -7.9025   37.3341 C   0  0  0  0  0  0  0  0  0  0  0  0
   17.9876   -8.1811   38.1666 C   0  0  0  0  0  0  0  0  0  0  0  0
   22.7364   -5.6225   41.7039 N   0  0  0  0  0  0  0  0  0  0  0  0
   21.9489   -4.4933   42.0733 C   0  0  2  0  0  0  0  0  0  0  0  0
   22.4622   -3.1904   41.4922 C   0  0  0  0  0  0  0  0  0  0  0  0
   21.6838   -2.2150   41.5146 O   0  0  0  0  0  0  0  0  0  0  0  0
   21.7451   -4.3075   43.5295 C   0  0  0  0  0  0  0  0  0  0  0  0
   20.6849   -5.1502   44.1347 C   0  0  1  0  0  0  0  0  0  0  0  0
   19.3469   -4.4155   44.2212 C   0  0  0  0  0  0  0  0  0  0  0  0
   20.4237   -6.4607   43.4263 C   0  0  0  0  0  0  0  0  0  0  0  0
   23.7198   -2.9603   40.9468 N   0  0  0  0  0  0  0  0  0  0  0  0
   24.1679   -1.6491   40.4806 C   0  0  2  0  0  0  0  0  0  0  0  0
   23.7901   -1.5447   39.0910 C   0  0  0  0  0  0  0  0  0  0  0  0
   23.6672   -0.3602   38.5773 O   0  0  0  0  0  0  0  0  0  0  0  0
   25.6233   -1.4085   40.7677 C   0  0  0  0  0  0  0  0  0  0  0  0
   26.1739   -0.1382   40.1617 C   0  0  1  0  0  0  0  0  0  0  0  0
   27.6183    0.0598   40.6736 C   0  0  0  0  0  0  0  0  0  0  0  0
   26.3317   -0.2672   38.6567 C   0  0  0  0  0  0  0  0  0  0  0  0
   23.5443   -2.6648   38.2307 N   0  0  0  0  0  0  0  0  0  0  0  0
   22.7233   -2.4868   37.0713 C   0  0  2  0  0  0  0  0  0  0  0  0
   21.3124   -2.1795   37.2224 C   0  0  0  0  0  0  0  0  0  0  0  0
   20.7039   -1.4829   36.3060 O   0  0  0  0  0  0  0  0  0  0  0  0
   22.9389   -3.5763   36.0327 C   0  0  0  0  0  0  0  0  0  0  0  0
   24.2795   -3.9334   35.6316 C   0  0  1  0  0  0  0  0  0  0  0  0
   24.5186   -5.2067   34.8886 C   0  0  0  0  0  0  0  0  0  0  0  0
   25.0362   -2.8490   34.8236 C   0  0  0  0  0  0  0  0  0  0  0  0
   20.4385   -2.5505   38.2873 N   0  0  0  0  0  0  0  0  0  0  0  0
   19.0915   -1.9349   38.3352 C   0  0  2  0  0  0  0  0  0  0  0  0
   19.0471   -0.5265   38.5818 C   0  0  0  0  0  0  0  0  0  0  0  0
   17.9641   -0.0480   39.0630 O   0  0  0  0  0  0  0  0  0  0  0  0
   18.3195   -2.7632   39.3555 C   0  0  0  0  0  0  0  0  0  0  0  0
   18.6069   -4.2196   39.3651 C   0  0  1  0  0  0  0  0  0  0  0  0
   20.0328   -4.5070   39.8192 C   0  0  0  0  0  0  0  0  0  0  0  0
   17.6906   -4.8341   40.4327 C   0  0  0  0  0  0  0  0  0  0  0  0
   20.0589    0.4492   38.3693 N   0  0  0  0  0  0  0  0  0  0  0  0
   19.9669    1.7626   39.0004 C   0  0  2  0  0  0  0  0  0  0  0  0
   20.9131    2.7540   38.4881 C   0  0  0  0  0  0  0  0  0  0  0  0
   21.1308    3.7541   39.2540 O   0  0  0  0  0  0  0  0  0  0  0  0
   19.9704    1.6075   40.5048 C   0  0  0  0  0  0  0  0  0  0  0  0
   18.6962    1.0697   41.0154 C   0  0  0  0  0  0  0  0  0  0  0  0
   17.8431    1.8305   41.7938 C   0  0  0  0  0  0  0  0  0  0  0  0
   18.3131   -0.2477   40.7604 C   0  0  0  0  0  0  0  0  0  0  0  0
   16.6899    1.2848   42.2722 C   0  0  0  0  0  0  0  0  0  0  0  0
   17.1547   -0.7940   41.2397 C   0  0  0  0  0  0  0  0  0  0  0  0
   16.3061   -0.0243   42.0199 C   0  0  0  0  0  0  0  0  0  0  0  0
   21.5956    2.7313   37.2664 N   0  0  0  0  0  0  0  0  0  0  0  0
   22.8366    3.4881   37.1277 C   0  0  2  0  0  0  0  0  0  0  0  0
   23.4407    3.4130   35.8104 C   0  0  0  0  0  0  0  0  0  0  0  0
   24.4126    4.2969   35.3295 O   0  0  0  0  0  1  0  0  0  0  0  0
   23.7705    3.3284   38.2899 C   0  0  0  0  0  0  0  0  0  0  0  0
   23.0892    3.2232   39.6089 C   0  0  1  0  0  0  0  0  0  0  0  0
   23.8751    2.4156   40.6056 C   0  0  0  0  0  0  0  0  0  0  0  0
   22.7922    4.6133   40.1626 C   0  0  0  0  0  0  0  0  0  0  0  0
   23.1093    2.5053   34.9743 O   0  0  0  0  0  0  0  0  0  0  0  0
  2  1  1  6
  2  3  1  0
  2  5  1  0
  3  4  2  0
  3  9  1  0
  5  6  1  0
  6  7  1  0
  7  8  1  0
  9 10  1  0
 10 11  1  0
 10 13  1  1
 11 12  2  0
 11 23  1  0
 13 14  1  0
 14 15  2  0
 14 16  1  0
 15 17  1  0
 16 18  2  0
 16 19  1  0
 17 18  1  0
 18 20  1  0
 19 21  2  0
 20 22  2  0
 21 22  1  0
 23 24  1  0
 24 25  1  0
 24 27  1  1
 25 26  2  0
 25 31  1  0
 27 28  1  0
 28 29  1  6
 28 30  1  0
 31 32  1  0
 32 33  1  0
 32 35  1  6
 33 34  2  0
 33 39  1  0
 35 36  1  0
 36 37  1  1
 36 38  1  0
 39 40  1  0
 40 41  1  0
 40 43  1  1
 41 42  2  0
 41 47  1  0
 43 44  1  0
 44 45  1  6
 44 46  1  0
 47 48  1  0
 48 49  1  0
 48 51  1  1
 49 50  2  0
 49 55  1  0
 51 52  1  0
 52 53  1  1
 52 54  1  0
 55 56  1  0
 56 57  1  0
 56 59  1  1
 57 58  2  0
 57 66  1  0
 59 60  1  0
 60 61  2  0
 60 62  1  0
 61 63  1  0
 62 64  2  0
 63 65  2  0
 64 65  1  0
 66 67  1  0
 67 68  1  0
 67 70  1  1
 68 69  1  0
 68 74  2  0
 70 71  1  0
 71 72  1  1
 71 73  1  0
M  CHG  2   1   1  69  -1
M  END
$$$$
