
     RDKit          3D

 74 76  0  0  0  0  0  0  0  0999 V2000
   25.0547  -10.6267   43.0962 N   0  0  0  0  0  4  0  0  0  0  0  0
   25.6682   -9.3365   43.3145 C   0  0  2  0  0  0  0  0  0  0  0  0
   24.6584   -8.2656   43.0482 C   0  0  0  0  0  0  0  0  0  0  0  0
   23.4680   -8.6645   42.7589 O   0  0  0  0  0  0  0  0  0  0  0  0
   26.7623   -9.1589   42.2496 C   0  0  0  0  0  0  0  0  0  0  0  0
   26.2524   -9.3830   40.8640 C   0  0  0  0  0  0  0  0  0  0  0  0
   27.4192   -9.0113   39.5859 S   0  0  0  0  0  0  0  0  0  0  0  0
   26.9951   -9.4679   37.9120 C   0  0  0  0  0  0  0  0  0  0  0  0
   24.9258   -6.8928   43.1087 N   0  0  0  0  0  0  0  0  0  0  0  0
   23.7523   -5.9950   43.2994 C   0  0  2  0  0  0  0  0  0  0  0  0
   23.1954   -5.4731   42.0865 C   0  0  0  0  0  0  0  0  0  0  0  0
   23.9909   -4.8186   41.3166 O   0  0  0  0  0  0  0  0  0  0  0  0
   24.2810   -4.9268   44.2470 C   0  0  0  0  0  0  0  0  0  0  0  0
   23.3340   -3.9318   44.7068 C   0  0  0  0  0  0  0  0  0  0  0  0
   21.9732   -4.0584   44.8540 C   0  0  0  0  0  0  0  0  0  0  0  0
   23.6504   -2.6591   45.1772 C   0  0  0  0  0  0  0  0  0  0  0  0
   21.4797   -2.9140   45.3887 N   0  0  0  0  0  0  0  0  0  0  0  0
   22.4823   -2.0329   45.5977 C   0  0  0  0  0  0  0  0  0  0  0  0
   24.8792   -2.0152   45.2157 C   0  0  0  0  0  0  0  0  0  0  0  0
   22.5269   -0.7428   46.0699 C   0  0  0  0  0  0  0  0  0  0  0  0
   24.9278   -0.6956   45.6967 C   0  0  0  0  0  0  0  0  0  0  0  0
   23.7540   -0.1285   46.0986 C   0  0  0  0  0  0  0  0  0  0  0  0
   21.8146   -5.6019   41.6312 N   0  0  0  0  0  0  0  0  0  0  0  0
   21.2349   -4.4667   40.9931 C   0  0  2  0  0  0  0  0  0  0  0  0
   22.1520   -3.8209   39.9730 C   0  0  0  0  0  0  0  0  0  0  0  0
   23.3692   -3.7879   40.2469 O   0  0  0  0  0  0  0  0  0  0  0  0
   20.7324   -3.4113   41.9042 C   0  0  0  0  0  0  0  0  0  0  0  0
   19.3414   -2.9631   41.6502 C   0  0  1  0  0  0  0  0  0  0  0  0
   18.3706   -4.1388   41.5380 C   0  0  0  0  0  0  0  0  0  0  0  0
   18.7722   -2.0181   42.6850 C   0  0  0  0  0  0  0  0  0  0  0  0
   21.7821   -3.2713   38.7511 N   0  0  0  0  0  0  0  0  0  0  0  0
   22.7408   -2.8996   37.7118 C   0  0  2  0  0  0  0  0  0  0  0  0
   21.9783   -2.6040   36.5219 C   0  0  0  0  0  0  0  0  0  0  0  0
   22.3105   -1.5619   35.8250 O   0  0  0  0  0  0  0  0  0  0  0  0
   23.8223   -3.9286   37.5392 C   0  0  0  0  0  0  0  0  0  0  0  0
   24.1818   -4.2161   36.0997 C   0  0  1  0  0  0  0  0  0  0  0  0
   25.2665   -3.2083   35.6576 C   0  0  0  0  0  0  0  0  0  0  0  0
   24.8575   -5.5688   35.9585 C   0  0  0  0  0  0  0  0  0  0  0  0
   20.8753   -3.3884   36.0494 N   0  0  0  0  0  0  0  0  0  0  0  0
   19.8327   -2.7488   35.3051 C   0  0  2  0  0  0  0  0  0  0  0  0
   18.7446   -2.0877   36.0030 C   0  0  0  0  0  0  0  0  0  0  0  0
   17.6946   -2.7732   36.3537 O   0  0  0  0  0  0  0  0  0  0  0  0
   19.3097   -3.6173   34.1719 C   0  0  0  0  0  0  0  0  0  0  0  0
   19.8843   -4.9219   33.9405 C   0  0  1  0  0  0  0  0  0  0  0  0
   19.0104   -6.0527   33.5069 C   0  0  0  0  0  0  0  0  0  0  0  0
   21.0879   -4.9477   32.9647 C   0  0  0  0  0  0  0  0  0  0  0  0
   18.6479   -0.7175   36.3881 N   0  0  0  0  0  0  0  0  0  0  0  0
   18.3674   -0.4071   37.8097 C   0  0  2  0  0  0  0  0  0  0  0  0
   19.3758    0.3288   38.5083 C   0  0  0  0  0  0  0  0  0  0  0  0
   19.1834    0.5547   39.7513 O   0  0  0  0  0  0  0  0  0  0  0  0
   18.0354   -1.7522   38.4450 C   0  0  0  0  0  0  0  0  0  0  0  0
   16.5975   -2.0135   38.7053 C   0  0  1  0  0  0  0  0  0  0  0  0
   16.1489   -1.4109   40.0311 C   0  0  0  0  0  0  0  0  0  0  0  0
   15.8178   -1.2653   37.6147 C   0  0  0  0  0  0  0  0  0  0  0  0
   20.5985    0.8588   38.0130 N   0  0  0  0  0  0  0  0  0  0  0  0
   21.5167    1.5622   38.9039 C   0  0  2  0  0  0  0  0  0  0  0  0
   22.6628    2.1796   38.2360 C   0  0  0  0  0  0  0  0  0  0  0  0
   23.8110    1.7829   38.6341 O   0  0  0  0  0  0  0  0  0  0  0  0
   21.8737    0.6736   40.0744 C   0  0  0  0  0  0  0  0  0  0  0  0
   23.3203    0.6759   40.3586 C   0  0  0  0  0  0  0  0  0  0  0  0
   23.8919   -0.2232   41.2403 C   0  0  0  0  0  0  0  0  0  0  0  0
   24.1714    1.6130   39.7714 C   0  0  0  0  0  0  0  0  0  0  0  0
   25.2284   -0.1664   41.4993 C   0  0  0  0  0  0  0  0  0  0  0  0
   25.5130    1.6683   40.0307 C   0  0  0  0  0  0  0  0  0  0  0  0
   26.0770    0.7637   40.9167 C   0  0  0  0  0  0  0  0  0  0  0  0
   22.6423    3.1467   37.2246 N   0  0  0  0  0  0  0  0  0  0  0  0
   22.1238    2.7907   35.9068 C   0  0  2  0  0  0  0  0  0  0  0  0
   22.1761    3.8643   34.9318 C   0  0  0  0  0  0  0  0  0  0  0  0
   22.4245    5.2063   35.2391 O   0  0  0  0  0  1  0  0  0  0  0  0
   20.8459    2.0078   35.9557 C   0  0  0  0  0  0  0  0  0  0  0  0
   19.8323    2.5543   36.8986 C   0  0  1  0  0  0  0  0  0  0  0  0
   18.6980    1.5987   37.1495 C   0  0  0  0  0  0  0  0  0  0  0  0
   20.4950    2.9544   38.2131 C   0  0  0  0  0  0  0  0  0  0  0  0
   21.9881    3.6458   33.6870 O   0  0  0  0  0  0  0  0  0  0  0  0
  2  1  1  6
  2  3  1  0
  2  5  1  0
  3  4  2  0
  3  9  1  0
  5  6  1  0
  6  7  1  0
  7  8  1  0
  9 10  1  0
 10 11  1  0
 10 13  1  1
 11 12  2  0
 11 23  1  0
 13 14  1  0
 14 15  2  0
 14 16  1  0
 15 17  1  0
 16 18  2  0
 16 19  1  0
 17 18  1  0
 18 20  1  0
 19 21  2  0
 20 22  2  0
 21 22  1  0
 23 24  1  0
 24 25  1  0
 24 27  1  1
 25 26  2  0
 25 31  1  0
 27 28  1  0
 28 29  1  1
 28 30  1  0
 31 32  1  0
 32 33  1  0
 32 35  1  6
 33 34  2  0
 33 39  1  0
 35 36  1  0
 36 37  1  1
 36 38  1  0
 39 40  1  0
 40 41  1  0
 40 43  1  6
 41 42  2  0
 41 47  1  0
 43 44  1  0
 44 45  1  6
 44 46  1  0
 47 48  1  0
 48 49  1  0
 48 51  1  1
 49 50  2  0
 49 55  1  0
 51 52  1  0
 52 53  1  1
 52 54  1  0
 55 56  1  0
 56 57  1  0
 56 59  1  1
 57 58  2  0
 57 66  1  0
 59 60  1  0
 60 61  2  0
 60 62  1  0
 61 63  1  0
 62 64  2  0
 63 65  2  0
 64 65  1  0
 66 67  1  0
 67 68  1  0
 67 70  1  1
 68 69  1  0
 68 74  2  0
 70 71  1  0
 71 72  1  1
 71 73  1  0
M  CHG  2   1   1  69  -1
M  END
$$$$
