
     RDKit          3D

116118  0  0  0  0  0  0  0  0999 V2000
  -23.1371   -3.7246  -15.0228 C   0  0  0  0  0  0  0  0  0  0  0  0
  -22.4096   -3.3209  -15.9976 O   0  0  0  0  0  0  0  0  0  0  0  0
  -24.2042   -4.6862  -15.2249 C   0  0  0  0  0  0  0  0  0  0  0  0
  -24.5640   -4.9844  -16.5224 C   0  0  0  0  0  0  0  0  0  0  0  0
  -25.5772   -5.9039  -16.7786 C   0  0  0  0  0  0  0  0  0  0  0  0
  -23.9394   -4.3850  -17.6338 N   0  0  0  0  0  0  0  0  0  0  0  0
  -26.2238   -6.5251  -15.7362 C   0  0  0  0  0  0  0  0  0  0  0  0
  -25.8420   -6.2106  -14.4537 C   0  0  0  0  0  0  0  0  0  0  0  0
  -24.8381   -5.2963  -14.1862 C   0  0  0  0  0  0  0  0  0  0  0  0
  -22.8251   -3.1619  -13.7582 N   0  0  0  0  0  0  0  0  0  0  0  0
  -21.8347   -2.0916  -13.6958 C   0  0  2  0  0  0  0  0  0  0  0  0
  -20.4704   -2.5279  -14.0192 C   0  0  0  0  0  0  0  0  0  0  0  0
  -19.5897   -1.6469  -14.3603 O   0  0  0  0  0  0  0  0  0  0  0  0
  -21.9008   -1.2985  -12.4002 C   0  0  0  0  0  0  0  0  0  0  0  0
  -19.9970   -3.8771  -13.9909 N   0  0  0  0  0  0  0  0  0  0  0  0
  -18.6082   -4.1747  -14.2616 C   0  0  2  0  0  0  0  0  0  0  0  0
  -18.3440   -4.5280  -15.6907 C   0  0  0  0  0  0  0  0  0  0  0  0
  -19.2595   -4.4153  -16.5550 O   0  0  0  0  0  0  0  0  0  0  0  0
  -17.9301   -5.0275  -13.2795 C   0  0  2  0  0  0  0  0  0  0  0  0
  -18.5040   -6.2799  -13.0908 O   0  0  0  0  0  0  0  0  0  0  0  0
  -17.7496   -4.2645  -11.9847 C   0  0  0  0  0  0  0  0  0  0  0  0
  -17.0487   -4.9749  -16.0281 N   0  0  0  0  0  0  0  0  0  0  0  0
  -16.5855   -5.1171  -17.3646 C   0  0  2  0  0  0  0  0  0  0  0  0
  -15.2523   -5.6215  -17.5888 C   0  0  0  0  0  0  0  0  0  0  0  0
  -14.3379   -4.8906  -16.9674 O   0  0  0  0  0  0  0  0  0  0  0  0
  -16.8683   -3.8350  -18.1687 C   0  0  2  0  0  0  0  0  0  0  0  0
  -16.4684   -4.0599  -19.4720 O   0  0  0  0  0  0  0  0  0  0  0  0
  -16.2679   -2.6382  -17.5227 C   0  0  0  0  0  0  0  0  0  0  0  0
  -14.7756   -6.7180  -18.3286 N   0  0  0  0  0  0  0  0  0  0  0  0
  -13.5628   -7.4144  -18.0163 C   0  0  2  0  0  0  0  0  0  0  0  0
  -12.3991   -6.4732  -17.8260 C   0  0  0  0  0  0  0  0  0  0  0  0
  -12.3687   -5.3930  -18.4270 O   0  0  0  0  0  0  0  0  0  0  0  0
  -13.3340   -8.4003  -19.0995 C   0  0  0  0  0  0  0  0  0  0  0  0
  -14.4402   -8.1996  -20.0885 C   0  0  0  0  0  0  0  0  0  0  0  0
  -15.4236   -7.2718  -19.4626 C   0  0  0  0  0  0  0  0  0  0  0  0
  -11.3734   -6.8563  -16.9559 N   0  0  0  0  0  0  0  0  0  0  0  0
   -9.9629   -6.7400  -17.2530 C   0  0  2  0  0  0  0  0  0  0  0  0
   -9.6482   -7.0155  -18.6834 C   0  0  0  0  0  0  0  0  0  0  0  0
   -9.8053   -8.1377  -19.1637 O   0  0  0  0  0  0  0  0  0  0  0  0
   -9.2564   -7.7472  -16.3749 C   0  0  0  0  0  0  0  0  0  0  0  0
  -10.0991   -8.1301  -15.1850 C   0  0  1  0  0  0  0  0  0  0  0  0
   -9.3616   -9.1879  -14.3648 C   0  0  0  0  0  0  0  0  0  0  0  0
  -10.3154   -6.9325  -14.2525 C   0  0  0  0  0  0  0  0  0  0  0  0
   -9.1548   -5.9066  -19.4312 N   0  0  0  0  0  0  0  0  0  0  0  0
   -7.7397   -5.6594  -19.5379 C   0  0  2  0  0  0  0  0  0  0  0  0
   -7.0175   -6.8827  -20.0419 C   0  0  0  0  0  0  0  0  0  0  0  0
   -7.1655   -8.0227  -19.5617 O   0  0  0  0  0  0  0  0  0  0  0  0
   -7.2202   -5.2602  -18.1890 C   0  0  0  0  0  0  0  0  0  0  0  0
   -6.2966   -6.6359  -17.4176 S   0  0  0  0  0  0  0  0  0  0  0  0
   -6.1255   -6.7102  -21.1189 N   0  0  0  0  0  0  0  0  0  0  0  0
   -4.9438   -7.4095  -21.3747 C   0  0  0  0  0  0  0  0  0  0  0  0
   -4.8552   -8.8134  -21.0539 C   0  0  0  0  0  0  0  0  0  0  0  0
   -4.2353   -8.9409  -19.8636 O   0  0  0  0  0  0  0  0  0  0  0  0
   -5.2117  -10.0099  -21.6016 N   0  0  0  0  0  0  0  0  0  0  0  0
   -4.3788  -11.2373  -21.6808 C   0  0  2  0  0  0  0  0  0  0  0  0
   -3.0515  -11.0957  -21.1377 C   0  0  0  0  0  0  0  0  0  0  0  0
   -2.1950  -10.2258  -21.5676 O   0  0  0  0  0  0  0  0  0  0  0  0
   -4.4298  -11.4392  -23.1960 C   0  0  0  0  0  0  0  0  0  0  0  0
   -5.8943  -11.0788  -23.5113 C   0  0  0  0  0  0  0  0  0  0  0  0
   -6.4432  -10.4979  -22.1900 C   0  0  0  0  0  0  0  0  0  0  0  0
   -2.6260  -11.9237  -20.0737 N   0  0  0  0  0  0  0  0  0  0  0  0
   -1.3085  -11.9864  -19.5180 C   0  0  2  0  0  0  0  0  0  0  0  0
   -0.3429  -12.7703  -20.3890 C   0  0  0  0  0  0  0  0  0  0  0  0
   -0.7539  -13.1750  -21.4820 O   0  0  0  0  0  0  0  0  0  0  0  0
   -1.2895  -12.3567  -18.0971 C   0  0  0  0  0  0  0  0  0  0  0  0
   -2.5898  -12.8223  -17.7689 O   0  0  0  0  0  0  0  0  0  0  0  0
    0.9455  -12.9698  -19.8924 N   0  0  0  0  0  0  0  0  0  0  0  0
    1.9708  -11.9375  -19.9641 C   0  0  2  0  0  0  0  0  0  0  0  0
    3.2758  -12.4912  -19.5106 C   0  0  0  0  0  0  0  0  0  0  0  0
    3.6606  -12.2897  -18.3263 O   0  0  0  0  0  0  0  0  0  0  0  0
    1.5307  -10.6850  -19.3283 C   0  0  0  0  0  0  0  0  0  0  0  0
    1.7928  -10.4946  -17.8823 C   0  0  0  0  0  0  0  0  0  0  0  0
    1.0983  -11.3695  -16.9141 C   0  0  0  0  0  0  0  0  0  0  0  0
    0.1318  -10.6065  -16.1090 N   0  0  0  0  0  0  0  0  0  0  0  0
    0.1990   -9.2222  -15.9654 C   0  0  0  0  0  0  0  0  0  0  0  0
   -0.7346   -8.5188  -15.4533 N   0  0  0  0  0  0  0  0  0  0  0  0
    1.3649   -8.4481  -16.3710 N   0  0  0  0  0  0  0  0  0  0  0  0
    4.1163  -13.2323  -20.3478 N   0  0  0  0  0  0  0  0  0  0  0  0
    3.9056  -14.5700  -20.8582 C   0  0  2  0  0  0  0  0  0  0  0  0
    4.3906  -14.6263  -22.2403 C   0  0  0  0  0  0  0  0  0  0  0  0
    3.7959  -13.9347  -23.0994 O   0  0  0  0  0  0  0  0  0  0  0  0
    2.3599  -14.8036  -20.9697 C   0  0  0  0  0  0  0  0  0  0  0  0
    5.5016  -15.4313  -22.6896 N   0  0  0  0  0  0  0  0  0  0  0  0
    5.3046  -16.0889  -23.9966 C   0  0  2  0  0  0  0  0  0  0  0  0
    6.7002  -16.1264  -24.6347 C   0  0  0  0  0  0  0  0  0  0  0  0
    6.9561  -16.8098  -25.6188 O   0  0  0  0  0  0  0  0  0  0  0  0
    4.3434  -15.3521  -24.8649 C   0  0  0  0  0  0  0  0  0  0  0  0
    3.7310  -14.3584  -24.1041 O   0  0  0  0  0  0  0  0  0  0  0  0
    7.7045  -15.3260  -24.0225 N   0  0  0  0  0  0  0  0  0  0  0  0
    9.0928  -15.8204  -23.8146 C   0  0  2  0  0  0  0  0  0  0  0  0
    9.5768  -16.1395  -25.1410 C   0  0  0  0  0  0  0  0  0  0  0  0
    9.6724  -17.4137  -25.4086 O   0  0  0  0  0  0  0  0  0  0  0  0
    9.0151  -16.9861  -22.8339 C   0  0  2  0  0  0  0  0  0  0  0  0
   10.1964  -17.8706  -22.9108 C   0  0  0  0  0  0  0  0  0  0  0  0
    7.7043  -17.6996  -22.9699 C   0  0  0  0  0  0  0  0  0  0  0  0
   11.3372  -17.4366  -22.0080 C   0  0  0  0  0  0  0  0  0  0  0  0
    9.9647  -15.3097  -26.2163 N   0  0  0  0  0  0  0  0  0  0  0  0
   10.3407  -15.8564  -27.4867 C   0  0  2  0  0  0  0  0  0  0  0  0
    9.5448  -15.3032  -28.6401 C   0  0  0  0  0  0  0  0  0  0  0  0
    8.6270  -15.9938  -29.1303 O   0  0  0  0  0  0  0  0  0  0  0  0
   10.4449  -17.3220  -27.6099 C   0  0  0  0  0  0  0  0  0  0  0  0
   10.1754  -17.8584  -28.9810 C   0  0  1  0  0  0  0  0  0  0  0  0
   10.3883  -16.8091  -30.0731 C   0  0  0  0  0  0  0  0  0  0  0  0
   11.1063  -18.9893  -29.2945 C   0  0  0  0  0  0  0  0  0  0  0  0
    9.8298  -14.0377  -29.1768 N   0  0  0  0  0  0  0  0  0  0  0  0
    9.1510  -13.3950  -30.2716 C   0  0  2  0  0  0  0  0  0  0  0  0
    8.4885  -14.3104  -31.2160 C   0  0  0  0  0  0  0  0  0  0  0  0
    9.1571  -15.1931  -31.7859 O   0  0  0  0  0  0  0  0  0  0  0  0
   10.0353  -12.3810  -30.9922 C   0  0  0  0  0  0  0  0  0  0  0  0
   10.7243  -13.0414  -32.0300 O   0  0  0  0  0  0  0  0  0  0  0  0
    7.1070  -14.1859  -31.4668 N   0  0  0  0  0  0  0  0  0  0  0  0
    6.5990  -13.4357  -32.6094 C   0  0  0  0  0  0  0  0  0  0  0  0
    5.1133  -13.4045  -32.5936 C   0  0  0  0  0  0  0  0  0  0  0  0
    4.3909  -12.2549  -32.2383 O   0  0  0  0  0  0  0  0  0  0  0  0
    4.3964  -14.3969  -32.8888 O   0  0  0  0  0  0  0  0  0  0  0  0
   -1.7244   -8.5291  -15.8552 H   0  0  0  0  0  0  0  0  0  0  0  0
  1  2  2  0
  1  3  1  0
  1 10  1  0
  3  4  2  0
  3  9  1  0
  4  5  1  0
  4  6  1  0
  5  7  2  0
  7  8  1  0
  8  9  2  0
 10 11  1  0
 11 12  1  0
 11 14  1  1
 12 13  2  0
 12 15  1  0
 16 15  1  1
 16 17  1  0
 16 19  1  0
 17 18  2  0
 17 22  1  0
 19 20  1  0
 19 21  1  1
 23 22  1  1
 23 24  1  0
 23 26  1  0
 24 25  2  0
 24 29  1  0
 26 27  1  0
 26 28  1  1
 29 30  1  0
 29 35  1  0
 30 31  1  6
 30 33  1  0
 31 32  2  0
 31 36  1  0
 33 34  1  0
 34 35  1  0
 36 37  1  0
 37 38  1  0
 37 40  1  1
 38 39  2  0
 38 44  1  0
 40 41  1  0
 41 42  1  1
 41 43  1  0
 44 45  1  0
 45 46  1  0
 45 48  1  1
 46 47  2  0
 46 50  1  0
 48 49  1  0
 50 51  1  0
 51 52  1  0
 52 53  2  0
 52 54  1  0
 54 55  1  0
 54 60  1  0
 55 56  1  6
 55 58  1  0
 56 57  2  0
 56 61  1  0
 58 59  1  0
 59 60  1  0
 61 62  1  0
 62 63  1  0
 62 65  1  1
 63 64  2  0
 63 67  1  0
 65 66  1  0
 67 68  1  0
 68 69  1  0
 68 71  1  1
 69 70  2  0
 69 78  1  0
 71 72  1  0
 72 73  1  0
 73 74  1  0
 74 75  1  0
 75 76  2  0
 75 77  1  0
 78 79  1  0
 79 80  1  0
 79 82  1  6
 80 81  2  0
 80 83  1  0
 83 84  1  0
 84 85  1  0
 84 87  1  6
 85 86  2  0
 85 89  1  0
 87 88  1  0
 90 89  1  6
 90 91  1  0
 90 93  1  0
 91 92  2  0
 91 97  1  0
 93 94  1  0
 93 95  1  6
 94 96  1  0
 97 98  1  0
 98 99  1  0
 98101  1  1
 99100  2  0
 99105  1  0
101102  1  0
102103  1  6
102104  1  0
105106  1  0
106107  1  0
106109  1  6
107108  2  0
107111  1  0
109110  1  0
111112  1  0
112113  1  0
113114  1  0
113115  2  0
 76116  1  0
M  END
$$$$
