
     RDKit          3D

116118  0  0  0  0  0  0  0  0999 V2000
  -13.2105   -8.7369  -19.5145 C   0  0  0  0  0  0  0  0  0  0  0  0
  -14.3689   -8.9443  -20.0220 O   0  0  0  0  0  0  0  0  0  0  0  0
  -12.8529   -9.2608  -18.2101 C   0  0  0  0  0  0  0  0  0  0  0  0
  -13.7862  -10.0309  -17.5483 C   0  0  0  0  0  0  0  0  0  0  0  0
  -13.4976  -10.5658  -16.2960 C   0  0  0  0  0  0  0  0  0  0  0  0
  -15.0552  -10.3095  -18.0929 N   0  0  0  0  0  0  0  0  0  0  0  0
  -12.2749  -10.3321  -15.7121 C   0  0  0  0  0  0  0  0  0  0  0  0
  -11.3633   -9.5636  -16.3960 C   0  0  0  0  0  0  0  0  0  0  0  0
  -11.6395   -9.0242  -17.6403 C   0  0  0  0  0  0  0  0  0  0  0  0
  -12.3274   -7.9642  -20.3122 N   0  0  0  0  0  0  0  0  0  0  0  0
  -12.8960   -7.0534  -21.3009 C   0  0  2  0  0  0  0  0  0  0  0  0
  -12.2306   -7.1091  -22.6088 C   0  0  0  0  0  0  0  0  0  0  0  0
  -11.9769   -8.2586  -23.1400 O   0  0  0  0  0  0  0  0  0  0  0  0
  -13.0417   -5.6318  -20.7817 C   0  0  0  0  0  0  0  0  0  0  0  0
  -11.8226   -5.9801  -23.3862 N   0  0  0  0  0  0  0  0  0  0  0  0
  -10.7120   -6.0836  -24.3061 C   0  0  2  0  0  0  0  0  0  0  0  0
  -10.3666   -4.7880  -24.9685 C   0  0  0  0  0  0  0  0  0  0  0  0
  -11.2690   -3.9379  -25.2158 O   0  0  0  0  0  0  0  0  0  0  0  0
  -10.7213   -7.2490  -25.1968 C   0  0  2  0  0  0  0  0  0  0  0  0
  -10.7634   -6.9524  -26.5546 O   0  0  0  0  0  0  0  0  0  0  0  0
  -11.8163   -8.2034  -24.7711 C   0  0  0  0  0  0  0  0  0  0  0  0
   -9.0125   -4.5554  -25.2906 N   0  0  0  0  0  0  0  0  0  0  0  0
   -8.3176   -3.3585  -24.9654 C   0  0  2  0  0  0  0  0  0  0  0  0
   -7.5591   -2.6925  -25.9966 C   0  0  0  0  0  0  0  0  0  0  0  0
   -7.9081   -3.1025  -27.2076 O   0  0  0  0  0  0  0  0  0  0  0  0
   -7.5055   -3.5455  -23.6709 C   0  0  2  0  0  0  0  0  0  0  0  0
   -6.4443   -2.6616  -23.7095 O   0  0  0  0  0  0  0  0  0  0  0  0
   -7.1330   -4.9689  -23.4573 C   0  0  0  0  0  0  0  0  0  0  0  0
   -6.5485   -1.7170  -25.9366 N   0  0  0  0  0  0  0  0  0  0  0  0
   -5.6012   -1.4951  -26.9885 C   0  0  2  0  0  0  0  0  0  0  0  0
   -4.9490   -2.7762  -27.4464 C   0  0  0  0  0  0  0  0  0  0  0  0
   -5.6405   -3.7691  -27.7012 O   0  0  0  0  0  0  0  0  0  0  0  0
   -4.6235   -0.4973  -26.4927 C   0  0  0  0  0  0  0  0  0  0  0  0
   -5.0131   -0.1967  -25.0784 C   0  0  0  0  0  0  0  0  0  0  0  0
   -6.3382   -0.8363  -24.8444 C   0  0  0  0  0  0  0  0  0  0  0  0
   -3.5567   -2.8008  -27.5756 N   0  0  0  0  0  0  0  0  0  0  0  0
   -2.8389   -2.4084  -28.7682 C   0  0  2  0  0  0  0  0  0  0  0  0
   -1.8239   -3.4147  -29.1901 C   0  0  0  0  0  0  0  0  0  0  0  0
   -1.0654   -3.1946  -30.1341 O   0  0  0  0  0  0  0  0  0  0  0  0
   -2.1532   -1.1011  -28.4440 C   0  0  0  0  0  0  0  0  0  0  0  0
   -3.1096    0.0610  -28.5310 C   0  0  1  0  0  0  0  0  0  0  0  0
   -2.3610    1.3546  -28.2125 C   0  0  0  0  0  0  0  0  0  0  0  0
   -3.6602    0.2184  -29.9531 C   0  0  0  0  0  0  0  0  0  0  0  0
   -1.8065   -4.6261  -28.4387 N   0  0  0  0  0  0  0  0  0  0  0  0
   -0.8420   -4.8292  -27.3883 C   0  0  2  0  0  0  0  0  0  0  0  0
   -1.2618   -4.1158  -26.1286 C   0  0  0  0  0  0  0  0  0  0  0  0
   -1.0430   -2.9091  -25.9089 O   0  0  0  0  0  0  0  0  0  0  0  0
    0.4907   -4.3271  -27.8581 C   0  0  0  0  0  0  0  0  0  0  0  0
    0.2898   -2.8511  -28.9173 S   0  0  0  0  0  0  0  0  0  0  0  0
   -1.9394   -4.8717  -25.1515 N   0  0  0  0  0  0  0  0  0  0  0  0
   -1.7928   -6.2306  -24.8638 C   0  0  0  0  0  0  0  0  0  0  0  0
   -2.1079   -6.7245  -23.5452 C   0  0  0  0  0  0  0  0  0  0  0  0
   -3.3912   -7.1376  -23.5396 O   0  0  0  0  0  0  0  0  0  0  0  0
   -1.4897   -6.8847  -22.3408 N   0  0  0  0  0  0  0  0  0  0  0  0
   -2.1448   -7.0549  -21.0184 C   0  0  2  0  0  0  0  0  0  0  0  0
   -3.5848   -7.0094  -21.0539 C   0  0  0  0  0  0  0  0  0  0  0  0
   -4.2846   -7.3902  -22.0738 O   0  0  0  0  0  0  0  0  0  0  0  0
   -1.4871   -5.8789  -20.2951 C   0  0  0  0  0  0  0  0  0  0  0  0
   -0.0428   -5.9515  -20.8271 C   0  0  0  0  0  0  0  0  0  0  0  0
   -0.0980   -7.0054  -21.9543 C   0  0  0  0  0  0  0  0  0  0  0  0
   -4.3096   -6.5397  -19.9345 N   0  0  0  0  0  0  0  0  0  0  0  0
   -5.5333   -7.0796  -19.4250 C   0  0  2  0  0  0  0  0  0  0  0  0
   -5.6019   -7.0437  -17.9086 C   0  0  0  0  0  0  0  0  0  0  0  0
   -4.7128   -6.4309  -17.3075 O   0  0  0  0  0  0  0  0  0  0  0  0
   -5.8980   -8.3700  -20.0236 C   0  0  0  0  0  0  0  0  0  0  0  0
   -7.2712   -8.5898  -19.7387 O   0  0  0  0  0  0  0  0  0  0  0  0
   -6.6731   -7.7013  -17.3032 N   0  0  0  0  0  0  0  0  0  0  0  0
   -6.6097   -8.1810  -15.9292 C   0  0  2  0  0  0  0  0  0  0  0  0
   -6.1377   -9.5925  -15.9097 C   0  0  0  0  0  0  0  0  0  0  0  0
   -6.3721  -10.3418  -16.8971 O   0  0  0  0  0  0  0  0  0  0  0  0
   -7.8502   -7.8917  -15.1915 C   0  0  0  0  0  0  0  0  0  0  0  0
   -9.0412   -8.7345  -15.4506 C   0  0  0  0  0  0  0  0  0  0  0  0
   -9.6013   -9.5323  -14.3394 C   0  0  0  0  0  0  0  0  0  0  0  0
  -10.7795   -8.8728  -13.7550 N   0  0  0  0  0  0  0  0  0  0  0  0
  -11.9392   -9.5668  -13.4159 C   0  0  0  0  0  0  0  0  0  0  0  0
  -13.0538   -9.4179  -14.0196 N   0  0  0  0  0  0  0  0  0  0  0  0
  -11.9771  -10.5529  -12.3440 N   0  0  0  0  0  0  0  0  0  0  0  0
   -5.4397  -10.1430  -14.8297 N   0  0  0  0  0  0  0  0  0  0  0  0
   -5.8219  -11.2717  -14.0086 C   0  0  2  0  0  0  0  0  0  0  0  0
   -6.7972  -12.0796  -14.7468 C   0  0  0  0  0  0  0  0  0  0  0  0
   -7.0969  -11.7203  -15.9091 O   0  0  0  0  0  0  0  0  0  0  0  0
   -6.6152  -10.7210  -12.7742 C   0  0  0  0  0  0  0  0  0  0  0  0
   -7.4490  -13.2585  -14.2278 N   0  0  0  0  0  0  0  0  0  0  0  0
   -7.1279  -14.5111  -14.9403 C   0  0  2  0  0  0  0  0  0  0  0  0
   -6.5373  -15.4362  -13.8670 C   0  0  0  0  0  0  0  0  0  0  0  0
   -5.3710  -15.3586  -13.5004 O   0  0  0  0  0  0  0  0  0  0  0  0
   -6.1581  -14.3006  -16.0519 C   0  0  0  0  0  0  0  0  0  0  0  0
   -5.7137  -15.5450  -16.4937 O   0  0  0  0  0  0  0  0  0  0  0  0
   -7.4131  -16.4090  -13.3096 N   0  0  0  0  0  0  0  0  0  0  0  0
   -6.9956  -17.3042  -12.1964 C   0  0  2  0  0  0  0  0  0  0  0  0
   -6.4315  -18.4682  -12.8462 C   0  0  0  0  0  0  0  0  0  0  0  0
   -5.1515  -18.6457  -12.6604 O   0  0  0  0  0  0  0  0  0  0  0  0
   -8.2269  -17.5536  -11.3313 C   0  0  2  0  0  0  0  0  0  0  0  0
   -9.4850  -17.2016  -12.0220 C   0  0  0  0  0  0  0  0  0  0  0  0
   -8.0635  -16.9097   -9.9879 C   0  0  0  0  0  0  0  0  0  0  0  0
   -9.5085  -15.7778  -12.5485 C   0  0  0  0  0  0  0  0  0  0  0  0
   -7.0250  -19.4649  -13.6523 N   0  0  0  0  0  0  0  0  0  0  0  0
   -6.3397  -20.6852  -13.9608 C   0  0  2  0  0  0  0  0  0  0  0  0
   -5.5742  -21.2575  -12.7961 C   0  0  0  0  0  0  0  0  0  0  0  0
   -4.9539  -20.4824  -12.0385 O   0  0  0  0  0  0  0  0  0  0  0  0
   -5.5044  -20.7261  -15.1751 C   0  0  0  0  0  0  0  0  0  0  0  0
   -5.7719  -19.6307  -16.1594 C   0  0  1  0  0  0  0  0  0  0  0  0
   -5.5679  -18.2395  -15.5578 C   0  0  0  0  0  0  0  0  0  0  0  0
   -4.8333  -19.7296  -17.3227 C   0  0  0  0  0  0  0  0  0  0  0  0
   -5.5367  -22.6413  -12.5628 N   0  0  0  0  0  0  0  0  0  0  0  0
   -4.9592  -23.3061  -11.4240 C   0  0  2  0  0  0  0  0  0  0  0  0
   -4.5363  -24.6963  -11.6639 C   0  0  0  0  0  0  0  0  0  0  0  0
   -3.8427  -25.2821  -10.8113 O   0  0  0  0  0  0  0  0  0  0  0  0
   -5.8285  -23.1864  -10.1753 C   0  0  0  0  0  0  0  0  0  0  0  0
   -6.9440  -22.3792  -10.4787 O   0  0  0  0  0  0  0  0  0  0  0  0
   -4.9191  -25.3549  -12.8498 N   0  0  0  0  0  0  0  0  0  0  0  0
   -6.3190  -25.6119  -13.1674 C   0  0  0  0  0  0  0  0  0  0  0  0
   -6.4756  -26.9552  -13.7833 C   0  0  0  0  0  0  0  0  0  0  0  0
   -5.4827  -27.5302  -14.5916 O   0  0  0  0  0  0  0  0  0  0  0  0
   -7.5012  -27.6706  -13.6339 O   0  0  0  0  0  0  0  0  0  0  0  0
  -13.4780  -10.2026  -14.6077 H   0  0  0  0  0  0  0  0  0  0  0  0
  1  2  2  0
  1  3  1  0
  1 10  1  0
  3  4  2  0
  3  9  1  0
  4  5  1  0
  4  6  1  0
  5  7  2  0
  7  8  1  0
  8  9  2  0
 10 11  1  0
 11 12  1  0
 11 14  1  1
 12 13  2  0
 12 15  1  0
 16 15  1  6
 16 17  1  0
 16 19  1  0
 17 18  2  0
 17 22  1  0
 19 20  1  0
 19 21  1  1
 23 22  1  6
 23 24  1  0
 23 26  1  0
 24 25  2  0
 24 29  1  0
 26 27  1  0
 26 28  1  6
 29 30  1  0
 29 35  1  0
 30 31  1  1
 30 33  1  0
 31 32  2  0
 31 36  1  0
 33 34  1  0
 34 35  1  0
 36 37  1  0
 37 38  1  0
 37 40  1  1
 38 39  2  0
 38 44  1  0
 40 41  1  0
 41 42  1  6
 41 43  1  0
 44 45  1  0
 45 46  1  0
 45 48  1  6
 46 47  2  0
 46 50  1  0
 48 49  1  0
 50 51  1  0
 51 52  1  0
 52 53  2  0
 52 54  1  0
 54 55  1  0
 54 60  1  0
 55 56  1  6
 55 58  1  0
 56 57  2  0
 56 61  1  0
 58 59  1  0
 59 60  1  0
 61 62  1  0
 62 63  1  0
 62 65  1  1
 63 64  2  0
 63 67  1  0
 65 66  1  0
 67 68  1  0
 68 69  1  0
 68 71  1  6
 69 70  2  0
 69 78  1  0
 71 72  1  0
 72 73  1  0
 73 74  1  0
 74 75  1  0
 75 76  2  0
 75 77  1  0
 78 79  1  0
 79 80  1  0
 79 82  1  1
 80 81  2  0
 80 83  1  0
 83 84  1  0
 84 85  1  0
 84 87  1  6
 85 86  2  0
 85 89  1  0
 87 88  1  0
 90 89  1  6
 90 91  1  0
 90 93  1  0
 91 92  2  0
 91 97  1  0
 93 94  1  0
 93 95  1  1
 94 96  1  0
 97 98  1  0
 98 99  1  0
 98101  1  6
 99100  2  0
 99105  1  0
101102  1  0
102103  1  1
102104  1  0
105106  1  0
106107  1  0
106109  1  1
107108  2  0
107111  1  0
109110  1  0
111112  1  0
112113  1  0
113114  1  0
113115  2  0
 76116  1  0
M  END
$$$$
