
     RDKit          3D

116118  0  0  0  0  0  0  0  0999 V2000
   -5.7818   -0.0057  -24.1845 C   0  0  0  0  0  0  0  0  0  0  0  0
   -4.9073   -0.3448  -25.0579 O   0  0  0  0  0  0  0  0  0  0  0  0
   -7.1538    0.2773  -24.5604 C   0  0  0  0  0  0  0  0  0  0  0  0
   -7.4389    0.4081  -25.9034 C   0  0  0  0  0  0  0  0  0  0  0  0
   -8.7387    0.6740  -26.3248 C   0  0  0  0  0  0  0  0  0  0  0  0
   -6.4497    0.2839  -26.8988 N   0  0  0  0  0  0  0  0  0  0  0  0
   -9.7494    0.8037  -25.4018 C   0  0  0  0  0  0  0  0  0  0  0  0
   -9.4365    0.6654  -24.0704 C   0  0  0  0  0  0  0  0  0  0  0  0
   -8.1478    0.4037  -23.6390 C   0  0  0  0  0  0  0  0  0  0  0  0
   -5.3076    0.0750  -22.8497 N   0  0  0  0  0  0  0  0  0  0  0  0
   -3.9043   -0.2294  -22.5879 C   0  0  2  0  0  0  0  0  0  0  0  0
   -3.4151   -1.4202  -23.2942 C   0  0  0  0  0  0  0  0  0  0  0  0
   -4.2655   -2.2272  -23.8360 O   0  0  0  0  0  0  0  0  0  0  0  0
   -3.5704   -0.2538  -21.1047 C   0  0  0  0  0  0  0  0  0  0  0  0
   -2.0430   -1.7909  -23.4537 N   0  0  0  0  0  0  0  0  0  0  0  0
   -1.6644   -3.1826  -23.5548 C   0  0  2  0  0  0  0  0  0  0  0  0
   -1.5574   -3.8669  -22.2293 C   0  0  0  0  0  0  0  0  0  0  0  0
   -0.6974   -4.7756  -22.0485 O   0  0  0  0  0  0  0  0  0  0  0  0
   -0.5816   -3.4877  -24.4961 C   0  0  2  0  0  0  0  0  0  0  0  0
    0.4370   -4.2838  -23.9843 O   0  0  0  0  0  0  0  0  0  0  0  0
   -0.0686   -2.2036  -25.1118 C   0  0  0  0  0  0  0  0  0  0  0  0
   -2.4356   -3.4545  -21.2044 N   0  0  0  0  0  0  0  0  0  0  0  0
   -2.9531   -4.3277  -20.2091 C   0  0  2  0  0  0  0  0  0  0  0  0
   -4.3717   -4.3185  -19.9450 C   0  0  0  0  0  0  0  0  0  0  0  0
   -4.9266   -3.1608  -20.2739 O   0  0  0  0  0  0  0  0  0  0  0  0
   -2.1180   -4.2250  -18.9198 C   0  0  2  0  0  0  0  0  0  0  0  0
   -2.4864   -5.2715  -18.0962 O   0  0  0  0  0  0  0  0  0  0  0  0
   -2.2189   -2.8744  -18.3065 C   0  0  0  0  0  0  0  0  0  0  0  0
   -5.2345   -5.2947  -19.4167 N   0  0  0  0  0  0  0  0  0  0  0  0
   -5.9732   -6.2178  -20.2264 C   0  0  2  0  0  0  0  0  0  0  0  0
   -6.7210   -5.5262  -21.3394 C   0  0  0  0  0  0  0  0  0  0  0  0
   -7.9459   -5.3746  -21.2647 O   0  0  0  0  0  0  0  0  0  0  0  0
   -6.8660   -6.9774  -19.3189 C   0  0  0  0  0  0  0  0  0  0  0  0
   -6.6550   -6.4072  -17.9505 C   0  0  0  0  0  0  0  0  0  0  0  0
   -5.4818   -5.4927  -18.0338 C   0  0  0  0  0  0  0  0  0  0  0  0
   -5.9917   -5.0651  -22.4401 N   0  0  0  0  0  0  0  0  0  0  0  0
   -6.5422   -4.2564  -23.5051 C   0  0  2  0  0  0  0  0  0  0  0  0
   -7.8330   -4.7878  -24.0272 C   0  0  0  0  0  0  0  0  0  0  0  0
   -8.8227   -4.0635  -24.1309 O   0  0  0  0  0  0  0  0  0  0  0  0
   -5.5125   -4.2477  -24.6115 C   0  0  0  0  0  0  0  0  0  0  0  0
   -4.6046   -5.4485  -24.5309 C   0  0  1  0  0  0  0  0  0  0  0  0
   -5.3459   -6.5955  -23.8453 C   0  0  0  0  0  0  0  0  0  0  0  0
   -4.2276   -5.9512  -25.9293 C   0  0  0  0  0  0  0  0  0  0  0  0
   -7.8340   -6.1691  -24.3800 N   0  0  0  0  0  0  0  0  0  0  0  0
   -9.0379   -6.8122  -24.8407 C   0  0  2  0  0  0  0  0  0  0  0  0
   -9.2754   -8.1021  -24.0980 C   0  0  0  0  0  0  0  0  0  0  0  0
   -8.6756   -9.1657  -24.3455 O   0  0  0  0  0  0  0  0  0  0  0  0
   -8.9110   -7.0682  -26.3127 C   0  0  0  0  0  0  0  0  0  0  0  0
   -7.6420   -5.9801  -27.0521 S   0  0  0  0  0  0  0  0  0  0  0  0
  -10.2357   -8.0884  -23.0670 N   0  0  0  0  0  0  0  0  0  0  0  0
  -10.6174   -7.0111  -22.2642 C   0  0  0  0  0  0  0  0  0  0  0  0
  -11.6798   -7.1728  -21.3014 C   0  0  0  0  0  0  0  0  0  0  0  0
  -12.0172   -5.9557  -20.8298 O   0  0  0  0  0  0  0  0  0  0  0  0
  -12.4146   -8.1812  -20.7521 N   0  0  0  0  0  0  0  0  0  0  0  0
  -12.1243   -8.9106  -19.4910 C   0  0  2  0  0  0  0  0  0  0  0  0
  -10.9139   -8.4983  -18.8265 C   0  0  0  0  0  0  0  0  0  0  0  0
   -9.9059   -7.9718  -19.4444 O   0  0  0  0  0  0  0  0  0  0  0  0
  -12.0872  -10.3290  -20.0618 C   0  0  0  0  0  0  0  0  0  0  0  0
  -13.2514  -10.2916  -21.0706 C   0  0  0  0  0  0  0  0  0  0  0  0
  -13.6679   -8.8058  -21.1263 C   0  0  0  0  0  0  0  0  0  0  0  0
  -10.7831   -8.6509  -17.4270 N   0  0  0  0  0  0  0  0  0  0  0  0
   -9.6220   -8.3573  -16.6433 C   0  0  2  0  0  0  0  0  0  0  0  0
   -8.9948   -9.6007  -16.0382 C   0  0  0  0  0  0  0  0  0  0  0  0
   -7.9809   -9.4546  -15.3469 O   0  0  0  0  0  0  0  0  0  0  0  0
   -9.8176   -7.2495  -15.6994 C   0  0  0  0  0  0  0  0  0  0  0  0
  -10.9730   -7.5528  -14.9324 O   0  0  0  0  0  0  0  0  0  0  0  0
   -9.6170  -10.8213  -16.3020 N   0  0  0  0  0  0  0  0  0  0  0  0
   -8.9752  -12.0959  -16.0100 C   0  0  2  0  0  0  0  0  0  0  0  0
   -7.9453  -11.9105  -14.9514 C   0  0  0  0  0  0  0  0  0  0  0  0
   -7.7790  -10.7710  -14.4365 O   0  0  0  0  0  0  0  0  0  0  0  0
   -8.5412  -12.7832  -17.2371 C   0  0  0  0  0  0  0  0  0  0  0  0
   -7.2436  -13.4987  -17.2269 C   0  0  0  0  0  0  0  0  0  0  0  0
   -7.2412  -14.9666  -17.4019 C   0  0  0  0  0  0  0  0  0  0  0  0
   -6.9265  -15.6504  -16.1378 N   0  0  0  0  0  0  0  0  0  0  0  0
   -6.6820  -17.0202  -16.0641 C   0  0  0  0  0  0  0  0  0  0  0  0
   -6.1955  -17.5966  -15.0347 N   0  0  0  0  0  0  0  0  0  0  0  0
   -6.9855  -17.9304  -17.1605 N   0  0  0  0  0  0  0  0  0  0  0  0
   -7.1328  -12.9532  -14.4941 N   0  0  0  0  0  0  0  0  0  0  0  0
   -6.9829  -13.4314  -13.1364 C   0  0  2  0  0  0  0  0  0  0  0  0
   -6.1575  -14.6426  -13.1545 C   0  0  0  0  0  0  0  0  0  0  0  0
   -5.5738  -14.9707  -12.0954 O   0  0  0  0  0  0  0  0  0  0  0  0
   -8.3882  -13.9158  -12.6398 C   0  0  0  0  0  0  0  0  0  0  0  0
   -5.9578  -15.4843  -14.3103 N   0  0  0  0  0  0  0  0  0  0  0  0
   -5.7578  -16.9159  -14.0099 C   0  0  2  0  0  0  0  0  0  0  0  0
   -4.3105  -17.2094  -14.4288 C   0  0  0  0  0  0  0  0  0  0  0  0
   -3.4352  -16.3523  -14.4178 O   0  0  0  0  0  0  0  0  0  0  0  0
   -6.7119  -17.7907  -14.7481 C   0  0  0  0  0  0  0  0  0  0  0  0
   -7.0109  -18.8928  -13.9499 O   0  0  0  0  0  0  0  0  0  0  0  0
   -4.0225  -18.5393  -14.8441 N   0  0  0  0  0  0  0  0  0  0  0  0
   -3.9100  -19.6638  -13.8756 C   0  0  2  0  0  0  0  0  0  0  0  0
   -2.8019  -20.4607  -14.3576 C   0  0  0  0  0  0  0  0  0  0  0  0
   -1.6167  -19.9591  -14.1382 O   0  0  0  0  0  0  0  0  0  0  0  0
   -5.2658  -20.3615  -13.8340 C   0  0  2  0  0  0  0  0  0  0  0  0
   -6.2171  -19.6965  -12.9191 C   0  0  0  0  0  0  0  0  0  0  0  0
   -5.0935  -21.8283  -13.5799 C   0  0  0  0  0  0  0  0  0  0  0  0
   -6.9989  -20.6653  -12.0502 C   0  0  0  0  0  0  0  0  0  0  0  0
   -2.7698  -21.7040  -15.0272 N   0  0  0  0  0  0  0  0  0  0  0  0
   -1.5323  -22.3630  -15.3248 C   0  0  2  0  0  0  0  0  0  0  0  0
   -1.5030  -23.8091  -14.9029 C   0  0  0  0  0  0  0  0  0  0  0  0
   -1.0394  -24.1044  -13.7816 O   0  0  0  0  0  0  0  0  0  0  0  0
   -0.2775  -21.7008  -14.9235 C   0  0  0  0  0  0  0  0  0  0  0  0
    0.2458  -20.6982  -15.9040 C   0  0  1  0  0  0  0  0  0  0  0  0
   -0.5729  -19.4065  -15.9146 C   0  0  0  0  0  0  0  0  0  0  0  0
    1.6489  -20.3062  -15.5555 C   0  0  0  0  0  0  0  0  0  0  0  0
   -1.9720  -24.8222  -15.7540 N   0  0  0  0  0  0  0  0  0  0  0  0
   -1.9810  -26.2363  -15.4843 C   0  0  2  0  0  0  0  0  0  0  0  0
   -0.8254  -26.7303  -14.7165 C   0  0  0  0  0  0  0  0  0  0  0  0
    0.3275  -26.4484  -15.0938 O   0  0  0  0  0  0  0  0  0  0  0  0
   -2.2236  -27.0686  -16.7404 C   0  0  0  0  0  0  0  0  0  0  0  0
   -1.2308  -26.7510  -17.6899 O   0  0  0  0  0  0  0  0  0  0  0  0
   -1.0287  -27.5134  -13.5623 N   0  0  0  0  0  0  0  0  0  0  0  0
   -0.4150  -28.8273  -13.4084 C   0  0  0  0  0  0  0  0  0  0  0  0
    0.4152  -28.8738  -12.1768 C   0  0  0  0  0  0  0  0  0  0  0  0
    1.5554  -28.0725  -12.0101 O   0  0  0  0  0  0  0  0  0  0  0  0
    0.1661  -29.6305  -11.2014 O   0  0  0  0  0  0  0  0  0  0  0  0
   -5.1493  -17.5645  -14.8204 H   0  0  0  0  0  0  0  0  0  0  0  0
  1  2  2  0
  1  3  1  0
  1 10  1  0
  3  4  2  0
  3  9  1  0
  4  5  1  0
  4  6  1  0
  5  7  2  0
  7  8  1  0
  8  9  2  0
 10 11  1  0
 11 12  1  0
 11 14  1  1
 12 13  2  0
 12 15  1  0
 16 15  1  1
 16 17  1  0
 16 19  1  0
 17 18  2  0
 17 22  1  0
 19 20  1  0
 19 21  1  1
 23 22  1  6
 23 24  1  0
 23 26  1  0
 24 25  2  0
 24 29  1  0
 26 27  1  0
 26 28  1  1
 29 30  1  0
 29 35  1  0
 30 31  1  6
 30 33  1  0
 31 32  2  0
 31 36  1  0
 33 34  1  0
 34 35  1  0
 36 37  1  0
 37 38  1  0
 37 40  1  6
 38 39  2  0
 38 44  1  0
 40 41  1  0
 41 42  1  1
 41 43  1  0
 44 45  1  0
 45 46  1  0
 45 48  1  6
 46 47  2  0
 46 50  1  0
 48 49  1  0
 50 51  1  0
 51 52  1  0
 52 53  2  0
 52 54  1  0
 54 55  1  0
 54 60  1  0
 55 56  1  6
 55 58  1  0
 56 57  2  0
 56 61  1  0
 58 59  1  0
 59 60  1  0
 61 62  1  0
 62 63  1  0
 62 65  1  1
 63 64  2  0
 63 67  1  0
 65 66  1  0
 67 68  1  0
 68 69  1  0
 68 71  1  6
 69 70  2  0
 69 78  1  0
 71 72  1  0
 72 73  1  0
 73 74  1  0
 74 75  1  0
 75 76  2  0
 75 77  1  0
 78 79  1  0
 79 80  1  0
 79 82  1  6
 80 81  2  0
 80 83  1  0
 83 84  1  0
 84 85  1  0
 84 87  1  6
 85 86  2  0
 85 89  1  0
 87 88  1  0
 90 89  1  6
 90 91  1  0
 90 93  1  0
 91 92  2  0
 91 97  1  0
 93 94  1  0
 93 95  1  1
 94 96  1  0
 97 98  1  0
 98 99  1  0
 98101  1  1
 99100  2  0
 99105  1  0
101102  1  0
102103  1  1
102104  1  0
105106  1  0
106107  1  0
106109  1  6
107108  2  0
107111  1  0
109110  1  0
111112  1  0
112113  1  0
113114  1  0
113115  2  0
 76116  1  0
M  END
$$$$
