
     RDKit          3D

116118  0  0  0  0  0  0  0  0999 V2000
    1.6736  -26.7071  -18.6843 C   0  0  0  0  0  0  0  0  0  0  0  0
    0.6671  -26.9150  -17.9187 O   0  0  0  0  0  0  0  0  0  0  0  0
    1.6291  -27.0374  -20.0961 C   0  0  0  0  0  0  0  0  0  0  0  0
    0.7886  -26.2996  -20.9031 C   0  0  0  0  0  0  0  0  0  0  0  0
    0.7079  -26.5668  -22.2668 C   0  0  0  0  0  0  0  0  0  0  0  0
   -0.0173  -25.2595  -20.3997 N   0  0  0  0  0  0  0  0  0  0  0  0
    1.4715  -27.5679  -22.8192 C   0  0  0  0  0  0  0  0  0  0  0  0
    2.3023  -28.2847  -21.9914 C   0  0  0  0  0  0  0  0  0  0  0  0
    2.3893  -28.0303  -20.6337 C   0  0  0  0  0  0  0  0  0  0  0  0
    2.8126  -26.1457  -18.0515 N   0  0  0  0  0  0  0  0  0  0  0  0
    2.7593  -25.8930  -16.6149 C   0  0  2  0  0  0  0  0  0  0  0  0
    2.1709  -24.5941  -16.2638 C   0  0  0  0  0  0  0  0  0  0  0  0
    2.1093  -23.6657  -17.1594 O   0  0  0  0  0  0  0  0  0  0  0  0
    4.0901  -26.1362  -15.9210 C   0  0  0  0  0  0  0  0  0  0  0  0
    1.6356  -24.2387  -14.9861 N   0  0  0  0  0  0  0  0  0  0  0  0
    1.0901  -22.9190  -14.7589 C   0  0  2  0  0  0  0  0  0  0  0  0
    1.2025  -22.0172  -15.9467 C   0  0  0  0  0  0  0  0  0  0  0  0
    2.0197  -22.2829  -16.8738 O   0  0  0  0  0  0  0  0  0  0  0  0
    1.4300  -22.2949  -13.4758 C   0  0  2  0  0  0  0  0  0  0  0  0
    2.7650  -21.9337  -13.3316 O   0  0  0  0  0  0  0  0  0  0  0  0
    0.9326  -23.1651  -12.3415 C   0  0  0  0  0  0  0  0  0  0  0  0
    0.3645  -20.8827  -15.9916 N   0  0  0  0  0  0  0  0  0  0  0  0
    0.3894  -19.9234  -17.0405 C   0  0  2  0  0  0  0  0  0  0  0  0
    0.9287  -18.6123  -16.7715 C   0  0  0  0  0  0  0  0  0  0  0  0
    0.4494  -18.1039  -15.6454 O   0  0  0  0  0  0  0  0  0  0  0  0
   -0.9803  -19.8596  -17.7406 C   0  0  2  0  0  0  0  0  0  0  0  0
   -0.8738  -18.9691  -18.7916 O   0  0  0  0  0  0  0  0  0  0  0  0
   -2.0759  -19.5706  -16.7780 C   0  0  0  0  0  0  0  0  0  0  0  0
    1.8440  -17.8111  -17.4765 N   0  0  0  0  0  0  0  0  0  0  0  0
    2.2918  -16.5305  -17.0153 C   0  0  2  0  0  0  0  0  0  0  0  0
    1.1441  -15.6373  -16.6135 C   0  0  0  0  0  0  0  0  0  0  0  0
    1.2639  -14.4079  -16.6705 O   0  0  0  0  0  0  0  0  0  0  0  0
    3.1262  -15.9456  -18.0920 C   0  0  0  0  0  0  0  0  0  0  0  0
    3.0901  -16.9223  -19.2265 C   0  0  0  0  0  0  0  0  0  0  0  0
    2.4371  -18.1607  -18.7170 C   0  0  0  0  0  0  0  0  0  0  0  0
   -0.0439  -16.2383  -16.1853 N   0  0  0  0  0  0  0  0  0  0  0  0
   -1.1952  -15.5147  -15.6931 C   0  0  2  0  0  0  0  0  0  0  0  0
   -1.2635  -14.1173  -16.2066 C   0  0  0  0  0  0  0  0  0  0  0  0
   -0.7478  -13.1871  -15.5873 O   0  0  0  0  0  0  0  0  0  0  0  0
   -1.0769  -15.4965  -14.1864 C   0  0  0  0  0  0  0  0  0  0  0  0
   -2.2622  -14.8188  -13.5473 C   0  0  1  0  0  0  0  0  0  0  0  0
   -2.5835  -13.5366  -14.3141 C   0  0  0  0  0  0  0  0  0  0  0  0
   -3.5143  -15.6993  -13.6322 C   0  0  0  0  0  0  0  0  0  0  0  0
   -1.9631  -13.9455  -17.4368 N   0  0  0  0  0  0  0  0  0  0  0  0
   -2.0817  -12.6441  -18.0429 C   0  0  2  0  0  0  0  0  0  0  0  0
   -1.4042  -11.5951  -17.1988 C   0  0  0  0  0  0  0  0  0  0  0  0
   -0.4177  -11.8202  -16.4719 O   0  0  0  0  0  0  0  0  0  0  0  0
   -3.5372  -12.3249  -18.2111 C   0  0  0  0  0  0  0  0  0  0  0  0
   -4.5208  -13.8564  -18.3786 S   0  0  0  0  0  0  0  0  0  0  0  0
   -1.9298  -10.2886  -17.2444 N   0  0  0  0  0  0  0  0  0  0  0  0
   -1.4789   -9.1579  -16.5595 C   0  0  0  0  0  0  0  0  0  0  0  0
   -1.1732   -7.9504  -17.2878 C   0  0  0  0  0  0  0  0  0  0  0  0
   -2.1132   -7.0282  -16.9989 O   0  0  0  0  0  0  0  0  0  0  0  0
   -0.2289   -7.4959  -18.1596 N   0  0  0  0  0  0  0  0  0  0  0  0
   -0.4537   -7.0207  -19.5490 C   0  0  2  0  0  0  0  0  0  0  0  0
   -1.8231   -7.0933  -19.9918 C   0  0  0  0  0  0  0  0  0  0  0  0
   -2.5570   -8.1521  -19.8669 O   0  0  0  0  0  0  0  0  0  0  0  0
    0.4998   -7.9783  -20.2651 C   0  0  0  0  0  0  0  0  0  0  0  0
    1.6948   -8.0163  -19.2930 C   0  0  0  0  0  0  0  0  0  0  0  0
    1.1972   -7.2662  -18.0383 C   0  0  0  0  0  0  0  0  0  0  0  0
   -2.4379   -5.9697  -20.5905 N   0  0  0  0  0  0  0  0  0  0  0  0
   -3.3055   -5.9795  -21.7288 C   0  0  2  0  0  0  0  0  0  0  0  0
   -4.7737   -5.9221  -21.3457 C   0  0  0  0  0  0  0  0  0  0  0  0
   -5.0739   -6.1932  -20.1780 O   0  0  0  0  0  0  0  0  0  0  0  0
   -2.9698   -7.0175  -22.7118 C   0  0  0  0  0  0  0  0  0  0  0  0
   -3.1200   -6.4383  -23.9992 O   0  0  0  0  0  0  0  0  0  0  0  0
   -5.6789   -5.5579  -22.3430 N   0  0  0  0  0  0  0  0  0  0  0  0
   -7.0425   -5.1466  -22.0374 C   0  0  2  0  0  0  0  0  0  0  0  0
   -7.7640   -4.8187  -23.2973 C   0  0  0  0  0  0  0  0  0  0  0  0
   -7.1453   -4.8500  -24.3961 O   0  0  0  0  0  0  0  0  0  0  0  0
   -7.0814   -4.1304  -20.9733 C   0  0  0  0  0  0  0  0  0  0  0  0
   -8.1171   -3.0728  -21.0415 C   0  0  0  0  0  0  0  0  0  0  0  0
   -9.0683   -2.9377  -19.9180 C   0  0  0  0  0  0  0  0  0  0  0  0
   -9.4193   -1.5276  -19.6877 N   0  0  0  0  0  0  0  0  0  0  0  0
   -9.6594   -1.0100  -18.4164 C   0  0  0  0  0  0  0  0  0  0  0  0
   -9.7038    0.2392  -18.1590 N   0  0  0  0  0  0  0  0  0  0  0  0
   -9.9070   -1.8592  -17.2586 N   0  0  0  0  0  0  0  0  0  0  0  0
   -9.1171   -4.4650  -23.3253 N   0  0  0  0  0  0  0  0  0  0  0  0
  -10.2231   -5.2283  -23.8623 C   0  0  2  0  0  0  0  0  0  0  0  0
  -11.0954   -5.6317  -22.7556 C   0  0  0  0  0  0  0  0  0  0  0  0
  -10.5568   -5.9517  -21.6705 O   0  0  0  0  0  0  0  0  0  0  0  0
   -9.6494   -6.5733  -24.4266 C   0  0  0  0  0  0  0  0  0  0  0  0
  -12.5359   -5.6980  -22.8263 N   0  0  0  0  0  0  0  0  0  0  0  0
  -13.1929   -4.4617  -23.2949 C   0  0  2  0  0  0  0  0  0  0  0  0
  -14.6796   -4.8249  -23.4140 C   0  0  0  0  0  0  0  0  0  0  0  0
  -15.4934   -4.0951  -23.9672 O   0  0  0  0  0  0  0  0  0  0  0  0
  -12.6547   -3.9922  -24.6027 C   0  0  0  0  0  0  0  0  0  0  0  0
  -13.5384   -3.0556  -25.1350 O   0  0  0  0  0  0  0  0  0  0  0  0
  -15.0831   -6.0626  -22.8401 N   0  0  0  0  0  0  0  0  0  0  0  0
  -14.1036   -7.1216  -22.4738 C   0  0  2  0  0  0  0  0  0  0  0  0
  -14.7889   -8.3694  -22.7362 C   0  0  0  0  0  0  0  0  0  0  0  0
  -14.1508   -9.4456  -22.3634 O   0  0  0  0  0  0  0  0  0  0  0  0
  -13.6942   -6.8766  -21.0250 C   0  0  2  0  0  0  0  0  0  0  0  0
  -14.4315   -5.7529  -20.4105 C   0  0  0  0  0  0  0  0  0  0  0  0
  -12.2038   -6.7675  -20.9121 C   0  0  0  0  0  0  0  0  0  0  0  0
  -14.2422   -5.6548  -18.9073 C   0  0  0  0  0  0  0  0  0  0  0  0
  -16.0441   -8.6373  -23.3261 N   0  0  0  0  0  0  0  0  0  0  0  0
  -17.2512   -8.0583  -22.8144 C   0  0  2  0  0  0  0  0  0  0  0  0
  -18.4481   -8.2769  -23.7030 C   0  0  0  0  0  0  0  0  0  0  0  0
  -18.2669   -8.5889  -24.8985 O   0  0  0  0  0  0  0  0  0  0  0  0
  -17.2133   -6.6545  -22.3650 C   0  0  0  0  0  0  0  0  0  0  0  0
  -17.5855   -5.6495  -23.4098 C   0  0  1  0  0  0  0  0  0  0  0  0
  -16.6362   -5.6718  -24.6088 C   0  0  0  0  0  0  0  0  0  0  0  0
  -18.9536   -5.9349  -23.9489 C   0  0  0  0  0  0  0  0  0  0  0  0
  -19.7539   -8.1200  -23.2120 N   0  0  0  0  0  0  0  0  0  0  0  0
  -20.4950   -9.0675  -22.4212 C   0  0  2  0  0  0  0  0  0  0  0  0
  -21.8300   -8.6135  -21.9962 C   0  0  0  0  0  0  0  0  0  0  0  0
  -21.9988   -8.2124  -20.8293 O   0  0  0  0  0  0  0  0  0  0  0  0
  -19.6827   -9.6118  -21.2493 C   0  0  0  0  0  0  0  0  0  0  0  0
  -20.4335   -9.4497  -20.0670 O   0  0  0  0  0  0  0  0  0  0  0  0
  -22.9044   -8.6321  -22.9085 N   0  0  0  0  0  0  0  0  0  0  0  0
  -24.2593   -8.2733  -22.5059 C   0  0  0  0  0  0  0  0  0  0  0  0
  -24.8158   -9.2944  -21.5807 C   0  0  0  0  0  0  0  0  0  0  0  0
  -24.6450  -10.6712  -21.7927 O   0  0  0  0  0  0  0  0  0  0  0  0
  -25.4803   -9.0069  -20.5502 O   0  0  0  0  0  0  0  0  0  0  0  0
  -10.5627    0.6844  -17.7057 H   0  0  0  0  0  0  0  0  0  0  0  0
  1  2  2  0
  1  3  1  0
  1 10  1  0
  3  4  2  0
  3  9  1  0
  4  5  1  0
  4  6  1  0
  5  7  2  0
  7  8  1  0
  8  9  2  0
 10 11  1  0
 11 12  1  0
 11 14  1  6
 12 13  2  0
 12 15  1  0
 16 15  1  6
 16 17  1  0
 16 19  1  0
 17 18  2  0
 17 22  1  0
 19 20  1  0
 19 21  1  1
 23 22  1  1
 23 24  1  0
 23 26  1  0
 24 25  2  0
 24 29  1  0
 26 27  1  0
 26 28  1  1
 29 30  1  0
 29 35  1  0
 30 31  1  6
 30 33  1  0
 31 32  2  0
 31 36  1  0
 33 34  1  0
 34 35  1  0
 36 37  1  0
 37 38  1  0
 37 40  1  1
 38 39  2  0
 38 44  1  0
 40 41  1  0
 41 42  1  6
 41 43  1  0
 44 45  1  0
 45 46  1  0
 45 48  1  1
 46 47  2  0
 46 50  1  0
 48 49  1  0
 50 51  1  0
 51 52  1  0
 52 53  2  0
 52 54  1  0
 54 55  1  0
 54 60  1  0
 55 56  1  6
 55 58  1  0
 56 57  2  0
 56 61  1  0
 58 59  1  0
 59 60  1  0
 61 62  1  0
 62 63  1  0
 62 65  1  1
 63 64  2  0
 63 67  1  0
 65 66  1  0
 67 68  1  0
 68 69  1  0
 68 71  1  1
 69 70  2  0
 69 78  1  0
 71 72  1  0
 72 73  1  0
 73 74  1  0
 74 75  1  0
 75 76  2  0
 75 77  1  0
 78 79  1  0
 79 80  1  0
 79 82  1  1
 80 81  2  0
 80 83  1  0
 83 84  1  0
 84 85  1  0
 84 87  1  6
 85 86  2  0
 85 89  1  0
 87 88  1  0
 90 89  1  1
 90 91  1  0
 90 93  1  0
 91 92  2  0
 91 97  1  0
 93 94  1  0
 93 95  1  6
 94 96  1  0
 97 98  1  0
 98 99  1  0
 98101  1  6
 99100  2  0
 99105  1  0
101102  1  0
102103  1  6
102104  1  0
105106  1  0
106107  1  0
106109  1  1
107108  2  0
107111  1  0
109110  1  0
111112  1  0
112113  1  0
113114  1  0
113115  2  0
 76116  1  0
M  END
$$$$
