
     RDKit          3D

116118  0  0  0  0  0  0  0  0999 V2000
    7.2590   -5.4868  -21.9513 C   0  0  0  0  0  0  0  0  0  0  0  0
    7.4718   -6.7471  -22.0451 O   0  0  0  0  0  0  0  0  0  0  0  0
    7.6531   -4.5741  -23.0075 C   0  0  0  0  0  0  0  0  0  0  0  0
    8.3526   -5.0920  -24.0774 C   0  0  0  0  0  0  0  0  0  0  0  0
    8.7525   -4.2657  -25.1238 C   0  0  0  0  0  0  0  0  0  0  0  0
    8.6937   -6.4560  -24.1647 N   0  0  0  0  0  0  0  0  0  0  0  0
    8.4475   -2.9252  -25.0985 C   0  0  0  0  0  0  0  0  0  0  0  0
    7.7469   -2.4375  -24.0211 C   0  0  0  0  0  0  0  0  0  0  0  0
    7.3462   -3.2484  -22.9736 C   0  0  0  0  0  0  0  0  0  0  0  0
    6.6262   -5.0650  -20.7535 N   0  0  0  0  0  0  0  0  0  0  0  0
    6.2013   -6.0795  -19.7940 C   0  0  2  0  0  0  0  0  0  0  0  0
    4.7798   -6.4334  -19.8971 C   0  0  0  0  0  0  0  0  0  0  0  0
    3.9497   -5.5765  -20.3917 O   0  0  0  0  0  0  0  0  0  0  0  0
    6.6194   -5.7579  -18.3680 C   0  0  0  0  0  0  0  0  0  0  0  0
    4.1981   -7.6766  -19.4952 N   0  0  0  0  0  0  0  0  0  0  0  0
    2.7690   -7.8801  -19.5771 C   0  0  2  0  0  0  0  0  0  0  0  0
    2.1280   -8.1332  -18.2497 C   0  0  0  0  0  0  0  0  0  0  0  0
    2.8253   -8.5178  -17.2680 O   0  0  0  0  0  0  0  0  0  0  0  0
    2.3047   -8.7504  -20.6627 C   0  0  2  0  0  0  0  0  0  0  0  0
    0.9359   -8.9945  -20.6776 O   0  0  0  0  0  0  0  0  0  0  0  0
    3.1268  -10.0213  -20.6802 C   0  0  0  0  0  0  0  0  0  0  0  0
    0.7376   -7.9180  -18.1402 N   0  0  0  0  0  0  0  0  0  0  0  0
    0.1473   -6.6347  -17.9796 C   0  0  2  0  0  0  0  0  0  0  0  0
   -0.8411   -6.1991  -18.9364 C   0  0  0  0  0  0  0  0  0  0  0  0
   -0.3476   -6.1458  -20.1651 O   0  0  0  0  0  0  0  0  0  0  0  0
    1.2343   -5.5717  -17.7372 C   0  0  2  0  0  0  0  0  0  0  0  0
    1.5488   -5.0065  -18.9581 O   0  0  0  0  0  0  0  0  0  0  0  0
    2.3889   -6.1290  -16.9844 C   0  0  0  0  0  0  0  0  0  0  0  0
   -2.1912   -5.8346  -18.7912 N   0  0  0  0  0  0  0  0  0  0  0  0
   -3.1681   -6.6620  -18.1475 C   0  0  2  0  0  0  0  0  0  0  0  0
   -3.1486   -8.0771  -18.6703 C   0  0  0  0  0  0  0  0  0  0  0  0
   -3.3593   -8.3001  -19.8682 O   0  0  0  0  0  0  0  0  0  0  0  0
   -4.4838   -6.0019  -18.3234 C   0  0  0  0  0  0  0  0  0  0  0  0
   -4.2322   -4.7822  -19.1547 C   0  0  0  0  0  0  0  0  0  0  0  0
   -2.7548   -4.6176  -19.2541 C   0  0  0  0  0  0  0  0  0  0  0  0
   -2.8833   -9.1124  -17.7682 N   0  0  0  0  0  0  0  0  0  0  0  0
   -2.9849  -10.5196  -18.0855 C   0  0  2  0  0  0  0  0  0  0  0  0
   -4.3801  -10.9443  -18.3925 C   0  0  0  0  0  0  0  0  0  0  0  0
   -4.6068  -11.8443  -19.2009 O   0  0  0  0  0  0  0  0  0  0  0  0
   -2.4815  -11.2689  -16.8732 C   0  0  0  0  0  0  0  0  0  0  0  0
   -2.5825  -12.7608  -17.0645 C   0  0  1  0  0  0  0  0  0  0  0  0
   -3.9291  -13.2472  -16.5304 C   0  0  0  0  0  0  0  0  0  0  0  0
   -2.5475  -13.1310  -18.5519 C   0  0  0  0  0  0  0  0  0  0  0  0
   -5.4066  -10.2380  -17.6999 N   0  0  0  0  0  0  0  0  0  0  0  0
   -6.7959  -10.5389  -17.9330 C   0  0  2  0  0  0  0  0  0  0  0  0
   -7.5385  -10.6899  -16.6301 C   0  0  0  0  0  0  0  0  0  0  0  0
   -7.0862  -11.2959  -15.6400 O   0  0  0  0  0  0  0  0  0  0  0  0
   -6.8840  -11.8009  -18.7382 C   0  0  0  0  0  0  0  0  0  0  0  0
   -5.8794  -11.6698  -20.2595 S   0  0  0  0  0  0  0  0  0  0  0  0
   -8.8183  -10.1069  -16.5429 N   0  0  0  0  0  0  0  0  0  0  0  0
   -9.1402   -8.7492  -16.4787 C   0  0  0  0  0  0  0  0  0  0  0  0
   -9.4658   -8.1467  -15.2088 C   0  0  0  0  0  0  0  0  0  0  0  0
   -8.3182   -7.9082  -14.5428 O   0  0  0  0  0  0  0  0  0  0  0  0
  -10.5754   -7.7635  -14.5156 N   0  0  0  0  0  0  0  0  0  0  0  0
  -11.8959   -7.3891  -15.0836 C   0  0  2  0  0  0  0  0  0  0  0  0
  -11.9579   -7.4181  -16.5231 C   0  0  0  0  0  0  0  0  0  0  0  0
  -10.9125   -7.3461  -17.2827 O   0  0  0  0  0  0  0  0  0  0  0  0
  -12.0115   -5.9938  -14.4682 C   0  0  0  0  0  0  0  0  0  0  0  0
  -11.4461   -6.2270  -13.0539 C   0  0  0  0  0  0  0  0  0  0  0  0
  -10.8665   -7.6575  -13.0996 C   0  0  0  0  0  0  0  0  0  0  0  0
  -13.2043   -7.5394  -17.1793 N   0  0  0  0  0  0  0  0  0  0  0  0
  -14.1259   -6.4806  -17.4590 C   0  0  2  0  0  0  0  0  0  0  0  0
  -14.2242   -6.1670  -18.9414 C   0  0  0  0  0  0  0  0  0  0  0  0
  -15.2368   -5.5804  -19.3387 O   0  0  0  0  0  0  0  0  0  0  0  0
  -13.9479   -5.3062  -16.5957 C   0  0  0  0  0  0  0  0  0  0  0  0
  -13.8567   -4.1726  -17.4454 O   0  0  0  0  0  0  0  0  0  0  0  0
  -13.1555   -6.5589  -19.7481 N   0  0  0  0  0  0  0  0  0  0  0  0
  -12.8028   -5.8430  -20.9667 C   0  0  2  0  0  0  0  0  0  0  0  0
  -13.8026   -6.1352  -22.0299 C   0  0  0  0  0  0  0  0  0  0  0  0
  -13.7801   -5.4755  -23.1049 O   0  0  0  0  0  0  0  0  0  0  0  0
  -11.3877   -6.0350  -21.3234 C   0  0  0  0  0  0  0  0  0  0  0  0
  -11.0390   -7.1073  -22.2850 C   0  0  0  0  0  0  0  0  0  0  0  0
  -10.9453   -6.7695  -23.7211 C   0  0  0  0  0  0  0  0  0  0  0  0
  -10.1748   -7.7854  -24.4551 N   0  0  0  0  0  0  0  0  0  0  0  0
   -9.9020   -7.6835  -25.8177 C   0  0  0  0  0  0  0  0  0  0  0  0
   -8.9719   -8.3327  -26.4026 N   0  0  0  0  0  0  0  0  0  0  0  0
  -10.6789   -6.8339  -26.7109 N   0  0  0  0  0  0  0  0  0  0  0  0
  -14.7885   -7.1180  -21.8933 N   0  0  0  0  0  0  0  0  0  0  0  0
  -15.7218   -7.5844  -22.8962 C   0  0  2  0  0  0  0  0  0  0  0  0
  -15.4378   -8.9938  -23.1816 C   0  0  0  0  0  0  0  0  0  0  0  0
  -14.2386   -9.3408  -23.2883 O   0  0  0  0  0  0  0  0  0  0  0  0
  -15.4018   -6.8356  -24.2353 C   0  0  0  0  0  0  0  0  0  0  0  0
  -16.4424  -10.0152  -23.3600 N   0  0  0  0  0  0  0  0  0  0  0  0
  -16.2193  -11.2495  -22.5813 C   0  0  2  0  0  0  0  0  0  0  0  0
  -16.5159  -12.3938  -23.5607 C   0  0  0  0  0  0  0  0  0  0  0  0
  -16.5521  -13.5673  -23.2106 O   0  0  0  0  0  0  0  0  0  0  0  0
  -17.1017  -11.3338  -21.3835 C   0  0  0  0  0  0  0  0  0  0  0  0
  -16.5421  -12.2385  -20.4837 O   0  0  0  0  0  0  0  0  0  0  0  0
  -16.7449  -12.0308  -24.9171 N   0  0  0  0  0  0  0  0  0  0  0  0
  -17.5155  -12.8984  -25.8491 C   0  0  2  0  0  0  0  0  0  0  0  0
  -16.6510  -13.0714  -26.9971 C   0  0  0  0  0  0  0  0  0  0  0  0
  -16.8461  -14.1652  -27.6828 O   0  0  0  0  0  0  0  0  0  0  0  0
  -18.8476  -12.2045  -26.1150 C   0  0  2  0  0  0  0  0  0  0  0  0
  -19.9398  -13.1614  -26.3892 C   0  0  0  0  0  0  0  0  0  0  0  0
  -18.6864  -11.1416  -27.1591 C   0  0  0  0  0  0  0  0  0  0  0  0
  -20.3166  -13.2452  -27.8575 C   0  0  0  0  0  0  0  0  0  0  0  0
  -15.6232  -12.2565  -27.5212 N   0  0  0  0  0  0  0  0  0  0  0  0
  -15.8140  -11.4837  -28.7131 C   0  0  2  0  0  0  0  0  0  0  0  0
  -14.9524  -11.9308  -29.8654 C   0  0  0  0  0  0  0  0  0  0  0  0
  -14.8546  -13.1511  -30.1118 O   0  0  0  0  0  0  0  0  0  0  0  0
  -15.7760  -10.0139  -28.6028 C   0  0  0  0  0  0  0  0  0  0  0  0
  -14.6261   -9.4722  -27.8124 C   0  0  1  0  0  0  0  0  0  0  0  0
  -14.9542   -9.3255  -26.3258 C   0  0  0  0  0  0  0  0  0  0  0  0
  -13.4500  -10.3962  -27.8962 C   0  0  0  0  0  0  0  0  0  0  0  0
  -14.2511  -11.0013  -30.6496 N   0  0  0  0  0  0  0  0  0  0  0  0
  -13.7897  -11.1899  -32.0002 C   0  0  2  0  0  0  0  0  0  0  0  0
  -12.9858  -10.0819  -32.5432 C   0  0  0  0  0  0  0  0  0  0  0  0
  -12.6638   -9.1360  -31.7997 O   0  0  0  0  0  0  0  0  0  0  0  0
  -14.9142  -11.5922  -32.9505 C   0  0  0  0  0  0  0  0  0  0  0  0
  -15.4315  -10.4279  -33.5545 O   0  0  0  0  0  0  0  0  0  0  0  0
  -12.5841  -10.0984  -33.8942 N   0  0  0  0  0  0  0  0  0  0  0  0
  -13.1582   -9.1865  -34.8767 C   0  0  0  0  0  0  0  0  0  0  0  0
  -12.6062   -7.8178  -34.7026 C   0  0  0  0  0  0  0  0  0  0  0  0
  -11.2322   -7.5461  -34.7926 O   0  0  0  0  0  0  0  0  0  0  0  0
  -13.3194   -6.8090  -34.4582 O   0  0  0  0  0  0  0  0  0  0  0  0
   -8.2200   -8.8505  -25.8478 H   0  0  0  0  0  0  0  0  0  0  0  0
  1  2  2  0
  1  3  1  0
  1 10  1  0
  3  4  2  0
  3  9  1  0
  4  5  1  0
  4  6  1  0
  5  7  2  0
  7  8  1  0
  8  9  2  0
 10 11  1  0
 11 12  1  0
 11 14  1  1
 12 13  2  0
 12 15  1  0
 16 15  1  1
 16 17  1  0
 16 19  1  0
 17 18  2  0
 17 22  1  0
 19 20  1  0
 19 21  1  1
 23 22  1  6
 23 24  1  0
 23 26  1  0
 24 25  2  0
 24 29  1  0
 26 27  1  0
 26 28  1  6
 29 30  1  0
 29 35  1  0
 30 31  1  6
 30 33  1  0
 31 32  2  0
 31 36  1  0
 33 34  1  0
 34 35  1  0
 36 37  1  0
 37 38  1  0
 37 40  1  1
 38 39  2  0
 38 44  1  0
 40 41  1  0
 41 42  1  6
 41 43  1  0
 44 45  1  0
 45 46  1  0
 45 48  1  1
 46 47  2  0
 46 50  1  0
 48 49  1  0
 50 51  1  0
 51 52  1  0
 52 53  2  0
 52 54  1  0
 54 55  1  0
 54 60  1  0
 55 56  1  6
 55 58  1  0
 56 57  2  0
 56 61  1  0
 58 59  1  0
 59 60  1  0
 61 62  1  0
 62 63  1  0
 62 65  1  1
 63 64  2  0
 63 67  1  0
 65 66  1  0
 67 68  1  0
 68 69  1  0
 68 71  1  6
 69 70  2  0
 69 78  1  0
 71 72  1  0
 72 73  1  0
 73 74  1  0
 74 75  1  0
 75 76  2  0
 75 77  1  0
 78 79  1  0
 79 80  1  0
 79 82  1  6
 80 81  2  0
 80 83  1  0
 83 84  1  0
 84 85  1  0
 84 87  1  1
 85 86  2  0
 85 89  1  0
 87 88  1  0
 90 89  1  1
 90 91  1  0
 90 93  1  0
 91 92  2  0
 91 97  1  0
 93 94  1  0
 93 95  1  6
 94 96  1  0
 97 98  1  0
 98 99  1  0
 98101  1  1
 99100  2  0
 99105  1  0
101102  1  0
102103  1  1
102104  1  0
105106  1  0
106107  1  0
106109  1  6
107108  2  0
107111  1  0
109110  1  0
111112  1  0
112113  1  0
113114  1  0
113115  2  0
 76116  1  0
M  END
$$$$
