
     RDKit          3D

116118  0  0  0  0  0  0  0  0999 V2000
    8.3611  -17.8083  -18.2320 C   0  0  0  0  0  0  0  0  0  0  0  0
    8.8444  -17.2385  -17.1907 O   0  0  0  0  0  0  0  0  0  0  0  0
    9.1957  -18.6010  -19.1147 C   0  0  0  0  0  0  0  0  0  0  0  0
   10.3870  -19.0821  -18.6133 C   0  0  0  0  0  0  0  0  0  0  0  0
   11.2267  -19.8536  -19.4116 C   0  0  0  0  0  0  0  0  0  0  0  0
   10.8088  -18.8219  -17.2945 N   0  0  0  0  0  0  0  0  0  0  0  0
   10.8699  -20.1448  -20.7071 C   0  0  0  0  0  0  0  0  0  0  0  0
    9.6756  -19.6544  -21.1790 C   0  0  0  0  0  0  0  0  0  0  0  0
    8.8335  -18.8842  -20.3959 C   0  0  0  0  0  0  0  0  0  0  0  0
    6.9747  -17.6001  -18.4501 N   0  0  0  0  0  0  0  0  0  0  0  0
    6.3249  -16.4748  -17.7855 C   0  0  2  0  0  0  0  0  0  0  0  0
    4.8934  -16.3539  -18.0896 C   0  0  0  0  0  0  0  0  0  0  0  0
    4.5267  -15.7725  -19.1829 O   0  0  0  0  0  0  0  0  0  0  0  0
    7.0728  -15.1642  -17.9729 C   0  0  0  0  0  0  0  0  0  0  0  0
    3.8231  -16.8347  -17.2717 N   0  0  0  0  0  0  0  0  0  0  0  0
    2.5980  -16.0776  -17.1444 C   0  0  2  0  0  0  0  0  0  0  0  0
    2.6540  -14.7402  -17.8115 C   0  0  0  0  0  0  0  0  0  0  0  0
    3.6689  -13.9998  -17.6711 O   0  0  0  0  0  0  0  0  0  0  0  0
    1.9764  -16.0791  -15.8158 C   0  0  2  0  0  0  0  0  0  0  0  0
    2.4483  -15.1045  -14.9435 O   0  0  0  0  0  0  0  0  0  0  0  0
    2.0405  -17.4724  -15.2279 C   0  0  0  0  0  0  0  0  0  0  0  0
    1.5489  -14.3521  -18.5986 N   0  0  0  0  0  0  0  0  0  0  0  0
    0.9968  -13.0420  -18.5934 C   0  0  2  0  0  0  0  0  0  0  0  0
    0.1878  -12.6325  -17.4709 C   0  0  0  0  0  0  0  0  0  0  0  0
   -0.9428  -13.3204  -17.4015 O   0  0  0  0  0  0  0  0  0  0  0  0
    0.3195  -12.7408  -19.9428 C   0  0  2  0  0  0  0  0  0  0  0  0
    0.4975  -13.8426  -20.7573 O   0  0  0  0  0  0  0  0  0  0  0  0
    0.7870  -11.4511  -20.5160 C   0  0  0  0  0  0  0  0  0  0  0  0
    0.3884  -11.6619  -16.4738 N   0  0  0  0  0  0  0  0  0  0  0  0
   -0.5512  -11.4022  -15.4236 C   0  0  2  0  0  0  0  0  0  0  0  0
   -1.9525  -11.2099  -15.9487 C   0  0  0  0  0  0  0  0  0  0  0  0
   -2.2373  -10.2015  -16.6051 O   0  0  0  0  0  0  0  0  0  0  0  0
   -0.0522  -10.2260  -14.6719 C   0  0  0  0  0  0  0  0  0  0  0  0
    1.1912   -9.7768  -15.3751 C   0  0  0  0  0  0  0  0  0  0  0  0
    1.5309  -10.8263  -16.3765 C   0  0  0  0  0  0  0  0  0  0  0  0
   -2.9031  -12.1987  -15.6757 N   0  0  0  0  0  0  0  0  0  0  0  0
   -4.3079  -12.0951  -16.0031 C   0  0  2  0  0  0  0  0  0  0  0  0
   -4.7209  -10.7052  -16.3478 C   0  0  0  0  0  0  0  0  0  0  0  0
   -3.9547   -9.9422  -16.9357 O   0  0  0  0  0  0  0  0  0  0  0  0
   -5.0671  -12.5620  -14.7824 C   0  0  0  0  0  0  0  0  0  0  0  0
   -4.8688  -14.0364  -14.5389 C   0  0  1  0  0  0  0  0  0  0  0  0
   -5.6371  -14.4476  -13.2834 C   0  0  0  0  0  0  0  0  0  0  0  0
   -5.4441  -14.8691  -15.6905 C   0  0  0  0  0  0  0  0  0  0  0  0
   -6.0374  -10.3350  -15.9454 N   0  0  0  0  0  0  0  0  0  0  0  0
   -6.2642   -9.1420  -15.1706 C   0  0  2  0  0  0  0  0  0  0  0  0
   -6.9752   -8.0962  -15.9909 C   0  0  0  0  0  0  0  0  0  0  0  0
   -7.9273   -8.3433  -16.7555 O   0  0  0  0  0  0  0  0  0  0  0  0
   -4.9414   -8.6243  -14.6901 C   0  0  0  0  0  0  0  0  0  0  0  0
   -4.1301   -9.8401  -13.5927 S   0  0  0  0  0  0  0  0  0  0  0  0
   -6.5243   -6.7663  -15.8760 N   0  0  0  0  0  0  0  0  0  0  0  0
   -7.2930   -5.6090  -15.7318 C   0  0  0  0  0  0  0  0  0  0  0  0
   -7.6617   -4.8410  -16.8963 C   0  0  0  0  0  0  0  0  0  0  0  0
   -8.1659   -3.6598  -16.4863 O   0  0  0  0  0  0  0  0  0  0  0  0
   -7.6437   -4.9723  -18.2531 N   0  0  0  0  0  0  0  0  0  0  0  0
   -8.7522   -4.6651  -19.1930 C   0  0  2  0  0  0  0  0  0  0  0  0
   -9.9652   -4.2127  -18.5600 C   0  0  0  0  0  0  0  0  0  0  0  0
  -10.4196   -4.7089  -17.4544 O   0  0  0  0  0  0  0  0  0  0  0  0
   -8.8560   -6.0351  -19.8648 C   0  0  0  0  0  0  0  0  0  0  0  0
   -7.3730   -6.4307  -20.0011 C   0  0  0  0  0  0  0  0  0  0  0  0
   -6.6104   -5.3580  -19.1935 C   0  0  0  0  0  0  0  0  0  0  0  0
  -10.7233   -3.1690  -19.1387 N   0  0  0  0  0  0  0  0  0  0  0  0
  -12.1417   -2.9976  -19.0518 C   0  0  2  0  0  0  0  0  0  0  0  0
  -12.8625   -3.4374  -20.3137 C   0  0  0  0  0  0  0  0  0  0  0  0
  -14.0983   -3.4429  -20.2973 O   0  0  0  0  0  0  0  0  0  0  0  0
  -12.5420   -1.6781  -18.5468 C   0  0  0  0  0  0  0  0  0  0  0  0
  -11.8853   -0.7071  -19.3476 O   0  0  0  0  0  0  0  0  0  0  0  0
  -12.0730   -3.7968  -21.4064 N   0  0  0  0  0  0  0  0  0  0  0  0
  -12.6521   -4.1668  -22.6908 C   0  0  2  0  0  0  0  0  0  0  0  0
  -13.4416   -5.4202  -22.5452 C   0  0  0  0  0  0  0  0  0  0  0  0
  -13.8158   -5.7914  -21.3991 O   0  0  0  0  0  0  0  0  0  0  0  0
  -11.6508   -4.1415  -23.7694 C   0  0  0  0  0  0  0  0  0  0  0  0
  -10.5168   -3.1937  -23.6609 C   0  0  0  0  0  0  0  0  0  0  0  0
   -9.1412   -3.7339  -23.6275 C   0  0  0  0  0  0  0  0  0  0  0  0
   -8.2169   -2.8770  -24.3863 N   0  0  0  0  0  0  0  0  0  0  0  0
   -7.3659   -1.9600  -23.7728 C   0  0  0  0  0  0  0  0  0  0  0  0
   -6.1319   -1.8314  -24.0720 N   0  0  0  0  0  0  0  0  0  0  0  0
   -7.8203   -1.0393  -22.7389 N   0  0  0  0  0  0  0  0  0  0  0  0
  -13.7912   -6.2261  -23.6337 N   0  0  0  0  0  0  0  0  0  0  0  0
  -14.6557   -5.8907  -24.7448 C   0  0  2  0  0  0  0  0  0  0  0  0
  -15.9941   -6.4242  -24.4751 C   0  0  0  0  0  0  0  0  0  0  0  0
  -16.3394   -6.5657  -23.2790 O   0  0  0  0  0  0  0  0  0  0  0  0
  -14.1562   -6.6864  -25.9993 C   0  0  0  0  0  0  0  0  0  0  0  0
  -16.9452   -6.8103  -25.4904 N   0  0  0  0  0  0  0  0  0  0  0  0
  -18.1738   -7.4504  -24.9801 C   0  0  2  0  0  0  0  0  0  0  0  0
  -18.9658   -7.8427  -26.2353 C   0  0  0  0  0  0  0  0  0  0  0  0
  -18.6333   -7.4901  -27.3604 O   0  0  0  0  0  0  0  0  0  0  0  0
  -18.9717   -6.5390  -24.1123 C   0  0  0  0  0  0  0  0  0  0  0  0
  -19.7366   -5.7077  -24.9278 O   0  0  0  0  0  0  0  0  0  0  0  0
  -20.1260   -8.6414  -26.0351 N   0  0  0  0  0  0  0  0  0  0  0  0
  -20.0711   -9.9565  -25.3405 C   0  0  2  0  0  0  0  0  0  0  0  0
  -20.4763  -10.9224  -26.3396 C   0  0  0  0  0  0  0  0  0  0  0  0
  -20.5094  -12.1633  -25.9350 O   0  0  0  0  0  0  0  0  0  0  0  0
  -20.9656   -9.8546  -24.1091 C   0  0  2  0  0  0  0  0  0  0  0  0
  -20.2930  -10.3248  -22.8801 C   0  0  0  0  0  0  0  0  0  0  0  0
  -22.2919  -10.5020  -24.3689 C   0  0  0  0  0  0  0  0  0  0  0  0
  -18.9407  -10.9651  -23.1375 C   0  0  0  0  0  0  0  0  0  0  0  0
  -20.8535  -10.7627  -27.6914 N   0  0  0  0  0  0  0  0  0  0  0  0
  -21.4300  -11.8400  -28.4406 C   0  0  2  0  0  0  0  0  0  0  0  0
  -20.4678  -12.9668  -28.7135 C   0  0  0  0  0  0  0  0  0  0  0  0
  -19.2468  -12.7792  -28.5311 O   0  0  0  0  0  0  0  0  0  0  0  0
  -22.1753  -11.5118  -29.6698 C   0  0  0  0  0  0  0  0  0  0  0  0
  -21.3214  -11.1684  -30.8501 C   0  0  1  0  0  0  0  0  0  0  0  0
  -20.5692   -9.8496  -30.6653 C   0  0  0  0  0  0  0  0  0  0  0  0
  -20.2794  -12.2221  -31.0684 C   0  0  0  0  0  0  0  0  0  0  0  0
  -20.9214  -14.2101  -29.1817 N   0  0  0  0  0  0  0  0  0  0  0  0
  -22.1786  -14.4785  -29.8298 C   0  0  2  0  0  0  0  0  0  0  0  0
  -22.6392  -13.4276  -30.7529 C   0  0  0  0  0  0  0  0  0  0  0  0
  -21.9106  -12.4417  -30.9726 O   0  0  0  0  0  0  0  0  0  0  0  0
  -23.2698  -14.8828  -28.8424 C   0  0  0  0  0  0  0  0  0  0  0  0
  -24.3914  -15.3314  -29.5695 O   0  0  0  0  0  0  0  0  0  0  0  0
  -23.8949  -13.5433  -31.3828 N   0  0  0  0  0  0  0  0  0  0  0  0
  -24.0589  -14.2615  -32.6413 C   0  0  0  0  0  0  0  0  0  0  0  0
  -24.3992  -15.6857  -32.3881 C   0  0  0  0  0  0  0  0  0  0  0  0
  -25.6222  -16.0752  -31.8203 O   0  0  0  0  0  0  0  0  0  0  0  0
  -23.6237  -16.6414  -32.6551 O   0  0  0  0  0  0  0  0  0  0  0  0
   -5.7802   -1.9932  -25.0678 H   0  0  0  0  0  0  0  0  0  0  0  0
  1  2  2  0
  1  3  1  0
  1 10  1  0
  3  4  2  0
  3  9  1  0
  4  5  1  0
  4  6  1  0
  5  7  2  0
  7  8  1  0
  8  9  2  0
 10 11  1  0
 11 12  1  0
 11 14  1  6
 12 13  2  0
 12 15  1  0
 16 15  1  1
 16 17  1  0
 16 19  1  0
 17 18  2  0
 17 22  1  0
 19 20  1  0
 19 21  1  1
 23 22  1  1
 23 24  1  0
 23 26  1  0
 24 25  2  0
 24 29  1  0
 26 27  1  0
 26 28  1  6
 29 30  1  0
 29 35  1  0
 30 31  1  6
 30 33  1  0
 31 32  2  0
 31 36  1  0
 33 34  1  0
 34 35  1  0
 36 37  1  0
 37 38  1  0
 37 40  1  1
 38 39  2  0
 38 44  1  0
 40 41  1  0
 41 42  1  1
 41 43  1  0
 44 45  1  0
 45 46  1  0
 45 48  1  6
 46 47  2  0
 46 50  1  0
 48 49  1  0
 50 51  1  0
 51 52  1  0
 52 53  2  0
 52 54  1  0
 54 55  1  0
 54 60  1  0
 55 56  1  1
 55 58  1  0
 56 57  2  0
 56 61  1  0
 58 59  1  0
 59 60  1  0
 61 62  1  0
 62 63  1  0
 62 65  1  6
 63 64  2  0
 63 67  1  0
 65 66  1  0
 67 68  1  0
 68 69  1  0
 68 71  1  6
 69 70  2  0
 69 78  1  0
 71 72  1  0
 72 73  1  0
 73 74  1  0
 74 75  1  0
 75 76  2  0
 75 77  1  0
 78 79  1  0
 79 80  1  0
 79 82  1  6
 80 81  2  0
 80 83  1  0
 83 84  1  0
 84 85  1  0
 84 87  1  1
 85 86  2  0
 85 89  1  0
 87 88  1  0
 90 89  1  6
 90 91  1  0
 90 93  1  0
 91 92  2  0
 91 97  1  0
 93 94  1  0
 93 95  1  6
 94 96  1  0
 97 98  1  0
 98 99  1  0
 98101  1  6
 99100  2  0
 99105  1  0
101102  1  0
102103  1  1
102104  1  0
105106  1  0
106107  1  0
106109  1  1
107108  2  0
107111  1  0
109110  1  0
111112  1  0
112113  1  0
113114  1  0
113115  2  0
 76116  1  0
M  END
$$$$
