
     RDKit          3D

116118  0  0  0  0  0  0  0  0999 V2000
    8.4891  -14.0183  -12.8134 C   0  0  0  0  0  0  0  0  0  0  0  0
    8.1168  -14.8130  -13.7474 O   0  0  0  0  0  0  0  0  0  0  0  0
    8.0406  -14.1981  -11.4458 C   0  0  0  0  0  0  0  0  0  0  0  0
    7.0001  -15.0747  -11.2201 C   0  0  0  0  0  0  0  0  0  0  0  0
    6.5304  -15.2926   -9.9279 C   0  0  0  0  0  0  0  0  0  0  0  0
    6.3695  -15.7798  -12.2641 N   0  0  0  0  0  0  0  0  0  0  0  0
    7.1062  -14.6363   -8.8657 C   0  0  0  0  0  0  0  0  0  0  0  0
    8.1433  -13.7708   -9.1202 C   0  0  0  0  0  0  0  0  0  0  0  0
    8.6172  -13.5439  -10.4006 C   0  0  0  0  0  0  0  0  0  0  0  0
    9.3517  -12.9670  -13.2182 N   0  0  0  0  0  0  0  0  0  0  0  0
   10.0865  -13.1104  -14.4711 C   0  0  2  0  0  0  0  0  0  0  0  0
   10.9736  -11.9790  -14.7701 C   0  0  0  0  0  0  0  0  0  0  0  0
   11.9804  -11.7440  -13.9961 O   0  0  0  0  0  0  0  0  0  0  0  0
    9.1908  -13.4741  -15.6447 C   0  0  0  0  0  0  0  0  0  0  0  0
   10.8353  -11.0790  -15.8729 N   0  0  0  0  0  0  0  0  0  0  0  0
    9.9368  -11.3853  -16.9635 C   0  0  2  0  0  0  0  0  0  0  0  0
   10.5227  -12.3235  -17.9702 C   0  0  0  0  0  0  0  0  0  0  0  0
   11.0851  -13.3915  -17.5946 O   0  0  0  0  0  0  0  0  0  0  0  0
    9.2049  -10.2484  -17.5321 C   0  0  2  0  0  0  0  0  0  0  0  0
   10.0013   -9.2072  -17.9956 O   0  0  0  0  0  0  0  0  0  0  0  0
    8.1471   -9.7860  -16.5531 C   0  0  0  0  0  0  0  0  0  0  0  0
   10.4134  -11.9759  -19.3335 N   0  0  0  0  0  0  0  0  0  0  0  0
    9.8273  -12.8170  -20.3184 C   0  0  2  0  0  0  0  0  0  0  0  0
    8.5286  -12.4719  -20.8444 C   0  0  0  0  0  0  0  0  0  0  0  0
    8.0626  -13.4073  -21.6594 O   0  0  0  0  0  0  0  0  0  0  0  0
    9.9077  -14.2909  -19.8807 C   0  0  2  0  0  0  0  0  0  0  0  0
    8.8932  -14.9755  -20.5219 O   0  0  0  0  0  0  0  0  0  0  0  0
    9.9201  -14.4239  -18.4000 C   0  0  0  0  0  0  0  0  0  0  0  0
    7.7031  -11.3513  -20.6461 N   0  0  0  0  0  0  0  0  0  0  0  0
    6.2725  -11.4213  -20.6049 C   0  0  2  0  0  0  0  0  0  0  0  0
    5.7061  -12.1824  -21.7780 C   0  0  0  0  0  0  0  0  0  0  0  0
    6.4635  -12.7289  -22.5884 O   0  0  0  0  0  0  0  0  0  0  0  0
    5.7691  -10.0292  -20.5253 C   0  0  0  0  0  0  0  0  0  0  0  0
    6.9754   -9.1441  -20.5852 C   0  0  0  0  0  0  0  0  0  0  0  0
    8.1708  -10.0247  -20.4614 C   0  0  0  0  0  0  0  0  0  0  0  0
    4.3159  -12.2518  -21.9130 N   0  0  0  0  0  0  0  0  0  0  0  0
    3.4350  -11.1050  -21.9038 C   0  0  2  0  0  0  0  0  0  0  0  0
    2.0298  -11.4517  -22.2589 C   0  0  0  0  0  0  0  0  0  0  0  0
    1.6109  -12.6032  -22.1432 O   0  0  0  0  0  0  0  0  0  0  0  0
    3.9895  -10.1316  -22.9186 C   0  0  0  0  0  0  0  0  0  0  0  0
    3.7043  -10.5815  -24.3289 C   0  0  1  0  0  0  0  0  0  0  0  0
    4.9363  -11.2899  -24.8906 C   0  0  0  0  0  0  0  0  0  0  0  0
    2.5634  -11.6051  -24.3625 C   0  0  0  0  0  0  0  0  0  0  0  0
    1.2308  -10.3733  -22.7397 N   0  0  0  0  0  0  0  0  0  0  0  0
   -0.1981  -10.5102  -22.8605 C   0  0  2  0  0  0  0  0  0  0  0  0
   -0.8044   -9.2796  -23.4849 C   0  0  0  0  0  0  0  0  0  0  0  0
   -0.3273   -8.1348  -23.3668 O   0  0  0  0  0  0  0  0  0  0  0  0
   -0.7737  -10.7459  -21.4960 C   0  0  0  0  0  0  0  0  0  0  0  0
   -1.8910  -12.1924  -21.5056 S   0  0  0  0  0  0  0  0  0  0  0  0
   -1.9799   -9.4502  -24.2428 N   0  0  0  0  0  0  0  0  0  0  0  0
   -2.1782   -9.1633  -25.5953 C   0  0  0  0  0  0  0  0  0  0  0  0
   -3.2510   -8.2848  -25.9942 C   0  0  0  0  0  0  0  0  0  0  0  0
   -3.6230   -8.6080  -27.2490 O   0  0  0  0  0  0  0  0  0  0  0  0
   -3.9709   -7.2511  -25.4730 N   0  0  0  0  0  0  0  0  0  0  0  0
   -5.3778   -6.8953  -25.7905 C   0  0  2  0  0  0  0  0  0  0  0  0
   -5.9991   -7.7384  -26.7804 C   0  0  0  0  0  0  0  0  0  0  0  0
   -5.3877   -8.1642  -27.8386 O   0  0  0  0  0  0  0  0  0  0  0  0
   -5.1430   -5.4520  -26.2385 C   0  0  0  0  0  0  0  0  0  0  0  0
   -4.0883   -4.9754  -25.2213 C   0  0  0  0  0  0  0  0  0  0  0  0
   -3.6772   -6.2553  -24.4614 C   0  0  0  0  0  0  0  0  0  0  0  0
   -7.3417   -8.1521  -26.6211 N   0  0  0  0  0  0  0  0  0  0  0  0
   -8.5059   -7.4650  -27.0913 C   0  0  2  0  0  0  0  0  0  0  0  0
   -9.5750   -7.3261  -26.0221 C   0  0  0  0  0  0  0  0  0  0  0  0
   -9.7330   -6.2131  -25.5088 O   0  0  0  0  0  0  0  0  0  0  0  0
   -8.9948   -7.9593  -28.3848 C   0  0  0  0  0  0  0  0  0  0  0  0
  -10.4110   -7.8637  -28.3607 O   0  0  0  0  0  0  0  0  0  0  0  0
  -10.3088   -8.4687  -25.7022 N   0  0  0  0  0  0  0  0  0  0  0  0
  -11.5042   -8.4131  -24.8715 C   0  0  2  0  0  0  0  0  0  0  0  0
  -12.3536   -7.2638  -25.2874 C   0  0  0  0  0  0  0  0  0  0  0  0
  -12.0753   -6.1031  -24.8791 O   0  0  0  0  0  0  0  0  0  0  0  0
  -11.1791   -8.5067  -23.4390 C   0  0  0  0  0  0  0  0  0  0  0  0
  -12.2556   -8.2603  -22.4509 C   0  0  0  0  0  0  0  0  0  0  0  0
  -12.3959   -6.9049  -21.8777 C   0  0  0  0  0  0  0  0  0  0  0  0
  -13.5023   -6.8511  -20.9095 N   0  0  0  0  0  0  0  0  0  0  0  0
  -13.3192   -6.4861  -19.5773 C   0  0  0  0  0  0  0  0  0  0  0  0
  -14.1178   -6.8161  -18.6381 N   0  0  0  0  0  0  0  0  0  0  0  0
  -12.1735   -5.7054  -19.1291 N   0  0  0  0  0  0  0  0  0  0  0  0
  -13.4695   -7.4081  -26.1183 N   0  0  0  0  0  0  0  0  0  0  0  0
  -14.8655   -7.4128  -25.7368 C   0  0  2  0  0  0  0  0  0  0  0  0
  -14.9640   -7.7886  -24.3234 C   0  0  0  0  0  0  0  0  0  0  0  0
  -14.1008   -8.5715  -23.8629 O   0  0  0  0  0  0  0  0  0  0  0  0
  -15.5705   -8.5807  -26.5084 C   0  0  0  0  0  0  0  0  0  0  0  0
  -15.9926   -7.3296  -23.4204 N   0  0  0  0  0  0  0  0  0  0  0  0
  -16.1864   -8.1681  -22.2208 C   0  0  2  0  0  0  0  0  0  0  0  0
  -17.4817   -7.6493  -21.5808 C   0  0  0  0  0  0  0  0  0  0  0  0
  -18.4157   -7.2151  -22.2441 O   0  0  0  0  0  0  0  0  0  0  0  0
  -15.0459   -8.0683  -21.2668 C   0  0  0  0  0  0  0  0  0  0  0  0
  -13.8895   -8.5016  -21.9120 O   0  0  0  0  0  0  0  0  0  0  0  0
  -17.5527   -7.6879  -20.1604 N   0  0  0  0  0  0  0  0  0  0  0  0
  -18.7668   -8.1613  -19.4414 C   0  0  2  0  0  0  0  0  0  0  0  0
  -18.2647   -8.7967  -18.2416 C   0  0  0  0  0  0  0  0  0  0  0  0
  -18.1553  -10.0963  -18.3023 O   0  0  0  0  0  0  0  0  0  0  0  0
  -19.5377   -9.0620  -20.4013 C   0  0  2  0  0  0  0  0  0  0  0  0
  -20.8197   -9.5289  -19.8335 C   0  0  0  0  0  0  0  0  0  0  0  0
  -18.6561  -10.1611  -20.9118 C   0  0  0  0  0  0  0  0  0  0  0  0
  -22.0316   -8.8216  -20.4131 C   0  0  0  0  0  0  0  0  0  0  0  0
  -17.8603   -8.2570  -17.0005 N   0  0  0  0  0  0  0  0  0  0  0  0
  -18.6800   -8.3726  -15.8304 C   0  0  2  0  0  0  0  0  0  0  0  0
  -20.1456   -8.1462  -16.0967 C   0  0  0  0  0  0  0  0  0  0  0  0
  -20.7655   -8.9623  -16.8102 O   0  0  0  0  0  0  0  0  0  0  0  0
  -18.2730   -7.6351  -14.6204 C   0  0  0  0  0  0  0  0  0  0  0  0
  -17.3852   -6.4565  -14.8711 C   0  0  1  0  0  0  0  0  0  0  0  0
  -16.7993   -5.8793  -13.5817 C   0  0  0  0  0  0  0  0  0  0  0  0
  -16.2194   -6.8500  -15.7256 C   0  0  0  0  0  0  0  0  0  0  0  0
  -20.8140   -7.0297  -15.5701 N   0  0  0  0  0  0  0  0  0  0  0  0
  -20.3384   -5.6710  -15.5542 C   0  0  2  0  0  0  0  0  0  0  0  0
  -21.1429   -4.7212  -16.3413 C   0  0  0  0  0  0  0  0  0  0  0  0
  -21.5308   -5.0426  -17.4803 O   0  0  0  0  0  0  0  0  0  0  0  0
  -18.8530   -5.5685  -15.8897 C   0  0  0  0  0  0  0  0  0  0  0  0
  -18.6269   -4.3521  -16.5658 O   0  0  0  0  0  0  0  0  0  0  0  0
  -21.4711   -3.4603  -15.8033 N   0  0  0  0  0  0  0  0  0  0  0  0
  -22.5286   -2.6342  -16.3740 C   0  0  0  0  0  0  0  0  0  0  0  0
  -22.5426   -2.7552  -17.8551 C   0  0  0  0  0  0  0  0  0  0  0  0
  -21.3802   -3.0153  -18.5974 O   0  0  0  0  0  0  0  0  0  0  0  0
  -23.5849   -2.6297  -18.5507 O   0  0  0  0  0  0  0  0  0  0  0  0
  -13.8337   -7.5211  -17.8872 H   0  0  0  0  0  0  0  0  0  0  0  0
  1  2  2  0
  1  3  1  0
  1 10  1  0
  3  4  2  0
  3  9  1  0
  4  5  1  0
  4  6  1  0
  5  7  2  0
  7  8  1  0
  8  9  2  0
 10 11  1  0
 11 12  1  0
 11 14  1  6
 12 13  2  0
 12 15  1  0
 16 15  1  6
 16 17  1  0
 16 19  1  0
 17 18  2  0
 17 22  1  0
 19 20  1  0
 19 21  1  1
 23 22  1  1
 23 24  1  0
 23 26  1  0
 24 25  2  0
 24 29  1  0
 26 27  1  0
 26 28  1  1
 29 30  1  0
 29 35  1  0
 30 31  1  6
 30 33  1  0
 31 32  2  0
 31 36  1  0
 33 34  1  0
 34 35  1  0
 36 37  1  0
 37 38  1  0
 37 40  1  6
 38 39  2  0
 38 44  1  0
 40 41  1  0
 41 42  1  1
 41 43  1  0
 44 45  1  0
 45 46  1  0
 45 48  1  1
 46 47  2  0
 46 50  1  0
 48 49  1  0
 50 51  1  0
 51 52  1  0
 52 53  2  0
 52 54  1  0
 54 55  1  0
 54 60  1  0
 55 56  1  6
 55 58  1  0
 56 57  2  0
 56 61  1  0
 58 59  1  0
 59 60  1  0
 61 62  1  0
 62 63  1  0
 62 65  1  6
 63 64  2  0
 63 67  1  0
 65 66  1  0
 67 68  1  0
 68 69  1  0
 68 71  1  1
 69 70  2  0
 69 78  1  0
 71 72  1  0
 72 73  1  0
 73 74  1  0
 74 75  1  0
 75 76  2  0
 75 77  1  0
 78 79  1  0
 79 80  1  0
 79 82  1  6
 80 81  2  0
 80 83  1  0
 83 84  1  0
 84 85  1  0
 84 87  1  1
 85 86  2  0
 85 89  1  0
 87 88  1  0
 90 89  1  6
 90 91  1  0
 90 93  1  0
 91 92  2  0
 91 97  1  0
 93 94  1  0
 93 95  1  1
 94 96  1  0
 97 98  1  0
 98 99  1  0
 98101  1  1
 99100  2  0
 99105  1  0
101102  1  0
102103  1  1
102104  1  0
105106  1  0
106107  1  0
106109  1  6
107108  2  0
107111  1  0
109110  1  0
111112  1  0
112113  1  0
113114  1  0
113115  2  0
 76116  1  0
M  END
$$$$
