
     RDKit          3D

116118  0  0  0  0  0  0  0  0999 V2000
  -25.2136   -4.3422  -23.3674 C   0  0  0  0  0  0  0  0  0  0  0  0
  -25.1549   -4.2677  -22.0893 O   0  0  0  0  0  0  0  0  0  0  0  0
  -26.0565   -3.4479  -24.1378 C   0  0  0  0  0  0  0  0  0  0  0  0
  -26.6379   -2.3850  -23.4788 C   0  0  0  0  0  0  0  0  0  0  0  0
  -27.4521   -1.4899  -24.1670 C   0  0  0  0  0  0  0  0  0  0  0  0
  -26.4440   -2.1552  -22.1025 N   0  0  0  0  0  0  0  0  0  0  0  0
  -27.6781   -1.6585  -25.5127 C   0  0  0  0  0  0  0  0  0  0  0  0
  -27.0832   -2.7249  -26.1439 C   0  0  0  0  0  0  0  0  0  0  0  0
  -26.2741   -3.6230  -25.4701 C   0  0  0  0  0  0  0  0  0  0  0  0
  -24.4095   -5.3531  -23.9545 N   0  0  0  0  0  0  0  0  0  0  0  0
  -23.5970   -6.1939  -23.0808 C   0  0  2  0  0  0  0  0  0  0  0  0
  -22.1528   -6.0707  -23.3162 C   0  0  0  0  0  0  0  0  0  0  0  0
  -21.5811   -6.8608  -24.1629 O   0  0  0  0  0  0  0  0  0  0  0  0
  -24.0612   -7.6415  -23.0531 C   0  0  0  0  0  0  0  0  0  0  0  0
  -21.2817   -5.1288  -22.6842 N   0  0  0  0  0  0  0  0  0  0  0  0
  -19.8594   -5.1542  -22.9431 C   0  0  2  0  0  0  0  0  0  0  0  0
  -19.0314   -5.2561  -21.7018 C   0  0  0  0  0  0  0  0  0  0  0  0
  -19.4965   -5.8186  -20.6696 O   0  0  0  0  0  0  0  0  0  0  0  0
  -19.3691   -4.1910  -23.9347 C   0  0  2  0  0  0  0  0  0  0  0  0
  -20.1343   -3.0373  -24.0639 O   0  0  0  0  0  0  0  0  0  0  0  0
  -19.1421   -4.8947  -25.2555 C   0  0  0  0  0  0  0  0  0  0  0  0
  -17.7282   -4.7159  -21.7354 N   0  0  0  0  0  0  0  0  0  0  0  0
  -16.8356   -4.7372  -20.6290 C   0  0  2  0  0  0  0  0  0  0  0  0
  -15.9000   -5.8294  -20.5111 C   0  0  0  0  0  0  0  0  0  0  0  0
  -15.9329   -6.6232  -21.5718 O   0  0  0  0  0  0  0  0  0  0  0  0
  -17.6011   -4.4791  -19.3184 C   0  0  2  0  0  0  0  0  0  0  0  0
  -18.6927   -3.6871  -19.6184 O   0  0  0  0  0  0  0  0  0  0  0  0
  -16.7076   -3.9452  -18.2569 C   0  0  0  0  0  0  0  0  0  0  0  0
  -14.9915   -6.1817  -19.4976 N   0  0  0  0  0  0  0  0  0  0  0  0
  -14.2944   -7.4331  -19.4615 C   0  0  2  0  0  0  0  0  0  0  0  0
  -15.2234   -8.6074  -19.6469 C   0  0  0  0  0  0  0  0  0  0  0  0
  -16.2080   -8.7431  -18.9112 O   0  0  0  0  0  0  0  0  0  0  0  0
  -13.5528   -7.4833  -18.1789 C   0  0  0  0  0  0  0  0  0  0  0  0
  -13.9029   -6.2266  -17.4438 C   0  0  0  0  0  0  0  0  0  0  0  0
  -14.6492   -5.3565  -18.3954 C   0  0  0  0  0  0  0  0  0  0  0  0
  -14.9400   -9.5210  -20.6671 N   0  0  0  0  0  0  0  0  0  0  0  0
  -14.1572   -9.2157  -21.8442 C   0  0  2  0  0  0  0  0  0  0  0  0
  -12.7364   -9.6487  -21.7226 C   0  0  0  0  0  0  0  0  0  0  0  0
  -12.1820  -10.2702  -22.6289 O   0  0  0  0  0  0  0  0  0  0  0  0
  -14.2172   -7.7157  -22.0205 C   0  0  0  0  0  0  0  0  0  0  0  0
  -15.0017   -7.3349  -23.2503 C   0  0  1  0  0  0  0  0  0  0  0  0
  -14.0361   -7.1011  -24.4115 C   0  0  0  0  0  0  0  0  0  0  0  0
  -15.9343   -8.4715  -23.6849 C   0  0  0  0  0  0  0  0  0  0  0  0
  -12.0883   -9.3029  -20.5009 N   0  0  0  0  0  0  0  0  0  0  0  0
  -10.9317   -8.4442  -20.4963 C   0  0  2  0  0  0  0  0  0  0  0  0
  -10.3858   -8.2864  -19.1003 C   0  0  0  0  0  0  0  0  0  0  0  0
  -11.0734   -7.9369  -18.1219 O   0  0  0  0  0  0  0  0  0  0  0  0
  -11.3224   -7.1117  -21.0624 C   0  0  0  0  0  0  0  0  0  0  0  0
  -11.3396   -5.8332  -19.7562 S   0  0  0  0  0  0  0  0  0  0  0  0
   -9.0156   -8.5522  -18.9069 N   0  0  0  0  0  0  0  0  0  0  0  0
   -7.9336   -7.7052  -19.1573 C   0  0  0  0  0  0  0  0  0  0  0  0
   -6.5882   -8.2247  -19.1119 C   0  0  0  0  0  0  0  0  0  0  0  0
   -6.3496   -8.6830  -17.8668 O   0  0  0  0  0  0  0  0  0  0  0  0
   -5.5240   -8.3763  -19.9503 N   0  0  0  0  0  0  0  0  0  0  0  0
   -4.1601   -8.8377  -19.5847 C   0  0  2  0  0  0  0  0  0  0  0  0
   -3.9780   -9.1139  -18.1821 C   0  0  0  0  0  0  0  0  0  0  0  0
   -4.3520   -8.3062  -17.2426 O   0  0  0  0  0  0  0  0  0  0  0  0
   -3.3745   -7.6331  -20.1049 C   0  0  0  0  0  0  0  0  0  0  0  0
   -4.1164   -7.3181  -21.4181 C   0  0  0  0  0  0  0  0  0  0  0  0
   -5.3669   -8.2234  -21.3831 C   0  0  0  0  0  0  0  0  0  0  0  0
   -3.3719  -10.3222  -17.7677 N   0  0  0  0  0  0  0  0  0  0  0  0
   -1.9675  -10.5809  -17.6711 C   0  0  2  0  0  0  0  0  0  0  0  0
   -1.4362  -11.3736  -18.8522 C   0  0  0  0  0  0  0  0  0  0  0  0
   -2.1657  -11.4865  -19.8433 O   0  0  0  0  0  0  0  0  0  0  0  0
   -1.5551  -11.0904  -16.3571 C   0  0  0  0  0  0  0  0  0  0  0  0
   -2.4427  -12.1460  -16.0206 O   0  0  0  0  0  0  0  0  0  0  0  0
   -0.1545  -11.9118  -18.7339 N   0  0  0  0  0  0  0  0  0  0  0  0
    0.9524  -11.4650  -19.5688 C   0  0  2  0  0  0  0  0  0  0  0  0
    2.1869  -12.2167  -19.2134 C   0  0  0  0  0  0  0  0  0  0  0  0
    3.2669  -11.5908  -19.0311 O   0  0  0  0  0  0  0  0  0  0  0  0
    1.0600   -9.9972  -19.5943 C   0  0  0  0  0  0  0  0  0  0  0  0
    2.3276   -9.3722  -19.1489 C   0  0  0  0  0  0  0  0  0  0  0  0
    3.5287   -9.5211  -19.9977 C   0  0  0  0  0  0  0  0  0  0  0  0
    3.8327   -8.2701  -20.7098 N   0  0  0  0  0  0  0  0  0  0  0  0
    3.4066   -8.0238  -22.0134 C   0  0  0  0  0  0  0  0  0  0  0  0
    4.0372   -7.2765  -22.8335 N   0  0  0  0  0  0  0  0  0  0  0  0
    2.2010   -8.6233  -22.5701 N   0  0  0  0  0  0  0  0  0  0  0  0
    2.2131  -13.6083  -19.0748 N   0  0  0  0  0  0  0  0  0  0  0  0
    3.2994  -14.5113  -19.3891 C   0  0  2  0  0  0  0  0  0  0  0  0
    2.9500  -15.8508  -18.9071 C   0  0  0  0  0  0  0  0  0  0  0  0
    1.7400  -16.1036  -18.7024 O   0  0  0  0  0  0  0  0  0  0  0  0
    4.5389  -14.0899  -18.5274 C   0  0  0  0  0  0  0  0  0  0  0  0
    3.9021  -16.9026  -18.6397 N   0  0  0  0  0  0  0  0  0  0  0  0
    3.3359  -18.2660  -18.6298 C   0  0  2  0  0  0  0  0  0  0  0  0
    4.5418  -19.1934  -18.4237 C   0  0  0  0  0  0  0  0  0  0  0  0
    5.6411  -18.9624  -18.9127 O   0  0  0  0  0  0  0  0  0  0  0  0
    2.6234  -18.5952  -19.8965 C   0  0  0  0  0  0  0  0  0  0  0  0
    2.8752  -19.9286  -20.2128 O   0  0  0  0  0  0  0  0  0  0  0  0
    4.3259  -20.3562  -17.6330 N   0  0  0  0  0  0  0  0  0  0  0  0
    5.0886  -20.6149  -16.3814 C   0  0  2  0  0  0  0  0  0  0  0  0
    4.5573  -21.8615  -15.8726 C   0  0  0  0  0  0  0  0  0  0  0  0
    3.9902  -21.7887  -14.6989 O   0  0  0  0  0  0  0  0  0  0  0  0
    4.9082  -19.3958  -15.4825 C   0  0  2  0  0  0  0  0  0  0  0  0
    5.7852  -18.2713  -15.8704 C   0  0  0  0  0  0  0  0  0  0  0  0
    5.0145  -19.7874  -14.0398 C   0  0  0  0  0  0  0  0  0  0  0  0
    6.2975  -18.3675  -17.2963 C   0  0  0  0  0  0  0  0  0  0  0  0
    4.5358  -23.1607  -16.4265 N   0  0  0  0  0  0  0  0  0  0  0  0
    5.7258  -23.9535  -16.5238 C   0  0  2  0  0  0  0  0  0  0  0  0
    6.3089  -24.3315  -15.1869 C   0  0  0  0  0  0  0  0  0  0  0  0
    7.4564  -23.9368  -14.8922 O   0  0  0  0  0  0  0  0  0  0  0  0
    6.7987  -23.4903  -17.4229 C   0  0  0  0  0  0  0  0  0  0  0  0
    8.1863  -23.6737  -16.8928 C   0  0  1  0  0  0  0  0  0  0  0  0
    9.2528  -23.1172  -17.8372 C   0  0  0  0  0  0  0  0  0  0  0  0
    8.3521  -22.9471  -15.5934 C   0  0  0  0  0  0  0  0  0  0  0  0
    5.5904  -25.1289  -14.2821 N   0  0  0  0  0  0  0  0  0  0  0  0
    4.7651  -24.6675  -13.1965 C   0  0  2  0  0  0  0  0  0  0  0  0
    4.1396  -25.7327  -12.3946 C   0  0  0  0  0  0  0  0  0  0  0  0
    3.2641  -26.4538  -12.9091 O   0  0  0  0  0  0  0  0  0  0  0  0
    3.7466  -23.6215  -13.6411 C   0  0  0  0  0  0  0  0  0  0  0  0
    4.4214  -22.6122  -14.3581 O   0  0  0  0  0  0  0  0  0  0  0  0
    4.5347  -25.9320  -11.0563 N   0  0  0  0  0  0  0  0  0  0  0  0
    5.8963  -26.3205  -10.7078 C   0  0  0  0  0  0  0  0  0  0  0  0
    6.3309  -25.6365   -9.4622 C   0  0  0  0  0  0  0  0  0  0  0  0
    5.9961  -26.1170   -8.1867 O   0  0  0  0  0  0  0  0  0  0  0  0
    7.0201  -24.5824   -9.4549 O   0  0  0  0  0  0  0  0  0  0  0  0
    5.0276   -6.9334  -22.6264 H   0  0  0  0  0  0  0  0  0  0  0  0
  1  2  2  0
  1  3  1  0
  1 10  1  0
  3  4  2  0
  3  9  1  0
  4  5  1  0
  4  6  1  0
  5  7  2  0
  7  8  1  0
  8  9  2  0
 10 11  1  0
 11 12  1  0
 11 14  1  6
 12 13  2  0
 12 15  1  0
 16 15  1  1
 16 17  1  0
 16 19  1  0
 17 18  2  0
 17 22  1  0
 19 20  1  0
 19 21  1  6
 23 22  1  6
 23 24  1  0
 23 26  1  0
 24 25  2  0
 24 29  1  0
 26 27  1  0
 26 28  1  1
 29 30  1  0
 29 35  1  0
 30 31  1  1
 30 33  1  0
 31 32  2  0
 31 36  1  0
 33 34  1  0
 34 35  1  0
 36 37  1  0
 37 38  1  0
 37 40  1  1
 38 39  2  0
 38 44  1  0
 40 41  1  0
 41 42  1  6
 41 43  1  0
 44 45  1  0
 45 46  1  0
 45 48  1  1
 46 47  2  0
 46 50  1  0
 48 49  1  0
 50 51  1  0
 51 52  1  0
 52 53  2  0
 52 54  1  0
 54 55  1  0
 54 60  1  0
 55 56  1  1
 55 58  1  0
 56 57  2  0
 56 61  1  0
 58 59  1  0
 59 60  1  0
 61 62  1  0
 62 63  1  0
 62 65  1  1
 63 64  2  0
 63 67  1  0
 65 66  1  0
 67 68  1  0
 68 69  1  0
 68 71  1  1
 69 70  2  0
 69 78  1  0
 71 72  1  0
 72 73  1  0
 73 74  1  0
 74 75  1  0
 75 76  2  0
 75 77  1  0
 78 79  1  0
 79 80  1  0
 79 82  1  1
 80 81  2  0
 80 83  1  0
 83 84  1  0
 84 85  1  0
 84 87  1  6
 85 86  2  0
 85 89  1  0
 87 88  1  0
 90 89  1  6
 90 91  1  0
 90 93  1  0
 91 92  2  0
 91 97  1  0
 93 94  1  0
 93 95  1  1
 94 96  1  0
 97 98  1  0
 98 99  1  0
 98101  1  6
 99100  2  0
 99105  1  0
101102  1  0
102103  1  6
102104  1  0
105106  1  0
106107  1  0
106109  1  6
107108  2  0
107111  1  0
109110  1  0
111112  1  0
112113  1  0
113114  1  0
113115  2  0
 76116  1  0
M  END
$$$$
