
     RDKit          3D

116118  0  0  0  0  0  0  0  0999 V2000
   12.5306   -8.5504  -20.8903 C   0  0  0  0  0  0  0  0  0  0  0  0
   12.7799   -9.4644  -20.0272 O   0  0  0  0  0  0  0  0  0  0  0  0
   13.4800   -8.2205  -21.9362 C   0  0  0  0  0  0  0  0  0  0  0  0
   14.5027   -9.1127  -22.1812 C   0  0  0  0  0  0  0  0  0  0  0  0
   15.4406   -8.8528  -23.1765 C   0  0  0  0  0  0  0  0  0  0  0  0
   14.6501  -10.3084  -21.4510 N   0  0  0  0  0  0  0  0  0  0  0  0
   15.3496   -7.7037  -23.9260 C   0  0  0  0  0  0  0  0  0  0  0  0
   14.3182   -6.8344  -23.6616 C   0  0  0  0  0  0  0  0  0  0  0  0
   13.3812   -7.0803  -22.6731 C   0  0  0  0  0  0  0  0  0  0  0  0
   11.2803   -7.8971  -20.7392 N   0  0  0  0  0  0  0  0  0  0  0  0
   10.3767   -8.3536  -19.6878 C   0  0  2  0  0  0  0  0  0  0  0  0
    9.0916   -7.6435  -19.6618 C   0  0  0  0  0  0  0  0  0  0  0  0
    9.0686   -6.3903  -19.3503 O   0  0  0  0  0  0  0  0  0  0  0  0
   11.0393   -8.4088  -18.3203 C   0  0  0  0  0  0  0  0  0  0  0  0
    7.8157   -8.2161  -19.9607 N   0  0  0  0  0  0  0  0  0  0  0  0
    6.8356   -7.4720  -20.7198 C   0  0  2  0  0  0  0  0  0  0  0  0
    5.6947   -6.9744  -19.8906 C   0  0  0  0  0  0  0  0  0  0  0  0
    5.8451   -5.9717  -19.1356 O   0  0  0  0  0  0  0  0  0  0  0  0
    6.4533   -8.0466  -22.0141 C   0  0  2  0  0  0  0  0  0  0  0  0
    5.1671   -8.5721  -22.0686 O   0  0  0  0  0  0  0  0  0  0  0  0
    7.5094   -9.0342  -22.4619 C   0  0  0  0  0  0  0  0  0  0  0  0
    4.4624   -7.6544  -19.9934 N   0  0  0  0  0  0  0  0  0  0  0  0
    3.5216   -7.7488  -18.9318 C   0  0  2  0  0  0  0  0  0  0  0  0
    2.5004   -8.7664  -18.9957 C   0  0  0  0  0  0  0  0  0  0  0  0
    1.4763   -8.3901  -19.7481 O   0  0  0  0  0  0  0  0  0  0  0  0
    2.9432   -6.3602  -18.6036 C   0  0  2  0  0  0  0  0  0  0  0  0
    2.1770   -5.9590  -19.6811 O   0  0  0  0  0  0  0  0  0  0  0  0
    4.0069   -5.4049  -18.1958 C   0  0  0  0  0  0  0  0  0  0  0  0
    2.4109  -10.0440  -18.4159 N   0  0  0  0  0  0  0  0  0  0  0  0
    1.3629  -10.9748  -18.7132 C   0  0  2  0  0  0  0  0  0  0  0  0
   -0.0043  -10.3461  -18.6049 C   0  0  0  0  0  0  0  0  0  0  0  0
   -0.1157   -9.1263  -18.4351 O   0  0  0  0  0  0  0  0  0  0  0  0
    1.5368  -12.1333  -17.8048 C   0  0  0  0  0  0  0  0  0  0  0  0
    2.7002  -11.8020  -16.9223 C   0  0  0  0  0  0  0  0  0  0  0  0
    3.3332  -10.5722  -17.4761 C   0  0  0  0  0  0  0  0  0  0  0  0
   -1.1248  -11.1768  -18.7062 N   0  0  0  0  0  0  0  0  0  0  0  0
   -2.4925  -10.7237  -18.5822 C   0  0  2  0  0  0  0  0  0  0  0  0
   -3.2780  -11.5178  -17.5955 C   0  0  0  0  0  0  0  0  0  0  0  0
   -3.3581  -12.7426  -17.6855 O   0  0  0  0  0  0  0  0  0  0  0  0
   -3.1143  -10.8599  -19.9531 C   0  0  0  0  0  0  0  0  0  0  0  0
   -3.4729   -9.5154  -20.5332 C   0  0  1  0  0  0  0  0  0  0  0  0
   -4.0156   -8.6162  -19.4231 C   0  0  0  0  0  0  0  0  0  0  0  0
   -2.2346   -8.8084  -21.0965 C   0  0  0  0  0  0  0  0  0  0  0  0
   -3.9206  -10.7651  -16.5694 N   0  0  0  0  0  0  0  0  0  0  0  0
   -4.9178  -11.3707  -15.7243 C   0  0  2  0  0  0  0  0  0  0  0  0
   -6.1408  -10.4953  -15.6251 C   0  0  0  0  0  0  0  0  0  0  0  0
   -6.9204  -10.2825  -16.5733 O   0  0  0  0  0  0  0  0  0  0  0  0
   -4.3216  -11.5978  -14.3672 C   0  0  0  0  0  0  0  0  0  0  0  0
   -5.6315  -11.7439  -13.1008 S   0  0  0  0  0  0  0  0  0  0  0  0
   -6.4035   -9.8883  -14.3809 N   0  0  0  0  0  0  0  0  0  0  0  0
   -7.5808   -9.9423  -13.6314 C   0  0  0  0  0  0  0  0  0  0  0  0
   -8.8470   -9.6524  -14.2596 C   0  0  0  0  0  0  0  0  0  0  0  0
   -8.6833   -8.5976  -15.0830 O   0  0  0  0  0  0  0  0  0  0  0  0
  -10.1232  -10.1319  -14.2528 N   0  0  0  0  0  0  0  0  0  0  0  0
  -11.2122   -9.7809  -15.2001 C   0  0  2  0  0  0  0  0  0  0  0  0
  -10.8475   -8.8051  -16.1959 C   0  0  0  0  0  0  0  0  0  0  0  0
  -11.5827   -7.7826  -16.4940 O   0  0  0  0  0  0  0  0  0  0  0  0
  -12.2427   -9.2961  -14.1793 C   0  0  0  0  0  0  0  0  0  0  0  0
  -12.0597  -10.3168  -13.0397 C   0  0  0  0  0  0  0  0  0  0  0  0
  -10.8018  -11.1195  -13.4373 C   0  0  0  0  0  0  0  0  0  0  0  0
   -9.6279   -8.9290  -16.9002 N   0  0  0  0  0  0  0  0  0  0  0  0
   -9.4754   -9.1763  -18.3018 C   0  0  2  0  0  0  0  0  0  0  0  0
  -10.5498  -10.0964  -18.8537 C   0  0  0  0  0  0  0  0  0  0  0  0
  -10.4868  -11.2949  -18.5589 O   0  0  0  0  0  0  0  0  0  0  0  0
   -8.1048   -9.5359  -18.6870 C   0  0  0  0  0  0  0  0  0  0  0  0
   -8.1968  -10.6313  -19.5853 O   0  0  0  0  0  0  0  0  0  0  0  0
  -11.5379   -9.5169  -19.6500 N   0  0  0  0  0  0  0  0  0  0  0  0
  -11.7701   -9.9392  -21.0247 C   0  0  2  0  0  0  0  0  0  0  0  0
  -13.0419   -9.3494  -21.5249 C   0  0  0  0  0  0  0  0  0  0  0  0
  -13.6327   -9.8813  -22.5044 O   0  0  0  0  0  0  0  0  0  0  0  0
  -11.6120  -11.3940  -21.1836 C   0  0  0  0  0  0  0  0  0  0  0  0
  -10.3021  -11.9188  -21.6360 C   0  0  0  0  0  0  0  0  0  0  0  0
  -10.2700  -12.8605  -22.7750 C   0  0  0  0  0  0  0  0  0  0  0  0
   -8.8995  -13.3257  -23.0393 N   0  0  0  0  0  0  0  0  0  0  0  0
   -8.5555  -14.6757  -23.0672 C   0  0  0  0  0  0  0  0  0  0  0  0
   -7.4243  -15.1247  -22.6833 N   0  0  0  0  0  0  0  0  0  0  0  0
   -9.4763  -15.7097  -23.5210 N   0  0  0  0  0  0  0  0  0  0  0  0
  -13.6234   -8.2106  -20.9580 N   0  0  0  0  0  0  0  0  0  0  0  0
  -14.8134   -7.5115  -21.3932 C   0  0  2  0  0  0  0  0  0  0  0  0
  -15.4533   -8.2920  -22.4562 C   0  0  0  0  0  0  0  0  0  0  0  0
  -15.7096   -9.4967  -22.2264 O   0  0  0  0  0  0  0  0  0  0  0  0
  -14.3618   -6.1835  -22.0924 C   0  0  0  0  0  0  0  0  0  0  0  0
  -15.8027   -7.7759  -23.7585 N   0  0  0  0  0  0  0  0  0  0  0  0
  -16.9854   -8.4046  -24.3796 C   0  0  2  0  0  0  0  0  0  0  0  0
  -17.8780   -7.2313  -24.8074 C   0  0  0  0  0  0  0  0  0  0  0  0
  -17.9928   -6.2127  -24.1366 O   0  0  0  0  0  0  0  0  0  0  0  0
  -17.7090   -9.3072  -23.4403 C   0  0  0  0  0  0  0  0  0  0  0  0
  -18.3936  -10.2651  -24.1852 O   0  0  0  0  0  0  0  0  0  0  0  0
  -18.5844   -7.3797  -26.0334 N   0  0  0  0  0  0  0  0  0  0  0  0
  -18.1589   -6.6879  -27.2806 C   0  0  2  0  0  0  0  0  0  0  0  0
  -19.1654   -7.0355  -28.2610 C   0  0  0  0  0  0  0  0  0  0  0  0
  -19.4540   -8.3065  -28.3381 O   0  0  0  0  0  0  0  0  0  0  0  0
  -16.7381   -7.1484  -27.5902 C   0  0  2  0  0  0  0  0  0  0  0  0
  -15.7300   -6.4909  -26.7326 C   0  0  0  0  0  0  0  0  0  0  0  0
  -16.4595   -7.0394  -29.0587 C   0  0  0  0  0  0  0  0  0  0  0  0
  -15.3680   -5.0892  -27.1900 C   0  0  0  0  0  0  0  0  0  0  0  0
  -19.9072   -6.2363  -29.1589 N   0  0  0  0  0  0  0  0  0  0  0  0
  -21.0870   -5.5379  -28.7412 C   0  0  2  0  0  0  0  0  0  0  0  0
  -22.3642   -6.1557  -29.2483 C   0  0  0  0  0  0  0  0  0  0  0  0
  -22.9233   -7.0394  -28.5656 O   0  0  0  0  0  0  0  0  0  0  0  0
  -21.1322   -4.0758  -28.9265 C   0  0  0  0  0  0  0  0  0  0  0  0
  -22.3852   -3.4186  -28.4385 C   0  0  1  0  0  0  0  0  0  0  0  0
  -23.4445   -4.4303  -27.9985 C   0  0  0  0  0  0  0  0  0  0  0  0
  -22.0975   -2.5617  -27.2440 C   0  0  0  0  0  0  0  0  0  0  0  0
  -22.9209   -5.7649  -30.4764 N   0  0  0  0  0  0  0  0  0  0  0  0
  -22.9362   -6.5297  -31.6959 C   0  0  2  0  0  0  0  0  0  0  0  0
  -23.7495   -7.7566  -31.6505 C   0  0  0  0  0  0  0  0  0  0  0  0
  -23.2763   -8.8226  -32.0873 O   0  0  0  0  0  0  0  0  0  0  0  0
  -21.5335   -6.8000  -32.2331 C   0  0  0  0  0  0  0  0  0  0  0  0
  -20.9508   -5.5723  -32.6090 O   0  0  0  0  0  0  0  0  0  0  0  0
  -25.0520   -7.7195  -31.1127 N   0  0  0  0  0  0  0  0  0  0  0  0
  -25.3040   -7.9524  -29.6954 C   0  0  0  0  0  0  0  0  0  0  0  0
  -25.2856   -9.4077  -29.3950 C   0  0  0  0  0  0  0  0  0  0  0  0
  -25.9580  -10.3467  -30.1924 O   0  0  0  0  0  0  0  0  0  0  0  0
  -24.6773   -9.9043  -28.4104 O   0  0  0  0  0  0  0  0  0  0  0  0
   -6.7233  -14.5030  -22.1699 H   0  0  0  0  0  0  0  0  0  0  0  0
  1  2  2  0
  1  3  1  0
  1 10  1  0
  3  4  2  0
  3  9  1  0
  4  5  1  0
  4  6  1  0
  5  7  2  0
  7  8  1  0
  8  9  2  0
 10 11  1  0
 11 12  1  0
 11 14  1  1
 12 13  2  0
 12 15  1  0
 16 15  1  1
 16 17  1  0
 16 19  1  0
 17 18  2  0
 17 22  1  0
 19 20  1  0
 19 21  1  1
 23 22  1  6
 23 24  1  0
 23 26  1  0
 24 25  2  0
 24 29  1  0
 26 27  1  0
 26 28  1  6
 29 30  1  0
 29 35  1  0
 30 31  1  1
 30 33  1  0
 31 32  2  0
 31 36  1  0
 33 34  1  0
 34 35  1  0
 36 37  1  0
 37 38  1  0
 37 40  1  6
 38 39  2  0
 38 44  1  0
 40 41  1  0
 41 42  1  1
 41 43  1  0
 44 45  1  0
 45 46  1  0
 45 48  1  1
 46 47  2  0
 46 50  1  0
 48 49  1  0
 50 51  1  0
 51 52  1  0
 52 53  2  0
 52 54  1  0
 54 55  1  0
 54 60  1  0
 55 56  1  6
 55 58  1  0
 56 57  2  0
 56 61  1  0
 58 59  1  0
 59 60  1  0
 61 62  1  0
 62 63  1  0
 62 65  1  1
 63 64  2  0
 63 67  1  0
 65 66  1  0
 67 68  1  0
 68 69  1  0
 68 71  1  1
 69 70  2  0
 69 78  1  0
 71 72  1  0
 72 73  1  0
 73 74  1  0
 74 75  1  0
 75 76  2  0
 75 77  1  0
 78 79  1  0
 79 80  1  0
 79 82  1  6
 80 81  2  0
 80 83  1  0
 83 84  1  0
 84 85  1  0
 84 87  1  1
 85 86  2  0
 85 89  1  0
 87 88  1  0
 90 89  1  1
 90 91  1  0
 90 93  1  0
 91 92  2  0
 91 97  1  0
 93 94  1  0
 93 95  1  6
 94 96  1  0
 97 98  1  0
 98 99  1  0
 98101  1  6
 99100  2  0
 99105  1  0
101102  1  0
102103  1  1
102104  1  0
105106  1  0
106107  1  0
106109  1  1
107108  2  0
107111  1  0
109110  1  0
111112  1  0
112113  1  0
113114  1  0
113115  2  0
 76116  1  0
M  END
$$$$
