
     RDKit          3D

116118  0  0  0  0  0  0  0  0999 V2000
   12.2613  -12.2036  -23.5403 C   0  0  0  0  0  0  0  0  0  0  0  0
   11.7416  -11.1082  -23.9559 O   0  0  0  0  0  0  0  0  0  0  0  0
   13.6097  -12.2449  -23.0073 C   0  0  0  0  0  0  0  0  0  0  0  0
   14.3423  -11.0765  -23.0200 C   0  0  0  0  0  0  0  0  0  0  0  0
   15.6399  -11.0535  -22.5165 C   0  0  0  0  0  0  0  0  0  0  0  0
   13.8274   -9.8702  -23.5341 N   0  0  0  0  0  0  0  0  0  0  0  0
   16.1984  -12.1981  -21.9983 C   0  0  0  0  0  0  0  0  0  0  0  0
   15.4438  -13.3469  -21.9960 C   0  0  0  0  0  0  0  0  0  0  0  0
   14.1537  -13.3830  -22.4960 C   0  0  0  0  0  0  0  0  0  0  0  0
   11.4309  -13.3490  -23.6476 N   0  0  0  0  0  0  0  0  0  0  0  0
   10.0859  -13.1876  -24.1909 C   0  0  2  0  0  0  0  0  0  0  0  0
    9.5837  -11.8091  -24.1288 C   0  0  0  0  0  0  0  0  0  0  0  0
    9.9481  -10.9626  -25.0336 O   0  0  0  0  0  0  0  0  0  0  0  0
    9.0951  -14.1943  -23.6280 C   0  0  0  0  0  0  0  0  0  0  0  0
    8.6966  -11.2882  -23.1353 N   0  0  0  0  0  0  0  0  0  0  0  0
    8.5681   -9.8614  -22.9399 C   0  0  2  0  0  0  0  0  0  0  0  0
    7.5606   -9.4929  -21.8978 C   0  0  0  0  0  0  0  0  0  0  0  0
    6.7708  -10.3661  -21.4375 O   0  0  0  0  0  0  0  0  0  0  0  0
    8.5212   -9.0471  -24.1590 C   0  0  2  0  0  0  0  0  0  0  0  0
    7.2796   -8.9907  -24.7824 O   0  0  0  0  0  0  0  0  0  0  0  0
    9.6292   -9.4751  -25.0972 C   0  0  0  0  0  0  0  0  0  0  0  0
    7.5371   -8.1544  -21.4512 N   0  0  0  0  0  0  0  0  0  0  0  0
    6.6198   -7.6606  -20.4838 C   0  0  2  0  0  0  0  0  0  0  0  0
    5.2398   -8.0756  -20.5582 C   0  0  0  0  0  0  0  0  0  0  0  0
    4.9766   -8.7106  -21.6913 O   0  0  0  0  0  0  0  0  0  0  0  0
    6.7643   -6.1348  -20.3385 C   0  0  2  0  0  0  0  0  0  0  0  0
    6.6681   -5.5817  -21.6010 O   0  0  0  0  0  0  0  0  0  0  0  0
    7.9907   -5.7690  -19.5818 C   0  0  0  0  0  0  0  0  0  0  0  0
    4.1651   -7.9257  -19.6643 N   0  0  0  0  0  0  0  0  0  0  0  0
    2.7904   -7.9850  -20.0644 C   0  0  2  0  0  0  0  0  0  0  0  0
    2.5040   -7.0960  -21.2493 C   0  0  0  0  0  0  0  0  0  0  0  0
    3.4343   -6.5676  -21.8692 O   0  0  0  0  0  0  0  0  0  0  0  0
    1.9742   -7.6402  -18.8760 C   0  0  0  0  0  0  0  0  0  0  0  0
    2.9440   -7.3168  -17.7819 C   0  0  0  0  0  0  0  0  0  0  0  0
    4.2982   -7.7016  -18.2697 C   0  0  0  0  0  0  0  0  0  0  0  0
    1.1703   -6.8967  -21.6201 N   0  0  0  0  0  0  0  0  0  0  0  0
    0.2846   -7.9427  -22.0814 C   0  0  2  0  0  0  0  0  0  0  0  0
   -0.8190   -7.4291  -22.9412 C   0  0  0  0  0  0  0  0  0  0  0  0
   -1.3909   -8.1633  -23.7467 O   0  0  0  0  0  0  0  0  0  0  0  0
   -0.2948   -8.5891  -20.8441 C   0  0  0  0  0  0  0  0  0  0  0  0
    0.1622  -10.0186  -20.7019 C   0  0  1  0  0  0  0  0  0  0  0  0
   -0.5011  -10.6398  -19.4733 C   0  0  0  0  0  0  0  0  0  0  0  0
   -0.2780  -10.8618  -21.9043 C   0  0  0  0  0  0  0  0  0  0  0  0
   -1.1464   -6.0525  -22.7681 N   0  0  0  0  0  0  0  0  0  0  0  0
   -2.4094   -5.6605  -22.1969 C   0  0  2  0  0  0  0  0  0  0  0  0
   -3.3359   -5.1254  -23.2587 C   0  0  0  0  0  0  0  0  0  0  0  0
   -3.6437   -3.9233  -23.3692 O   0  0  0  0  0  0  0  0  0  0  0  0
   -2.1576   -4.6210  -21.1458 C   0  0  0  0  0  0  0  0  0  0  0  0
   -1.6461   -5.4006  -19.5737 S   0  0  0  0  0  0  0  0  0  0  0  0
   -3.8783   -6.0517  -24.1714 N   0  0  0  0  0  0  0  0  0  0  0  0
   -4.5586   -7.2381  -23.8877 C   0  0  0  0  0  0  0  0  0  0  0  0
   -5.9853   -7.2152  -23.6734 C   0  0  0  0  0  0  0  0  0  0  0  0
   -6.2163   -7.0276  -22.3585 O   0  0  0  0  0  0  0  0  0  0  0  0
   -7.1293   -7.3273  -24.4062 N   0  0  0  0  0  0  0  0  0  0  0  0
   -8.5054   -7.5308  -23.8849 C   0  0  2  0  0  0  0  0  0  0  0  0
   -8.5908   -7.6469  -22.4510 C   0  0  0  0  0  0  0  0  0  0  0  0
   -7.8882   -6.9288  -21.6352 O   0  0  0  0  0  0  0  0  0  0  0  0
   -8.8422   -8.8116  -24.6497 C   0  0  0  0  0  0  0  0  0  0  0  0
   -8.2170   -8.5270  -26.0290 C   0  0  0  0  0  0  0  0  0  0  0  0
   -7.4054   -7.2291  -25.8258 C   0  0  0  0  0  0  0  0  0  0  0  0
   -9.4819   -8.5745  -21.8641 N   0  0  0  0  0  0  0  0  0  0  0  0
   -9.2876   -9.2809  -20.6346 C   0  0  2  0  0  0  0  0  0  0  0  0
  -10.2564  -10.4378  -20.4652 C   0  0  0  0  0  0  0  0  0  0  0  0
  -10.4208  -11.1952  -21.4278 O   0  0  0  0  0  0  0  0  0  0  0  0
   -9.1757   -8.4003  -19.4648 C   0  0  0  0  0  0  0  0  0  0  0  0
   -7.8203   -7.9867  -19.3809 O   0  0  0  0  0  0  0  0  0  0  0  0
  -10.8864  -10.5655  -19.2270 N   0  0  0  0  0  0  0  0  0  0  0  0
  -10.3832   -9.9035  -18.0309 C   0  0  2  0  0  0  0  0  0  0  0  0
   -8.9980   -9.4144  -18.2709 C   0  0  0  0  0  0  0  0  0  0  0  0
   -8.0648  -10.2453  -18.4437 O   0  0  0  0  0  0  0  0  0  0  0  0
  -10.5928  -10.7207  -16.8248 C   0  0  0  0  0  0  0  0  0  0  0  0
  -11.8484  -10.5427  -16.0581 C   0  0  0  0  0  0  0  0  0  0  0  0
  -12.4257  -11.7113  -15.3608 C   0  0  0  0  0  0  0  0  0  0  0  0
  -11.3966  -12.4347  -14.5979 N   0  0  0  0  0  0  0  0  0  0  0  0
  -10.8196  -11.9210  -13.4382 C   0  0  0  0  0  0  0  0  0  0  0  0
  -10.6493  -10.6741  -13.2263 N   0  0  0  0  0  0  0  0  0  0  0  0
  -10.3753  -12.7709  -12.3414 N   0  0  0  0  0  0  0  0  0  0  0  0
   -8.6707   -8.0550  -18.3091 N   0  0  0  0  0  0  0  0  0  0  0  0
   -8.5580   -7.1376  -17.1956 C   0  0  2  0  0  0  0  0  0  0  0  0
   -9.7534   -7.2686  -16.3574 C   0  0  0  0  0  0  0  0  0  0  0  0
  -10.8205   -6.7609  -16.7739 O   0  0  0  0  0  0  0  0  0  0  0  0
   -8.6302   -5.6793  -17.7653 C   0  0  0  0  0  0  0  0  0  0  0  0
   -9.7906   -7.9336  -15.0765 N   0  0  0  0  0  0  0  0  0  0  0  0
  -11.1335   -8.0473  -14.4737 C   0  0  2  0  0  0  0  0  0  0  0  0
  -12.1079   -7.9311  -15.6542 C   0  0  0  0  0  0  0  0  0  0  0  0
  -11.8660   -7.2495  -16.6430 O   0  0  0  0  0  0  0  0  0  0  0  0
  -11.3951   -6.9842  -13.4628 C   0  0  0  0  0  0  0  0  0  0  0  0
  -12.4710   -7.3806  -12.6713 O   0  0  0  0  0  0  0  0  0  0  0  0
  -13.3282   -8.6550  -15.5491 N   0  0  0  0  0  0  0  0  0  0  0  0
  -13.8774   -9.4487  -16.6820 C   0  0  2  0  0  0  0  0  0  0  0  0
  -15.2630   -9.0425  -16.7839 C   0  0  0  0  0  0  0  0  0  0  0  0
  -15.6457   -8.1423  -15.9192 O   0  0  0  0  0  0  0  0  0  0  0  0
  -13.6350  -10.9203  -16.3618 C   0  0  2  0  0  0  0  0  0  0  0  0
  -12.2033  -11.2283  -16.1635 C   0  0  0  0  0  0  0  0  0  0  0  0
  -14.3172  -11.7957  -17.3688 C   0  0  0  0  0  0  0  0  0  0  0  0
  -11.5177  -11.7500  -17.4136 C   0  0  0  0  0  0  0  0  0  0  0  0
  -16.2900   -9.4452  -17.6662 N   0  0  0  0  0  0  0  0  0  0  0  0
  -17.0659   -8.4887  -18.3991 C   0  0  2  0  0  0  0  0  0  0  0  0
  -17.4402   -8.9504  -19.7836 C   0  0  0  0  0  0  0  0  0  0  0  0
  -16.5720   -8.9422  -20.6811 O   0  0  0  0  0  0  0  0  0  0  0  0
  -16.5851   -7.0958  -18.4507 C   0  0  0  0  0  0  0  0  0  0  0  0
  -16.4547   -6.4259  -17.1186 C   0  0  1  0  0  0  0  0  0  0  0  0
  -17.6534   -6.6947  -16.2077 C   0  0  0  0  0  0  0  0  0  0  0  0
  -15.2485   -6.9351  -16.3908 C   0  0  0  0  0  0  0  0  0  0  0  0
  -18.7465   -9.3713  -20.0790 N   0  0  0  0  0  0  0  0  0  0  0  0
  -19.8823   -8.5279  -20.3454 C   0  0  2  0  0  0  0  0  0  0  0  0
  -21.0690   -9.2284  -20.8648 C   0  0  0  0  0  0  0  0  0  0  0  0
  -21.9875   -8.5720  -21.3907 O   0  0  0  0  0  0  0  0  0  0  0  0
  -19.5217   -7.3155  -21.1995 C   0  0  0  0  0  0  0  0  0  0  0  0
  -19.1156   -6.2686  -20.3468 O   0  0  0  0  0  0  0  0  0  0  0  0
  -21.1579  -10.6318  -20.7678 N   0  0  0  0  0  0  0  0  0  0  0  0
  -22.3151  -11.3640  -21.2691 C   0  0  0  0  0  0  0  0  0  0  0  0
  -23.3389  -10.4240  -21.7949 C   0  0  0  0  0  0  0  0  0  0  0  0
  -23.6307  -10.3219  -23.1640 O   0  0  0  0  0  0  0  0  0  0  0  0
  -24.0117   -9.6517  -21.0622 O   0  0  0  0  0  0  0  0  0  0  0  0
   -9.8813  -10.3197  -12.5736 H   0  0  0  0  0  0  0  0  0  0  0  0
  1  2  2  0
  1  3  1  0
  1 10  1  0
  3  4  2  0
  3  9  1  0
  4  5  1  0
  4  6  1  0
  5  7  2  0
  7  8  1  0
  8  9  2  0
 10 11  1  0
 11 12  1  0
 11 14  1  1
 12 13  2  0
 12 15  1  0
 16 15  1  6
 16 17  1  0
 16 19  1  0
 17 18  2  0
 17 22  1  0
 19 20  1  0
 19 21  1  6
 23 22  1  6
 23 24  1  0
 23 26  1  0
 24 25  2  0
 24 29  1  0
 26 27  1  0
 26 28  1  6
 29 30  1  0
 29 35  1  0
 30 31  1  6
 30 33  1  0
 31 32  2  0
 31 36  1  0
 33 34  1  0
 34 35  1  0
 36 37  1  0
 37 38  1  0
 37 40  1  1
 38 39  2  0
 38 44  1  0
 40 41  1  0
 41 42  1  1
 41 43  1  0
 44 45  1  0
 45 46  1  0
 45 48  1  1
 46 47  2  0
 46 50  1  0
 48 49  1  0
 50 51  1  0
 51 52  1  0
 52 53  2  0
 52 54  1  0
 54 55  1  0
 54 60  1  0
 55 56  1  1
 55 58  1  0
 56 57  2  0
 56 61  1  0
 58 59  1  0
 59 60  1  0
 61 62  1  0
 62 63  1  0
 62 65  1  1
 63 64  2  0
 63 67  1  0
 65 66  1  0
 67 68  1  0
 68 69  1  0
 68 71  1  1
 69 70  2  0
 69 78  1  0
 71 72  1  0
 72 73  1  0
 73 74  1  0
 74 75  1  0
 75 76  2  0
 75 77  1  0
 78 79  1  0
 79 80  1  0
 79 82  1  6
 80 81  2  0
 80 83  1  0
 83 84  1  0
 84 85  1  0
 84 87  1  1
 85 86  2  0
 85 89  1  0
 87 88  1  0
 90 89  1  1
 90 91  1  0
 90 93  1  0
 91 92  2  0
 91 97  1  0
 93 94  1  0
 93 95  1  6
 94 96  1  0
 97 98  1  0
 98 99  1  0
 98101  1  6
 99100  2  0
 99105  1  0
101102  1  0
102103  1  1
102104  1  0
105106  1  0
106107  1  0
106109  1  6
107108  2  0
107111  1  0
109110  1  0
111112  1  0
112113  1  0
113114  1  0
113115  2  0
 76116  1  0
M  END
$$$$
