
     RDKit          3D

116118  0  0  0  0  0  0  0  0999 V2000
  -14.7344    2.7994  -13.3094 C   0  0  0  0  0  0  0  0  0  0  0  0
  -14.5281    4.0629  -13.3681 O   0  0  0  0  0  0  0  0  0  0  0  0
  -16.0671    2.2447  -13.4520 C   0  0  0  0  0  0  0  0  0  0  0  0
  -17.0949    3.1111  -13.7601 C   0  0  0  0  0  0  0  0  0  0  0  0
  -18.3940    2.6359  -13.9151 C   0  0  0  0  0  0  0  0  0  0  0  0
  -16.8886    4.4945  -13.9288 N   0  0  0  0  0  0  0  0  0  0  0  0
  -18.6597    1.2951  -13.7658 C   0  0  0  0  0  0  0  0  0  0  0  0
  -17.6154    0.4547  -13.4618 C   0  0  0  0  0  0  0  0  0  0  0  0
  -16.3201    0.9155  -13.3025 C   0  0  0  0  0  0  0  0  0  0  0  0
  -13.5794    2.0047  -13.0917 N   0  0  0  0  0  0  0  0  0  0  0  0
  -12.2700    2.6477  -13.1430 C   0  0  2  0  0  0  0  0  0  0  0  0
  -11.2495    1.8574  -13.8433 C   0  0  0  0  0  0  0  0  0  0  0  0
  -11.1010    0.6099  -13.5438 O   0  0  0  0  0  0  0  0  0  0  0  0
  -11.7966    3.1363  -11.7833 C   0  0  0  0  0  0  0  0  0  0  0  0
  -10.3728    2.3432  -14.8635 N   0  0  0  0  0  0  0  0  0  0  0  0
   -8.9521    2.4560  -14.6195 C   0  0  2  0  0  0  0  0  0  0  0  0
   -8.2739    1.1355  -14.4377 C   0  0  0  0  0  0  0  0  0  0  0  0
   -7.0262    1.0813  -14.2420 O   0  0  0  0  0  0  0  0  0  0  0  0
   -8.5436    3.4958  -13.6689 C   0  0  2  0  0  0  0  0  0  0  0  0
   -9.5060    3.8450  -12.7281 O   0  0  0  0  0  0  0  0  0  0  0  0
   -8.0032    4.6902  -14.4256 C   0  0  0  0  0  0  0  0  0  0  0  0
   -9.0744   -0.0258  -14.4831 N   0  0  0  0  0  0  0  0  0  0  0  0
   -8.5584   -1.3456  -14.3696 C   0  0  2  0  0  0  0  0  0  0  0  0
   -8.6440   -2.2264  -15.5093 C   0  0  0  0  0  0  0  0  0  0  0  0
   -9.6880   -3.0386  -15.4271 O   0  0  0  0  0  0  0  0  0  0  0  0
   -9.0676   -2.0104  -13.0776 C   0  0  2  0  0  0  0  0  0  0  0  0
  -10.4472   -2.0522  -13.1423 O   0  0  0  0  0  0  0  0  0  0  0  0
   -8.5130   -1.3516  -11.8658 C   0  0  0  0  0  0  0  0  0  0  0  0
   -7.8363   -2.3642  -16.6518 N   0  0  0  0  0  0  0  0  0  0  0  0
   -8.0516   -3.3636  -17.6557 C   0  0  2  0  0  0  0  0  0  0  0  0
   -8.2120   -4.7413  -17.0619 C   0  0  0  0  0  0  0  0  0  0  0  0
   -7.7932   -4.9798  -15.9232 O   0  0  0  0  0  0  0  0  0  0  0  0
   -6.9197   -3.2764  -18.6090 C   0  0  0  0  0  0  0  0  0  0  0  0
   -6.0038   -2.2189  -18.0752 C   0  0  0  0  0  0  0  0  0  0  0  0
   -6.7202   -1.5432  -16.9572 C   0  0  0  0  0  0  0  0  0  0  0  0
   -8.8452   -5.7236  -17.8300 N   0  0  0  0  0  0  0  0  0  0  0  0
   -9.7878   -6.6882  -17.3082 C   0  0  2  0  0  0  0  0  0  0  0  0
   -9.7013   -8.0099  -17.9913 C   0  0  0  0  0  0  0  0  0  0  0  0
  -10.0321   -8.1388  -19.1698 O   0  0  0  0  0  0  0  0  0  0  0  0
  -11.1636   -6.0982  -17.5170 C   0  0  0  0  0  0  0  0  0  0  0  0
  -12.2436   -7.0257  -17.0211 C   0  0  1  0  0  0  0  0  0  0  0  0
  -12.5026   -8.1048  -18.0717 C   0  0  0  0  0  0  0  0  0  0  0  0
  -11.8022   -7.7577  -15.7484 C   0  0  0  0  0  0  0  0  0  0  0  0
   -9.2252   -9.0886  -17.1900 N   0  0  0  0  0  0  0  0  0  0  0  0
   -8.0592   -9.8392  -17.5802 C   0  0  2  0  0  0  0  0  0  0  0  0
   -8.2251  -10.4065  -18.9668 C   0  0  0  0  0  0  0  0  0  0  0  0
   -8.8821  -11.4338  -19.2220 O   0  0  0  0  0  0  0  0  0  0  0  0
   -7.8421  -10.9389  -16.5841 C   0  0  0  0  0  0  0  0  0  0  0  0
   -7.6332  -10.2565  -14.9014 S   0  0  0  0  0  0  0  0  0  0  0  0
   -7.5932   -9.7243  -20.0254 N   0  0  0  0  0  0  0  0  0  0  0  0
   -6.2234   -9.5801  -20.2569 C   0  0  0  0  0  0  0  0  0  0  0  0
   -5.4064  -10.7468  -20.4877 C   0  0  0  0  0  0  0  0  0  0  0  0
   -5.3128  -11.4374  -19.3337 O   0  0  0  0  0  0  0  0  0  0  0  0
   -4.7234  -11.3274  -21.5148 N   0  0  0  0  0  0  0  0  0  0  0  0
   -3.5636  -12.2492  -21.4054 C   0  0  2  0  0  0  0  0  0  0  0  0
   -3.1284  -12.5055  -20.0558 C   0  0  0  0  0  0  0  0  0  0  0  0
   -2.9232  -11.5712  -19.1840 O   0  0  0  0  0  0  0  0  0  0  0  0
   -2.5713  -11.4546  -22.2556 C   0  0  0  0  0  0  0  0  0  0  0  0
   -3.4725  -10.9478  -23.3981 C   0  0  0  0  0  0  0  0  0  0  0  0
   -4.9050  -11.3141  -22.9528 C   0  0  0  0  0  0  0  0  0  0  0  0
   -2.9113  -13.8322  -19.6180 N   0  0  0  0  0  0  0  0  0  0  0  0
   -2.3892  -14.2349  -18.3477 C   0  0  2  0  0  0  0  0  0  0  0  0
   -2.2592  -15.7424  -18.2199 C   0  0  0  0  0  0  0  0  0  0  0  0
   -3.2977  -16.3998  -18.0913 O   0  0  0  0  0  0  0  0  0  0  0  0
   -3.0463  -13.5790  -17.2100 C   0  0  0  0  0  0  0  0  0  0  0  0
   -3.1860  -14.5547  -16.1884 O   0  0  0  0  0  0  0  0  0  0  0  0
   -0.9714  -16.2772  -18.2654 N   0  0  0  0  0  0  0  0  0  0  0  0
   -0.3612  -16.7201  -19.5118 C   0  0  2  0  0  0  0  0  0  0  0  0
   -1.2475  -17.7099  -20.1828 C   0  0  0  0  0  0  0  0  0  0  0  0
   -2.4993  -17.5641  -20.1270 O   0  0  0  0  0  0  0  0  0  0  0  0
    1.0434  -17.1169  -19.3220 C   0  0  0  0  0  0  0  0  0  0  0  0
    2.0807  -16.0590  -19.2948 C   0  0  0  0  0  0  0  0  0  0  0  0
    2.1298  -15.0846  -20.4053 C   0  0  0  0  0  0  0  0  0  0  0  0
    3.2229  -14.1186  -20.2147 N   0  0  0  0  0  0  0  0  0  0  0  0
    3.1374  -12.7930  -20.6354 C   0  0  0  0  0  0  0  0  0  0  0  0
    3.9061  -11.8663  -20.2121 N   0  0  0  0  0  0  0  0  0  0  0  0
    2.1660  -12.3462  -21.6252 N   0  0  0  0  0  0  0  0  0  0  0  0
   -0.7546  -18.8179  -20.8799 N   0  0  0  0  0  0  0  0  0  0  0  0
   -1.5113  -19.8787  -21.5096 C   0  0  2  0  0  0  0  0  0  0  0  0
   -0.6591  -21.0674  -21.6086 C   0  0  0  0  0  0  0  0  0  0  0  0
    0.3264  -21.0200  -22.3808 O   0  0  0  0  0  0  0  0  0  0  0  0
   -1.7820  -19.4592  -22.9952 C   0  0  0  0  0  0  0  0  0  0  0  0
   -0.8779  -22.2982  -20.8867 N   0  0  0  0  0  0  0  0  0  0  0  0
    0.2295  -22.7033  -19.9983 C   0  0  2  0  0  0  0  0  0  0  0  0
   -0.2326  -24.0243  -19.3675 C   0  0  0  0  0  0  0  0  0  0  0  0
   -0.0998  -24.2659  -18.1739 O   0  0  0  0  0  0  0  0  0  0  0  0
    0.5177  -21.6859  -18.9484 C   0  0  0  0  0  0  0  0  0  0  0  0
    1.6210  -22.1104  -18.2110 O   0  0  0  0  0  0  0  0  0  0  0  0
   -0.8263  -24.9768  -20.2420 N   0  0  0  0  0  0  0  0  0  0  0  0
   -2.1364  -24.7335  -20.9049 C   0  0  2  0  0  0  0  0  0  0  0  0
   -2.8345  -25.9990  -20.8254 C   0  0  0  0  0  0  0  0  0  0  0  0
   -4.1159  -25.9458  -21.0697 O   0  0  0  0  0  0  0  0  0  0  0  0
   -1.8426  -24.2202  -22.3110 C   0  0  2  0  0  0  0  0  0  0  0  0
   -2.9812  -23.4792  -22.8927 C   0  0  0  0  0  0  0  0  0  0  0  0
   -1.3251  -25.3286  -23.1767 C   0  0  0  0  0  0  0  0  0  0  0  0
   -3.6658  -24.2166  -24.0296 C   0  0  0  0  0  0  0  0  0  0  0  0
   -2.3727  -27.3014  -20.5327 N   0  0  0  0  0  0  0  0  0  0  0  0
   -3.2358  -28.4416  -20.6290 C   0  0  2  0  0  0  0  0  0  0  0  0
   -3.3478  -29.2226  -19.3454 C   0  0  0  0  0  0  0  0  0  0  0  0
   -4.4815  -29.4905  -18.8955 O   0  0  0  0  0  0  0  0  0  0  0  0
   -3.0424  -29.3669  -21.7605 C   0  0  0  0  0  0  0  0  0  0  0  0
   -1.6136  -29.6321  -22.1188 C   0  0  1  0  0  0  0  0  0  0  0  0
   -1.2825  -29.2174  -23.5533 C   0  0  0  0  0  0  0  0  0  0  0  0
   -0.6958  -28.8497  -21.2304 C   0  0  0  0  0  0  0  0  0  0  0  0
   -2.2029  -29.6358  -18.6459 N   0  0  0  0  0  0  0  0  0  0  0  0
   -2.1689  -30.4114  -17.4336 C   0  0  2  0  0  0  0  0  0  0  0  0
   -0.8435  -30.5181  -16.8005 C   0  0  0  0  0  0  0  0  0  0  0  0
    0.1177  -30.9565  -17.4601 O   0  0  0  0  0  0  0  0  0  0  0  0
   -2.8305  -31.7772  -17.5957 C   0  0  0  0  0  0  0  0  0  0  0  0
   -2.2876  -32.6572  -16.6371 O   0  0  0  0  0  0  0  0  0  0  0  0
   -0.6692  -30.1228  -15.4588 N   0  0  0  0  0  0  0  0  0  0  0  0
    0.5890  -30.3362  -14.7531 C   0  0  0  0  0  0  0  0  0  0  0  0
    0.5116  -31.5555  -13.9071 C   0  0  0  0  0  0  0  0  0  0  0  0
    1.6559  -32.2537  -13.4913 O   0  0  0  0  0  0  0  0  0  0  0  0
   -0.5737  -32.0536  -13.5072 O   0  0  0  0  0  0  0  0  0  0  0  0
    4.5819  -12.0302  -19.4010 H   0  0  0  0  0  0  0  0  0  0  0  0
  1  2  2  0
  1  3  1  0
  1 10  1  0
  3  4  2  0
  3  9  1  0
  4  5  1  0
  4  6  1  0
  5  7  2  0
  7  8  1  0
  8  9  2  0
 10 11  1  0
 11 12  1  0
 11 14  1  1
 12 13  2  0
 12 15  1  0
 16 15  1  1
 16 17  1  0
 16 19  1  0
 17 18  2  0
 17 22  1  0
 19 20  1  0
 19 21  1  6
 23 22  1  6
 23 24  1  0
 23 26  1  0
 24 25  2  0
 24 29  1  0
 26 27  1  0
 26 28  1  1
 29 30  1  0
 29 35  1  0
 30 31  1  1
 30 33  1  0
 31 32  2  0
 31 36  1  0
 33 34  1  0
 34 35  1  0
 36 37  1  0
 37 38  1  0
 37 40  1  6
 38 39  2  0
 38 44  1  0
 40 41  1  0
 41 42  1  6
 41 43  1  0
 44 45  1  0
 45 46  1  0
 45 48  1  1
 46 47  2  0
 46 50  1  0
 48 49  1  0
 50 51  1  0
 51 52  1  0
 52 53  2  0
 52 54  1  0
 54 55  1  0
 54 60  1  0
 55 56  1  1
 55 58  1  0
 56 57  2  0
 56 61  1  0
 58 59  1  0
 59 60  1  0
 61 62  1  0
 62 63  1  0
 62 65  1  1
 63 64  2  0
 63 67  1  0
 65 66  1  0
 67 68  1  0
 68 69  1  0
 68 71  1  1
 69 70  2  0
 69 78  1  0
 71 72  1  0
 72 73  1  0
 73 74  1  0
 74 75  1  0
 75 76  2  0
 75 77  1  0
 78 79  1  0
 79 80  1  0
 79 82  1  6
 80 81  2  0
 80 83  1  0
 83 84  1  0
 84 85  1  0
 84 87  1  1
 85 86  2  0
 85 89  1  0
 87 88  1  0
 90 89  1  1
 90 91  1  0
 90 93  1  0
 91 92  2  0
 91 97  1  0
 93 94  1  0
 93 95  1  6
 94 96  1  0
 97 98  1  0
 98 99  1  0
 98101  1  6
 99100  2  0
 99105  1  0
101102  1  0
102103  1  6
102104  1  0
105106  1  0
106107  1  0
106109  1  6
107108  2  0
107111  1  0
109110  1  0
111112  1  0
112113  1  0
113114  1  0
113115  2  0
 76116  1  0
M  END
$$$$
