
     RDKit          3D

116118  0  0  0  0  0  0  0  0999 V2000
    9.2811  -13.4155  -26.9751 C   0  0  0  0  0  0  0  0  0  0  0  0
    9.0106  -12.1697  -27.1071 O   0  0  0  0  0  0  0  0  0  0  0  0
    9.6109  -14.2418  -28.1207 C   0  0  0  0  0  0  0  0  0  0  0  0
   10.0752  -13.6115  -29.2561 C   0  0  0  0  0  0  0  0  0  0  0  0
   10.4133  -14.3528  -30.3848 C   0  0  0  0  0  0  0  0  0  0  0  0
   10.2268  -12.2130  -29.3325 N   0  0  0  0  0  0  0  0  0  0  0  0
   10.2900  -15.7221  -30.3722 C   0  0  0  0  0  0  0  0  0  0  0  0
    9.8276  -16.3234  -29.2259 C   0  0  0  0  0  0  0  0  0  0  0  0
    9.4858  -15.5971  -28.0985 C   0  0  0  0  0  0  0  0  0  0  0  0
    9.2267  -13.9115  -25.6470 N   0  0  0  0  0  0  0  0  0  0  0  0
    8.9257  -12.9788  -24.5654 C   0  0  2  0  0  0  0  0  0  0  0  0
    9.0215  -13.5742  -23.2264 C   0  0  0  0  0  0  0  0  0  0  0  0
    8.1419  -14.4452  -22.8579 O   0  0  0  0  0  0  0  0  0  0  0  0
    7.6205  -12.2281  -24.7769 C   0  0  0  0  0  0  0  0  0  0  0  0
   10.0277  -13.2815  -22.2531 N   0  0  0  0  0  0  0  0  0  0  0  0
    9.6699  -13.0576  -20.8703 C   0  0  2  0  0  0  0  0  0  0  0  0
    8.3050  -13.5596  -20.5211 C   0  0  0  0  0  0  0  0  0  0  0  0
    7.2983  -12.8042  -20.6394 O   0  0  0  0  0  0  0  0  0  0  0  0
    9.9989  -11.7355  -20.3269 C   0  0  2  0  0  0  0  0  0  0  0  0
   11.2972  -11.3033  -20.5743 O   0  0  0  0  0  0  0  0  0  0  0  0
    9.6346  -11.6861  -18.8586 C   0  0  0  0  0  0  0  0  0  0  0  0
    8.1905  -14.8924  -20.0715 N   0  0  0  0  0  0  0  0  0  0  0  0
    7.1857  -15.3382  -19.1700 C   0  0  2  0  0  0  0  0  0  0  0  0
    6.4480  -14.3578  -18.4105 C   0  0  0  0  0  0  0  0  0  0  0  0
    7.2325  -13.3869  -17.9654 O   0  0  0  0  0  0  0  0  0  0  0  0
    7.7264  -16.4766  -18.2857 C   0  0  2  0  0  0  0  0  0  0  0  0
    6.8257  -17.5224  -18.3501 O   0  0  0  0  0  0  0  0  0  0  0  0
    8.0443  -16.0019  -16.9132 C   0  0  0  0  0  0  0  0  0  0  0  0
    5.0862  -14.2613  -18.0745 N   0  0  0  0  0  0  0  0  0  0  0  0
    4.2127  -13.2533  -18.5982 C   0  0  2  0  0  0  0  0  0  0  0  0
    4.7975  -11.8689  -18.4653 C   0  0  0  0  0  0  0  0  0  0  0  0
    5.7960  -11.6810  -17.7607 O   0  0  0  0  0  0  0  0  0  0  0  0
    2.9120  -13.3976  -17.9018 C   0  0  0  0  0  0  0  0  0  0  0  0
    3.0920  -14.4988  -16.9032 C   0  0  0  0  0  0  0  0  0  0  0  0
    4.4077  -15.1370  -17.1881 C   0  0  0  0  0  0  0  0  0  0  0  0
    4.1836  -10.8216  -19.1599 N   0  0  0  0  0  0  0  0  0  0  0  0
    4.0779   -9.4657  -18.6684 C   0  0  2  0  0  0  0  0  0  0  0  0
    2.6666   -9.0023  -18.5476 C   0  0  0  0  0  0  0  0  0  0  0  0
    2.2417   -8.5280  -17.4944 O   0  0  0  0  0  0  0  0  0  0  0  0
    4.8153   -8.5933  -19.6581 C   0  0  0  0  0  0  0  0  0  0  0  0
    4.6814   -7.1318  -19.3134 C   0  0  1  0  0  0  0  0  0  0  0  0
    3.3205   -6.6246  -19.7889 C   0  0  0  0  0  0  0  0  0  0  0  0
    4.7177   -6.9162  -17.7960 C   0  0  0  0  0  0  0  0  0  0  0  0
    1.8645   -9.1560  -19.7161 N   0  0  0  0  0  0  0  0  0  0  0  0
    0.7533  -10.0725  -19.7332 C   0  0  2  0  0  0  0  0  0  0  0  0
    0.4535  -10.5788  -18.3455 C   0  0  0  0  0  0  0  0  0  0  0  0
    1.1095  -10.2622  -17.3348 O   0  0  0  0  0  0  0  0  0  0  0  0
    1.0868  -11.2124  -20.6487 C   0  0  0  0  0  0  0  0  0  0  0  0
    2.8409  -11.6941  -20.4707 S   0  0  0  0  0  0  0  0  0  0  0  0
   -0.6346  -11.4619  -18.1995 N   0  0  0  0  0  0  0  0  0  0  0  0
   -1.6186  -11.4545  -17.2082 C   0  0  0  0  0  0  0  0  0  0  0  0
   -2.5495  -12.5527  -17.1109 C   0  0  0  0  0  0  0  0  0  0  0  0
   -2.0993  -13.5633  -17.8812 O   0  0  0  0  0  0  0  0  0  0  0  0
   -3.7210  -12.8444  -16.4777 N   0  0  0  0  0  0  0  0  0  0  0  0
   -5.0581  -12.2646  -16.7655 C   0  0  2  0  0  0  0  0  0  0  0  0
   -5.0674  -11.2717  -17.8099 C   0  0  0  0  0  0  0  0  0  0  0  0
   -4.2666  -10.2552  -17.8335 O   0  0  0  0  0  0  0  0  0  0  0  0
   -5.3677  -11.7241  -15.3687 C   0  0  0  0  0  0  0  0  0  0  0  0
   -4.8256  -12.8514  -14.4689 C   0  0  0  0  0  0  0  0  0  0  0  0
   -4.0707  -13.7893  -15.4357 C   0  0  0  0  0  0  0  0  0  0  0  0
   -5.9761  -11.3809  -18.8874 N   0  0  0  0  0  0  0  0  0  0  0  0
   -6.7799  -10.3299  -19.4333 C   0  0  2  0  0  0  0  0  0  0  0  0
   -7.8336  -10.8410  -20.3997 C   0  0  0  0  0  0  0  0  0  0  0  0
   -7.7344  -12.0084  -20.7932 O   0  0  0  0  0  0  0  0  0  0  0  0
   -5.9965   -9.1908  -19.9285 C   0  0  0  0  0  0  0  0  0  0  0  0
   -6.4278   -8.0437  -19.2119 O   0  0  0  0  0  0  0  0  0  0  0  0
   -8.8452   -9.9535  -20.7675 N   0  0  0  0  0  0  0  0  0  0  0  0
  -10.2537  -10.3220  -20.7173 C   0  0  2  0  0  0  0  0  0  0  0  0
  -11.0311   -9.4700  -21.6581 C   0  0  0  0  0  0  0  0  0  0  0  0
  -10.6216   -9.3137  -22.8410 O   0  0  0  0  0  0  0  0  0  0  0  0
  -10.7501  -10.3967  -19.3337 C   0  0  0  0  0  0  0  0  0  0  0  0
  -11.2535  -11.6967  -18.8311 C   0  0  0  0  0  0  0  0  0  0  0  0
  -10.2767  -12.7031  -18.3638 C   0  0  0  0  0  0  0  0  0  0  0  0
  -10.6673  -13.2536  -17.0566 N   0  0  0  0  0  0  0  0  0  0  0  0
   -9.9977  -14.3191  -16.4585 C   0  0  0  0  0  0  0  0  0  0  0  0
   -9.0226  -14.1752  -15.6478 N   0  0  0  0  0  0  0  0  0  0  0  0
  -10.3708  -15.7084  -16.6902 N   0  0  0  0  0  0  0  0  0  0  0  0
  -12.2115   -8.8162  -21.2893 N   0  0  0  0  0  0  0  0  0  0  0  0
  -13.0933   -8.0352  -22.1299 C   0  0  2  0  0  0  0  0  0  0  0  0
  -14.2247   -7.5729  -21.3207 C   0  0  0  0  0  0  0  0  0  0  0  0
  -14.7339   -6.4636  -21.6035 O   0  0  0  0  0  0  0  0  0  0  0  0
  -13.7297   -9.0015  -23.1871 C   0  0  0  0  0  0  0  0  0  0  0  0
  -14.7923   -8.2996  -20.2099 N   0  0  0  0  0  0  0  0  0  0  0  0
  -15.7188   -7.5200  -19.3651 C   0  0  2  0  0  0  0  0  0  0  0  0
  -16.8180   -7.0398  -20.3230 C   0  0  0  0  0  0  0  0  0  0  0  0
  -17.5959   -7.8108  -20.8720 O   0  0  0  0  0  0  0  0  0  0  0  0
  -15.0496   -6.3649  -18.7031 C   0  0  0  0  0  0  0  0  0  0  0  0
  -15.7603   -6.0433  -17.5487 O   0  0  0  0  0  0  0  0  0  0  0  0
  -16.8946   -5.6385  -20.5567 N   0  0  0  0  0  0  0  0  0  0  0  0
  -17.9624   -5.0339  -21.3990 C   0  0  2  0  0  0  0  0  0  0  0  0
  -18.8298   -4.3483  -20.4649 C   0  0  0  0  0  0  0  0  0  0  0  0
  -19.2704   -3.1854  -20.8628 O   0  0  0  0  0  0  0  0  0  0  0  0
  -18.6023   -6.1650  -22.1976 C   0  0  2  0  0  0  0  0  0  0  0  0
  -19.5134   -6.9915  -21.3787 C   0  0  0  0  0  0  0  0  0  0  0  0
  -17.5552   -6.9479  -22.9301 C   0  0  0  0  0  0  0  0  0  0  0  0
  -20.1424   -8.1406  -22.1460 C   0  0  0  0  0  0  0  0  0  0  0  0
  -19.2978   -4.7173  -19.1842 N   0  0  0  0  0  0  0  0  0  0  0  0
  -20.1403   -3.8492  -18.4156 C   0  0  2  0  0  0  0  0  0  0  0  0
  -19.8294   -2.3869  -18.6028 C   0  0  0  0  0  0  0  0  0  0  0  0
  -18.6967   -2.0550  -19.0105 O   0  0  0  0  0  0  0  0  0  0  0  0
  -20.3167   -4.1420  -16.9813 C   0  0  0  0  0  0  0  0  0  0  0  0
  -19.0755   -4.5871  -16.2731 C   0  0  1  0  0  0  0  0  0  0  0  0
  -17.9663   -3.5351  -16.3175 C   0  0  0  0  0  0  0  0  0  0  0  0
  -19.3600   -4.8401  -14.8243 C   0  0  0  0  0  0  0  0  0  0  0  0
  -20.7843   -1.3998  -18.3119 N   0  0  0  0  0  0  0  0  0  0  0  0
  -22.0361   -1.1876  -18.9904 C   0  0  2  0  0  0  0  0  0  0  0  0
  -23.2350   -1.5145  -18.2001 C   0  0  0  0  0  0  0  0  0  0  0  0
  -23.2442   -1.2847  -16.9761 O   0  0  0  0  0  0  0  0  0  0  0  0
  -22.0711   -1.8416  -20.3690 C   0  0  0  0  0  0  0  0  0  0  0  0
  -21.0224   -1.3094  -21.1467 O   0  0  0  0  0  0  0  0  0  0  0  0
  -24.3619   -2.0804  -18.8300 N   0  0  0  0  0  0  0  0  0  0  0  0
  -25.1952   -1.3117  -19.7472 C   0  0  0  0  0  0  0  0  0  0  0  0
  -26.0073   -0.3146  -19.0024 C   0  0  0  0  0  0  0  0  0  0  0  0
  -26.2078    0.9921  -19.4739 O   0  0  0  0  0  0  0  0  0  0  0  0
  -26.5669   -0.5603  -17.9013 O   0  0  0  0  0  0  0  0  0  0  0  0
   -8.2324  -13.4834  -15.8440 H   0  0  0  0  0  0  0  0  0  0  0  0
  1  2  2  0
  1  3  1  0
  1 10  1  0
  3  4  2  0
  3  9  1  0
  4  5  1  0
  4  6  1  0
  5  7  2  0
  7  8  1  0
  8  9  2  0
 10 11  1  0
 11 12  1  0
 11 14  1  6
 12 13  2  0
 12 15  1  0
 16 15  1  6
 16 17  1  0
 16 19  1  0
 17 18  2  0
 17 22  1  0
 19 20  1  0
 19 21  1  1
 23 22  1  1
 23 24  1  0
 23 26  1  0
 24 25  2  0
 24 29  1  0
 26 27  1  0
 26 28  1  1
 29 30  1  0
 29 35  1  0
 30 31  1  1
 30 33  1  0
 31 32  2  0
 31 36  1  0
 33 34  1  0
 34 35  1  0
 36 37  1  0
 37 38  1  0
 37 40  1  6
 38 39  2  0
 38 44  1  0
 40 41  1  0
 41 42  1  1
 41 43  1  0
 44 45  1  0
 45 46  1  0
 45 48  1  6
 46 47  2  0
 46 50  1  0
 48 49  1  0
 50 51  1  0
 51 52  1  0
 52 53  2  0
 52 54  1  0
 54 55  1  0
 54 60  1  0
 55 56  1  6
 55 58  1  0
 56 57  2  0
 56 61  1  0
 58 59  1  0
 59 60  1  0
 61 62  1  0
 62 63  1  0
 62 65  1  6
 63 64  2  0
 63 67  1  0
 65 66  1  0
 67 68  1  0
 68 69  1  0
 68 71  1  1
 69 70  2  0
 69 78  1  0
 71 72  1  0
 72 73  1  0
 73 74  1  0
 74 75  1  0
 75 76  2  0
 75 77  1  0
 78 79  1  0
 79 80  1  0
 79 82  1  6
 80 81  2  0
 80 83  1  0
 83 84  1  0
 84 85  1  0
 84 87  1  6
 85 86  2  0
 85 89  1  0
 87 88  1  0
 90 89  1  1
 90 91  1  0
 90 93  1  0
 91 92  2  0
 91 97  1  0
 93 94  1  0
 93 95  1  1
 94 96  1  0
 97 98  1  0
 98 99  1  0
 98101  1  1
 99100  2  0
 99105  1  0
101102  1  0
102103  1  1
102104  1  0
105106  1  0
106107  1  0
106109  1  6
107108  2  0
107111  1  0
109110  1  0
111112  1  0
112113  1  0
113114  1  0
113115  2  0
 76116  1  0
M  END
$$$$
