
     RDKit          3D

116118  0  0  0  0  0  0  0  0999 V2000
    1.1061  -16.6778   -6.5193 C   0  0  0  0  0  0  0  0  0  0  0  0
    2.1107  -16.1882   -7.1465 O   0  0  0  0  0  0  0  0  0  0  0  0
    1.2831  -17.5400   -5.3664 C   0  0  0  0  0  0  0  0  0  0  0  0
    2.3310  -17.2655   -4.5128 C   0  0  0  0  0  0  0  0  0  0  0  0
    2.5473  -18.0546   -3.3867 C   0  0  0  0  0  0  0  0  0  0  0  0
    3.2204  -16.1952   -4.7322 N   0  0  0  0  0  0  0  0  0  0  0  0
    1.7121  -19.1127   -3.1160 C   0  0  0  0  0  0  0  0  0  0  0  0
    0.6742  -19.3608   -3.9824 C   0  0  0  0  0  0  0  0  0  0  0  0
    0.4505  -18.5851   -5.1066 C   0  0  0  0  0  0  0  0  0  0  0  0
   -0.1659  -16.3211   -7.0369 N   0  0  0  0  0  0  0  0  0  0  0  0
   -0.2237  -15.5024   -8.2439 C   0  0  2  0  0  0  0  0  0  0  0  0
   -1.4926  -15.6137   -8.9746 C   0  0  0  0  0  0  0  0  0  0  0  0
   -1.6712  -16.6051   -9.7829 O   0  0  0  0  0  0  0  0  0  0  0  0
    0.9861  -15.6907   -9.1456 C   0  0  0  0  0  0  0  0  0  0  0  0
   -2.5938  -14.7063   -8.8774 N   0  0  0  0  0  0  0  0  0  0  0  0
   -2.8759  -13.7755   -9.9472 C   0  0  2  0  0  0  0  0  0  0  0  0
   -4.2749  -13.8740  -10.4667 C   0  0  0  0  0  0  0  0  0  0  0  0
   -4.8942  -14.9753  -10.4258 O   0  0  0  0  0  0  0  0  0  0  0  0
   -1.8416  -13.6497  -10.9796 C   0  0  2  0  0  0  0  0  0  0  0  0
   -1.7653  -14.7150  -11.8700 O   0  0  0  0  0  0  0  0  0  0  0  0
   -0.5120  -13.3334  -10.3289 C   0  0  0  0  0  0  0  0  0  0  0  0
   -4.8667  -12.7028  -10.9861 N   0  0  0  0  0  0  0  0  0  0  0  0
   -6.2553  -12.4124  -10.8948 C   0  0  2  0  0  0  0  0  0  0  0  0
   -7.0119  -12.2423  -12.1117 C   0  0  0  0  0  0  0  0  0  0  0  0
   -8.3143  -12.1731  -11.8766 O   0  0  0  0  0  0  0  0  0  0  0  0
   -6.4989  -11.2708   -9.8908 C   0  0  2  0  0  0  0  0  0  0  0  0
   -5.6427  -10.2362  -10.2155 O   0  0  0  0  0  0  0  0  0  0  0  0
   -6.4077  -11.7470   -8.4854 C   0  0  0  0  0  0  0  0  0  0  0  0
   -6.6157  -12.1413  -13.4569 N   0  0  0  0  0  0  0  0  0  0  0  0
   -6.9735  -11.0435  -14.3055 C   0  0  2  0  0  0  0  0  0  0  0  0
   -8.4520  -10.7470  -14.2592 C   0  0  0  0  0  0  0  0  0  0  0  0
   -9.2591  -11.6487  -14.0052 O   0  0  0  0  0  0  0  0  0  0  0  0
   -6.4951  -11.3720  -15.6696 C   0  0  0  0  0  0  0  0  0  0  0  0
   -5.8971  -12.7421  -15.5847 C   0  0  0  0  0  0  0  0  0  0  0  0
   -5.8202  -13.0971  -14.1398 C   0  0  0  0  0  0  0  0  0  0  0  0
   -8.8722   -9.4359  -14.5050 N   0  0  0  0  0  0  0  0  0  0  0  0
  -10.0914   -8.8569  -13.9857 C   0  0  2  0  0  0  0  0  0  0  0  0
  -11.0423   -8.4511  -15.0591 C   0  0  0  0  0  0  0  0  0  0  0  0
  -12.2464   -8.3374  -14.8314 O   0  0  0  0  0  0  0  0  0  0  0  0
   -9.6810   -7.6421  -13.1854 C   0  0  0  0  0  0  0  0  0  0  0  0
  -10.3452   -7.6218  -11.8322 C   0  0  1  0  0  0  0  0  0  0  0  0
  -10.1367   -8.9724  -11.1483 C   0  0  0  0  0  0  0  0  0  0  0  0
   -9.7053   -6.5704  -10.9182 C   0  0  0  0  0  0  0  0  0  0  0  0
  -10.4633   -8.2192  -16.3410 N   0  0  0  0  0  0  0  0  0  0  0  0
  -11.2590   -7.7117  -17.4293 C   0  0  2  0  0  0  0  0  0  0  0  0
  -10.6676   -8.1091  -18.7576 C   0  0  0  0  0  0  0  0  0  0  0  0
   -9.4436   -8.1678  -18.9822 O   0  0  0  0  0  0  0  0  0  0  0  0
  -11.3340   -6.2186  -17.3122 C   0  0  0  0  0  0  0  0  0  0  0  0
   -9.6963   -5.5182  -16.9017 S   0  0  0  0  0  0  0  0  0  0  0  0
  -11.5645   -8.4287  -19.7961 N   0  0  0  0  0  0  0  0  0  0  0  0
  -12.8270   -7.8823  -20.0381 C   0  0  0  0  0  0  0  0  0  0  0  0
  -13.2821   -7.6965  -21.3946 C   0  0  0  0  0  0  0  0  0  0  0  0
  -13.6632   -6.4121  -21.5447 O   0  0  0  0  0  0  0  0  0  0  0  0
  -13.4302   -8.4341  -22.5314 N   0  0  0  0  0  0  0  0  0  0  0  0
  -12.3659   -8.8018  -23.5003 C   0  0  2  0  0  0  0  0  0  0  0  0
  -11.0614   -8.2778  -23.1834 C   0  0  0  0  0  0  0  0  0  0  0  0
  -10.8206   -7.5486  -22.1415 O   0  0  0  0  0  0  0  0  0  0  0  0
  -13.0020   -8.2108  -24.7593 C   0  0  0  0  0  0  0  0  0  0  0  0
  -14.4861   -8.5751  -24.5615 C   0  0  0  0  0  0  0  0  0  0  0  0
  -14.5613   -9.1236  -23.1200 C   0  0  0  0  0  0  0  0  0  0  0  0
   -9.9587   -8.5584  -24.0225 N   0  0  0  0  0  0  0  0  0  0  0  0
   -8.6148   -8.0993  -23.8446 C   0  0  2  0  0  0  0  0  0  0  0  0
   -7.6661   -8.6449  -24.8971 C   0  0  0  0  0  0  0  0  0  0  0  0
   -7.0090   -9.6519  -24.6117 O   0  0  0  0  0  0  0  0  0  0  0  0
   -8.1322   -8.2223  -22.4632 C   0  0  0  0  0  0  0  0  0  0  0  0
   -6.7361   -8.4714  -22.5287 O   0  0  0  0  0  0  0  0  0  0  0  0
   -7.6119   -7.9708  -26.1174 N   0  0  0  0  0  0  0  0  0  0  0  0
   -6.4042   -7.9401  -26.9313 C   0  0  2  0  0  0  0  0  0  0  0  0
   -5.2040   -8.0310  -26.0557 C   0  0  0  0  0  0  0  0  0  0  0  0
   -5.3481   -8.0711  -24.8031 O   0  0  0  0  0  0  0  0  0  0  0  0
   -6.4278   -6.8345  -27.9028 C   0  0  0  0  0  0  0  0  0  0  0  0
   -7.0930   -5.5676  -27.5179 C   0  0  0  0  0  0  0  0  0  0  0  0
   -6.5262   -4.7785  -26.4037 C   0  0  0  0  0  0  0  0  0  0  0  0
   -6.5508   -3.3392  -26.7075 N   0  0  0  0  0  0  0  0  0  0  0  0
   -6.8892   -2.3759  -25.7593 C   0  0  0  0  0  0  0  0  0  0  0  0
   -7.0538   -1.1407  -26.0347 N   0  0  0  0  0  0  0  0  0  0  0  0
   -7.1105   -2.7011  -24.3564 N   0  0  0  0  0  0  0  0  0  0  0  0
   -3.8997   -8.0685  -26.5595 N   0  0  0  0  0  0  0  0  0  0  0  0
   -3.0838   -9.2340  -26.8244 C   0  0  2  0  0  0  0  0  0  0  0  0
   -2.5092   -9.1087  -28.1671 C   0  0  0  0  0  0  0  0  0  0  0  0
   -1.6275   -9.9315  -28.5071 O   0  0  0  0  0  0  0  0  0  0  0  0
   -4.0353  -10.4762  -26.9139 C   0  0  0  0  0  0  0  0  0  0  0  0
   -2.8779   -8.0964  -29.1280 N   0  0  0  0  0  0  0  0  0  0  0  0
   -2.1850   -8.1914  -30.4282 C   0  0  2  0  0  0  0  0  0  0  0  0
   -2.0639   -6.7418  -30.9186 C   0  0  0  0  0  0  0  0  0  0  0  0
   -2.7839   -5.8431  -30.5005 O   0  0  0  0  0  0  0  0  0  0  0  0
   -2.9331   -9.0239  -31.4119 C   0  0  0  0  0  0  0  0  0  0  0  0
   -4.2927   -8.7482  -31.2824 O   0  0  0  0  0  0  0  0  0  0  0  0
   -1.0681   -6.4804  -31.9005 N   0  0  0  0  0  0  0  0  0  0  0  0
   -0.8713   -5.1268  -32.4871 C   0  0  2  0  0  0  0  0  0  0  0  0
   -2.0915   -4.8567  -33.2176 C   0  0  0  0  0  0  0  0  0  0  0  0
   -2.0550   -5.1439  -34.4906 O   0  0  0  0  0  0  0  0  0  0  0  0
    0.4071   -5.1760  -33.3178 C   0  0  2  0  0  0  0  0  0  0  0  0
    0.1377   -5.2067  -34.7705 C   0  0  0  0  0  0  0  0  0  0  0  0
    1.3034   -6.2764  -32.8365 C   0  0  0  0  0  0  0  0  0  0  0  0
    1.3962   -5.1976  -35.6197 C   0  0  0  0  0  0  0  0  0  0  0  0
   -3.3350   -4.3364  -32.7952 N   0  0  0  0  0  0  0  0  0  0  0  0
   -3.5290   -2.9309  -32.5923 C   0  0  2  0  0  0  0  0  0  0  0  0
   -4.8125   -2.4084  -33.1836 C   0  0  0  0  0  0  0  0  0  0  0  0
   -5.0520   -1.1841  -33.1274 O   0  0  0  0  0  0  0  0  0  0  0  0
   -2.4188   -2.0201  -32.9264 C   0  0  0  0  0  0  0  0  0  0  0  0
   -2.6559   -0.5845  -32.5756 C   0  0  1  0  0  0  0  0  0  0  0  0
   -2.6746   -0.3458  -31.0650 C   0  0  0  0  0  0  0  0  0  0  0  0
   -1.5619    0.2780  -33.1260 C   0  0  0  0  0  0  0  0  0  0  0  0
   -5.7427   -3.2757  -33.7781 N   0  0  0  0  0  0  0  0  0  0  0  0
   -5.5204   -4.6466  -34.1571 C   0  0  2  0  0  0  0  0  0  0  0  0
   -6.2905   -5.1011  -35.3272 C   0  0  0  0  0  0  0  0  0  0  0  0
   -6.1914   -6.2838  -35.7049 O   0  0  0  0  0  0  0  0  0  0  0  0
   -5.6595   -5.6077  -32.9797 C   0  0  0  0  0  0  0  0  0  0  0  0
   -7.0311   -5.8164  -32.7284 O   0  0  0  0  0  0  0  0  0  0  0  0
   -7.1342   -4.2010  -36.0088 N   0  0  0  0  0  0  0  0  0  0  0  0
   -8.5777   -4.1952  -35.8016 C   0  0  0  0  0  0  0  0  0  0  0  0
   -9.2910   -4.3227  -37.0990 C   0  0  0  0  0  0  0  0  0  0  0  0
   -9.0584   -5.3892  -37.9813 O   0  0  0  0  0  0  0  0  0  0  0  0
  -10.1450   -3.4908  -37.5048 O   0  0  0  0  0  0  0  0  0  0  0  0
   -7.4031   -0.4478  -25.3002 H   0  0  0  0  0  0  0  0  0  0  0  0
  1  2  2  0
  1  3  1  0
  1 10  1  0
  3  4  2  0
  3  9  1  0
  4  5  1  0
  4  6  1  0
  5  7  2  0
  7  8  1  0
  8  9  2  0
 10 11  1  0
 11 12  1  0
 11 14  1  6
 12 13  2  0
 12 15  1  0
 16 15  1  6
 16 17  1  0
 16 19  1  0
 17 18  2  0
 17 22  1  0
 19 20  1  0
 19 21  1  1
 23 22  1  6
 23 24  1  0
 23 26  1  0
 24 25  2  0
 24 29  1  0
 26 27  1  0
 26 28  1  1
 29 30  1  0
 29 35  1  0
 30 31  1  6
 30 33  1  0
 31 32  2  0
 31 36  1  0
 33 34  1  0
 34 35  1  0
 36 37  1  0
 37 38  1  0
 37 40  1  6
 38 39  2  0
 38 44  1  0
 40 41  1  0
 41 42  1  1
 41 43  1  0
 44 45  1  0
 45 46  1  0
 45 48  1  6
 46 47  2  0
 46 50  1  0
 48 49  1  0
 50 51  1  0
 51 52  1  0
 52 53  2  0
 52 54  1  0
 54 55  1  0
 54 60  1  0
 55 56  1  1
 55 58  1  0
 56 57  2  0
 56 61  1  0
 58 59  1  0
 59 60  1  0
 61 62  1  0
 62 63  1  0
 62 65  1  1
 63 64  2  0
 63 67  1  0
 65 66  1  0
 67 68  1  0
 68 69  1  0
 68 71  1  1
 69 70  2  0
 69 78  1  0
 71 72  1  0
 72 73  1  0
 73 74  1  0
 74 75  1  0
 75 76  2  0
 75 77  1  0
 78 79  1  0
 79 80  1  0
 79 82  1  6
 80 81  2  0
 80 83  1  0
 83 84  1  0
 84 85  1  0
 84 87  1  6
 85 86  2  0
 85 89  1  0
 87 88  1  0
 90 89  1  6
 90 91  1  0
 90 93  1  0
 91 92  2  0
 91 97  1  0
 93 94  1  0
 93 95  1  1
 94 96  1  0
 97 98  1  0
 98 99  1  0
 98101  1  6
 99100  2  0
 99105  1  0
101102  1  0
102103  1  1
102104  1  0
105106  1  0
106107  1  0
106109  1  1
107108  2  0
107111  1  0
109110  1  0
111112  1  0
112113  1  0
113114  1  0
113115  2  0
 76116  1  0
M  END
$$$$
