
     RDKit          3D

116118  0  0  0  0  0  0  0  0999 V2000
   -9.4217  -18.1769   -3.0864 C   0  0  0  0  0  0  0  0  0  0  0  0
   -8.2847  -18.3126   -3.6621 O   0  0  0  0  0  0  0  0  0  0  0  0
   -9.5356  -18.1331   -1.6410 C   0  0  0  0  0  0  0  0  0  0  0  0
   -8.3713  -18.1704   -0.9026 C   0  0  0  0  0  0  0  0  0  0  0  0
   -8.4175  -18.1255    0.4879 C   0  0  0  0  0  0  0  0  0  0  0  0
   -7.1004  -18.2559   -1.5044 N   0  0  0  0  0  0  0  0  0  0  0  0
   -9.6278  -18.0390    1.1347 C   0  0  0  0  0  0  0  0  0  0  0  0
  -10.7713  -18.0005    0.3731 C   0  0  0  0  0  0  0  0  0  0  0  0
  -10.7385  -18.0472   -1.0098 C   0  0  0  0  0  0  0  0  0  0  0  0
  -10.5367  -18.0814   -3.9586 N   0  0  0  0  0  0  0  0  0  0  0  0
  -10.3065  -18.1661   -5.3974 C   0  0  2  0  0  0  0  0  0  0  0  0
   -9.8905  -16.8962   -6.0062 C   0  0  0  0  0  0  0  0  0  0  0  0
  -10.2387  -15.7844   -5.4488 O   0  0  0  0  0  0  0  0  0  0  0  0
  -11.4585  -18.8200   -6.1439 C   0  0  0  0  0  0  0  0  0  0  0  0
   -9.1072  -16.7577   -7.1948 N   0  0  0  0  0  0  0  0  0  0  0  0
   -7.6636  -16.8113   -7.1341 C   0  0  2  0  0  0  0  0  0  0  0  0
   -6.9955  -16.1675   -8.3072 C   0  0  0  0  0  0  0  0  0  0  0  0
   -5.7669  -15.8739   -8.2591 O   0  0  0  0  0  0  0  0  0  0  0  0
   -7.0846  -18.0942   -6.7215 C   0  0  2  0  0  0  0  0  0  0  0  0
   -5.7216  -18.2297   -6.9610 O   0  0  0  0  0  0  0  0  0  0  0  0
   -7.8980  -19.2288   -7.3064 C   0  0  0  0  0  0  0  0  0  0  0  0
   -7.7797  -15.9161   -9.4532 N   0  0  0  0  0  0  0  0  0  0  0  0
   -7.2382  -15.7167  -10.7525 C   0  0  2  0  0  0  0  0  0  0  0  0
   -6.7627  -14.4031  -11.1139 C   0  0  0  0  0  0  0  0  0  0  0  0
   -7.7420  -13.5104  -11.1249 O   0  0  0  0  0  0  0  0  0  0  0  0
   -8.1733  -16.3140  -11.8198 C   0  0  2  0  0  0  0  0  0  0  0  0
   -8.0007  -17.6848  -11.8098 O   0  0  0  0  0  0  0  0  0  0  0  0
   -7.9816  -15.6642  -13.1432 C   0  0  0  0  0  0  0  0  0  0  0  0
   -5.4820  -13.9266  -11.4447 N   0  0  0  0  0  0  0  0  0  0  0  0
   -5.2435  -12.6363  -12.0203 C   0  0  2  0  0  0  0  0  0  0  0  0
   -6.1321  -12.3711  -13.2104 C   0  0  0  0  0  0  0  0  0  0  0  0
   -7.0997  -13.1062  -13.4396 O   0  0  0  0  0  0  0  0  0  0  0  0
   -3.8006  -12.5663  -12.3530 C   0  0  0  0  0  0  0  0  0  0  0  0
   -3.2245  -13.9025  -11.9997 C   0  0  0  0  0  0  0  0  0  0  0  0
   -4.2759  -14.6487  -11.2531 C   0  0  0  0  0  0  0  0  0  0  0  0
   -5.8316  -11.2790  -14.0307 N   0  0  0  0  0  0  0  0  0  0  0  0
   -6.7665  -10.2292  -14.3698 C   0  0  2  0  0  0  0  0  0  0  0  0
   -6.1880   -9.2165  -15.2976 C   0  0  0  0  0  0  0  0  0  0  0  0
   -5.4303   -8.3380  -14.8867 O   0  0  0  0  0  0  0  0  0  0  0  0
   -7.1525   -9.5635  -13.0688 C   0  0  0  0  0  0  0  0  0  0  0  0
   -8.6483   -9.5407  -12.8823 C   0  0  1  0  0  0  0  0  0  0  0  0
   -9.3277   -9.6129  -14.2493 C   0  0  0  0  0  0  0  0  0  0  0  0
   -9.1260  -10.7672  -12.0962 C   0  0  0  0  0  0  0  0  0  0  0  0
   -6.5785   -9.3369  -16.6634 N   0  0  0  0  0  0  0  0  0  0  0  0
   -5.5917   -9.3814  -17.7119 C   0  0  2  0  0  0  0  0  0  0  0  0
   -4.6159   -8.2403  -17.5795 C   0  0  0  0  0  0  0  0  0  0  0  0
   -4.8284   -7.2217  -16.8943 O   0  0  0  0  0  0  0  0  0  0  0  0
   -6.2953   -9.3213  -19.0347 C   0  0  0  0  0  0  0  0  0  0  0  0
   -8.1066   -9.4191  -18.8097 S   0  0  0  0  0  0  0  0  0  0  0  0
   -3.3971   -8.3461  -18.2785 N   0  0  0  0  0  0  0  0  0  0  0  0
   -2.3939   -7.3824  -18.4049 C   0  0  0  0  0  0  0  0  0  0  0  0
   -2.3451   -6.5451  -19.5790 C   0  0  0  0  0  0  0  0  0  0  0  0
   -2.2077   -7.3362  -20.6619 O   0  0  0  0  0  0  0  0  0  0  0  0
   -2.3970   -5.2187  -19.8894 N   0  0  0  0  0  0  0  0  0  0  0  0
   -2.7303   -4.6246  -21.2095 C   0  0  2  0  0  0  0  0  0  0  0  0
   -2.9893   -5.5870  -22.2503 C   0  0  0  0  0  0  0  0  0  0  0  0
   -2.1690   -5.8219  -23.2234 O   0  0  0  0  0  0  0  0  0  0  0  0
   -1.4577   -3.7995  -21.4060 C   0  0  0  0  0  0  0  0  0  0  0  0
   -1.2120   -3.2584  -19.9843 C   0  0  0  0  0  0  0  0  0  0  0  0
   -2.2292   -4.0136  -19.1015 C   0  0  0  0  0  0  0  0  0  0  0  0
   -4.1851   -6.3412  -22.2405 N   0  0  0  0  0  0  0  0  0  0  0  0
   -4.9030   -6.8139  -23.3850 C   0  0  2  0  0  0  0  0  0  0  0  0
   -5.4554   -5.6845  -24.2365 C   0  0  0  0  0  0  0  0  0  0  0  0
   -5.4578   -4.5477  -23.7517 O   0  0  0  0  0  0  0  0  0  0  0  0
   -5.8700   -7.8740  -23.0727 C   0  0  0  0  0  0  0  0  0  0  0  0
   -5.2204   -9.1145  -23.3060 O   0  0  0  0  0  0  0  0  0  0  0  0
   -5.9141   -6.0138  -25.5122 N   0  0  0  0  0  0  0  0  0  0  0  0
   -7.2700   -5.7096  -25.9492 C   0  0  2  0  0  0  0  0  0  0  0  0
   -7.4876   -6.2401  -27.3228 C   0  0  0  0  0  0  0  0  0  0  0  0
   -7.0681   -7.3921  -27.6196 O   0  0  0  0  0  0  0  0  0  0  0  0
   -7.6110   -4.2948  -25.7285 C   0  0  0  0  0  0  0  0  0  0  0  0
   -6.6955   -3.2552  -26.2550 C   0  0  0  0  0  0  0  0  0  0  0  0
   -7.0428   -2.5804  -27.5235 C   0  0  0  0  0  0  0  0  0  0  0  0
   -7.6181   -1.2493  -27.2754 N   0  0  0  0  0  0  0  0  0  0  0  0
   -8.0341   -0.4059  -28.3036 C   0  0  0  0  0  0  0  0  0  0  0  0
   -7.7212    0.8293  -28.3746 N   0  0  0  0  0  0  0  0  0  0  0  0
   -8.8543   -0.8706  -29.4147 N   0  0  0  0  0  0  0  0  0  0  0  0
   -8.1400   -5.5106  -28.3221 N   0  0  0  0  0  0  0  0  0  0  0  0
   -9.4523   -5.7509  -28.8831 C   0  0  2  0  0  0  0  0  0  0  0  0
   -9.9588   -7.0241  -28.3623 C   0  0  0  0  0  0  0  0  0  0  0  0
   -9.1237   -7.9066  -28.0562 O   0  0  0  0  0  0  0  0  0  0  0  0
   -9.2800   -5.9917  -30.4221 C   0  0  0  0  0  0  0  0  0  0  0  0
  -11.3557   -7.3421  -28.1844 N   0  0  0  0  0  0  0  0  0  0  0  0
  -11.6405   -8.7667  -27.9217 C   0  0  2  0  0  0  0  0  0  0  0  0
  -12.4436   -9.2407  -29.1411 C   0  0  0  0  0  0  0  0  0  0  0  0
  -12.6433   -8.5264  -30.1161 O   0  0  0  0  0  0  0  0  0  0  0  0
  -12.4146   -8.9696  -26.6647 C   0  0  0  0  0  0  0  0  0  0  0  0
  -13.2233   -7.8541  -26.4574 O   0  0  0  0  0  0  0  0  0  0  0  0
  -12.9614  -10.5649  -29.0898 N   0  0  0  0  0  0  0  0  0  0  0  0
  -13.7614  -11.1453  -30.2025 C   0  0  2  0  0  0  0  0  0  0  0  0
  -14.5414  -10.0395  -30.7165 C   0  0  0  0  0  0  0  0  0  0  0  0
  -15.3841   -9.5106  -29.8712 O   0  0  0  0  0  0  0  0  0  0  0  0
  -14.5568  -12.3123  -29.6261 C   0  0  2  0  0  0  0  0  0  0  0  0
  -14.6006  -13.4737  -30.5389 C   0  0  0  0  0  0  0  0  0  0  0  0
  -15.9027  -11.8492  -29.1572 C   0  0  0  0  0  0  0  0  0  0  0  0
  -13.5712  -14.5403  -30.2110 C   0  0  0  0  0  0  0  0  0  0  0  0
  -14.5520   -9.4160  -31.9839 N   0  0  0  0  0  0  0  0  0  0  0  0
  -15.4610   -8.3501  -32.2868 C   0  0  2  0  0  0  0  0  0  0  0  0
  -16.8686   -8.8162  -32.5541 C   0  0  0  0  0  0  0  0  0  0  0  0
  -17.3562   -9.7152  -31.8374 O   0  0  0  0  0  0  0  0  0  0  0  0
  -15.0604   -7.3628  -33.3061 C   0  0  0  0  0  0  0  0  0  0  0  0
  -14.7309   -6.0046  -32.7706 C   0  0  1  0  0  0  0  0  0  0  0  0
  -15.9707   -5.2449  -32.2966 C   0  0  0  0  0  0  0  0  0  0  0  0
  -13.8233   -6.1143  -31.5839 C   0  0  0  0  0  0  0  0  0  0  0  0
  -17.6273   -8.2683  -33.6005 N   0  0  0  0  0  0  0  0  0  0  0  0
  -19.0479   -8.3995  -33.7930 C   0  0  2  0  0  0  0  0  0  0  0  0
  -19.6451   -7.4135  -34.7095 C   0  0  0  0  0  0  0  0  0  0  0  0
  -19.1855   -6.2566  -34.7498 O   0  0  0  0  0  0  0  0  0  0  0  0
  -19.8108   -8.4806  -32.4735 C   0  0  0  0  0  0  0  0  0  0  0  0
  -21.1794   -8.6684  -32.7554 O   0  0  0  0  0  0  0  0  0  0  0  0
  -20.7265   -7.7826  -35.5348 N   0  0  0  0  0  0  0  0  0  0  0  0
  -20.6391   -7.7180  -36.9890 C   0  0  0  0  0  0  0  0  0  0  0  0
  -19.7128   -6.6340  -37.4078 C   0  0  0  0  0  0  0  0  0  0  0  0
  -19.6354   -6.1848  -38.7352 O   0  0  0  0  0  0  0  0  0  0  0  0
  -18.9312   -6.0456  -36.6148 O   0  0  0  0  0  0  0  0  0  0  0  0
   -8.0040    1.4284  -29.2128 H   0  0  0  0  0  0  0  0  0  0  0  0
  1  2  2  0
  1  3  1  0
  1 10  1  0
  3  4  2  0
  3  9  1  0
  4  5  1  0
  4  6  1  0
  5  7  2  0
  7  8  1  0
  8  9  2  0
 10 11  1  0
 11 12  1  0
 11 14  1  6
 12 13  2  0
 12 15  1  0
 16 15  1  6
 16 17  1  0
 16 19  1  0
 17 18  2  0
 17 22  1  0
 19 20  1  0
 19 21  1  6
 23 22  1  1
 23 24  1  0
 23 26  1  0
 24 25  2  0
 24 29  1  0
 26 27  1  0
 26 28  1  6
 29 30  1  0
 29 35  1  0
 30 31  1  6
 30 33  1  0
 31 32  2  0
 31 36  1  0
 33 34  1  0
 34 35  1  0
 36 37  1  0
 37 38  1  0
 37 40  1  1
 38 39  2  0
 38 44  1  0
 40 41  1  0
 41 42  1  6
 41 43  1  0
 44 45  1  0
 45 46  1  0
 45 48  1  6
 46 47  2  0
 46 50  1  0
 48 49  1  0
 50 51  1  0
 51 52  1  0
 52 53  2  0
 52 54  1  0
 54 55  1  0
 54 60  1  0
 55 56  1  6
 55 58  1  0
 56 57  2  0
 56 61  1  0
 58 59  1  0
 59 60  1  0
 61 62  1  0
 62 63  1  0
 62 65  1  1
 63 64  2  0
 63 67  1  0
 65 66  1  0
 67 68  1  0
 68 69  1  0
 68 71  1  6
 69 70  2  0
 69 78  1  0
 71 72  1  0
 72 73  1  0
 73 74  1  0
 74 75  1  0
 75 76  2  0
 75 77  1  0
 78 79  1  0
 79 80  1  0
 79 82  1  6
 80 81  2  0
 80 83  1  0
 83 84  1  0
 84 85  1  0
 84 87  1  1
 85 86  2  0
 85 89  1  0
 87 88  1  0
 90 89  1  1
 90 91  1  0
 90 93  1  0
 91 92  2  0
 91 97  1  0
 93 94  1  0
 93 95  1  6
 94 96  1  0
 97 98  1  0
 98 99  1  0
 98101  1  6
 99100  2  0
 99105  1  0
101102  1  0
102103  1  1
102104  1  0
105106  1  0
106107  1  0
106109  1  1
107108  2  0
107111  1  0
109110  1  0
111112  1  0
112113  1  0
113114  1  0
113115  2  0
 76116  1  0
M  END
$$$$
