
     RDKit          3D

116118  0  0  0  0  0  0  0  0999 V2000
    2.1990  -20.9284  -15.8562 C   0  0  0  0  0  0  0  0  0  0  0  0
    1.8802  -20.9458  -17.0974 O   0  0  0  0  0  0  0  0  0  0  0  0
    3.2418  -21.7900  -15.3325 C   0  0  0  0  0  0  0  0  0  0  0  0
    3.8192  -22.6982  -16.1949 C   0  0  0  0  0  0  0  0  0  0  0  0
    4.8288  -23.5474  -15.7509 C   0  0  0  0  0  0  0  0  0  0  0  0
    3.4243  -22.8133  -17.5423 N   0  0  0  0  0  0  0  0  0  0  0  0
    5.2604  -23.4820  -14.4470 C   0  0  0  0  0  0  0  0  0  0  0  0
    4.6690  -22.5652  -13.6110 C   0  0  0  0  0  0  0  0  0  0  0  0
    3.6626  -21.7175  -14.0400 C   0  0  0  0  0  0  0  0  0  0  0  0
    1.4608  -20.0221  -15.0520 N   0  0  0  0  0  0  0  0  0  0  0  0
    0.4738  -19.1615  -15.6966 C   0  0  2  0  0  0  0  0  0  0  0  0
    1.0622  -18.1260  -16.5557 C   0  0  0  0  0  0  0  0  0  0  0  0
    2.2355  -17.6647  -16.2758 O   0  0  0  0  0  0  0  0  0  0  0  0
   -0.5475  -18.5980  -14.7213 C   0  0  0  0  0  0  0  0  0  0  0  0
    0.4493  -17.5568  -17.7158 N   0  0  0  0  0  0  0  0  0  0  0  0
    1.0926  -16.4788  -18.4330 C   0  0  2  0  0  0  0  0  0  0  0  0
    1.0860  -15.1822  -17.6877 C   0  0  0  0  0  0  0  0  0  0  0  0
    2.0783  -14.8493  -16.9787 O   0  0  0  0  0  0  0  0  0  0  0  0
    0.7686  -16.3723  -19.8596 C   0  0  2  0  0  0  0  0  0  0  0  0
   -0.0013  -17.4125  -20.3682 O   0  0  0  0  0  0  0  0  0  0  0  0
    2.0376  -16.1410  -20.6517 C   0  0  0  0  0  0  0  0  0  0  0  0
   -0.0514  -14.3567  -17.8159 N   0  0  0  0  0  0  0  0  0  0  0  0
   -0.2004  -13.1088  -17.1515 C   0  0  2  0  0  0  0  0  0  0  0  0
   -1.5191  -12.6943  -16.7375 C   0  0  0  0  0  0  0  0  0  0  0  0
   -2.0456  -11.8148  -17.5775 O   0  0  0  0  0  0  0  0  0  0  0  0
    0.5466  -12.0017  -17.9174 C   0  0  2  0  0  0  0  0  0  0  0  0
    1.8508  -12.4215  -18.0965 O   0  0  0  0  0  0  0  0  0  0  0  0
    0.3954  -10.6787  -17.2561 C   0  0  0  0  0  0  0  0  0  0  0  0
   -2.3120  -13.0524  -15.6331 N   0  0  0  0  0  0  0  0  0  0  0  0
   -3.6376  -12.5531  -15.4171 C   0  0  2  0  0  0  0  0  0  0  0  0
   -3.7066  -11.0509  -15.5391 C   0  0  0  0  0  0  0  0  0  0  0  0
   -2.6761  -10.3726  -15.4561 O   0  0  0  0  0  0  0  0  0  0  0  0
   -4.0781  -13.0432  -14.0892 C   0  0  0  0  0  0  0  0  0  0  0  0
   -2.9196  -13.8001  -13.5172 C   0  0  0  0  0  0  0  0  0  0  0  0
   -1.9109  -13.9432  -14.6042 C   0  0  0  0  0  0  0  0  0  0  0  0
   -4.9567  -10.4607  -15.7509 N   0  0  0  0  0  0  0  0  0  0  0  0
   -5.1572   -9.0693  -16.0903 C   0  0  2  0  0  0  0  0  0  0  0  0
   -6.5963   -8.6833  -16.1236 C   0  0  0  0  0  0  0  0  0  0  0  0
   -7.3749   -9.2025  -16.9230 O   0  0  0  0  0  0  0  0  0  0  0  0
   -4.5467   -8.8705  -17.4586 C   0  0  0  0  0  0  0  0  0  0  0  0
   -5.5217   -8.2250  -18.4101 C   0  0  1  0  0  0  0  0  0  0  0  0
   -5.3604   -6.7068  -18.3439 C   0  0  0  0  0  0  0  0  0  0  0  0
   -5.2286   -8.6286  -19.8599 C   0  0  0  0  0  0  0  0  0  0  0  0
   -6.9888   -7.6839  -15.1859 N   0  0  0  0  0  0  0  0  0  0  0  0
   -8.1357   -7.8788  -14.3362 C   0  0  2  0  0  0  0  0  0  0  0  0
   -9.2843   -7.0077  -14.7765 C   0  0  0  0  0  0  0  0  0  0  0  0
   -9.4542   -5.8358  -14.3895 O   0  0  0  0  0  0  0  0  0  0  0  0
   -7.7450   -7.5603  -12.9239 C   0  0  0  0  0  0  0  0  0  0  0  0
   -6.7822   -8.9316  -12.1935 S   0  0  0  0  0  0  0  0  0  0  0  0
  -10.2121   -7.5664  -15.6778 N   0  0  0  0  0  0  0  0  0  0  0  0
  -11.3088   -8.3805  -15.3856 C   0  0  0  0  0  0  0  0  0  0  0  0
  -12.0734   -8.9692  -16.4583 C   0  0  0  0  0  0  0  0  0  0  0  0
  -13.2028   -8.2513  -16.6213 O   0  0  0  0  0  0  0  0  0  0  0  0
  -11.9760  -10.0163  -17.3258 N   0  0  0  0  0  0  0  0  0  0  0  0
  -11.9933   -9.9489  -18.8097 C   0  0  2  0  0  0  0  0  0  0  0  0
  -12.1632   -8.6223  -19.3463 C   0  0  0  0  0  0  0  0  0  0  0  0
  -12.9533   -7.7392  -18.8259 O   0  0  0  0  0  0  0  0  0  0  0  0
  -13.1705  -10.8931  -19.0581 C   0  0  0  0  0  0  0  0  0  0  0  0
  -12.9186  -11.9917  -18.0076 C   0  0  0  0  0  0  0  0  0  0  0  0
  -11.7697  -11.4385  -17.1366 C   0  0  0  0  0  0  0  0  0  0  0  0
  -11.4417   -8.2213  -20.4941 N   0  0  0  0  0  0  0  0  0  0  0  0
  -11.8443   -7.2370  -21.4521 C   0  0  2  0  0  0  0  0  0  0  0  0
  -12.2082   -7.8431  -22.7959 C   0  0  0  0  0  0  0  0  0  0  0  0
  -12.6572   -8.9945  -22.8042 O   0  0  0  0  0  0  0  0  0  0  0  0
  -10.9354   -6.0860  -21.5261 C   0  0  0  0  0  0  0  0  0  0  0  0
  -11.6225   -4.9744  -20.9716 O   0  0  0  0  0  0  0  0  0  0  0  0
  -12.0157   -7.0488  -23.9266 N   0  0  0  0  0  0  0  0  0  0  0  0
  -13.0795   -6.8057  -24.8915 C   0  0  2  0  0  0  0  0  0  0  0  0
  -12.5804   -5.9206  -25.9792 C   0  0  0  0  0  0  0  0  0  0  0  0
  -12.5472   -6.3489  -27.1653 O   0  0  0  0  0  0  0  0  0  0  0  0
  -14.3315   -6.3979  -24.2336 C   0  0  0  0  0  0  0  0  0  0  0  0
  -15.5711   -7.1488  -24.5426 C   0  0  0  0  0  0  0  0  0  0  0  0
  -15.7357   -8.5073  -23.9836 C   0  0  0  0  0  0  0  0  0  0  0  0
  -14.9290   -9.4875  -24.7270 N   0  0  0  0  0  0  0  0  0  0  0  0
  -14.4879  -10.6824  -24.1618 C   0  0  0  0  0  0  0  0  0  0  0  0
  -15.0539  -11.2439  -23.1654 N   0  0  0  0  0  0  0  0  0  0  0  0
  -13.3413  -11.4176  -24.6792 N   0  0  0  0  0  0  0  0  0  0  0  0
  -12.1319   -4.6160  -25.7485 N   0  0  0  0  0  0  0  0  0  0  0  0
  -12.0269   -3.5320  -26.7016 C   0  0  2  0  0  0  0  0  0  0  0  0
  -11.5156   -4.0678  -27.9666 C   0  0  0  0  0  0  0  0  0  0  0  0
  -11.3735   -5.3090  -28.0633 O   0  0  0  0  0  0  0  0  0  0  0  0
  -10.9056   -2.5585  -26.2004 C   0  0  0  0  0  0  0  0  0  0  0  0
  -11.1519   -3.2671  -29.1114 N   0  0  0  0  0  0  0  0  0  0  0  0
  -10.6604   -4.0322  -30.2745 C   0  0  2  0  0  0  0  0  0  0  0  0
   -9.1302   -3.9537  -30.1814 C   0  0  0  0  0  0  0  0  0  0  0  0
   -8.3967   -4.2785  -31.1074 O   0  0  0  0  0  0  0  0  0  0  0  0
  -11.1430   -3.4726  -31.5685 C   0  0  0  0  0  0  0  0  0  0  0  0
  -10.4983   -4.1402  -32.6078 O   0  0  0  0  0  0  0  0  0  0  0  0
   -8.5880   -3.4860  -28.9520 N   0  0  0  0  0  0  0  0  0  0  0  0
   -7.1300   -3.2490  -28.7696 C   0  0  2  0  0  0  0  0  0  0  0  0
   -6.9711   -2.9771  -27.3567 C   0  0  0  0  0  0  0  0  0  0  0  0
   -6.5520   -3.9836  -26.6385 O   0  0  0  0  0  0  0  0  0  0  0  0
   -6.7342   -2.1196  -29.7154 C   0  0  2  0  0  0  0  0  0  0  0  0
   -7.8954   -1.5391  -30.4215 C   0  0  0  0  0  0  0  0  0  0  0  0
   -5.6225   -2.5579  -30.6197 C   0  0  0  0  0  0  0  0  0  0  0  0
   -7.5161   -0.7414  -31.6563 C   0  0  0  0  0  0  0  0  0  0  0  0
   -7.1849   -1.8012  -26.6040 N   0  0  0  0  0  0  0  0  0  0  0  0
   -6.0957   -0.9613  -26.2009 C   0  0  2  0  0  0  0  0  0  0  0  0
   -5.8344   -0.9841  -24.7172 C   0  0  0  0  0  0  0  0  0  0  0  0
   -6.2372   -0.0327  -24.0157 O   0  0  0  0  0  0  0  0  0  0  0  0
   -6.0715    0.4293  -26.6903 C   0  0  0  0  0  0  0  0  0  0  0  0
   -4.9156    1.2468  -26.2047 C   0  0  1  0  0  0  0  0  0  0  0  0
   -5.3312    2.2909  -25.1672 C   0  0  0  0  0  0  0  0  0  0  0  0
   -3.8971    0.3726  -25.5397 C   0  0  0  0  0  0  0  0  0  0  0  0
   -5.1354   -2.0452  -24.1205 N   0  0  0  0  0  0  0  0  0  0  0  0
   -5.6776   -3.0421  -23.2347 C   0  0  2  0  0  0  0  0  0  0  0  0
   -4.7782   -4.1716  -22.9445 C   0  0  0  0  0  0  0  0  0  0  0  0
   -3.7810   -3.9912  -22.2204 O   0  0  0  0  0  0  0  0  0  0  0  0
   -7.0616   -3.5176  -23.6683 C   0  0  0  0  0  0  0  0  0  0  0  0
   -7.7069   -4.0981  -22.5572 O   0  0  0  0  0  0  0  0  0  0  0  0
   -5.0503   -5.4458  -23.4823 N   0  0  0  0  0  0  0  0  0  0  0  0
   -5.7336   -6.4755  -22.7082 C   0  0  0  0  0  0  0  0  0  0  0  0
   -6.3765   -7.4656  -23.6108 C   0  0  0  0  0  0  0  0  0  0  0  0
   -7.5471   -7.1765  -24.3290 O   0  0  0  0  0  0  0  0  0  0  0  0
   -5.9291   -8.6284  -23.7946 O   0  0  0  0  0  0  0  0  0  0  0  0
  -15.7729  -10.7261  -22.5684 H   0  0  0  0  0  0  0  0  0  0  0  0
  1  2  2  0
  1  3  1  0
  1 10  1  0
  3  4  2  0
  3  9  1  0
  4  5  1  0
  4  6  1  0
  5  7  2  0
  7  8  1  0
  8  9  2  0
 10 11  1  0
 11 12  1  0
 11 14  1  1
 12 13  2  0
 12 15  1  0
 16 15  1  1
 16 17  1  0
 16 19  1  0
 17 18  2  0
 17 22  1  0
 19 20  1  0
 19 21  1  6
 23 22  1  6
 23 24  1  0
 23 26  1  0
 24 25  2  0
 24 29  1  0
 26 27  1  0
 26 28  1  1
 29 30  1  0
 29 35  1  0
 30 31  1  1
 30 33  1  0
 31 32  2  0
 31 36  1  0
 33 34  1  0
 34 35  1  0
 36 37  1  0
 37 38  1  0
 37 40  1  6
 38 39  2  0
 38 44  1  0
 40 41  1  0
 41 42  1  6
 41 43  1  0
 44 45  1  0
 45 46  1  0
 45 48  1  1
 46 47  2  0
 46 50  1  0
 48 49  1  0
 50 51  1  0
 51 52  1  0
 52 53  2  0
 52 54  1  0
 54 55  1  0
 54 60  1  0
 55 56  1  1
 55 58  1  0
 56 57  2  0
 56 61  1  0
 58 59  1  0
 59 60  1  0
 61 62  1  0
 62 63  1  0
 62 65  1  6
 63 64  2  0
 63 67  1  0
 65 66  1  0
 67 68  1  0
 68 69  1  0
 68 71  1  1
 69 70  2  0
 69 78  1  0
 71 72  1  0
 72 73  1  0
 73 74  1  0
 74 75  1  0
 75 76  2  0
 75 77  1  0
 78 79  1  0
 79 80  1  0
 79 82  1  1
 80 81  2  0
 80 83  1  0
 83 84  1  0
 84 85  1  0
 84 87  1  6
 85 86  2  0
 85 89  1  0
 87 88  1  0
 90 89  1  1
 90 91  1  0
 90 93  1  0
 91 92  2  0
 91 97  1  0
 93 94  1  0
 93 95  1  6
 94 96  1  0
 97 98  1  0
 98 99  1  0
 98101  1  1
 99100  2  0
 99105  1  0
101102  1  0
102103  1  1
102104  1  0
105106  1  0
106107  1  0
106109  1  6
107108  2  0
107111  1  0
109110  1  0
111112  1  0
112113  1  0
113114  1  0
113115  2  0
 76116  1  0
M  END
$$$$
