
     RDKit          3D

116118  0  0  0  0  0  0  0  0999 V2000
  -14.8673    3.7733  -12.2604 C   0  0  0  0  0  0  0  0  0  0  0  0
  -13.6976    3.8182  -12.7821 O   0  0  0  0  0  0  0  0  0  0  0  0
  -15.7050    4.9549  -12.1824 C   0  0  0  0  0  0  0  0  0  0  0  0
  -15.3062    6.0735  -12.8838 C   0  0  0  0  0  0  0  0  0  0  0  0
  -16.0726    7.2351  -12.8517 C   0  0  0  0  0  0  0  0  0  0  0  0
  -14.1258    6.0993  -13.6522 N   0  0  0  0  0  0  0  0  0  0  0  0
  -17.2372    7.2724  -12.1218 C   0  0  0  0  0  0  0  0  0  0  0  0
  -17.6114    6.1419  -11.4353 C   0  0  0  0  0  0  0  0  0  0  0  0
  -16.8567    4.9820  -11.4572 C   0  0  0  0  0  0  0  0  0  0  0  0
  -15.2653    2.5029  -11.7698 N   0  0  0  0  0  0  0  0  0  0  0  0
  -14.3019    1.4071  -11.8073 C   0  0  2  0  0  0  0  0  0  0  0  0
  -13.6874    1.2039  -13.1255 C   0  0  0  0  0  0  0  0  0  0  0  0
  -13.1754    2.2141  -13.7463 O   0  0  0  0  0  0  0  0  0  0  0  0
  -14.8479    0.1179  -11.2143 C   0  0  0  0  0  0  0  0  0  0  0  0
  -13.5901   -0.0440  -13.8173 N   0  0  0  0  0  0  0  0  0  0  0  0
  -12.8406   -0.1449  -15.0496 C   0  0  2  0  0  0  0  0  0  0  0  0
  -11.6643   -1.0638  -14.9558 C   0  0  0  0  0  0  0  0  0  0  0  0
  -10.5248   -0.6829  -15.3490 O   0  0  0  0  0  0  0  0  0  0  0  0
  -12.5833    1.1175  -15.7509 C   0  0  2  0  0  0  0  0  0  0  0  0
  -13.6678    1.6340  -16.4512 O   0  0  0  0  0  0  0  0  0  0  0  0
  -11.3445    0.9769  -16.6093 C   0  0  0  0  0  0  0  0  0  0  0  0
  -11.8758   -2.3478  -14.4098 N   0  0  0  0  0  0  0  0  0  0  0  0
  -10.8392   -3.2984  -14.2027 C   0  0  2  0  0  0  0  0  0  0  0  0
  -10.3078   -4.0074  -15.3416 C   0  0  0  0  0  0  0  0  0  0  0  0
  -11.2599   -4.3474  -16.1985 O   0  0  0  0  0  0  0  0  0  0  0  0
  -11.2034   -4.2439  -13.0435 C   0  0  2  0  0  0  0  0  0  0  0  0
  -12.1847   -3.6275  -12.2912 O   0  0  0  0  0  0  0  0  0  0  0  0
   -9.9990   -4.6686  -12.2824 C   0  0  0  0  0  0  0  0  0  0  0  0
   -8.9977   -4.3853  -15.6843 N   0  0  0  0  0  0  0  0  0  0  0  0
   -8.6931   -5.4983  -16.5338 C   0  0  2  0  0  0  0  0  0  0  0  0
   -9.4156   -6.7528  -16.1089 C   0  0  0  0  0  0  0  0  0  0  0  0
   -9.1645   -7.2748  -15.0164 O   0  0  0  0  0  0  0  0  0  0  0  0
   -7.2191   -5.6560  -16.5355 C   0  0  0  0  0  0  0  0  0  0  0  0
   -6.6862   -4.6190  -15.5960 C   0  0  0  0  0  0  0  0  0  0  0  0
   -7.8231   -3.7233  -15.2426 C   0  0  0  0  0  0  0  0  0  0  0  0
  -10.3682   -7.2945  -16.9777 N   0  0  0  0  0  0  0  0  0  0  0  0
  -10.6054   -8.7105  -17.1510 C   0  0  2  0  0  0  0  0  0  0  0  0
   -9.4378   -9.5461  -16.7515 C   0  0  0  0  0  0  0  0  0  0  0  0
   -8.3946   -9.0300  -16.3511 O   0  0  0  0  0  0  0  0  0  0  0  0
  -10.8996   -8.9184  -18.6189 C   0  0  0  0  0  0  0  0  0  0  0  0
  -10.7389   -7.6398  -19.4011 C   0  0  1  0  0  0  0  0  0  0  0  0
  -11.0326   -7.9111  -20.8761 C   0  0  0  0  0  0  0  0  0  0  0  0
  -11.7511   -6.5822  -18.9456 C   0  0  0  0  0  0  0  0  0  0  0  0
   -9.6165  -10.9551  -16.8746 N   0  0  0  0  0  0  0  0  0  0  0  0
   -9.3140  -11.8361  -15.7758 C   0  0  2  0  0  0  0  0  0  0  0  0
   -7.8605  -12.2349  -15.7919 C   0  0  0  0  0  0  0  0  0  0  0  0
   -7.2268  -12.5881  -14.7790 O   0  0  0  0  0  0  0  0  0  0  0  0
  -10.1931  -13.0468  -15.8767 C   0  0  0  0  0  0  0  0  0  0  0  0
  -10.6492  -13.3726  -17.6164 S   0  0  0  0  0  0  0  0  0  0  0  0
   -7.1932  -12.2001  -17.0323 N   0  0  0  0  0  0  0  0  0  0  0  0
   -6.7844  -13.2805  -17.8174 C   0  0  0  0  0  0  0  0  0  0  0  0
   -5.6876  -14.1112  -17.3824 C   0  0  0  0  0  0  0  0  0  0  0  0
   -4.5341  -13.5368  -17.7784 O   0  0  0  0  0  0  0  0  0  0  0  0
   -5.4981  -15.2785  -16.7044 N   0  0  0  0  0  0  0  0  0  0  0  0
   -4.2303  -16.0433  -16.5836 C   0  0  2  0  0  0  0  0  0  0  0  0
   -3.1168  -15.4723  -17.2983 C   0  0  0  0  0  0  0  0  0  0  0  0
   -3.2473  -14.7755  -18.3811 O   0  0  0  0  0  0  0  0  0  0  0  0
   -4.7266  -17.3793  -17.1382 C   0  0  0  0  0  0  0  0  0  0  0  0
   -6.1338  -17.4732  -16.5176 C   0  0  0  0  0  0  0  0  0  0  0  0
   -6.3660  -16.0892  -15.8734 C   0  0  0  0  0  0  0  0  0  0  0  0
   -1.7980  -15.6510  -16.8212 N   0  0  0  0  0  0  0  0  0  0  0  0
   -0.5900  -15.3124  -17.5102 C   0  0  2  0  0  0  0  0  0  0  0  0
    0.0540  -16.5104  -18.1851 C   0  0  0  0  0  0  0  0  0  0  0  0
    0.2586  -17.5163  -17.4969 O   0  0  0  0  0  0  0  0  0  0  0  0
    0.3297  -14.4928  -16.7110 C   0  0  0  0  0  0  0  0  0  0  0  0
   -0.1878  -13.1709  -16.7029 O   0  0  0  0  0  0  0  0  0  0  0  0
    0.3613  -16.3895  -19.5405 N   0  0  0  0  0  0  0  0  0  0  0  0
    0.9736  -17.4749  -20.2949 C   0  0  2  0  0  0  0  0  0  0  0  0
    2.4010  -17.6209  -19.8991 C   0  0  0  0  0  0  0  0  0  0  0  0
    3.2941  -17.0161  -20.5533 O   0  0  0  0  0  0  0  0  0  0  0  0
    0.6986  -17.3617  -21.7364 C   0  0  0  0  0  0  0  0  0  0  0  0
    1.4362  -16.3431  -22.5202 C   0  0  0  0  0  0  0  0  0  0  0  0
    0.6689  -15.2757  -23.1965 C   0  0  0  0  0  0  0  0  0  0  0  0
    0.3843  -14.1636  -22.2763 N   0  0  0  0  0  0  0  0  0  0  0  0
   -0.2144  -12.9765  -22.6934 C   0  0  0  0  0  0  0  0  0  0  0  0
    0.2119  -11.8181  -22.3691 N   0  0  0  0  0  0  0  0  0  0  0  0
   -1.3808  -12.9517  -23.5663 N   0  0  0  0  0  0  0  0  0  0  0  0
    2.8114  -18.4143  -18.8227 N   0  0  0  0  0  0  0  0  0  0  0  0
    4.1627  -18.7721  -18.4484 C   0  0  2  0  0  0  0  0  0  0  0  0
    4.5015  -20.0504  -19.0807 C   0  0  0  0  0  0  0  0  0  0  0  0
    4.3664  -21.0948  -18.4018 O   0  0  0  0  0  0  0  0  0  0  0  0
    4.1710  -19.0751  -16.9107 C   0  0  0  0  0  0  0  0  0  0  0  0
    4.9913  -20.1954  -20.4310 N   0  0  0  0  0  0  0  0  0  0  0  0
    4.5768  -21.4375  -21.1128 C   0  0  2  0  0  0  0  0  0  0  0  0
    5.1412  -21.3151  -22.5351 C   0  0  0  0  0  0  0  0  0  0  0  0
    5.7890  -22.2094  -23.0656 O   0  0  0  0  0  0  0  0  0  0  0  0
    3.0962  -21.6036  -21.1416 C   0  0  0  0  0  0  0  0  0  0  0  0
    2.5532  -20.9267  -20.0516 O   0  0  0  0  0  0  0  0  0  0  0  0
    4.8824  -20.0967  -23.2226 N   0  0  0  0  0  0  0  0  0  0  0  0
    5.3551  -19.8572  -24.6134 C   0  0  2  0  0  0  0  0  0  0  0  0
    6.6019  -20.5856  -24.7135 C   0  0  0  0  0  0  0  0  0  0  0  0
    6.5927  -21.7820  -24.1909 O   0  0  0  0  0  0  0  0  0  0  0  0
    5.4470  -18.3467  -24.8053 C   0  0  2  0  0  0  0  0  0  0  0  0
    5.3017  -17.6046  -23.5356 C   0  0  0  0  0  0  0  0  0  0  0  0
    4.5141  -17.8977  -25.8888 C   0  0  0  0  0  0  0  0  0  0  0  0
    6.6263  -17.1764  -22.9299 C   0  0  0  0  0  0  0  0  0  0  0  0
    7.8435  -20.2336  -25.2877 N   0  0  0  0  0  0  0  0  0  0  0  0
    7.9231  -19.3749  -26.4324 C   0  0  2  0  0  0  0  0  0  0  0  0
    7.5483  -20.0555  -27.7233 C   0  0  0  0  0  0  0  0  0  0  0  0
    6.3593  -20.3882  -27.9106 O   0  0  0  0  0  0  0  0  0  0  0  0
    9.1522  -18.5834  -26.6243 C   0  0  0  0  0  0  0  0  0  0  0  0
    8.9277  -17.1272  -26.8869 C   0  0  1  0  0  0  0  0  0  0  0  0
    7.4730  -16.8127  -27.2391 C   0  0  0  0  0  0  0  0  0  0  0  0
    9.2518  -16.3180  -25.6687 C   0  0  0  0  0  0  0  0  0  0  0  0
    8.5141  -20.3326  -28.7037 N   0  0  0  0  0  0  0  0  0  0  0  0
    9.6921  -21.1448  -28.5453 C   0  0  2  0  0  0  0  0  0  0  0  0
   10.6383  -21.0948  -29.6728 C   0  0  0  0  0  0  0  0  0  0  0  0
   11.4628  -22.0162  -29.8228 O   0  0  0  0  0  0  0  0  0  0  0  0
    9.3620  -22.5805  -28.1466 C   0  0  0  0  0  0  0  0  0  0  0  0
    7.9632  -22.7020  -28.0183 O   0  0  0  0  0  0  0  0  0  0  0  0
   10.6045  -20.0116  -30.5740 N   0  0  0  0  0  0  0  0  0  0  0  0
   11.8254  -19.4156  -31.1038 C   0  0  0  0  0  0  0  0  0  0  0  0
   11.6218  -18.9706  -32.5070 C   0  0  0  0  0  0  0  0  0  0  0  0
   10.5286  -18.1791  -32.8917 O   0  0  0  0  0  0  0  0  0  0  0  0
   12.4021  -19.2703  -33.4490 O   0  0  0  0  0  0  0  0  0  0  0  0
    1.0290  -11.3609  -22.8837 H   0  0  0  0  0  0  0  0  0  0  0  0
  1  2  2  0
  1  3  1  0
  1 10  1  0
  3  4  2  0
  3  9  1  0
  4  5  1  0
  4  6  1  0
  5  7  2  0
  7  8  1  0
  8  9  2  0
 10 11  1  0
 11 12  1  0
 11 14  1  6
 12 13  2  0
 12 15  1  0
 16 15  1  1
 16 17  1  0
 16 19  1  0
 17 18  2  0
 17 22  1  0
 19 20  1  0
 19 21  1  6
 23 22  1  6
 23 24  1  0
 23 26  1  0
 24 25  2  0
 24 29  1  0
 26 27  1  0
 26 28  1  1
 29 30  1  0
 29 35  1  0
 30 31  1  1
 30 33  1  0
 31 32  2  0
 31 36  1  0
 33 34  1  0
 34 35  1  0
 36 37  1  0
 37 38  1  0
 37 40  1  6
 38 39  2  0
 38 44  1  0
 40 41  1  0
 41 42  1  6
 41 43  1  0
 44 45  1  0
 45 46  1  0
 45 48  1  6
 46 47  2  0
 46 50  1  0
 48 49  1  0
 50 51  1  0
 51 52  1  0
 52 53  2  0
 52 54  1  0
 54 55  1  0
 54 60  1  0
 55 56  1  6
 55 58  1  0
 56 57  2  0
 56 61  1  0
 58 59  1  0
 59 60  1  0
 61 62  1  0
 62 63  1  0
 62 65  1  1
 63 64  2  0
 63 67  1  0
 65 66  1  0
 67 68  1  0
 68 69  1  0
 68 71  1  6
 69 70  2  0
 69 78  1  0
 71 72  1  0
 72 73  1  0
 73 74  1  0
 74 75  1  0
 75 76  2  0
 75 77  1  0
 78 79  1  0
 79 80  1  0
 79 82  1  1
 80 81  2  0
 80 83  1  0
 83 84  1  0
 84 85  1  0
 84 87  1  6
 85 86  2  0
 85 89  1  0
 87 88  1  0
 90 89  1  1
 90 91  1  0
 90 93  1  0
 91 92  2  0
 91 97  1  0
 93 94  1  0
 93 95  1  6
 94 96  1  0
 97 98  1  0
 98 99  1  0
 98101  1  6
 99100  2  0
 99105  1  0
101102  1  0
102103  1  1
102104  1  0
105106  1  0
106107  1  0
106109  1  6
107108  2  0
107111  1  0
109110  1  0
111112  1  0
112113  1  0
113114  1  0
113115  2  0
 76116  1  0
M  END
$$$$
