
     RDKit          3D

116118  0  0  0  0  0  0  0  0999 V2000
   -1.9846   -1.3431  -30.4182 C   0  0  0  0  0  0  0  0  0  0  0  0
   -2.7857   -2.2489  -30.8428 O   0  0  0  0  0  0  0  0  0  0  0  0
   -1.9126   -0.0410  -31.0534 C   0  0  0  0  0  0  0  0  0  0  0  0
   -2.4601    0.0917  -32.3122 C   0  0  0  0  0  0  0  0  0  0  0  0
   -2.4261    1.3184  -32.9693 C   0  0  0  0  0  0  0  0  0  0  0  0
   -3.0684   -0.9855  -32.9862 N   0  0  0  0  0  0  0  0  0  0  0  0
   -1.8486    2.4090  -32.3630 C   0  0  0  0  0  0  0  0  0  0  0  0
   -1.3136    2.2480  -31.1072 C   0  0  0  0  0  0  0  0  0  0  0  0
   -1.3389    1.0330  -30.4449 C   0  0  0  0  0  0  0  0  0  0  0  0
   -1.1865   -1.7114  -29.3045 N   0  0  0  0  0  0  0  0  0  0  0  0
   -1.3628   -3.0409  -28.7287 C   0  0  2  0  0  0  0  0  0  0  0  0
   -1.6180   -3.0308  -27.2826 C   0  0  0  0  0  0  0  0  0  0  0  0
   -0.9865   -2.1874  -26.5357 O   0  0  0  0  0  0  0  0  0  0  0  0
   -0.2545   -4.0065  -29.1178 C   0  0  0  0  0  0  0  0  0  0  0  0
   -2.5301   -3.8874  -26.5902 N   0  0  0  0  0  0  0  0  0  0  0  0
   -3.2575   -3.4076  -25.4363 C   0  0  2  0  0  0  0  0  0  0  0  0
   -2.6236   -3.7851  -24.1354 C   0  0  0  0  0  0  0  0  0  0  0  0
   -1.4654   -3.3691  -23.8461 O   0  0  0  0  0  0  0  0  0  0  0  0
   -4.7147   -3.5682  -25.4824 C   0  0  2  0  0  0  0  0  0  0  0  0
   -5.3140   -3.1698  -26.6722 O   0  0  0  0  0  0  0  0  0  0  0  0
   -5.3353   -2.9150  -24.2662 C   0  0  0  0  0  0  0  0  0  0  0  0
   -3.3652   -4.6026  -23.2562 N   0  0  0  0  0  0  0  0  0  0  0  0
   -2.7750   -5.4591  -22.2871 C   0  0  2  0  0  0  0  0  0  0  0  0
   -3.6355   -6.1891  -21.3877 C   0  0  0  0  0  0  0  0  0  0  0  0
   -4.7460   -5.5190  -21.1157 O   0  0  0  0  0  0  0  0  0  0  0  0
   -1.6407   -4.7279  -21.5461 C   0  0  2  0  0  0  0  0  0  0  0  0
   -0.4771   -5.4453  -21.7467 O   0  0  0  0  0  0  0  0  0  0  0  0
   -1.9881   -4.4754  -20.1227 C   0  0  0  0  0  0  0  0  0  0  0  0
   -3.5003   -7.4462  -20.7728 N   0  0  0  0  0  0  0  0  0  0  0  0
   -4.5806   -8.1289  -20.1246 C   0  0  2  0  0  0  0  0  0  0  0  0
   -5.3129   -7.2395  -19.1505 C   0  0  0  0  0  0  0  0  0  0  0  0
   -4.7591   -6.2348  -18.6890 O   0  0  0  0  0  0  0  0  0  0  0  0
   -4.0111   -9.3380  -19.4833 C   0  0  0  0  0  0  0  0  0  0  0  0
   -2.5363   -9.2915  -19.7380 C   0  0  0  0  0  0  0  0  0  0  0  0
   -2.2956   -8.1934  -20.7158 C   0  0  0  0  0  0  0  0  0  0  0  0
   -6.6216   -7.5822  -18.7962 N   0  0  0  0  0  0  0  0  0  0  0  0
   -7.7198   -6.6445  -18.7176 C   0  0  2  0  0  0  0  0  0  0  0  0
   -8.2330   -6.4694  -17.3295 C   0  0  0  0  0  0  0  0  0  0  0  0
   -8.7929   -5.4286  -16.9858 O   0  0  0  0  0  0  0  0  0  0  0  0
   -8.8171   -7.1962  -19.5985 C   0  0  0  0  0  0  0  0  0  0  0  0
  -10.0323   -6.3041  -19.5915 C   0  0  1  0  0  0  0  0  0  0  0  0
   -9.8721   -5.2260  -20.6627 C   0  0  0  0  0  0  0  0  0  0  0  0
  -11.2974   -7.0904  -19.9545 C   0  0  0  0  0  0  0  0  0  0  0  0
   -8.0221   -7.5714  -16.4500 N   0  0  0  0  0  0  0  0  0  0  0  0
   -9.0664   -8.0194  -15.5647 C   0  0  2  0  0  0  0  0  0  0  0  0
   -9.9813   -8.9928  -16.2629 C   0  0  0  0  0  0  0  0  0  0  0  0
  -10.7058   -8.6919  -17.2307 O   0  0  0  0  0  0  0  0  0  0  0  0
   -9.8356   -6.8238  -15.0876 C   0  0  0  0  0  0  0  0  0  0  0  0
  -11.1995   -6.4298  -16.2388 S   0  0  0  0  0  0  0  0  0  0  0  0
  -10.0081  -10.3164  -15.7804 N   0  0  0  0  0  0  0  0  0  0  0  0
  -10.4442  -11.4639  -16.4467 C   0  0  0  0  0  0  0  0  0  0  0  0
  -10.2150  -12.7641  -15.8646 C   0  0  0  0  0  0  0  0  0  0  0  0
  -10.7277  -12.7699  -14.6178 O   0  0  0  0  0  0  0  0  0  0  0  0
   -9.6423  -13.9513  -16.2124 N   0  0  0  0  0  0  0  0  0  0  0  0
   -8.1924  -14.2746  -16.2147 C   0  0  2  0  0  0  0  0  0  0  0  0
   -7.3351  -13.1812  -15.8321 C   0  0  0  0  0  0  0  0  0  0  0  0
   -7.3350  -12.0333  -16.4299 O   0  0  0  0  0  0  0  0  0  0  0  0
   -8.0657  -14.7027  -17.6775 C   0  0  0  0  0  0  0  0  0  0  0  0
   -9.3715  -15.4934  -17.8871 C   0  0  0  0  0  0  0  0  0  0  0  0
  -10.1911  -15.2344  -16.6042 C   0  0  0  0  0  0  0  0  0  0  0  0
   -6.4397  -13.3250  -14.7475 N   0  0  0  0  0  0  0  0  0  0  0  0
   -5.0111  -13.2602  -14.8084 C   0  0  2  0  0  0  0  0  0  0  0  0
   -4.4436  -12.0995  -14.0108 C   0  0  0  0  0  0  0  0  0  0  0  0
   -4.8046  -11.9794  -12.8349 O   0  0  0  0  0  0  0  0  0  0  0  0
   -4.4770  -13.3857  -16.1705 C   0  0  0  0  0  0  0  0  0  0  0  0
   -5.5586  -13.7584  -17.0111 O   0  0  0  0  0  0  0  0  0  0  0  0
   -3.5462  -11.2550  -14.6648 N   0  0  0  0  0  0  0  0  0  0  0  0
   -3.6765   -9.8047  -14.6213 C   0  0  2  0  0  0  0  0  0  0  0  0
   -3.8386   -9.2718  -16.0015 C   0  0  0  0  0  0  0  0  0  0  0  0
   -3.0535   -9.6522  -16.9127 O   0  0  0  0  0  0  0  0  0  0  0  0
   -2.6263   -9.1861  -13.7961 C   0  0  0  0  0  0  0  0  0  0  0  0
   -1.4773  -10.0195  -13.3704 C   0  0  0  0  0  0  0  0  0  0  0  0
   -0.2498   -9.3464  -12.8957 C   0  0  0  0  0  0  0  0  0  0  0  0
   -0.5727   -8.1203  -12.1494 N   0  0  0  0  0  0  0  0  0  0  0  0
    0.4063   -7.2846  -11.6157 C   0  0  0  0  0  0  0  0  0  0  0  0
    0.3396   -6.0105  -11.6439 N   0  0  0  0  0  0  0  0  0  0  0  0
    1.5962   -7.7976  -10.9494 N   0  0  0  0  0  0  0  0  0  0  0  0
   -4.8316   -8.3487  -16.3455 N   0  0  0  0  0  0  0  0  0  0  0  0
   -6.2256   -8.3585  -15.9566 C   0  0  2  0  0  0  0  0  0  0  0  0
   -6.9902   -9.0896  -16.9713 C   0  0  0  0  0  0  0  0  0  0  0  0
   -7.1127   -8.5667  -18.1033 O   0  0  0  0  0  0  0  0  0  0  0  0
   -6.7583   -6.8870  -16.0414 C   0  0  0  0  0  0  0  0  0  0  0  0
   -7.6246  -10.3689  -16.7591 N   0  0  0  0  0  0  0  0  0  0  0  0
   -8.6652  -10.7183  -17.7465 C   0  0  2  0  0  0  0  0  0  0  0  0
   -8.0985  -10.2596  -19.0973 C   0  0  0  0  0  0  0  0  0  0  0  0
   -7.9850   -9.0770  -19.3963 O   0  0  0  0  0  0  0  0  0  0  0  0
   -9.9664  -10.0500  -17.4621 C   0  0  0  0  0  0  0  0  0  0  0  0
  -10.9131  -10.5188  -18.3705 O   0  0  0  0  0  0  0  0  0  0  0  0
   -7.7092  -11.2817  -20.0072 N   0  0  0  0  0  0  0  0  0  0  0  0
   -7.3517  -10.9877  -21.4217 C   0  0  2  0  0  0  0  0  0  0  0  0
   -8.5557  -10.4320  -22.0022 C   0  0  0  0  0  0  0  0  0  0  0  0
   -9.6611  -11.0573  -21.6996 O   0  0  0  0  0  0  0  0  0  0  0  0
   -6.8510  -12.2888  -22.0408 C   0  0  2  0  0  0  0  0  0  0  0  0
   -7.5151  -13.4795  -21.4707 C   0  0  0  0  0  0  0  0  0  0  0  0
   -5.3539  -12.3449  -22.0049 C   0  0  0  0  0  0  0  0  0  0  0  0
   -7.0248  -13.8380  -20.0793 C   0  0  0  0  0  0  0  0  0  0  0  0
   -8.7550   -9.3158  -22.8446 N   0  0  0  0  0  0  0  0  0  0  0  0
  -10.0302   -8.6689  -22.9420 C   0  0  2  0  0  0  0  0  0  0  0  0
  -10.0428   -7.5024  -23.8955 C   0  0  0  0  0  0  0  0  0  0  0  0
  -10.2406   -6.3541  -23.4465 O   0  0  0  0  0  0  0  0  0  0  0  0
  -10.7199   -8.2991  -21.6923 C   0  0  0  0  0  0  0  0  0  0  0  0
  -12.2145   -8.3233  -21.7681 C   0  0  1  0  0  0  0  0  0  0  0  0
  -12.7288   -8.2892  -23.2080 C   0  0  0  0  0  0  0  0  0  0  0  0
  -12.7506   -9.5819  -21.1578 C   0  0  0  0  0  0  0  0  0  0  0  0
   -9.8523   -7.6906  -25.2736 N   0  0  0  0  0  0  0  0  0  0  0  0
  -10.5899   -7.0611  -26.3377 C   0  0  2  0  0  0  0  0  0  0  0  0
  -11.6117   -6.0952  -25.8994 C   0  0  0  0  0  0  0  0  0  0  0  0
  -12.7946   -6.4661  -25.7791 O   0  0  0  0  0  0  0  0  0  0  0  0
  -11.1552   -8.0706  -27.3330 C   0  0  0  0  0  0  0  0  0  0  0  0
  -10.1108   -8.9171  -27.7580 O   0  0  0  0  0  0  0  0  0  0  0  0
  -11.2475   -4.7632  -25.6168 N   0  0  0  0  0  0  0  0  0  0  0  0
  -12.0401   -3.6341  -26.0894 C   0  0  0  0  0  0  0  0  0  0  0  0
  -11.3334   -2.3540  -25.8244 C   0  0  0  0  0  0  0  0  0  0  0  0
  -10.0991   -2.3026  -25.1584 O   0  0  0  0  0  0  0  0  0  0  0  0
  -11.7847   -1.2295  -26.1678 O   0  0  0  0  0  0  0  0  0  0  0  0
   -0.5605   -5.4939  -11.3900 H   0  0  0  0  0  0  0  0  0  0  0  0
  1  2  2  0
  1  3  1  0
  1 10  1  0
  3  4  2  0
  3  9  1  0
  4  5  1  0
  4  6  1  0
  5  7  2  0
  7  8  1  0
  8  9  2  0
 10 11  1  0
 11 12  1  0
 11 14  1  1
 12 13  2  0
 12 15  1  0
 16 15  1  6
 16 17  1  0
 16 19  1  0
 17 18  2  0
 17 22  1  0
 19 20  1  0
 19 21  1  1
 23 22  1  1
 23 24  1  0
 23 26  1  0
 24 25  2  0
 24 29  1  0
 26 27  1  0
 26 28  1  1
 29 30  1  0
 29 35  1  0
 30 31  1  1
 30 33  1  0
 31 32  2  0
 31 36  1  0
 33 34  1  0
 34 35  1  0
 36 37  1  0
 37 38  1  0
 37 40  1  6
 38 39  2  0
 38 44  1  0
 40 41  1  0
 41 42  1  6
 41 43  1  0
 44 45  1  0
 45 46  1  0
 45 48  1  6
 46 47  2  0
 46 50  1  0
 48 49  1  0
 50 51  1  0
 51 52  1  0
 52 53  2  0
 52 54  1  0
 54 55  1  0
 54 60  1  0
 55 56  1  6
 55 58  1  0
 56 57  2  0
 56 61  1  0
 58 59  1  0
 59 60  1  0
 61 62  1  0
 62 63  1  0
 62 65  1  6
 63 64  2  0
 63 67  1  0
 65 66  1  0
 67 68  1  0
 68 69  1  0
 68 71  1  6
 69 70  2  0
 69 78  1  0
 71 72  1  0
 72 73  1  0
 73 74  1  0
 74 75  1  0
 75 76  2  0
 75 77  1  0
 78 79  1  0
 79 80  1  0
 79 82  1  6
 80 81  2  0
 80 83  1  0
 83 84  1  0
 84 85  1  0
 84 87  1  1
 85 86  2  0
 85 89  1  0
 87 88  1  0
 90 89  1  1
 90 91  1  0
 90 93  1  0
 91 92  2  0
 91 97  1  0
 93 94  1  0
 93 95  1  1
 94 96  1  0
 97 98  1  0
 98 99  1  0
 98101  1  1
 99100  2  0
 99105  1  0
101102  1  0
102103  1  6
102104  1  0
105106  1  0
106107  1  0
106109  1  1
107108  2  0
107111  1  0
109110  1  0
111112  1  0
112113  1  0
113114  1  0
113115  2  0
 76116  1  0
M  END
$$$$
