
     RDKit          3D

116118  0  0  0  0  0  0  0  0999 V2000
    8.3174   -3.7770  -21.6262 C   0  0  0  0  0  0  0  0  0  0  0  0
    8.5650   -2.7332  -22.3275 O   0  0  0  0  0  0  0  0  0  0  0  0
    9.2483   -4.2475  -20.6182 C   0  0  0  0  0  0  0  0  0  0  0  0
    9.5695   -3.3883  -19.5883 C   0  0  0  0  0  0  0  0  0  0  0  0
   10.4527   -3.7863  -18.5887 C   0  0  0  0  0  0  0  0  0  0  0  0
    9.0331   -2.0889  -19.4965 N   0  0  0  0  0  0  0  0  0  0  0  0
   11.0081   -5.0437  -18.6205 C   0  0  0  0  0  0  0  0  0  0  0  0
   10.6674   -5.8795  -19.6572 C   0  0  0  0  0  0  0  0  0  0  0  0
    9.7927   -5.4944  -20.6581 C   0  0  0  0  0  0  0  0  0  0  0  0
    7.0883   -4.4247  -21.9141 N   0  0  0  0  0  0  0  0  0  0  0  0
    6.3157   -3.9748  -23.0677 C   0  0  2  0  0  0  0  0  0  0  0  0
    4.9838   -3.4606  -22.7242 C   0  0  0  0  0  0  0  0  0  0  0  0
    3.9534   -3.8931  -23.3717 O   0  0  0  0  0  0  0  0  0  0  0  0
    6.2724   -5.0016  -24.1883 C   0  0  0  0  0  0  0  0  0  0  0  0
    4.6981   -2.4975  -21.7063 N   0  0  0  0  0  0  0  0  0  0  0  0
    3.3541   -1.9967  -21.5245 C   0  0  2  0  0  0  0  0  0  0  0  0
    2.5806   -1.8942  -22.8004 C   0  0  0  0  0  0  0  0  0  0  0  0
    3.1310   -1.4428  -23.8451 O   0  0  0  0  0  0  0  0  0  0  0  0
    3.2122   -0.8484  -20.6229 C   0  0  2  0  0  0  0  0  0  0  0  0
    2.2260    0.0639  -20.9813 O   0  0  0  0  0  0  0  0  0  0  0  0
    4.5632   -0.1987  -20.4134 C   0  0  0  0  0  0  0  0  0  0  0  0
    1.2368   -2.3251  -22.7903 N   0  0  0  0  0  0  0  0  0  0  0  0
    0.8384   -3.6740  -22.9974 C   0  0  2  0  0  0  0  0  0  0  0  0
   -0.5124   -4.0590  -22.6667 C   0  0  0  0  0  0  0  0  0  0  0  0
   -0.7118   -5.3573  -22.8424 O   0  0  0  0  0  0  0  0  0  0  0  0
    1.8825   -4.6378  -22.4048 C   0  0  2  0  0  0  0  0  0  0  0  0
    2.2096   -4.1789  -21.1433 O   0  0  0  0  0  0  0  0  0  0  0  0
    3.0351   -4.8312  -23.3238 C   0  0  0  0  0  0  0  0  0  0  0  0
   -1.6139   -3.3166  -22.2060 N   0  0  0  0  0  0  0  0  0  0  0  0
   -1.9467   -3.1746  -20.8195 C   0  0  2  0  0  0  0  0  0  0  0  0
   -1.9812   -4.5024  -20.1039 C   0  0  0  0  0  0  0  0  0  0  0  0
   -1.2750   -4.6892  -19.1062 O   0  0  0  0  0  0  0  0  0  0  0  0
   -3.2389   -2.4513  -20.7523 C   0  0  0  0  0  0  0  0  0  0  0  0
   -3.6714   -2.2348  -22.1694 C   0  0  0  0  0  0  0  0  0  0  0  0
   -2.5254   -2.6194  -23.0402 C   0  0  0  0  0  0  0  0  0  0  0  0
   -2.8300   -5.4984  -20.5972 N   0  0  0  0  0  0  0  0  0  0  0  0
   -3.1370   -6.7291  -19.9026 C   0  0  2  0  0  0  0  0  0  0  0  0
   -3.6094   -6.5037  -18.5072 C   0  0  0  0  0  0  0  0  0  0  0  0
   -3.5386   -5.3918  -17.9843 O   0  0  0  0  0  0  0  0  0  0  0  0
   -1.8605   -7.5382  -19.8816 C   0  0  0  0  0  0  0  0  0  0  0  0
   -2.1005   -8.9357  -19.3698 C   0  0  1  0  0  0  0  0  0  0  0  0
   -3.4060   -8.9643  -18.5759 C   0  0  0  0  0  0  0  0  0  0  0  0
   -2.2760   -9.9258  -20.5272 C   0  0  0  0  0  0  0  0  0  0  0  0
   -4.1291   -7.6508  -17.8389 N   0  0  0  0  0  0  0  0  0  0  0  0
   -5.1494   -7.5184  -16.8307 C   0  0  2  0  0  0  0  0  0  0  0  0
   -5.6070   -8.8713  -16.3490 C   0  0  0  0  0  0  0  0  0  0  0  0
   -5.2238   -9.9494  -16.8422 O   0  0  0  0  0  0  0  0  0  0  0  0
   -6.2990   -6.7498  -17.4107 C   0  0  0  0  0  0  0  0  0  0  0  0
   -7.8914   -7.4091  -16.8023 S   0  0  0  0  0  0  0  0  0  0  0  0
   -6.5226   -8.9020  -15.2785 N   0  0  0  0  0  0  0  0  0  0  0  0
   -7.8382   -8.4331  -15.2609 C   0  0  0  0  0  0  0  0  0  0  0  0
   -8.7095   -8.7772  -14.1634 C   0  0  0  0  0  0  0  0  0  0  0  0
   -8.0402   -8.5813  -13.0097 O   0  0  0  0  0  0  0  0  0  0  0  0
   -9.9807   -9.2313  -13.9733 N   0  0  0  0  0  0  0  0  0  0  0  0
  -10.5087  -10.5751  -14.3227 C   0  0  2  0  0  0  0  0  0  0  0  0
   -9.5518  -11.4481  -14.9544 C   0  0  0  0  0  0  0  0  0  0  0  0
   -8.4251  -11.0370  -15.4408 O   0  0  0  0  0  0  0  0  0  0  0  0
  -11.6597  -10.1302  -15.2262 C   0  0  0  0  0  0  0  0  0  0  0  0
  -12.1940   -8.8986  -14.4699 C   0  0  0  0  0  0  0  0  0  0  0  0
  -11.1549   -8.6478  -13.3555 C   0  0  0  0  0  0  0  0  0  0  0  0
   -9.8141  -12.8333  -15.0608 N   0  0  0  0  0  0  0  0  0  0  0  0
  -10.0422  -13.5663  -16.2687 C   0  0  2  0  0  0  0  0  0  0  0  0
   -8.7551  -13.9025  -17.0009 C   0  0  0  0  0  0  0  0  0  0  0  0
   -7.7210  -13.3323  -16.6363 O   0  0  0  0  0  0  0  0  0  0  0  0
  -11.0941  -12.9882  -17.1146 C   0  0  0  0  0  0  0  0  0  0  0  0
  -11.0287  -13.6457  -18.3711 O   0  0  0  0  0  0  0  0  0  0  0  0
   -8.8338  -14.8405  -18.0306 N   0  0  0  0  0  0  0  0  0  0  0  0
   -7.7812  -14.9856  -19.0270 C   0  0  2  0  0  0  0  0  0  0  0  0
   -8.1130  -16.1044  -19.9510 C   0  0  0  0  0  0  0  0  0  0  0  0
   -8.5079  -17.2058  -19.4796 O   0  0  0  0  0  0  0  0  0  0  0  0
   -6.4450  -15.0157  -18.4103 C   0  0  0  0  0  0  0  0  0  0  0  0
   -6.2379  -15.8598  -17.2101 C   0  0  0  0  0  0  0  0  0  0  0  0
   -6.2196  -17.3292  -17.3706 C   0  0  0  0  0  0  0  0  0  0  0  0
   -4.8854  -17.8017  -17.7720 N   0  0  0  0  0  0  0  0  0  0  0  0
   -3.8574  -18.0193  -16.8569 C   0  0  0  0  0  0  0  0  0  0  0  0
   -4.0345  -18.0691  -15.5940 N   0  0  0  0  0  0  0  0  0  0  0  0
   -2.4760  -18.2349  -17.2669 N   0  0  0  0  0  0  0  0  0  0  0  0
   -8.0012  -15.9973  -21.3412 N   0  0  0  0  0  0  0  0  0  0  0  0
   -8.4827  -14.9291  -22.1906 C   0  0  2  0  0  0  0  0  0  0  0  0
   -9.8265  -14.5469  -21.7470 C   0  0  0  0  0  0  0  0  0  0  0  0
  -10.2057  -14.9391  -20.6191 O   0  0  0  0  0  0  0  0  0  0  0  0
   -8.6910  -15.5159  -23.6289 C   0  0  0  0  0  0  0  0  0  0  0  0
  -10.7541  -13.7568  -22.5213 N   0  0  0  0  0  0  0  0  0  0  0  0
  -11.2309  -14.3972  -23.7631 C   0  0  2  0  0  0  0  0  0  0  0  0
  -12.1851  -13.3739  -24.3946 C   0  0  0  0  0  0  0  0  0  0  0  0
  -12.0627  -12.9851  -25.5499 O   0  0  0  0  0  0  0  0  0  0  0  0
  -11.9308  -15.6872  -23.5053 C   0  0  0  0  0  0  0  0  0  0  0  0
  -11.3579  -16.2860  -22.3852 O   0  0  0  0  0  0  0  0  0  0  0  0
  -13.2326  -12.8815  -23.5672 N   0  0  0  0  0  0  0  0  0  0  0  0
  -14.6607  -13.2209  -23.8126 C   0  0  2  0  0  0  0  0  0  0  0  0
  -15.4084  -12.1231  -23.2373 C   0  0  0  0  0  0  0  0  0  0  0  0
  -15.5739  -12.1781  -21.9434 O   0  0  0  0  0  0  0  0  0  0  0  0
  -14.9108  -14.5941  -23.1972 C   0  0  2  0  0  0  0  0  0  0  0  0
  -15.2203  -15.6220  -24.2128 C   0  0  0  0  0  0  0  0  0  0  0  0
  -15.9200  -14.4985  -22.0935 C   0  0  0  0  0  0  0  0  0  0  0  0
  -15.8626  -16.8701  -23.6344 C   0  0  0  0  0  0  0  0  0  0  0  0
  -15.9952  -10.9831  -23.8301 N   0  0  0  0  0  0  0  0  0  0  0  0
  -16.7447  -10.0381  -23.0559 C   0  0  2  0  0  0  0  0  0  0  0  0
  -17.9873   -9.5423  -23.7489 C   0  0  0  0  0  0  0  0  0  0  0  0
  -17.8997   -9.1149  -24.9189 O   0  0  0  0  0  0  0  0  0  0  0  0
  -16.0219   -8.9023  -22.4548 C   0  0  0  0  0  0  0  0  0  0  0  0
  -14.5302   -9.0215  -22.4809 C   0  0  1  0  0  0  0  0  0  0  0  0
  -14.0296  -10.2727  -21.7578 C   0  0  0  0  0  0  0  0  0  0  0  0
  -14.0364   -9.1228  -23.8915 C   0  0  0  0  0  0  0  0  0  0  0  0
  -19.2298   -9.5400  -23.0954 N   0  0  0  0  0  0  0  0  0  0  0  0
  -19.4615   -9.3386  -21.6889 C   0  0  2  0  0  0  0  0  0  0  0  0
  -18.7500   -8.1918  -21.0994 C   0  0  0  0  0  0  0  0  0  0  0  0
  -17.5305   -8.2822  -20.8632 O   0  0  0  0  0  0  0  0  0  0  0  0
  -19.2541  -10.6127  -20.8748 C   0  0  0  0  0  0  0  0  0  0  0  0
  -18.4454  -10.3086  -19.7605 O   0  0  0  0  0  0  0  0  0  0  0  0
  -19.4483   -7.0022  -20.8095 N   0  0  0  0  0  0  0  0  0  0  0  0
  -19.2652   -6.2926  -19.5488 C   0  0  0  0  0  0  0  0  0  0  0  0
  -18.2482   -5.2193  -19.6977 C   0  0  0  0  0  0  0  0  0  0  0  0
  -17.5116   -5.0428  -20.8793 O   0  0  0  0  0  0  0  0  0  0  0  0
  -17.9680   -4.3987  -18.7844 O   0  0  0  0  0  0  0  0  0  0  0  0
   -4.3448  -17.2095  -15.0406 H   0  0  0  0  0  0  0  0  0  0  0  0
  1  2  2  0
  1  3  1  0
  1 10  1  0
  3  4  2  0
  3  9  1  0
  4  5  1  0
  4  6  1  0
  5  7  2  0
  7  8  1  0
  8  9  2  0
 10 11  1  0
 11 12  1  0
 11 14  1  6
 12 13  2  0
 12 15  1  0
 16 15  1  6
 16 17  1  0
 16 19  1  0
 17 18  2  0
 17 22  1  0
 19 20  1  0
 19 21  1  6
 23 22  1  1
 23 24  1  0
 23 26  1  0
 24 25  2  0
 24 29  1  0
 26 27  1  0
 26 28  1  6
 29 30  1  0
 29 35  1  0
 30 31  1  6
 30 33  1  0
 31 32  2  0
 31 36  1  0
 33 34  1  0
 34 35  1  0
 36 37  1  0
 37 38  1  0
 37 40  1  1
 38 39  2  0
 38 44  1  0
 40 41  1  0
 41 42  1  1
 41 43  1  0
 44 45  1  0
 45 46  1  0
 45 48  1  6
 46 47  2  0
 46 50  1  0
 48 49  1  0
 50 51  1  0
 51 52  1  0
 52 53  2  0
 52 54  1  0
 54 55  1  0
 54 60  1  0
 55 56  1  6
 55 58  1  0
 56 57  2  0
 56 61  1  0
 58 59  1  0
 59 60  1  0
 61 62  1  0
 62 63  1  0
 62 65  1  6
 63 64  2  0
 63 67  1  0
 65 66  1  0
 67 68  1  0
 68 69  1  0
 68 71  1  1
 69 70  2  0
 69 78  1  0
 71 72  1  0
 72 73  1  0
 73 74  1  0
 74 75  1  0
 75 76  2  0
 75 77  1  0
 78 79  1  0
 79 80  1  0
 79 82  1  6
 80 81  2  0
 80 83  1  0
 83 84  1  0
 84 85  1  0
 84 87  1  1
 85 86  2  0
 85 89  1  0
 87 88  1  0
 90 89  1  1
 90 91  1  0
 90 93  1  0
 91 92  2  0
 91 97  1  0
 93 94  1  0
 93 95  1  1
 94 96  1  0
 97 98  1  0
 98 99  1  0
 98101  1  6
 99100  2  0
 99105  1  0
101102  1  0
102103  1  1
102104  1  0
105106  1  0
106107  1  0
106109  1  1
107108  2  0
107111  1  0
109110  1  0
111112  1  0
112113  1  0
113114  1  0
113115  2  0
 76116  1  0
M  END
$$$$
