
     RDKit          3D

116118  0  0  0  0  0  0  0  0999 V2000
   -6.6443  -17.9209  -12.6554 C   0  0  0  0  0  0  0  0  0  0  0  0
   -7.6636  -18.5868  -13.0555 O   0  0  0  0  0  0  0  0  0  0  0  0
   -5.5054  -17.6896  -13.5235 C   0  0  0  0  0  0  0  0  0  0  0  0
   -5.4056  -18.4499  -14.6697 C   0  0  0  0  0  0  0  0  0  0  0  0
   -4.3378  -18.2687  -15.5442 C   0  0  0  0  0  0  0  0  0  0  0  0
   -6.3583  -19.4310  -15.0080 N   0  0  0  0  0  0  0  0  0  0  0  0
   -3.3761  -17.3246  -15.2712 C   0  0  0  0  0  0  0  0  0  0  0  0
   -3.5031  -16.5795  -14.1231 C   0  0  0  0  0  0  0  0  0  0  0  0
   -4.5585  -16.7523  -13.2447 C   0  0  0  0  0  0  0  0  0  0  0  0
   -6.7157  -17.4442  -11.3210 N   0  0  0  0  0  0  0  0  0  0  0  0
   -7.9012  -17.7591  -10.5298 C   0  0  2  0  0  0  0  0  0  0  0  0
   -8.9972  -16.7961  -10.6966 C   0  0  0  0  0  0  0  0  0  0  0  0
  -10.2172  -17.2197  -10.6873 O   0  0  0  0  0  0  0  0  0  0  0  0
   -7.5825  -18.0315   -9.0683 C   0  0  0  0  0  0  0  0  0  0  0  0
   -8.8483  -15.3844  -10.8708 N   0  0  0  0  0  0  0  0  0  0  0  0
  -10.0098  -14.5272  -10.9519 C   0  0  2  0  0  0  0  0  0  0  0  0
   -9.6940  -13.1413  -11.4172 C   0  0  0  0  0  0  0  0  0  0  0  0
   -8.8952  -12.4147  -10.7600 O   0  0  0  0  0  0  0  0  0  0  0  0
  -10.9439  -14.6015   -9.8234 C   0  0  2  0  0  0  0  0  0  0  0  0
  -10.3542  -14.5407   -8.5656 O   0  0  0  0  0  0  0  0  0  0  0  0
  -11.8456  -15.8057   -9.9904 C   0  0  0  0  0  0  0  0  0  0  0  0
  -10.3075  -12.6919  -12.6059 N   0  0  0  0  0  0  0  0  0  0  0  0
  -10.0826  -11.4083  -13.1742 C   0  0  2  0  0  0  0  0  0  0  0  0
  -11.2191  -10.6254  -13.5960 C   0  0  0  0  0  0  0  0  0  0  0  0
  -12.0300  -11.3182  -14.3827 O   0  0  0  0  0  0  0  0  0  0  0  0
   -8.9919  -11.4861  -14.2580 C   0  0  2  0  0  0  0  0  0  0  0  0
   -9.6116  -11.3663  -15.4870 O   0  0  0  0  0  0  0  0  0  0  0  0
   -8.1419  -12.6950  -14.0957 C   0  0  0  0  0  0  0  0  0  0  0  0
  -11.5985   -9.2994  -13.3235 N   0  0  0  0  0  0  0  0  0  0  0  0
  -12.7859   -8.6935  -13.8492 C   0  0  2  0  0  0  0  0  0  0  0  0
  -12.9128   -8.8897  -15.3397 C   0  0  0  0  0  0  0  0  0  0  0  0
  -12.0416   -8.4525  -16.1005 O   0  0  0  0  0  0  0  0  0  0  0  0
  -12.7571   -7.2641  -13.4576 C   0  0  0  0  0  0  0  0  0  0  0  0
  -11.4641   -7.0550  -12.7319 C   0  0  0  0  0  0  0  0  0  0  0  0
  -10.8680   -8.4012  -12.5034 C   0  0  0  0  0  0  0  0  0  0  0  0
  -14.0303   -9.5769  -15.8241 N   0  0  0  0  0  0  0  0  0  0  0  0
  -14.3578   -9.7209  -17.2253 C   0  0  2  0  0  0  0  0  0  0  0  0
  -14.2020   -8.4510  -17.9895 C   0  0  0  0  0  0  0  0  0  0  0  0
  -15.1632   -7.7092  -18.1916 O   0  0  0  0  0  0  0  0  0  0  0  0
  -15.7983  -10.1748  -17.2836 C   0  0  0  0  0  0  0  0  0  0  0  0
  -16.1579  -11.0264  -16.0927 C   0  0  1  0  0  0  0  0  0  0  0  0
  -17.4785  -10.5345  -15.5018 C   0  0  0  0  0  0  0  0  0  0  0  0
  -16.3849  -12.4855  -16.5051 C   0  0  0  0  0  0  0  0  0  0  0  0
  -12.8866   -8.1737  -18.4639 N   0  0  0  0  0  0  0  0  0  0  0  0
  -12.6067   -6.9680  -19.2008 C   0  0  2  0  0  0  0  0  0  0  0  0
  -11.1553   -6.9095  -19.6033 C   0  0  0  0  0  0  0  0  0  0  0  0
  -10.2294   -6.6224  -18.8207 O   0  0  0  0  0  0  0  0  0  0  0  0
  -12.9632   -5.7897  -18.3445 C   0  0  0  0  0  0  0  0  0  0  0  0
  -14.3857   -4.8839  -19.0492 S   0  0  0  0  0  0  0  0  0  0  0  0
  -10.8438   -7.1978  -20.9468 N   0  0  0  0  0  0  0  0  0  0  0  0
  -11.5746   -6.8609  -22.0884 C   0  0  0  0  0  0  0  0  0  0  0  0
  -11.0100   -7.0883  -23.3967 C   0  0  0  0  0  0  0  0  0  0  0  0
  -10.4479   -5.9400  -23.8243 O   0  0  0  0  0  0  0  0  0  0  0  0
  -10.8905   -8.1081  -24.2934 N   0  0  0  0  0  0  0  0  0  0  0  0
   -9.6907   -8.9518  -24.5288 C   0  0  2  0  0  0  0  0  0  0  0  0
   -8.5464   -8.6020  -23.7258 C   0  0  0  0  0  0  0  0  0  0  0  0
   -8.2275   -7.3822  -23.4334 O   0  0  0  0  0  0  0  0  0  0  0  0
   -9.5253   -8.6847  -26.0255 C   0  0  0  0  0  0  0  0  0  0  0  0
  -10.9884   -8.6899  -26.5087 C   0  0  0  0  0  0  0  0  0  0  0  0
  -11.8245   -8.7297  -25.2111 C   0  0  0  0  0  0  0  0  0  0  0  0
   -7.7079   -9.6132  -23.2032 N   0  0  0  0  0  0  0  0  0  0  0  0
   -6.4295   -9.4255  -22.5876 C   0  0  2  0  0  0  0  0  0  0  0  0
   -5.3160   -9.2262  -23.6005 C   0  0  0  0  0  0  0  0  0  0  0  0
   -5.5110   -9.6237  -24.7543 O   0  0  0  0  0  0  0  0  0  0  0  0
   -6.1341  -10.4107  -21.5395 C   0  0  0  0  0  0  0  0  0  0  0  0
   -4.8280  -10.1308  -21.0588 O   0  0  0  0  0  0  0  0  0  0  0  0
   -4.1527   -8.5990  -23.1538 N   0  0  0  0  0  0  0  0  0  0  0  0
   -3.0782   -8.2234  -24.0630 C   0  0  2  0  0  0  0  0  0  0  0  0
   -1.8023   -8.8495  -23.6208 C   0  0  0  0  0  0  0  0  0  0  0  0
   -1.7205  -10.1055  -23.5375 O   0  0  0  0  0  0  0  0  0  0  0  0
   -3.0497   -6.7719  -24.3054 C   0  0  0  0  0  0  0  0  0  0  0  0
   -2.8612   -6.2893  -25.6938 C   0  0  0  0  0  0  0  0  0  0  0  0
   -3.4517   -4.9903  -26.0798 C   0  0  0  0  0  0  0  0  0  0  0  0
   -2.6163   -4.3041  -27.0777 N   0  0  0  0  0  0  0  0  0  0  0  0
   -2.9508   -3.0617  -27.6125 C   0  0  0  0  0  0  0  0  0  0  0  0
   -4.1429   -2.6079  -27.6538 N   0  0  0  0  0  0  0  0  0  0  0  0
   -1.9541   -2.1494  -28.1578 N   0  0  0  0  0  0  0  0  0  0  0  0
   -0.6698   -8.1023  -23.2806 N   0  0  0  0  0  0  0  0  0  0  0  0
    0.2207   -8.3021  -22.1574 C   0  0  2  0  0  0  0  0  0  0  0  0
    1.4331   -7.5071  -22.3732 C   0  0  0  0  0  0  0  0  0  0  0  0
    1.5845   -6.4698  -21.6869 O   0  0  0  0  0  0  0  0  0  0  0  0
    0.7103   -9.7905  -22.1914 C   0  0  0  0  0  0  0  0  0  0  0  0
    2.4662   -7.8264  -23.3298 N   0  0  0  0  0  0  0  0  0  0  0  0
    3.5357   -6.8158  -23.4506 C   0  0  2  0  0  0  0  0  0  0  0  0
    3.6394   -6.5278  -24.9548 C   0  0  0  0  0  0  0  0  0  0  0  0
    2.8878   -7.0387  -25.7764 O   0  0  0  0  0  0  0  0  0  0  0  0
    4.8382   -7.2988  -22.9115 C   0  0  0  0  0  0  0  0  0  0  0  0
    5.7719   -7.3020  -23.9456 O   0  0  0  0  0  0  0  0  0  0  0  0
    4.6662   -5.6323  -25.3647 N   0  0  0  0  0  0  0  0  0  0  0  0
    4.8214   -5.2012  -26.7808 C   0  0  2  0  0  0  0  0  0  0  0  0
    3.7773   -4.2201  -26.9877 C   0  0  0  0  0  0  0  0  0  0  0  0
    2.9275   -4.5016  -27.9380 O   0  0  0  0  0  0  0  0  0  0  0  0
    4.7405   -6.4548  -27.6460 C   0  0  2  0  0  0  0  0  0  0  0  0
    6.0315   -7.1693  -27.7297 C   0  0  0  0  0  0  0  0  0  0  0  0
    4.1283   -6.1358  -28.9761 C   0  0  0  0  0  0  0  0  0  0  0  0
    5.9826   -8.4064  -28.6085 C   0  0  0  0  0  0  0  0  0  0  0  0
    3.5039   -2.9980  -26.3343 N   0  0  0  0  0  0  0  0  0  0  0  0
    2.6915   -1.9874  -26.9449 C   0  0  2  0  0  0  0  0  0  0  0  0
    2.4835   -2.1931  -28.4229 C   0  0  0  0  0  0  0  0  0  0  0  0
    3.4299   -2.6239  -29.1144 O   0  0  0  0  0  0  0  0  0  0  0  0
    3.0216   -0.5751  -26.6794 C   0  0  0  0  0  0  0  0  0  0  0  0
    2.1418    0.0977  -25.6728 C   0  0  1  0  0  0  0  0  0  0  0  0
    0.6738    0.1223  -26.1010 C   0  0  0  0  0  0  0  0  0  0  0  0
    2.1881   -0.6310  -24.3648 C   0  0  0  0  0  0  0  0  0  0  0  0
    1.2538   -1.8939  -29.0305 N   0  0  0  0  0  0  0  0  0  0  0  0
    0.2740   -2.8385  -29.4998 C   0  0  2  0  0  0  0  0  0  0  0  0
   -0.2341   -2.5843  -30.8585 C   0  0  0  0  0  0  0  0  0  0  0  0
   -0.6064   -1.4372  -31.1694 O   0  0  0  0  0  0  0  0  0  0  0  0
   -0.8609   -3.0472  -28.5009 C   0  0  0  0  0  0  0  0  0  0  0  0
   -2.0669   -2.6205  -29.0938 O   0  0  0  0  0  0  0  0  0  0  0  0
   -0.2935   -3.6344  -31.7969 N   0  0  0  0  0  0  0  0  0  0  0  0
   -1.5326   -3.9813  -32.4831 C   0  0  0  0  0  0  0  0  0  0  0  0
   -1.8466   -2.9762  -33.5317 C   0  0  0  0  0  0  0  0  0  0  0  0
   -1.3414   -1.6674  -33.4915 O   0  0  0  0  0  0  0  0  0  0  0  0
   -2.5859   -3.2165  -34.5225 O   0  0  0  0  0  0  0  0  0  0  0  0
   -4.3621   -1.6562  -28.0870 H   0  0  0  0  0  0  0  0  0  0  0  0
  1  2  2  0
  1  3  1  0
  1 10  1  0
  3  4  2  0
  3  9  1  0
  4  5  1  0
  4  6  1  0
  5  7  2  0
  7  8  1  0
  8  9  2  0
 10 11  1  0
 11 12  1  0
 11 14  1  1
 12 13  2  0
 12 15  1  0
 16 15  1  1
 16 17  1  0
 16 19  1  0
 17 18  2  0
 17 22  1  0
 19 20  1  0
 19 21  1  1
 23 22  1  6
 23 24  1  0
 23 26  1  0
 24 25  2  0
 24 29  1  0
 26 27  1  0
 26 28  1  6
 29 30  1  0
 29 35  1  0
 30 31  1  6
 30 33  1  0
 31 32  2  0
 31 36  1  0
 33 34  1  0
 34 35  1  0
 36 37  1  0
 37 38  1  0
 37 40  1  1
 38 39  2  0
 38 44  1  0
 40 41  1  0
 41 42  1  6
 41 43  1  0
 44 45  1  0
 45 46  1  0
 45 48  1  1
 46 47  2  0
 46 50  1  0
 48 49  1  0
 50 51  1  0
 51 52  1  0
 52 53  2  0
 52 54  1  0
 54 55  1  0
 54 60  1  0
 55 56  1  1
 55 58  1  0
 56 57  2  0
 56 61  1  0
 58 59  1  0
 59 60  1  0
 61 62  1  0
 62 63  1  0
 62 65  1  6
 63 64  2  0
 63 67  1  0
 65 66  1  0
 67 68  1  0
 68 69  1  0
 68 71  1  1
 69 70  2  0
 69 78  1  0
 71 72  1  0
 72 73  1  0
 73 74  1  0
 74 75  1  0
 75 76  2  0
 75 77  1  0
 78 79  1  0
 79 80  1  0
 79 82  1  6
 80 81  2  0
 80 83  1  0
 83 84  1  0
 84 85  1  0
 84 87  1  6
 85 86  2  0
 85 89  1  0
 87 88  1  0
 90 89  1  1
 90 91  1  0
 90 93  1  0
 91 92  2  0
 91 97  1  0
 93 94  1  0
 93 95  1  6
 94 96  1  0
 97 98  1  0
 98 99  1  0
 98101  1  6
 99100  2  0
 99105  1  0
101102  1  0
102103  1  6
102104  1  0
105106  1  0
106107  1  0
106109  1  1
107108  2  0
107111  1  0
109110  1  0
111112  1  0
112113  1  0
113114  1  0
113115  2  0
 76116  1  0
M  END
$$$$
