
     RDKit          3D

116118  0  0  0  0  0  0  0  0999 V2000
   -2.0618  -14.5602  -12.8959 C   0  0  0  0  0  0  0  0  0  0  0  0
   -0.8511  -14.9081  -13.1318 O   0  0  0  0  0  0  0  0  0  0  0  0
   -3.1588  -15.4980  -13.0413 C   0  0  0  0  0  0  0  0  0  0  0  0
   -3.1540  -16.3274  -14.1432 C   0  0  0  0  0  0  0  0  0  0  0  0
   -4.1773  -17.2519  -14.3332 C   0  0  0  0  0  0  0  0  0  0  0  0
   -2.1354  -16.2824  -15.1153 N   0  0  0  0  0  0  0  0  0  0  0  0
   -5.1992  -17.3464  -13.4181 C   0  0  0  0  0  0  0  0  0  0  0  0
   -5.1762  -16.5092  -12.3282 C   0  0  0  0  0  0  0  0  0  0  0  0
   -4.1659  -15.5844  -12.1297 C   0  0  0  0  0  0  0  0  0  0  0  0
   -2.2391  -13.2105  -12.4959 N   0  0  0  0  0  0  0  0  0  0  0  0
   -1.0577  -12.3673  -12.3417 C   0  0  2  0  0  0  0  0  0  0  0  0
   -1.3631  -10.9876  -11.9422 C   0  0  0  0  0  0  0  0  0  0  0  0
   -0.4059  -10.1233  -11.8733 O   0  0  0  0  0  0  0  0  0  0  0  0
   -0.1227  -12.4335  -13.5389 C   0  0  0  0  0  0  0  0  0  0  0  0
   -2.6598  -10.4818  -11.6131 N   0  0  0  0  0  0  0  0  0  0  0  0
   -2.8103   -9.1652  -11.0350 C   0  0  2  0  0  0  0  0  0  0  0  0
   -3.0023   -8.0874  -12.0540 C   0  0  0  0  0  0  0  0  0  0  0  0
   -2.2265   -8.0049  -13.0486 O   0  0  0  0  0  0  0  0  0  0  0  0
   -1.8828   -8.8298   -9.9492 C   0  0  2  0  0  0  0  0  0  0  0  0
   -0.6028   -8.4714  -10.3573 O   0  0  0  0  0  0  0  0  0  0  0  0
   -1.8807   -9.9424   -8.9228 C   0  0  0  0  0  0  0  0  0  0  0  0
   -4.0741   -7.1889  -11.8657 N   0  0  0  0  0  0  0  0  0  0  0  0
   -5.1241   -7.0041  -12.8060 C   0  0  2  0  0  0  0  0  0  0  0  0
   -4.8831   -7.3300  -14.1909 C   0  0  0  0  0  0  0  0  0  0  0  0
   -3.9289   -6.5749  -14.7159 O   0  0  0  0  0  0  0  0  0  0  0  0
   -5.7572   -5.6111  -12.6350 C   0  0  2  0  0  0  0  0  0  0  0  0
   -4.8668   -4.6808  -13.1357 O   0  0  0  0  0  0  0  0  0  0  0  0
   -6.1941   -5.3749  -11.2337 C   0  0  0  0  0  0  0  0  0  0  0  0
   -5.4682   -8.2791  -15.0474 N   0  0  0  0  0  0  0  0  0  0  0  0
   -5.2335   -8.3190  -16.4604 C   0  0  2  0  0  0  0  0  0  0  0  0
   -5.4213   -6.9688  -17.1067 C   0  0  0  0  0  0  0  0  0  0  0  0
   -6.4549   -6.3210  -16.9039 O   0  0  0  0  0  0  0  0  0  0  0  0
   -6.1310   -9.3559  -17.0232 C   0  0  0  0  0  0  0  0  0  0  0  0
   -6.9435   -9.8731  -15.8766 C   0  0  0  0  0  0  0  0  0  0  0  0
   -6.3527   -9.3075  -14.6314 C   0  0  0  0  0  0  0  0  0  0  0  0
   -4.3997   -6.4796  -17.9270 N   0  0  0  0  0  0  0  0  0  0  0  0
   -4.3891   -5.1617  -18.5222 C   0  0  2  0  0  0  0  0  0  0  0  0
   -4.9992   -5.1357  -19.8816 C   0  0  0  0  0  0  0  0  0  0  0  0
   -5.2483   -4.0706  -20.4459 O   0  0  0  0  0  0  0  0  0  0  0  0
   -2.9394   -4.7430  -18.6085 C   0  0  0  0  0  0  0  0  0  0  0  0
   -2.6625   -3.5310  -17.7559 C   0  0  1  0  0  0  0  0  0  0  0  0
   -2.8522   -2.2693  -18.5969 C   0  0  0  0  0  0  0  0  0  0  0  0
   -3.6599   -3.4319  -16.5958 C   0  0  0  0  0  0  0  0  0  0  0  0
   -5.2731   -6.4098  -20.4595 N   0  0  0  0  0  0  0  0  0  0  0  0
   -4.2024   -7.2594  -20.9142 C   0  0  2  0  0  0  0  0  0  0  0  0
   -4.1437   -7.2897  -22.4201 C   0  0  0  0  0  0  0  0  0  0  0  0
   -4.5777   -6.3779  -23.1497 O   0  0  0  0  0  0  0  0  0  0  0  0
   -4.4209   -8.6389  -20.3683 C   0  0  0  0  0  0  0  0  0  0  0  0
   -6.0974   -9.2399  -20.7792 S   0  0  0  0  0  0  0  0  0  0  0  0
   -3.5620   -8.4227  -23.0228 N   0  0  0  0  0  0  0  0  0  0  0  0
   -4.1576   -9.6602  -23.2772 C   0  0  0  0  0  0  0  0  0  0  0  0
   -5.0966   -9.7964  -24.3643 C   0  0  0  0  0  0  0  0  0  0  0  0
   -6.3234   -9.4679  -23.9121 O   0  0  0  0  0  0  0  0  0  0  0  0
   -5.0899  -10.1538  -25.6798 N   0  0  0  0  0  0  0  0  0  0  0  0
   -6.1579   -9.8946  -26.6792 C   0  0  2  0  0  0  0  0  0  0  0  0
   -7.3175   -9.2193  -26.1540 C   0  0  0  0  0  0  0  0  0  0  0  0
   -7.4943   -8.9829  -24.8939 O   0  0  0  0  0  0  0  0  0  0  0  0
   -6.4045  -11.3393  -27.1161 C   0  0  0  0  0  0  0  0  0  0  0  0
   -4.9713  -11.9040  -27.1559 C   0  0  0  0  0  0  0  0  0  0  0  0
   -4.1012  -10.7965  -26.5227 C   0  0  0  0  0  0  0  0  0  0  0  0
   -8.3339   -8.7673  -27.0267 N   0  0  0  0  0  0  0  0  0  0  0  0
   -9.4980   -8.0185  -26.6626 C   0  0  2  0  0  0  0  0  0  0  0  0
  -10.4417   -7.7989  -27.8318 C   0  0  0  0  0  0  0  0  0  0  0  0
   -9.9492   -7.7350  -28.9634 O   0  0  0  0  0  0  0  0  0  0  0  0
   -9.1972   -6.8104  -25.8840 C   0  0  0  0  0  0  0  0  0  0  0  0
   -7.9771   -6.2840  -26.3837 O   0  0  0  0  0  0  0  0  0  0  0  0
  -11.8022   -7.6931  -27.5416 N   0  0  0  0  0  0  0  0  0  0  0  0
  -12.6210   -8.8586  -27.2360 C   0  0  2  0  0  0  0  0  0  0  0  0
  -14.0008   -8.4262  -26.8827 C   0  0  0  0  0  0  0  0  0  0  0  0
  -14.6459   -9.0589  -26.0025 O   0  0  0  0  0  0  0  0  0  0  0  0
  -11.9516   -9.7633  -26.2873 C   0  0  0  0  0  0  0  0  0  0  0  0
  -11.9875  -11.2207  -26.5530 C   0  0  0  0  0  0  0  0  0  0  0  0
  -12.4119  -11.6880  -27.8897 C   0  0  0  0  0  0  0  0  0  0  0  0
  -11.3528  -12.4793  -28.5352 N   0  0  0  0  0  0  0  0  0  0  0  0
  -10.8956  -12.2144  -29.8245 C   0  0  0  0  0  0  0  0  0  0  0  0
  -11.6663  -12.0652  -30.8308 N   0  0  0  0  0  0  0  0  0  0  0  0
   -9.4811  -12.0592  -30.1379 N   0  0  0  0  0  0  0  0  0  0  0  0
  -14.6331   -7.3377  -27.4925 N   0  0  0  0  0  0  0  0  0  0  0  0
  -15.0731   -6.1060  -26.8732 C   0  0  2  0  0  0  0  0  0  0  0  0
  -16.4244   -5.7979  -27.3505 C   0  0  0  0  0  0  0  0  0  0  0  0
  -16.7558   -4.5926  -27.4360 O   0  0  0  0  0  0  0  0  0  0  0  0
  -14.1808   -4.9434  -27.4289 C   0  0  0  0  0  0  0  0  0  0  0  0
  -17.4102   -6.7851  -27.7216 N   0  0  0  0  0  0  0  0  0  0  0  0
  -18.0332   -6.5753  -29.0435 C   0  0  2  0  0  0  0  0  0  0  0  0
  -18.7930   -5.2475  -28.9163 C   0  0  0  0  0  0  0  0  0  0  0  0
  -18.6267   -4.4814  -27.9748 O   0  0  0  0  0  0  0  0  0  0  0  0
  -18.9577   -7.6821  -29.4187 C   0  0  0  0  0  0  0  0  0  0  0  0
  -18.2112   -8.8474  -29.5799 O   0  0  0  0  0  0  0  0  0  0  0  0
  -19.7194   -4.9396  -29.9512 N   0  0  0  0  0  0  0  0  0  0  0  0
  -21.1871   -4.8877  -29.7097 C   0  0  2  0  0  0  0  0  0  0  0  0
  -21.5532   -6.2411  -29.3499 C   0  0  0  0  0  0  0  0  0  0  0  0
  -20.7118   -7.1657  -29.7265 O   0  0  0  0  0  0  0  0  0  0  0  0
  -21.8339   -4.3353  -30.9759 C   0  0  2  0  0  0  0  0  0  0  0  0
  -22.0659   -2.8776  -30.9037 C   0  0  0  0  0  0  0  0  0  0  0  0
  -23.0506   -5.1332  -31.3346 C   0  0  0  0  0  0  0  0  0  0  0  0
  -21.0464   -2.0633  -31.6800 C   0  0  0  0  0  0  0  0  0  0  0  0
  -22.6696   -6.7499  -28.6498 N   0  0  0  0  0  0  0  0  0  0  0  0
  -23.6085   -7.6328  -29.2769 C   0  0  2  0  0  0  0  0  0  0  0  0
  -24.6754   -8.1403  -28.3420 C   0  0  0  0  0  0  0  0  0  0  0  0
  -24.3552   -8.4811  -27.1841 O   0  0  0  0  0  0  0  0  0  0  0  0
  -23.0819   -8.7478  -30.0852 C   0  0  0  0  0  0  0  0  0  0  0  0
  -22.1487   -9.6651  -29.3588 C   0  0  1  0  0  0  0  0  0  0  0  0
  -21.0999  -10.2861  -30.2828 C   0  0  0  0  0  0  0  0  0  0  0  0
  -21.3925   -8.9170  -28.3041 C   0  0  0  0  0  0  0  0  0  0  0  0
  -26.0118   -8.2490  -28.7579 N   0  0  0  0  0  0  0  0  0  0  0  0
  -26.5285   -7.9728  -30.0729 C   0  0  2  0  0  0  0  0  0  0  0  0
  -26.9224   -9.1611  -30.8485 C   0  0  0  0  0  0  0  0  0  0  0  0
  -26.4790   -9.3152  -32.0022 O   0  0  0  0  0  0  0  0  0  0  0  0
  -25.6171   -7.0491  -30.8761 C   0  0  0  0  0  0  0  0  0  0  0  0
  -26.2126   -6.8089  -32.1314 O   0  0  0  0  0  0  0  0  0  0  0  0
  -27.7924  -10.1154  -30.2834 N   0  0  0  0  0  0  0  0  0  0  0  0
  -29.2360   -9.9123  -30.2486 C   0  0  0  0  0  0  0  0  0  0  0  0
  -29.7684  -10.1877  -28.8888 C   0  0  0  0  0  0  0  0  0  0  0  0
  -29.5867   -9.2989  -27.8179 O   0  0  0  0  0  0  0  0  0  0  0  0
  -30.4113  -11.2299  -28.5944 O   0  0  0  0  0  0  0  0  0  0  0  0
  -11.2935  -11.7252  -31.7725 H   0  0  0  0  0  0  0  0  0  0  0  0
  1  2  2  0
  1  3  1  0
  1 10  1  0
  3  4  2  0
  3  9  1  0
  4  5  1  0
  4  6  1  0
  5  7  2  0
  7  8  1  0
  8  9  2  0
 10 11  1  0
 11 12  1  0
 11 14  1  6
 12 13  2  0
 12 15  1  0
 16 15  1  6
 16 17  1  0
 16 19  1  0
 17 18  2  0
 17 22  1  0
 19 20  1  0
 19 21  1  1
 23 22  1  1
 23 24  1  0
 23 26  1  0
 24 25  2  0
 24 29  1  0
 26 27  1  0
 26 28  1  1
 29 30  1  0
 29 35  1  0
 30 31  1  6
 30 33  1  0
 31 32  2  0
 31 36  1  0
 33 34  1  0
 34 35  1  0
 36 37  1  0
 37 38  1  0
 37 40  1  6
 38 39  2  0
 38 44  1  0
 40 41  1  0
 41 42  1  6
 41 43  1  0
 44 45  1  0
 45 46  1  0
 45 48  1  6
 46 47  2  0
 46 50  1  0
 48 49  1  0
 50 51  1  0
 51 52  1  0
 52 53  2  0
 52 54  1  0
 54 55  1  0
 54 60  1  0
 55 56  1  1
 55 58  1  0
 56 57  2  0
 56 61  1  0
 58 59  1  0
 59 60  1  0
 61 62  1  0
 62 63  1  0
 62 65  1  6
 63 64  2  0
 63 67  1  0
 65 66  1  0
 67 68  1  0
 68 69  1  0
 68 71  1  1
 69 70  2  0
 69 78  1  0
 71 72  1  0
 72 73  1  0
 73 74  1  0
 74 75  1  0
 75 76  2  0
 75 77  1  0
 78 79  1  0
 79 80  1  0
 79 82  1  6
 80 81  2  0
 80 83  1  0
 83 84  1  0
 84 85  1  0
 84 87  1  1
 85 86  2  0
 85 89  1  0
 87 88  1  0
 90 89  1  6
 90 91  1  0
 90 93  1  0
 91 92  2  0
 91 97  1  0
 93 94  1  0
 93 95  1  1
 94 96  1  0
 97 98  1  0
 98 99  1  0
 98101  1  1
 99100  2  0
 99105  1  0
101102  1  0
102103  1  6
102104  1  0
105106  1  0
106107  1  0
106109  1  6
107108  2  0
107111  1  0
109110  1  0
111112  1  0
112113  1  0
113114  1  0
113115  2  0
 76116  1  0
M  END
$$$$
