
     RDKit          3D

 16 15  0  0  0  0  0  0  0  0999 V2000
  -25.4165  -39.8800   35.5977 C   0  0  0  0  0  0  0  0  0  0  0  0
  -26.1801  -38.8204   36.3750 C   0  0  0  0  0  0  0  0  0  0  0  0
  -28.3496  -39.1688   37.3437 C   0  0  0  0  0  0  0  0  0  0  0  0
  -29.8449  -39.2773   37.0810 C   0  0  0  0  0  0  0  0  0  0  0  0
  -30.5901  -39.5485   38.3556 C   0  0  0  0  0  0  0  0  0  0  0  0
  -18.7209  -42.9418   35.0994 C   0  0  0  0  0  0  0  0  0  0  0  0
  -20.1290  -41.7048   33.7057 C   0  0  0  0  0  0  0  0  0  0  0  0
  -20.8603  -40.4427   33.9861 C   0  0  2  0  0  0  0  0  0  0  0  0
  -21.6656  -40.4268   35.2463 C   0  0  0  0  0  0  0  0  0  0  0  0
  -23.1336  -40.6401   34.9900 C   0  0  0  0  0  0  0  0  0  0  0  0
  -23.9481  -39.5807   35.6793 C   0  0  0  0  0  0  0  0  0  0  0  0
  -27.6024  -38.9804   36.1386 N   0  0  0  0  0  4  0  0  0  0  0  0
  -32.0160  -39.6893   38.1363 N   0  0  0  0  0  4  0  0  0  0  0  0
  -18.9074  -41.8647   34.2869 O   0  0  0  0  0  0  0  0  0  0  0  0
  -21.7583  -40.2307   32.9081 O   0  0  0  0  0  0  0  0  0  0  0  0
  -20.0564  -39.3004   33.9880 O   0  0  0  0  0  0  0  0  0  0  0  0
  1  2  1  0
 11  1  1  0
  2 12  1  0
  3  4  1  0
 12  3  1  0
  4  5  1  0
  5 13  1  0
 14  6  1  0
  8  7  1  0
  7 14  1  0
  9  8  1  0
  8 15  1  6
  8 16  1  0
 10  9  1  0
 10 11  1  0
M  CHG  2  12   1  13   1
M  END
$$$$
