
     RDKit          3D

 16 15  0  0  0  0  0  0  0  0999 V2000
  -25.2465  -40.0878   35.6196 C   0  0  0  0  0  0  0  0  0  0  0  0
  -26.2669  -38.9948   35.8915 C   0  0  0  0  0  0  0  0  0  0  0  0
  -28.5174  -38.6289   36.6452 C   0  0  0  0  0  0  0  0  0  0  0  0
  -29.7787  -39.2684   37.2080 C   0  0  0  0  0  0  0  0  0  0  0  0
  -30.8329  -38.2304   37.4622 C   0  0  0  0  0  0  0  0  0  0  0  0
  -17.7821  -41.4967   35.5781 C   0  0  0  0  0  0  0  0  0  0  0  0
  -19.7890  -40.4376   35.0252 C   0  0  0  0  0  0  0  0  0  0  0  0
  -20.9023  -40.3768   34.0438 C   0  0  2  0  0  0  0  0  0  0  0  0
  -22.1794  -41.0269   34.4719 C   0  0  0  0  0  0  0  0  0  0  0  0
  -23.3926  -40.2830   33.9812 C   0  0  0  0  0  0  0  0  0  0  0  0
  -23.9902  -39.4608   35.0892 C   0  0  0  0  0  0  0  0  0  0  0  0
  -27.4850  -39.5901   36.4078 N   0  0  0  0  0  4  0  0  0  0  0  0
  -30.9765  -37.9306   38.8731 N   0  0  0  0  0  4  0  0  0  0  0  0
  -18.6272  -41.0230   34.6209 O   0  0  0  0  0  0  0  0  0  0  0  0
  -20.4626  -41.0416   32.8699 O   0  0  0  0  0  0  0  0  0  0  0  0
  -21.2143  -39.0873   33.6070 O   0  0  0  0  0  0  0  0  0  0  0  0
  1  2  1  0
 11  1  1  0
  2 12  1  0
  3  4  1  0
 12  3  1  0
  4  5  1  0
  5 13  1  0
 14  6  1  0
  8  7  1  0
  7 14  1  0
  9  8  1  0
  8 15  1  6
  8 16  1  0
 10  9  1  0
 10 11  1  0
M  CHG  2  12   1  13   1
M  END
$$$$
