
     RDKit          3D

 16 15  0  0  0  0  0  0  0  0999 V2000
  -25.1600  -39.6281   36.3463 C   0  0  0  0  0  0  0  0  0  0  0  0
  -26.4303  -38.8682   36.0018 C   0  0  0  0  0  0  0  0  0  0  0  0
  -28.7673  -39.3929   36.1752 C   0  0  0  0  0  0  0  0  0  0  0  0
  -29.8823  -39.8997   37.0788 C   0  0  0  0  0  0  0  0  0  0  0  0
  -31.1689  -40.0256   36.3156 C   0  0  0  0  0  0  0  0  0  0  0  0
  -19.2920  -43.7136   34.4346 C   0  0  0  0  0  0  0  0  0  0  0  0
  -19.9878  -41.5238   34.8537 C   0  0  0  0  0  0  0  0  0  0  0  0
  -20.6807  -40.3283   34.3089 C   0  0  2  0  0  0  0  0  0  0  0  0
  -22.1642  -40.4501   34.1624 C   0  0  0  0  0  0  0  0  0  0  0  0
  -22.9045  -39.8775   35.3414 C   0  0  0  0  0  0  0  0  0  0  0  0
  -24.3861  -39.8810   35.0854 C   0  0  0  0  0  0  0  0  0  0  0  0
  -27.5110  -39.3233   36.8559 N   0  0  0  0  0  4  0  0  0  0  0  0
  -32.0117  -38.8561   36.4676 N   0  0  0  0  0  4  0  0  0  0  0  0
  -20.1858  -42.7100   34.2137 O   0  0  0  0  0  0  0  0  0  0  0  0
  -20.1468  -40.0874   33.0165 O   0  0  0  0  0  0  0  0  0  0  0  0
  -20.4243  -39.1464   35.0078 O   0  0  0  0  0  0  0  0  0  0  0  0
  1  2  1  0
 11  1  1  0
  2 12  1  0
  3  4  1  0
 12  3  1  0
  4  5  1  0
  5 13  1  0
 14  6  1  0
  8  7  1  0
  7 14  1  0
  9  8  1  0
  8 15  1  6
  8 16  1  0
 10  9  1  0
 10 11  1  0
M  CHG  2  12   1  13   1
M  END
$$$$
