
     RDKit          3D

 16 15  0  0  0  0  0  0  0  0999 V2000
   14.2296  -13.3845   17.5279 C   0  0  0  0  0  0  0  0  0  0  0  0
   15.4409  -12.5467   17.1529 C   0  0  0  0  0  0  0  0  0  0  0  0
   16.5290  -10.4582   17.6229 C   0  0  0  0  0  0  0  0  0  0  0  0
   17.6767  -10.4374   18.6224 C   0  0  0  0  0  0  0  0  0  0  0  0
   18.0022   -9.0294   19.0286 C   0  0  0  0  0  0  0  0  0  0  0  0
   14.4216  -20.2934   16.0802 C   0  0  0  0  0  0  0  0  0  0  0  0
   13.2508  -18.2884   16.3340 C   0  0  0  0  0  0  0  0  0  0  0  0
   12.1096  -17.5600   16.9449 C   0  0  2  0  0  0  0  0  0  0  0  0
   12.3773  -16.1385   17.3251 C   0  0  0  0  0  0  0  0  0  0  0  0
   13.8496  -15.8337   17.3995 C   0  0  0  0  0  0  0  0  0  0  0  0
   14.1684  -14.5835   16.6272 C   0  0  0  0  0  0  0  0  0  0  0  0
   15.4980  -11.3735   18.0043 N   0  0  0  0  0  4  0  0  0  0  0  0
   18.1004   -8.8840   20.4674 N   0  0  0  0  0  4  0  0  0  0  0  0
   13.4266  -19.5916   16.6902 O   0  0  0  0  0  0  0  0  0  0  0  0
   11.7555  -18.2549   18.1304 O   0  0  0  0  0  0  0  0  0  0  0  0
   10.9409  -17.5762   16.1800 O   0  0  0  0  0  0  0  0  0  0  0  0
  1  2  1  0
 11  1  1  0
  2 12  1  0
  3  4  1  0
 12  3  1  0
  4  5  1  0
  5 13  1  0
 14  6  1  0
  8  7  1  0
  7 14  1  0
  9  8  1  0
  8 15  1  1
  8 16  1  0
 10  9  1  0
 10 11  1  0
M  CHG  2  12   1  13   1
M  END
$$$$
