
     RDKit          3D

 16 15  0  0  0  0  0  0  0  0999 V2000
  -25.0672  -38.9957   36.1151 C   0  0  0  0  0  0  0  0  0  0  0  0
  -26.5281  -39.2523   35.7837 C   0  0  0  0  0  0  0  0  0  0  0  0
  -28.4798  -39.0458   37.1675 C   0  0  0  0  0  0  0  0  0  0  0  0
  -29.6035  -40.0338   37.4465 C   0  0  0  0  0  0  0  0  0  0  0  0
  -29.9178  -40.0807   38.9136 C   0  0  0  0  0  0  0  0  0  0  0  0
  -19.0920  -43.3576   35.0195 C   0  0  0  0  0  0  0  0  0  0  0  0
  -19.8846  -41.5632   33.7518 C   0  0  0  0  0  0  0  0  0  0  0  0
  -20.7784  -40.4617   34.1923 C   0  0  2  0  0  0  0  0  0  0  0  0
  -21.9277  -40.8675   35.0591 C   0  0  0  0  0  0  0  0  0  0  0  0
  -22.7731  -39.6934   35.4750 C   0  0  0  0  0  0  0  0  0  0  0  0
  -24.2287  -40.0701   35.4863 C   0  0  0  0  0  0  0  0  0  0  0  0
  -27.2218  -39.6994   36.9767 N   0  0  0  0  0  4  0  0  0  0  0  0
  -31.0569  -40.9292   39.2023 N   0  0  0  0  0  4  0  0  0  0  0  0
  -20.0961  -42.7966   34.2903 O   0  0  0  0  0  0  0  0  0  0  0  0
  -21.3201  -39.8687   33.0225 O   0  0  0  0  0  0  0  0  0  0  0  0
  -20.1212  -39.4090   34.8334 O   0  0  0  0  0  0  0  0  0  0  0  0
  1  2  1  0
 11  1  1  0
  2 12  1  0
  3  4  1  0
 12  3  1  0
  4  5  1  0
  5 13  1  0
 14  6  1  0
  8  7  1  0
  7 14  1  0
  9  8  1  0
  8 15  1  6
  8 16  1  0
 10  9  1  0
 10 11  1  0
M  CHG  2  12   1  13   1
M  END
$$$$
