
     RDKit          3D

 16 15  0  0  0  0  0  0  0  0999 V2000
  -25.9554  -39.5699   35.4242 C   0  0  0  0  0  0  0  0  0  0  0  0
  -27.1316  -40.0512   36.2577 C   0  0  0  0  0  0  0  0  0  0  0  0
  -29.3645  -39.1993   36.4925 C   0  0  0  0  0  0  0  0  0  0  0  0
  -30.2236  -37.9908   36.8362 C   0  0  0  0  0  0  0  0  0  0  0  0
  -31.6813  -38.3131   36.6793 C   0  0  0  0  0  0  0  0  0  0  0  0
  -17.8637  -42.1180   34.3247 C   0  0  0  0  0  0  0  0  0  0  0  0
  -20.1507  -41.6469   34.2731 C   0  0  0  0  0  0  0  0  0  0  0  0
  -21.2326  -40.6292   34.2796 C   0  0  2  0  0  0  0  0  0  0  0  0
  -22.4151  -40.9463   35.1386 C   0  0  0  0  0  0  0  0  0  0  0  0
  -23.6098  -40.0933   34.8051 C   0  0  0  0  0  0  0  0  0  0  0  0
  -24.7939  -40.4957   35.6398 C   0  0  0  0  0  0  0  0  0  0  0  0
  -27.9669  -38.9191   36.6119 N   0  0  0  0  0  4  0  0  0  0  0  0
  -32.5319  -37.2117   37.0848 N   0  0  0  0  0  4  0  0  0  0  0  0
  -18.8651  -41.1963   34.2759 O   0  0  0  0  0  0  0  0  0  0  0  0
  -21.7002  -40.5063   32.9455 O   0  0  0  0  0  0  0  0  0  0  0  0
  -20.8079  -39.3403   34.6105 O   0  0  0  0  0  0  0  0  0  0  0  0
  1  2  1  0
 11  1  1  0
  2 12  1  0
  3  4  1  0
 12  3  1  0
  4  5  1  0
  5 13  1  0
 14  6  1  0
  8  7  1  0
  7 14  1  0
  9  8  1  0
  8 15  1  6
  8 16  1  0
 10  9  1  0
 10 11  1  0
M  CHG  2  12   1  13   1
M  END
$$$$
