
     RDKit          3D

 16 15  0  0  0  0  0  0  0  0999 V2000
  -26.1087  -39.7312   36.3697 C   0  0  0  0  0  0  0  0  0  0  0  0
  -27.3307  -38.8430   36.2031 C   0  0  0  0  0  0  0  0  0  0  0  0
  -29.6952  -38.7599   36.6138 C   0  0  0  0  0  0  0  0  0  0  0  0
  -30.9175  -39.5744   37.0129 C   0  0  0  0  0  0  0  0  0  0  0  0
  -30.9976  -39.7160   38.5052 C   0  0  0  0  0  0  0  0  0  0  0  0
  -19.3958  -41.8022   32.3211 C   0  0  0  0  0  0  0  0  0  0  0  0
  -20.8702  -40.4433   33.5190 C   0  0  0  0  0  0  0  0  0  0  0  0
  -21.5146  -40.3247   34.8520 C   0  0  2  0  0  0  0  0  0  0  0  0
  -22.9983  -40.5125   34.8733 C   0  0  0  0  0  0  0  0  0  0  0  0
  -23.6615  -39.7063   35.9578 C   0  0  0  0  0  0  0  0  0  0  0  0
  -25.0040  -39.2088   35.4983 C   0  0  0  0  0  0  0  0  0  0  0  0
  -28.4759  -39.4760   36.8295 N   0  0  0  0  0  4  0  0  0  0  0  0
  -31.3881  -38.4789   39.1519 N   0  0  0  0  0  4  0  0  0  0  0  0
  -20.5009  -41.6889   33.1090 O   0  0  0  0  0  0  0  0  0  0  0  0
  -21.2474  -39.0161   35.3314 O   0  0  0  0  0  0  0  0  0  0  0  0
  -20.9721  -41.1618   35.8297 O   0  0  0  0  0  0  0  0  0  0  0  0
  1  2  1  0
 11  1  1  0
  2 12  1  0
  3  4  1  0
 12  3  1  0
  4  5  1  0
  5 13  1  0
 14  6  1  0
  8  7  1  0
  7 14  1  0
  9  8  1  0
  8 15  1  1
  8 16  1  0
 10  9  1  0
 10 11  1  0
M  CHG  2  12   1  13   1
M  END
$$$$
