
     RDKit          3D

 16 15  0  0  0  0  0  0  0  0999 V2000
  -25.1470  -38.7454   36.2150 C   0  0  0  0  0  0  0  0  0  0  0  0
  -26.4567  -39.3194   36.7298 C   0  0  0  0  0  0  0  0  0  0  0  0
  -28.8394  -39.1088   36.5173 C   0  0  0  0  0  0  0  0  0  0  0  0
  -29.9794  -38.3669   35.8340 C   0  0  0  0  0  0  0  0  0  0  0  0
  -31.1121  -39.3022   35.5248 C   0  0  0  0  0  0  0  0  0  0  0  0
  -19.0037  -43.3125   34.8819 C   0  0  0  0  0  0  0  0  0  0  0  0
  -19.7321  -41.0934   34.9009 C   0  0  0  0  0  0  0  0  0  0  0  0
  -20.7785  -40.1022   34.5422 C   0  0  2  0  0  0  0  0  0  0  0  0
  -22.1838  -40.4968   34.8685 C   0  0  0  0  0  0  0  0  0  0  0  0
  -23.1153  -39.3150   34.9084 C   0  0  0  0  0  0  0  0  0  0  0  0
  -24.4993  -39.7483   35.3054 C   0  0  0  0  0  0  0  0  0  0  0  0
  -27.5618  -38.7336   35.9947 N   0  0  0  0  0  4  0  0  0  0  0  0
  -31.0503  -39.8064   34.1673 N   0  0  0  0  0  4  0  0  0  0  0  0
  -19.9602  -42.3949   34.5692 O   0  0  0  0  0  0  0  0  0  0  0  0
  -20.7090  -39.9094   33.1381 O   0  0  0  0  0  0  0  0  0  0  0  0
  -20.5679  -38.8266   35.0708 O   0  0  0  0  0  0  0  0  0  0  0  0
  1  2  1  0
 11  1  1  0
  2 12  1  0
  3  4  1  0
 12  3  1  0
  4  5  1  0
  5 13  1  0
 14  6  1  0
  8  7  1  0
  7 14  1  0
  9  8  1  0
  8 15  1  6
  8 16  1  0
 10  9  1  0
 10 11  1  0
M  CHG  2  12   1  13   1
M  END
$$$$
