
     RDKit          3D

 16 15  0  0  0  0  0  0  0  0999 V2000
  -25.1944  -39.2693   35.9815 C   0  0  0  0  0  0  0  0  0  0  0  0
  -26.6358  -39.5133   35.5658 C   0  0  0  0  0  0  0  0  0  0  0  0
  -28.8216  -39.1668   36.4978 C   0  0  0  0  0  0  0  0  0  0  0  0
  -29.7394  -39.4615   37.6757 C   0  0  0  0  0  0  0  0  0  0  0  0
  -30.0584  -38.2027   38.4288 C   0  0  0  0  0  0  0  0  0  0  0  0
  -18.8521  -43.5239   34.2753 C   0  0  0  0  0  0  0  0  0  0  0  0
  -19.4869  -41.3132   34.6812 C   0  0  0  0  0  0  0  0  0  0  0  0
  -20.5611  -40.2875   34.6639 C   0  0  2  0  0  0  0  0  0  0  0  0
  -21.8844  -40.7261   35.2057 C   0  0  0  0  0  0  0  0  0  0  0  0
  -22.9617  -39.6978   34.9863 C   0  0  0  0  0  0  0  0  0  0  0  0
  -24.3136  -40.2759   35.3007 C   0  0  0  0  0  0  0  0  0  0  0  0
  -27.4743  -39.5770   36.7479 N   0  0  0  0  0  4  0  0  0  0  0  0
  -30.5396  -38.4740   39.7689 N   0  0  0  0  0  4  0  0  0  0  0  0
  -19.8434  -42.6001   34.4115 O   0  0  0  0  0  0  0  0  0  0  0  0
  -20.7618  -39.9140   33.3097 O   0  0  0  0  0  0  0  0  0  0  0  0
  -20.2238  -39.0905   35.2997 O   0  0  0  0  0  0  0  0  0  0  0  0
  1  2  1  0
 11  1  1  0
  2 12  1  0
  3  4  1  0
 12  3  1  0
  4  5  1  0
  5 13  1  0
 14  6  1  0
  8  7  1  0
  7 14  1  0
  9  8  1  0
  8 15  1  6
  8 16  1  0
 10  9  1  0
 10 11  1  0
M  CHG  2  12   1  13   1
M  END
$$$$
