
     RDKit          3D

 16 15  0  0  0  0  0  0  0  0999 V2000
  -25.1776  -39.5180   36.0430 C   0  0  0  0  0  0  0  0  0  0  0  0
  -26.5500  -39.1208   35.5246 C   0  0  0  0  0  0  0  0  0  0  0  0
  -28.2072  -39.0061   37.2587 C   0  0  0  0  0  0  0  0  0  0  0  0
  -29.3943  -39.7034   37.9078 C   0  0  0  0  0  0  0  0  0  0  0  0
  -30.4613  -38.7110   38.2686 C   0  0  0  0  0  0  0  0  0  0  0  0
  -18.7797  -43.0726   35.5428 C   0  0  0  0  0  0  0  0  0  0  0  0
  -19.7489  -41.5429   34.0678 C   0  0  0  0  0  0  0  0  0  0  0  0
  -20.8031  -40.4968   34.0928 C   0  0  2  0  0  0  0  0  0  0  0  0
  -22.0436  -40.8451   34.8523 C   0  0  0  0  0  0  0  0  0  0  0  0
  -22.8236  -39.6254   35.2646 C   0  0  0  0  0  0  0  0  0  0  0  0
  -24.2688  -39.7678   34.8750 C   0  0  0  0  0  0  0  0  0  0  0  0
  -27.5715  -39.8268   36.2746 N   0  0  0  0  0  4  0  0  0  0  0  0
  -30.6130  -38.5680   39.7030 N   0  0  0  0  0  4  0  0  0  0  0  0
  -19.0732  -41.7809   35.2265 O   0  0  0  0  0  0  0  0  0  0  0  0
  -21.1851  -40.2548   32.7478 O   0  0  0  0  0  0  0  0  0  0  0  0
  -20.3669  -39.2515   34.5512 O   0  0  0  0  0  0  0  0  0  0  0  0
  1  2  1  0
 11  1  1  0
  2 12  1  0
  3  4  1  0
 12  3  1  0
  4  5  1  0
  5 13  1  0
 14  6  1  0
  8  7  1  0
  7 14  1  0
  9  8  1  0
  8 15  1  6
  8 16  1  0
 10  9  1  0
 10 11  1  0
M  CHG  2  12   1  13   1
M  END
$$$$
