
     RDKit          3D

 16 15  0  0  0  0  0  0  0  0999 V2000
  -25.1953  -39.2666   36.3548 C   0  0  0  0  0  0  0  0  0  0  0  0
  -26.6419  -39.6248   36.0570 C   0  0  0  0  0  0  0  0  0  0  0  0
  -28.5072  -38.9304   37.4007 C   0  0  0  0  0  0  0  0  0  0  0  0
  -29.3790  -37.7631   37.8410 C   0  0  0  0  0  0  0  0  0  0  0  0
  -30.4289  -38.2204   38.8116 C   0  0  0  0  0  0  0  0  0  0  0  0
  -18.3108  -42.3675   35.3772 C   0  0  0  0  0  0  0  0  0  0  0  0
  -20.0674  -40.8423   35.1698 C   0  0  0  0  0  0  0  0  0  0  0  0
  -20.8177  -39.9645   34.2356 C   0  0  2  0  0  0  0  0  0  0  0  0
  -22.2799  -40.2526   34.1093 C   0  0  0  0  0  0  0  0  0  0  0  0
  -23.0271  -39.9926   35.3899 C   0  0  0  0  0  0  0  0  0  0  0  0
  -24.3868  -39.4202   35.0996 C   0  0  0  0  0  0  0  0  0  0  0  0
  -27.5031  -38.5305   36.4637 N   0  0  0  0  0  4  0  0  0  0  0  0
  -31.4110  -39.0851   38.1881 N   0  0  0  0  0  4  0  0  0  0  0  0
  -19.3185  -41.8423   34.6266 O   0  0  0  0  0  0  0  0  0  0  0  0
  -20.2414  -40.1317   32.9498 O   0  0  0  0  0  0  0  0  0  0  0  0
  -20.6805  -38.5987   34.4942 O   0  0  0  0  0  0  0  0  0  0  0  0
  1  2  1  0
 11  1  1  0
  2 12  1  0
  3  4  1  0
 12  3  1  0
  4  5  1  0
  5 13  1  0
 14  6  1  0
  8  7  1  0
  7 14  1  0
  9  8  1  0
  8 15  1  6
  8 16  1  0
 10  9  1  0
 10 11  1  0
M  CHG  2  12   1  13   1
M  END
$$$$
