
     RDKit          3D

 16 15  0  0  0  0  0  0  0  0999 V2000
  -24.4330  -39.7609   34.8015 C   0  0  0  0  0  0  0  0  0  0  0  0
  -23.2009  -40.1826   35.5851 C   0  0  0  0  0  0  0  0  0  0  0  0
  -21.4174  -39.9243   33.9979 C   0  0  0  0  0  0  0  0  0  0  0  0
  -19.9489  -40.2347   34.2505 C   0  0  0  0  0  0  0  0  0  0  0  0
  -19.7968  -41.5582   34.9423 C   0  0  0  0  0  0  0  0  0  0  0  0
  -31.5563  -37.3701   37.2855 C   0  0  0  0  0  0  0  0  0  0  0  0
  -29.8308  -38.2411   35.9743 C   0  0  0  0  0  0  0  0  0  0  0  0
  -29.3521  -39.3102   35.0610 C   0  0  2  0  0  0  0  0  0  0  0  0
  -28.1279  -40.0440   35.5080 C   0  0  0  0  0  0  0  0  0  0  0  0
  -26.8598  -39.3398   35.1052 C   0  0  0  0  0  0  0  0  0  0  0  0
  -25.6577  -40.0938   35.6025 C   0  0  0  0  0  0  0  0  0  0  0  0
  -22.0631  -39.3907   35.1574 N   0  0  0  0  0  4  0  0  0  0  0  0
  -18.9720  -42.4794   34.1858 N   0  0  0  0  0  4  0  0  0  0  0  0
  -31.0951  -38.3571   36.4682 O   0  0  0  0  0  0  0  0  0  0  0  0
  -29.0462  -38.6947   33.8197 O   0  0  0  0  0  0  0  0  0  0  0  0
  -30.3184  -40.2655   34.7372 O   0  0  0  0  0  0  0  0  0  0  0  0
  1  2  1  0
 11  1  1  0
  2 12  1  0
  3  4  1  0
 12  3  1  0
  4  5  1  0
  5 13  1  0
 14  6  1  0
  8  7  1  0
  7 14  1  0
  9  8  1  0
  8 15  1  6
  8 16  1  0
 10  9  1  0
 10 11  1  0
M  CHG  2  12   1  13   1
M  END
$$$$
