
     RDKit          3D

 16 15  0  0  0  0  0  0  0  0999 V2000
  -25.1395  -39.7876   36.5972 C   0  0  0  0  0  0  0  0  0  0  0  0
  -26.6285  -39.7074   36.3033 C   0  0  0  0  0  0  0  0  0  0  0  0
  -28.6620  -39.0807   37.4163 C   0  0  0  0  0  0  0  0  0  0  0  0
  -29.4281  -39.0695   38.7314 C   0  0  0  0  0  0  0  0  0  0  0  0
  -30.7580  -38.3930   38.5660 C   0  0  0  0  0  0  0  0  0  0  0  0
  -18.4525  -43.2668   35.3006 C   0  0  0  0  0  0  0  0  0  0  0  0
  -20.0063  -41.5259   35.4024 C   0  0  0  0  0  0  0  0  0  0  0  0
  -20.7955  -40.6590   34.4903 C   0  0  2  0  0  0  0  0  0  0  0  0
  -22.2811  -40.8079   34.5793 C   0  0  0  0  0  0  0  0  0  0  0  0
  -22.8995  -39.8173   35.5293 C   0  0  0  0  0  0  0  0  0  0  0  0
  -24.3830  -39.7254   35.3024 C   0  0  0  0  0  0  0  0  0  0  0  0
  -27.3651  -39.6686   37.5525 N   0  0  0  0  0  4  0  0  0  0  0  0
  -31.0351  -37.4609   39.6409 N   0  0  0  0  0  4  0  0  0  0  0  0
  -18.8176  -42.0051   34.9404 O   0  0  0  0  0  0  0  0  0  0  0  0
  -20.4163  -40.9915   33.1640 O   0  0  0  0  0  0  0  0  0  0  0  0
  -20.5038  -39.2971   34.5955 O   0  0  0  0  0  0  0  0  0  0  0  0
  1  2  1  0
 11  1  1  0
  2 12  1  0
  3  4  1  0
 12  3  1  0
  4  5  1  0
  5 13  1  0
 14  6  1  0
  8  7  1  0
  7 14  1  0
  9  8  1  0
  8 15  1  6
  8 16  1  0
 10  9  1  0
 10 11  1  0
M  CHG  2  12   1  13   1
M  END
$$$$
