
     RDKit          3D

 16 15  0  0  0  0  0  0  0  0999 V2000
  -25.9028  -39.2591   35.8550 C   0  0  0  0  0  0  0  0  0  0  0  0
  -27.2180  -39.7206   36.4609 C   0  0  0  0  0  0  0  0  0  0  0  0
  -29.5929  -39.6799   36.1077 C   0  0  0  0  0  0  0  0  0  0  0  0
  -30.5889  -38.5641   36.3901 C   0  0  0  0  0  0  0  0  0  0  0  0
  -31.5410  -38.3984   35.2414 C   0  0  0  0  0  0  0  0  0  0  0  0
  -18.0327  -41.9582   34.6140 C   0  0  0  0  0  0  0  0  0  0  0  0
  -20.3519  -41.6985   34.7075 C   0  0  0  0  0  0  0  0  0  0  0  0
  -21.4948  -40.8444   34.2945 C   0  0  2  0  0  0  0  0  0  0  0  0
  -22.8159  -41.1907   34.9042 C   0  0  0  0  0  0  0  0  0  0  0  0
  -23.8100  -40.0658   34.7926 C   0  0  0  0  0  0  0  0  0  0  0  0
  -25.1243  -40.4614   35.4066 C   0  0  0  0  0  0  0  0  0  0  0  0
  -28.3207  -39.1749   35.6922 N   0  0  0  0  0  4  0  0  0  0  0  0
  -31.5725  -37.0354   34.7492 N   0  0  0  0  0  4  0  0  0  0  0  0
  -19.1125  -41.1332   34.7042 O   0  0  0  0  0  0  0  0  0  0  0  0
  -21.6304  -40.9775   32.8883 O   0  0  0  0  0  0  0  0  0  0  0  0
  -21.2898  -39.4763   34.4878 O   0  0  0  0  0  0  0  0  0  0  0  0
  1  2  1  0
 11  1  1  0
  2 12  1  0
  3  4  1  0
 12  3  1  0
  4  5  1  0
  5 13  1  0
 14  6  1  0
  8  7  1  0
  7 14  1  0
  9  8  1  0
  8 15  1  6
  8 16  1  0
 10  9  1  0
 10 11  1  0
M  CHG  2  12   1  13   1
M  END
$$$$
