
     RDKit          3D

 16 15  0  0  0  0  0  0  0  0999 V2000
  -25.5877  -39.0447   35.6385 C   0  0  0  0  0  0  0  0  0  0  0  0
  -26.7570  -39.4625   36.5147 C   0  0  0  0  0  0  0  0  0  0  0  0
  -28.8395  -38.6816   37.4203 C   0  0  0  0  0  0  0  0  0  0  0  0
  -29.9577  -39.3606   36.6423 C   0  0  0  0  0  0  0  0  0  0  0  0
  -31.1563  -39.5820   37.5186 C   0  0  0  0  0  0  0  0  0  0  0  0
  -18.6083  -43.0434   34.1275 C   0  0  0  0  0  0  0  0  0  0  0  0
  -20.5030  -41.6895   34.3064 C   0  0  0  0  0  0  0  0  0  0  0  0
  -21.0490  -40.3081   34.3088 C   0  0  2  0  0  0  0  0  0  0  0  0
  -22.1508  -40.0487   35.2863 C   0  0  0  0  0  0  0  0  0  0  0  0
  -23.4841  -39.8687   34.6112 C   0  0  0  0  0  0  0  0  0  0  0  0
  -24.6040  -40.1760   35.5663 C   0  0  0  0  0  0  0  0  0  0  0  0
  -27.7146  -38.3754   36.5915 N   0  0  0  0  0  4  0  0  0  0  0  0
  -31.1032  -40.8569   38.2062 N   0  0  0  0  0  4  0  0  0  0  0  0
  -19.2262  -41.8589   33.8627 O   0  0  0  0  0  0  0  0  0  0  0  0
  -21.5681  -40.0608   33.0116 O   0  0  0  0  0  0  0  0  0  0  0  0
  -20.0880  -39.3100   34.4858 O   0  0  0  0  0  0  0  0  0  0  0  0
  1  2  1  0
 11  1  1  0
  2 12  1  0
  3  4  1  0
 12  3  1  0
  4  5  1  0
  5 13  1  0
 14  6  1  0
  8  7  1  0
  7 14  1  0
  9  8  1  0
  8 15  1  6
  8 16  1  0
 10  9  1  0
 10 11  1  0
M  CHG  2  12   1  13   1
M  END
$$$$
