
     RDKit          3D

 16 15  0  0  0  0  0  0  0  0999 V2000
  -25.2934  -39.5638   35.1090 C   0  0  0  0  0  0  0  0  0  0  0  0
  -26.2351  -39.8843   36.2581 C   0  0  0  0  0  0  0  0  0  0  0  0
  -28.4058  -39.3097   37.1094 C   0  0  0  0  0  0  0  0  0  0  0  0
  -29.5183  -38.2712   37.1296 C   0  0  0  0  0  0  0  0  0  0  0  0
  -30.6449  -38.7166   38.0160 C   0  0  0  0  0  0  0  0  0  0  0  0
  -18.5709  -43.2390   34.4287 C   0  0  0  0  0  0  0  0  0  0  0  0
  -19.2345  -40.9997   34.4420 C   0  0  0  0  0  0  0  0  0  0  0  0
  -20.4254  -40.1162   34.3560 C   0  0  2  0  0  0  0  0  0  0  0  0
  -21.6709  -40.6438   34.9942 C   0  0  0  0  0  0  0  0  0  0  0  0
  -22.9030  -39.9090   34.5379 C   0  0  0  0  0  0  0  0  0  0  0  0
  -24.1354  -40.5179   35.1471 C   0  0  0  0  0  0  0  0  0  0  0  0
  -27.3027  -38.9028   36.2946 N   0  0  0  0  0  4  0  0  0  0  0  0
  -30.3595  -38.4905   39.4189 N   0  0  0  0  0  4  0  0  0  0  0  0
  -19.3364  -42.2450   33.8990 O   0  0  0  0  0  0  0  0  0  0  0  0
  -20.7055  -39.9235   32.9784 O   0  0  0  0  0  0  0  0  0  0  0  0
  -20.2193  -38.8239   34.8445 O   0  0  0  0  0  0  0  0  0  0  0  0
  1  2  1  0
 11  1  1  0
  2 12  1  0
  3  4  1  0
 12  3  1  0
  4  5  1  0
  5 13  1  0
 14  6  1  0
  8  7  1  0
  7 14  1  0
  9  8  1  0
  8 15  1  6
  8 16  1  0
 10  9  1  0
 10 11  1  0
M  CHG  2  12   1  13   1
M  END
$$$$
