
     RDKit          3D

 16 15  0  0  0  0  0  0  0  0999 V2000
  -25.9372  -39.7263   35.4565 C   0  0  0  0  0  0  0  0  0  0  0  0
  -26.7255  -39.1438   36.6181 C   0  0  0  0  0  0  0  0  0  0  0  0
  -28.9224  -38.7607   35.7273 C   0  0  0  0  0  0  0  0  0  0  0  0
  -30.3773  -39.2079   35.7264 C   0  0  0  0  0  0  0  0  0  0  0  0
  -31.0666  -38.7762   36.9881 C   0  0  0  0  0  0  0  0  0  0  0  0
  -18.8181  -42.6571   34.2104 C   0  0  0  0  0  0  0  0  0  0  0  0
  -19.9328  -40.9120   35.2907 C   0  0  0  0  0  0  0  0  0  0  0  0
  -21.0856  -40.2407   34.6375 C   0  0  2  0  0  0  0  0  0  0  0  0
  -22.4282  -40.8342   34.9238 C   0  0  0  0  0  0  0  0  0  0  0  0
  -23.5325  -39.8140   34.8489 C   0  0  0  0  0  0  0  0  0  0  0  0
  -24.5516  -40.0606   35.9267 C   0  0  0  0  0  0  0  0  0  0  0  0
  -28.1007  -39.5996   36.5442 N   0  0  0  0  0  4  0  0  0  0  0  0
  -31.4095  -39.9004   37.8363 N   0  0  0  0  0  4  0  0  0  0  0  0
  -19.7837  -42.2497   35.0801 O   0  0  0  0  0  0  0  0  0  0  0  0
  -20.8781  -40.3215   33.2361 O   0  0  0  0  0  0  0  0  0  0  0  0
  -21.1711  -38.8695   34.8895 O   0  0  0  0  0  0  0  0  0  0  0  0
  1  2  1  0
 11  1  1  0
  2 12  1  0
  3  4  1  0
 12  3  1  0
  4  5  1  0
  5 13  1  0
 14  6  1  0
  8  7  1  0
  7 14  1  0
  9  8  1  0
  8 15  1  6
  8 16  1  0
 10  9  1  0
 10 11  1  0
M  CHG  2  12   1  13   1
M  END
$$$$
