
     RDKit          3D

 16 15  0  0  0  0  0  0  0  0999 V2000
  -25.3452  -39.2935   35.6817 C   0  0  0  0  0  0  0  0  0  0  0  0
  -26.6756  -39.8122   36.2022 C   0  0  0  0  0  0  0  0  0  0  0  0
  -28.9030  -39.1209   36.7744 C   0  0  0  0  0  0  0  0  0  0  0  0
  -29.3318  -38.3495   38.0145 C   0  0  0  0  0  0  0  0  0  0  0  0
  -30.8077  -38.4945   38.2466 C   0  0  0  0  0  0  0  0  0  0  0  0
  -18.7970  -43.1117   33.5008 C   0  0  0  0  0  0  0  0  0  0  0  0
  -20.3574  -41.6109   34.3769 C   0  0  0  0  0  0  0  0  0  0  0  0
  -20.8543  -40.2147   34.2760 C   0  0  2  0  0  0  0  0  0  0  0  0
  -21.9880  -39.8633   35.1860 C   0  0  0  0  0  0  0  0  0  0  0  0
  -23.3234  -40.2613   34.6164 C   0  0  0  0  0  0  0  0  0  0  0  0
  -24.3412  -40.4087   35.7133 C   0  0  0  0  0  0  0  0  0  0  0  0
  -27.6158  -38.7120   36.3030 N   0  0  0  0  0  4  0  0  0  0  0  0
  -31.2149  -37.9587   39.5304 N   0  0  0  0  0  4  0  0  0  0  0  0
  -19.0889  -41.8583   33.9463 O   0  0  0  0  0  0  0  0  0  0  0  0
  -21.3073  -40.0265   32.9445 O   0  0  0  0  0  0  0  0  0  0  0  0
  -19.8676  -39.2397   34.4399 O   0  0  0  0  0  0  0  0  0  0  0  0
  1  2  1  0
 11  1  1  0
  2 12  1  0
  3  4  1  0
 12  3  1  0
  4  5  1  0
  5 13  1  0
 14  6  1  0
  8  7  1  0
  7 14  1  0
  9  8  1  0
  8 15  1  6
  8 16  1  0
 10  9  1  0
 10 11  1  0
M  CHG  2  12   1  13   1
M  END
$$$$
