
     RDKit          3D

 16 15  0  0  0  0  0  0  0  0999 V2000
  -25.4591  -39.9764   36.0151 C   0  0  0  0  0  0  0  0  0  0  0  0
  -26.8236  -39.3288   35.8457 C   0  0  0  0  0  0  0  0  0  0  0  0
  -29.0571  -39.3220   36.7279 C   0  0  0  0  0  0  0  0  0  0  0  0
  -30.0071  -39.9119   37.7604 C   0  0  0  0  0  0  0  0  0  0  0  0
  -31.3649  -39.2804   37.6553 C   0  0  0  0  0  0  0  0  0  0  0  0
  -18.7971  -42.9133   33.8757 C   0  0  0  0  0  0  0  0  0  0  0  0
  -20.5690  -41.7228   34.8234 C   0  0  0  0  0  0  0  0  0  0  0  0
  -21.0696  -40.5057   34.1347 C   0  0  2  0  0  0  0  0  0  0  0  0
  -22.2659  -39.8564   34.7545 C   0  0  0  0  0  0  0  0  0  0  0  0
  -23.4731  -40.7556   34.7471 C   0  0  0  0  0  0  0  0  0  0  0  0
  -24.7362  -39.9413   34.7003 C   0  0  0  0  0  0  0  0  0  0  0  0
  -27.7488  -39.8946   36.8092 N   0  0  0  0  0  4  0  0  0  0  0  0
  -31.4111  -37.9749   38.2833 N   0  0  0  0  0  4  0  0  0  0  0  0
  -19.2315  -41.9740   34.7611 O   0  0  0  0  0  0  0  0  0  0  0  0
  -21.4319  -40.8891   32.8174 O   0  0  0  0  0  0  0  0  0  0  0  0
  -20.1047  -39.5135   33.9461 O   0  0  0  0  0  0  0  0  0  0  0  0
  1  2  1  0
 11  1  1  0
  2 12  1  0
  3  4  1  0
 12  3  1  0
  4  5  1  0
  5 13  1  0
 14  6  1  0
  8  7  1  0
  7 14  1  0
  9  8  1  0
  8 15  1  6
  8 16  1  0
 10  9  1  0
 10 11  1  0
M  CHG  2  12   1  13   1
M  END
$$$$
