
     RDKit          3D

 23 25  0  0  0  0  0  0  0  0999 V2000
   -5.9636  -10.6437   28.8408 C   0  0  0  0  0  0  0  0  0  0  0  0
   -7.0719  -12.1268   27.7291 N   0  0  0  0  0  0  0  0  0  0  0  0
   -7.9767  -11.3751   28.3808 C   0  0  0  0  0  0  0  0  0  0  0  0
  -10.9259   -6.1692   30.0389 C   0  0  0  0  0  0  0  0  0  0  0  0
  -11.9467   -4.1173   29.2437 C   0  0  0  0  0  0  0  0  0  0  0  0
  -11.7341   -1.4696   28.5464 C   0  0  0  0  0  0  0  0  0  0  0  0
  -10.6940   -2.3214   28.2331 C   0  0  0  0  0  0  0  0  0  0  0  0
  -10.8226   -3.6705   28.5981 C   0  0  0  0  0  0  0  0  0  0  0  0
  -15.6423   -7.9672   30.5576 C   0  0  0  0  0  0  0  0  0  0  0  0
  -14.4721   -8.2671   29.8648 O   0  0  0  0  0  0  0  0  0  0  0  0
  -13.2902   -7.5423   29.9156 C   0  0  0  0  0  0  0  0  0  0  0  0
  -12.1284   -8.1696   30.3417 C   0  0  0  0  0  0  0  0  0  0  0  0
  -10.9263   -7.4969   30.4115 C   0  0  0  0  0  0  0  0  0  0  0  0
   -9.6677   -8.1102   30.8522 C   0  0  0  0  0  0  0  0  0  0  0  0
   -9.2356   -9.1780   30.0408 O   0  0  0  0  0  0  0  0  0  0  0  0
   -7.8573   -9.3724   29.9664 C   0  0  0  0  0  0  0  0  0  0  0  0
   -7.2964  -10.4170   29.1010 C   0  0  0  0  0  0  0  0  0  0  0  0
   -5.8474  -11.6931   28.0001 N   0  0  0  0  0  0  0  0  0  0  0  0
   -7.0683   -8.6607   30.6355 O   0  0  0  0  0  0  0  0  0  0  0  0
  -12.0606   -5.5109   29.6100 C   0  0  0  0  0  0  0  0  0  0  0  0
  -12.9506   -3.2264   29.5305 C   0  0  0  0  0  0  0  0  0  0  0  0
  -12.8384   -1.9074   29.1801 N   0  0  0  0  0  0  0  0  0  0  0  0
  -13.2469   -6.2135   29.5520 C   0  0  0  0  0  0  0  0  0  0  0  0
 17  1  1  0
  1 18  2  0
  3  2  1  0
  2 18  1  0
 17  3  2  0
 13  4  2  0
  4 20  1  0
  5  8  2  0
 20  5  1  0
  5 21  1  0
  7  6  2  0
  6 22  1  0
  8  7  1  0
 10  9  1  0
 11 10  1  0
 12 11  2  0
 11 23  1  0
 13 12  1  0
 14 13  1  0
 15 14  1  0
 16 15  1  0
 16 17  1  0
 16 19  2  0
 20 23  2  0
 21 22  2  0
M  END
$$$$
