
     RDKit          3D

 23 25  0  0  0  0  0  0  0  0999 V2000
  -17.6522  -17.3289   14.2516 C   0  0  0  0  0  0  0  0  0  0  0  0
  -17.6828  -15.6987   12.8355 N   0  0  0  0  0  0  0  0  0  0  0  0
  -18.8642  -16.3313   12.7236 C   0  0  0  0  0  0  0  0  0  0  0  0
  -23.2475  -20.4046   11.5989 C   0  0  0  0  0  0  0  0  0  0  0  0
  -24.1904  -21.7153    9.7884 C   0  0  0  0  0  0  0  0  0  0  0  0
  -24.0901  -23.9055    8.1346 C   0  0  0  0  0  0  0  0  0  0  0  0
  -23.6381  -24.0357    9.4324 C   0  0  0  0  0  0  0  0  0  0  0  0
  -23.6981  -22.9046   10.2611 C   0  0  0  0  0  0  0  0  0  0  0  0
  -27.2961  -17.5361   10.5017 C   0  0  0  0  0  0  0  0  0  0  0  0
  -26.2352  -17.5687   11.4032 O   0  0  0  0  0  0  0  0  0  0  0  0
  -25.2403  -18.5344   11.4515 C   0  0  0  0  0  0  0  0  0  0  0  0
  -24.2204  -18.4105   12.3839 C   0  0  0  0  0  0  0  0  0  0  0  0
  -23.2064  -19.3410   12.4757 C   0  0  0  0  0  0  0  0  0  0  0  0
  -22.1052  -19.2613   13.4426 C   0  0  0  0  0  0  0  0  0  0  0  0
  -21.1316  -18.2938   13.1241 O   0  0  0  0  0  0  0  0  0  0  0  0
  -19.9470  -18.3521   13.8564 C   0  0  0  0  0  0  0  0  0  0  0  0
  -18.8736  -17.3796   13.6183 C   0  0  0  0  0  0  0  0  0  0  0  0
  -16.9389  -16.2945   13.7590 N   0  0  0  0  0  0  0  0  0  0  0  0
  -19.7729  -19.2346   14.7324 O   0  0  0  0  0  0  0  0  0  0  0  0
  -24.2451  -20.5621   10.6581 C   0  0  0  0  0  0  0  0  0  0  0  0
  -24.6264  -21.6424    8.4891 C   0  0  0  0  0  0  0  0  0  0  0  0
  -24.5738  -22.7382    7.6695 N   0  0  0  0  0  0  0  0  0  0  0  0
  -25.2444  -19.6128   10.5932 C   0  0  0  0  0  0  0  0  0  0  0  0
 17  1  1  0
  1 18  2  0
  3  2  1  0
  2 18  1  0
 17  3  2  0
 13  4  2  0
  4 20  1  0
  5  8  2  0
 20  5  1  0
  5 21  1  0
  7  6  2  0
  6 22  1  0
  8  7  1  0
 10  9  1  0
 11 10  1  0
 12 11  2  0
 11 23  1  0
 13 12  1  0
 14 13  1  0
 15 14  1  0
 16 15  1  0
 16 17  1  0
 16 19  2  0
 20 23  2  0
 21 22  2  0
M  END
$$$$
