
     RDKit          3D

 23 25  0  0  0  0  0  0  0  0999 V2000
  -21.6652  -24.5188    6.6142 C   0  0  0  0  0  0  0  0  0  0  0  0
  -22.1299  -22.9876    5.1018 N   0  0  0  0  0  0  0  0  0  0  0  0
  -22.5615  -22.5146    6.2757 C   0  0  0  0  0  0  0  0  0  0  0  0
  -21.8048  -20.0926   11.8363 C   0  0  0  0  0  0  0  0  0  0  0  0
  -20.8352  -18.0912   12.9468 C   0  0  0  0  0  0  0  0  0  0  0  0
  -18.6631  -16.7484   14.1348 C   0  0  0  0  0  0  0  0  0  0  0  0
  -19.9705  -16.4882   14.5119 C   0  0  0  0  0  0  0  0  0  0  0  0
  -21.0409  -17.1451   13.9314 C   0  0  0  0  0  0  0  0  0  0  0  0
  -25.4999  -16.8636   12.1653 C   0  0  0  0  0  0  0  0  0  0  0  0
  -25.4514  -18.1331   11.5364 O   0  0  0  0  0  0  0  0  0  0  0  0
  -24.2554  -18.8284   11.6133 C   0  0  0  0  0  0  0  0  0  0  0  0
  -24.0642  -20.1123   11.1464 C   0  0  0  0  0  0  0  0  0  0  0  0
  -22.8518  -20.7601   11.2475 C   0  0  0  0  0  0  0  0  0  0  0  0
  -22.6984  -22.1356   10.7304 C   0  0  0  0  0  0  0  0  0  0  0  0
  -22.8063  -22.2067    9.3311 O   0  0  0  0  0  0  0  0  0  0  0  0
  -22.5576  -23.4005    8.6629 C   0  0  0  0  0  0  0  0  0  0  0  0
  -22.2799  -23.4586    7.2366 C   0  0  0  0  0  0  0  0  0  0  0  0
  -21.5974  -24.1819    5.3123 N   0  0  0  0  0  0  0  0  0  0  0  0
  -22.5854  -24.4450    9.3678 O   0  0  0  0  0  0  0  0  0  0  0  0
  -21.9450  -18.7930   12.3251 C   0  0  0  0  0  0  0  0  0  0  0  0
  -19.5114  -18.3288   12.5913 C   0  0  0  0  0  0  0  0  0  0  0  0
  -18.4933  -17.6743   13.1738 N   0  0  0  0  0  0  0  0  0  0  0  0
  -23.1822  -18.1932   12.1968 C   0  0  0  0  0  0  0  0  0  0  0  0
 17  1  1  0
  1 18  2  0
  3  2  1  0
  2 18  1  0
 17  3  2  0
 13  4  2  0
  4 20  1  0
  5  8  2  0
 20  5  1  0
  5 21  1  0
  7  6  2  0
  6 22  1  0
  8  7  1  0
  9 10  1  1
 11 10  1  0
 12 11  2  0
 11 23  1  0
 13 12  1  0
 14 13  1  0
 14 15  1  6
 16 15  1  0
 16 17  1  0
 16 19  2  0
 20 23  2  0
 21 22  2  0
M  END
$$$$
