
     RDKit          3D

 23 25  0  0  0  0  0  0  0  0999 V2000
  -17.0341  -17.6558   13.9229 C   0  0  0  0  0  0  0  0  0  0  0  0
  -17.7188  -15.6100   14.0233 N   0  0  0  0  0  0  0  0  0  0  0  0
  -18.7909  -16.3629   13.7201 C   0  0  0  0  0  0  0  0  0  0  0  0
  -23.2269  -20.6207   11.3924 C   0  0  0  0  0  0  0  0  0  0  0  0
  -25.1113  -21.5905   10.2119 C   0  0  0  0  0  0  0  0  0  0  0  0
  -26.2423  -23.7059    8.8748 C   0  0  0  0  0  0  0  0  0  0  0  0
  -26.7297  -22.4365    8.6367 C   0  0  0  0  0  0  0  0  0  0  0  0
  -26.1378  -21.3693    9.3300 C   0  0  0  0  0  0  0  0  0  0  0  0
  -26.4584  -16.7046   11.6024 C   0  0  0  0  0  0  0  0  0  0  0  0
  -25.1814  -17.0474   12.0394 O   0  0  0  0  0  0  0  0  0  0  0  0
  -24.5428  -18.2577   11.8106 C   0  0  0  0  0  0  0  0  0  0  0  0
  -23.2481  -18.4391   12.2751 C   0  0  0  0  0  0  0  0  0  0  0  0
  -22.5664  -19.6214   12.0756 C   0  0  0  0  0  0  0  0  0  0  0  0
  -21.1983  -19.8688   12.5460 C   0  0  0  0  0  0  0  0  0  0  0  0
  -20.5615  -18.7311   13.0803 O   0  0  0  0  0  0  0  0  0  0  0  0
  -19.1992  -18.8594   13.3463 C   0  0  0  0  0  0  0  0  0  0  0  0
  -18.3832  -17.6775   13.6492 C   0  0  0  0  0  0  0  0  0  0  0  0
  -16.6471  -16.3827   14.1488 N   0  0  0  0  0  0  0  0  0  0  0  0
  -18.6425  -19.9848   13.3327 O   0  0  0  0  0  0  0  0  0  0  0  0
  -24.5141  -20.4778   10.9153 C   0  0  0  0  0  0  0  0  0  0  0  0
  -24.6662  -22.8735   10.4102 C   0  0  0  0  0  0  0  0  0  0  0  0
  -25.2343  -23.9240    9.7403 N   0  0  0  0  0  0  0  0  0  0  0  0
  -25.1675  -19.2819   11.1321 C   0  0  0  0  0  0  0  0  0  0  0  0
 17  1  1  0
  1 18  2  0
  3  2  1  0
  2 18  1  0
 17  3  2  0
 13  4  2  0
  4 20  1  0
  5  8  2  0
 20  5  1  0
  5 21  1  0
  7  6  2  0
  6 22  1  0
  8  7  1  0
 10  9  1  0
 11 10  1  0
 12 11  2  0
 11 23  1  0
 13 12  1  0
 14 13  1  0
 15 14  1  0
 16 15  1  0
 16 17  1  0
 16 19  2  0
 20 23  2  0
 21 22  2  0
M  END
$$$$
