
     RDKit          3D

 23 25  0  0  0  0  0  0  0  0999 V2000
  -13.2264   -9.9717   23.5958 C   0  0  0  0  0  0  0  0  0  0  0  0
  -13.0807  -11.8686   22.5738 N   0  0  0  0  0  0  0  0  0  0  0  0
  -13.0144  -12.1320   23.8909 C   0  0  0  0  0  0  0  0  0  0  0  0
  -11.4690   -7.6427   28.7655 C   0  0  0  0  0  0  0  0  0  0  0  0
   -9.7157   -6.1687   29.5647 C   0  0  0  0  0  0  0  0  0  0  0  0
   -7.0921   -5.7520   30.2608 C   0  0  0  0  0  0  0  0  0  0  0  0
   -7.3704   -6.6070   29.2134 C   0  0  0  0  0  0  0  0  0  0  0  0
   -8.7175   -6.8060   28.8736 C   0  0  0  0  0  0  0  0  0  0  0  0
  -14.7981   -4.0573   30.1060 C   0  0  0  0  0  0  0  0  0  0  0  0
  -14.3453   -4.6933   28.9529 O   0  0  0  0  0  0  0  0  0  0  0  0
  -13.3617   -5.6702   28.8976 C   0  0  0  0  0  0  0  0  0  0  0  0
  -13.6972   -6.9458   28.4675 C   0  0  0  0  0  0  0  0  0  0  0  0
  -12.7595   -7.9547   28.3931 C   0  0  0  0  0  0  0  0  0  0  0  0
  -13.0575   -9.3199   27.9440 C   0  0  0  0  0  0  0  0  0  0  0  0
  -13.2318   -9.4397   26.5510 O   0  0  0  0  0  0  0  0  0  0  0  0
  -13.0784  -10.7203   26.0220 C   0  0  0  0  0  0  0  0  0  0  0  0
  -13.1052  -10.9365   24.5704 C   0  0  0  0  0  0  0  0  0  0  0  0
  -13.2093  -10.5618   22.3821 N   0  0  0  0  0  0  0  0  0  0  0  0
  -12.9145  -11.7131   26.7731 O   0  0  0  0  0  0  0  0  0  0  0  0
  -11.0970   -6.3860   29.1984 C   0  0  0  0  0  0  0  0  0  0  0  0
   -9.3817   -5.3292   30.5977 C   0  0  0  0  0  0  0  0  0  0  0  0
   -8.0715   -5.1256   30.9399 N   0  0  0  0  0  0  0  0  0  0  0  0
  -12.0600   -5.3996   29.2609 C   0  0  0  0  0  0  0  0  0  0  0  0
 17  1  1  0
  1 18  2  0
  3  2  1  0
  2 18  1  0
 17  3  2  0
 13  4  2  0
  4 20  1  0
  5  8  2  0
 20  5  1  0
  5 21  1  0
  7  6  2  0
  6 22  1  0
  8  7  1  0
 10  9  1  0
 11 10  1  0
 12 11  2  0
 11 23  1  0
 13 12  1  0
 14 13  1  0
 15 14  1  0
 16 15  1  0
 16 17  1  0
 16 19  2  0
 20 23  2  0
 21 22  2  0
M  END
$$$$
