
     RDKit          3D

 23 25  0  0  0  0  0  0  0  0999 V2000
  -19.2143  -16.2130   13.6170 C   0  0  0  0  0  0  0  0  0  0  0  0
  -17.4692  -17.4587   13.3581 N   0  0  0  0  0  0  0  0  0  0  0  0
  -18.5305  -18.1970   12.9881 C   0  0  0  0  0  0  0  0  0  0  0  0
  -22.6315  -20.7285   10.0875 C   0  0  0  0  0  0  0  0  0  0  0  0
  -22.4312  -21.9379    7.9941 C   0  0  0  0  0  0  0  0  0  0  0  0
  -21.6625  -22.0156    5.3588 C   0  0  0  0  0  0  0  0  0  0  0  0
  -21.5212  -23.1567    6.1226 C   0  0  0  0  0  0  0  0  0  0  0  0
  -21.9201  -23.0960    7.4669 C   0  0  0  0  0  0  0  0  0  0  0  0
  -24.4424  -25.2380   11.5724 C   0  0  0  0  0  0  0  0  0  0  0  0
  -24.3736  -23.9237   12.0275 O   0  0  0  0  0  0  0  0  0  0  0  0
  -23.7862  -22.8616   11.3553 C   0  0  0  0  0  0  0  0  0  0  0  0
  -23.5630  -21.6714   12.0324 C   0  0  0  0  0  0  0  0  0  0  0  0
  -22.9826  -20.5841   11.4132 C   0  0  0  0  0  0  0  0  0  0  0  0
  -22.7215  -19.3032   12.0804 C   0  0  0  0  0  0  0  0  0  0  0  0
  -21.3538  -19.0287   12.2789 O   0  0  0  0  0  0  0  0  0  0  0  0
  -21.0540  -17.8015   12.8681 C   0  0  0  0  0  0  0  0  0  0  0  0
  -19.6620  -17.4256   13.1432 C   0  0  0  0  0  0  0  0  0  0  0  0
  -17.8710  -16.2535   13.7416 N   0  0  0  0  0  0  0  0  0  0  0  0
  -21.9650  -16.9938   13.1754 O   0  0  0  0  0  0  0  0  0  0  0  0
  -22.8375  -21.8960    9.3807 C   0  0  0  0  0  0  0  0  0  0  0  0
  -22.5495  -20.8329    7.1889 C   0  0  0  0  0  0  0  0  0  0  0  0
  -22.1644  -20.8781    5.8756 N   0  0  0  0  0  0  0  0  0  0  0  0
  -23.4204  -22.9647   10.0304 C   0  0  0  0  0  0  0  0  0  0  0  0
 17  1  1  0
  1 18  2  0
  3  2  1  0
  2 18  1  0
 17  3  2  0
 13  4  2  0
  4 20  1  0
  5  8  2  0
 20  5  1  0
  5 21  1  0
  7  6  2  0
  6 22  1  0
  8  7  1  0
 10  9  1  0
 11 10  1  0
 12 11  2  0
 11 23  1  0
 13 12  1  0
 14 13  1  0
 15 14  1  0
 16 15  1  0
 16 17  1  0
 16 19  2  0
 20 23  2  0
 21 22  2  0
M  END
$$$$
