
     RDKit          3D

 23 25  0  0  0  0  0  0  0  0999 V2000
  -13.0982  -11.4179   21.4724 C   0  0  0  0  0  0  0  0  0  0  0  0
  -13.3313   -9.4606   20.5899 N   0  0  0  0  0  0  0  0  0  0  0  0
  -13.2960   -9.2830   21.9224 C   0  0  0  0  0  0  0  0  0  0  0  0
  -12.7652   -9.0964   28.4192 C   0  0  0  0  0  0  0  0  0  0  0  0
  -12.8637   -8.2764   30.7003 C   0  0  0  0  0  0  0  0  0  0  0  0
  -13.4567   -8.6832   33.3507 C   0  0  0  0  0  0  0  0  0  0  0  0
  -12.9584   -9.7396   32.6149 C   0  0  0  0  0  0  0  0  0  0  0  0
  -12.6617   -9.5107   31.2624 C   0  0  0  0  0  0  0  0  0  0  0  0
  -10.0656   -4.9388   27.3372 C   0  0  0  0  0  0  0  0  0  0  0  0
  -11.2656   -5.5401   26.9662 O   0  0  0  0  0  0  0  0  0  0  0  0
  -11.7705   -6.7273   27.4766 C   0  0  0  0  0  0  0  0  0  0  0  0
  -11.9995   -7.7915   26.6164 C   0  0  0  0  0  0  0  0  0  0  0  0
  -12.5002   -8.9941   27.0699 C   0  0  0  0  0  0  0  0  0  0  0  0
  -12.7595  -10.1524   26.2065 C   0  0  0  0  0  0  0  0  0  0  0  0
  -13.1568   -9.8140   24.8977 O   0  0  0  0  0  0  0  0  0  0  0  0
  -13.0600  -10.8282   23.9463 C   0  0  0  0  0  0  0  0  0  0  0  0
  -13.1473  -10.5189   22.5140 C   0  0  0  0  0  0  0  0  0  0  0  0
  -13.2124  -10.7512   20.3045 N   0  0  0  0  0  0  0  0  0  0  0  0
  -12.8966  -12.0240   24.2925 O   0  0  0  0  0  0  0  0  0  0  0  0
  -12.5506   -8.0605   29.3057 C   0  0  0  0  0  0  0  0  0  0  0  0
  -13.3615   -7.2616   31.4786 C   0  0  0  0  0  0  0  0  0  0  0  0
  -13.6552   -7.4709   32.7996 N   0  0  0  0  0  0  0  0  0  0  0  0
  -12.0489   -6.8708   28.8188 C   0  0  0  0  0  0  0  0  0  0  0  0
 17  1  1  0
  1 18  2  0
  3  2  1  0
  2 18  1  0
 17  3  2  0
 13  4  2  0
  4 20  1  0
  5  8  2  0
 20  5  1  0
  5 21  1  0
  7  6  2  0
  6 22  1  0
  8  7  1  0
 10  9  1  0
 11 10  1  0
 12 11  2  0
 11 23  1  0
 13 12  1  0
 14 13  1  0
 15 14  1  0
 16 15  1  0
 16 17  1  0
 16 19  2  0
 20 23  2  0
 21 22  2  0
M  END
$$$$
