
     RDKit          3D

 23 25  0  0  0  0  0  0  0  0999 V2000
  -10.9467   -2.6989   28.2436 C   0  0  0  0  0  0  0  0  0  0  0  0
   -9.5133   -3.2732   26.6740 N   0  0  0  0  0  0  0  0  0  0  0  0
  -10.1833   -4.3807   27.0092 C   0  0  0  0  0  0  0  0  0  0  0  0
  -13.1378   -8.8921   27.3961 C   0  0  0  0  0  0  0  0  0  0  0  0
  -13.1880  -10.6702   25.6598 C   0  0  0  0  0  0  0  0  0  0  0  0
  -13.4264  -11.4736   22.9709 C   0  0  0  0  0  0  0  0  0  0  0  0
  -13.5164  -12.3846   24.0107 C   0  0  0  0  0  0  0  0  0  0  0  0
  -13.4000  -11.9950   25.3331 C   0  0  0  0  0  0  0  0  0  0  0  0
  -11.6773  -12.8431   29.9529 C   0  0  0  0  0  0  0  0  0  0  0  0
  -12.5513  -11.7866   30.3126 O   0  0  0  0  0  0  0  0  0  0  0  0
  -12.7459  -10.7841   29.3761 C   0  0  0  0  0  0  0  0  0  0  0  0
  -12.8261   -9.4394   29.6731 C   0  0  0  0  0  0  0  0  0  0  0  0
  -13.0208   -8.4808   28.7021 C   0  0  0  0  0  0  0  0  0  0  0  0
  -13.0985   -7.0525   29.0724 C   0  0  0  0  0  0  0  0  0  0  0  0
  -12.1628   -6.2602   28.3859 O   0  0  0  0  0  0  0  0  0  0  0  0
  -12.0386   -4.9052   28.6726 C   0  0  0  0  0  0  0  0  0  0  0  0
  -11.0864   -4.0428   27.9910 C   0  0  0  0  0  0  0  0  0  0  0  0
   -9.9740   -2.2760   27.4140 N   0  0  0  0  0  0  0  0  0  0  0  0
  -12.8052   -4.4566   29.5668 O   0  0  0  0  0  0  0  0  0  0  0  0
  -13.0640  -10.2399   27.0419 C   0  0  0  0  0  0  0  0  0  0  0  0
  -13.1026   -9.7814   24.5930 C   0  0  0  0  0  0  0  0  0  0  0  0
  -13.2198  -10.1908   23.3191 N   0  0  0  0  0  0  0  0  0  0  0  0
  -12.8678  -11.1563   28.0562 C   0  0  0  0  0  0  0  0  0  0  0  0
 17  1  1  0
  1 18  2  0
  3  2  1  0
  2 18  1  0
 17  3  2  0
 13  4  2  0
  4 20  1  0
  5  8  2  0
 20  5  1  0
  5 21  1  0
  7  6  2  0
  6 22  1  0
  8  7  1  0
  9 10  1  1
 11 10  1  0
 12 11  2  0
 11 23  1  0
 13 12  1  0
 14 13  1  0
 14 15  1  6
 16 15  1  0
 16 17  1  0
 16 19  2  0
 20 23  2  0
 21 22  2  0
M  END
$$$$
