
     RDKit          3D

 23 25  0  0  0  0  0  0  0  0999 V2000
   -8.6128  -10.9877   30.6594 C   0  0  0  0  0  0  0  0  0  0  0  0
   -7.1024   -9.4865   30.3001 N   0  0  0  0  0  0  0  0  0  0  0  0
   -8.2872   -8.8503   30.3066 C   0  0  0  0  0  0  0  0  0  0  0  0
  -12.8242   -6.0209   29.3943 C   0  0  0  0  0  0  0  0  0  0  0  0
  -12.8345   -3.9710   28.0970 C   0  0  0  0  0  0  0  0  0  0  0  0
  -12.0315   -2.5538   25.8860 C   0  0  0  0  0  0  0  0  0  0  0  0
  -13.3322   -2.4118   26.3259 C   0  0  0  0  0  0  0  0  0  0  0  0
  -13.7224   -3.1446   27.4575 C   0  0  0  0  0  0  0  0  0  0  0  0
  -16.0844   -3.3336   32.2162 C   0  0  0  0  0  0  0  0  0  0  0  0
  -15.2455   -4.4389   32.3340 O   0  0  0  0  0  0  0  0  0  0  0  0
  -14.4319   -4.9507   31.3335 C   0  0  0  0  0  0  0  0  0  0  0  0
  -13.9785   -6.2582   31.4316 C   0  0  0  0  0  0  0  0  0  0  0  0
  -13.1677   -6.8176   30.4661 C   0  0  0  0  0  0  0  0  0  0  0  0
  -12.6611   -8.1942   30.5174 C   0  0  0  0  0  0  0  0  0  0  0  0
  -11.2571   -8.2911   30.4491 O   0  0  0  0  0  0  0  0  0  0  0  0
  -10.7214   -9.5658   30.6258 C   0  0  0  0  0  0  0  0  0  0  0  0
   -9.2730   -9.7861   30.5345 C   0  0  0  0  0  0  0  0  0  0  0  0
   -7.2868  -10.7833   30.5129 N   0  0  0  0  0  0  0  0  0  0  0  0
  -11.4634  -10.5498   30.8660 O   0  0  0  0  0  0  0  0  0  0  0  0
  -13.2553   -4.7164   29.2618 C   0  0  0  0  0  0  0  0  0  0  0  0
  -11.5531   -4.0742   27.6163 C   0  0  0  0  0  0  0  0  0  0  0  0
  -11.1590   -3.3649   26.5134 N   0  0  0  0  0  0  0  0  0  0  0  0
  -14.0654   -4.1877   30.2458 C   0  0  0  0  0  0  0  0  0  0  0  0
 17  1  1  0
  1 18  2  0
  3  2  1  0
  2 18  1  0
 17  3  2  0
 13  4  2  0
  4 20  1  0
  5  8  2  0
 20  5  1  0
  5 21  1  0
  7  6  2  0
  6 22  1  0
  8  7  1  0
 10  9  1  0
 11 10  1  0
 12 11  2  0
 11 23  1  0
 13 12  1  0
 14 13  1  0
 15 14  1  0
 16 15  1  0
 16 17  1  0
 16 19  2  0
 20 23  2  0
 21 22  2  0
M  END
$$$$
