
     RDKit          3D

 23 25  0  0  0  0  0  0  0  0999 V2000
  -19.1779  -16.1814   13.8270 C   0  0  0  0  0  0  0  0  0  0  0  0
  -17.0553  -15.7772   14.2501 N   0  0  0  0  0  0  0  0  0  0  0  0
  -17.1082  -16.9671   13.6423 C   0  0  0  0  0  0  0  0  0  0  0  0
  -23.0314  -20.7662   11.2789 C   0  0  0  0  0  0  0  0  0  0  0  0
  -25.1712  -21.8586   10.6410 C   0  0  0  0  0  0  0  0  0  0  0  0
  -26.6584  -24.1618    9.9962 C   0  0  0  0  0  0  0  0  0  0  0  0
  -27.1247  -22.8912    9.7007 C   0  0  0  0  0  0  0  0  0  0  0  0
  -26.3980  -21.7568   10.0153 C   0  0  0  0  0  0  0  0  0  0  0  0
  -26.2539  -17.0900   11.8994 C   0  0  0  0  0  0  0  0  0  0  0  0
  -24.9522  -17.0872   11.3381 O   0  0  0  0  0  0  0  0  0  0  0  0
  -24.2669  -18.2915   11.3316 C   0  0  0  0  0  0  0  0  0  0  0  0
  -22.9252  -18.4309   11.6199 C   0  0  0  0  0  0  0  0  0  0  0  0
  -22.2904  -19.6542   11.5994 C   0  0  0  0  0  0  0  0  0  0  0  0
  -20.8507  -19.7501   11.9172 C   0  0  0  0  0  0  0  0  0  0  0  0
  -20.3580  -18.6040   12.5641 O   0  0  0  0  0  0  0  0  0  0  0  0
  -18.9894  -18.4121   12.7166 C   0  0  0  0  0  0  0  0  0  0  0  0
  -18.4291  -17.2390   13.3686 C   0  0  0  0  0  0  0  0  0  0  0  0
  -18.2924  -15.3161   14.3563 N   0  0  0  0  0  0  0  0  0  0  0  0
  -18.2485  -19.3207   12.2539 O   0  0  0  0  0  0  0  0  0  0  0  0
  -24.3917  -20.6802   10.9791 C   0  0  0  0  0  0  0  0  0  0  0  0
  -24.7319  -23.1479   10.9237 C   0  0  0  0  0  0  0  0  0  0  0  0
  -25.4611  -24.2302   10.6053 N   0  0  0  0  0  0  0  0  0  0  0  0
  -24.9750  -19.4291   11.0152 C   0  0  0  0  0  0  0  0  0  0  0  0
 17  1  1  0
  1 18  2  0
  3  2  1  0
  2 18  1  0
 17  3  2  0
 13  4  2  0
  4 20  1  0
  5  8  2  0
 20  5  1  0
  5 21  1  0
  7  6  2  0
  6 22  1  0
  8  7  1  0
  9 10  1  1
 11 10  1  0
 12 11  2  0
 11 23  1  0
 13 12  1  0
 14 13  1  0
 14 15  1  6
 16 15  1  0
 16 17  1  0
 16 19  2  0
 20 23  2  0
 21 22  2  0
M  END
$$$$
