
     RDKit          3D

 23 25  0  0  0  0  0  0  0  0999 V2000
  -12.8589  -10.6977   22.2739 C   0  0  0  0  0  0  0  0  0  0  0  0
  -12.5149   -9.6183   20.4353 N   0  0  0  0  0  0  0  0  0  0  0  0
  -12.5269   -8.7064   21.4235 C   0  0  0  0  0  0  0  0  0  0  0  0
  -12.2787   -9.9154   28.3948 C   0  0  0  0  0  0  0  0  0  0  0  0
  -11.2097  -10.7052   30.4242 C   0  0  0  0  0  0  0  0  0  0  0  0
   -9.0991  -10.6427   32.1801 C   0  0  0  0  0  0  0  0  0  0  0  0
   -9.4559   -9.4766   31.5334 C   0  0  0  0  0  0  0  0  0  0  0  0
  -10.5372   -9.5300   30.6403 C   0  0  0  0  0  0  0  0  0  0  0  0
  -16.8248  -12.1185   28.3619 C   0  0  0  0  0  0  0  0  0  0  0  0
  -15.5657  -12.3523   28.9089 O   0  0  0  0  0  0  0  0  0  0  0  0
  -14.4508  -11.5409   28.7558 C   0  0  0  0  0  0  0  0  0  0  0  0
  -14.3714  -10.6990   27.6560 C   0  0  0  0  0  0  0  0  0  0  0  0
  -13.2863   -9.8716   27.4544 C   0  0  0  0  0  0  0  0  0  0  0  0
  -13.1507   -8.9605   26.3118 C   0  0  0  0  0  0  0  0  0  0  0  0
  -13.0562   -9.6130   25.0665 O   0  0  0  0  0  0  0  0  0  0  0  0
  -12.8402   -8.7935   23.9599 C   0  0  0  0  0  0  0  0  0  0  0  0
  -12.7451   -9.3682   22.6125 C   0  0  0  0  0  0  0  0  0  0  0  0
  -12.7153  -10.8299   20.9385 N   0  0  0  0  0  0  0  0  0  0  0  0
  -12.7226   -7.5502   24.0910 O   0  0  0  0  0  0  0  0  0  0  0  0
  -12.3217  -10.7393   29.5013 C   0  0  0  0  0  0  0  0  0  0  0  0
  -10.8121  -11.8350   31.0944 C   0  0  0  0  0  0  0  0  0  0  0  0
   -9.7589  -11.7972   31.9687 N   0  0  0  0  0  0  0  0  0  0  0  0
  -13.4218  -11.5545   29.6727 C   0  0  0  0  0  0  0  0  0  0  0  0
 17  1  1  0
  1 18  2  0
  3  2  1  0
  2 18  1  0
 17  3  2  0
 13  4  2  0
  4 20  1  0
  5  8  2  0
 20  5  1  0
  5 21  1  0
  7  6  2  0
  6 22  1  0
  8  7  1  0
 10  9  1  0
 11 10  1  0
 12 11  2  0
 11 23  1  0
 13 12  1  0
 14 13  1  0
 15 14  1  0
 16 15  1  0
 16 17  1  0
 16 19  2  0
 20 23  2  0
 21 22  2  0
M  END
$$$$
