
     RDKit          3D

 23 25  0  0  0  0  0  0  0  0999 V2000
  -13.9407   -9.3745   20.2829 C   0  0  0  0  0  0  0  0  0  0  0  0
  -13.8864  -11.5107   19.7522 N   0  0  0  0  0  0  0  0  0  0  0  0
  -14.0645  -11.4460   21.0759 C   0  0  0  0  0  0  0  0  0  0  0  0
  -13.6966   -9.7527   27.3890 C   0  0  0  0  0  0  0  0  0  0  0  0
  -12.6938   -9.7218   29.6633 C   0  0  0  0  0  0  0  0  0  0  0  0
  -12.3533   -8.5123   32.1840 C   0  0  0  0  0  0  0  0  0  0  0  0
  -11.3971   -9.3622   31.6523 C   0  0  0  0  0  0  0  0  0  0  0  0
  -11.5596   -9.9587   30.4147 C   0  0  0  0  0  0  0  0  0  0  0  0
  -12.5050  -14.4109   26.0783 C   0  0  0  0  0  0  0  0  0  0  0  0
  -11.7488  -13.3326   26.6023 O   0  0  0  0  0  0  0  0  0  0  0  0
  -12.4194  -12.1392   26.8172 C   0  0  0  0  0  0  0  0  0  0  0  0
  -13.2335  -11.5203   25.8916 C   0  0  0  0  0  0  0  0  0  0  0  0
  -13.8789  -10.3315   26.1560 C   0  0  0  0  0  0  0  0  0  0  0  0
  -14.7415   -9.7096   25.1303 C   0  0  0  0  0  0  0  0  0  0  0  0
  -14.6035  -10.3083   23.8665 O   0  0  0  0  0  0  0  0  0  0  0  0
  -14.2758   -9.5420   22.7535 C   0  0  0  0  0  0  0  0  0  0  0  0
  -14.1014  -10.1163   21.4289 C   0  0  0  0  0  0  0  0  0  0  0  0
  -13.8136  -10.2725   19.2877 N   0  0  0  0  0  0  0  0  0  0  0  0
  -14.1359   -8.3057   22.9549 O   0  0  0  0  0  0  0  0  0  0  0  0
  -12.8836  -10.3373   28.3611 C   0  0  0  0  0  0  0  0  0  0  0  0
  -13.6339   -8.8643   30.2254 C   0  0  0  0  0  0  0  0  0  0  0  0
  -13.4470   -8.3002   31.4301 N   0  0  0  0  0  0  0  0  0  0  0  0
  -12.2619  -11.5281   28.0409 C   0  0  0  0  0  0  0  0  0  0  0  0
 17  1  1  0
  1 18  2  0
  3  2  1  0
  2 18  1  0
 17  3  2  0
 13  4  2  0
  4 20  1  0
  5  8  2  0
 20  5  1  0
  5 21  1  0
  7  6  2  0
  6 22  1  0
  8  7  1  0
  9 10  1  1
 11 10  1  0
 12 11  2  0
 11 23  1  0
 13 12  1  0
 14 13  1  0
 14 15  1  6
 16 15  1  0
 16 17  1  0
 16 19  2  0
 20 23  2  0
 21 22  2  0
M  END
$$$$
