
     RDKit          3D

 23 25  0  0  0  0  0  0  0  0999 V2000
   -9.2040   -2.0683   27.2974 C   0  0  0  0  0  0  0  0  0  0  0  0
  -11.1359   -1.3642   26.6371 N   0  0  0  0  0  0  0  0  0  0  0  0
  -11.2725   -2.6746   26.9067 C   0  0  0  0  0  0  0  0  0  0  0  0
  -11.5942   -8.5298   27.0544 C   0  0  0  0  0  0  0  0  0  0  0  0
  -12.7784  -10.1970   25.7494 C   0  0  0  0  0  0  0  0  0  0  0  0
  -13.1615  -11.5312   23.3798 C   0  0  0  0  0  0  0  0  0  0  0  0
  -11.8706  -11.3406   23.8300 C   0  0  0  0  0  0  0  0  0  0  0  0
  -11.6966  -10.6566   25.0431 C   0  0  0  0  0  0  0  0  0  0  0  0
  -13.7069  -10.3922   31.2710 C   0  0  0  0  0  0  0  0  0  0  0  0
  -13.8192   -9.2763   30.4455 O   0  0  0  0  0  0  0  0  0  0  0  0
  -13.0829   -9.0416   29.2933 C   0  0  0  0  0  0  0  0  0  0  0  0
  -12.0849   -8.0780   29.3115 C   0  0  0  0  0  0  0  0  0  0  0  0
  -11.3227   -7.8038   28.1950 C   0  0  0  0  0  0  0  0  0  0  0  0
  -10.2543   -6.7982   28.1580 C   0  0  0  0  0  0  0  0  0  0  0  0
  -10.6873   -5.5161   27.7657 O   0  0  0  0  0  0  0  0  0  0  0  0
   -9.7109   -4.5217   27.7364 C   0  0  0  0  0  0  0  0  0  0  0  0
  -10.0517   -3.1525   27.3317 C   0  0  0  0  0  0  0  0  0  0  0  0
   -9.8858   -0.9847   26.8701 N   0  0  0  0  0  0  0  0  0  0  0  0
   -8.5228   -4.7747   28.0543 O   0  0  0  0  0  0  0  0  0  0  0  0
  -12.5783   -9.4959   26.9975 C   0  0  0  0  0  0  0  0  0  0  0  0
  -14.0400  -10.4145   25.2549 C   0  0  0  0  0  0  0  0  0  0  0  0
  -14.2243  -11.0805   24.0727 N   0  0  0  0  0  0  0  0  0  0  0  0
  -13.3224   -9.7451   28.1325 C   0  0  0  0  0  0  0  0  0  0  0  0
 17  1  1  0
  1 18  2  0
  3  2  1  0
  2 18  1  0
 17  3  2  0
 13  4  2  0
  4 20  1  0
  5  8  2  0
 20  5  1  0
  5 21  1  0
  7  6  2  0
  6 22  1  0
  8  7  1  0
 10  9  1  0
 11 10  1  0
 12 11  2  0
 11 23  1  0
 13 12  1  0
 14 13  1  0
 15 14  1  0
 16 15  1  0
 16 17  1  0
 16 19  2  0
 20 23  2  0
 21 22  2  0
M  END
$$$$
