
     RDKit          3D

 23 25  0  0  0  0  0  0  0  0999 V2000
  -17.5375  -17.9097   13.9967 C   0  0  0  0  0  0  0  0  0  0  0  0
  -15.8736  -16.4681   14.0331 N   0  0  0  0  0  0  0  0  0  0  0  0
  -16.9973  -15.7575   13.8903 C   0  0  0  0  0  0  0  0  0  0  0  0
  -22.9524  -19.0288   12.0866 C   0  0  0  0  0  0  0  0  0  0  0  0
  -24.2211  -20.7635   10.8375 C   0  0  0  0  0  0  0  0  0  0  0  0
  -25.3884  -21.7190    8.4591 C   0  0  0  0  0  0  0  0  0  0  0  0
  -25.6630  -22.3004    9.6862 C   0  0  0  0  0  0  0  0  0  0  0  0
  -25.0923  -21.8348   10.8572 C   0  0  0  0  0  0  0  0  0  0  0  0
  -22.6254  -20.8678   16.7217 C   0  0  0  0  0  0  0  0  0  0  0  0
  -23.2123  -21.3434   15.5222 O   0  0  0  0  0  0  0  0  0  0  0  0
  -23.0991  -20.5352   14.4024 C   0  0  0  0  0  0  0  0  0  0  0  0
  -22.4591  -19.3135   14.3794 C   0  0  0  0  0  0  0  0  0  0  0  0
  -22.3745  -18.5474   13.2367 C   0  0  0  0  0  0  0  0  0  0  0  0
  -21.6765  -17.2455   13.2644 C   0  0  0  0  0  0  0  0  0  0  0  0
  -20.4587  -17.2950   13.9639 O   0  0  0  0  0  0  0  0  0  0  0  0
  -19.4691  -16.3473   13.7277 C   0  0  0  0  0  0  0  0  0  0  0  0
  -18.0515  -16.6417   13.8652 C   0  0  0  0  0  0  0  0  0  0  0  0
  -16.2043  -17.7491   14.0956 N   0  0  0  0  0  0  0  0  0  0  0  0
  -19.8699  -15.2031   13.3830 O   0  0  0  0  0  0  0  0  0  0  0  0
  -23.6118  -20.2585   12.0558 C   0  0  0  0  0  0  0  0  0  0  0  0
  -23.9666  -20.2028    9.5901 C   0  0  0  0  0  0  0  0  0  0  0  0
  -24.5367  -20.6778    8.4705 N   0  0  0  0  0  0  0  0  0  0  0  0
  -23.6654  -20.9831   13.2301 C   0  0  0  0  0  0  0  0  0  0  0  0
 17  1  1  0
  1 18  2  0
  3  2  1  0
  2 18  1  0
 17  3  2  0
 13  4  2  0
  4 20  1  0
  5  8  2  0
 20  5  1  0
  5 21  1  0
  7  6  2  0
  6 22  1  0
  8  7  1  0
  9 10  1  1
 11 10  1  0
 12 11  2  0
 11 23  1  0
 13 12  1  0
 14 13  1  0
 14 15  1  6
 16 15  1  0
 16 17  1  0
 16 19  2  0
 20 23  2  0
 21 22  2  0
M  END
$$$$
