
     RDKit          3D

 23 25  0  0  0  0  0  0  0  0999 V2000
  -20.7439  -24.8542    6.8256 C   0  0  0  0  0  0  0  0  0  0  0  0
  -21.6518  -23.5658    5.2881 N   0  0  0  0  0  0  0  0  0  0  0  0
  -22.0591  -23.0989    6.4730 C   0  0  0  0  0  0  0  0  0  0  0  0
  -21.7824  -20.3247   12.0091 C   0  0  0  0  0  0  0  0  0  0  0  0
  -21.3326  -18.1454   13.1170 C   0  0  0  0  0  0  0  0  0  0  0  0
  -19.6241  -16.3225   14.4171 C   0  0  0  0  0  0  0  0  0  0  0  0
  -19.1433  -17.2316   13.4889 C   0  0  0  0  0  0  0  0  0  0  0  0
  -19.9784  -18.1290   12.8476 C   0  0  0  0  0  0  0  0  0  0  0  0
  -25.9388  -17.9091   10.9080 C   0  0  0  0  0  0  0  0  0  0  0  0
  -25.7396  -19.2017   11.4548 O   0  0  0  0  0  0  0  0  0  0  0  0
  -24.4292  -19.6217   11.6166 C   0  0  0  0  0  0  0  0  0  0  0  0
  -23.9396  -20.8408   11.1958 C   0  0  0  0  0  0  0  0  0  0  0  0
  -22.6249  -21.2105   11.3814 C   0  0  0  0  0  0  0  0  0  0  0  0
  -22.1496  -22.5280   10.9110 C   0  0  0  0  0  0  0  0  0  0  0  0
  -22.1399  -22.6352    9.5099 O   0  0  0  0  0  0  0  0  0  0  0  0
  -21.6502  -23.7805    8.8921 C   0  0  0  0  0  0  0  0  0  0  0  0
  -21.5015  -23.8919    7.4497 C   0  0  0  0  0  0  0  0  0  0  0  0
  -20.8689  -24.6114    5.5071 N   0  0  0  0  0  0  0  0  0  0  0  0
  -21.3370  -24.7312    9.6581 O   0  0  0  0  0  0  0  0  0  0  0  0
  -22.2269  -19.0788   12.4541 C   0  0  0  0  0  0  0  0  0  0  0  0
  -21.7831  -17.2204   14.0533 C   0  0  0  0  0  0  0  0  0  0  0  0
  -20.9468  -16.3615   14.6593 N   0  0  0  0  0  0  0  0  0  0  0  0
  -23.5540  -18.7618   12.2412 C   0  0  0  0  0  0  0  0  0  0  0  0
 17  1  1  0
  1 18  2  0
  3  2  1  0
  2 18  1  0
 17  3  2  0
 13  4  2  0
  4 20  1  0
  5  8  2  0
 20  5  1  0
  5 21  1  0
  7  6  2  0
  6 22  1  0
  8  7  1  0
  9 10  1  1
 11 10  1  0
 12 11  2  0
 11 23  1  0
 13 12  1  0
 14 13  1  0
 14 15  1  6
 16 15  1  0
 16 17  1  0
 16 19  2  0
 20 23  2  0
 21 22  2  0
M  END
$$$$
