
     RDKit          3D

 23 25  0  0  0  0  0  0  0  0999 V2000
  -10.4839   -3.5109   28.9564 C   0  0  0  0  0  0  0  0  0  0  0  0
   -8.5034   -4.3109   29.2757 N   0  0  0  0  0  0  0  0  0  0  0  0
   -9.3308   -5.3635   29.1499 C   0  0  0  0  0  0  0  0  0  0  0  0
  -13.1572   -9.3714   26.3801 C   0  0  0  0  0  0  0  0  0  0  0  0
  -13.3900  -10.9170   24.5249 C   0  0  0  0  0  0  0  0  0  0  0  0
  -14.0204  -11.3968   21.8954 C   0  0  0  0  0  0  0  0  0  0  0  0
  -14.7470  -10.4485   22.5871 C   0  0  0  0  0  0  0  0  0  0  0  0
  -14.4087  -10.2184   23.9297 C   0  0  0  0  0  0  0  0  0  0  0  0
  -11.2674  -12.0993   30.1885 C   0  0  0  0  0  0  0  0  0  0  0  0
  -11.9209  -12.3246   28.9796 O   0  0  0  0  0  0  0  0  0  0  0  0
  -12.3386  -11.3471   28.0881 C   0  0  0  0  0  0  0  0  0  0  0  0
  -12.4523  -10.0353   28.5253 C   0  0  0  0  0  0  0  0  0  0  0  0
  -12.8628   -9.0241   27.6818 C   0  0  0  0  0  0  0  0  0  0  0  0
  -12.9988   -7.6206   28.0893 C   0  0  0  0  0  0  0  0  0  0  0  0
  -11.7889   -7.0208   28.4913 O   0  0  0  0  0  0  0  0  0  0  0  0
  -11.8405   -5.6528   28.7536 C   0  0  0  0  0  0  0  0  0  0  0  0
  -10.6058   -4.8822   28.9444 C   0  0  0  0  0  0  0  0  0  0  0  0
   -9.1910   -3.1817   29.1603 N   0  0  0  0  0  0  0  0  0  0  0  0
  -12.9402   -5.0520   28.8320 O   0  0  0  0  0  0  0  0  0  0  0  0
  -13.0562  -10.6646   25.9085 C   0  0  0  0  0  0  0  0  0  0  0  0
  -12.7006  -11.8487   23.7898 C   0  0  0  0  0  0  0  0  0  0  0  0
  -13.0199  -12.0831   22.4790 N   0  0  0  0  0  0  0  0  0  0  0  0
  -12.6425  -11.6522   26.7788 C   0  0  0  0  0  0  0  0  0  0  0  0
 17  1  1  0
  1 18  2  0
  3  2  1  0
  2 18  1  0
 17  3  2  0
 13  4  2  0
  4 20  1  0
  5  8  2  0
 20  5  1  0
  5 21  1  0
  7  6  2  0
  6 22  1  0
  8  7  1  0
 10  9  1  0
 11 10  1  0
 12 11  2  0
 11 23  1  0
 13 12  1  0
 14 13  1  0
 15 14  1  0
 16 15  1  0
 16 17  1  0
 16 19  2  0
 20 23  2  0
 21 22  2  0
M  END
$$$$
