
     RDKit          3D

 23 25  0  0  0  0  0  0  0  0999 V2000
  -12.7059   -9.6542   21.2968 C   0  0  0  0  0  0  0  0  0  0  0  0
  -11.9749  -11.1779   22.7082 N   0  0  0  0  0  0  0  0  0  0  0  0
  -12.9954  -11.7272   22.0412 C   0  0  0  0  0  0  0  0  0  0  0  0
  -17.2341  -13.9628   17.7235 C   0  0  0  0  0  0  0  0  0  0  0  0
  -18.0513  -15.7108   16.1564 C   0  0  0  0  0  0  0  0  0  0  0  0
  -18.7353  -16.6099   13.5765 C   0  0  0  0  0  0  0  0  0  0  0  0
  -19.1140  -15.3576   14.0321 C   0  0  0  0  0  0  0  0  0  0  0  0
  -18.7806  -14.9114   15.2985 C   0  0  0  0  0  0  0  0  0  0  0  0
  -16.5259  -17.5725   21.0395 C   0  0  0  0  0  0  0  0  0  0  0  0
  -17.5868  -16.6480   20.8687 O   0  0  0  0  0  0  0  0  0  0  0  0
  -17.4521  -15.7159   19.8524 C   0  0  0  0  0  0  0  0  0  0  0  0
  -17.0071  -14.4224   20.0296 C   0  0  0  0  0  0  0  0  0  0  0  0
  -16.8910  -13.5332   18.9829 C   0  0  0  0  0  0  0  0  0  0  0  0
  -16.4079  -12.1582   19.2255 C   0  0  0  0  0  0  0  0  0  0  0  0
  -15.2235  -12.1223   19.9809 O   0  0  0  0  0  0  0  0  0  0  0  0
  -14.5663  -10.9181   20.2078 C   0  0  0  0  0  0  0  0  0  0  0  0
  -13.4676  -10.7892   21.1518 C   0  0  0  0  0  0  0  0  0  0  0  0
  -11.8091   -9.9431   22.2587 N   0  0  0  0  0  0  0  0  0  0  0  0
  -14.9781   -9.9295   19.5432 O   0  0  0  0  0  0  0  0  0  0  0  0
  -17.6899  -15.2610   17.4897 C   0  0  0  0  0  0  0  0  0  0  0  0
  -17.6869  -16.9615   15.6686 C   0  0  0  0  0  0  0  0  0  0  0  0
  -18.0261  -17.3663   14.4335 N   0  0  0  0  0  0  0  0  0  0  0  0
  -17.7861  -16.1085   18.5757 C   0  0  0  0  0  0  0  0  0  0  0  0
 17  1  1  0
  1 18  2  0
  3  2  1  0
  2 18  1  0
 17  3  2  0
 13  4  2  0
  4 20  1  0
  5  8  2  0
 20  5  1  0
  5 21  1  0
  7  6  2  0
  6 22  1  0
  8  7  1  0
  9 10  1  1
 11 10  1  0
 12 11  2  0
 11 23  1  0
 13 12  1  0
 14 13  1  0
 14 15  1  6
 16 15  1  0
 16 17  1  0
 16 19  2  0
 20 23  2  0
 21 22  2  0
M  END
$$$$
