
     RDKit          3D

 23 25  0  0  0  0  0  0  0  0999 V2000
  -11.1333   -6.3714   30.3725 C   0  0  0  0  0  0  0  0  0  0  0  0
   -9.0636   -7.0473   30.0442 N   0  0  0  0  0  0  0  0  0  0  0  0
   -9.8490   -7.8321   29.2991 C   0  0  0  0  0  0  0  0  0  0  0  0
  -13.6851  -10.3560   25.0717 C   0  0  0  0  0  0  0  0  0  0  0  0
  -13.8841  -11.1521   22.7253 C   0  0  0  0  0  0  0  0  0  0  0  0
  -14.6850  -10.8173   20.0459 C   0  0  0  0  0  0  0  0  0  0  0  0
  -15.3505  -10.1886   21.0857 C   0  0  0  0  0  0  0  0  0  0  0  0
  -14.9610  -10.3498   22.4034 C   0  0  0  0  0  0  0  0  0  0  0  0
  -11.6754  -14.8448   25.0405 C   0  0  0  0  0  0  0  0  0  0  0  0
  -11.7534  -13.8877   26.0833 O   0  0  0  0  0  0  0  0  0  0  0  0
  -12.3935  -12.6932   25.7949 C   0  0  0  0  0  0  0  0  0  0  0  0
  -12.6421  -11.6956   26.7145 C   0  0  0  0  0  0  0  0  0  0  0  0
  -13.2838  -10.5239   26.3752 C   0  0  0  0  0  0  0  0  0  0  0  0
  -13.5251   -9.4853   27.3980 C   0  0  0  0  0  0  0  0  0  0  0  0
  -12.3456   -9.0627   28.0341 O   0  0  0  0  0  0  0  0  0  0  0  0
  -12.3594   -7.9714   28.8957 C   0  0  0  0  0  0  0  0  0  0  0  0
  -11.1497   -7.4253   29.4903 C   0  0  0  0  0  0  0  0  0  0  0  0
   -9.8365   -6.1800   30.6804 N   0  0  0  0  0  0  0  0  0  0  0  0
  -13.4912   -7.4725   29.1382 O   0  0  0  0  0  0  0  0  0  0  0  0
  -13.4582  -11.3340   24.1022 C   0  0  0  0  0  0  0  0  0  0  0  0
  -13.2381  -11.7686   21.6587 C   0  0  0  0  0  0  0  0  0  0  0  0
  -13.6404  -11.5922   20.3893 N   0  0  0  0  0  0  0  0  0  0  0  0
  -12.8109  -12.4875   24.4991 C   0  0  0  0  0  0  0  0  0  0  0  0
 17  1  1  0
  1 18  2  0
  3  2  1  0
  2 18  1  0
 17  3  2  0
 13  4  2  0
  4 20  1  0
  5  8  2  0
 20  5  1  0
  5 21  1  0
  7  6  2  0
  6 22  1  0
  8  7  1  0
  9 10  1  1
 11 10  1  0
 12 11  2  0
 11 23  1  0
 13 12  1  0
 14 13  1  0
 14 15  1  6
 16 15  1  0
 16 17  1  0
 16 19  2  0
 20 23  2  0
 21 22  2  0
M  END
$$$$
