
     RDKit          3D

 23 25  0  0  0  0  0  0  0  0999 V2000
  -19.4541  -19.9371    4.7780 C   0  0  0  0  0  0  0  0  0  0  0  0
  -18.9856  -18.2194    6.0003 N   0  0  0  0  0  0  0  0  0  0  0  0
  -20.0424  -18.8243    6.5710 C   0  0  0  0  0  0  0  0  0  0  0  0
  -23.6714  -22.8655    9.4085 C   0  0  0  0  0  0  0  0  0  0  0  0
  -23.8777  -24.1626   11.4481 C   0  0  0  0  0  0  0  0  0  0  0  0
  -23.2310  -26.3814   12.9316 C   0  0  0  0  0  0  0  0  0  0  0  0
  -22.2993  -25.8867   12.0413 C   0  0  0  0  0  0  0  0  0  0  0  0
  -22.6494  -24.7521   11.2931 C   0  0  0  0  0  0  0  0  0  0  0  0
  -26.3687  -18.6620   10.1619 C   0  0  0  0  0  0  0  0  0  0  0  0
  -26.1980  -19.9036   10.7689 O   0  0  0  0  0  0  0  0  0  0  0  0
  -25.3509  -20.9115   10.3315 C   0  0  0  0  0  0  0  0  0  0  0  0
  -24.7811  -20.8178    9.0699 C   0  0  0  0  0  0  0  0  0  0  0  0
  -23.9322  -21.7907    8.5849 C   0  0  0  0  0  0  0  0  0  0  0  0
  -23.3005  -21.7421    7.2610 C   0  0  0  0  0  0  0  0  0  0  0  0
  -22.2804  -20.7767    7.1477 O   0  0  0  0  0  0  0  0  0  0  0  0
  -21.4457  -20.8943    6.0375 C   0  0  0  0  0  0  0  0  0  0  0  0
  -20.3649  -19.9274    5.8104 C   0  0  0  0  0  0  0  0  0  0  0  0
  -18.6196  -18.8849    4.9120 N   0  0  0  0  0  0  0  0  0  0  0  0
  -21.5997  -21.8265    5.2105 O   0  0  0  0  0  0  0  0  0  0  0  0
  -24.2189  -22.9939   10.6689 C   0  0  0  0  0  0  0  0  0  0  0  0
  -24.7659  -24.6966   12.3479 C   0  0  0  0  0  0  0  0  0  0  0  0
  -24.4373  -25.8031   13.0847 N   0  0  0  0  0  0  0  0  0  0  0  0
  -25.0643  -22.0025   11.1235 C   0  0  0  0  0  0  0  0  0  0  0  0
 17  1  1  0
  1 18  2  0
  3  2  1  0
  2 18  1  0
 17  3  2  0
 13  4  2  0
  4 20  1  0
  5  8  2  0
 20  5  1  0
  5 21  1  0
  7  6  2  0
  6 22  1  0
  8  7  1  0
 10  9  1  0
 11 10  1  0
 12 11  2  0
 11 23  1  0
 13 12  1  0
 14 13  1  0
 15 14  1  0
 16 15  1  0
 16 17  1  0
 16 19  2  0
 20 23  2  0
 21 22  2  0
M  END
$$$$
