
     RDKit          3D

 23 25  0  0  0  0  0  0  0  0999 V2000
  -18.1415  -16.2364   13.3872 C   0  0  0  0  0  0  0  0  0  0  0  0
  -15.9532  -16.1698   13.6218 N   0  0  0  0  0  0  0  0  0  0  0  0
  -16.3064  -17.4589   13.6574 C   0  0  0  0  0  0  0  0  0  0  0  0
  -22.6726  -20.3361   11.6950 C   0  0  0  0  0  0  0  0  0  0  0  0
  -24.6572  -20.9663   10.3373 C   0  0  0  0  0  0  0  0  0  0  0  0
  -26.0693  -22.7479    8.6747 C   0  0  0  0  0  0  0  0  0  0  0  0
  -24.6982  -22.8484    8.8464 C   0  0  0  0  0  0  0  0  0  0  0  0
  -24.0001  -21.9757    9.6619 C   0  0  0  0  0  0  0  0  0  0  0  0
  -23.7177  -15.6830   13.1819 C   0  0  0  0  0  0  0  0  0  0  0  0
  -24.5074  -16.7430   12.6701 O   0  0  0  0  0  0  0  0  0  0  0  0
  -23.8540  -17.9283   12.3732 C   0  0  0  0  0  0  0  0  0  0  0  0
  -22.6001  -18.2690   12.8363 C   0  0  0  0  0  0  0  0  0  0  0  0
  -21.9937  -19.4631   12.5106 C   0  0  0  0  0  0  0  0  0  0  0  0
  -20.6491  -19.7811   13.0339 C   0  0  0  0  0  0  0  0  0  0  0  0
  -19.9031  -18.6337   13.3527 O   0  0  0  0  0  0  0  0  0  0  0  0
  -18.5210  -18.7042   13.4872 C   0  0  0  0  0  0  0  0  0  0  0  0
  -17.6734  -17.5227   13.5121 C   0  0  0  0  0  0  0  0  0  0  0  0
  -17.0522  -15.4483   13.4606 N   0  0  0  0  0  0  0  0  0  0  0  0
  -18.0335  -19.8622   13.5882 O   0  0  0  0  0  0  0  0  0  0  0  0
  -23.9432  -20.0402   11.1993 C   0  0  0  0  0  0  0  0  0  0  0  0
  -26.0328  -20.8929   10.1435 C   0  0  0  0  0  0  0  0  0  0  0  0
  -26.6824  -21.7556    9.3447 N   0  0  0  0  0  0  0  0  0  0  0  0
  -24.5019  -18.8295   11.5584 C   0  0  0  0  0  0  0  0  0  0  0  0
 17  1  1  0
  1 18  2  0
  3  2  1  0
  2 18  1  0
 17  3  2  0
 13  4  2  0
  4 20  1  0
  5  8  2  0
 20  5  1  0
  5 21  1  0
  7  6  2  0
  6 22  1  0
  8  7  1  0
  9 10  1  1
 11 10  1  0
 12 11  2  0
 11 23  1  0
 13 12  1  0
 14 13  1  0
 14 15  1  6
 16 15  1  0
 16 17  1  0
 16 19  2  0
 20 23  2  0
 21 22  2  0
M  END
$$$$
