
     RDKit          3D

 23 25  0  0  0  0  0  0  0  0999 V2000
  -19.1964  -16.5606   12.9682 C   0  0  0  0  0  0  0  0  0  0  0  0
  -17.4387  -16.4101   14.2139 N   0  0  0  0  0  0  0  0  0  0  0  0
  -18.2095  -17.3748   14.7464 C   0  0  0  0  0  0  0  0  0  0  0  0
  -23.2627  -20.7110   11.5562 C   0  0  0  0  0  0  0  0  0  0  0  0
  -23.7878  -22.1781    9.6970 C   0  0  0  0  0  0  0  0  0  0  0  0
  -23.2406  -24.4195    8.2075 C   0  0  0  0  0  0  0  0  0  0  0  0
  -23.0504  -24.4709    9.5738 C   0  0  0  0  0  0  0  0  0  0  0  0
  -23.3360  -23.3149   10.3166 C   0  0  0  0  0  0  0  0  0  0  0  0
  -27.0746  -18.0426    9.5159 C   0  0  0  0  0  0  0  0  0  0  0  0
  -26.4008  -18.1665   10.7283 O   0  0  0  0  0  0  0  0  0  0  0  0
  -25.3513  -19.0358   10.9886 C   0  0  0  0  0  0  0  0  0  0  0  0
  -24.5104  -18.7805   12.0621 C   0  0  0  0  0  0  0  0  0  0  0  0
  -23.4521  -19.6112   12.3663 C   0  0  0  0  0  0  0  0  0  0  0  0
  -22.5331  -19.3911   13.4894 C   0  0  0  0  0  0  0  0  0  0  0  0
  -21.4864  -18.4916   13.2056 O   0  0  0  0  0  0  0  0  0  0  0  0
  -20.4716  -18.4119   14.1579 C   0  0  0  0  0  0  0  0  0  0  0  0
  -19.3420  -17.4936   13.9700 C   0  0  0  0  0  0  0  0  0  0  0  0
  -18.0265  -15.9086   13.1350 N   0  0  0  0  0  0  0  0  0  0  0  0
  -20.5016  -19.1214   15.1934 O   0  0  0  0  0  0  0  0  0  0  0  0
  -24.0776  -20.9981   10.4799 C   0  0  0  0  0  0  0  0  0  0  0  0
  -23.9590  -22.1829    8.3352 C   0  0  0  0  0  0  0  0  0  0  0  0
  -23.6844  -23.3038    7.5982 N   0  0  0  0  0  0  0  0  0  0  0  0
  -25.1274  -20.1463   10.2034 C   0  0  0  0  0  0  0  0  0  0  0  0
 17  1  1  0
  1 18  2  0
  3  2  1  0
  2 18  1  0
 17  3  2  0
 13  4  2  0
  4 20  1  0
  5  8  2  0
 20  5  1  0
  5 21  1  0
  7  6  2  0
  6 22  1  0
  8  7  1  0
 10  9  1  0
 11 10  1  0
 12 11  2  0
 11 23  1  0
 13 12  1  0
 14 13  1  0
 15 14  1  0
 16 15  1  0
 16 17  1  0
 16 19  2  0
 20 23  2  0
 21 22  2  0
M  END
$$$$
