
     RDKit          3D

 23 25  0  0  0  0  0  0  0  0999 V2000
  -17.6570  -15.7017   13.0915 C   0  0  0  0  0  0  0  0  0  0  0  0
  -16.4460  -17.4681   12.8135 N   0  0  0  0  0  0  0  0  0  0  0  0
  -17.7293  -17.8686   12.7782 C   0  0  0  0  0  0  0  0  0  0  0  0
  -23.6626  -19.5957   13.3518 C   0  0  0  0  0  0  0  0  0  0  0  0
  -25.1604  -21.3995   13.9748 C   0  0  0  0  0  0  0  0  0  0  0  0
  -26.5793  -22.7518   15.8983 C   0  0  0  0  0  0  0  0  0  0  0  0
  -26.8052  -23.0591   14.5717 C   0  0  0  0  0  0  0  0  0  0  0  0
  -26.0697  -22.3567   13.6045 C   0  0  0  0  0  0  0  0  0  0  0  0
  -24.3063  -21.7653    8.8019 C   0  0  0  0  0  0  0  0  0  0  0  0
  -23.6585  -20.6716    9.3706 O   0  0  0  0  0  0  0  0  0  0  0  0
  -23.6743  -20.3275   10.7146 C   0  0  0  0  0  0  0  0  0  0  0  0
  -22.9336  -19.2356   11.1432 C   0  0  0  0  0  0  0  0  0  0  0  0
  -22.9132  -18.8492   12.4671 C   0  0  0  0  0  0  0  0  0  0  0  0
  -22.1503  -17.7029   12.9754 C   0  0  0  0  0  0  0  0  0  0  0  0
  -20.7528  -17.8660   12.9003 O   0  0  0  0  0  0  0  0  0  0  0  0
  -19.9940  -16.7000   12.9892 C   0  0  0  0  0  0  0  0  0  0  0  0
  -18.5278  -16.7590   12.9534 C   0  0  0  0  0  0  0  0  0  0  0  0
  -16.3891  -16.1559   13.0031 N   0  0  0  0  0  0  0  0  0  0  0  0
  -20.5463  -15.5780   13.1016 O   0  0  0  0  0  0  0  0  0  0  0  0
  -24.4119  -20.6879   12.9635 C   0  0  0  0  0  0  0  0  0  0  0  0
  -24.9759  -21.1343   15.3087 C   0  0  0  0  0  0  0  0  0  0  0  0
  -25.6865  -21.8122   16.2629 N   0  0  0  0  0  0  0  0  0  0  0  0
  -24.4100  -21.0474   11.6313 C   0  0  0  0  0  0  0  0  0  0  0  0
 17  1  1  0
  1 18  2  0
  3  2  1  0
  2 18  1  0
 17  3  2  0
 13  4  2  0
  4 20  1  0
  5  8  2  0
 20  5  1  0
  5 21  1  0
  7  6  2  0
  6 22  1  0
  8  7  1  0
 10  9  1  0
 11 10  1  0
 12 11  2  0
 11 23  1  0
 13 12  1  0
 14 13  1  0
 15 14  1  0
 16 15  1  0
 16 17  1  0
 16 19  2  0
 20 23  2  0
 21 22  2  0
M  END
$$$$
