
     RDKit          3D

 23 25  0  0  0  0  0  0  0  0999 V2000
   -4.6753   -7.5960   27.9579 C   0  0  0  0  0  0  0  0  0  0  0  0
   -4.9953   -8.6293   29.8757 N   0  0  0  0  0  0  0  0  0  0  0  0
   -6.1033   -7.9229   29.6279 C   0  0  0  0  0  0  0  0  0  0  0  0
  -10.9541   -3.9598   28.2075 C   0  0  0  0  0  0  0  0  0  0  0  0
  -12.8402   -2.5042   28.9166 C   0  0  0  0  0  0  0  0  0  0  0  0
  -14.1223   -0.0017   29.0789 C   0  0  0  0  0  0  0  0  0  0  0  0
  -12.7489   -0.1230   29.2138 C   0  0  0  0  0  0  0  0  0  0  0  0
  -12.1144   -1.3499   29.1349 C   0  0  0  0  0  0  0  0  0  0  0  0
  -14.1375   -6.9489   30.4700 C   0  0  0  0  0  0  0  0  0  0  0  0
  -12.8880   -7.2368   29.8656 O   0  0  0  0  0  0  0  0  0  0  0  0
  -12.2036   -6.1742   29.2978 C   0  0  0  0  0  0  0  0  0  0  0  0
  -10.9784   -6.2759   28.6724 C   0  0  0  0  0  0  0  0  0  0  0  0
  -10.3389   -5.1857   28.1227 C   0  0  0  0  0  0  0  0  0  0  0  0
   -9.0272   -5.3480   27.4623 C   0  0  0  0  0  0  0  0  0  0  0  0
   -8.1228   -6.1052   28.2261 O   0  0  0  0  0  0  0  0  0  0  0  0
   -6.8480   -6.3804   27.7438 C   0  0  0  0  0  0  0  0  0  0  0  0
   -5.9235   -7.2681   28.4310 C   0  0  0  0  0  0  0  0  0  0  0  0
   -4.1498   -8.4289   28.8761 N   0  0  0  0  0  0  0  0  0  0  0  0
   -6.5305   -5.8125   26.6643 O   0  0  0  0  0  0  0  0  0  0  0  0
  -12.1935   -3.8021   28.8295 C   0  0  0  0  0  0  0  0  0  0  0  0
  -14.2163   -2.3479   28.7856 C   0  0  0  0  0  0  0  0  0  0  0  0
  -14.8031   -1.1424   28.8671 N   0  0  0  0  0  0  0  0  0  0  0  0
  -12.7877   -4.9290   29.3624 C   0  0  0  0  0  0  0  0  0  0  0  0
 17  1  1  0
  1 18  2  0
  3  2  1  0
  2 18  1  0
 17  3  2  0
 13  4  2  0
  4 20  1  0
  5  8  2  0
 20  5  1  0
  5 21  1  0
  7  6  2  0
  6 22  1  0
  8  7  1  0
  9 10  1  1
 11 10  1  0
 12 11  2  0
 11 23  1  0
 13 12  1  0
 14 13  1  0
 14 15  1  6
 16 15  1  0
 16 17  1  0
 16 19  2  0
 20 23  2  0
 21 22  2  0
M  END
$$$$
