
     RDKit          3D

 23 25  0  0  0  0  0  0  0  0999 V2000
  -14.4685  -10.7706   22.2422 C   0  0  0  0  0  0  0  0  0  0  0  0
  -12.4335  -11.5187   21.8585 N   0  0  0  0  0  0  0  0  0  0  0  0
  -12.5171  -11.2831   23.1721 C   0  0  0  0  0  0  0  0  0  0  0  0
  -12.8779   -8.1204   28.2775 C   0  0  0  0  0  0  0  0  0  0  0  0
  -11.6384   -6.3045   29.4373 C   0  0  0  0  0  0  0  0  0  0  0  0
  -11.0680   -3.5853   29.8993 C   0  0  0  0  0  0  0  0  0  0  0  0
  -12.3417   -4.0116   29.5597 C   0  0  0  0  0  0  0  0  0  0  0  0
  -12.6269   -5.3460   29.3318 C   0  0  0  0  0  0  0  0  0  0  0  0
  -10.3044  -10.5133   31.7256 C   0  0  0  0  0  0  0  0  0  0  0  0
  -10.7333  -10.9380   30.4430 O   0  0  0  0  0  0  0  0  0  0  0  0
  -11.4744  -10.0361   29.6965 C   0  0  0  0  0  0  0  0  0  0  0  0
  -12.4342  -10.3878   28.7703 C   0  0  0  0  0  0  0  0  0  0  0  0
  -13.1447   -9.4496   28.0529 C   0  0  0  0  0  0  0  0  0  0  0  0
  -14.1636   -9.8784   27.0727 C   0  0  0  0  0  0  0  0  0  0  0  0
  -13.6015  -10.3736   25.8838 O   0  0  0  0  0  0  0  0  0  0  0  0
  -14.3511  -10.4206   24.7137 C   0  0  0  0  0  0  0  0  0  0  0  0
  -13.7841  -10.8138   23.4335 C   0  0  0  0  0  0  0  0  0  0  0  0
  -13.6001  -11.2108   21.3121 N   0  0  0  0  0  0  0  0  0  0  0  0
  -15.5653  -10.1001   24.8214 O   0  0  0  0  0  0  0  0  0  0  0  0
  -11.9170   -7.7109   29.2031 C   0  0  0  0  0  0  0  0  0  0  0  0
  -10.3713   -5.8436   29.7796 C   0  0  0  0  0  0  0  0  0  0  0  0
  -10.1258   -4.5406   29.9947 N   0  0  0  0  0  0  0  0  0  0  0  0
  -11.2361   -8.6944   29.8930 C   0  0  0  0  0  0  0  0  0  0  0  0
 17  1  1  0
  1 18  2  0
  3  2  1  0
  2 18  1  0
 17  3  2  0
 13  4  2  0
  4 20  1  0
  5  8  2  0
 20  5  1  0
  5 21  1  0
  7  6  2  0
  6 22  1  0
  8  7  1  0
  9 10  1  1
 11 10  1  0
 12 11  2  0
 11 23  1  0
 13 12  1  0
 14 13  1  0
 14 15  1  6
 16 15  1  0
 16 17  1  0
 16 19  2  0
 20 23  2  0
 21 22  2  0
M  END
$$$$
