
     RDKit          3D

 23 25  0  0  0  0  0  0  0  0999 V2000
  -17.3685  -18.1624   13.4553 C   0  0  0  0  0  0  0  0  0  0  0  0
  -17.6327  -16.2283   12.5315 N   0  0  0  0  0  0  0  0  0  0  0  0
  -18.8286  -16.8421   12.4941 C   0  0  0  0  0  0  0  0  0  0  0  0
  -24.0091  -18.7521   12.5842 C   0  0  0  0  0  0  0  0  0  0  0  0
  -25.9950  -17.3764   12.3637 C   0  0  0  0  0  0  0  0  0  0  0  0
  -27.4567  -15.1747   13.1107 C   0  0  0  0  0  0  0  0  0  0  0  0
  -26.6499  -15.7829   14.0513 C   0  0  0  0  0  0  0  0  0  0  0  0
  -25.9112  -16.9065   13.6492 C   0  0  0  0  0  0  0  0  0  0  0  0
  -24.6353  -22.6322    9.4120 C   0  0  0  0  0  0  0  0  0  0  0  0
  -25.2708  -21.4303    9.7132 O   0  0  0  0  0  0  0  0  0  0  0  0
  -24.8660  -20.5170   10.6759 C   0  0  0  0  0  0  0  0  0  0  0  0
  -23.6494  -20.7023   11.3166 C   0  0  0  0  0  0  0  0  0  0  0  0
  -23.1982  -19.8255   12.2811 C   0  0  0  0  0  0  0  0  0  0  0  0
  -21.9206  -19.9711   12.9887 C   0  0  0  0  0  0  0  0  0  0  0  0
  -20.9808  -18.9654   12.6875 O   0  0  0  0  0  0  0  0  0  0  0  0
  -19.7209  -19.1109   13.2659 C   0  0  0  0  0  0  0  0  0  0  0  0
  -18.6903  -18.0825   13.0786 C   0  0  0  0  0  0  0  0  0  0  0  0
  -16.7389  -17.0191   13.1121 N   0  0  0  0  0  0  0  0  0  0  0  0
  -19.4411  -20.1211   13.9572 O   0  0  0  0  0  0  0  0  0  0  0  0
  -25.2252  -18.5343   11.9688 C   0  0  0  0  0  0  0  0  0  0  0  0
  -26.8133  -16.7326   11.4695 C   0  0  0  0  0  0  0  0  0  0  0  0
  -27.5395  -15.6352   11.8482 N   0  0  0  0  0  0  0  0  0  0  0  0
  -25.6467  -19.4309   11.0083 C   0  0  0  0  0  0  0  0  0  0  0  0
 17  1  1  0
  1 18  2  0
  3  2  1  0
  2 18  1  0
 17  3  2  0
 13  4  2  0
  4 20  1  0
  5  8  2  0
 20  5  1  0
  5 21  1  0
  7  6  2  0
  6 22  1  0
  8  7  1  0
 10  9  1  0
 11 10  1  0
 12 11  2  0
 11 23  1  0
 13 12  1  0
 14 13  1  0
 15 14  1  0
 16 15  1  0
 16 17  1  0
 16 19  2  0
 20 23  2  0
 21 22  2  0
M  END
$$$$
