
     RDKit          3D

 23 25  0  0  0  0  0  0  0  0999 V2000
  -14.3204  -11.0833   22.6791 C   0  0  0  0  0  0  0  0  0  0  0  0
  -12.2793  -11.1670   21.9786 N   0  0  0  0  0  0  0  0  0  0  0  0
  -12.2258  -10.9175   23.2989 C   0  0  0  0  0  0  0  0  0  0  0  0
  -12.1953   -8.3490   28.3934 C   0  0  0  0  0  0  0  0  0  0  0  0
  -10.9524   -6.4061   29.1453 C   0  0  0  0  0  0  0  0  0  0  0  0
  -10.3288   -3.7433   28.8954 C   0  0  0  0  0  0  0  0  0  0  0  0
   -9.3089   -4.6413   29.1383 C   0  0  0  0  0  0  0  0  0  0  0  0
   -9.6488   -5.9973   29.2625 C   0  0  0  0  0  0  0  0  0  0  0  0
  -10.7928  -12.1646   31.3906 C   0  0  0  0  0  0  0  0  0  0  0  0
  -10.5393  -10.8010   31.2662 O   0  0  0  0  0  0  0  0  0  0  0  0
  -11.0839   -9.9582   30.3081 C   0  0  0  0  0  0  0  0  0  0  0  0
  -12.0055  -10.4661   29.4040 C   0  0  0  0  0  0  0  0  0  0  0  0
  -12.5780   -9.6733   28.4312 C   0  0  0  0  0  0  0  0  0  0  0  0
  -13.5584  -10.1563   27.4516 C   0  0  0  0  0  0  0  0  0  0  0  0
  -13.0337  -10.3357   26.1563 O   0  0  0  0  0  0  0  0  0  0  0  0
  -13.9609  -10.6088   25.1518 C   0  0  0  0  0  0  0  0  0  0  0  0
  -13.5179  -10.8585   23.7748 C   0  0  0  0  0  0  0  0  0  0  0  0
  -13.5443  -11.2696   21.5908 N   0  0  0  0  0  0  0  0  0  0  0  0
  -15.1907  -10.6469   25.4021 O   0  0  0  0  0  0  0  0  0  0  0  0
  -11.2819   -7.8075   29.2752 C   0  0  0  0  0  0  0  0  0  0  0  0
  -11.9266   -5.4701   28.9036 C   0  0  0  0  0  0  0  0  0  0  0  0
  -11.6091   -4.1438   28.7800 N   0  0  0  0  0  0  0  0  0  0  0  0
  -10.7282   -8.6285   30.2361 C   0  0  0  0  0  0  0  0  0  0  0  0
 17  1  1  0
  1 18  2  0
  3  2  1  0
  2 18  1  0
 17  3  2  0
 13  4  2  0
  4 20  1  0
  5  8  2  0
 20  5  1  0
  5 21  1  0
  7  6  2  0
  6 22  1  0
  8  7  1  0
 10  9  1  0
 11 10  1  0
 12 11  2  0
 11 23  1  0
 13 12  1  0
 14 13  1  0
 15 14  1  0
 16 15  1  0
 16 17  1  0
 16 19  2  0
 20 23  2  0
 21 22  2  0
M  END
$$$$
