
     RDKit          3D

 23 25  0  0  0  0  0  0  0  0999 V2000
  -13.3180  -11.4607   22.1681 C   0  0  0  0  0  0  0  0  0  0  0  0
  -13.8614   -9.5313   21.3643 N   0  0  0  0  0  0  0  0  0  0  0  0
  -13.7751   -9.3849   22.6983 C   0  0  0  0  0  0  0  0  0  0  0  0
  -12.9547   -8.7355   28.8093 C   0  0  0  0  0  0  0  0  0  0  0  0
  -13.1164   -7.2669   30.7335 C   0  0  0  0  0  0  0  0  0  0  0  0
  -14.4590   -6.4231   32.9756 C   0  0  0  0  0  0  0  0  0  0  0  0
  -14.5119   -7.7604   32.6374 C   0  0  0  0  0  0  0  0  0  0  0  0
  -13.8189   -8.1710   31.4881 C   0  0  0  0  0  0  0  0  0  0  0  0
   -8.7454   -5.9756   28.1120 C   0  0  0  0  0  0  0  0  0  0  0  0
   -9.3866   -7.0840   27.5649 O   0  0  0  0  0  0  0  0  0  0  0  0
  -10.5873   -7.6249   28.0017 C   0  0  0  0  0  0  0  0  0  0  0  0
  -11.1679   -8.6574   27.2796 C   0  0  0  0  0  0  0  0  0  0  0  0
  -12.3602   -9.2317   27.6683 C   0  0  0  0  0  0  0  0  0  0  0  0
  -13.0177  -10.3263   26.9448 C   0  0  0  0  0  0  0  0  0  0  0  0
  -13.4428   -9.9812   25.6465 O   0  0  0  0  0  0  0  0  0  0  0  0
  -13.2199  -10.9351   24.6547 C   0  0  0  0  0  0  0  0  0  0  0  0
  -13.4286  -10.6038   23.2400 C   0  0  0  0  0  0  0  0  0  0  0  0
  -13.5864  -10.7860   21.0305 N   0  0  0  0  0  0  0  0  0  0  0  0
  -12.8370  -12.0942   24.9489 O   0  0  0  0  0  0  0  0  0  0  0  0
  -12.4081   -7.7099   29.5539 C   0  0  0  0  0  0  0  0  0  0  0  0
  -13.0978   -5.9491   31.1163 C   0  0  0  0  0  0  0  0  0  0  0  0
  -13.7693   -5.5347   32.2354 N   0  0  0  0  0  0  0  0  0  0  0  0
  -11.2142   -7.1578   29.1369 C   0  0  0  0  0  0  0  0  0  0  0  0
 17  1  1  0
  1 18  2  0
  3  2  1  0
  2 18  1  0
 17  3  2  0
 13  4  2  0
  4 20  1  0
  5  8  2  0
 20  5  1  0
  5 21  1  0
  7  6  2  0
  6 22  1  0
  8  7  1  0
 10  9  1  0
 11 10  1  0
 12 11  2  0
 11 23  1  0
 13 12  1  0
 14 13  1  0
 15 14  1  0
 16 15  1  0
 16 17  1  0
 16 19  2  0
 20 23  2  0
 21 22  2  0
M  END
$$$$
