
     RDKit          3D

 23 25  0  0  0  0  0  0  0  0999 V2000
  -20.0474  -19.1328    4.7185 C   0  0  0  0  0  0  0  0  0  0  0  0
  -19.6508  -17.7198    6.3599 N   0  0  0  0  0  0  0  0  0  0  0  0
  -20.4074  -18.6986    6.8673 C   0  0  0  0  0  0  0  0  0  0  0  0
  -22.8373  -24.0180    9.0564 C   0  0  0  0  0  0  0  0  0  0  0  0
  -22.8507  -25.6159   10.9605 C   0  0  0  0  0  0  0  0  0  0  0  0
  -22.0228  -28.0300   12.1518 C   0  0  0  0  0  0  0  0  0  0  0  0
  -23.2957  -27.5214   12.3526 C   0  0  0  0  0  0  0  0  0  0  0  0
  -23.7071  -26.3361   11.7697 C   0  0  0  0  0  0  0  0  0  0  0  0
  -25.5775  -20.1777   10.7024 C   0  0  0  0  0  0  0  0  0  0  0  0
  -25.3406  -21.4871   11.1909 O   0  0  0  0  0  0  0  0  0  0  0  0
  -24.5054  -22.2979   10.4392 C   0  0  0  0  0  0  0  0  0  0  0  0
  -24.0563  -21.9975    9.1701 C   0  0  0  0  0  0  0  0  0  0  0  0
  -23.2250  -22.8402    8.4640 C   0  0  0  0  0  0  0  0  0  0  0  0
  -22.7708  -22.4715    7.1073 C   0  0  0  0  0  0  0  0  0  0  0  0
  -22.0902  -21.2425    7.0759 O   0  0  0  0  0  0  0  0  0  0  0  0
  -21.4464  -20.8206    5.9179 C   0  0  0  0  0  0  0  0  0  0  0  0
  -20.6671  -19.5944    5.8553 C   0  0  0  0  0  0  0  0  0  0  0  0
  -19.4410  -17.9860    5.0795 N   0  0  0  0  0  0  0  0  0  0  0  0
  -21.5750  -21.5670    4.9104 O   0  0  0  0  0  0  0  0  0  0  0  0
  -23.2631  -24.3697   10.3381 C   0  0  0  0  0  0  0  0  0  0  0  0
  -21.5806  -26.1537   10.7794 C   0  0  0  0  0  0  0  0  0  0  0  0
  -21.2107  -27.3075   11.3594 N   0  0  0  0  0  0  0  0  0  0  0  0
  -24.0950  -23.4871   10.9985 C   0  0  0  0  0  0  0  0  0  0  0  0
 17  1  1  0
  1 18  2  0
  3  2  1  0
  2 18  1  0
 17  3  2  0
 13  4  2  0
  4 20  1  0
  5  8  2  0
 20  5  1  0
  5 21  1  0
  7  6  2  0
  6 22  1  0
  8  7  1  0
  9 10  1  1
 11 10  1  0
 12 11  2  0
 11 23  1  0
 13 12  1  0
 14 13  1  0
 14 15  1  6
 16 15  1  0
 16 17  1  0
 16 19  2  0
 20 23  2  0
 21 22  2  0
M  END
$$$$
