
     RDKit          3D

 32 35  0  0  0  0  0  0  0  0999 V2000
  -20.1640    5.3398    0.0837 C   0  0  0  0  0  0  0  0  0  0  0  0
  -14.4901    9.1732    0.0154 C   0  0  0  0  0  0  0  0  0  0  0  0
  -10.8227    8.9856   -0.7172 C   0  0  0  0  0  0  0  0  0  0  0  0
  -10.2351    9.2162    0.5090 C   0  0  0  0  0  0  0  0  0  0  0  0
  -11.0751    9.4369    1.5918 C   0  0  0  0  0  0  0  0  0  0  0  0
  -12.4527    9.4221    1.4257 C   0  0  0  0  0  0  0  0  0  0  0  0
  -26.8148    8.7792   -3.2603 C   0  0  0  0  0  0  0  0  0  0  0  0
  -25.4210    9.0717   -2.8339 C   0  0  0  0  0  0  0  0  0  0  0  0
  -25.0897   10.2027   -2.1155 C   0  0  0  0  0  0  0  0  0  0  0  0
  -23.7892   10.4582   -1.7289 C   0  0  0  0  0  0  0  0  0  0  0  0
  -22.7544    9.5980   -2.0396 C   0  0  0  0  0  0  0  0  0  0  0  0
  -20.0406    8.4684   -1.5536 C   0  0  1  0  0  0  0  0  0  0  0  0
  -19.5900    6.4880   -0.6791 C   0  0  2  0  0  0  0  0  0  0  0  0
  -18.1477    6.7495   -0.3881 C   0  0  1  0  0  0  0  0  0  0  0  0
  -17.6094    7.7964   -1.3317 C   0  0  1  0  0  0  0  0  0  0  0  0
  -15.1977    8.2480   -0.7236 C   0  0  0  0  0  0  0  0  0  0  0  0
  -13.0457    9.1926    0.2050 C   0  0  0  0  0  0  0  0  0  0  0  0
  -12.1977    8.9753   -0.8594 C   0  0  0  0  0  0  0  0  0  0  0  0
  -18.6148    8.7398   -1.8783 C   0  0  1  0  0  0  0  0  0  0  0  0
  -23.0854    8.4682   -2.7572 C   0  0  0  0  0  0  0  0  0  0  0  0
  -24.3913    8.2094   -3.1467 C   0  0  0  0  0  0  0  0  0  0  0  0
  -10.0036    8.7703   -1.7729 F   0  0  0  0  0  0  0  0  0  0  0  0
   -8.8841    9.2291    0.6630 F   0  0  0  0  0  0  0  0  0  0  0  0
  -10.4930    9.6614    2.7891 F   0  0  0  0  0  0  0  0  0  0  0  0
  -16.5097    8.5279   -0.6851 N   0  0  0  0  0  0  0  0  0  0  0  0
  -15.4263   10.0105    0.4932 N   0  0  0  0  0  0  0  0  0  0  0  0
  -16.6234    9.6105    0.0653 N   0  0  0  0  0  0  0  0  0  0  0  0
  -20.2657    7.6841   -0.4370 O   0  0  0  0  0  0  0  0  0  0  0  0
  -21.1856    4.6935   -0.5772 O   0  0  0  0  0  0  0  0  0  0  0  0
  -18.0294    7.2342    0.9099 O   0  0  0  0  0  0  0  0  0  0  0  0
  -18.4495    8.8948   -3.2772 O   0  0  0  0  0  0  0  0  0  0  0  0
  -21.0749    9.9649   -1.5204 S   0  0  0  0  0  0  0  0  0  0  0  0
 13  1  1  1
  1 29  1  0
 16  2  2  0
  2 17  1  0
  2 26  1  0
  4  3  2  0
  3 18  1  0
  3 22  1  0
  5  4  1  0
  4 23  1  0
  6  5  2  0
  5 24  1  0
 17  6  1  0
  8  7  1  0
  9  8  2  0
  8 21  1  0
 10  9  1  0
 11 10  2  0
 11 20  1  0
 32 11  1  0
 19 12  1  0
 12 28  1  0
 12 32  1  1
 14 13  1  0
 13 28  1  0
 15 14  1  0
 14 30  1  1
 15 19  1  0
 15 25  1  1
 16 25  1  0
 17 18  2  0
 19 31  1  6
 20 21  2  0
 25 27  1  0
 26 27  2  0
M  END
$$$$
