
     RDKit          3D

 32 35  0  0  0  0  0  0  0  0999 V2000
  -19.6200   10.2952   -4.8357 C   0  0  0  0  0  0  0  0  0  0  0  0
  -14.7254    8.3470   -0.3105 C   0  0  0  0  0  0  0  0  0  0  0  0
  -11.0353    8.2761    0.3215 C   0  0  0  0  0  0  0  0  0  0  0  0
  -10.9261    8.6453    1.6459 C   0  0  0  0  0  0  0  0  0  0  0  0
  -12.0998    8.9209    2.3340 C   0  0  0  0  0  0  0  0  0  0  0  0
  -13.3275    8.8229    1.6949 C   0  0  0  0  0  0  0  0  0  0  0  0
  -27.0576    9.1492   -0.0194 C   0  0  0  0  0  0  0  0  0  0  0  0
  -25.6660    8.7154   -0.3121 C   0  0  0  0  0  0  0  0  0  0  0  0
  -25.0731    8.9141   -1.5425 C   0  0  0  0  0  0  0  0  0  0  0  0
  -23.7797    8.5034   -1.7963 C   0  0  0  0  0  0  0  0  0  0  0  0
  -23.0132    7.8742   -0.8350 C   0  0  0  0  0  0  0  0  0  0  0  0
  -20.3138    8.7648   -1.7276 C   0  0  1  0  0  0  0  0  0  0  0  0
  -19.4510    9.9288   -3.3980 C   0  0  2  0  0  0  0  0  0  0  0  0
  -18.0256    9.8338   -2.9595 C   0  0  1  0  0  0  0  0  0  0  0  0
  -17.9541    9.6447   -1.4644 C   0  0  1  0  0  0  0  0  0  0  0  0
  -15.6710    9.3452   -0.4215 C   0  0  0  0  0  0  0  0  0  0  0  0
  -13.4437    8.4550    0.3736 C   0  0  0  0  0  0  0  0  0  0  0  0
  -12.2692    8.1848   -0.2949 C   0  0  0  0  0  0  0  0  0  0  0  0
  -19.1430    9.0112   -0.8440 C   0  0  1  0  0  0  0  0  0  0  0  0
  -23.6056    7.6758    0.3941 C   0  0  0  0  0  0  0  0  0  0  0  0
  -24.9049    8.0876    0.6513 C   0  0  0  0  0  0  0  0  0  0  0  0
   -9.8910    8.0072   -0.3493 F   0  0  0  0  0  0  0  0  0  0  0  0
   -9.7189    8.7389    2.2645 F   0  0  0  0  0  0  0  0  0  0  0  0
  -11.9854    9.2812    3.6301 F   0  0  0  0  0  0  0  0  0  0  0  0
  -16.7316    8.9052   -1.1163 N   0  0  0  0  0  0  0  0  0  0  0  0
  -15.2608    7.3011   -0.9626 N   0  0  0  0  0  0  0  0  0  0  0  0
  -16.4562    7.6521   -1.4357 N   0  0  0  0  0  0  0  0  0  0  0  0
  -20.0444    8.7063   -3.0828 O   0  0  0  0  0  0  0  0  0  0  0  0
  -20.6154   11.2219   -5.0559 O   0  0  0  0  0  0  0  0  0  0  0  0
  -17.4396    8.7274   -3.5647 O   0  0  0  0  0  0  0  0  0  0  0  0
  -19.5424    9.7209    0.3158 O   0  0  0  0  0  0  0  0  0  0  0  0
  -21.3345    7.3531   -1.2027 S   0  0  0  0  0  0  0  0  0  0  0  0
 13  1  1  6
  1 29  1  0
 16  2  2  0
  2 17  1  0
  2 26  1  0
  4  3  2  0
  3 18  1  0
  3 22  1  0
  5  4  1  0
  4 23  1  0
  6  5  2  0
  5 24  1  0
 17  6  1  0
  8  7  1  0
  9  8  2  0
  8 21  1  0
 10  9  1  0
 11 10  2  0
 11 20  1  0
 32 11  1  0
 19 12  1  0
 12 28  1  0
 12 32  1  1
 14 13  1  0
 13 28  1  0
 15 14  1  0
 14 30  1  6
 15 19  1  0
 15 25  1  6
 16 25  1  0
 17 18  2  0
 19 31  1  1
 20 21  2  0
 25 27  1  0
 26 27  2  0
M  END
$$$$
