
     RDKit          3D

 32 35  0  0  0  0  0  0  0  0999 V2000
  -20.0587    5.3958    0.7018 C   0  0  0  0  0  0  0  0  0  0  0  0
  -14.4803    8.8022    0.1584 C   0  0  0  0  0  0  0  0  0  0  0  0
  -10.9372    8.4657   -0.9921 C   0  0  0  0  0  0  0  0  0  0  0  0
  -10.2555    8.8948    0.1267 C   0  0  0  0  0  0  0  0  0  0  0  0
  -10.9097    9.2974    1.2635 C   0  0  0  0  0  0  0  0  0  0  0  0
  -12.3033    9.2606    1.2574 C   0  0  0  0  0  0  0  0  0  0  0  0
  -26.6434    8.7593   -4.4824 C   0  0  0  0  0  0  0  0  0  0  0  0
  -25.3648    8.8814   -3.7282 C   0  0  0  0  0  0  0  0  0  0  0  0
  -24.9349   10.1322   -3.3381 C   0  0  0  0  0  0  0  0  0  0  0  0
  -23.7585   10.2761   -2.6402 C   0  0  0  0  0  0  0  0  0  0  0  0
  -22.9497    9.1865   -2.2944 C   0  0  0  0  0  0  0  0  0  0  0  0
  -20.2168    8.3458   -1.3796 C   0  0  1  0  0  0  0  0  0  0  0  0
  -19.6596    6.3155   -0.4319 C   0  0  2  0  0  0  0  0  0  0  0  0
  -18.2070    6.6094   -0.3428 C   0  0  1  0  0  0  0  0  0  0  0  0
  -17.7902    7.8776   -1.0469 C   0  0  1  0  0  0  0  0  0  0  0  0
  -15.3152    8.1596   -0.7285 C   0  0  0  0  0  0  0  0  0  0  0  0
  -13.0161    8.8409    0.1663 C   0  0  0  0  0  0  0  0  0  0  0  0
  -12.3232    8.4481   -0.9464 C   0  0  0  0  0  0  0  0  0  0  0  0
  -18.8738    8.9315   -1.0067 C   0  0  1  0  0  0  0  0  0  0  0  0
  -23.3836    7.9598   -2.6834 C   0  0  0  0  0  0  0  0  0  0  0  0
  -24.5817    7.8180   -3.3940 C   0  0  0  0  0  0  0  0  0  0  0  0
  -10.2582    8.0728   -2.1048 F   0  0  0  0  0  0  0  0  0  0  0  0
   -8.9086    8.9154    0.0915 F   0  0  0  0  0  0  0  0  0  0  0  0
  -10.2102    9.7134    2.3461 F   0  0  0  0  0  0  0  0  0  0  0  0
  -16.6093    8.3794   -0.3728 N   0  0  0  0  0  0  0  0  0  0  0  0
  -15.2973    9.4032    1.0407 N   0  0  0  0  0  0  0  0  0  0  0  0
  -16.5327    9.1459    0.7153 N   0  0  0  0  0  0  0  0  0  0  0  0
  -20.4979    7.4169   -0.3684 O   0  0  0  0  0  0  0  0  0  0  0  0
  -20.8423    4.3522    0.2134 O   0  0  0  0  0  0  0  0  0  0  0  0
  -17.7814    6.6150    0.9998 O   0  0  0  0  0  0  0  0  0  0  0  0
  -18.4812   10.0292   -1.7049 O   0  0  0  0  0  0  0  0  0  0  0  0
  -21.5043    9.5711   -1.3766 S   0  0  0  0  0  0  0  0  0  0  0  0
 13  1  1  0
  1 29  1  6
 16  2  2  0
  2 17  1  0
  2 26  1  0
  4  3  2  0
  3 18  1  0
  3 22  1  0
  5  4  1  0
  4 23  1  0
  6  5  2  0
  5 24  1  0
 17  6  1  0
  7  8  1  6
  9  8  2  0
  8 21  1  0
 10  9  1  0
 11 10  2  0
 11 20  1  0
 32 11  1  0
 19 12  1  0
 12 28  1  0
 12 32  1  1
 14 13  1  0
 13 28  1  1
 15 14  1  0
 14 30  1  1
 15 19  1  0
 15 25  1  1
 16 25  1  0
 17 18  2  0
 19 31  1  6
 20 21  2  0
 25 27  1  0
 26 27  2  0
M  END
$$$$
