
     RDKit          3D

 32 35  0  0  0  0  0  0  0  0999 V2000
  -20.3627    4.7231   -0.9377 C   0  0  0  0  0  0  0  0  0  0  0  0
  -14.4627    8.2379   -0.6615 C   0  0  0  0  0  0  0  0  0  0  0  0
  -11.4039   10.0185    0.5610 C   0  0  0  0  0  0  0  0  0  0  0  0
  -11.8987   10.9176    1.4823 C   0  0  0  0  0  0  0  0  0  0  0  0
  -13.2703   10.9279    1.6962 C   0  0  0  0  0  0  0  0  0  0  0  0
  -14.0958   10.0577    0.9985 C   0  0  0  0  0  0  0  0  0  0  0  0
  -26.4058   10.3865   -0.9871 C   0  0  0  0  0  0  0  0  0  0  0  0
  -24.9375   10.2096   -0.8361 C   0  0  0  0  0  0  0  0  0  0  0  0
  -24.1728    9.5443   -1.7728 C   0  0  0  0  0  0  0  0  0  0  0  0
  -22.8101    9.3889   -1.6150 C   0  0  0  0  0  0  0  0  0  0  0  0
  -22.1423    9.8898   -0.5148 C   0  0  0  0  0  0  0  0  0  0  0  0
  -19.8051    8.1975   -1.2566 C   0  0  1  0  0  0  0  0  0  0  0  0
  -19.7017    5.9913   -1.3669 C   0  0  2  0  0  0  0  0  0  0  0  0
  -18.2152    5.8916   -1.4836 C   0  0  1  0  0  0  0  0  0  0  0  0
  -17.6569    7.1523   -2.0961 C   0  0  1  0  0  0  0  0  0  0  0  0
  -15.8091    8.4051   -0.9105 C   0  0  0  0  0  0  0  0  0  0  0  0
  -13.6087    9.1580    0.0778 C   0  0  0  0  0  0  0  0  0  0  0  0
  -12.2451    9.1607   -0.1225 C   0  0  0  0  0  0  0  0  0  0  0  0
  -18.4763    8.3731   -1.9012 C   0  0  1  0  0  0  0  0  0  0  0  0
  -22.9062   10.5546    0.4209 C   0  0  0  0  0  0  0  0  0  0  0  0
  -24.2754   10.7119    0.2644 C   0  0  0  0  0  0  0  0  0  0  0  0
  -10.0666   10.0084    0.3527 F   0  0  0  0  0  0  0  0  0  0  0  0
  -11.0826   11.7669    2.1617 F   0  0  0  0  0  0  0  0  0  0  0  0
  -13.7476   11.8102    2.5998 F   0  0  0  0  0  0  0  0  0  0  0  0
  -16.2828    7.3686   -1.6193 N   0  0  0  0  0  0  0  0  0  0  0  0
  -14.1542    7.0680   -1.2463 N   0  0  0  0  0  0  0  0  0  0  0  0
  -15.2510    6.5645   -1.8117 N   0  0  0  0  0  0  0  0  0  0  0  0
  -19.9602    7.0516   -0.4980 O   0  0  0  0  0  0  0  0  0  0  0  0
  -21.7314    4.8264   -0.8199 O   0  0  0  0  0  0  0  0  0  0  0  0
  -17.6708    5.7499   -0.2118 O   0  0  0  0  0  0  0  0  0  0  0  0
  -18.6100    9.0876   -3.1178 O   0  0  0  0  0  0  0  0  0  0  0  0
  -20.3686    9.6669   -0.3436 S   0  0  0  0  0  0  0  0  0  0  0  0
 13  1  1  1
  1 29  1  0
 16  2  2  0
  2 17  1  0
  2 26  1  0
  4  3  2  0
  3 18  1  0
  3 22  1  0
  5  4  1  0
  4 23  1  0
  6  5  2  0
  5 24  1  0
 17  6  1  0
  8  7  1  0
  9  8  2  0
  8 21  1  0
 10  9  1  0
 11 10  2  0
 11 20  1  0
 32 11  1  0
 19 12  1  0
 12 28  1  0
 12 32  1  1
 14 13  1  0
 13 28  1  0
 15 14  1  0
 14 30  1  1
 15 19  1  0
 15 25  1  1
 16 25  1  0
 17 18  2  0
 19 31  1  6
 20 21  2  0
 25 27  1  0
 26 27  2  0
M  END
$$$$
