
     RDKit          3D

 32 35  0  0  0  0  0  0  0  0999 V2000
  -19.8452    5.5327    0.4604 C   0  0  0  0  0  0  0  0  0  0  0  0
  -14.5918    9.5546   -0.5493 C   0  0  0  0  0  0  0  0  0  0  0  0
  -11.1861   10.7947    0.3915 C   0  0  0  0  0  0  0  0  0  0  0  0
  -10.5264    9.6536    0.7974 C   0  0  0  0  0  0  0  0  0  0  0  0
  -11.2290    8.4571    0.7559 C   0  0  0  0  0  0  0  0  0  0  0  0
  -12.5457    8.4314    0.3190 C   0  0  0  0  0  0  0  0  0  0  0  0
  -27.0299    8.0144   -2.8013 C   0  0  0  0  0  0  0  0  0  0  0  0
  -25.6387    8.4494   -2.5091 C   0  0  0  0  0  0  0  0  0  0  0  0
  -25.0782    8.3390   -1.2527 C   0  0  0  0  0  0  0  0  0  0  0  0
  -23.7845    8.7492   -0.9998 C   0  0  0  0  0  0  0  0  0  0  0  0
  -22.9853    9.2899   -1.9879 C   0  0  0  0  0  0  0  0  0  0  0  0
  -20.1726    8.3917   -1.5897 C   0  0  1  0  0  0  0  0  0  0  0  0
  -19.4628    6.5896   -0.5227 C   0  0  2  0  0  0  0  0  0  0  0  0
  -18.0200    6.9751   -0.4690 C   0  0  1  0  0  0  0  0  0  0  0  0
  -17.6880    7.9035   -1.6109 C   0  0  1  0  0  0  0  0  0  0  0  0
  -15.3454    8.4318   -0.8220 C   0  0  0  0  0  0  0  0  0  0  0  0
  -13.2101    9.5662   -0.0874 C   0  0  0  0  0  0  0  0  0  0  0  0
  -12.4984   10.7455   -0.0402 C   0  0  0  0  0  0  0  0  0  0  0  0
  -18.8246    8.6965   -2.1393 C   0  0  1  0  0  0  0  0  0  0  0  0
  -23.5453    9.4001   -3.2430 C   0  0  0  0  0  0  0  0  0  0  0  0
  -24.8448    8.9886   -3.4994 C   0  0  0  0  0  0  0  0  0  0  0  0
  -10.5011   11.9612    0.4319 F   0  0  0  0  0  0  0  0  0  0  0  0
   -9.2358    9.6878    1.2241 F   0  0  0  0  0  0  0  0  0  0  0  0
  -10.5768    7.3441    1.1542 F   0  0  0  0  0  0  0  0  0  0  0  0
  -16.5756    8.7848   -1.2258 N   0  0  0  0  0  0  0  0  0  0  0  0
  -15.4164   10.5845   -0.8047 N   0  0  0  0  0  0  0  0  0  0  0  0
  -16.5937   10.1067   -1.2068 N   0  0  0  0  0  0  0  0  0  0  0  0
  -20.1934    7.7663   -0.3564 O   0  0  0  0  0  0  0  0  0  0  0  0
  -21.1039    5.0133    0.2510 O   0  0  0  0  0  0  0  0  0  0  0  0
  -17.7768    7.6495    0.7225 O   0  0  0  0  0  0  0  0  0  0  0  0
  -18.8497    8.6559   -3.5556 O   0  0  0  0  0  0  0  0  0  0  0  0
  -21.3073    9.8136   -1.6206 S   0  0  0  0  0  0  0  0  0  0  0  0
 13  1  1  1
  1 29  1  0
 16  2  2  0
  2 17  1  0
  2 26  1  0
  4  3  2  0
  3 18  1  0
  3 22  1  0
  5  4  1  0
  4 23  1  0
  6  5  2  0
  5 24  1  0
 17  6  1  0
  8  7  1  0
  9  8  2  0
  8 21  1  0
 10  9  1  0
 11 10  2  0
 11 20  1  0
 32 11  1  0
 19 12  1  0
 12 28  1  0
 12 32  1  1
 14 13  1  0
 13 28  1  0
 15 14  1  0
 14 30  1  1
 15 19  1  0
 15 25  1  1
 16 25  1  0
 17 18  2  0
 19 31  1  6
 20 21  2  0
 25 27  1  0
 26 27  2  0
M  END
$$$$
