
     RDKit          3D

 32 35  0  0  0  0  0  0  0  0999 V2000
  -19.8261    8.5437   -4.3764 C   0  0  0  0  0  0  0  0  0  0  0  0
  -14.9543    8.3840    0.2102 C   0  0  0  0  0  0  0  0  0  0  0  0
  -12.5526    9.0403    3.0015 C   0  0  0  0  0  0  0  0  0  0  0  0
  -11.3531    9.0405    2.3219 C   0  0  0  0  0  0  0  0  0  0  0  0
  -11.2880    8.8325    0.9673 C   0  0  0  0  0  0  0  0  0  0  0  0
  -12.4851    8.6176    0.2858 C   0  0  0  0  0  0  0  0  0  0  0  0
  -26.5844   11.1248    1.8071 C   0  0  0  0  0  0  0  0  0  0  0  0
  -25.5028   10.2017    1.3637 C   0  0  0  0  0  0  0  0  0  0  0  0
  -24.4633   10.7028    0.6089 C   0  0  0  0  0  0  0  0  0  0  0  0
  -23.4501    9.8746    0.1853 C   0  0  0  0  0  0  0  0  0  0  0  0
  -23.4175    8.5081    0.4893 C   0  0  0  0  0  0  0  0  0  0  0  0
  -20.7486    8.5942   -0.8826 C   0  0  1  0  0  0  0  0  0  0  0  0
  -19.8368    9.0569   -2.9527 C   0  0  2  0  0  0  0  0  0  0  0  0
  -18.4419    9.1693   -2.4567 C   0  0  1  0  0  0  0  0  0  0  0  0
  -18.3191    9.1516   -0.9526 C   0  0  1  0  0  0  0  0  0  0  0  0
  -16.0585    9.2039    0.1400 C   0  0  0  0  0  0  0  0  0  0  0  0
  -13.6959    8.6100    0.9249 C   0  0  0  0  0  0  0  0  0  0  0  0
  -13.7146    8.8218    2.2767 C   0  0  0  0  0  0  0  0  0  0  0  0
  -19.3836    8.2939   -0.3063 C   0  0  1  0  0  0  0  0  0  0  0  0
  -24.4461    8.0262    1.2336 C   0  0  0  0  0  0  0  0  0  0  0  0
  -25.4756    8.8729    1.6625 C   0  0  0  0  0  0  0  0  0  0  0  0
  -12.5831    9.2497    4.3464 F   0  0  0  0  0  0  0  0  0  0  0  0
  -10.2188    9.2519    3.0178 F   0  0  0  0  0  0  0  0  0  0  0  0
  -10.0933    8.8391    0.3293 F   0  0  0  0  0  0  0  0  0  0  0  0
  -17.0117    8.6150   -0.6309 N   0  0  0  0  0  0  0  0  0  0  0  0
  -15.2677    7.3052   -0.5280 N   0  0  0  0  0  0  0  0  0  0  0  0
  -16.4691    7.4575   -1.0095 N   0  0  0  0  0  0  0  0  0  0  0  0
  -20.6631    8.2127   -2.2286 O   0  0  0  0  0  0  0  0  0  0  0  0
  -20.8326    9.1649   -5.1129 O   0  0  0  0  0  0  0  0  0  0  0  0
  -17.6244    8.1824   -3.0409 O   0  0  0  0  0  0  0  0  0  0  0  0
  -19.2744    8.3577    1.0467 O   0  0  0  0  0  0  0  0  0  0  0  0
  -22.0260    7.6259   -0.1149 S   0  0  0  0  0  0  0  0  0  0  0  0
 13  1  1  0
  1 29  1  6
 16  2  2  0
  2 17  1  0
  2 26  1  0
  4  3  2  0
  3 18  1  0
  3 22  1  0
  5  4  1  0
  4 23  1  0
  6  5  2  0
  5 24  1  0
 17  6  1  0
  7  8  1  6
  9  8  2  0
  8 21  1  0
 10  9  1  0
 11 10  2  0
 11 20  1  0
 32 11  1  0
 19 12  1  0
 12 28  1  0
 12 32  1  1
 14 13  1  0
 13 28  1  1
 15 14  1  0
 14 30  1  6
 15 19  1  0
 15 25  1  6
 16 25  1  0
 17 18  2  0
 19 31  1  1
 20 21  2  0
 25 27  1  0
 26 27  2  0
M  END
$$$$
