
     RDKit          3D

 32 35  0  0  0  0  0  0  0  0999 V2000
  -19.9805    5.5009    0.3810 C   0  0  0  0  0  0  0  0  0  0  0  0
  -14.5062    9.0864   -0.0605 C   0  0  0  0  0  0  0  0  0  0  0  0
  -10.9249    9.0822    1.0184 C   0  0  0  0  0  0  0  0  0  0  0  0
  -10.2871    9.2922   -0.1857 C   0  0  0  0  0  0  0  0  0  0  0  0
  -10.9839    9.4386   -1.3585 C   0  0  0  0  0  0  0  0  0  0  0  0
  -12.3750    9.3682   -1.2997 C   0  0  0  0  0  0  0  0  0  0  0  0
  -26.2131    8.7616   -4.9317 C   0  0  0  0  0  0  0  0  0  0  0  0
  -25.1307    9.0774   -3.9584 C   0  0  0  0  0  0  0  0  0  0  0  0
  -23.9406    8.3848   -4.0334 C   0  0  0  0  0  0  0  0  0  0  0  0
  -22.9228    8.6549   -3.1484 C   0  0  0  0  0  0  0  0  0  0  0  0
  -23.0347    9.6252   -2.1451 C   0  0  0  0  0  0  0  0  0  0  0  0
  -20.3075    8.6602   -1.3430 C   0  0  1  0  0  0  0  0  0  0  0  0
  -19.6610    6.5514   -0.6606 C   0  0  2  0  0  0  0  0  0  0  0  0
  -18.2116    6.8701   -0.6137 C   0  0  1  0  0  0  0  0  0  0  0  0
  -17.8580    8.2191   -1.1906 C   0  0  1  0  0  0  0  0  0  0  0  0
  -15.3752    8.5261   -0.9702 C   0  0  0  0  0  0  0  0  0  0  0  0
  -13.0447    9.1610   -0.1236 C   0  0  0  0  0  0  0  0  0  0  0  0
  -12.3103    9.0204    1.0224 C   0  0  0  0  0  0  0  0  0  0  0  0
  -18.9578    9.2343   -0.9759 C   0  0  1  0  0  0  0  0  0  0  0  0
  -24.2109   10.3011   -2.0815 C   0  0  0  0  0  0  0  0  0  0  0  0
  -25.2445   10.0228   -2.9842 C   0  0  0  0  0  0  0  0  0  0  0  0
  -10.2042    8.9408    2.1648 F   0  0  0  0  0  0  0  0  0  0  0  0
   -8.9411    9.3537   -0.1994 F   0  0  0  0  0  0  0  0  0  0  0  0
  -10.3272    9.6441   -2.5251 F   0  0  0  0  0  0  0  0  0  0  0  0
  -16.6523    8.6721   -0.5257 N   0  0  0  0  0  0  0  0  0  0  0  0
  -15.2858    9.5642    0.9250 N   0  0  0  0  0  0  0  0  0  0  0  0
  -16.5318    9.3137    0.6366 N   0  0  0  0  0  0  0  0  0  0  0  0
  -20.5156    7.6173   -0.4300 O   0  0  0  0  0  0  0  0  0  0  0  0
  -20.3854    4.3222   -0.2419 O   0  0  0  0  0  0  0  0  0  0  0  0
  -17.7143    6.7363    0.6972 O   0  0  0  0  0  0  0  0  0  0  0  0
  -18.6248   10.4126   -1.5649 O   0  0  0  0  0  0  0  0  0  0  0  0
  -21.6163    9.8446   -1.1353 S   0  0  0  0  0  0  0  0  0  0  0  0
 13  1  1  0
  1 29  1  6
 16  2  2  0
  2 17  1  0
  2 26  1  0
  4  3  2  0
  3 18  1  0
  3 22  1  0
  5  4  1  0
  4 23  1  0
  6  5  2  0
  5 24  1  0
 17  6  1  0
  7  8  1  6
  9  8  2  0
  8 21  1  0
 10  9  1  0
 11 10  2  0
 11 20  1  0
 32 11  1  0
 19 12  1  0
 12 28  1  0
 12 32  1  1
 14 13  1  0
 13 28  1  1
 15 14  1  0
 14 30  1  1
 15 19  1  0
 15 25  1  1
 16 25  1  0
 17 18  2  0
 19 31  1  6
 20 21  2  0
 25 27  1  0
 26 27  2  0
M  END
$$$$
