
     RDKit          3D

 32 35  0  0  0  0  0  0  0  0999 V2000
  -20.1844    5.3414    0.2063 C   0  0  0  0  0  0  0  0  0  0  0  0
  -14.4279    8.6831    0.1317 C   0  0  0  0  0  0  0  0  0  0  0  0
  -10.8537    9.1285    1.1404 C   0  0  0  0  0  0  0  0  0  0  0  0
  -10.2578    9.3329   -0.0858 C   0  0  0  0  0  0  0  0  0  0  0  0
  -10.9811    9.3328   -1.2517 C   0  0  0  0  0  0  0  0  0  0  0  0
  -12.3556    9.1170   -1.1623 C   0  0  0  0  0  0  0  0  0  0  0  0
  -26.3094    9.6498   -4.5376 C   0  0  0  0  0  0  0  0  0  0  0  0
  -25.1429    9.6824   -3.6120 C   0  0  0  0  0  0  0  0  0  0  0  0
  -23.9138   10.0752   -4.0981 C   0  0  0  0  0  0  0  0  0  0  0  0
  -22.8186   10.1154   -3.2670 C   0  0  0  0  0  0  0  0  0  0  0  0
  -22.8879    9.7681   -1.9123 C   0  0  0  0  0  0  0  0  0  0  0  0
  -20.1807    8.6383   -1.2739 C   0  0  1  0  0  0  0  0  0  0  0  0
  -19.7408    6.4353   -0.7410 C   0  0  2  0  0  0  0  0  0  0  0  0
  -18.2719    6.6207   -0.6297 C   0  0  1  0  0  0  0  0  0  0  0  0
  -17.7846    7.9730   -1.0895 C   0  0  1  0  0  0  0  0  0  0  0  0
  -15.3202    8.4088   -0.8808 C   0  0  0  0  0  0  0  0  0  0  0  0
  -12.9839    8.9102    0.0364 C   0  0  0  0  0  0  0  0  0  0  0  0
  -12.2242    8.9185    1.1745 C   0  0  0  0  0  0  0  0  0  0  0  0
  -18.8002    9.0619   -0.8263 C   0  0  1  0  0  0  0  0  0  0  0  0
  -24.1036    9.3835   -1.4448 C   0  0  0  0  0  0  0  0  0  0  0  0
  -25.2158    9.3437   -2.2944 C   0  0  0  0  0  0  0  0  0  0  0  0
  -10.1075    9.1344    2.2792 F   0  0  0  0  0  0  0  0  0  0  0  0
   -8.9266    9.5376   -0.1287 F   0  0  0  0  0  0  0  0  0  0  0  0
  -10.3653    9.5370   -2.4406 F   0  0  0  0  0  0  0  0  0  0  0  0
  -16.5679    8.2667   -0.3586 N   0  0  0  0  0  0  0  0  0  0  0  0
  -15.1640    8.7009    1.2563 N   0  0  0  0  0  0  0  0  0  0  0  0
  -16.4072    8.4566    0.9512 N   0  0  0  0  0  0  0  0  0  0  0  0
  -20.5084    7.5518   -0.4513 O   0  0  0  0  0  0  0  0  0  0  0  0
  -21.2274    4.6140   -0.3633 O   0  0  0  0  0  0  0  0  0  0  0  0
  -17.8329    6.3452    0.6799 O   0  0  0  0  0  0  0  0  0  0  0  0
  -18.3476   10.2475   -1.3122 O   0  0  0  0  0  0  0  0  0  0  0  0
  -21.3897    9.9142   -1.0103 S   0  0  0  0  0  0  0  0  0  0  0  0
 13  1  1  0
  1 29  1  6
 16  2  2  0
  2 17  1  0
  2 26  1  0
  4  3  2  0
  3 18  1  0
  3 22  1  0
  5  4  1  0
  4 23  1  0
  6  5  2  0
  5 24  1  0
 17  6  1  0
  7  8  1  6
  9  8  2  0
  8 21  1  0
 10  9  1  0
 11 10  2  0
 11 20  1  0
 32 11  1  0
 19 12  1  0
 12 28  1  0
 12 32  1  1
 14 13  1  0
 13 28  1  1
 15 14  1  0
 14 30  1  1
 15 19  1  0
 15 25  1  1
 16 25  1  0
 17 18  2  0
 19 31  1  6
 20 21  2  0
 25 27  1  0
 26 27  2  0
M  END
$$$$
