
     RDKit          3D

 32 35  0  0  0  0  0  0  0  0999 V2000
  -19.9557    5.5265    0.7868 C   0  0  0  0  0  0  0  0  0  0  0  0
  -14.4804    8.9810    0.2579 C   0  0  0  0  0  0  0  0  0  0  0  0
  -10.8768    8.4444   -0.5883 C   0  0  0  0  0  0  0  0  0  0  0  0
  -10.2683    8.8592    0.5771 C   0  0  0  0  0  0  0  0  0  0  0  0
  -10.9923    9.3155    1.6495 C   0  0  0  0  0  0  0  0  0  0  0  0
  -12.3807    9.3491    1.5278 C   0  0  0  0  0  0  0  0  0  0  0  0
  -26.5999    8.2420   -4.4654 C   0  0  0  0  0  0  0  0  0  0  0  0
  -25.3058    8.5422   -3.7918 C   0  0  0  0  0  0  0  0  0  0  0  0
  -25.3193    9.1945   -2.5770 C   0  0  0  0  0  0  0  0  0  0  0  0
  -24.1400    9.4848   -1.9313 C   0  0  0  0  0  0  0  0  0  0  0  0
  -22.8886    9.1427   -2.4583 C   0  0  0  0  0  0  0  0  0  0  0  0
  -20.1786    8.3865   -1.4112 C   0  0  1  0  0  0  0  0  0  0  0  0
  -19.5713    6.4130   -0.3780 C   0  0  2  0  0  0  0  0  0  0  0  0
  -18.1295    6.7549   -0.2849 C   0  0  1  0  0  0  0  0  0  0  0  0
  -17.7431    8.0068   -1.0341 C   0  0  1  0  0  0  0  0  0  0  0  0
  -15.2863    8.2194   -0.5589 C   0  0  0  0  0  0  0  0  0  0  0  0
  -13.0218    8.9458    0.3873 C   0  0  0  0  0  0  0  0  0  0  0  0
  -12.2608    8.4978   -0.6581 C   0  0  0  0  0  0  0  0  0  0  0  0
  -18.8586    9.0275   -1.0473 C   0  0  1  0  0  0  0  0  0  0  0  0
  -22.8880    8.5001   -3.6547 C   0  0  0  0  0  0  0  0  0  0  0  0
  -24.0908    8.2068   -4.3087 C   0  0  0  0  0  0  0  0  0  0  0  0
  -10.1295    7.9970   -1.6348 F   0  0  0  0  0  0  0  0  0  0  0  0
   -8.9238    8.8110    0.6541 F   0  0  0  0  0  0  0  0  0  0  0  0
  -10.3639    9.7156    2.7807 F   0  0  0  0  0  0  0  0  0  0  0  0
  -16.5861    8.5709   -0.3677 N   0  0  0  0  0  0  0  0  0  0  0  0
  -15.3202    9.7852    0.9324 N   0  0  0  0  0  0  0  0  0  0  0  0
  -16.5416    9.5321    0.5550 N   0  0  0  0  0  0  0  0  0  0  0  0
  -20.4434    7.4896   -0.3671 O   0  0  0  0  0  0  0  0  0  0  0  0
  -21.0046    4.6866    0.4185 O   0  0  0  0  0  0  0  0  0  0  0  0
  -17.7203    6.8263    1.0609 O   0  0  0  0  0  0  0  0  0  0  0  0
  -18.4913   10.1086   -1.7841 O   0  0  0  0  0  0  0  0  0  0  0  0
  -21.5027    9.5706   -1.4705 S   0  0  0  0  0  0  0  0  0  0  0  0
 13  1  1  0
  1 29  1  6
 16  2  2  0
  2 17  1  0
  2 26  1  0
  4  3  2  0
  3 18  1  0
  3 22  1  0
  5  4  1  0
  4 23  1  0
  6  5  2  0
  5 24  1  0
 17  6  1  0
  7  8  1  6
  9  8  2  0
  8 21  1  0
 10  9  1  0
 11 10  2  0
 11 20  1  0
 32 11  1  0
 19 12  1  0
 12 28  1  0
 12 32  1  1
 14 13  1  0
 13 28  1  1
 15 14  1  0
 14 30  1  1
 15 19  1  0
 15 25  1  1
 16 25  1  0
 17 18  2  0
 19 31  1  6
 20 21  2  0
 25 27  1  0
 26 27  2  0
M  END
$$$$
