
     RDKit          3D

 32 35  0  0  0  0  0  0  0  0999 V2000
  -20.1164    5.4016    0.4147 C   0  0  0  0  0  0  0  0  0  0  0  0
  -14.5927    8.9400    0.0042 C   0  0  0  0  0  0  0  0  0  0  0  0
  -11.2148    9.0062   -1.6008 C   0  0  0  0  0  0  0  0  0  0  0  0
  -10.4043    9.1888   -0.5006 C   0  0  0  0  0  0  0  0  0  0  0  0
  -10.9173    9.2935    0.7676 C   0  0  0  0  0  0  0  0  0  0  0  0
  -12.3009    9.2092    0.9166 C   0  0  0  0  0  0  0  0  0  0  0  0
  -26.4517    9.7958   -4.3504 C   0  0  0  0  0  0  0  0  0  0  0  0
  -25.3418    9.8143   -3.3572 C   0  0  0  0  0  0  0  0  0  0  0  0
  -24.0394    9.8347   -3.8096 C   0  0  0  0  0  0  0  0  0  0  0  0
  -22.9938    9.8524   -2.9161 C   0  0  0  0  0  0  0  0  0  0  0  0
  -23.1879    9.8509   -1.5294 C   0  0  0  0  0  0  0  0  0  0  0  0
  -20.4636    8.7262   -0.9587 C   0  0  1  0  0  0  0  0  0  0  0  0
  -19.8310    6.5470   -0.5324 C   0  0  2  0  0  0  0  0  0  0  0  0
  -18.3740    6.8323   -0.5392 C   0  0  1  0  0  0  0  0  0  0  0  0
  -18.0209    8.2265   -0.9966 C   0  0  1  0  0  0  0  0  0  0  0  0
  -15.5270    8.5092   -0.9113 C   0  0  0  0  0  0  0  0  0  0  0  0
  -13.1388    9.0283   -0.1510 C   0  0  0  0  0  0  0  0  0  0  0  0
  -12.5846    8.9289   -1.3981 C   0  0  0  0  0  0  0  0  0  0  0  0
  -19.0816    9.2346   -0.6158 C   0  0  1  0  0  0  0  0  0  0  0  0
  -24.4747    9.8315   -1.0957 C   0  0  0  0  0  0  0  0  0  0  0  0
  -25.5361    9.8131   -2.0088 C   0  0  0  0  0  0  0  0  0  0  0  0
  -10.6742    8.9063   -2.8463 F   0  0  0  0  0  0  0  0  0  0  0  0
   -9.0721    9.2652   -0.6877 F   0  0  0  0  0  0  0  0  0  0  0  0
  -10.0936    9.4722    1.8278 F   0  0  0  0  0  0  0  0  0  0  0  0
  -16.7686    8.5866   -0.3618 N   0  0  0  0  0  0  0  0  0  0  0  0
  -15.2980    9.2723    1.0992 N   0  0  0  0  0  0  0  0  0  0  0  0
  -16.5627    9.0599    0.8674 N   0  0  0  0  0  0  0  0  0  0  0  0
  -20.6449    7.5994   -0.1452 O   0  0  0  0  0  0  0  0  0  0  0  0
  -20.9783    4.4889   -0.1898 O   0  0  0  0  0  0  0  0  0  0  0  0
  -17.8064    6.5559    0.7198 O   0  0  0  0  0  0  0  0  0  0  0  0
  -18.7539   10.4607   -1.1014 O   0  0  0  0  0  0  0  0  0  0  0  0
  -21.7291    9.9072   -0.5555 S   0  0  0  0  0  0  0  0  0  0  0  0
 13  1  1  0
  1 29  1  6
 16  2  2  0
  2 17  1  0
  2 26  1  0
  4  3  2  0
  3 18  1  0
  3 22  1  0
  5  4  1  0
  4 23  1  0
  6  5  2  0
  5 24  1  0
 17  6  1  0
  7  8  1  6
  9  8  2  0
  8 21  1  0
 10  9  1  0
 11 10  2  0
 11 20  1  0
 32 11  1  0
 19 12  1  0
 12 28  1  0
 12 32  1  1
 14 13  1  0
 13 28  1  1
 15 14  1  0
 14 30  1  1
 15 19  1  0
 15 25  1  1
 16 25  1  0
 17 18  2  0
 19 31  1  6
 20 21  2  0
 25 27  1  0
 26 27  2  0
M  END
$$$$
