
     RDKit          3D

 32 35  0  0  0  0  0  0  0  0999 V2000
  -19.8505    6.1525    0.9373 C   0  0  0  0  0  0  0  0  0  0  0  0
  -14.5880    9.3992   -0.3501 C   0  0  0  0  0  0  0  0  0  0  0  0
  -11.6097    8.4877    1.7210 C   0  0  0  0  0  0  0  0  0  0  0  0
  -10.5950    9.0743    0.9952 C   0  0  0  0  0  0  0  0  0  0  0  0
  -10.8404    9.7684   -0.1626 C   0  0  0  0  0  0  0  0  0  0  0  0
  -12.1630    9.8662   -0.5924 C   0  0  0  0  0  0  0  0  0  0  0  0
  -26.1953    6.7912   -5.0220 C   0  0  0  0  0  0  0  0  0  0  0  0
  -25.1249    7.5238   -4.2898 C   0  0  0  0  0  0  0  0  0  0  0  0
  -23.9145    6.8997   -4.0738 C   0  0  0  0  0  0  0  0  0  0  0  0
  -22.9071    7.5513   -3.4011 C   0  0  0  0  0  0  0  0  0  0  0  0
  -23.0502    8.8544   -2.9090 C   0  0  0  0  0  0  0  0  0  0  0  0
  -20.2765    8.4161   -1.8474 C   0  0  1  0  0  0  0  0  0  0  0  0
  -19.5534    6.7513   -0.4206 C   0  0  2  0  0  0  0  0  0  0  0  0
  -18.1211    7.1364   -0.4888 C   0  0  1  0  0  0  0  0  0  0  0  0
  -17.8141    8.1873   -1.5276 C   0  0  1  0  0  0  0  0  0  0  0  0
  -15.4425    8.3868   -0.7261 C   0  0  0  0  0  0  0  0  0  0  0  0
  -13.1979    9.2976    0.1005 C   0  0  0  0  0  0  0  0  0  0  0  0
  -12.9081    8.6144    1.2502 C   0  0  0  0  0  0  0  0  0  0  0  0
  -18.9628    9.1526   -1.7152 C   0  0  1  0  0  0  0  0  0  0  0  0
  -24.2464    9.4590   -3.1282 C   0  0  0  0  0  0  0  0  0  0  0  0
  -25.2691    8.7919   -3.8132 C   0  0  0  0  0  0  0  0  0  0  0  0
  -11.3328    7.8055    2.8663 F   0  0  0  0  0  0  0  0  0  0  0  0
   -9.3303    8.9564    1.4449 F   0  0  0  0  0  0  0  0  0  0  0  0
   -9.8209   10.3334   -0.8524 F   0  0  0  0  0  0  0  0  0  0  0  0
  -16.6458    8.9159   -1.0748 N   0  0  0  0  0  0  0  0  0  0  0  0
  -15.3015   10.5309   -0.4812 N   0  0  0  0  0  0  0  0  0  0  0  0
  -16.4969   10.2297   -0.9041 N   0  0  0  0  0  0  0  0  0  0  0  0
  -20.4598    7.7817   -0.6111 O   0  0  0  0  0  0  0  0  0  0  0  0
  -20.8890    5.2295    0.8324 O   0  0  0  0  0  0  0  0  0  0  0  0
  -17.6496    7.5282    0.7792 O   0  0  0  0  0  0  0  0  0  0  0  0
  -18.6685   10.0399   -2.7014 O   0  0  0  0  0  0  0  0  0  0  0  0
  -21.6412    9.5250   -2.1061 S   0  0  0  0  0  0  0  0  0  0  0  0
 13  1  1  0
  1 29  1  6
 16  2  2  0
  2 17  1  0
  2 26  1  0
  4  3  2  0
  3 18  1  0
  3 22  1  0
  5  4  1  0
  4 23  1  0
  6  5  2  0
  5 24  1  0
 17  6  1  0
  7  8  1  6
  9  8  2  0
  8 21  1  0
 10  9  1  0
 11 10  2  0
 11 20  1  0
 32 11  1  0
 19 12  1  0
 12 28  1  0
 12 32  1  1
 14 13  1  0
 13 28  1  1
 15 14  1  0
 14 30  1  1
 15 19  1  0
 15 25  1  1
 16 25  1  0
 17 18  2  0
 19 31  1  6
 20 21  2  0
 25 27  1  0
 26 27  2  0
M  END
$$$$
