
     RDKit          3D

 32 35  0  0  0  0  0  0  0  0999 V2000
  -20.2750    5.3726    0.2780 C   0  0  0  0  0  0  0  0  0  0  0  0
  -14.5480    9.1688    0.0737 C   0  0  0  0  0  0  0  0  0  0  0  0
  -11.1526   10.0079    1.4111 C   0  0  0  0  0  0  0  0  0  0  0  0
  -10.2941    9.3832    0.5309 C   0  0  0  0  0  0  0  0  0  0  0  0
  -10.8578    8.6737   -0.5208 C   0  0  0  0  0  0  0  0  0  0  0  0
  -12.2364    8.6076   -0.6635 C   0  0  0  0  0  0  0  0  0  0  0  0
  -26.5353    8.9262   -4.1581 C   0  0  0  0  0  0  0  0  0  0  0  0
  -25.2173    9.1767   -3.5177 C   0  0  0  0  0  0  0  0  0  0  0  0
  -24.8814   10.3986   -2.9708 C   0  0  0  0  0  0  0  0  0  0  0  0
  -23.6519   10.6130   -2.3809 C   0  0  0  0  0  0  0  0  0  0  0  0
  -22.6959    9.6190   -2.3070 C   0  0  0  0  0  0  0  0  0  0  0  0
  -20.0909    8.4272   -1.4883 C   0  0  1  0  0  0  0  0  0  0  0  0
  -19.6766    6.4806   -0.5246 C   0  0  2  0  0  0  0  0  0  0  0  0
  -18.2352    6.7371   -0.2249 C   0  0  1  0  0  0  0  0  0  0  0  0
  -17.6713    7.7365   -1.2043 C   0  0  1  0  0  0  0  0  0  0  0  0
  -15.2538    8.2457   -0.6697 C   0  0  0  0  0  0  0  0  0  0  0  0
  -13.0989    9.2286    0.2112 C   0  0  0  0  0  0  0  0  0  0  0  0
  -12.5232    9.9286    1.2494 C   0  0  0  0  0  0  0  0  0  0  0  0
  -18.6576    8.6677   -1.8043 C   0  0  1  0  0  0  0  0  0  0  0  0
  -23.0315    8.3983   -2.8533 C   0  0  0  0  0  0  0  0  0  0  0  0
  -24.2663    8.1806   -3.4465 C   0  0  0  0  0  0  0  0  0  0  0  0
  -10.6030   10.6996    2.4363 F   0  0  0  0  0  0  0  0  0  0  0  0
   -8.9442    9.4530    0.6781 F   0  0  0  0  0  0  0  0  0  0  0  0
  -10.0114    8.0652   -1.3788 F   0  0  0  0  0  0  0  0  0  0  0  0
  -16.5714    8.4818   -0.5741 N   0  0  0  0  0  0  0  0  0  0  0  0
  -15.4912    9.9596    0.6131 N   0  0  0  0  0  0  0  0  0  0  0  0
  -16.6905    9.5354    0.2159 N   0  0  0  0  0  0  0  0  0  0  0  0
  -20.3407    7.6938   -0.3427 O   0  0  0  0  0  0  0  0  0  0  0  0
  -21.1999    4.6247   -0.4170 O   0  0  0  0  0  0  0  0  0  0  0  0
  -18.1283    7.2750    1.0530 O   0  0  0  0  0  0  0  0  0  0  0  0
  -18.4716    8.7612   -3.2061 O   0  0  0  0  0  0  0  0  0  0  0  0
  -21.1068    9.9359   -1.5328 S   0  0  0  0  0  0  0  0  0  0  0  0
 13  1  1  1
  1 29  1  0
 16  2  2  0
  2 17  1  0
  2 26  1  0
  4  3  2  0
  3 18  1  0
  3 22  1  0
  5  4  1  0
  4 23  1  0
  6  5  2  0
  5 24  1  0
 17  6  1  0
  8  7  1  0
  9  8  2  0
  8 21  1  0
 10  9  1  0
 11 10  2  0
 11 20  1  0
 32 11  1  0
 19 12  1  0
 12 28  1  0
 12 32  1  1
 14 13  1  0
 13 28  1  0
 15 14  1  0
 14 30  1  1
 15 19  1  0
 15 25  1  1
 16 25  1  0
 17 18  2  0
 19 31  1  6
 20 21  2  0
 25 27  1  0
 26 27  2  0
M  END
$$$$
