
     RDKit          3D

 32 35  0  0  0  0  0  0  0  0999 V2000
  -20.3116    5.0974   -0.6478 C   0  0  0  0  0  0  0  0  0  0  0  0
  -14.4029    8.6991    0.1741 C   0  0  0  0  0  0  0  0  0  0  0  0
  -10.9472    9.6916    1.2204 C   0  0  0  0  0  0  0  0  0  0  0  0
  -10.1983    9.5129    0.0762 C   0  0  0  0  0  0  0  0  0  0  0  0
  -10.8568    9.0552   -1.0569 C   0  0  0  0  0  0  0  0  0  0  0  0
  -12.2189    8.7931   -1.0190 C   0  0  0  0  0  0  0  0  0  0  0  0
  -26.6549    9.8779   -2.7772 C   0  0  0  0  0  0  0  0  0  0  0  0
  -25.2621    9.9151   -2.2588 C   0  0  0  0  0  0  0  0  0  0  0  0
  -24.1935    9.4135   -2.9739 C   0  0  0  0  0  0  0  0  0  0  0  0
  -22.9066    9.4560   -2.4758 C   0  0  0  0  0  0  0  0  0  0  0  0
  -22.6217   10.0013   -1.2393 C   0  0  0  0  0  0  0  0  0  0  0  0
  -20.0056    8.5766   -1.1826 C   0  0  1  0  0  0  0  0  0  0  0  0
  -19.6748    6.3964   -1.0179 C   0  0  2  0  0  0  0  0  0  0  0  0
  -18.2130    6.4638   -0.7147 C   0  0  1  0  0  0  0  0  0  0  0  0
  -17.6220    7.7284   -1.2871 C   0  0  1  0  0  0  0  0  0  0  0  0
  -15.1935    8.3029   -0.8846 C   0  0  0  0  0  0  0  0  0  0  0  0
  -12.9723    8.9693    0.1194 C   0  0  0  0  0  0  0  0  0  0  0  0
  -12.3034    9.4241    1.2351 C   0  0  0  0  0  0  0  0  0  0  0  0
  -18.5707    8.8556   -1.4573 C   0  0  1  0  0  0  0  0  0  0  0  0
  -23.6892   10.5024   -0.5250 C   0  0  0  0  0  0  0  0  0  0  0  0
  -24.9829   10.4608   -1.0235 C   0  0  0  0  0  0  0  0  0  0  0  0
  -10.3051   10.1379    2.3250 F   0  0  0  0  0  0  0  0  0  0  0  0
   -8.8638    9.7722    0.0478 F   0  0  0  0  0  0  0  0  0  0  0  0
  -10.1176    8.8831   -2.1734 F   0  0  0  0  0  0  0  0  0  0  0  0
  -16.4636    8.1428   -0.4817 N   0  0  0  0  0  0  0  0  0  0  0  0
  -15.2466    8.7684    1.2177 N   0  0  0  0  0  0  0  0  0  0  0  0
  -16.4698    8.4338    0.8081 N   0  0  0  0  0  0  0  0  0  0  0  0
  -20.2632    7.4849   -0.3736 O   0  0  0  0  0  0  0  0  0  0  0  0
  -21.6288    4.9972   -1.0389 O   0  0  0  0  0  0  0  0  0  0  0  0
  -18.0385    6.4896    0.6647 O   0  0  0  0  0  0  0  0  0  0  0  0
  -18.4207    9.4496   -2.7352 O   0  0  0  0  0  0  0  0  0  0  0  0
  -20.9349   10.0376   -0.6241 S   0  0  0  0  0  0  0  0  0  0  0  0
 13  1  1  1
  1 29  1  0
 16  2  2  0
  2 17  1  0
  2 26  1  0
  4  3  2  0
  3 18  1  0
  3 22  1  0
  5  4  1  0
  4 23  1  0
  6  5  2  0
  5 24  1  0
 17  6  1  0
  8  7  1  0
  9  8  2  0
  8 21  1  0
 10  9  1  0
 11 10  2  0
 11 20  1  0
 32 11  1  0
 19 12  1  0
 12 28  1  0
 12 32  1  1
 14 13  1  0
 13 28  1  0
 15 14  1  0
 14 30  1  1
 15 19  1  0
 15 25  1  1
 16 25  1  0
 17 18  2  0
 19 31  1  6
 20 21  2  0
 25 27  1  0
 26 27  2  0
M  END
$$$$
