
     RDKit          3D

 32 35  0  0  0  0  0  0  0  0999 V2000
  -20.1645    4.7970   -0.9728 C   0  0  0  0  0  0  0  0  0  0  0  0
  -14.6416    8.9030   -0.1491 C   0  0  0  0  0  0  0  0  0  0  0  0
  -11.3851   10.7202    0.1899 C   0  0  0  0  0  0  0  0  0  0  0  0
  -10.4693    9.8501   -0.3636 C   0  0  0  0  0  0  0  0  0  0  0  0
  -10.9469    8.6428   -0.8549 C   0  0  0  0  0  0  0  0  0  0  0  0
  -12.2994    8.3415   -0.7824 C   0  0  0  0  0  0  0  0  0  0  0  0
  -27.0553    9.2058   -2.6408 C   0  0  0  0  0  0  0  0  0  0  0  0
  -25.6667    9.3028   -2.1188 C   0  0  0  0  0  0  0  0  0  0  0  0
  -24.5612    9.0630   -2.9095 C   0  0  0  0  0  0  0  0  0  0  0  0
  -23.2789    9.1570   -2.4069 C   0  0  0  0  0  0  0  0  0  0  0  0
  -23.0354    9.4952   -1.0902 C   0  0  0  0  0  0  0  0  0  0  0  0
  -20.3005    8.3196   -1.2111 C   0  0  1  0  0  0  0  0  0  0  0  0
  -19.7089    6.1895   -1.2610 C   0  0  2  0  0  0  0  0  0  0  0  0
  -18.2477    6.4085   -1.0371 C   0  0  1  0  0  0  0  0  0  0  0  0
  -17.8471    7.7781   -1.5271 C   0  0  1  0  0  0  0  0  0  0  0  0
  -15.4306    8.4326   -1.1782 C   0  0  0  0  0  0  0  0  0  0  0  0
  -13.2187    9.2051   -0.2315 C   0  0  0  0  0  0  0  0  0  0  0  0
  -12.7282   10.3991    0.2515 C   0  0  0  0  0  0  0  0  0  0  0  0
  -18.9294    8.7921   -1.5413 C   0  0  1  0  0  0  0  0  0  0  0  0
  -24.1398    9.7349   -0.3003 C   0  0  0  0  0  0  0  0  0  0  0  0
  -25.4291    9.6410   -0.8031 C   0  0  0  0  0  0  0  0  0  0  0  0
  -10.9194   11.8973    0.6688 F   0  0  0  0  0  0  0  0  0  0  0  0
   -9.1455   10.1533   -0.4306 F   0  0  0  0  0  0  0  0  0  0  0  0
  -10.0448    7.7962   -1.3957 F   0  0  0  0  0  0  0  0  0  0  0  0
  -16.6929    8.2625   -0.7554 N   0  0  0  0  0  0  0  0  0  0  0  0
  -15.4781    9.0059    0.8975 N   0  0  0  0  0  0  0  0  0  0  0  0
  -16.6959    8.6203    0.5175 N   0  0  0  0  0  0  0  0  0  0  0  0
  -20.3747    7.1421   -0.4895 O   0  0  0  0  0  0  0  0  0  0  0  0
  -21.5281    4.6298   -1.0760 O   0  0  0  0  0  0  0  0  0  0  0  0
  -17.9848    6.3422    0.3268 O   0  0  0  0  0  0  0  0  0  0  0  0
  -18.9357    9.5025   -2.7675 O   0  0  0  0  0  0  0  0  0  0  0  0
  -21.3531    9.6064   -0.4720 S   0  0  0  0  0  0  0  0  0  0  0  0
 13  1  1  1
  1 29  1  0
 16  2  2  0
  2 17  1  0
  2 26  1  0
  4  3  2  0
  3 18  1  0
  3 22  1  0
  5  4  1  0
  4 23  1  0
  6  5  2  0
  5 24  1  0
 17  6  1  0
  8  7  1  0
  9  8  2  0
  8 21  1  0
 10  9  1  0
 11 10  2  0
 11 20  1  0
 32 11  1  0
 19 12  1  0
 12 28  1  0
 12 32  1  1
 14 13  1  0
 13 28  1  0
 15 14  1  0
 14 30  1  1
 15 19  1  0
 15 25  1  1
 16 25  1  0
 17 18  2  0
 19 31  1  6
 20 21  2  0
 25 27  1  0
 26 27  2  0
M  END
$$$$
