
     RDKit          3D

 32 35  0  0  0  0  0  0  0  0999 V2000
  -20.2051    5.1000   -0.0110 C   0  0  0  0  0  0  0  0  0  0  0  0
  -14.5750    9.0473    0.1987 C   0  0  0  0  0  0  0  0  0  0  0  0
  -10.9632    8.6950   -0.7245 C   0  0  0  0  0  0  0  0  0  0  0  0
  -10.2996    9.2793    0.3340 C   0  0  0  0  0  0  0  0  0  0  0  0
  -11.0693    9.7967    1.3669 C   0  0  0  0  0  0  0  0  0  0  0  0
  -12.4538    9.7189    1.3174 C   0  0  0  0  0  0  0  0  0  0  0  0
  -26.9166    8.9198   -2.9257 C   0  0  0  0  0  0  0  0  0  0  0  0
  -25.5332    9.1523   -2.4337 C   0  0  0  0  0  0  0  0  0  0  0  0
  -25.1421    8.8336   -1.1490 C   0  0  0  0  0  0  0  0  0  0  0  0
  -23.8527    9.0577   -0.7095 C   0  0  0  0  0  0  0  0  0  0  0  0
  -22.8891    9.6107   -1.5298 C   0  0  0  0  0  0  0  0  0  0  0  0
  -20.1749    8.4271   -1.2000 C   0  0  1  0  0  0  0  0  0  0  0  0
  -19.6716    6.3516   -0.6264 C   0  0  2  0  0  0  0  0  0  0  0  0
  -18.2222    6.5922   -0.3534 C   0  0  1  0  0  0  0  0  0  0  0  0
  -17.7303    7.7680   -1.1606 C   0  0  1  0  0  0  0  0  0  0  0  0
  -15.2994    8.2594   -0.6716 C   0  0  0  0  0  0  0  0  0  0  0  0
  -13.1224    9.1371    0.2642 C   0  0  0  0  0  0  0  0  0  0  0  0
  -12.3436    8.6285   -0.7527 C   0  0  0  0  0  0  0  0  0  0  0  0
  -18.7650    8.7627   -1.5344 C   0  0  1  0  0  0  0  0  0  0  0  0
  -23.2798    9.9289   -2.8132 C   0  0  0  0  0  0  0  0  0  0  0  0
  -24.5746    9.7047   -3.2570 C   0  0  0  0  0  0  0  0  0  0  0  0
  -10.2127    8.1905   -1.7315 F   0  0  0  0  0  0  0  0  0  0  0  0
   -8.9424    9.3514    0.3746 F   0  0  0  0  0  0  0  0  0  0  0  0
  -10.4131   10.3668    2.4000 F   0  0  0  0  0  0  0  0  0  0  0  0
  -16.6146    8.4194   -0.4581 N   0  0  0  0  0  0  0  0  0  0  0  0
  -15.5046    9.6793    0.9350 N   0  0  0  0  0  0  0  0  0  0  0  0
  -16.7139    9.2930    0.5294 N   0  0  0  0  0  0  0  0  0  0  0  0
  -20.3500    7.4921   -0.1961 O   0  0  0  0  0  0  0  0  0  0  0  0
  -21.5129    4.8316   -0.3510 O   0  0  0  0  0  0  0  0  0  0  0  0
  -18.0604    6.8938    0.9944 O   0  0  0  0  0  0  0  0  0  0  0  0
  -18.6537    9.1128   -2.9030 O   0  0  0  0  0  0  0  0  0  0  0  0
  -21.2223    9.8885   -0.9219 S   0  0  0  0  0  0  0  0  0  0  0  0
 13  1  1  1
  1 29  1  0
 16  2  2  0
  2 17  1  0
  2 26  1  0
  4  3  2  0
  3 18  1  0
  3 22  1  0
  5  4  1  0
  4 23  1  0
  6  5  2  0
  5 24  1  0
 17  6  1  0
  8  7  1  0
  9  8  2  0
  8 21  1  0
 10  9  1  0
 11 10  2  0
 11 20  1  0
 32 11  1  0
 19 12  1  0
 12 28  1  0
 12 32  1  1
 14 13  1  0
 13 28  1  0
 15 14  1  0
 14 30  1  1
 15 19  1  0
 15 25  1  1
 16 25  1  0
 17 18  2  0
 19 31  1  6
 20 21  2  0
 25 27  1  0
 26 27  2  0
M  END
$$$$
