
     RDKit          3D

 32 35  0  0  0  0  0  0  0  0999 V2000
  -20.2063    4.7836    0.0635 C   0  0  0  0  0  0  0  0  0  0  0  0
  -14.6002    8.7656    0.1637 C   0  0  0  0  0  0  0  0  0  0  0  0
  -11.1593    9.3934    1.5008 C   0  0  0  0  0  0  0  0  0  0  0  0
  -10.3363    9.0697    0.4425 C   0  0  0  0  0  0  0  0  0  0  0  0
  -10.9396    8.6366   -0.7304 C   0  0  0  0  0  0  0  0  0  0  0  0
  -12.3212    8.5399   -0.8146 C   0  0  0  0  0  0  0  0  0  0  0  0
  -24.8860   10.3656   -5.8609 C   0  0  0  0  0  0  0  0  0  0  0  0
  -24.0047   10.1587   -4.6817 C   0  0  0  0  0  0  0  0  0  0  0  0
  -24.3883    9.3966   -3.5968 C   0  0  0  0  0  0  0  0  0  0  0  0
  -23.5565    9.2163   -2.5098 C   0  0  0  0  0  0  0  0  0  0  0  0
  -22.3003    9.7872   -2.4510 C   0  0  0  0  0  0  0  0  0  0  0  0
  -20.1898    8.0672   -1.2413 C   0  0  1  0  0  0  0  0  0  0  0  0
  -19.6773    6.0161   -0.5930 C   0  0  2  0  0  0  0  0  0  0  0  0
  -18.2306    6.2747   -0.3220 C   0  0  1  0  0  0  0  0  0  0  0  0
  -17.7416    7.4244   -1.1677 C   0  0  1  0  0  0  0  0  0  0  0  0
  -15.3159    7.9410   -0.6793 C   0  0  0  0  0  0  0  0  0  0  0  0
  -13.1484    8.8613    0.2375 C   0  0  0  0  0  0  0  0  0  0  0  0
  -12.5336    9.2895    1.3943 C   0  0  0  0  0  0  0  0  0  0  0  0
  -18.7803    8.3992   -1.5808 C   0  0  1  0  0  0  0  0  0  0  0  0
  -21.9172   10.5485   -3.5349 C   0  0  0  0  0  0  0  0  0  0  0  0
  -22.7512   10.7310   -4.6280 C   0  0  0  0  0  0  0  0  0  0  0  0
  -10.5711    9.8157    2.6442 F   0  0  0  0  0  0  0  0  0  0  0  0
   -8.9832    9.1673    0.5335 F   0  0  0  0  0  0  0  0  0  0  0  0
  -10.1279    8.3219   -1.7624 F   0  0  0  0  0  0  0  0  0  0  0  0
  -16.6331    8.1067   -0.4834 N   0  0  0  0  0  0  0  0  0  0  0  0
  -15.5371    9.4253    0.8657 N   0  0  0  0  0  0  0  0  0  0  0  0
  -16.7422    9.0200    0.4664 N   0  0  0  0  0  0  0  0  0  0  0  0
  -20.3643    7.1669   -0.2061 O   0  0  0  0  0  0  0  0  0  0  0  0
  -21.5630    4.6096   -0.1009 O   0  0  0  0  0  0  0  0  0  0  0  0
  -18.0769    6.6243    1.0151 O   0  0  0  0  0  0  0  0  0  0  0  0
  -18.6645    8.7019   -2.9604 O   0  0  0  0  0  0  0  0  0  0  0  0
  -21.2469    9.5311   -1.0194 S   0  0  0  0  0  0  0  0  0  0  0  0
 13  1  1  1
  1 29  1  0
 16  2  2  0
  2 17  1  0
  2 26  1  0
  4  3  2  0
  3 18  1  0
  3 22  1  0
  5  4  1  0
  4 23  1  0
  6  5  2  0
  5 24  1  0
 17  6  1  0
  8  7  1  0
  9  8  2  0
  8 21  1  0
 10  9  1  0
 11 10  2  0
 11 20  1  0
 32 11  1  0
 19 12  1  0
 12 28  1  0
 12 32  1  1
 14 13  1  0
 13 28  1  0
 15 14  1  0
 14 30  1  1
 15 19  1  0
 15 25  1  1
 16 25  1  0
 17 18  2  0
 19 31  1  6
 20 21  2  0
 25 27  1  0
 26 27  2  0
M  END
$$$$
