
     RDKit          3D

 32 35  0  0  0  0  0  0  0  0999 V2000
  -20.2759    6.2963   -3.2089 C   0  0  0  0  0  0  0  0  0  0  0  0
  -14.8555    8.4400    0.0422 C   0  0  0  0  0  0  0  0  0  0  0  0
  -11.9381   10.4217    1.2879 C   0  0  0  0  0  0  0  0  0  0  0  0
  -10.8862    9.6563    0.8318 C   0  0  0  0  0  0  0  0  0  0  0  0
  -11.0864    8.4995    0.1216 C   0  0  0  0  0  0  0  0  0  0  0  0
  -12.4019    8.1126   -0.1303 C   0  0  0  0  0  0  0  0  0  0  0  0
  -27.0926   11.6248   -1.1948 C   0  0  0  0  0  0  0  0  0  0  0  0
  -25.8220   11.0159   -0.7118 C   0  0  0  0  0  0  0  0  0  0  0  0
  -25.4383    9.7874   -1.2068 C   0  0  0  0  0  0  0  0  0  0  0  0
  -24.2699    9.2005   -0.7797 C   0  0  0  0  0  0  0  0  0  0  0  0
  -23.4240    9.8028    0.1597 C   0  0  0  0  0  0  0  0  0  0  0  0
  -20.7060    8.8625   -0.7009 C   0  0  1  0  0  0  0  0  0  0  0  0
  -20.0384    7.6311   -2.5364 C   0  0  2  0  0  0  0  0  0  0  0  0
  -18.5852    7.8090   -2.2890 C   0  0  1  0  0  0  0  0  0  0  0  0
  -18.2625    8.7963   -1.1942 C   0  0  1  0  0  0  0  0  0  0  0  0
  -15.8533    9.1546   -0.5826 C   0  0  0  0  0  0  0  0  0  0  0  0
  -13.4730    8.8456    0.3058 C   0  0  0  0  0  0  0  0  0  0  0  0
  -13.2274    9.9926    1.0105 C   0  0  0  0  0  0  0  0  0  0  0  0
  -19.3158    8.8053   -0.1093 C   0  0  1  0  0  0  0  0  0  0  0  0
  -23.8120   11.0126    0.6395 C   0  0  0  0  0  0  0  0  0  0  0  0
  -25.0023   11.6063    0.2022 C   0  0  0  0  0  0  0  0  0  0  0  0
  -11.7055   11.5646    1.9902 F   0  0  0  0  0  0  0  0  0  0  0  0
   -9.6298   10.0652    1.0966 F   0  0  0  0  0  0  0  0  0  0  0  0
  -10.0311    7.7702   -0.3128 F   0  0  0  0  0  0  0  0  0  0  0  0
  -16.9891    8.4075   -0.6215 N   0  0  0  0  0  0  0  0  0  0  0  0
  -15.4164    7.2634    0.3710 N   0  0  0  0  0  0  0  0  0  0  0  0
  -16.6585    7.2629   -0.0233 N   0  0  0  0  0  0  0  0  0  0  0  0
  -20.8451    7.6617   -1.4103 O   0  0  0  0  0  0  0  0  0  0  0  0
  -21.4170    6.3623   -4.0058 O   0  0  0  0  0  0  0  0  0  0  0  0
  -17.9655    6.5676   -2.0469 O   0  0  0  0  0  0  0  0  0  0  0  0
  -19.0182    9.7507    0.8203 O   0  0  0  0  0  0  0  0  0  0  0  0
  -21.9645    8.9114    0.5531 S   0  0  0  0  0  0  0  0  0  0  0  0
 13  1  1  0
  1 29  1  6
 16  2  2  0
  2 17  1  0
  2 26  1  0
  4  3  2  0
  3 18  1  0
  3 22  1  0
  5  4  1  0
  4 23  1  0
  6  5  2  0
  5 24  1  0
 17  6  1  0
  7  8  1  6
  9  8  2  0
  8 21  1  0
 10  9  1  0
 11 10  2  0
 11 20  1  0
 32 11  1  0
 19 12  1  0
 12 28  1  0
 12 32  1  1
 14 13  1  0
 13 28  1  1
 15 14  1  0
 14 30  1  1
 15 19  1  0
 15 25  1  1
 16 25  1  0
 17 18  2  0
 19 31  1  1
 20 21  2  0
 25 27  1  0
 26 27  2  0
M  END
$$$$
