
     RDKit          3D

 32 35  0  0  0  0  0  0  0  0999 V2000
  -20.0579    5.2601   -0.0512 C   0  0  0  0  0  0  0  0  0  0  0  0
  -14.5509    9.0863   -0.0678 C   0  0  0  0  0  0  0  0  0  0  0  0
  -11.7160   11.2387   -1.2170 C   0  0  0  0  0  0  0  0  0  0  0  0
  -10.6512   10.6291   -0.5884 C   0  0  0  0  0  0  0  0  0  0  0  0
  -10.8164    9.5254    0.2097 C   0  0  0  0  0  0  0  0  0  0  0  0
  -12.1093    9.0291    0.3708 C   0  0  0  0  0  0  0  0  0  0  0  0
  -26.9561    9.4642   -3.0224 C   0  0  0  0  0  0  0  0  0  0  0  0
  -25.6790    9.5612   -2.2620 C   0  0  0  0  0  0  0  0  0  0  0  0
  -24.4880    9.5958   -2.9561 C   0  0  0  0  0  0  0  0  0  0  0  0
  -23.2929    9.6855   -2.2811 C   0  0  0  0  0  0  0  0  0  0  0  0
  -23.2196    9.7452   -0.8840 C   0  0  0  0  0  0  0  0  0  0  0  0
  -20.3805    8.7700   -0.8494 C   0  0  1  0  0  0  0  0  0  0  0  0
  -19.7810    6.5407   -0.8088 C   0  0  2  0  0  0  0  0  0  0  0  0
  -18.3193    6.8002   -0.8244 C   0  0  1  0  0  0  0  0  0  0  0  0
  -17.9521    8.2448   -1.0612 C   0  0  1  0  0  0  0  0  0  0  0  0
  -15.5707    9.0390   -0.9921 C   0  0  0  0  0  0  0  0  0  0  0  0
  -13.1920    9.6065   -0.2365 C   0  0  0  0  0  0  0  0  0  0  0  0
  -12.9816   10.7056   -1.0240 C   0  0  0  0  0  0  0  0  0  0  0  0
  -18.9767    9.1934   -0.4809 C   0  0  1  0  0  0  0  0  0  0  0  0
  -24.3989    9.7110   -0.2114 C   0  0  0  0  0  0  0  0  0  0  0  0
  -25.6131    9.6194   -0.9025 C   0  0  0  0  0  0  0  0  0  0  0  0
  -11.5183   12.3330   -2.0025 F   0  0  0  0  0  0  0  0  0  0  0  0
   -9.4176   11.1401   -0.7700 F   0  0  0  0  0  0  0  0  0  0  0  0
   -9.7492    8.9495    0.8129 F   0  0  0  0  0  0  0  0  0  0  0  0
  -16.6709    8.4763   -0.4242 N   0  0  0  0  0  0  0  0  0  0  0  0
  -15.0628    8.5451    1.0512 N   0  0  0  0  0  0  0  0  0  0  0  0
  -16.2977    8.1959    0.8246 N   0  0  0  0  0  0  0  0  0  0  0  0
  -20.5578    7.5280   -0.2243 O   0  0  0  0  0  0  0  0  0  0  0  0
  -21.0318    4.5167   -0.7148 O   0  0  0  0  0  0  0  0  0  0  0  0
  -17.7141    6.3123    0.3501 O   0  0  0  0  0  0  0  0  0  0  0  0
  -18.6396   10.4772   -0.7720 O   0  0  0  0  0  0  0  0  0  0  0  0
  -21.6053    9.8886   -0.2109 S   0  0  0  0  0  0  0  0  0  0  0  0
 13  1  1  0
  1 29  1  6
 16  2  2  0
  2 17  1  0
  2 26  1  0
  4  3  2  0
  3 18  1  0
  3 22  1  0
  5  4  1  0
  4 23  1  0
  6  5  2  0
  5 24  1  0
 17  6  1  0
  7  8  1  6
  9  8  2  0
  8 21  1  0
 10  9  1  0
 11 10  2  0
 11 20  1  0
 32 11  1  0
 19 12  1  0
 12 28  1  0
 12 32  1  1
 14 13  1  0
 13 28  1  1
 15 14  1  0
 14 30  1  1
 15 19  1  0
 15 25  1  1
 16 25  1  0
 17 18  2  0
 19 31  1  6
 20 21  2  0
 25 27  1  0
 26 27  2  0
M  END
$$$$
