
     RDKit          3D

 32 35  0  0  0  0  0  0  0  0999 V2000
  -20.0308    5.0973    0.3094 C   0  0  0  0  0  0  0  0  0  0  0  0
  -14.4017    8.5489    0.2507 C   0  0  0  0  0  0  0  0  0  0  0  0
  -10.8809    9.0288    1.4186 C   0  0  0  0  0  0  0  0  0  0  0  0
  -10.1922    8.9211    0.2292 C   0  0  0  0  0  0  0  0  0  0  0  0
  -10.8345    8.6947   -0.9619 C   0  0  0  0  0  0  0  0  0  0  0  0
  -12.2233    8.5745   -0.9372 C   0  0  0  0  0  0  0  0  0  0  0  0
  -25.3036    9.4861   -5.7883 C   0  0  0  0  0  0  0  0  0  0  0  0
  -24.3478    9.5812   -4.6498 C   0  0  0  0  0  0  0  0  0  0  0  0
  -23.9202    8.4224   -4.0367 C   0  0  0  0  0  0  0  0  0  0  0  0
  -23.0376    8.4788   -2.9833 C   0  0  0  0  0  0  0  0  0  0  0  0
  -22.5352    9.6874   -2.4855 C   0  0  0  0  0  0  0  0  0  0  0  0
  -20.1275    8.3171   -1.3288 C   0  0  1  0  0  0  0  0  0  0  0  0
  -19.6088    6.1633   -0.6786 C   0  0  2  0  0  0  0  0  0  0  0  0
  -18.1527    6.4178   -0.5400 C   0  0  1  0  0  0  0  0  0  0  0  0
  -17.7111    7.7668   -1.0528 C   0  0  1  0  0  0  0  0  0  0  0  0
  -15.2420    8.1095   -0.7479 C   0  0  0  0  0  0  0  0  0  0  0  0
  -12.9426    8.6754    0.2234 C   0  0  0  0  0  0  0  0  0  0  0  0
  -12.2615    8.9016    1.3884 C   0  0  0  0  0  0  0  0  0  0  0  0
  -18.7787    8.8215   -0.8682 C   0  0  1  0  0  0  0  0  0  0  0  0
  -22.9629   10.8217   -3.0976 C   0  0  0  0  0  0  0  0  0  0  0  0
  -23.8617   10.7596   -4.1695 C   0  0  0  0  0  0  0  0  0  0  0  0
  -10.2134    9.2536    2.5837 F   0  0  0  0  0  0  0  0  0  0  0  0
   -8.8503    9.0432    0.2486 F   0  0  0  0  0  0  0  0  0  0  0  0
  -10.1286    8.5942   -2.1134 F   0  0  0  0  0  0  0  0  0  0  0  0
  -16.5280    8.1477   -0.3072 N   0  0  0  0  0  0  0  0  0  0  0  0
  -15.2072    8.8466    1.2849 N   0  0  0  0  0  0  0  0  0  0  0  0
  -16.4413    8.6067    0.9415 N   0  0  0  0  0  0  0  0  0  0  0  0
  -20.4307    7.2576   -0.4627 O   0  0  0  0  0  0  0  0  0  0  0  0
  -21.3138    4.6476    0.0039 O   0  0  0  0  0  0  0  0  0  0  0  0
  -17.7376    6.2243    0.7919 O   0  0  0  0  0  0  0  0  0  0  0  0
  -18.3640   10.0013   -1.3998 O   0  0  0  0  0  0  0  0  0  0  0  0
  -21.3962    9.5500   -1.1576 S   0  0  0  0  0  0  0  0  0  0  0  0
 13  1  1  0
  1 29  1  6
 16  2  2  0
  2 17  1  0
  2 26  1  0
  4  3  2  0
  3 18  1  0
  3 22  1  0
  5  4  1  0
  4 23  1  0
  6  5  2  0
  5 24  1  0
 17  6  1  0
  7  8  1  6
  9  8  2  0
  8 21  1  0
 10  9  1  0
 11 10  2  0
 11 20  1  0
 32 11  1  0
 19 12  1  0
 12 28  1  0
 12 32  1  1
 14 13  1  0
 13 28  1  1
 15 14  1  0
 14 30  1  1
 15 19  1  0
 15 25  1  1
 16 25  1  0
 17 18  2  0
 19 31  1  6
 20 21  2  0
 25 27  1  0
 26 27  2  0
M  END
$$$$
