
     RDKit          3D

 32 35  0  0  0  0  0  0  0  0999 V2000
  -20.0250    5.5886    0.5245 C   0  0  0  0  0  0  0  0  0  0  0  0
  -14.4294    8.9914   -0.0226 C   0  0  0  0  0  0  0  0  0  0  0  0
  -10.9482    9.6211    1.1919 C   0  0  0  0  0  0  0  0  0  0  0  0
  -10.2107    9.2050    0.1040 C   0  0  0  0  0  0  0  0  0  0  0  0
  -10.8068    8.7184   -1.0319 C   0  0  0  0  0  0  0  0  0  0  0  0
  -12.1993    8.6547   -1.0572 C   0  0  0  0  0  0  0  0  0  0  0  0
  -26.4971    8.3852   -4.7849 C   0  0  0  0  0  0  0  0  0  0  0  0
  -25.2054    8.6904   -4.1088 C   0  0  0  0  0  0  0  0  0  0  0  0
  -25.2222    9.1362   -2.8041 C   0  0  0  0  0  0  0  0  0  0  0  0
  -24.0453    9.4257   -2.1537 C   0  0  0  0  0  0  0  0  0  0  0  0
  -22.7931    9.2874   -2.7651 C   0  0  0  0  0  0  0  0  0  0  0  0
  -20.1221    8.4514   -1.6789 C   0  0  1  0  0  0  0  0  0  0  0  0
  -19.5939    6.4612   -0.6345 C   0  0  2  0  0  0  0  0  0  0  0  0
  -18.1438    6.7580   -0.5179 C   0  0  1  0  0  0  0  0  0  0  0  0
  -17.7063    7.9962   -1.2615 C   0  0  1  0  0  0  0  0  0  0  0  0
  -15.2411    8.3275   -0.9153 C   0  0  0  0  0  0  0  0  0  0  0  0
  -12.9663    9.0582    0.0027 C   0  0  0  0  0  0  0  0  0  0  0  0
  -12.3304    9.5371    1.1156 C   0  0  0  0  0  0  0  0  0  0  0  0
  -18.7889    9.0513   -1.2938 C   0  0  1  0  0  0  0  0  0  0  0  0
  -22.7892    8.8470   -4.0497 C   0  0  0  0  0  0  0  0  0  0  0  0
  -23.9897    8.5538   -4.7081 C   0  0  0  0  0  0  0  0  0  0  0  0
  -10.3259   10.0991    2.3046 F   0  0  0  0  0  0  0  0  0  0  0  0
   -8.8670    9.2829    0.1691 F   0  0  0  0  0  0  0  0  0  0  0  0
  -10.0536    8.3179   -2.0838 F   0  0  0  0  0  0  0  0  0  0  0  0
  -16.5433    8.5248   -0.5765 N   0  0  0  0  0  0  0  0  0  0  0  0
  -15.2682    9.5822    0.8460 N   0  0  0  0  0  0  0  0  0  0  0  0
  -16.4945    9.2993    0.5075 N   0  0  0  0  0  0  0  0  0  0  0  0
  -20.4320    7.5646   -0.6387 O   0  0  0  0  0  0  0  0  0  0  0  0
  -20.9553    4.6469    0.0896 O   0  0  0  0  0  0  0  0  0  0  0  0
  -17.7548    6.8182    0.8344 O   0  0  0  0  0  0  0  0  0  0  0  0
  -18.3760   10.1195   -2.0252 O   0  0  0  0  0  0  0  0  0  0  0  0
  -21.4075    9.6762   -1.7608 S   0  0  0  0  0  0  0  0  0  0  0  0
 13  1  1  0
  1 29  1  6
 16  2  2  0
  2 17  1  0
  2 26  1  0
  4  3  2  0
  3 18  1  0
  3 22  1  0
  5  4  1  0
  4 23  1  0
  6  5  2  0
  5 24  1  0
 17  6  1  0
  7  8  1  6
  9  8  2  0
  8 21  1  0
 10  9  1  0
 11 10  2  0
 11 20  1  0
 32 11  1  0
 19 12  1  0
 12 28  1  0
 12 32  1  1
 14 13  1  0
 13 28  1  1
 15 14  1  0
 14 30  1  1
 15 19  1  0
 15 25  1  1
 16 25  1  0
 17 18  2  0
 19 31  1  6
 20 21  2  0
 25 27  1  0
 26 27  2  0
M  END
$$$$
