
     RDKit          3D

 32 35  0  0  0  0  0  0  0  0999 V2000
  -20.2678    5.0463   -0.2519 C   0  0  0  0  0  0  0  0  0  0  0  0
  -14.6408    8.9871    0.2571 C   0  0  0  0  0  0  0  0  0  0  0  0
  -11.0181    8.8855   -0.6850 C   0  0  0  0  0  0  0  0  0  0  0  0
  -10.3725    9.2851    0.4664 C   0  0  0  0  0  0  0  0  0  0  0  0
  -11.1580    9.5917    1.5691 C   0  0  0  0  0  0  0  0  0  0  0  0
  -12.5402    9.4936    1.4951 C   0  0  0  0  0  0  0  0  0  0  0  0
  -26.7920    9.1780   -3.5040 C   0  0  0  0  0  0  0  0  0  0  0  0
  -25.4468    9.3474   -2.8942 C   0  0  0  0  0  0  0  0  0  0  0  0
  -25.2588    9.9819   -1.6830 C   0  0  0  0  0  0  0  0  0  0  0  0
  -24.0016   10.1308   -1.1326 C   0  0  0  0  0  0  0  0  0  0  0  0
  -22.8691    9.6540   -1.7630 C   0  0  0  0  0  0  0  0  0  0  0  0
  -20.1967    8.4147   -1.3164 C   0  0  1  0  0  0  0  0  0  0  0  0
  -19.7141    6.3183   -0.8045 C   0  0  2  0  0  0  0  0  0  0  0  0
  -18.2733    6.5449   -0.4794 C   0  0  1  0  0  0  0  0  0  0  0  0
  -17.7554    7.7483   -1.2277 C   0  0  1  0  0  0  0  0  0  0  0  0
  -15.3400    8.2457   -0.6727 C   0  0  0  0  0  0  0  0  0  0  0  0
  -13.1909    9.0956    0.3494 C   0  0  0  0  0  0  0  0  0  0  0  0
  -12.3965    8.7948   -0.7359 C   0  0  0  0  0  0  0  0  0  0  0  0
  -18.7769    8.7587   -1.5956 C   0  0  1  0  0  0  0  0  0  0  0  0
  -23.0569    9.0201   -2.9729 C   0  0  0  0  0  0  0  0  0  0  0  0
  -24.3192    8.8693   -3.5278 C   0  0  0  0  0  0  0  0  0  0  0  0
  -10.2522    8.5864   -1.7599 F   0  0  0  0  0  0  0  0  0  0  0  0
   -9.0175    9.3786    0.5303 F   0  0  0  0  0  0  0  0  0  0  0  0
  -10.5193    9.9816    2.6929 F   0  0  0  0  0  0  0  0  0  0  0  0
  -16.6605    8.3706   -0.4684 N   0  0  0  0  0  0  0  0  0  0  0  0
  -15.5907    9.5552    1.0190 N   0  0  0  0  0  0  0  0  0  0  0  0
  -16.7878    9.1767    0.5718 N   0  0  0  0  0  0  0  0  0  0  0  0
  -20.4035    7.4440   -0.3533 O   0  0  0  0  0  0  0  0  0  0  0  0
  -21.6254    4.9074   -0.4402 O   0  0  0  0  0  0  0  0  0  0  0  0
  -18.1518    6.7964    0.8828 O   0  0  0  0  0  0  0  0  0  0  0  0
  -18.6238    9.1585   -2.9465 O   0  0  0  0  0  0  0  0  0  0  0  0
  -21.2498    9.8677   -1.0164 S   0  0  0  0  0  0  0  0  0  0  0  0
 13  1  1  1
  1 29  1  0
 16  2  2  0
  2 17  1  0
  2 26  1  0
  4  3  2  0
  3 18  1  0
  3 22  1  0
  5  4  1  0
  4 23  1  0
  6  5  2  0
  5 24  1  0
 17  6  1  0
  8  7  1  0
  9  8  2  0
  8 21  1  0
 10  9  1  0
 11 10  2  0
 11 20  1  0
 32 11  1  0
 19 12  1  0
 12 28  1  0
 12 32  1  1
 14 13  1  0
 13 28  1  0
 15 14  1  0
 14 30  1  1
 15 19  1  0
 15 25  1  1
 16 25  1  0
 17 18  2  0
 19 31  1  6
 20 21  2  0
 25 27  1  0
 26 27  2  0
M  END
$$$$
