
     RDKit          3D

 32 35  0  0  0  0  0  0  0  0999 V2000
  -20.0881    5.3408    0.0823 C   0  0  0  0  0  0  0  0  0  0  0  0
  -14.3644    8.7703    0.1939 C   0  0  0  0  0  0  0  0  0  0  0  0
  -10.8109    9.3214    1.2231 C   0  0  0  0  0  0  0  0  0  0  0  0
  -10.2308    9.6295    0.0110 C   0  0  0  0  0  0  0  0  0  0  0  0
  -10.9584    9.6673   -1.1515 C   0  0  0  0  0  0  0  0  0  0  0  0
  -12.3207    9.3815   -1.0737 C   0  0  0  0  0  0  0  0  0  0  0  0
  -26.4016    9.0159   -4.0570 C   0  0  0  0  0  0  0  0  0  0  0  0
  -25.1940    9.2998   -3.2326 C   0  0  0  0  0  0  0  0  0  0  0  0
  -24.0441    8.5728   -3.4577 C   0  0  0  0  0  0  0  0  0  0  0  0
  -22.9133    8.8129   -2.7124 C   0  0  0  0  0  0  0  0  0  0  0  0
  -22.8666    9.7860   -1.7066 C   0  0  0  0  0  0  0  0  0  0  0  0
  -20.1059    8.7122   -1.2188 C   0  0  1  0  0  0  0  0  0  0  0  0
  -19.6511    6.4869   -0.8041 C   0  0  2  0  0  0  0  0  0  0  0  0
  -18.1837    6.6763   -0.6808 C   0  0  1  0  0  0  0  0  0  0  0  0
  -17.7054    8.0547   -1.0667 C   0  0  1  0  0  0  0  0  0  0  0  0
  -15.2593    8.5737   -0.8342 C   0  0  0  0  0  0  0  0  0  0  0  0
  -12.9333    9.0712    0.1108 C   0  0  0  0  0  0  0  0  0  0  0  0
  -12.1697    9.0450    1.2460 C   0  0  0  0  0  0  0  0  0  0  0  0
  -18.7289    9.1209   -0.7470 C   0  0  1  0  0  0  0  0  0  0  0  0
  -24.0047   10.4960   -1.4945 C   0  0  0  0  0  0  0  0  0  0  0  0
  -25.1537   10.2481   -2.2553 C   0  0  0  0  0  0  0  0  0  0  0  0
  -10.0607    9.2921    2.3589 F   0  0  0  0  0  0  0  0  0  0  0  0
   -8.9110    9.8994   -0.0211 F   0  0  0  0  0  0  0  0  0  0  0  0
  -10.3582    9.9738   -2.3264 F   0  0  0  0  0  0  0  0  0  0  0  0
  -16.4916    8.3172   -0.3192 N   0  0  0  0  0  0  0  0  0  0  0  0
  -15.0835    8.6268    1.3206 N   0  0  0  0  0  0  0  0  0  0  0  0
  -16.3195    8.3635    1.0019 N   0  0  0  0  0  0  0  0  0  0  0  0
  -20.4269    7.5809   -0.4562 O   0  0  0  0  0  0  0  0  0  0  0  0
  -21.2868    4.8077   -0.3869 O   0  0  0  0  0  0  0  0  0  0  0  0
  -17.7442    6.3340    0.6128 O   0  0  0  0  0  0  0  0  0  0  0  0
  -18.2841   10.3339   -1.1679 O   0  0  0  0  0  0  0  0  0  0  0  0
  -21.3241    9.9637   -0.8890 S   0  0  0  0  0  0  0  0  0  0  0  0
 13  1  1  0
  1 29  1  6
 16  2  2  0
  2 17  1  0
  2 26  1  0
  4  3  2  0
  3 18  1  0
  3 22  1  0
  5  4  1  0
  4 23  1  0
  6  5  2  0
  5 24  1  0
 17  6  1  0
  7  8  1  6
  9  8  2  0
  8 21  1  0
 10  9  1  0
 11 10  2  0
 11 20  1  0
 32 11  1  0
 19 12  1  0
 12 28  1  0
 12 32  1  1
 14 13  1  0
 13 28  1  1
 15 14  1  0
 14 30  1  1
 15 19  1  0
 15 25  1  1
 16 25  1  0
 17 18  2  0
 19 31  1  6
 20 21  2  0
 25 27  1  0
 26 27  2  0
M  END
$$$$
