
     RDKit          3D

 32 35  0  0  0  0  0  0  0  0999 V2000
  -19.6191    5.5379    0.3642 C   0  0  0  0  0  0  0  0  0  0  0  0
  -14.5588    8.6211   -0.9914 C   0  0  0  0  0  0  0  0  0  0  0  0
  -11.0929    8.8517    0.3959 C   0  0  0  0  0  0  0  0  0  0  0  0
  -11.3566    8.9741    1.7435 C   0  0  0  0  0  0  0  0  0  0  0  0
  -12.6383    8.9852    2.2328 C   0  0  0  0  0  0  0  0  0  0  0  0
  -13.6831    8.8677    1.3172 C   0  0  0  0  0  0  0  0  0  0  0  0
  -26.9403    8.9045   -3.3292 C   0  0  0  0  0  0  0  0  0  0  0  0
  -25.5971    9.1893   -2.7520 C   0  0  0  0  0  0  0  0  0  0  0  0
  -24.5314    8.3917   -3.1119 C   0  0  0  0  0  0  0  0  0  0  0  0
  -23.2792    8.6308   -2.5955 C   0  0  0  0  0  0  0  0  0  0  0  0
  -23.0216    9.6729   -1.6963 C   0  0  0  0  0  0  0  0  0  0  0  0
  -20.2590    8.5016   -1.6022 C   0  0  1  0  0  0  0  0  0  0  0  0
  -19.5736    6.4252   -0.8610 C   0  0  2  0  0  0  0  0  0  0  0  0
  -18.1650    6.5903   -1.3004 C   0  0  1  0  0  0  0  0  0  0  0  0
  -17.9211    7.8208   -2.1394 C   0  0  1  0  0  0  0  0  0  0  0  0
  -15.8394    8.1622   -0.7768 C   0  0  0  0  0  0  0  0  0  0  0  0
  -13.4620    8.7442   -0.0283 C   0  0  0  0  0  0  0  0  0  0  0  0
  -12.1679    8.7377   -0.4729 C   0  0  0  0  0  0  0  0  0  0  0  0
  -18.8271    8.9654   -1.7452 C   0  0  1  0  0  0  0  0  0  0  0  0
  -24.0786   10.4520   -1.3498 C   0  0  0  0  0  0  0  0  0  0  0  0
  -25.3517   10.2049   -1.8777 C   0  0  0  0  0  0  0  0  0  0  0  0
   -9.8092    8.8442   -0.0575 F   0  0  0  0  0  0  0  0  0  0  0  0
  -10.3184    9.0855    2.5953 F   0  0  0  0  0  0  0  0  0  0  0  0
  -12.8636    9.1068    3.5628 F   0  0  0  0  0  0  0  0  0  0  0  0
  -16.5400    8.2136   -1.9412 N   0  0  0  0  0  0  0  0  0  0  0  0
  -14.5129    8.9434   -2.2956 N   0  0  0  0  0  0  0  0  0  0  0  0
  -15.6753    8.6994   -2.8320 N   0  0  0  0  0  0  0  0  0  0  0  0
  -20.2390    7.5955   -0.5331 O   0  0  0  0  0  0  0  0  0  0  0  0
  -20.6881    4.6494    0.2678 O   0  0  0  0  0  0  0  0  0  0  0  0
  -17.2910    6.5513   -0.1966 O   0  0  0  0  0  0  0  0  0  0  0  0
  -18.6180   10.0282   -2.5657 O   0  0  0  0  0  0  0  0  0  0  0  0
  -21.3538    9.8349   -1.1749 S   0  0  0  0  0  0  0  0  0  0  0  0
 13  1  1  0
  1 29  1  6
 16  2  2  0
  2 17  1  0
  2 26  1  0
  4  3  2  0
  3 18  1  0
  3 22  1  0
  5  4  1  0
  4 23  1  0
  6  5  2  0
  5 24  1  0
 17  6  1  0
  7  8  1  6
  9  8  2  0
  8 21  1  0
 10  9  1  0
 11 10  2  0
 11 20  1  0
 32 11  1  0
 19 12  1  0
 12 28  1  0
 12 32  1  1
 14 13  1  0
 13 28  1  1
 15 14  1  0
 14 30  1  1
 15 19  1  0
 15 25  1  1
 16 25  1  0
 17 18  2  0
 19 31  1  6
 20 21  2  0
 25 27  1  0
 26 27  2  0
M  END
$$$$
