
     RDKit          3D

 32 35  0  0  0  0  0  0  0  0999 V2000
  -20.2597    5.7034    0.7968 C   0  0  0  0  0  0  0  0  0  0  0  0
  -14.7169    9.3322   -0.3309 C   0  0  0  0  0  0  0  0  0  0  0  0
  -11.3808   10.7062    0.6711 C   0  0  0  0  0  0  0  0  0  0  0  0
  -10.7790    9.6514    1.3247 C   0  0  0  0  0  0  0  0  0  0  0  0
  -11.4974    8.4685    1.4313 C   0  0  0  0  0  0  0  0  0  0  0  0
  -12.7728    8.3711    0.8932 C   0  0  0  0  0  0  0  0  0  0  0  0
  -26.5900    7.3607   -4.4447 C   0  0  0  0  0  0  0  0  0  0  0  0
  -25.2824    7.8558   -3.9397 C   0  0  0  0  0  0  0  0  0  0  0  0
  -24.5564    7.1796   -2.9802 C   0  0  0  0  0  0  0  0  0  0  0  0
  -23.3440    7.6554   -2.5225 C   0  0  0  0  0  0  0  0  0  0  0  0
  -22.7952    8.8296   -2.9994 C   0  0  0  0  0  0  0  0  0  0  0  0
  -20.1606    8.0287   -1.8616 C   0  0  1  0  0  0  0  0  0  0  0  0
  -19.6927    6.5073   -0.3266 C   0  0  2  0  0  0  0  0  0  0  0  0
  -18.2578    6.8813   -0.1415 C   0  0  1  0  0  0  0  0  0  0  0  0
  -17.7230    7.5247   -1.3969 C   0  0  1  0  0  0  0  0  0  0  0  0
  -15.4522    8.1771   -0.4985 C   0  0  0  0  0  0  0  0  0  0  0  0
  -13.3793    9.4197    0.2397 C   0  0  0  0  0  0  0  0  0  0  0  0
  -12.6526   10.5867    0.1426 C   0  0  0  0  0  0  0  0  0  0  0  0
  -18.7350    8.1888   -2.2541 C   0  0  1  0  0  0  0  0  0  0  0  0
  -23.5204    9.5051   -3.9579 C   0  0  0  0  0  0  0  0  0  0  0  0
  -24.7387    9.0289   -4.4193 C   0  0  0  0  0  0  0  0  0  0  0  0
  -10.6803   11.8595    0.5672 F   0  0  0  0  0  0  0  0  0  0  0  0
   -9.5287    9.7553    1.8491 F   0  0  0  0  0  0  0  0  0  0  0  0
  -10.9019    7.4400    2.0719 F   0  0  0  0  0  0  0  0  0  0  0  0
  -16.6413    8.4595   -1.0527 N   0  0  0  0  0  0  0  0  0  0  0  0
  -15.5100   10.3084   -0.8040 N   0  0  0  0  0  0  0  0  0  0  0  0
  -16.6521    9.7697   -1.2299 N   0  0  0  0  0  0  0  0  0  0  0  0
  -20.3879    7.6981   -0.5381 O   0  0  0  0  0  0  0  0  0  0  0  0
  -21.5820    5.3605    0.6179 O   0  0  0  0  0  0  0  0  0  0  0  0
  -18.1616    7.8049    0.8936 O   0  0  0  0  0  0  0  0  0  0  0  0
  -18.5554    7.8296   -3.6132 O   0  0  0  0  0  0  0  0  0  0  0  0
  -21.2159    9.4176   -2.3788 S   0  0  0  0  0  0  0  0  0  0  0  0
 13  1  1  1
  1 29  1  0
 16  2  2  0
  2 17  1  0
  2 26  1  0
  4  3  2  0
  3 18  1  0
  3 22  1  0
  5  4  1  0
  4 23  1  0
  6  5  2  0
  5 24  1  0
 17  6  1  0
  8  7  1  0
  9  8  2  0
  8 21  1  0
 10  9  1  0
 11 10  2  0
 11 20  1  0
 32 11  1  0
 19 12  1  0
 12 28  1  0
 12 32  1  1
 14 13  1  0
 13 28  1  0
 15 14  1  0
 14 30  1  1
 15 19  1  0
 15 25  1  1
 16 25  1  0
 17 18  2  0
 19 31  1  6
 20 21  2  0
 25 27  1  0
 26 27  2  0
M  END
$$$$
