
     RDKit          3D

 32 35  0  0  0  0  0  0  0  0999 V2000
  -19.9427    4.8193    0.0185 C   0  0  0  0  0  0  0  0  0  0  0  0
  -14.2549    8.0454   -0.3923 C   0  0  0  0  0  0  0  0  0  0  0  0
  -10.9719    9.7446    0.1779 C   0  0  0  0  0  0  0  0  0  0  0  0
  -11.1421   10.2222    1.4599 C   0  0  0  0  0  0  0  0  0  0  0  0
  -12.3013   10.0122    2.1632 C   0  0  0  0  0  0  0  0  0  0  0  0
  -13.3181    9.2922    1.5377 C   0  0  0  0  0  0  0  0  0  0  0  0
  -26.3635   10.3677   -2.1967 C   0  0  0  0  0  0  0  0  0  0  0  0
  -25.0052   10.1953   -1.6102 C   0  0  0  0  0  0  0  0  0  0  0  0
  -23.9508    9.8871   -2.4436 C   0  0  0  0  0  0  0  0  0  0  0  0
  -22.6852    9.7223   -1.9307 C   0  0  0  0  0  0  0  0  0  0  0  0
  -22.4024    9.8549   -0.5657 C   0  0  0  0  0  0  0  0  0  0  0  0
  -19.8513    8.3105   -0.9107 C   0  0  1  0  0  0  0  0  0  0  0  0
  -19.6244    6.0135   -0.8551 C   0  0  2  0  0  0  0  0  0  0  0  0
  -18.1748    6.0196   -1.1759 C   0  0  1  0  0  0  0  0  0  0  0  0
  -17.6358    7.3736   -1.5678 C   0  0  1  0  0  0  0  0  0  0  0  0
  -15.5822    8.3842   -0.5343 C   0  0  0  0  0  0  0  0  0  0  0  0
  -13.1872    8.8017    0.2662 C   0  0  0  0  0  0  0  0  0  0  0  0
  -12.0142    9.0343   -0.3988 C   0  0  0  0  0  0  0  0  0  0  0  0
  -18.3522    8.4980   -0.8543 C   0  0  1  0  0  0  0  0  0  0  0  0
  -23.4486   10.1592    0.2450 C   0  0  0  0  0  0  0  0  0  0  0  0
  -24.7353   10.3258   -0.2812 C   0  0  0  0  0  0  0  0  0  0  0  0
   -9.8091    9.9703   -0.4932 F   0  0  0  0  0  0  0  0  0  0  0  0
  -10.1349   10.9136    2.0285 F   0  0  0  0  0  0  0  0  0  0  0  0
  -12.4367   10.4946    3.4216 F   0  0  0  0  0  0  0  0  0  0  0  0
  -16.2307    7.4001   -1.2128 N   0  0  0  0  0  0  0  0  0  0  0  0
  -14.1289    6.8504   -0.9949 N   0  0  0  0  0  0  0  0  0  0  0  0
  -15.2893    6.4908   -1.4664 N   0  0  0  0  0  0  0  0  0  0  0  0
  -20.0945    7.1338   -0.1890 O   0  0  0  0  0  0  0  0  0  0  0  0
  -21.3168    4.5887    0.0255 O   0  0  0  0  0  0  0  0  0  0  0  0
  -17.4279    5.4668   -0.1174 O   0  0  0  0  0  0  0  0  0  0  0  0
  -17.8793    9.6974   -1.2836 O   0  0  0  0  0  0  0  0  0  0  0  0
  -20.7214    9.6379   -0.1109 S   0  0  0  0  0  0  0  0  0  0  0  0
 13  1  1  0
  1 29  1  6
 16  2  2  0
  2 17  1  0
  2 26  1  0
  4  3  2  0
  3 18  1  0
  3 22  1  0
  5  4  1  0
  4 23  1  0
  6  5  2  0
  5 24  1  0
 17  6  1  0
  7  8  1  6
  9  8  2  0
  8 21  1  0
 10  9  1  0
 11 10  2  0
 11 20  1  0
 32 11  1  0
 19 12  1  0
 12 28  1  0
 12 32  1  1
 14 13  1  0
 13 28  1  1
 15 14  1  0
 14 30  1  1
 15 19  1  0
 15 25  1  1
 16 25  1  0
 17 18  2  0
 19 31  1  6
 20 21  2  0
 25 27  1  0
 26 27  2  0
M  END
$$$$
