
     RDKit          3D

 32 35  0  0  0  0  0  0  0  0999 V2000
  -21.1517    6.9118    0.9229 C   0  0  0  0  0  0  0  0  0  0  0  0
  -14.9467    9.4091   -0.3333 C   0  0  0  0  0  0  0  0  0  0  0  0
  -11.9017    8.5071    1.6506 C   0  0  0  0  0  0  0  0  0  0  0  0
  -10.9440    9.3875    1.1927 C   0  0  0  0  0  0  0  0  0  0  0  0
  -11.3215   10.2920    0.2097 C   0  0  0  0  0  0  0  0  0  0  0  0
  -12.6194   10.2940   -0.2810 C   0  0  0  0  0  0  0  0  0  0  0  0
  -26.4826    7.8133   -5.4468 C   0  0  0  0  0  0  0  0  0  0  0  0
  -25.1802    8.2719   -4.8958 C   0  0  0  0  0  0  0  0  0  0  0  0
  -24.4025    7.4772   -4.0782 C   0  0  0  0  0  0  0  0  0  0  0  0
  -23.1958    7.9206   -3.5750 C   0  0  0  0  0  0  0  0  0  0  0  0
  -22.7048    9.1790   -3.8624 C   0  0  0  0  0  0  0  0  0  0  0  0
  -20.3694    8.4137   -2.1781 C   0  0  1  0  0  0  0  0  0  0  0  0
  -20.3329    7.3173   -0.2581 C   0  0  2  0  0  0  0  0  0  0  0  0
  -18.8936    7.5658    0.0578 C   0  0  1  0  0  0  0  0  0  0  0  0
  -18.1134    7.7859   -1.2146 C   0  0  1  0  0  0  0  0  0  0  0  0
  -15.7636    8.3027   -0.4394 C   0  0  0  0  0  0  0  0  0  0  0  0
  -13.5801    9.4183    0.1715 C   0  0  0  0  0  0  0  0  0  0  0  0
  -13.1890    8.5272    1.1473 C   0  0  0  0  0  0  0  0  0  0  0  0
  -18.8976    8.3038   -2.3621 C   0  0  1  0  0  0  0  0  0  0  0  0
  -23.4817    9.9729   -4.6792 C   0  0  0  0  0  0  0  0  0  0  0  0
  -24.6944    9.5295   -5.1860 C   0  0  0  0  0  0  0  0  0  0  0  0
  -11.5336    7.6253    2.6091 F   0  0  0  0  0  0  0  0  0  0  0  0
   -9.6742    9.3787    1.6790 F   0  0  0  0  0  0  0  0  0  0  0  0
  -10.3790   11.1512   -0.2335 F   0  0  0  0  0  0  0  0  0  0  0  0
  -16.9571    8.6529   -0.9434 N   0  0  0  0  0  0  0  0  0  0  0  0
  -15.6957   10.4266   -0.7910 N   0  0  0  0  0  0  0  0  0  0  0  0
  -16.8902    9.9571   -1.1501 N   0  0  0  0  0  0  0  0  0  0  0  0
  -20.8101    8.4772   -0.8687 O   0  0  0  0  0  0  0  0  0  0  0  0
  -22.0401    5.8933    0.6553 O   0  0  0  0  0  0  0  0  0  0  0  0
  -18.7932    8.7165    0.8321 O   0  0  0  0  0  0  0  0  0  0  0  0
  -18.6020    7.5760   -3.5416 O   0  0  0  0  0  0  0  0  0  0  0  0
  -21.1312    9.7213   -3.1881 S   0  0  0  0  0  0  0  0  0  0  0  0
 13  1  1  1
  1 29  1  0
 16  2  2  0
  2 17  1  0
  2 26  1  0
  4  3  2  0
  3 18  1  0
  3 22  1  0
  5  4  1  0
  4 23  1  0
  6  5  2  0
  5 24  1  0
 17  6  1  0
  8  7  1  0
  9  8  2  0
  8 21  1  0
 10  9  1  0
 11 10  2  0
 11 20  1  0
 32 11  1  0
 19 12  1  0
 12 28  1  0
 12 32  1  6
 14 13  1  0
 13 28  1  0
 15 14  1  0
 14 30  1  1
 15 19  1  0
 15 25  1  1
 16 25  1  0
 17 18  2  0
 19 31  1  6
 20 21  2  0
 25 27  1  0
 26 27  2  0
M  END
$$$$
