
     RDKit          3D

 32 35  0  0  0  0  0  0  0  0999 V2000
  -19.6747    8.0383   -4.6710 C   0  0  0  0  0  0  0  0  0  0  0  0
  -14.8135    8.6109   -0.1465 C   0  0  0  0  0  0  0  0  0  0  0  0
  -11.2372    8.3998    0.9287 C   0  0  0  0  0  0  0  0  0  0  0  0
  -11.0747    9.6230    1.5435 C   0  0  0  0  0  0  0  0  0  0  0  0
  -12.0977   10.5336    1.6266 C   0  0  0  0  0  0  0  0  0  0  0  0
  -13.3245   10.1840    1.0641 C   0  0  0  0  0  0  0  0  0  0  0  0
  -26.8402   11.1538    0.3644 C   0  0  0  0  0  0  0  0  0  0  0  0
  -25.6696   10.2447    0.2170 C   0  0  0  0  0  0  0  0  0  0  0  0
  -24.5134   10.7302   -0.3565 C   0  0  0  0  0  0  0  0  0  0  0  0
  -23.4161    9.9142   -0.5056 C   0  0  0  0  0  0  0  0  0  0  0  0
  -23.4110    8.5761   -0.0933 C   0  0  0  0  0  0  0  0  0  0  0  0
  -20.6313    8.5728   -1.2272 C   0  0  1  0  0  0  0  0  0  0  0  0
  -19.7045    8.7480   -3.3346 C   0  0  2  0  0  0  0  0  0  0  0  0
  -18.3157    8.9459   -2.8483 C   0  0  1  0  0  0  0  0  0  0  0  0
  -18.2072    9.1430   -1.3560 C   0  0  1  0  0  0  0  0  0  0  0  0
  -15.9060    9.4140   -0.3876 C   0  0  0  0  0  0  0  0  0  0  0  0
  -13.5252    8.9793    0.4452 C   0  0  0  0  0  0  0  0  0  0  0  0
  -12.4776    8.1010    0.3851 C   0  0  0  0  0  0  0  0  0  0  0  0
  -19.2689    8.3732   -0.6031 C   0  0  1  0  0  0  0  0  0  0  0  0
  -24.5550    8.1094    0.4706 C   0  0  0  0  0  0  0  0  0  0  0  0
  -25.6696    8.9434    0.6201 C   0  0  0  0  0  0  0  0  0  0  0  0
  -10.2017    7.5183    0.8629 F   0  0  0  0  0  0  0  0  0  0  0  0
   -9.8729    9.9223    2.0745 F   0  0  0  0  0  0  0  0  0  0  0  0
  -11.9055   11.7269    2.2378 F   0  0  0  0  0  0  0  0  0  0  0  0
  -16.8974    8.6727   -0.9508 N   0  0  0  0  0  0  0  0  0  0  0  0
  -15.1725    7.3881   -0.5740 N   0  0  0  0  0  0  0  0  0  0  0  0
  -16.3888    7.4435   -1.0388 N   0  0  0  0  0  0  0  0  0  0  0  0
  -20.5289    8.0054   -2.5048 O   0  0  0  0  0  0  0  0  0  0  0  0
  -20.4726    8.7190   -5.5882 O   0  0  0  0  0  0  0  0  0  0  0  0
  -17.4823    7.8957   -3.2800 O   0  0  0  0  0  0  0  0  0  0  0  0
  -19.1734    8.6294    0.7280 O   0  0  0  0  0  0  0  0  0  0  0  0
  -21.9059    7.7081   -0.3402 S   0  0  0  0  0  0  0  0  0  0  0  0
 13  1  1  0
  1 29  1  6
 16  2  2  0
  2 17  1  0
  2 26  1  0
  4  3  2  0
  3 18  1  0
  3 22  1  0
  5  4  1  0
  4 23  1  0
  6  5  2  0
  5 24  1  0
 17  6  1  0
  7  8  1  6
  9  8  2  0
  8 21  1  0
 10  9  1  0
 11 10  2  0
 11 20  1  0
 32 11  1  0
 19 12  1  0
 12 28  1  0
 12 32  1  1
 14 13  1  0
 13 28  1  1
 15 14  1  0
 14 30  1  1
 15 19  1  0
 15 25  1  1
 16 25  1  0
 17 18  2  0
 19 31  1  1
 20 21  2  0
 25 27  1  0
 26 27  2  0
M  END
$$$$
