
     RDKit          3D

 32 35  0  0  0  0  0  0  0  0999 V2000
  -20.5451    4.8422   -0.8633 C   0  0  0  0  0  0  0  0  0  0  0  0
  -14.6436    8.4316    0.2180 C   0  0  0  0  0  0  0  0  0  0  0  0
  -11.3250    9.8724    1.1835 C   0  0  0  0  0  0  0  0  0  0  0  0
  -10.5189    9.5823    0.1027 C   0  0  0  0  0  0  0  0  0  0  0  0
  -11.0922    8.8971   -0.9597 C   0  0  0  0  0  0  0  0  0  0  0  0
  -12.4287    8.5267   -0.9166 C   0  0  0  0  0  0  0  0  0  0  0  0
  -26.8513    9.9724   -2.5648 C   0  0  0  0  0  0  0  0  0  0  0  0
  -25.4684    9.9188   -2.0217 C   0  0  0  0  0  0  0  0  0  0  0  0
  -24.3625    9.7524   -2.8305 C   0  0  0  0  0  0  0  0  0  0  0  0
  -23.0856    9.7041   -2.3079 C   0  0  0  0  0  0  0  0  0  0  0  0
  -22.8483    9.8196   -0.9522 C   0  0  0  0  0  0  0  0  0  0  0  0
  -20.2528    8.3592   -1.0352 C   0  0  1  0  0  0  0  0  0  0  0  0
  -19.9166    6.1747   -1.1065 C   0  0  2  0  0  0  0  0  0  0  0  0
  -18.4495    6.2143   -0.8250 C   0  0  1  0  0  0  0  0  0  0  0  0
  -17.8706    7.5338   -1.2722 C   0  0  1  0  0  0  0  0  0  0  0  0
  -15.4655    8.1961   -0.8647 C   0  0  0  0  0  0  0  0  0  0  0  0
  -13.2389    8.8131    0.1587 C   0  0  0  0  0  0  0  0  0  0  0  0
  -12.6543    9.4937    1.2049 C   0  0  0  0  0  0  0  0  0  0  0  0
  -18.8236    8.6698   -1.3055 C   0  0  1  0  0  0  0  0  0  0  0  0
  -23.9532    9.9859   -0.1443 C   0  0  0  0  0  0  0  0  0  0  0  0
  -25.2370   10.0348   -0.6672 C   0  0  0  0  0  0  0  0  0  0  0  0
  -10.7661   10.5405    2.2193 F   0  0  0  0  0  0  0  0  0  0  0  0
   -9.2100    9.9489    0.0686 F   0  0  0  0  0  0  0  0  0  0  0  0
  -10.2973    8.6169   -2.0145 F   0  0  0  0  0  0  0  0  0  0  0  0
  -16.6978    7.8648   -0.4492 N   0  0  0  0  0  0  0  0  0  0  0  0
  -15.4298    8.2286    1.2887 N   0  0  0  0  0  0  0  0  0  0  0  0
  -16.6501    7.8919    0.8719 N   0  0  0  0  0  0  0  0  0  0  0  0
  -20.4940    7.1878   -0.3408 O   0  0  0  0  0  0  0  0  0  0  0  0
  -21.7957    4.7106   -1.4262 O   0  0  0  0  0  0  0  0  0  0  0  0
  -18.2494    6.0956    0.5460 O   0  0  0  0  0  0  0  0  0  0  0  0
  -18.6980    9.3951   -2.5165 O   0  0  0  0  0  0  0  0  0  0  0  0
  -21.1730    9.7506   -0.3092 S   0  0  0  0  0  0  0  0  0  0  0  0
 13  1  1  1
  1 29  1  0
 16  2  2  0
  2 17  1  0
  2 26  1  0
  4  3  2  0
  3 18  1  0
  3 22  1  0
  5  4  1  0
  4 23  1  0
  6  5  2  0
  5 24  1  0
 17  6  1  0
  8  7  1  0
  9  8  2  0
  8 21  1  0
 10  9  1  0
 11 10  2  0
 11 20  1  0
 32 11  1  0
 19 12  1  0
 12 28  1  0
 12 32  1  1
 14 13  1  0
 13 28  1  0
 15 14  1  0
 14 30  1  1
 15 19  1  0
 15 25  1  1
 16 25  1  0
 17 18  2  0
 19 31  1  6
 20 21  2  0
 25 27  1  0
 26 27  2  0
M  END
$$$$
