
     RDKit          3D

 32 35  0  0  0  0  0  0  0  0999 V2000
  -20.0002    5.6238    0.6636 C   0  0  0  0  0  0  0  0  0  0  0  0
  -14.4126    9.0102    0.1444 C   0  0  0  0  0  0  0  0  0  0  0  0
  -10.9346    9.2768    1.4946 C   0  0  0  0  0  0  0  0  0  0  0  0
  -10.1926    9.1101    0.3448 C   0  0  0  0  0  0  0  0  0  0  0  0
  -10.7845    8.9107   -0.8768 C   0  0  0  0  0  0  0  0  0  0  0  0
  -12.1775    8.8806   -0.9254 C   0  0  0  0  0  0  0  0  0  0  0  0
  -26.2264    7.6884   -4.6374 C   0  0  0  0  0  0  0  0  0  0  0  0
  -25.0845    8.2475   -3.8614 C   0  0  0  0  0  0  0  0  0  0  0  0
  -23.8971    7.5475   -3.8201 C   0  0  0  0  0  0  0  0  0  0  0  0
  -22.8253    8.0390   -3.1120 C   0  0  0  0  0  0  0  0  0  0  0  0
  -22.8776    9.2493   -2.4096 C   0  0  0  0  0  0  0  0  0  0  0  0
  -20.1093    8.4993   -1.5227 C   0  0  1  0  0  0  0  0  0  0  0  0
  -19.5741    6.5041   -0.4914 C   0  0  2  0  0  0  0  0  0  0  0  0
  -18.1243    6.8033   -0.3771 C   0  0  1  0  0  0  0  0  0  0  0  0
  -17.6913    8.0467   -1.1145 C   0  0  1  0  0  0  0  0  0  0  0  0
  -15.2250    8.3311   -0.7362 C   0  0  0  0  0  0  0  0  0  0  0  0
  -12.9490    9.0421    0.1940 C   0  0  0  0  0  0  0  0  0  0  0  0
  -12.3172    9.2384    1.3918 C   0  0  0  0  0  0  0  0  0  0  0  0
  -18.7763    9.0997   -1.1377 C   0  0  1  0  0  0  0  0  0  0  0  0
  -24.0518    9.9300   -2.4582 C   0  0  0  0  0  0  0  0  0  0  0  0
  -25.1405    9.4258   -3.1800 C   0  0  0  0  0  0  0  0  0  0  0  0
  -10.3165    9.4726    2.6917 F   0  0  0  0  0  0  0  0  0  0  0  0
   -8.8486    9.1457    0.4349 F   0  0  0  0  0  0  0  0  0  0  0  0
  -10.0268    8.7506   -1.9880 F   0  0  0  0  0  0  0  0  0  0  0  0
  -16.5277    8.5737   -0.4297 N   0  0  0  0  0  0  0  0  0  0  0  0
  -15.2514    9.6558    0.9731 N   0  0  0  0  0  0  0  0  0  0  0  0
  -16.4783    9.3896    0.6234 N   0  0  0  0  0  0  0  0  0  0  0  0
  -20.4145    7.6057   -0.4869 O   0  0  0  0  0  0  0  0  0  0  0  0
  -20.8172    4.5947    0.2002 O   0  0  0  0  0  0  0  0  0  0  0  0
  -17.7317    6.8564    0.9745 O   0  0  0  0  0  0  0  0  0  0  0  0
  -18.3675   10.1730   -1.8640 O   0  0  0  0  0  0  0  0  0  0  0  0
  -21.3974    9.7219   -1.5940 S   0  0  0  0  0  0  0  0  0  0  0  0
 13  1  1  0
  1 29  1  6
 16  2  2  0
  2 17  1  0
  2 26  1  0
  4  3  2  0
  3 18  1  0
  3 22  1  0
  5  4  1  0
  4 23  1  0
  6  5  2  0
  5 24  1  0
 17  6  1  0
  7  8  1  6
  9  8  2  0
  8 21  1  0
 10  9  1  0
 11 10  2  0
 11 20  1  0
 32 11  1  0
 19 12  1  0
 12 28  1  0
 12 32  1  1
 14 13  1  0
 13 28  1  1
 15 14  1  0
 14 30  1  1
 15 19  1  0
 15 25  1  1
 16 25  1  0
 17 18  2  0
 19 31  1  6
 20 21  2  0
 25 27  1  0
 26 27  2  0
M  END
$$$$
