
     RDKit          3D

 32 35  0  0  0  0  0  0  0  0999 V2000
  -20.1109    5.1591   -0.7103 C   0  0  0  0  0  0  0  0  0  0  0  0
  -14.4340    8.6441    0.0674 C   0  0  0  0  0  0  0  0  0  0  0  0
  -11.1409   10.0278    1.1767 C   0  0  0  0  0  0  0  0  0  0  0  0
  -10.4416   10.0273   -0.0114 C   0  0  0  0  0  0  0  0  0  0  0  0
  -11.0046    9.5881   -1.1830 C   0  0  0  0  0  0  0  0  0  0  0  0
  -12.3224    9.1352   -1.1396 C   0  0  0  0  0  0  0  0  0  0  0  0
  -26.2558   11.0167   -3.5084 C   0  0  0  0  0  0  0  0  0  0  0  0
  -25.1205   10.7129   -2.5934 C   0  0  0  0  0  0  0  0  0  0  0  0
  -23.8567   10.5593   -3.1233 C   0  0  0  0  0  0  0  0  0  0  0  0
  -22.7888   10.2787   -2.3031 C   0  0  0  0  0  0  0  0  0  0  0  0
  -22.9212   10.1364   -0.9164 C   0  0  0  0  0  0  0  0  0  0  0  0
  -20.2502    8.7674   -0.8527 C   0  0  1  0  0  0  0  0  0  0  0  0
  -19.7561    6.5413   -1.2143 C   0  0  2  0  0  0  0  0  0  0  0  0
  -18.2839    6.7255   -1.1586 C   0  0  1  0  0  0  0  0  0  0  0  0
  -17.8442    8.1687   -1.1192 C   0  0  1  0  0  0  0  0  0  0  0  0
  -15.4321    8.8196   -0.8652 C   0  0  0  0  0  0  0  0  0  0  0  0
  -13.0496    9.1200    0.0203 C   0  0  0  0  0  0  0  0  0  0  0  0
  -12.4490    9.5671    1.1657 C   0  0  0  0  0  0  0  0  0  0  0  0
  -18.8378    9.0451   -0.3903 C   0  0  1  0  0  0  0  0  0  0  0  0
  -24.1703   10.2905   -0.4060 C   0  0  0  0  0  0  0  0  0  0  0  0
  -25.2545   10.5758   -1.2447 C   0  0  0  0  0  0  0  0  0  0  0  0
  -10.5532   10.4702    2.3224 F   0  0  0  0  0  0  0  0  0  0  0  0
   -9.1700   10.4730   -0.0104 F   0  0  0  0  0  0  0  0  0  0  0  0
  -10.2905    9.6009   -2.3338 F   0  0  0  0  0  0  0  0  0  0  0  0
  -16.5699    8.2149   -0.4302 N   0  0  0  0  0  0  0  0  0  0  0  0
  -14.9968    7.9290    1.0568 N   0  0  0  0  0  0  0  0  0  0  0  0
  -16.2403    7.6886    0.7495 N   0  0  0  0  0  0  0  0  0  0  0  0
  -20.5004    7.4424   -0.4703 O   0  0  0  0  0  0  0  0  0  0  0  0
  -21.1392    4.6217   -1.4817 O   0  0  0  0  0  0  0  0  0  0  0  0
  -17.7314    6.0008   -0.0847 O   0  0  0  0  0  0  0  0  0  0  0  0
  -18.4343   10.3419   -0.4343 O   0  0  0  0  0  0  0  0  0  0  0  0
  -21.4371    9.8101   -0.0385 S   0  0  0  0  0  0  0  0  0  0  0  0
 13  1  1  0
  1 29  1  6
 16  2  2  0
  2 17  1  0
  2 26  1  0
  4  3  2  0
  3 18  1  0
  3 22  1  0
  5  4  1  0
  4 23  1  0
  6  5  2  0
  5 24  1  0
 17  6  1  0
  7  8  1  6
  9  8  2  0
  8 21  1  0
 10  9  1  0
 11 10  2  0
 11 20  1  0
 32 11  1  0
 19 12  1  0
 12 28  1  0
 12 32  1  1
 14 13  1  0
 13 28  1  1
 15 14  1  0
 14 30  1  1
 15 19  1  0
 15 25  1  1
 16 25  1  0
 17 18  2  0
 19 31  1  6
 20 21  2  0
 25 27  1  0
 26 27  2  0
M  END
$$$$
