
     RDKit          3D

 32 35  0  0  0  0  0  0  0  0999 V2000
  -20.0133    9.6928   -4.7420 C   0  0  0  0  0  0  0  0  0  0  0  0
  -15.1194    8.5704   -0.3670 C   0  0  0  0  0  0  0  0  0  0  0  0
  -11.4532    8.3979    0.3537 C   0  0  0  0  0  0  0  0  0  0  0  0
  -11.3964    9.0251    1.5800 C   0  0  0  0  0  0  0  0  0  0  0  0
  -12.5207    9.5123    2.1973 C   0  0  0  0  0  0  0  0  0  0  0  0
  -13.7408    9.3540    1.5415 C   0  0  0  0  0  0  0  0  0  0  0  0
  -26.8188    9.7537    2.1029 C   0  0  0  0  0  0  0  0  0  0  0  0
  -25.7234    9.1280    1.3111 C   0  0  0  0  0  0  0  0  0  0  0  0
  -24.4717    9.7063    1.3272 C   0  0  0  0  0  0  0  0  0  0  0  0
  -23.4404    9.1508    0.6062 C   0  0  0  0  0  0  0  0  0  0  0  0
  -23.5993    7.9940   -0.1668 C   0  0  0  0  0  0  0  0  0  0  0  0
  -20.9471    8.6538   -1.4091 C   0  0  1  0  0  0  0  0  0  0  0  0
  -20.0630    9.7627   -3.2310 C   0  0  2  0  0  0  0  0  0  0  0  0
  -18.6804    9.8135   -2.6922 C   0  0  1  0  0  0  0  0  0  0  0  0
  -18.5610    9.3619   -1.2571 C   0  0  1  0  0  0  0  0  0  0  0  0
  -16.2553    9.3420   -0.2621 C   0  0  0  0  0  0  0  0  0  0  0  0
  -13.8382    8.7370    0.3232 C   0  0  0  0  0  0  0  0  0  0  0  0
  -12.6917    8.2660   -0.2564 C   0  0  0  0  0  0  0  0  0  0  0  0
  -19.5665    8.2855   -0.9152 C   0  0  1  0  0  0  0  0  0  0  0  0
  -24.8361    7.4332   -0.1744 C   0  0  0  0  0  0  0  0  0  0  0  0
  -25.8831    8.0021    0.5608 C   0  0  0  0  0  0  0  0  0  0  0  0
  -10.3187    7.9256   -0.2323 F   0  0  0  0  0  0  0  0  0  0  0  0
  -10.1973    9.1580    2.1804 F   0  0  0  0  0  0  0  0  0  0  0  0
  -12.4309   10.1234    3.4026 F   0  0  0  0  0  0  0  0  0  0  0  0
  -17.2210    8.8395   -1.0773 N   0  0  0  0  0  0  0  0  0  0  0  0
  -15.4269    7.6076   -1.2532 N   0  0  0  0  0  0  0  0  0  0  0  0
  -16.6543    7.7805   -1.6557 N   0  0  0  0  0  0  0  0  0  0  0  0
  -20.8320    8.6916   -2.8055 O   0  0  0  0  0  0  0  0  0  0  0  0
  -21.0470   10.4517   -5.2869 O   0  0  0  0  0  0  0  0  0  0  0  0
  -17.7959    9.0968   -3.5215 O   0  0  0  0  0  0  0  0  0  0  0  0
  -19.4658    7.9554    0.3991 O   0  0  0  0  0  0  0  0  0  0  0  0
  -22.1579    7.4225   -0.9885 S   0  0  0  0  0  0  0  0  0  0  0  0
 13  1  1  0
  1 29  1  6
 16  2  2  0
  2 17  1  0
  2 26  1  0
  4  3  2  0
  3 18  1  0
  3 22  1  0
  5  4  1  0
  4 23  1  0
  6  5  2  0
  5 24  1  0
 17  6  1  0
  7  8  1  6
  9  8  2  0
  8 21  1  0
 10  9  1  0
 11 10  2  0
 11 20  1  0
 32 11  1  0
 19 12  1  0
 12 28  1  0
 12 32  1  6
 14 13  1  0
 13 28  1  1
 15 14  1  0
 14 30  1  6
 15 19  1  0
 15 25  1  6
 16 25  1  0
 17 18  2  0
 19 31  1  1
 20 21  2  0
 25 27  1  0
 26 27  2  0
M  END
$$$$
