
     RDKit          3D

 32 35  0  0  0  0  0  0  0  0999 V2000
  -19.9273    6.1252   -3.3013 C   0  0  0  0  0  0  0  0  0  0  0  0
  -14.5968    8.7487   -0.1527 C   0  0  0  0  0  0  0  0  0  0  0  0
  -12.0639   11.0509    1.3554 C   0  0  0  0  0  0  0  0  0  0  0  0
  -10.8920   10.4007    1.0321 C   0  0  0  0  0  0  0  0  0  0  0  0
  -10.8876    9.2218    0.3304 C   0  0  0  0  0  0  0  0  0  0  0  0
  -12.1182    8.6905   -0.0530 C   0  0  0  0  0  0  0  0  0  0  0  0
  -27.1408   11.1390   -0.4195 C   0  0  0  0  0  0  0  0  0  0  0  0
  -25.7633   10.5924   -0.2697 C   0  0  0  0  0  0  0  0  0  0  0  0
  -25.4725    9.8009    0.8214 C   0  0  0  0  0  0  0  0  0  0  0  0
  -24.2095    9.2819    0.9861 C   0  0  0  0  0  0  0  0  0  0  0  0
  -23.1719    9.5220    0.0769 C   0  0  0  0  0  0  0  0  0  0  0  0
  -20.4279    8.7366   -0.8538 C   0  0  1  0  0  0  0  0  0  0  0  0
  -19.7503    7.4924   -2.6768 C   0  0  2  0  0  0  0  0  0  0  0  0
  -18.3033    7.7674   -2.4896 C   0  0  1  0  0  0  0  0  0  0  0  0
  -18.0044    8.8064   -1.4367 C   0  0  1  0  0  0  0  0  0  0  0  0
  -15.6937    9.4094   -0.6596 C   0  0  0  0  0  0  0  0  0  0  0  0
  -13.3032    9.3061    0.2490 C   0  0  0  0  0  0  0  0  0  0  0  0
  -13.2613   10.4803    0.9504 C   0  0  0  0  0  0  0  0  0  0  0  0
  -19.0166    8.7839   -0.3136 C   0  0  1  0  0  0  0  0  0  0  0  0
  -23.4704   10.3022   -0.9938 C   0  0  0  0  0  0  0  0  0  0  0  0
  -24.7574   10.8288   -1.1575 C   0  0  0  0  0  0  0  0  0  0  0  0
  -12.0340   12.2196    2.0531 F   0  0  0  0  0  0  0  0  0  0  0  0
   -9.7236   10.9476    1.4215 F   0  0  0  0  0  0  0  0  0  0  0  0
   -9.7186    8.6081    0.0283 F   0  0  0  0  0  0  0  0  0  0  0  0
  -16.6893    8.5150   -0.9014 N   0  0  0  0  0  0  0  0  0  0  0  0
  -14.9575    7.4549   -0.0986 N   0  0  0  0  0  0  0  0  0  0  0  0
  -16.1788    7.3383   -0.5383 N   0  0  0  0  0  0  0  0  0  0  0  0
  -20.5165    7.5080   -1.5225 O   0  0  0  0  0  0  0  0  0  0  0  0
  -21.1527    6.0594   -3.9611 O   0  0  0  0  0  0  0  0  0  0  0  0
  -17.5984    6.5748   -2.2355 O   0  0  0  0  0  0  0  0  0  0  0  0
  -18.7460    9.7743    0.5766 O   0  0  0  0  0  0  0  0  0  0  0  0
  -21.6413    8.7464    0.4449 S   0  0  0  0  0  0  0  0  0  0  0  0
 13  1  1  0
  1 29  1  6
 16  2  2  0
  2 17  1  0
  2 26  1  0
  4  3  2  0
  3 18  1  0
  3 22  1  0
  5  4  1  0
  4 23  1  0
  6  5  2  0
  5 24  1  0
 17  6  1  0
  7  8  1  6
  9  8  2  0
  8 21  1  0
 10  9  1  0
 11 10  2  0
 11 20  1  0
 32 11  1  0
 19 12  1  0
 12 28  1  0
 12 32  1  1
 14 13  1  0
 13 28  1  1
 15 14  1  0
 14 30  1  1
 15 19  1  0
 15 25  1  1
 16 25  1  0
 17 18  2  0
 19 31  1  6
 20 21  2  0
 25 27  1  0
 26 27  2  0
M  END
$$$$
