
     RDKit          3D

 32 35  0  0  0  0  0  0  0  0999 V2000
  -20.1731    4.9621   -0.4720 C   0  0  0  0  0  0  0  0  0  0  0  0
  -14.5372    8.9747    0.1683 C   0  0  0  0  0  0  0  0  0  0  0  0
  -11.0817    9.7681    1.3731 C   0  0  0  0  0  0  0  0  0  0  0  0
  -10.3371    9.8159    0.2133 C   0  0  0  0  0  0  0  0  0  0  0  0
  -10.9985    9.5799   -0.9841 C   0  0  0  0  0  0  0  0  0  0  0  0
  -12.3591    9.3076   -0.9924 C   0  0  0  0  0  0  0  0  0  0  0  0
  -24.0165   11.7447   -6.0256 C   0  0  0  0  0  0  0  0  0  0  0  0
  -23.3077   11.2800   -4.8042 C   0  0  0  0  0  0  0  0  0  0  0  0
  -21.9450   11.4246   -4.6403 C   0  0  0  0  0  0  0  0  0  0  0  0
  -21.3037   10.9859   -3.4991 C   0  0  0  0  0  0  0  0  0  0  0  0
  -21.9901   10.3813   -2.4644 C   0  0  0  0  0  0  0  0  0  0  0  0
  -20.0767    8.3792   -1.3656 C   0  0  1  0  0  0  0  0  0  0  0  0
  -19.6095    6.2565   -0.9586 C   0  0  2  0  0  0  0  0  0  0  0  0
  -18.1681    6.4568   -0.6188 C   0  0  1  0  0  0  0  0  0  0  0  0
  -17.6402    7.6927   -1.3043 C   0  0  1  0  0  0  0  0  0  0  0  0
  -15.2496    8.3780   -0.8513 C   0  0  0  0  0  0  0  0  0  0  0  0
  -13.1083    9.2584    0.1613 C   0  0  0  0  0  0  0  0  0  0  0  0
  -12.4365    9.4950    1.3411 C   0  0  0  0  0  0  0  0  0  0  0  0
  -18.6539    8.7272   -1.6235 C   0  0  1  0  0  0  0  0  0  0  0  0
  -23.3515   10.2370   -2.6282 C   0  0  0  0  0  0  0  0  0  0  0  0
  -23.9979   10.6770   -3.7739 C   0  0  0  0  0  0  0  0  0  0  0  0
  -10.4368    9.9983    2.5405 F   0  0  0  0  0  0  0  0  0  0  0  0
   -9.0040   10.0834    0.2304 F   0  0  0  0  0  0  0  0  0  0  0  0
  -10.2634    9.6288   -2.1155 F   0  0  0  0  0  0  0  0  0  0  0  0
  -16.5434    8.2687   -0.5119 N   0  0  0  0  0  0  0  0  0  0  0  0
  -15.4518    9.2151    1.1230 N   0  0  0  0  0  0  0  0  0  0  0  0
  -16.6412    8.7880    0.7001 N   0  0  0  0  0  0  0  0  0  0  0  0
  -20.2927    7.3627   -0.4531 O   0  0  0  0  0  0  0  0  0  0  0  0
  -21.2701    5.1112    0.3479 O   0  0  0  0  0  0  0  0  0  0  0  0
  -18.0489    6.6386    0.7547 O   0  0  0  0  0  0  0  0  0  0  0  0
  -18.4943    9.1934   -2.9522 O   0  0  0  0  0  0  0  0  0  0  0  0
  -21.1211    9.8223   -0.9956 S   0  0  0  0  0  0  0  0  0  0  0  0
 13  1  1  1
  1 29  1  0
 16  2  2  0
  2 17  1  0
  2 26  1  0
  4  3  2  0
  3 18  1  0
  3 22  1  0
  5  4  1  0
  4 23  1  0
  6  5  2  0
  5 24  1  0
 17  6  1  0
  8  7  1  0
  9  8  2  0
  8 21  1  0
 10  9  1  0
 11 10  2  0
 11 20  1  0
 32 11  1  0
 19 12  1  0
 12 28  1  0
 12 32  1  1
 14 13  1  0
 13 28  1  0
 15 14  1  0
 14 30  1  1
 15 19  1  0
 15 25  1  1
 16 25  1  0
 17 18  2  0
 19 31  1  6
 20 21  2  0
 25 27  1  0
 26 27  2  0
M  END
$$$$
