
     RDKit          3D

 32 35  0  0  0  0  0  0  0  0999 V2000
  -20.0573    5.0708    0.2529 C   0  0  0  0  0  0  0  0  0  0  0  0
  -14.5482    9.0456   -0.2712 C   0  0  0  0  0  0  0  0  0  0  0  0
  -10.9657    8.0400    0.1475 C   0  0  0  0  0  0  0  0  0  0  0  0
  -10.3621    9.1833    0.6278 C   0  0  0  0  0  0  0  0  0  0  0  0
  -11.1627   10.3021    0.8131 C   0  0  0  0  0  0  0  0  0  0  0  0
  -12.5180   10.2515    0.5198 C   0  0  0  0  0  0  0  0  0  0  0  0
  -26.5360    7.5676   -4.3052 C   0  0  0  0  0  0  0  0  0  0  0  0
  -25.2133    7.9937   -3.7769 C   0  0  0  0  0  0  0  0  0  0  0  0
  -24.0347    7.7537   -4.4539 C   0  0  0  0  0  0  0  0  0  0  0  0
  -22.8153    8.1562   -3.9471 C   0  0  0  0  0  0  0  0  0  0  0  0
  -22.7108    8.8184   -2.7397 C   0  0  0  0  0  0  0  0  0  0  0  0
  -20.0145    7.8890   -1.8778 C   0  0  1  0  0  0  0  0  0  0  0  0
  -19.5093    6.1008   -0.6790 C   0  0  2  0  0  0  0  0  0  0  0  0
  -18.0860    6.4676   -0.4092 C   0  0  1  0  0  0  0  0  0  0  0  0
  -17.5653    7.3664   -1.5033 C   0  0  1  0  0  0  0  0  0  0  0  0
  -15.2081    7.9608   -0.8103 C   0  0  0  0  0  0  0  0  0  0  0  0
  -13.1267    9.1140    0.0403 C   0  0  0  0  0  0  0  0  0  0  0  0
  -12.3179    8.0124   -0.1379 C   0  0  0  0  0  0  0  0  0  0  0  0
  -18.5926    8.1634   -2.2170 C   0  0  1  0  0  0  0  0  0  0  0  0
  -23.8882    9.0581   -2.0634 C   0  0  0  0  0  0  0  0  0  0  0  0
  -25.1145    8.6547   -2.5707 C   0  0  0  0  0  0  0  0  0  0  0  0
  -10.1851    6.9492   -0.0330 F   0  0  0  0  0  0  0  0  0  0  0  0
   -9.0332    9.2242    0.9127 F   0  0  0  0  0  0  0  0  0  0  0  0
  -10.5653   11.4175    1.2841 F   0  0  0  0  0  0  0  0  0  0  0  0
  -16.5113    8.2405   -0.9670 N   0  0  0  0  0  0  0  0  0  0  0  0
  -15.5037    9.9773   -0.1135 N   0  0  0  0  0  0  0  0  0  0  0  0
  -16.6665    9.4799   -0.5336 N   0  0  0  0  0  0  0  0  0  0  0  0
  -20.2368    7.2908   -0.6509 O   0  0  0  0  0  0  0  0  0  0  0  0
  -21.1778    4.4303   -0.2292 O   0  0  0  0  0  0  0  0  0  0  0  0
  -18.0191    7.1642    0.7925 O   0  0  0  0  0  0  0  0  0  0  0  0
  -18.3985    8.0924   -3.6190 O   0  0  0  0  0  0  0  0  0  0  0  0
  -21.1064    9.3253   -2.1120 S   0  0  0  0  0  0  0  0  0  0  0  0
 13  1  1  1
  1 29  1  0
 16  2  2  0
  2 17  1  0
  2 26  1  0
  4  3  2  0
  3 18  1  0
  3 22  1  0
  5  4  1  0
  4 23  1  0
  6  5  2  0
  5 24  1  0
 17  6  1  0
  8  7  1  0
  9  8  2  0
  8 21  1  0
 10  9  1  0
 11 10  2  0
 11 20  1  0
 32 11  1  0
 19 12  1  0
 12 28  1  0
 12 32  1  1
 14 13  1  0
 13 28  1  0
 15 14  1  0
 14 30  1  1
 15 19  1  0
 15 25  1  1
 16 25  1  0
 17 18  2  0
 19 31  1  6
 20 21  2  0
 25 27  1  0
 26 27  2  0
M  END
$$$$
