
     RDKit          3D

 32 35  0  0  0  0  0  0  0  0999 V2000
  -19.7237    6.2320    0.9639 C   0  0  0  0  0  0  0  0  0  0  0  0
  -14.4728    8.9544   -0.5910 C   0  0  0  0  0  0  0  0  0  0  0  0
  -10.8571    8.9564    0.3665 C   0  0  0  0  0  0  0  0  0  0  0  0
  -10.9456    8.7633    1.7287 C   0  0  0  0  0  0  0  0  0  0  0  0
  -12.1541    8.6292    2.3643 C   0  0  0  0  0  0  0  0  0  0  0  0
  -13.3079    8.6945    1.5844 C   0  0  0  0  0  0  0  0  0  0  0  0
  -26.6771    7.3321   -4.0169 C   0  0  0  0  0  0  0  0  0  0  0  0
  -25.4334    7.9726   -3.5055 C   0  0  0  0  0  0  0  0  0  0  0  0
  -24.2573    7.2528   -3.5156 C   0  0  0  0  0  0  0  0  0  0  0  0
  -23.0929    7.8180   -3.0501 C   0  0  0  0  0  0  0  0  0  0  0  0
  -23.0370    9.1252   -2.5514 C   0  0  0  0  0  0  0  0  0  0  0  0
  -20.1983    8.4293   -1.8657 C   0  0  1  0  0  0  0  0  0  0  0  0
  -19.5116    6.7446   -0.4442 C   0  0  2  0  0  0  0  0  0  0  0  0
  -18.0616    6.9615   -0.6786 C   0  0  1  0  0  0  0  0  0  0  0  0
  -17.7557    7.9331   -1.7922 C   0  0  1  0  0  0  0  0  0  0  0  0
  -15.5673    8.1186   -0.5745 C   0  0  0  0  0  0  0  0  0  0  0  0
  -13.2614    8.8851    0.2294 C   0  0  0  0  0  0  0  0  0  0  0  0
  -12.0349    9.0139   -0.3635 C   0  0  0  0  0  0  0  0  0  0  0  0
  -18.8054    9.0157   -1.9053 C   0  0  1  0  0  0  0  0  0  0  0  0
  -24.2013    9.8244   -2.5470 C   0  0  0  0  0  0  0  0  0  0  0  0
  -25.3843    9.2451   -3.0215 C   0  0  0  0  0  0  0  0  0  0  0  0
   -9.6421    9.0860   -0.2339 F   0  0  0  0  0  0  0  0  0  0  0  0
   -9.8065    8.7062    2.4463 F   0  0  0  0  0  0  0  0  0  0  0  0
  -12.2067    8.4401    3.7044 F   0  0  0  0  0  0  0  0  0  0  0  0
  -16.4726    8.5396   -1.4979 N   0  0  0  0  0  0  0  0  0  0  0  0
  -14.7437    9.8726   -1.5347 N   0  0  0  0  0  0  0  0  0  0  0  0
  -15.9119    9.6149   -2.0516 N   0  0  0  0  0  0  0  0  0  0  0  0
  -20.3150    7.8641   -0.5884 O   0  0  0  0  0  0  0  0  0  0  0  0
  -20.5441    5.1060    0.9410 O   0  0  0  0  0  0  0  0  0  0  0  0
  -17.4156    7.3417    0.5137 O   0  0  0  0  0  0  0  0  0  0  0  0
  -18.5242    9.8282   -2.9576 O   0  0  0  0  0  0  0  0  0  0  0  0
  -21.4534    9.6765   -2.0338 S   0  0  0  0  0  0  0  0  0  0  0  0
 13  1  1  0
  1 29  1  6
 16  2  2  0
  2 17  1  0
  2 26  1  0
  4  3  2  0
  3 18  1  0
  3 22  1  0
  5  4  1  0
  4 23  1  0
  6  5  2  0
  5 24  1  0
 17  6  1  0
  7  8  1  6
  9  8  2  0
  8 21  1  0
 10  9  1  0
 11 10  2  0
 11 20  1  0
 32 11  1  0
 19 12  1  0
 12 28  1  0
 12 32  1  1
 14 13  1  0
 13 28  1  1
 15 14  1  0
 14 30  1  1
 15 19  1  0
 15 25  1  1
 16 25  1  0
 17 18  2  0
 19 31  1  6
 20 21  2  0
 25 27  1  0
 26 27  2  0
M  END
$$$$
