
     RDKit          3D

 32 35  0  0  0  0  0  0  0  0999 V2000
  -20.0270    5.1652    0.1635 C   0  0  0  0  0  0  0  0  0  0  0  0
  -14.4438    8.7790    0.2206 C   0  0  0  0  0  0  0  0  0  0  0  0
  -11.1011    9.6201   -1.2319 C   0  0  0  0  0  0  0  0  0  0  0  0
  -10.3132    9.6122   -0.1007 C   0  0  0  0  0  0  0  0  0  0  0  0
  -10.8305    9.3396    1.1404 C   0  0  0  0  0  0  0  0  0  0  0  0
  -12.1949    9.0668    1.2289 C   0  0  0  0  0  0  0  0  0  0  0  0
  -26.6900    9.4963   -3.8857 C   0  0  0  0  0  0  0  0  0  0  0  0
  -25.4191    9.4771   -3.1091 C   0  0  0  0  0  0  0  0  0  0  0  0
  -24.5823   10.5714   -3.1682 C   0  0  0  0  0  0  0  0  0  0  0  0
  -23.4023   10.5826   -2.4616 C   0  0  0  0  0  0  0  0  0  0  0  0
  -22.9935    9.5089   -1.6610 C   0  0  0  0  0  0  0  0  0  0  0  0
  -20.2029    8.5277   -1.1491 C   0  0  1  0  0  0  0  0  0  0  0  0
  -19.6477    6.3260   -0.7304 C   0  0  2  0  0  0  0  0  0  0  0  0
  -18.1891    6.5800   -0.6196 C   0  0  1  0  0  0  0  0  0  0  0  0
  -17.7747    7.9765   -1.0140 C   0  0  1  0  0  0  0  0  0  0  0  0
  -15.3284    8.5014   -0.7978 C   0  0  0  0  0  0  0  0  0  0  0  0
  -13.0101    9.0651    0.1290 C   0  0  0  0  0  0  0  0  0  0  0  0
  -12.4524    9.3421   -1.0895 C   0  0  0  0  0  0  0  0  0  0  0  0
  -18.8414    8.9980   -0.6898 C   0  0  1  0  0  0  0  0  0  0  0  0
  -23.8260    8.4372   -1.6101 C   0  0  0  0  0  0  0  0  0  0  0  0
  -25.0261    8.4299   -2.3313 C   0  0  0  0  0  0  0  0  0  0  0  0
  -10.5569    9.8946   -2.4493 F   0  0  0  0  0  0  0  0  0  0  0  0
   -8.9991    9.8812   -0.2293 F   0  0  0  0  0  0  0  0  0  0  0  0
  -10.0292    9.3395    2.2324 F   0  0  0  0  0  0  0  0  0  0  0  0
  -16.5677    8.2948   -0.2773 N   0  0  0  0  0  0  0  0  0  0  0  0
  -15.1760    8.7336    1.3469 N   0  0  0  0  0  0  0  0  0  0  0  0
  -16.4099    8.4504    1.0373 N   0  0  0  0  0  0  0  0  0  0  0  0
  -20.4679    7.3863   -0.3800 O   0  0  0  0  0  0  0  0  0  0  0  0
  -21.2351    4.6148   -0.2596 O   0  0  0  0  0  0  0  0  0  0  0  0
  -17.7248    6.2622    0.6716 O   0  0  0  0  0  0  0  0  0  0  0  0
  -18.4535   10.2278   -1.1184 O   0  0  0  0  0  0  0  0  0  0  0  0
  -21.4721    9.7258   -0.8138 S   0  0  0  0  0  0  0  0  0  0  0  0
 13  1  1  0
  1 29  1  6
 16  2  2  0
  2 17  1  0
  2 26  1  0
  4  3  2  0
  3 18  1  0
  3 22  1  0
  5  4  1  0
  4 23  1  0
  6  5  2  0
  5 24  1  0
 17  6  1  0
  7  8  1  6
  9  8  2  0
  8 21  1  0
 10  9  1  0
 11 10  2  0
 11 20  1  0
 32 11  1  0
 19 12  1  0
 12 28  1  0
 12 32  1  1
 14 13  1  0
 13 28  1  1
 15 14  1  0
 14 30  1  1
 15 19  1  0
 15 25  1  1
 16 25  1  0
 17 18  2  0
 19 31  1  6
 20 21  2  0
 25 27  1  0
 26 27  2  0
M  END
$$$$
