
     RDKit          3D

 32 35  0  0  0  0  0  0  0  0999 V2000
  -20.8160    6.9114   -3.1886 C   0  0  0  0  0  0  0  0  0  0  0  0
  -15.0814    8.9043    0.2353 C   0  0  0  0  0  0  0  0  0  0  0  0
  -11.9407   10.8916    0.6914 C   0  0  0  0  0  0  0  0  0  0  0  0
  -10.9626    9.9275    0.8178 C   0  0  0  0  0  0  0  0  0  0  0  0
  -11.3587    8.5988    0.7500 C   0  0  0  0  0  0  0  0  0  0  0  0
  -12.6944    8.2735    0.5615 C   0  0  0  0  0  0  0  0  0  0  0  0
  -27.1669   12.2019   -0.6251 C   0  0  0  0  0  0  0  0  0  0  0  0
  -25.8425   11.6195   -0.2832 C   0  0  0  0  0  0  0  0  0  0  0  0
  -25.4756   11.3291    1.0152 C   0  0  0  0  0  0  0  0  0  0  0  0
  -24.2406   10.7893    1.3138 C   0  0  0  0  0  0  0  0  0  0  0  0
  -23.3099   10.5120    0.3317 C   0  0  0  0  0  0  0  0  0  0  0  0
  -20.7377    9.4523   -0.7347 C   0  0  1  0  0  0  0  0  0  0  0  0
  -20.2760    8.0378   -2.3705 C   0  0  2  0  0  0  0  0  0  0  0  0
  -18.8049    7.9556   -2.1206 C   0  0  1  0  0  0  0  0  0  0  0  0
  -18.3206    9.2186   -1.4524 C   0  0  1  0  0  0  0  0  0  0  0  0
  -15.9106    9.4461   -0.7248 C   0  0  0  0  0  0  0  0  0  0  0  0
  -13.6756    9.2304    0.4345 C   0  0  0  0  0  0  0  0  0  0  0  0
  -13.2655   10.5444    0.5041 C   0  0  0  0  0  0  0  0  0  0  0  0
  -19.3395    9.9546   -0.6650 C   0  0  1  0  0  0  0  0  0  0  0  0
  -23.6765   10.8021   -0.9654 C   0  0  0  0  0  0  0  0  0  0  0  0
  -24.9169   11.3445   -1.2677 C   0  0  0  0  0  0  0  0  0  0  0  0
  -11.5544   12.1870    0.7574 F   0  0  0  0  0  0  0  0  0  0  0  0
   -9.6559   10.2550    1.0024 F   0  0  0  0  0  0  0  0  0  0  0  0
  -10.3960    7.6604    0.8741 F   0  0  0  0  0  0  0  0  0  0  0  0
  -17.1417    8.9211   -0.6254 N   0  0  0  0  0  0  0  0  0  0  0  0
  -15.8620    8.0408    0.9068 N   0  0  0  0  0  0  0  0  0  0  0  0
  -17.0860    8.0644    0.3801 N   0  0  0  0  0  0  0  0  0  0  0  0
  -20.8854    8.1321   -1.1192 O   0  0  0  0  0  0  0  0  0  0  0  0
  -22.0139    6.4154   -2.7226 O   0  0  0  0  0  0  0  0  0  0  0  0
  -18.5509    6.8885   -1.2659 O   0  0  0  0  0  0  0  0  0  0  0  0
  -19.2988   11.3398   -0.9613 O   0  0  0  0  0  0  0  0  0  0  0  0
  -21.7128    9.8109    0.7589 S   0  0  0  0  0  0  0  0  0  0  0  0
 13  1  1  1
  1 29  1  0
 16  2  2  0
  2 17  1  0
  2 26  1  0
  4  3  2  0
  3 18  1  0
  3 22  1  0
  5  4  1  0
  4 23  1  0
  6  5  2  0
  5 24  1  0
 17  6  1  0
  8  7  1  0
  9  8  2  0
  8 21  1  0
 10  9  1  0
 11 10  2  0
 11 20  1  0
 32 11  1  0
 19 12  1  0
 12 28  1  0
 12 32  1  1
 14 13  1  0
 13 28  1  0
 15 14  1  0
 14 30  1  1
 15 19  1  0
 15 25  1  1
 16 25  1  0
 17 18  2  0
 19 31  1  6
 20 21  2  0
 25 27  1  0
 26 27  2  0
M  END
$$$$
