
     RDKit          3D

 28 30  0  0  0  0  0  0  0  0999 V2000
    5.9120    1.9723    8.8430 C   0  0  0  0  0  0  0  0  0  0  0  0
    5.2078    3.0377    8.3272 C   0  0  0  0  0  0  0  0  0  0  0  0
    3.8400    3.0006    8.4896 C   0  0  0  0  0  0  0  0  0  0  0  0
   -1.1864    3.4743    9.4189 C   0  0  0  0  0  0  0  0  0  0  0  0
   -2.3372    4.2403    9.6406 C   0  0  0  0  0  0  0  0  0  0  0  0
   -2.2920    5.3609   10.4419 C   0  0  0  0  0  0  0  0  0  0  0  0
   -1.0806    5.7125   11.0233 C   0  0  0  0  0  0  0  0  0  0  0  0
    0.0524    4.9670   10.8108 C   0  0  0  0  0  0  0  0  0  0  0  0
    1.3411    5.3616   11.4441 C   0  0  0  0  0  0  0  0  0  0  0  0
    2.1477    6.0711   10.4219 C   0  0  0  0  0  0  0  0  0  0  0  0
    5.2961    5.0687    6.8604 C   0  0  0  0  0  0  0  0  0  0  0  0
    6.0028    6.0829    6.2457 C   0  0  0  0  0  0  0  0  0  0  0  0
    7.3517    6.1725    6.4192 C   0  0  0  0  0  0  0  0  0  0  0  0
    7.9916    5.2433    7.2100 C   0  0  0  0  0  0  0  0  0  0  0  0
    7.2654    4.2241    7.8248 C   0  0  0  0  0  0  0  0  0  0  0  0
    5.2857    7.0689    5.3987 C   0  0  1  0  0  0  0  0  0  0  0  0
    4.6825    8.1567    6.2566 C   0  0  0  0  0  0  0  0  0  0  0  0
    3.1649    1.9875    9.1198 C   0  0  0  0  0  0  0  0  0  0  0  0
    3.8795    0.9295    9.6302 C   0  0  0  0  0  0  0  0  0  0  0  0
    5.2456    0.9267    9.4898 C   0  0  0  0  0  0  0  0  0  0  0  0
    5.8994    4.1219    7.6576 C   0  0  0  0  0  0  0  0  0  0  0  0
    1.6935    2.0779    9.2338 C   0  0  0  0  0  0  0  0  0  0  0  0
    1.1482    3.1450    9.8310 O   0  0  0  0  0  0  0  0  0  0  0  0
    0.0154    3.8150    9.9897 C   0  0  0  0  0  0  0  0  0  0  0  0
    1.5587    7.0069    9.5580 O   0  0  0  0  0  0  0  0  0  0  0  0
    3.3628    5.8663   10.2929 O   0  0  0  0  0  0  0  0  0  0  0  0
    6.1790    7.6642    4.4251 N   0  0  0  0  0  4  0  0  0  0  0  0
    3.4921    7.7039    6.8183 O   0  0  0  0  0  0  0  0  0  0  0  0
  2  1  2  0
 20  1  1  0
  3  2  1  0
  2 21  1  0
 18  3  2  0
  4  5  2  0
 24  4  1  0
  5  6  1  0
  7  6  2  0
  8  7  1  0
  8  9  1  0
 24  8  2  0
  9 10  1  0
 10 25  1  0
 10 26  2  0
 11 12  2  0
 21 11  1  0
 12 13  1  0
 12 16  1  0
 14 13  2  0
 15 14  1  0
 21 15  2  0
 16 17  1  0
 16 27  1  6
 17 28  1  0
 18 19  1  0
 22 18  1  0
 19 20  2  0
 23 22  1  0
 23 24  1  0
M  CHG  1  27   1
M  END
$$$$
