
     RDKit          3D

 28 30  0  0  0  0  0  0  0  0999 V2000
    6.6727    2.5729    7.2363 C   0  0  0  0  0  0  0  0  0  0  0  0
    5.6892    3.4332    7.6715 C   0  0  0  0  0  0  0  0  0  0  0  0
    4.8125    2.9327    8.6093 C   0  0  0  0  0  0  0  0  0  0  0  0
    0.7596    0.6188    9.6157 C   0  0  0  0  0  0  0  0  0  0  0  0
   -0.6369    0.5311    9.5669 C   0  0  0  0  0  0  0  0  0  0  0  0
   -1.4225    1.5724   10.0122 C   0  0  0  0  0  0  0  0  0  0  0  0
   -0.7981    2.7091   10.5095 C   0  0  0  0  0  0  0  0  0  0  0  0
    0.5705    2.8031   10.5606 C   0  0  0  0  0  0  0  0  0  0  0  0
    1.2196    4.0310   11.0977 C   0  0  0  0  0  0  0  0  0  0  0  0
    1.4180    4.9687    9.9662 C   0  0  0  0  0  0  0  0  0  0  0  0
    6.0707    5.1818    5.9161 C   0  0  0  0  0  0  0  0  0  0  0  0
    5.9700    6.4838    5.4686 C   0  0  0  0  0  0  0  0  0  0  0  0
    5.3965    7.4321    6.2621 C   0  0  0  0  0  0  0  0  0  0  0  0
    4.9239    7.0732    7.5054 C   0  0  0  0  0  0  0  0  0  0  0  0
    5.0322    5.7543    7.9447 C   0  0  0  0  0  0  0  0  0  0  0  0
    6.4890    6.8407    4.1243 C   0  0  1  0  0  0  0  0  0  0  0  0
    7.7735    7.6264    4.2497 C   0  0  0  0  0  0  0  0  0  0  0  0
    4.8682    1.6601    9.1160 C   0  0  0  0  0  0  0  0  0  0  0  0
    5.8547    0.8110    8.6732 C   0  0  0  0  0  0  0  0  0  0  0  0
    6.7498    1.2699    7.7382 C   0  0  0  0  0  0  0  0  0  0  0  0
    5.6105    4.7844    7.1516 C   0  0  0  0  0  0  0  0  0  0  0  0
    3.8688    1.2539   10.1272 C   0  0  0  0  0  0  0  0  0  0  0  0
    2.6982    1.9012   10.1865 O   0  0  0  0  0  0  0  0  0  0  0  0
    1.3850    1.7390   10.1057 C   0  0  0  0  0  0  0  0  0  0  0  0
    2.6974    5.4391    9.6332 O   0  0  0  0  0  0  0  0  0  0  0  0
    0.4693    5.3690    9.2774 O   0  0  0  0  0  0  0  0  0  0  0  0
    6.7272    5.6538    3.3276 N   0  0  0  0  0  4  0  0  0  0  0  0
    7.4989    8.8957    4.7508 O   0  0  0  0  0  0  0  0  0  0  0  0
  2  1  2  0
 20  1  1  0
  3  2  1  0
  2 21  1  0
 18  3  2  0
  4  5  2  0
 24  4  1  0
  5  6  1  0
  7  6  2  0
  8  7  1  0
  8  9  1  0
 24  8  2  0
  9 10  1  0
 10 25  1  0
 10 26  2  0
 11 12  2  0
 21 11  1  0
 12 13  1  0
 12 16  1  0
 14 13  2  0
 15 14  1  0
 21 15  2  0
 16 17  1  0
 16 27  1  6
 17 28  1  0
 18 19  1  0
 22 18  1  0
 19 20  2  0
 23 22  1  0
 23 24  1  0
M  CHG  1  27   1
M  END
$$$$
