
     RDKit          3D

 28 30  0  0  0  0  0  0  0  0999 V2000
    6.5126    2.4702    7.6505 C   0  0  0  0  0  0  0  0  0  0  0  0
    5.5674    3.3698    8.0884 C   0  0  0  0  0  0  0  0  0  0  0  0
    4.6369    2.9364    9.0009 C   0  0  0  0  0  0  0  0  0  0  0  0
    0.5102    0.7815   11.3525 C   0  0  0  0  0  0  0  0  0  0  0  0
   -0.7483    0.8435   11.9322 C   0  0  0  0  0  0  0  0  0  0  0  0
   -1.2679    2.0472   12.2967 C   0  0  0  0  0  0  0  0  0  0  0  0
   -0.5076    3.1777   12.0707 C   0  0  0  0  0  0  0  0  0  0  0  0
    0.7349    3.1237   11.4990 C   0  0  0  0  0  0  0  0  0  0  0  0
    1.5007    4.3748   11.2840 C   0  0  0  0  0  0  0  0  0  0  0  0
    1.2408    4.9504    9.9464 C   0  0  0  0  0  0  0  0  0  0  0  0
    6.1796    5.0994    6.4020 C   0  0  0  0  0  0  0  0  0  0  0  0
    6.1927    6.3798    5.9119 C   0  0  0  0  0  0  0  0  0  0  0  0
    5.5562    7.3492    6.6560 C   0  0  0  0  0  0  0  0  0  0  0  0
    4.9294    7.0560    7.8445 C   0  0  0  0  0  0  0  0  0  0  0  0
    4.9420    5.7434    8.3021 C   0  0  0  0  0  0  0  0  0  0  0  0
    6.8789    6.6548    4.6275 C   0  0  1  0  0  0  0  0  0  0  0  0
    7.8958    7.7625    4.7336 C   0  0  0  0  0  0  0  0  0  0  0  0
    4.6498    1.6124    9.4736 C   0  0  0  0  0  0  0  0  0  0  0  0
    5.5960    0.7232    9.0316 C   0  0  0  0  0  0  0  0  0  0  0  0
    6.5297    1.1563    8.1163 C   0  0  0  0  0  0  0  0  0  0  0  0
    5.5675    4.7330    7.5919 C   0  0  0  0  0  0  0  0  0  0  0  0
    3.6449    1.1802   10.4898 C   0  0  0  0  0  0  0  0  0  0  0  0
    2.5094    1.9287   10.5644 O   0  0  0  0  0  0  0  0  0  0  0  0
    1.2970    1.8853   11.1112 C   0  0  0  0  0  0  0  0  0  0  0  0
    1.9386    4.4924    8.8525 O   0  0  0  0  0  0  0  0  0  0  0  0
    0.3727    5.8574    9.8537 O   0  0  0  0  0  0  0  0  0  0  0  0
    7.5520    5.3914    4.2319 N   0  0  0  0  0  4  0  0  0  0  0  0
    8.4645    7.8973    3.4510 O   0  0  0  0  0  0  0  0  0  0  0  0
  2  1  2  0
 20  1  1  0
  3  2  1  0
  2 21  1  0
 18  3  2  0
  4  5  2  0
 24  4  1  0
  5  6  1  0
  7  6  2  0
  8  7  1  0
  8  9  1  0
 24  8  2  0
  9 10  1  6
 10 25  1  0
 10 26  2  0
 11 12  2  0
 21 11  1  0
 12 13  1  0
 16 12  1  1
 14 13  2  0
 15 14  1  0
 21 15  2  0
 16 17  1  0
 27 16  1  6
 17 28  1  6
 18 19  1  0
 22 18  1  0
 19 20  2  0
 22 23  1  6
 23 24  1  0
M  CHG  1  27   1
M  END
$$$$
