
     RDKit          3D

 28 30  0  0  0  0  0  0  0  0999 V2000
    4.9294    1.0281    9.8311 C   0  0  0  0  0  0  0  0  0  0  0  0
    4.4258    2.1154    9.1539 C   0  0  0  0  0  0  0  0  0  0  0  0
    3.0783    2.3654    9.2444 C   0  0  0  0  0  0  0  0  0  0  0  0
   -1.7956    3.8030   10.2784 C   0  0  0  0  0  0  0  0  0  0  0  0
   -2.7510    4.8043   10.3690 C   0  0  0  0  0  0  0  0  0  0  0  0
   -2.4392    5.9865   10.9665 C   0  0  0  0  0  0  0  0  0  0  0  0
   -1.1617    6.1437   11.4670 C   0  0  0  0  0  0  0  0  0  0  0  0
   -0.2139    5.1599   11.3808 C   0  0  0  0  0  0  0  0  0  0  0  0
    1.1398    5.3916   11.9390 C   0  0  0  0  0  0  0  0  0  0  0  0
    1.3047    4.7416   13.2575 C   0  0  0  0  0  0  0  0  0  0  0  0
    4.9522    4.2432    7.9684 C   0  0  0  0  0  0  0  0  0  0  0  0
    5.7657    5.0637    7.2303 C   0  0  0  0  0  0  0  0  0  0  0  0
    7.0044    4.5750    6.8761 C   0  0  0  0  0  0  0  0  0  0  0  0
    7.4190    3.3159    7.2426 C   0  0  0  0  0  0  0  0  0  0  0  0
    6.5601    2.5195    7.9910 C   0  0  0  0  0  0  0  0  0  0  0  0
    5.2820    6.4134    6.8554 C   0  0  1  0  0  0  0  0  0  0  0  0
    5.0863    6.5721    5.3691 C   0  0  0  0  0  0  0  0  0  0  0  0
    2.2383    1.5347   10.0066 C   0  0  0  0  0  0  0  0  0  0  0  0
    2.7495    0.4536   10.6782 C   0  0  0  0  0  0  0  0  0  0  0  0
    4.1007    0.2014   10.5883 C   0  0  0  0  0  0  0  0  0  0  0  0
    5.3054    2.9638    8.3722 C   0  0  0  0  0  0  0  0  0  0  0  0
    0.7829    1.8513   10.1118 C   0  0  0  0  0  0  0  0  0  0  0  0
    0.4690    3.0253   10.7268 O   0  0  0  0  0  0  0  0  0  0  0  0
   -0.5130    3.9227   10.7646 C   0  0  0  0  0  0  0  0  0  0  0  0
    0.2086    4.5274   14.0613 O   0  0  0  0  0  0  0  0  0  0  0  0
    2.4655    4.4004   13.6052 O   0  0  0  0  0  0  0  0  0  0  0  0
    3.9864    6.6049    7.5558 N   0  0  0  0  0  4  0  0  0  0  0  0
    6.3734    6.5241    4.7966 O   0  0  0  0  0  0  0  0  0  0  0  0
  2  1  2  0
 20  1  1  0
  3  2  1  0
  2 21  1  0
 18  3  2  0
  4  5  2  0
 24  4  1  0
  5  6  1  0
  7  6  2  0
  8  7  1  0
  8  9  1  0
 24  8  2  0
  9 10  1  6
 10 25  1  0
 10 26  2  0
 11 12  2  0
 21 11  1  0
 12 13  1  0
 16 12  1  6
 14 13  2  0
 15 14  1  0
 21 15  2  0
 16 17  1  0
 27 16  1  6
 17 28  1  6
 18 19  1  0
 22 18  1  0
 19 20  2  0
 22 23  1  6
 23 24  1  0
M  CHG  1  27   1
M  END
$$$$
