
     RDKit          3D

 28 30  0  0  0  0  0  0  0  0999 V2000
    1.8016    6.0260   12.3039 C   0  0  0  0  0  0  0  0  0  0  0  0
    1.9495    4.8975   11.5299 C   0  0  0  0  0  0  0  0  0  0  0  0
    1.8826    3.6745   12.1515 C   0  0  0  0  0  0  0  0  0  0  0  0
    3.2494   -0.2882   15.7309 C   0  0  0  0  0  0  0  0  0  0  0  0
    3.6869   -1.5814   15.9762 C   0  0  0  0  0  0  0  0  0  0  0  0
    3.9976   -2.4006   14.9350 C   0  0  0  0  0  0  0  0  0  0  0  0
    3.8623   -1.9022   13.6542 C   0  0  0  0  0  0  0  0  0  0  0  0
    3.4313   -0.6272   13.4049 C   0  0  0  0  0  0  0  0  0  0  0  0
    3.3069   -0.1530   12.0058 C   0  0  0  0  0  0  0  0  0  0  0  0
    4.5790    0.4136   11.5069 C   0  0  0  0  0  0  0  0  0  0  0  0
    2.7732    6.1177    9.5193 C   0  0  0  0  0  0  0  0  0  0  0  0
    2.9913    6.2494    8.1721 C   0  0  0  0  0  0  0  0  0  0  0  0
    2.5798    5.2152    7.3599 C   0  0  0  0  0  0  0  0  0  0  0  0
    1.9734    4.0906    7.8690 C   0  0  0  0  0  0  0  0  0  0  0  0
    1.7730    4.0011    9.2417 C   0  0  0  0  0  0  0  0  0  0  0  0
    3.6478    7.4766    7.6631 C   0  0  1  0  0  0  0  0  0  0  0  0
    2.6656    8.5732    7.3388 C   0  0  0  0  0  0  0  0  0  0  0  0
    1.6694    3.5786   13.5378 C   0  0  0  0  0  0  0  0  0  0  0  0
    1.5229    4.7089   14.3008 C   0  0  0  0  0  0  0  0  0  0  0  0
    1.5899    5.9361   13.6790 C   0  0  0  0  0  0  0  0  0  0  0  0
    2.1681    5.0127   10.1004 C   0  0  0  0  0  0  0  0  0  0  0  0
    1.5693    2.2340   14.1793 C   0  0  0  0  0  0  0  0  0  0  0  0
    2.6919    1.4641   14.1331 O   0  0  0  0  0  0  0  0  0  0  0  0
    3.1024    0.2437   14.4695 C   0  0  0  0  0  0  0  0  0  0  0  0
    4.5679    1.3376   10.4873 O   0  0  0  0  0  0  0  0  0  0  0  0
    5.6487    0.0229   12.0433 O   0  0  0  0  0  0  0  0  0  0  0  0
    4.5739    7.9316    8.7314 N   0  0  0  0  0  4  0  0  0  0  0  0
    2.0053    8.1725    6.1597 O   0  0  0  0  0  0  0  0  0  0  0  0
  2  1  2  0
 20  1  1  0
  3  2  1  0
  2 21  1  0
 18  3  2  0
  4  5  2  0
 24  4  1  0
  5  6  1  0
  7  6  2  0
  8  7  1  0
  8  9  1  0
 24  8  2  0
  9 10  1  6
 10 25  1  0
 10 26  2  0
 11 12  2  0
 21 11  1  0
 12 13  1  0
 16 12  1  1
 14 13  2  0
 15 14  1  0
 21 15  2  0
 16 17  1  0
 27 16  1  6
 17 28  1  6
 18 19  1  0
 22 18  1  0
 19 20  2  0
 22 23  1  6
 23 24  1  0
M  CHG  1  27   1
M  END
$$$$
