
     RDKit          3D

 28 30  0  0  0  0  0  0  0  0999 V2000
    6.1600    4.4283    7.7771 C   0  0  0  0  0  0  0  0  0  0  0  0
    5.2537    3.5846    8.3782 C   0  0  0  0  0  0  0  0  0  0  0  0
    4.1085    4.1335    8.9011 C   0  0  0  0  0  0  0  0  0  0  0  0
    0.4467    6.2633   11.8196 C   0  0  0  0  0  0  0  0  0  0  0  0
   -0.6433    6.1919   12.6743 C   0  0  0  0  0  0  0  0  0  0  0  0
   -1.4174    5.0728   12.6934 C   0  0  0  0  0  0  0  0  0  0  0  0
   -1.0801    4.0357   11.8461 C   0  0  0  0  0  0  0  0  0  0  0  0
   -0.0057    4.0994   11.0003 C   0  0  0  0  0  0  0  0  0  0  0  0
    0.3025    2.9511   10.1147 C   0  0  0  0  0  0  0  0  0  0  0  0
    0.0262    3.2667    8.6962 C   0  0  0  0  0  0  0  0  0  0  0  0
    6.5917    1.5597    7.8125 C   0  0  0  0  0  0  0  0  0  0  0  0
    6.8592    0.2160    7.8649 C   0  0  0  0  0  0  0  0  0  0  0  0
    5.9985   -0.5729    8.5965 C   0  0  0  0  0  0  0  0  0  0  0  0
    4.9111   -0.0449    9.2523 C   0  0  0  0  0  0  0  0  0  0  0  0
    4.6796    1.3234    9.1709 C   0  0  0  0  0  0  0  0  0  0  0  0
    8.0408   -0.3140    7.1445 C   0  0  1  0  0  0  0  0  0  0  0  0
    7.7171   -0.7650    5.7430 C   0  0  0  0  0  0  0  0  0  0  0  0
    3.8692    5.5168    8.8245 C   0  0  0  0  0  0  0  0  0  0  0  0
    4.7782    6.3495    8.2232 C   0  0  0  0  0  0  0  0  0  0  0  0
    5.9273    5.8006    7.6985 C   0  0  0  0  0  0  0  0  0  0  0  0
    5.5144    2.1592    8.4488 C   0  0  0  0  0  0  0  0  0  0  0  0
    2.5997    6.0792    9.3736 C   0  0  0  0  0  0  0  0  0  0  0  0
    1.8355    5.2246   10.1089 O   0  0  0  0  0  0  0  0  0  0  0  0
    0.8143    5.2510   10.9617 C   0  0  0  0  0  0  0  0  0  0  0  0
    1.0598    3.6000    7.8513 O   0  0  0  0  0  0  0  0  0  0  0  0
   -1.1690    3.2184    8.3037 O   0  0  0  0  0  0  0  0  0  0  0  0
    9.0352    0.7884    7.1001 N   0  0  0  0  0  4  0  0  0  0  0  0
    7.0065   -1.9752    5.8746 O   0  0  0  0  0  0  0  0  0  0  0  0
  2  1  2  0
 20  1  1  0
  3  2  1  0
  2 21  1  0
 18  3  2  0
  4  5  2  0
 24  4  1  0
  5  6  1  0
  7  6  2  0
  8  7  1  0
  8  9  1  0
 24  8  2  0
  9 10  1  6
 10 25  1  0
 10 26  2  0
 11 12  2  0
 21 11  1  0
 12 13  1  0
 16 12  1  6
 14 13  2  0
 15 14  1  0
 21 15  2  0
 16 17  1  0
 27 16  1  6
 17 28  1  6
 18 19  1  0
 22 18  1  0
 19 20  2  0
 22 23  1  6
 23 24  1  0
M  CHG  1  27   1
M  END
$$$$
