
     RDKit          3D

 28 30  0  0  0  0  0  0  0  0999 V2000
    5.6550    1.2011    7.8924 C   0  0  0  0  0  0  0  0  0  0  0  0
    5.0864    2.2320    8.6055 C   0  0  0  0  0  0  0  0  0  0  0  0
    4.3816    1.9194    9.7422 C   0  0  0  0  0  0  0  0  0  0  0  0
    0.9192   -0.1792   13.3772 C   0  0  0  0  0  0  0  0  0  0  0  0
   -0.2158   -0.0685   14.1666 C   0  0  0  0  0  0  0  0  0  0  0  0
   -1.2218    0.7684   13.7934 C   0  0  0  0  0  0  0  0  0  0  0  0
   -1.0689    1.4859   12.6233 C   0  0  0  0  0  0  0  0  0  0  0  0
    0.0483    1.3813   11.8395 C   0  0  0  0  0  0  0  0  0  0  0  0
    0.1511    2.1801   10.5948 C   0  0  0  0  0  0  0  0  0  0  0  0
   -0.3994    1.4506    9.4316 C   0  0  0  0  0  0  0  0  0  0  0  0
    4.4194    4.6331    8.6013 C   0  0  0  0  0  0  0  0  0  0  0  0
    4.5419    5.9362    8.1932 C   0  0  0  0  0  0  0  0  0  0  0  0
    5.5401    6.2252    7.2883 C   0  0  0  0  0  0  0  0  0  0  0  0
    6.3858    5.2535    6.8067 C   0  0  0  0  0  0  0  0  0  0  0  0
    6.2239    3.9457    7.2491 C   0  0  0  0  0  0  0  0  0  0  0  0
    3.6109    6.9537    8.7355 C   0  0  1  0  0  0  0  0  0  0  0  0
    2.6598    7.4890    7.6956 C   0  0  0  0  0  0  0  0  0  0  0  0
    4.2453    0.5854   10.1647 C   0  0  0  0  0  0  0  0  0  0  0  0
    4.8159   -0.4351    9.4475 C   0  0  0  0  0  0  0  0  0  0  0  0
    5.5228   -0.1233    8.3073 C   0  0  0  0  0  0  0  0  0  0  0  0
    5.2365    3.6035    8.1573 C   0  0  0  0  0  0  0  0  0  0  0  0
    3.5005    0.2805   11.4224 C   0  0  0  0  0  0  0  0  0  0  0  0
    2.1539    0.4817   11.3840 O   0  0  0  0  0  0  0  0  0  0  0  0
    1.1075    0.5186   12.2053 C   0  0  0  0  0  0  0  0  0  0  0  0
   -1.6407    1.7797    8.9373 O   0  0  0  0  0  0  0  0  0  0  0  0
    0.3011    0.5357    8.9244 O   0  0  0  0  0  0  0  0  0  0  0  0
    2.8459    6.2874    9.8203 N   0  0  0  0  0  4  0  0  0  0  0  0
    1.8381    8.4226    8.3589 O   0  0  0  0  0  0  0  0  0  0  0  0
  2  1  2  0
 20  1  1  0
  3  2  1  0
  2 21  1  0
 18  3  2  0
  4  5  2  0
 24  4  1  0
  5  6  1  0
  7  6  2  0
  8  7  1  0
  8  9  1  0
 24  8  2  0
  9 10  1  6
 10 25  1  0
 10 26  2  0
 11 12  2  0
 21 11  1  0
 12 13  1  0
 16 12  1  6
 14 13  2  0
 15 14  1  0
 21 15  2  0
 16 17  1  0
 27 16  1  6
 17 28  1  6
 18 19  1  0
 22 18  1  0
 19 20  2  0
 22 23  1  6
 23 24  1  0
M  CHG  1  27   1
M  END
$$$$
