
     RDKit          3D

 28 30  0  0  0  0  0  0  0  0999 V2000
    5.6237    2.3876    7.9708 C   0  0  0  0  0  0  0  0  0  0  0  0
    4.7155    3.4227    8.0002 C   0  0  0  0  0  0  0  0  0  0  0  0
    3.5862    3.2214    8.7636 C   0  0  0  0  0  0  0  0  0  0  0  0
   -0.6636    2.9167   11.7060 C   0  0  0  0  0  0  0  0  0  0  0  0
   -1.6648    3.5069   12.4868 C   0  0  0  0  0  0  0  0  0  0  0  0
   -1.5379    4.8068   12.9273 C   0  0  0  0  0  0  0  0  0  0  0  0
   -0.3959    5.5169   12.5792 C   0  0  0  0  0  0  0  0  0  0  0  0
    0.5902    4.9456   11.8138 C   0  0  0  0  0  0  0  0  0  0  0  0
    1.8066    5.7247   11.4522 C   0  0  0  0  0  0  0  0  0  0  0  0
    1.5845    6.3106   10.1083 C   0  0  0  0  0  0  0  0  0  0  0  0
    5.9022    4.7790    6.2576 C   0  0  0  0  0  0  0  0  0  0  0  0
    6.1001    5.9659    5.5809 C   0  0  0  0  0  0  0  0  0  0  0  0
    5.3521    7.0606    5.8969 C   0  0  0  0  0  0  0  0  0  0  0  0
    4.4050    6.9638    6.8928 C   0  0  0  0  0  0  0  0  0  0  0  0
    4.2157    5.7588    7.5682 C   0  0  0  0  0  0  0  0  0  0  0  0
    7.1287    6.0398    4.5130 C   0  0  1  0  0  0  0  0  0  0  0  0
    8.4913    6.2942    5.1142 C   0  0  0  0  0  0  0  0  0  0  0  0
    3.3288    2.0777    9.4742 C   0  0  0  0  0  0  0  0  0  0  0  0
    4.2433    1.0517    9.4363 C   0  0  0  0  0  0  0  0  0  0  0  0
    5.3831    1.2109    8.6871 C   0  0  0  0  0  0  0  0  0  0  0  0
    4.9661    4.6429    7.2582 C   0  0  0  0  0  0  0  0  0  0  0  0
    2.0799    1.9968   10.2617 C   0  0  0  0  0  0  0  0  0  0  0  0
    1.4606    3.1274   10.6234 O   0  0  0  0  0  0  0  0  0  0  0  0
    0.4684    3.6116   11.3572 C   0  0  0  0  0  0  0  0  0  0  0  0
    1.4630    5.4930    8.9744 O   0  0  0  0  0  0  0  0  0  0  0  0
    1.4983    7.5346    9.9369 O   0  0  0  0  0  0  0  0  0  0  0  0
    7.1650    4.8138    3.7411 N   0  0  0  0  0  4  0  0  0  0  0  0
    8.5479    7.5925    5.6130 O   0  0  0  0  0  0  0  0  0  0  0  0
  2  1  2  0
 20  1  1  0
  3  2  1  0
  2 21  1  0
 18  3  2  0
  4  5  2  0
 24  4  1  0
  5  6  1  0
  7  6  2  0
  8  7  1  0
  8  9  1  0
 24  8  2  0
  9 10  1  0
 10 25  1  0
 10 26  2  0
 11 12  2  0
 21 11  1  0
 12 13  1  0
 12 16  1  0
 14 13  2  0
 15 14  1  0
 21 15  2  0
 16 17  1  0
 16 27  1  1
 17 28  1  0
 18 19  1  0
 22 18  1  0
 19 20  2  0
 23 22  1  0
 23 24  1  0
M  CHG  1  27   1
M  END
$$$$
