
     RDKit          3D

 28 30  0  0  0  0  0  0  0  0999 V2000
    6.9580    2.9358    8.0483 C   0  0  0  0  0  0  0  0  0  0  0  0
    5.6996    3.4950    8.0716 C   0  0  0  0  0  0  0  0  0  0  0  0
    4.7097    2.7445    8.6679 C   0  0  0  0  0  0  0  0  0  0  0  0
    0.8766    0.3183   11.1587 C   0  0  0  0  0  0  0  0  0  0  0  0
   -0.3572    0.3242   11.8204 C   0  0  0  0  0  0  0  0  0  0  0  0
   -0.8339    1.4761   12.4083 C   0  0  0  0  0  0  0  0  0  0  0  0
   -0.0636    2.6293   12.3293 C   0  0  0  0  0  0  0  0  0  0  0  0
    1.1471    2.6319   11.6822 C   0  0  0  0  0  0  0  0  0  0  0  0
    1.9572    3.8793   11.6093 C   0  0  0  0  0  0  0  0  0  0  0  0
    1.3852    4.7270   10.5354 C   0  0  0  0  0  0  0  0  0  0  0  0
    6.1495    5.3241    6.4174 C   0  0  0  0  0  0  0  0  0  0  0  0
    5.8852    6.5781    5.9041 C   0  0  0  0  0  0  0  0  0  0  0  0
    4.9131    7.3508    6.4660 C   0  0  0  0  0  0  0  0  0  0  0  0
    4.2061    6.8645    7.5439 C   0  0  0  0  0  0  0  0  0  0  0  0
    4.4836    5.5962    8.0522 C   0  0  0  0  0  0  0  0  0  0  0  0
    6.6643    7.0753    4.7423 C   0  0  1  0  0  0  0  0  0  0  0  0
    7.6065    8.1745    5.1746 C   0  0  0  0  0  0  0  0  0  0  0  0
    4.9081    1.5066    9.2226 C   0  0  0  0  0  0  0  0  0  0  0  0
    6.1690    0.9593    9.1926 C   0  0  0  0  0  0  0  0  0  0  0  0
    7.1851    1.6742    8.6074 C   0  0  0  0  0  0  0  0  0  0  0  0
    5.4649    4.8035    7.4928 C   0  0  0  0  0  0  0  0  0  0  0  0
    3.7579    0.8125    9.8402 C   0  0  0  0  0  0  0  0  0  0  0  0
    2.8207    1.5325   10.4695 O   0  0  0  0  0  0  0  0  0  0  0  0
    1.6444    1.4540   11.0757 C   0  0  0  0  0  0  0  0  0  0  0  0
    0.5525    5.8147   10.8395 O   0  0  0  0  0  0  0  0  0  0  0  0
    1.6190    4.5088    9.3385 O   0  0  0  0  0  0  0  0  0  0  0  0
    7.4240    6.0040    4.1296 N   0  0  0  0  0  4  0  0  0  0  0  0
    6.9091    9.3746    5.2793 O   0  0  0  0  0  0  0  0  0  0  0  0
  2  1  2  0
 20  1  1  0
  3  2  1  0
  2 21  1  0
 18  3  2  0
  4  5  2  0
 24  4  1  0
  5  6  1  0
  7  6  2  0
  8  7  1  0
  8  9  1  0
 24  8  2  0
  9 10  1  0
 10 25  1  0
 10 26  2  0
 11 12  2  0
 21 11  1  0
 12 13  1  0
 12 16  1  0
 14 13  2  0
 15 14  1  0
 21 15  2  0
 16 17  1  0
 16 27  1  1
 17 28  1  0
 18 19  1  0
 22 18  1  0
 19 20  2  0
 23 22  1  0
 23 24  1  0
M  CHG  1  27   1
M  END
$$$$
