
     RDKit          3D

 28 30  0  0  0  0  0  0  0  0999 V2000
    4.6457    0.9999    8.8302 C   0  0  0  0  0  0  0  0  0  0  0  0
    4.2926    2.3168    9.0251 C   0  0  0  0  0  0  0  0  0  0  0  0
    3.3044    2.5518    9.9561 C   0  0  0  0  0  0  0  0  0  0  0  0
   -1.2002    3.5469   12.2426 C   0  0  0  0  0  0  0  0  0  0  0  0
   -2.1485    4.4292   12.7744 C   0  0  0  0  0  0  0  0  0  0  0  0
   -1.7972    5.7185   13.1122 C   0  0  0  0  0  0  0  0  0  0  0  0
   -0.4831    6.1220   12.9131 C   0  0  0  0  0  0  0  0  0  0  0  0
    0.4526    5.2632   12.3921 C   0  0  0  0  0  0  0  0  0  0  0  0
    1.8563    5.7162   12.1870 C   0  0  0  0  0  0  0  0  0  0  0  0
    1.9138    6.4354   10.8915 C   0  0  0  0  0  0  0  0  0  0  0  0
    4.4659    4.6559    8.1401 C   0  0  0  0  0  0  0  0  0  0  0  0
    5.1295    5.6250    7.4146 C   0  0  0  0  0  0  0  0  0  0  0  0
    6.3080    5.3247    6.7993 C   0  0  0  0  0  0  0  0  0  0  0  0
    6.8206    4.0509    6.9122 C   0  0  0  0  0  0  0  0  0  0  0  0
    6.1398    3.0818    7.6480 C   0  0  0  0  0  0  0  0  0  0  0  0
    4.5519    6.9886    7.3103 C   0  0  1  0  0  0  0  0  0  0  0  0
    3.0433    6.9171    7.2664 C   0  0  0  0  0  0  0  0  0  0  0  0
    2.6740    1.5707   10.6768 C   0  0  0  0  0  0  0  0  0  0  0  0
    3.0355    0.2600   10.4728 C   0  0  0  0  0  0  0  0  0  0  0  0
    4.0167   -0.0186    9.5532 C   0  0  0  0  0  0  0  0  0  0  0  0
    4.9458    3.3724    8.2760 C   0  0  0  0  0  0  0  0  0  0  0  0
    1.6352    1.9630   11.6531 C   0  0  0  0  0  0  0  0  0  0  0  0
    1.0576    3.1661   11.5455 O   0  0  0  0  0  0  0  0  0  0  0  0
    0.1010    3.9378   12.0424 C   0  0  0  0  0  0  0  0  0  0  0  0
    0.7685    6.5805   10.0939 O   0  0  0  0  0  0  0  0  0  0  0  0
    2.9669    6.9314   10.4674 O   0  0  0  0  0  0  0  0  0  0  0  0
    4.9619    7.8133    8.4292 N   0  0  0  0  0  4  0  0  0  0  0  0
    2.5145    8.2043    7.2313 O   0  0  0  0  0  0  0  0  0  0  0  0
  2  1  2  0
 20  1  1  0
  3  2  1  0
  2 21  1  0
 18  3  2  0
  4  5  2  0
 24  4  1  0
  5  6  1  0
  7  6  2  0
  8  7  1  0
  8  9  1  0
 24  8  2  0
  9 10  1  0
 10 25  1  0
 10 26  2  0
 11 12  2  0
 21 11  1  0
 12 13  1  0
 12 16  1  0
 14 13  2  0
 15 14  1  0
 21 15  2  0
 16 17  1  0
 16 27  1  1
 17 28  1  0
 18 19  1  0
 22 18  1  0
 19 20  2  0
 23 22  1  0
 23 24  1  0
M  CHG  1  27   1
M  END
$$$$
