
     RDKit          3D

 28 30  0  0  0  0  0  0  0  0999 V2000
    6.4264    1.6911    8.3135 C   0  0  0  0  0  0  0  0  0  0  0  0
    5.2705    2.4337    8.3971 C   0  0  0  0  0  0  0  0  0  0  0  0
    4.0883    1.7671    8.6083 C   0  0  0  0  0  0  0  0  0  0  0  0
   -0.4235   -0.3820    9.6734 C   0  0  0  0  0  0  0  0  0  0  0  0
   -1.6934   -0.4367   10.2284 C   0  0  0  0  0  0  0  0  0  0  0  0
   -1.9223    0.1126   11.4522 C   0  0  0  0  0  0  0  0  0  0  0  0
   -0.8622    0.7125   12.1030 C   0  0  0  0  0  0  0  0  0  0  0  0
    0.3934    0.7701   11.5610 C   0  0  0  0  0  0  0  0  0  0  0  0
    1.4893    1.4283   12.3118 C   0  0  0  0  0  0  0  0  0  0  0  0
    2.3780    0.4388   12.9593 C   0  0  0  0  0  0  0  0  0  0  0  0
    4.2808    4.7033    8.6792 C   0  0  0  0  0  0  0  0  0  0  0  0
    4.3005    6.0694    8.5653 C   0  0  0  0  0  0  0  0  0  0  0  0
    5.4211    6.6420    8.0040 C   0  0  0  0  0  0  0  0  0  0  0  0
    6.4836    5.8835    7.5716 C   0  0  0  0  0  0  0  0  0  0  0  0
    6.4191    4.5015    7.7074 C   0  0  0  0  0  0  0  0  0  0  0  0
    3.1357    6.8511    9.0432 C   0  0  1  0  0  0  0  0  0  0  0  0
    2.4515    7.6150    7.9383 C   0  0  0  0  0  0  0  0  0  0  0  0
    4.0602    0.3673    8.7355 C   0  0  0  0  0  0  0  0  0  0  0  0
    5.2174   -0.3642    8.6511 C   0  0  0  0  0  0  0  0  0  0  0  0
    6.4037    0.3028    8.4391 C   0  0  0  0  0  0  0  0  0  0  0  0
    5.3158    3.8776    8.2646 C   0  0  0  0  0  0  0  0  0  0  0  0
    2.7636   -0.3256    8.9969 C   0  0  0  0  0  0  0  0  0  0  0  0
    1.9061    0.3093    9.8435 O   0  0  0  0  0  0  0  0  0  0  0  0
    0.6569    0.2071   10.2908 C   0  0  0  0  0  0  0  0  0  0  0  0
    3.7425    0.5399   12.8137 O   0  0  0  0  0  0  0  0  0  0  0  0
    1.8440   -0.4799   13.6344 O   0  0  0  0  0  0  0  0  0  0  0  0
    2.1893    5.8734    9.6385 N   0  0  0  0  0  4  0  0  0  0  0  0
    1.3624    8.2799    8.5371 O   0  0  0  0  0  0  0  0  0  0  0  0
  2  1  2  0
 20  1  1  0
  3  2  1  0
  2 21  1  0
 18  3  2  0
  4  5  2  0
 24  4  1  0
  5  6  1  0
  7  6  2  0
  8  7  1  0
  8  9  1  0
 24  8  2  0
  9 10  1  6
 10 25  1  0
 10 26  2  0
 11 12  2  0
 21 11  1  0
 12 13  1  0
 16 12  1  6
 14 13  2  0
 15 14  1  0
 21 15  2  0
 16 17  1  0
 27 16  1  6
 17 28  1  6
 18 19  1  0
 22 18  1  0
 19 20  2  0
 22 23  1  6
 23 24  1  0
M  CHG  1  27   1
M  END
$$$$
