
     RDKit          3D

 28 30  0  0  0  0  0  0  0  0999 V2000
    6.3095    2.8881    7.9305 C   0  0  0  0  0  0  0  0  0  0  0  0
    5.2622    3.7812    7.9332 C   0  0  0  0  0  0  0  0  0  0  0  0
    4.1074    3.4207    8.5834 C   0  0  0  0  0  0  0  0  0  0  0  0
   -0.0305    2.2502   11.5919 C   0  0  0  0  0  0  0  0  0  0  0  0
   -1.0749    2.5808   12.4426 C   0  0  0  0  0  0  0  0  0  0  0  0
   -1.0928    3.7968   13.0530 C   0  0  0  0  0  0  0  0  0  0  0  0
   -0.0519    4.6674   12.7962 C   0  0  0  0  0  0  0  0  0  0  0  0
    0.9818    4.3477   11.9578 C   0  0  0  0  0  0  0  0  0  0  0  0
    2.0697    5.3274   11.7246 C   0  0  0  0  0  0  0  0  0  0  0  0
    1.9136    6.0168   10.4252 C   0  0  0  0  0  0  0  0  0  0  0  0
    6.0576    5.2179    6.0587 C   0  0  0  0  0  0  0  0  0  0  0  0
    6.1911    6.4172    5.4079 C   0  0  0  0  0  0  0  0  0  0  0  0
    5.6235    7.5250    5.9990 C   0  0  0  0  0  0  0  0  0  0  0  0
    4.9476    7.4430    7.1939 C   0  0  0  0  0  0  0  0  0  0  0  0
    4.8376    6.2055    7.8175 C   0  0  0  0  0  0  0  0  0  0  0  0
    6.9268    6.4637    4.1223 C   0  0  1  0  0  0  0  0  0  0  0  0
    8.2773    7.1220    4.2453 C   0  0  0  0  0  0  0  0  0  0  0  0
    3.9985    2.1757    9.2273 C   0  0  0  0  0  0  0  0  0  0  0  0
    5.0478    1.2923    9.2195 C   0  0  0  0  0  0  0  0  0  0  0  0
    6.2066    1.6524    8.5677 C   0  0  0  0  0  0  0  0  0  0  0  0
    5.3900    5.0626    7.2650 C   0  0  0  0  0  0  0  0  0  0  0  0
    2.7415    1.8259    9.9532 C   0  0  0  0  0  0  0  0  0  0  0  0
    2.0659    2.8665   10.5151 O   0  0  0  0  0  0  0  0  0  0  0  0
    1.0233    3.0906   11.3113 C   0  0  0  0  0  0  0  0  0  0  0  0
    3.0125    6.5526    9.7939 O   0  0  0  0  0  0  0  0  0  0  0  0
    0.7575    6.0906    9.9325 O   0  0  0  0  0  0  0  0  0  0  0  0
    7.0931    5.0549    3.6823 N   0  0  0  0  0  4  0  0  0  0  0  0
    8.0332    8.5086    4.3130 O   0  0  0  0  0  0  0  0  0  0  0  0
  2  1  2  0
 20  1  1  0
  3  2  1  0
  2 21  1  0
 18  3  2  0
  4  5  2  0
 24  4  1  0
  5  6  1  0
  7  6  2  0
  8  7  1  0
  8  9  1  0
 24  8  2  0
  9 10  1  6
 10 25  1  0
 10 26  2  0
 11 12  2  0
 21 11  1  0
 12 13  1  0
 16 12  1  1
 14 13  2  0
 15 14  1  0
 21 15  2  0
 16 17  1  0
 27 16  1  6
 17 28  1  6
 18 19  1  0
 22 18  1  0
 19 20  2  0
 22 23  1  6
 23 24  1  0
M  CHG  1  27   1
M  END
$$$$
