
     RDKit          3D

 28 30  0  0  0  0  0  0  0  0999 V2000
    6.0757    2.9772    8.5027 C   0  0  0  0  0  0  0  0  0  0  0  0
    5.2826    3.8413    7.7806 C   0  0  0  0  0  0  0  0  0  0  0  0
    3.9371    3.5467    7.7428 C   0  0  0  0  0  0  0  0  0  0  0  0
   -1.2760    2.6476    8.8769 C   0  0  0  0  0  0  0  0  0  0  0  0
   -2.5316    2.7492    9.4882 C   0  0  0  0  0  0  0  0  0  0  0  0
   -2.6578    3.2928   10.7485 C   0  0  0  0  0  0  0  0  0  0  0  0
   -1.5127    3.7371   11.3973 C   0  0  0  0  0  0  0  0  0  0  0  0
   -0.2781    3.6413   10.8048 C   0  0  0  0  0  0  0  0  0  0  0  0
    0.9369    4.1235   11.5182 C   0  0  0  0  0  0  0  0  0  0  0  0
    0.8562    5.6020   11.5984 C   0  0  0  0  0  0  0  0  0  0  0  0
    5.6069    5.3550    5.8088 C   0  0  0  0  0  0  0  0  0  0  0  0
    6.1880    6.4594    5.2187 C   0  0  0  0  0  0  0  0  0  0  0  0
    7.0539    7.2337    5.9319 C   0  0  0  0  0  0  0  0  0  0  0  0
    7.3366    6.8989    7.2380 C   0  0  0  0  0  0  0  0  0  0  0  0
    6.7426    5.7805    7.8215 C   0  0  0  0  0  0  0  0  0  0  0  0
    5.8645    6.7945    3.8091 C   0  0  1  0  0  0  0  0  0  0  0  0
    4.6765    7.7264    3.7511 C   0  0  0  0  0  0  0  0  0  0  0  0
    3.3650    2.4697    8.3689 C   0  0  0  0  0  0  0  0  0  0  0  0
    4.1676    1.6145    9.0864 C   0  0  0  0  0  0  0  0  0  0  0  0
    5.5152    1.8714    9.1499 C   0  0  0  0  0  0  0  0  0  0  0  0
    5.8641    4.9882    7.1109 C   0  0  0  0  0  0  0  0  0  0  0  0
    1.9036    2.2757    8.2549 C   0  0  0  0  0  0  0  0  0  0  0  0
    1.0842    3.0244    9.0037 O   0  0  0  0  0  0  0  0  0  0  0  0
   -0.1389    3.0846    9.5112 C   0  0  0  0  0  0  0  0  0  0  0  0
   -0.3783    6.2512   11.7513 O   0  0  0  0  0  0  0  0  0  0  0  0
    1.8677    6.3145   11.5341 O   0  0  0  0  0  0  0  0  0  0  0  0
    6.9957    7.4160    3.1502 N   0  0  0  0  0  4  0  0  0  0  0  0
    3.5120    6.9888    3.5571 O   0  0  0  0  0  0  0  0  0  0  0  0
  2  1  2  0
 20  1  1  0
  3  2  1  0
  2 21  1  0
 18  3  2  0
  4  5  2  0
 24  4  1  0
  5  6  1  0
  7  6  2  0
  8  7  1  0
  8  9  1  0
 24  8  2  0
  9 10  1  0
 10 25  1  0
 10 26  2  0
 11 12  2  0
 21 11  1  0
 12 13  1  0
 12 16  1  0
 14 13  2  0
 15 14  1  0
 21 15  2  0
 16 17  1  0
 16 27  1  1
 17 28  1  0
 18 19  1  0
 22 18  1  0
 19 20  2  0
 23 22  1  0
 23 24  1  0
M  CHG  1  27   1
M  END
$$$$
