
     RDKit          3D

 28 30  0  0  0  0  0  0  0  0999 V2000
    1.8398    2.0163   12.5851 C   0  0  0  0  0  0  0  0  0  0  0  0
    1.7978    1.5050   11.3079 C   0  0  0  0  0  0  0  0  0  0  0  0
    1.6210    2.3826   10.2661 C   0  0  0  0  0  0  0  0  0  0  0  0
    4.3631    3.8532    7.4579 C   0  0  0  0  0  0  0  0  0  0  0  0
    5.6459    4.2250    7.0838 C   0  0  0  0  0  0  0  0  0  0  0  0
    6.0189    5.5321    7.1491 C   0  0  0  0  0  0  0  0  0  0  0  0
    5.0885    6.4511    7.5929 C   0  0  0  0  0  0  0  0  0  0  0  0
    3.8211    6.0912    7.9638 C   0  0  0  0  0  0  0  0  0  0  0  0
    2.8692    7.1272    8.4311 C   0  0  0  0  0  0  0  0  0  0  0  0
    3.1253    8.4337    7.7865 C   0  0  0  0  0  0  0  0  0  0  0  0
    1.4090   -0.8727   11.9448 C   0  0  0  0  0  0  0  0  0  0  0  0
    1.5279   -2.2253   11.7550 C   0  0  0  0  0  0  0  0  0  0  0  0
    2.2164   -2.6501   10.6397 C   0  0  0  0  0  0  0  0  0  0  0  0
    2.7668   -1.7621    9.7454 C   0  0  0  0  0  0  0  0  0  0  0  0
    2.6209   -0.3995    9.9789 C   0  0  0  0  0  0  0  0  0  0  0  0
    0.9206   -3.1494   12.7416 C   0  0  1  0  0  0  0  0  0  0  0  0
   -0.3178   -3.8314   12.2184 C   0  0  0  0  0  0  0  0  0  0  0  0
    1.4871    3.7627   10.4981 C   0  0  0  0  0  0  0  0  0  0  0  0
    1.5307    4.2629   11.7744 C   0  0  0  0  0  0  0  0  0  0  0  0
    1.7076    3.3841   12.8202 C   0  0  0  0  0  0  0  0  0  0  0  0
    1.9383    0.0785   11.0845 C   0  0  0  0  0  0  0  0  0  0  0  0
    1.3286    4.6948    9.3424 C   0  0  0  0  0  0  0  0  0  0  0  0
    2.1597    4.4826    8.2844 O   0  0  0  0  0  0  0  0  0  0  0  0
    3.4092    4.7395    7.9053 C   0  0  0  0  0  0  0  0  0  0  0  0
    3.9296    9.3616    8.4073 O   0  0  0  0  0  0  0  0  0  0  0  0
    2.5875    8.6555    6.6701 O   0  0  0  0  0  0  0  0  0  0  0  0
    1.9569   -4.1649   13.0594 N   0  0  0  0  0  4  0  0  0  0  0  0
   -1.3258   -2.8465   12.1899 O   0  0  0  0  0  0  0  0  0  0  0  0
  2  1  2  0
 20  1  1  0
  3  2  1  0
  2 21  1  0
 18  3  2  0
  4  5  2  0
 24  4  1  0
  5  6  1  0
  7  6  2  0
  8  7  1  0
  8  9  1  0
 24  8  2  0
  9 10  1  6
 10 25  1  0
 10 26  2  0
 11 12  2  0
 21 11  1  0
 12 13  1  0
 16 12  1  6
 14 13  2  0
 15 14  1  0
 21 15  2  0
 16 17  1  0
 27 16  1  6
 17 28  1  6
 18 19  1  0
 22 18  1  0
 19 20  2  0
 22 23  1  6
 23 24  1  0
M  CHG  1  27   1
M  END
$$$$
