
     RDKit          3D

 28 30  0  0  0  0  0  0  0  0999 V2000
    5.8002    1.8163    9.5083 C   0  0  0  0  0  0  0  0  0  0  0  0
    4.5914    2.3417    9.1115 C   0  0  0  0  0  0  0  0  0  0  0  0
    3.5840    2.4189   10.0419 C   0  0  0  0  0  0  0  0  0  0  0  0
    0.2810    3.4349   14.0667 C   0  0  0  0  0  0  0  0  0  0  0  0
   -0.7718    4.1303   14.6426 C   0  0  0  0  0  0  0  0  0  0  0  0
   -1.2052    5.2913   14.0806 C   0  0  0  0  0  0  0  0  0  0  0  0
   -0.5677    5.7377   12.9397 C   0  0  0  0  0  0  0  0  0  0  0  0
    0.4717    5.0564   12.3660 C   0  0  0  0  0  0  0  0  0  0  0  0
    1.1141    5.5900   11.1411 C   0  0  0  0  0  0  0  0  0  0  0  0
    2.4476    6.1616   11.4293 C   0  0  0  0  0  0  0  0  0  0  0  0
    4.9866    2.1680    6.6572 C   0  0  0  0  0  0  0  0  0  0  0  0
    4.8229    2.5788    5.3594 C   0  0  0  0  0  0  0  0  0  0  0  0
    4.0286    3.6832    5.1403 C   0  0  0  0  0  0  0  0  0  0  0  0
    3.4192    4.3548    6.1742 C   0  0  0  0  0  0  0  0  0  0  0  0
    3.6140    3.9018    7.4739 C   0  0  0  0  0  0  0  0  0  0  0  0
    5.4963    1.8282    4.2735 C   0  0  1  0  0  0  0  0  0  0  0  0
    6.6622    2.5778    3.6809 C   0  0  0  0  0  0  0  0  0  0  0  0
    3.7820    1.9742   11.3608 C   0  0  0  0  0  0  0  0  0  0  0  0
    4.9903    1.4524   11.7469 C   0  0  0  0  0  0  0  0  0  0  0  0
    6.0015    1.3741   10.8150 C   0  0  0  0  0  0  0  0  0  0  0  0
    4.4027    2.7971    7.7471 C   0  0  0  0  0  0  0  0  0  0  0  0
    2.6777    2.1012   12.3577 C   0  0  0  0  0  0  0  0  0  0  0  0
    1.9550    3.2546   12.3062 O   0  0  0  0  0  0  0  0  0  0  0  0
    0.9404    3.8475   12.9306 C   0  0  0  0  0  0  0  0  0  0  0  0
    3.3487    6.3558   10.4077 O   0  0  0  0  0  0  0  0  0  0  0  0
    2.7169    6.4565   12.6232 O   0  0  0  0  0  0  0  0  0  0  0  0
    5.9708    0.5554    4.8742 N   0  0  0  0  0  4  0  0  0  0  0  0
    6.1248    3.7457    3.1029 O   0  0  0  0  0  0  0  0  0  0  0  0
  2  1  2  0
 20  1  1  0
  3  2  1  0
  2 21  1  0
 18  3  2  0
  4  5  2  0
 24  4  1  0
  5  6  1  0
  7  6  2  0
  8  7  1  0
  8  9  1  0
 24  8  2  0
  9 10  1  6
 10 25  1  0
 10 26  2  0
 11 12  2  0
 21 11  1  0
 12 13  1  0
 16 12  1  1
 14 13  2  0
 15 14  1  0
 21 15  2  0
 16 17  1  0
 27 16  1  6
 17 28  1  6
 18 19  1  0
 22 18  1  0
 19 20  2  0
 22 23  1  6
 23 24  1  0
M  CHG  1  27   1
M  END
$$$$
