
     RDKit          3D

 28 30  0  0  0  0  0  0  0  0999 V2000
    4.9892    1.4328    8.8556 C   0  0  0  0  0  0  0  0  0  0  0  0
    4.5250    2.6891    8.5385 C   0  0  0  0  0  0  0  0  0  0  0  0
    3.2059    2.9739    8.7941 C   0  0  0  0  0  0  0  0  0  0  0  0
   -1.5437    3.4328   11.4700 C   0  0  0  0  0  0  0  0  0  0  0  0
   -2.5130    4.1282   12.1776 C   0  0  0  0  0  0  0  0  0  0  0  0
   -2.2112    5.3318   12.7364 C   0  0  0  0  0  0  0  0  0  0  0  0
   -0.9297    5.8201   12.5733 C   0  0  0  0  0  0  0  0  0  0  0  0
    0.0315    5.1392   11.8762 C   0  0  0  0  0  0  0  0  0  0  0  0
    1.3892    5.7183   11.7381 C   0  0  0  0  0  0  0  0  0  0  0  0
    2.3589    5.0557   12.6374 C   0  0  0  0  0  0  0  0  0  0  0  0
    4.9561    4.7959    7.2793 C   0  0  0  0  0  0  0  0  0  0  0  0
    5.7771    5.7397    6.7181 C   0  0  0  0  0  0  0  0  0  0  0  0
    7.1364    5.5484    6.8379 C   0  0  0  0  0  0  0  0  0  0  0  0
    7.6603    4.4581    7.4922 C   0  0  0  0  0  0  0  0  0  0  0  0
    6.7890    3.5269    8.0456 C   0  0  0  0  0  0  0  0  0  0  0  0
    5.1735    6.9002    6.0216 C   0  0  1  0  0  0  0  0  0  0  0  0
    4.8441    8.0361    6.9562 C   0  0  0  0  0  0  0  0  0  0  0  0
    2.3550    2.0101    9.3630 C   0  0  0  0  0  0  0  0  0  0  0  0
    2.8270    0.7608    9.6759 C   0  0  0  0  0  0  0  0  0  0  0  0
    4.1495    0.4736    9.4199 C   0  0  0  0  0  0  0  0  0  0  0  0
    5.4154    3.6732    7.9526 C   0  0  0  0  0  0  0  0  0  0  0  0
    0.9340    2.3604    9.6588 C   0  0  0  0  0  0  0  0  0  0  0  0
    0.7382    3.2970   10.6282 O   0  0  0  0  0  0  0  0  0  0  0  0
   -0.2570    3.8869   11.2859 C   0  0  0  0  0  0  0  0  0  0  0  0
    2.0453    4.8584   13.9626 O   0  0  0  0  0  0  0  0  0  0  0  0
    3.4594    4.6880   12.1490 O   0  0  0  0  0  0  0  0  0  0  0  0
    6.1688    7.3504    5.0153 N   0  0  0  0  0  4  0  0  0  0  0  0
    3.6649    7.6600    7.6306 O   0  0  0  0  0  0  0  0  0  0  0  0
  2  1  2  0
 20  1  1  0
  3  2  1  0
  2 21  1  0
 18  3  2  0
  4  5  2  0
 24  4  1  0
  5  6  1  0
  7  6  2  0
  8  7  1  0
  8  9  1  0
 24  8  2  0
  9 10  1  6
 10 25  1  0
 10 26  2  0
 11 12  2  0
 21 11  1  0
 12 13  1  0
 16 12  1  1
 14 13  2  0
 15 14  1  0
 21 15  2  0
 16 17  1  0
 27 16  1  6
 17 28  1  6
 18 19  1  0
 22 18  1  0
 19 20  2  0
 22 23  1  6
 23 24  1  0
M  CHG  1  27   1
M  END
$$$$
