
     RDKit          3D

 28 30  0  0  0  0  0  0  0  0999 V2000
    5.5199    1.3938    9.4990 C   0  0  0  0  0  0  0  0  0  0  0  0
    4.7906    2.5095    9.1557 C   0  0  0  0  0  0  0  0  0  0  0  0
    3.4527    2.5273    9.4660 C   0  0  0  0  0  0  0  0  0  0  0  0
   -1.4935    2.9421   10.2867 C   0  0  0  0  0  0  0  0  0  0  0  0
   -2.6589    3.6905   10.3611 C   0  0  0  0  0  0  0  0  0  0  0  0
   -2.6314    4.9345   10.9121 C   0  0  0  0  0  0  0  0  0  0  0  0
   -1.4230    5.4092   11.3830 C   0  0  0  0  0  0  0  0  0  0  0  0
   -0.2693    4.6761   11.3127 C   0  0  0  0  0  0  0  0  0  0  0  0
    0.9959    5.2434   11.8373 C   0  0  0  0  0  0  0  0  0  0  0  0
    1.3632    4.6454   13.1395 C   0  0  0  0  0  0  0  0  0  0  0  0
    4.8672    4.8928    8.4320 C   0  0  0  0  0  0  0  0  0  0  0  0
    5.4526    5.9635    7.8068 C   0  0  0  0  0  0  0  0  0  0  0  0
    6.6725    5.7539    7.2015 C   0  0  0  0  0  0  0  0  0  0  0  0
    7.2881    4.5242    7.2173 C   0  0  0  0  0  0  0  0  0  0  0  0
    6.6568    3.4676    7.8635 C   0  0  0  0  0  0  0  0  0  0  0  0
    4.7571    7.2720    7.8121 C   0  0  1  0  0  0  0  0  0  0  0  0
    3.8955    7.4809    6.5928 C   0  0  0  0  0  0  0  0  0  0  0  0
    2.8463    1.4377   10.1153 C   0  0  0  0  0  0  0  0  0  0  0  0
    3.5815    0.3304   10.4537 C   0  0  0  0  0  0  0  0  0  0  0  0
    4.9232    0.3108   10.1431 C   0  0  0  0  0  0  0  0  0  0  0  0
    5.4307    3.6262    8.4867 C   0  0  0  0  0  0  0  0  0  0  0  0
    1.3968    1.5005   10.4682 C   0  0  0  0  0  0  0  0  0  0  0  0
    0.8955    2.7418   10.7190 O   0  0  0  0  0  0  0  0  0  0  0  0
   -0.2715    3.3811   10.7445 C   0  0  0  0  0  0  0  0  0  0  0  0
    2.6882    4.4770   13.4704 O   0  0  0  0  0  0  0  0  0  0  0  0
    0.4320    4.3046   13.9151 O   0  0  0  0  0  0  0  0  0  0  0  0
    3.9124    7.2939    9.0336 N   0  0  0  0  0  4  0  0  0  0  0  0
    4.7822    7.6620    5.5122 O   0  0  0  0  0  0  0  0  0  0  0  0
  2  1  2  0
 20  1  1  0
  3  2  1  0
  2 21  1  0
 18  3  2  0
  4  5  2  0
 24  4  1  0
  5  6  1  0
  7  6  2  0
  8  7  1  0
  8  9  1  0
 24  8  2  0
  9 10  1  6
 10 25  1  0
 10 26  2  0
 11 12  2  0
 21 11  1  0
 12 13  1  0
 16 12  1  6
 14 13  2  0
 15 14  1  0
 21 15  2  0
 16 17  1  0
 27 16  1  6
 17 28  1  6
 18 19  1  0
 22 18  1  0
 19 20  2  0
 22 23  1  6
 23 24  1  0
M  CHG  1  27   1
M  END
$$$$
