
     RDKit          3D

 28 30  0  0  0  0  0  0  0  0999 V2000
    7.0341    2.6062    7.9243 C   0  0  0  0  0  0  0  0  0  0  0  0
    5.7675    3.0694    7.6448 C   0  0  0  0  0  0  0  0  0  0  0  0
    4.7460    2.1503    7.7464 C   0  0  0  0  0  0  0  0  0  0  0  0
    1.2828   -1.6494    9.5122 C   0  0  0  0  0  0  0  0  0  0  0  0
    0.1150   -2.0977   10.1412 C   0  0  0  0  0  0  0  0  0  0  0  0
   -0.5634   -1.2860   11.0247 C   0  0  0  0  0  0  0  0  0  0  0  0
   -0.0630   -0.0149   11.2763 C   0  0  0  0  0  0  0  0  0  0  0  0
    1.0812    0.4323   10.6636 C   0  0  0  0  0  0  0  0  0  0  0  0
    1.6006    1.7987   10.9478 C   0  0  0  0  0  0  0  0  0  0  0  0
    2.6305    1.6787   12.0079 C   0  0  0  0  0  0  0  0  0  0  0  0
    5.8967    5.0009    6.0520 C   0  0  0  0  0  0  0  0  0  0  0  0
    5.6725    6.3278    5.7445 C   0  0  0  0  0  0  0  0  0  0  0  0
    5.0926    7.1495    6.6645 C   0  0  0  0  0  0  0  0  0  0  0  0
    4.7378    6.6387    7.8939 C   0  0  0  0  0  0  0  0  0  0  0  0
    4.9703    5.2964    8.1911 C   0  0  0  0  0  0  0  0  0  0  0  0
    6.0663    6.8496    4.4117 C   0  0  1  0  0  0  0  0  0  0  0  0
    7.5317    7.2178    4.4048 C   0  0  0  0  0  0  0  0  0  0  0  0
    4.9213    0.8377    8.1012 C   0  0  0  0  0  0  0  0  0  0  0  0
    6.1907    0.3878    8.3774 C   0  0  0  0  0  0  0  0  0  0  0  0
    7.2382    1.2714    8.2880 C   0  0  0  0  0  0  0  0  0  0  0  0
    5.5564    4.4537    7.2689 C   0  0  0  0  0  0  0  0  0  0  0  0
    3.7347   -0.0408    8.1817 C   0  0  0  0  0  0  0  0  0  0  0  0
    2.8810    0.1052    9.2028 O   0  0  0  0  0  0  0  0  0  0  0  0
    1.7843   -0.3942    9.7552 C   0  0  0  0  0  0  0  0  0  0  0  0
    3.5639    0.6311   11.9934 O   0  0  0  0  0  0  0  0  0  0  0  0
    2.7054    2.4924   12.9391 O   0  0  0  0  0  0  0  0  0  0  0  0
    5.8118    5.8701    3.3744 N   0  0  0  0  0  4  0  0  0  0  0  0
    7.7507    8.2504    3.4973 O   0  0  0  0  0  0  0  0  0  0  0  0
  2  1  2  0
 20  1  1  0
  3  2  1  0
  2 21  1  0
 18  3  2  0
  4  5  2  0
 24  4  1  0
  5  6  1  0
  7  6  2  0
  8  7  1  0
  8  9  1  0
 24  8  2  0
  9 10  1  0
 10 25  1  0
 10 26  2  0
 11 12  2  0
 21 11  1  0
 12 13  1  0
 12 16  1  0
 14 13  2  0
 15 14  1  0
 21 15  2  0
 16 17  1  0
 16 27  1  6
 17 28  1  0
 18 19  1  0
 22 18  1  0
 19 20  2  0
 23 22  1  0
 23 24  1  0
M  CHG  1  27   1
M  END
$$$$
