
     RDKit          3D

 28 30  0  0  0  0  0  0  0  0999 V2000
    4.9404    0.7168    8.5390 C   0  0  0  0  0  0  0  0  0  0  0  0
    4.6072    2.0423    8.7091 C   0  0  0  0  0  0  0  0  0  0  0  0
    3.5840    2.3051    9.5937 C   0  0  0  0  0  0  0  0  0  0  0  0
   -1.2896    2.8103   11.2033 C   0  0  0  0  0  0  0  0  0  0  0  0
   -2.4632    3.5245   11.4737 C   0  0  0  0  0  0  0  0  0  0  0  0
   -2.4215    4.8822   11.7077 C   0  0  0  0  0  0  0  0  0  0  0  0
   -1.1907    5.5248   11.6689 C   0  0  0  0  0  0  0  0  0  0  0  0
   -0.0355    4.8319   11.4043 C   0  0  0  0  0  0  0  0  0  0  0  0
    1.2738    5.5404   11.3677 C   0  0  0  0  0  0  0  0  0  0  0  0
    1.4943    6.0098    9.9785 C   0  0  0  0  0  0  0  0  0  0  0  0
    4.7724    4.2842    7.5996 C   0  0  0  0  0  0  0  0  0  0  0  0
    5.4926    5.2380    6.9087 C   0  0  0  0  0  0  0  0  0  0  0  0
    6.7942    5.0007    6.5811 C   0  0  0  0  0  0  0  0  0  0  0  0
    7.3730    3.8052    6.9471 C   0  0  0  0  0  0  0  0  0  0  0  0
    6.6338    2.8507    7.6446 C   0  0  0  0  0  0  0  0  0  0  0  0
    4.8415    6.5164    6.5272 C   0  0  1  0  0  0  0  0  0  0  0  0
    4.1795    7.1471    7.7301 C   0  0  0  0  0  0  0  0  0  0  0  0
    2.9015    1.3430   10.2923 C   0  0  0  0  0  0  0  0  0  0  0  0
    3.2437    0.0235   10.1133 C   0  0  0  0  0  0  0  0  0  0  0  0
    4.2585   -0.2827    9.2401 C   0  0  0  0  0  0  0  0  0  0  0  0
    5.3153    3.0782    7.9827 C   0  0  0  0  0  0  0  0  0  0  0  0
    1.8291    1.7645   11.2188 C   0  0  0  0  0  0  0  0  0  0  0  0
    1.0862    2.8362   10.9150 O   0  0  0  0  0  0  0  0  0  0  0  0
   -0.0687    3.4379   11.1629 C   0  0  0  0  0  0  0  0  0  0  0  0
    1.4533    5.1152    8.8982 O   0  0  0  0  0  0  0  0  0  0  0  0
    1.7213    7.2002    9.7210 O   0  0  0  0  0  0  0  0  0  0  0  0
    5.8047    7.4431    5.9673 N   0  0  0  0  0  4  0  0  0  0  0  0
    4.5840    8.4741    7.8448 O   0  0  0  0  0  0  0  0  0  0  0  0
  2  1  2  0
 20  1  1  0
  3  2  1  0
  2 21  1  0
 18  3  2  0
  4  5  2  0
 24  4  1  0
  5  6  1  0
  7  6  2  0
  8  7  1  0
  8  9  1  0
 24  8  2  0
  9 10  1  0
 10 25  1  0
 10 26  2  0
 11 12  2  0
 21 11  1  0
 12 13  1  0
 12 16  1  0
 14 13  2  0
 15 14  1  0
 21 15  2  0
 16 17  1  0
 16 27  1  1
 17 28  1  0
 18 19  1  0
 22 18  1  0
 19 20  2  0
 23 22  1  0
 23 24  1  0
M  CHG  1  27   1
M  END
$$$$
