
     RDKit          3D

 28 30  0  0  0  0  0  0  0  0999 V2000
    5.6401    1.9026    8.4278 C   0  0  0  0  0  0  0  0  0  0  0  0
    4.7663    2.9598    8.3127 C   0  0  0  0  0  0  0  0  0  0  0  0
    3.5643    2.8792    8.9723 C   0  0  0  0  0  0  0  0  0  0  0  0
   -0.9987    2.8528   11.2340 C   0  0  0  0  0  0  0  0  0  0  0  0
   -2.1407    3.4809   11.7087 C   0  0  0  0  0  0  0  0  0  0  0  0
   -2.0587    4.7384   12.2221 C   0  0  0  0  0  0  0  0  0  0  0  0
   -0.8202    5.3486   12.2502 C   0  0  0  0  0  0  0  0  0  0  0  0
    0.3107    4.7348   11.7833 C   0  0  0  0  0  0  0  0  0  0  0  0
    1.6109    5.4446   11.8426 C   0  0  0  0  0  0  0  0  0  0  0  0
    1.9961    5.9883   10.5219 C   0  0  0  0  0  0  0  0  0  0  0  0
    6.1937    4.1282    6.6371 C   0  0  0  0  0  0  0  0  0  0  0  0
    6.5466    5.2102    5.8725 C   0  0  0  0  0  0  0  0  0  0  0  0
    5.7798    6.3485    5.9939 C   0  0  0  0  0  0  0  0  0  0  0  0
    4.7010    6.4088    6.8447 C   0  0  0  0  0  0  0  0  0  0  0  0
    4.3806    5.2868    7.6004 C   0  0  0  0  0  0  0  0  0  0  0  0
    7.7158    5.1051    4.9680 C   0  0  1  0  0  0  0  0  0  0  0  0
    8.6085    6.3186    5.0235 C   0  0  0  0  0  0  0  0  0  0  0  0
    3.2363    1.7497    9.7424 C   0  0  0  0  0  0  0  0  0  0  0  0
    4.1138    0.7011    9.8514 C   0  0  0  0  0  0  0  0  0  0  0  0
    5.3196    0.7803    9.1903 C   0  0  0  0  0  0  0  0  0  0  0  0
    5.1194    4.1189    7.5150 C   0  0  0  0  0  0  0  0  0  0  0  0
    1.9354    1.7057   10.4740 C   0  0  0  0  0  0  0  0  0  0  0  0
    1.4004    2.9107   10.8160 O   0  0  0  0  0  0  0  0  0  0  0  0
    0.2519    3.4284   11.2448 C   0  0  0  0  0  0  0  0  0  0  0  0
    3.2796    6.4366   10.3099 O   0  0  0  0  0  0  0  0  0  0  0  0
    1.1185    6.0225    9.6200 O   0  0  0  0  0  0  0  0  0  0  0  0
    8.4744    3.9034    5.3998 N   0  0  0  0  0  4  0  0  0  0  0  0
    9.7538    5.9980    4.2668 O   0  0  0  0  0  0  0  0  0  0  0  0
  2  1  2  0
 20  1  1  0
  3  2  1  0
  2 21  1  0
 18  3  2  0
  4  5  2  0
 24  4  1  0
  5  6  1  0
  7  6  2  0
  8  7  1  0
  8  9  1  0
 24  8  2  0
  9 10  1  6
 10 25  1  0
 10 26  2  0
 11 12  2  0
 21 11  1  0
 12 13  1  0
 16 12  1  1
 14 13  2  0
 15 14  1  0
 21 15  2  0
 16 17  1  0
 27 16  1  6
 17 28  1  6
 18 19  1  0
 22 18  1  0
 19 20  2  0
 22 23  1  6
 23 24  1  0
M  CHG  1  27   1
M  END
$$$$
