
     RDKit          3D

 28 30  0  0  0  0  0  0  0  0999 V2000
    1.6088    0.2894   11.0485 C   0  0  0  0  0  0  0  0  0  0  0  0
    2.1615    1.4406   10.5325 C   0  0  0  0  0  0  0  0  0  0  0  0
    3.3511    1.2943    9.8528 C   0  0  0  0  0  0  0  0  0  0  0  0
    8.1386    1.0644    7.8916 C   0  0  0  0  0  0  0  0  0  0  0  0
    9.2904    1.7074    7.4222 C   0  0  0  0  0  0  0  0  0  0  0  0
    9.3046    3.0722    7.2302 C   0  0  0  0  0  0  0  0  0  0  0  0
    8.1520    3.7941    7.5127 C   0  0  0  0  0  0  0  0  0  0  0  0
    7.0187    3.1713    7.9735 C   0  0  0  0  0  0  0  0  0  0  0  0
    5.7936    3.9642    8.2701 C   0  0  0  0  0  0  0  0  0  0  0  0
    4.8074    3.6896    7.1974 C   0  0  0  0  0  0  0  0  0  0  0  0
    1.6961    3.8258    9.9169 C   0  0  0  0  0  0  0  0  0  0  0  0
    1.0394    5.0208   10.1317 C   0  0  0  0  0  0  0  0  0  0  0  0
    0.1577    5.1350   11.1648 C   0  0  0  0  0  0  0  0  0  0  0  0
   -0.0646    4.0490   11.9829 C   0  0  0  0  0  0  0  0  0  0  0  0
    0.6058    2.8479   11.7544 C   0  0  0  0  0  0  0  0  0  0  0  0
    1.3001    6.1739    9.2338 C   0  0  1  0  0  0  0  0  0  0  0  0
    1.4681    7.4399   10.0413 C   0  0  0  0  0  0  0  0  0  0  0  0
    3.9929    0.0969    9.6694 C   0  0  0  0  0  0  0  0  0  0  0  0
    3.4308   -1.0449   10.1896 C   0  0  0  0  0  0  0  0  0  0  0  0
    2.2449   -0.9437   10.8747 C   0  0  0  0  0  0  0  0  0  0  0  0
    1.5008    2.7187   10.7121 C   0  0  0  0  0  0  0  0  0  0  0  0
    5.2616    0.0801    8.9101 C   0  0  0  0  0  0  0  0  0  0  0  0
    5.8654    1.2394    8.6199 O   0  0  0  0  0  0  0  0  0  0  0  0
    6.9949    1.7706    8.1736 C   0  0  0  0  0  0  0  0  0  0  0  0
    4.9542    4.2508    5.9197 O   0  0  0  0  0  0  0  0  0  0  0  0
    3.8243    2.9599    7.3869 O   0  0  0  0  0  0  0  0  0  0  0  0
    2.4888    5.9519    8.4350 N   0  0  0  0  0  4  0  0  0  0  0  0
    0.2176    7.9390   10.3948 O   0  0  0  0  0  0  0  0  0  0  0  0
  2  1  2  0
 20  1  1  0
  3  2  1  0
  2 21  1  0
 18  3  2  0
  4  5  2  0
 24  4  1  0
  5  6  1  0
  7  6  2  0
  8  7  1  0
  8  9  1  0
 24  8  2  0
  9 10  1  0
 10 25  1  0
 10 26  2  0
 11 12  2  0
 21 11  1  0
 12 13  1  0
 12 16  1  0
 14 13  2  0
 15 14  1  0
 21 15  2  0
 16 17  1  0
 16 27  1  1
 17 28  1  0
 18 19  1  0
 22 18  1  0
 19 20  2  0
 23 22  1  0
 23 24  1  0
M  CHG  1  27   1
M  END
$$$$
