
     RDKit          3D

 28 30  0  0  0  0  0  0  0  0999 V2000
    2.8305    5.6995    9.3260 C   0  0  0  0  0  0  0  0  0  0  0  0
    3.4845    4.5592    8.9180 C   0  0  0  0  0  0  0  0  0  0  0  0
    3.0466    3.3530    9.4077 C   0  0  0  0  0  0  0  0  0  0  0  0
    3.6286   -0.5947   10.0931 C   0  0  0  0  0  0  0  0  0  0  0  0
    4.1014   -1.8970   10.0286 C   0  0  0  0  0  0  0  0  0  0  0  0
    3.8836   -2.7492   11.0669 C   0  0  0  0  0  0  0  0  0  0  0  0
    3.1886   -2.2742   12.1617 C   0  0  0  0  0  0  0  0  0  0  0  0
    2.7191   -0.9904   12.2319 C   0  0  0  0  0  0  0  0  0  0  0  0
    1.9803   -0.5421   13.4365 C   0  0  0  0  0  0  0  0  0  0  0  0
    0.5250   -0.7689   13.2996 C   0  0  0  0  0  0  0  0  0  0  0  0
    4.9366    5.8137    7.3281 C   0  0  0  0  0  0  0  0  0  0  0  0
    5.9872    5.9198    6.4536 C   0  0  0  0  0  0  0  0  0  0  0  0
    6.7462    4.7907    6.2357 C   0  0  0  0  0  0  0  0  0  0  0  0
    6.4705    3.5991    6.8646 C   0  0  0  0  0  0  0  0  0  0  0  0
    5.3950    3.5389    7.7432 C   0  0  0  0  0  0  0  0  0  0  0  0
    6.2514    7.2214    5.7962 C   0  0  1  0  0  0  0  0  0  0  0  0
    5.3100    7.5001    4.6523 C   0  0  0  0  0  0  0  0  0  0  0  0
    1.9619    3.2855   10.2996 C   0  0  0  0  0  0  0  0  0  0  0  0
    1.3163    4.4274   10.7002 C   0  0  0  0  0  0  0  0  0  0  0  0
    1.7544    5.6378   10.2102 C   0  0  0  0  0  0  0  0  0  0  0  0
    4.6016    4.6450    7.9964 C   0  0  0  0  0  0  0  0  0  0  0  0
    1.4887    1.9566   10.7893 C   0  0  0  0  0  0  0  0  0  0  0  0
    2.4411    1.1415   11.3218 O   0  0  0  0  0  0  0  0  0  0  0  0
    2.9322   -0.0855   11.1662 C   0  0  0  0  0  0  0  0  0  0  0  0
   -0.3216    0.2965   13.0956 O   0  0  0  0  0  0  0  0  0  0  0  0
    0.1034   -1.9527   13.3761 O   0  0  0  0  0  0  0  0  0  0  0  0
    6.0903    8.2617    6.8440 N   0  0  0  0  0  4  0  0  0  0  0  0
    5.7268    6.6720    3.5905 O   0  0  0  0  0  0  0  0  0  0  0  0
  2  1  2  0
 20  1  1  0
  3  2  1  0
  2 21  1  0
 18  3  2  0
  4  5  2  0
 24  4  1  0
  5  6  1  0
  7  6  2  0
  8  7  1  0
  8  9  1  0
 24  8  2  0
  9 10  1  6
 10 25  1  0
 10 26  2  0
 11 12  2  0
 21 11  1  0
 12 13  1  0
 16 12  1  1
 14 13  2  0
 15 14  1  0
 21 15  2  0
 16 17  1  0
 27 16  1  6
 17 28  1  6
 18 19  1  0
 22 18  1  0
 19 20  2  0
 22 23  1  6
 23 24  1  0
M  CHG  1  27   1
M  END
$$$$
