
     RDKit          3D

 28 30  0  0  0  0  0  0  0  0999 V2000
    1.0300    5.8217    9.9178 C   0  0  0  0  0  0  0  0  0  0  0  0
    1.7798    4.7170   10.2523 C   0  0  0  0  0  0  0  0  0  0  0  0
    1.3652    3.9525   11.3153 C   0  0  0  0  0  0  0  0  0  0  0  0
    0.2231    1.0482   15.4953 C   0  0  0  0  0  0  0  0  0  0  0  0
    0.5157    0.4375   16.7057 C   0  0  0  0  0  0  0  0  0  0  0  0
    1.5732    0.8702   17.4449 C   0  0  0  0  0  0  0  0  0  0  0  0
    2.3251    1.9180   16.9509 C   0  0  0  0  0  0  0  0  0  0  0  0
    2.0419    2.5253   15.7573 C   0  0  0  0  0  0  0  0  0  0  0  0
    2.8890    3.6454   15.2826 C   0  0  0  0  0  0  0  0  0  0  0  0
    3.9149    3.1843   14.3219 C   0  0  0  0  0  0  0  0  0  0  0  0
    3.5964    5.2812    8.6423 C   0  0  0  0  0  0  0  0  0  0  0  0
    4.7221    4.9891    7.9162 C   0  0  0  0  0  0  0  0  0  0  0  0
    5.2518    3.7242    8.0506 C   0  0  0  0  0  0  0  0  0  0  0  0
    4.6827    2.7838    8.8772 C   0  0  0  0  0  0  0  0  0  0  0  0
    3.5416    3.1252    9.5941 C   0  0  0  0  0  0  0  0  0  0  0  0
    5.3049    6.0299    7.0369 C   0  0  1  0  0  0  0  0  0  0  0  0
    4.5472    6.1942    5.7441 C   0  0  0  0  0  0  0  0  0  0  0  0
    0.2085    4.2887   12.0403 C   0  0  0  0  0  0  0  0  0  0  0  0
   -0.5325    5.3914   11.6991 C   0  0  0  0  0  0  0  0  0  0  0  0
   -0.1178    6.1592   10.6335 C   0  0  0  0  0  0  0  0  0  0  0  0
    2.9706    4.3825    9.4941 C   0  0  0  0  0  0  0  0  0  0  0  0
   -0.2346    3.4195   13.1706 C   0  0  0  0  0  0  0  0  0  0  0  0
    0.7490    2.7422   13.8255 O   0  0  0  0  0  0  0  0  0  0  0  0
    0.9484    2.0944   14.9707 C   0  0  0  0  0  0  0  0  0  0  0  0
    4.4813    1.9384   14.4648 O   0  0  0  0  0  0  0  0  0  0  0  0
    4.2405    3.9635   13.3882 O   0  0  0  0  0  0  0  0  0  0  0  0
    5.2666    7.2997    7.8063 N   0  0  0  0  0  4  0  0  0  0  0  0
    5.4749    6.6896    4.8057 O   0  0  0  0  0  0  0  0  0  0  0  0
  2  1  2  0
 20  1  1  0
  3  2  1  0
  2 21  1  0
 18  3  2  0
  4  5  2  0
 24  4  1  0
  5  6  1  0
  7  6  2  0
  8  7  1  0
  8  9  1  0
 24  8  2  0
  9 10  1  6
 10 25  1  0
 10 26  2  0
 11 12  2  0
 21 11  1  0
 12 13  1  0
 16 12  1  1
 14 13  2  0
 15 14  1  0
 21 15  2  0
 16 17  1  0
 27 16  1  6
 17 28  1  6
 18 19  1  0
 22 18  1  0
 19 20  2  0
 22 23  1  6
 23 24  1  0
M  CHG  1  27   1
M  END
$$$$
