
     RDKit          3D

 28 30  0  0  0  0  0  0  0  0999 V2000
    1.3389    0.7233   11.7757 C   0  0  0  0  0  0  0  0  0  0  0  0
    0.9256    1.3712   10.6328 C   0  0  0  0  0  0  0  0  0  0  0  0
    1.9208    1.8109    9.7873 C   0  0  0  0  0  0  0  0  0  0  0  0
    6.0775    4.1743    7.3582 C   0  0  0  0  0  0  0  0  0  0  0  0
    6.7683    5.2273    6.7462 C   0  0  0  0  0  0  0  0  0  0  0  0
    6.4049    6.5361    6.9803 C   0  0  0  0  0  0  0  0  0  0  0  0
    5.3397    6.7862    7.8359 C   0  0  0  0  0  0  0  0  0  0  0  0
    4.6574    5.7595    8.4400 C   0  0  0  0  0  0  0  0  0  0  0  0
    3.5180    6.0499    9.3538 C   0  0  0  0  0  0  0  0  0  0  0  0
    2.2647    5.7339    8.6271 C   0  0  0  0  0  0  0  0  0  0  0  0
   -1.5080    0.9068   11.0156 C   0  0  0  0  0  0  0  0  0  0  0  0
   -2.8388    1.1267   10.7215 C   0  0  0  0  0  0  0  0  0  0  0  0
   -3.1812    2.0225    9.7530 C   0  0  0  0  0  0  0  0  0  0  0  0
   -2.1872    2.6978    9.0793 C   0  0  0  0  0  0  0  0  0  0  0  0
   -0.8471    2.4659    9.3865 C   0  0  0  0  0  0  0  0  0  0  0  0
   -3.8875    0.3833   11.4640 C   0  0  1  0  0  0  0  0  0  0  0  0
   -3.7648   -1.0996   11.2012 C   0  0  0  0  0  0  0  0  0  0  0  0
    3.2612    1.6408   10.0191 C   0  0  0  0  0  0  0  0  0  0  0  0
    3.6608    0.9926   11.1638 C   0  0  0  0  0  0  0  0  0  0  0  0
    2.7007    0.5382   12.0343 C   0  0  0  0  0  0  0  0  0  0  0  0
   -0.4865    1.5619   10.3648 C   0  0  0  0  0  0  0  0  0  0  0  0
    4.2250    2.1543    9.0222 C   0  0  0  0  0  0  0  0  0  0  0  0
    4.3186    3.4750    8.8230 O   0  0  0  0  0  0  0  0  0  0  0  0
    5.0234    4.4127    8.2055 C   0  0  0  0  0  0  0  0  0  0  0  0
    2.1390    5.9972    7.2545 O   0  0  0  0  0  0  0  0  0  0  0  0
    1.2887    5.2294    9.1996 O   0  0  0  0  0  0  0  0  0  0  0  0
   -3.7882    0.6289   12.8888 N   0  0  0  0  0  4  0  0  0  0  0  0
   -5.0271   -1.6858   11.2278 O   0  0  0  0  0  0  0  0  0  0  0  0
  2  1  2  0
 20  1  1  0
  3  2  1  0
  2 21  1  0
 18  3  2  0
  4  5  2  0
 24  4  1  0
  5  6  1  0
  7  6  2  0
  8  7  1  0
  8  9  1  0
 24  8  2  0
  9 10  1  0
 10 25  1  0
 10 26  2  0
 11 12  2  0
 21 11  1  0
 12 13  1  0
 12 16  1  0
 14 13  2  0
 15 14  1  0
 21 15  2  0
 16 17  1  0
 16 27  1  1
 17 28  1  0
 18 19  1  0
 22 18  1  0
 19 20  2  0
 23 22  1  0
 23 24  1  0
M  CHG  1  27   1
M  END
$$$$
