
     RDKit          3D

 28 30  0  0  0  0  0  0  0  0999 V2000
    4.4988    1.4172   10.7748 C   0  0  0  0  0  0  0  0  0  0  0  0
    3.3680    2.1323   10.4516 C   0  0  0  0  0  0  0  0  0  0  0  0
    2.5483    1.6351    9.4681 C   0  0  0  0  0  0  0  0  0  0  0  0
   -0.8908   -1.2082    6.6052 C   0  0  0  0  0  0  0  0  0  0  0  0
   -2.1817   -1.6345    6.3300 C   0  0  0  0  0  0  0  0  0  0  0  0
   -2.9567   -2.1373    7.3291 C   0  0  0  0  0  0  0  0  0  0  0  0
   -2.4169   -2.2038    8.5985 C   0  0  0  0  0  0  0  0  0  0  0  0
   -1.1439   -1.7849    8.8771 C   0  0  0  0  0  0  0  0  0  0  0  0
   -0.6233   -1.8838   10.2616 C   0  0  0  0  0  0  0  0  0  0  0  0
   -0.8206   -0.6231   11.0099 C   0  0  0  0  0  0  0  0  0  0  0  0
    2.2553    4.3578   10.5908 C   0  0  0  0  0  0  0  0  0  0  0  0
    1.9531    5.5373   11.2209 C   0  0  0  0  0  0  0  0  0  0  0  0
    2.4915    5.7427   12.4725 C   0  0  0  0  0  0  0  0  0  0  0  0
    3.3011    4.8089   13.0757 C   0  0  0  0  0  0  0  0  0  0  0  0
    3.5801    3.6273   12.3986 C   0  0  0  0  0  0  0  0  0  0  0  0
    1.0769    6.5178   10.5373 C   0  0  1  0  0  0  0  0  0  0  0  0
    1.8500    7.5279    9.7283 C   0  0  0  0  0  0  0  0  0  0  0  0
    2.8557    0.4309    8.8108 C   0  0  0  0  0  0  0  0  0  0  0  0
    3.9848   -0.2748    9.1400 C   0  0  0  0  0  0  0  0  0  0  0  0
    4.8079    0.2226   10.1260 C   0  0  0  0  0  0  0  0  0  0  0  0
    3.0639    3.3729   11.1394 C   0  0  0  0  0  0  0  0  0  0  0  0
    1.9280   -0.1003    7.7684 C   0  0  0  0  0  0  0  0  0  0  0  0
    0.9038   -0.8770    8.2189 O   0  0  0  0  0  0  0  0  0  0  0  0
   -0.3186   -1.2583    7.8565 C   0  0  0  0  0  0  0  0  0  0  0  0
   -1.9988   -0.4004   11.6849 O   0  0  0  0  0  0  0  0  0  0  0  0
    0.1152    0.2189   11.0029 O   0  0  0  0  0  0  0  0  0  0  0  0
    0.1866    5.7340    9.6435 N   0  0  0  0  0  4  0  0  0  0  0  0
    2.4876    8.3718   10.6601 O   0  0  0  0  0  0  0  0  0  0  0  0
  2  1  2  0
 20  1  1  0
  3  2  1  0
  2 21  1  0
 18  3  2  0
  4  5  2  0
 24  4  1  0
  5  6  1  0
  7  6  2  0
  8  7  1  0
  8  9  1  0
 24  8  2  0
  9 10  1  6
 10 25  1  0
 10 26  2  0
 11 12  2  0
 21 11  1  0
 12 13  1  0
 16 12  1  6
 14 13  2  0
 15 14  1  0
 21 15  2  0
 16 17  1  0
 27 16  1  6
 17 28  1  6
 18 19  1  0
 22 18  1  0
 19 20  2  0
 22 23  1  6
 23 24  1  0
M  CHG  1  27   1
M  END
$$$$
