
     RDKit          3D

 28 30  0  0  0  0  0  0  0  0999 V2000
    6.5271    2.6832    7.8369 C   0  0  0  0  0  0  0  0  0  0  0  0
    5.4709    3.5241    8.1096 C   0  0  0  0  0  0  0  0  0  0  0  0
    4.4923    3.0241    8.9410 C   0  0  0  0  0  0  0  0  0  0  0  0
    0.7207   -0.3318   10.8749 C   0  0  0  0  0  0  0  0  0  0  0  0
   -0.2914   -1.2581   11.1544 C   0  0  0  0  0  0  0  0  0  0  0  0
   -0.0075   -2.6040   11.2426 C   0  0  0  0  0  0  0  0  0  0  0  0
    1.3035   -3.0198   11.0485 C   0  0  0  0  0  0  0  0  0  0  0  0
    2.3016   -2.1180   10.7743 C   0  0  0  0  0  0  0  0  0  0  0  0
    3.7006   -2.5853   10.5693 C   0  0  0  0  0  0  0  0  0  0  0  0
    3.9365   -2.6767    9.1082 C   0  0  0  0  0  0  0  0  0  0  0  0
    6.0121    5.2243    6.3488 C   0  0  0  0  0  0  0  0  0  0  0  0
    5.9359    6.5086    5.8482 C   0  0  0  0  0  0  0  0  0  0  0  0
    5.2574    7.4677    6.5393 C   0  0  0  0  0  0  0  0  0  0  0  0
    4.6551    7.1373    7.7335 C   0  0  0  0  0  0  0  0  0  0  0  0
    4.7401    5.8362    8.2274 C   0  0  0  0  0  0  0  0  0  0  0  0
    6.5958    6.8347    4.5590 C   0  0  1  0  0  0  0  0  0  0  0  0
    7.7745    7.7512    4.7903 C   0  0  0  0  0  0  0  0  0  0  0  0
    4.5162    1.7699    9.4939 C   0  0  0  0  0  0  0  0  0  0  0  0
    5.5761    0.9401    9.2137 C   0  0  0  0  0  0  0  0  0  0  0  0
    6.5736    1.3992    8.3890 C   0  0  0  0  0  0  0  0  0  0  0  0
    5.4238    4.8556    7.5379 C   0  0  0  0  0  0  0  0  0  0  0  0
    3.4038    1.3625   10.3786 C   0  0  0  0  0  0  0  0  0  0  0  0
    3.0335    0.0762   10.4136 O   0  0  0  0  0  0  0  0  0  0  0  0
    2.0194   -0.7344   10.6818 C   0  0  0  0  0  0  0  0  0  0  0  0
    2.9656   -3.2181    8.2518 O   0  0  0  0  0  0  0  0  0  0  0  0
    4.9912   -2.2818    8.5921 O   0  0  0  0  0  0  0  0  0  0  0  0
    7.0463    5.6322    3.8873 N   0  0  0  0  0  4  0  0  0  0  0  0
    7.9409    8.5868    3.6895 O   0  0  0  0  0  0  0  0  0  0  0  0
  2  1  2  0
 20  1  1  0
  3  2  1  0
  2 21  1  0
 18  3  2  0
  4  5  2  0
 24  4  1  0
  5  6  1  0
  7  6  2  0
  8  7  1  0
  8  9  1  0
 24  8  2  0
  9 10  1  0
 10 25  1  0
 10 26  2  0
 11 12  2  0
 21 11  1  0
 12 13  1  0
 12 16  1  0
 14 13  2  0
 15 14  1  0
 21 15  2  0
 16 17  1  0
 16 27  1  1
 17 28  1  0
 18 19  1  0
 22 18  1  0
 19 20  2  0
 23 22  1  0
 23 24  1  0
M  CHG  1  27   1
M  END
$$$$
