
     RDKit          3D

 28 30  0  0  0  0  0  0  0  0999 V2000
    1.6184    1.2613   12.6719 C   0  0  0  0  0  0  0  0  0  0  0  0
    2.2479    1.8170   11.5813 C   0  0  0  0  0  0  0  0  0  0  0  0
    3.1308    1.0351   10.8772 C   0  0  0  0  0  0  0  0  0  0  0  0
    6.5614   -1.8577    8.1967 C   0  0  0  0  0  0  0  0  0  0  0  0
    7.6632   -1.9558    7.3599 C   0  0  0  0  0  0  0  0  0  0  0  0
    8.3377   -0.8322    6.9930 C   0  0  0  0  0  0  0  0  0  0  0  0
    7.8896    0.3810    7.4773 C   0  0  0  0  0  0  0  0  0  0  0  0
    6.8032    0.4850    8.3034 C   0  0  0  0  0  0  0  0  0  0  0  0
    6.3727    1.8182    8.7883 C   0  0  0  0  0  0  0  0  0  0  0  0
    5.3638    2.4248    7.8926 C   0  0  0  0  0  0  0  0  0  0  0  0
    1.0972    4.0047   11.8976 C   0  0  0  0  0  0  0  0  0  0  0  0
    0.8243    5.3042   11.5563 C   0  0  0  0  0  0  0  0  0  0  0  0
    1.4681    5.8173   10.4514 C   0  0  0  0  0  0  0  0  0  0  0  0
    2.3515    5.0653    9.7127 C   0  0  0  0  0  0  0  0  0  0  0  0
    2.5971    3.7521   10.0966 C   0  0  0  0  0  0  0  0  0  0  0  0
   -0.1336    6.0811   12.3779 C   0  0  1  0  0  0  0  0  0  0  0  0
   -1.4519    6.3061   11.6824 C   0  0  0  0  0  0  0  0  0  0  0  0
    3.3838   -0.2939   11.2596 C   0  0  0  0  0  0  0  0  0  0  0  0
    2.7513   -0.8390   12.3478 C   0  0  0  0  0  0  0  0  0  0  0  0
    1.8658   -0.0561   13.0550 C   0  0  0  0  0  0  0  0  0  0  0  0
    1.9758    3.1896   11.1987 C   0  0  0  0  0  0  0  0  0  0  0  0
    4.3245   -1.1287   10.4548 C   0  0  0  0  0  0  0  0  0  0  0  0
    5.0432   -0.4710    9.5029 O   0  0  0  0  0  0  0  0  0  0  0  0
    6.0856   -0.6675    8.6993 C   0  0  0  0  0  0  0  0  0  0  0  0
    4.0356    2.4252    8.2521 O   0  0  0  0  0  0  0  0  0  0  0  0
    5.7638    2.9296    6.8109 O   0  0  0  0  0  0  0  0  0  0  0  0
   -0.3494    5.3000   13.6226 N   0  0  0  0  0  4  0  0  0  0  0  0
   -2.2206    7.1094   12.5488 O   0  0  0  0  0  0  0  0  0  0  0  0
  2  1  2  0
 20  1  1  0
  3  2  1  0
  2 21  1  0
 18  3  2  0
  4  5  2  0
 24  4  1  0
  5  6  1  0
  7  6  2  0
  8  7  1  0
  8  9  1  0
 24  8  2  0
  9 10  1  6
 10 25  1  0
 10 26  2  0
 11 12  2  0
 21 11  1  0
 12 13  1  0
 16 12  1  6
 14 13  2  0
 15 14  1  0
 21 15  2  0
 16 17  1  0
 27 16  1  6
 17 28  1  6
 18 19  1  0
 22 18  1  0
 19 20  2  0
 22 23  1  6
 23 24  1  0
M  CHG  1  27   1
M  END
$$$$
