
     RDKit          3D

 28 30  0  0  0  0  0  0  0  0999 V2000
    1.7491    0.3255   10.8847 C   0  0  0  0  0  0  0  0  0  0  0  0
    2.2577    1.4127   10.2111 C   0  0  0  0  0  0  0  0  0  0  0  0
    3.6118    1.4575    9.9857 C   0  0  0  0  0  0  0  0  0  0  0  0
    8.3638    0.0962    8.0261 C   0  0  0  0  0  0  0  0  0  0  0  0
    9.4648   -0.2955    7.2790 C   0  0  0  0  0  0  0  0  0  0  0  0
    9.7295   -1.6189    7.1047 C   0  0  0  0  0  0  0  0  0  0  0  0
    8.8761   -2.5340    7.6891 C   0  0  0  0  0  0  0  0  0  0  0  0
    7.7878   -2.1545    8.4274 C   0  0  0  0  0  0  0  0  0  0  0  0
    6.9107   -3.1871    9.0292 C   0  0  0  0  0  0  0  0  0  0  0  0
    5.7310   -3.4629    8.1804 C   0  0  0  0  0  0  0  0  0  0  0  0
    1.8205    3.7613    9.5018 C   0  0  0  0  0  0  0  0  0  0  0  0
    1.0077    4.7786    9.0727 C   0  0  0  0  0  0  0  0  0  0  0  0
   -0.3268    4.4885    8.8896 C   0  0  0  0  0  0  0  0  0  0  0  0
   -0.8347    3.2323    9.1246 C   0  0  0  0  0  0  0  0  0  0  0  0
    0.0274    2.2320    9.5589 C   0  0  0  0  0  0  0  0  0  0  0  0
    1.5934    6.1182    8.8306 C   0  0  1  0  0  0  0  0  0  0  0  0
    2.2807    6.6840   10.0471 C   0  0  0  0  0  0  0  0  0  0  0  0
    4.4535    0.4227   10.4301 C   0  0  0  0  0  0  0  0  0  0  0  0
    3.9373   -0.6570   11.1003 C   0  0  0  0  0  0  0  0  0  0  0  0
    2.5795   -0.7032   11.3273 C   0  0  0  0  0  0  0  0  0  0  0  0
    1.3763    2.4722    9.7581 C   0  0  0  0  0  0  0  0  0  0  0  0
    5.9172    0.4845   10.1414 C   0  0  0  0  0  0  0  0  0  0  0  0
    6.4143   -0.5102    9.3549 O   0  0  0  0  0  0  0  0  0  0  0  0
    7.4910   -0.7857    8.6230 C   0  0  0  0  0  0  0  0  0  0  0  0
    4.4651   -3.3793    8.7131 O   0  0  0  0  0  0  0  0  0  0  0  0
    5.9305   -3.7705    6.9761 O   0  0  0  0  0  0  0  0  0  0  0  0
    2.5763    5.9542    7.7293 N   0  0  0  0  0  4  0  0  0  0  0  0
    1.2552    7.1294   10.9056 O   0  0  0  0  0  0  0  0  0  0  0  0
  2  1  2  0
 20  1  1  0
  3  2  1  0
  2 21  1  0
 18  3  2  0
  4  5  2  0
 24  4  1  0
  5  6  1  0
  7  6  2  0
  8  7  1  0
  8  9  1  0
 24  8  2  0
  9 10  1  6
 10 25  1  0
 10 26  2  0
 11 12  2  0
 21 11  1  0
 12 13  1  0
 16 12  1  1
 14 13  2  0
 15 14  1  0
 21 15  2  0
 16 17  1  0
 27 16  1  6
 17 28  1  6
 18 19  1  0
 22 18  1  0
 19 20  2  0
 22 23  1  6
 23 24  1  0
M  CHG  1  27   1
M  END
$$$$
