
     RDKit          3D

 28 30  0  0  0  0  0  0  0  0999 V2000
    4.6310    1.6421    9.0497 C   0  0  0  0  0  0  0  0  0  0  0  0
    4.1900    2.8613    8.5849 C   0  0  0  0  0  0  0  0  0  0  0  0
    2.9385    3.2572    9.0041 C   0  0  0  0  0  0  0  0  0  0  0  0
   -1.6100    4.2106   11.9862 C   0  0  0  0  0  0  0  0  0  0  0  0
   -2.4846    4.7866   12.9156 C   0  0  0  0  0  0  0  0  0  0  0  0
   -2.0548    5.0931   14.1889 C   0  0  0  0  0  0  0  0  0  0  0  0
   -0.7362    4.8183   14.5283 C   0  0  0  0  0  0  0  0  0  0  0  0
    0.1276    4.2539   13.6229 C   0  0  0  0  0  0  0  0  0  0  0  0
    1.5374    3.9672   14.0076 C   0  0  0  0  0  0  0  0  0  0  0  0
    1.6499    2.5098   14.2568 C   0  0  0  0  0  0  0  0  0  0  0  0
    4.7384    4.9440    7.3020 C   0  0  0  0  0  0  0  0  0  0  0  0
    5.5678    5.6604    6.4625 C   0  0  0  0  0  0  0  0  0  0  0  0
    6.7194    5.0956    6.0015 C   0  0  0  0  0  0  0  0  0  0  0  0
    7.0385    3.8108    6.3833 C   0  0  0  0  0  0  0  0  0  0  0  0
    6.1915    3.0987    7.2316 C   0  0  0  0  0  0  0  0  0  0  0  0
    5.1969    7.0426    6.0679 C   0  0  1  0  0  0  0  0  0  0  0  0
    4.3659    7.6918    7.1500 C   0  0  0  0  0  0  0  0  0  0  0  0
    2.1345    2.5214    9.8355 C   0  0  0  0  0  0  0  0  0  0  0  0
    2.5863    1.3059   10.2924 C   0  0  0  0  0  0  0  0  0  0  0  0
    3.8288    0.8731    9.8987 C   0  0  0  0  0  0  0  0  0  0  0  0
    5.0227    3.6586    7.7057 C   0  0  0  0  0  0  0  0  0  0  0  0
    0.8150    3.0696   10.2157 C   0  0  0  0  0  0  0  0  0  0  0  0
    0.5849    3.3926   11.4946 O   0  0  0  0  0  0  0  0  0  0  0  0
   -0.3049    3.9358   12.3135 C   0  0  0  0  0  0  0  0  0  0  0  0
    0.7305    1.8447   15.0823 O   0  0  0  0  0  0  0  0  0  0  0  0
    2.5526    1.8295   13.7498 O   0  0  0  0  0  0  0  0  0  0  0  0
    6.3771    7.8465    5.8205 N   0  0  0  0  0  4  0  0  0  0  0  0
    3.1646    7.0034    7.2940 O   0  0  0  0  0  0  0  0  0  0  0  0
  2  1  2  0
 20  1  1  0
  3  2  1  0
  2 21  1  0
 18  3  2  0
  4  5  2  0
 24  4  1  0
  5  6  1  0
  7  6  2  0
  8  7  1  0
  8  9  1  0
 24  8  2  0
  9 10  1  0
 10 25  1  0
 10 26  2  0
 11 12  2  0
 21 11  1  0
 12 13  1  0
 12 16  1  0
 14 13  2  0
 15 14  1  0
 21 15  2  0
 16 17  1  0
 16 27  1  1
 17 28  1  0
 18 19  1  0
 22 18  1  0
 19 20  2  0
 23 22  1  0
 23 24  1  0
M  CHG  1  27   1
M  END
$$$$
