
     RDKit          3D

 28 30  0  0  0  0  0  0  0  0999 V2000
    6.4390    3.3521    7.5336 C   0  0  0  0  0  0  0  0  0  0  0  0
    6.1697    2.2127    8.2573 C   0  0  0  0  0  0  0  0  0  0  0  0
    4.8918    2.0330    8.7276 C   0  0  0  0  0  0  0  0  0  0  0  0
   -0.1844    3.0802   10.7372 C   0  0  0  0  0  0  0  0  0  0  0  0
   -1.2512    3.3808   11.5710 C   0  0  0  0  0  0  0  0  0  0  0  0
   -1.1935    4.4753   12.3775 C   0  0  0  0  0  0  0  0  0  0  0  0
   -0.0550    5.2558   12.3321 C   0  0  0  0  0  0  0  0  0  0  0  0
    1.0013    4.9651   11.5115 C   0  0  0  0  0  0  0  0  0  0  0  0
    2.1955    5.8435   11.5105 C   0  0  0  0  0  0  0  0  0  0  0  0
    2.2096    6.7436   10.3367 C   0  0  0  0  0  0  0  0  0  0  0  0
    8.2277    0.9726    7.5964 C   0  0  0  0  0  0  0  0  0  0  0  0
    9.2267    0.0581    7.8096 C   0  0  0  0  0  0  0  0  0  0  0  0
    9.2114   -0.6295    9.0035 C   0  0  0  0  0  0  0  0  0  0  0  0
    8.2379   -0.4155    9.9511 C   0  0  0  0  0  0  0  0  0  0  0  0
    7.2448    0.5218    9.6911 C   0  0  0  0  0  0  0  0  0  0  0  0
   10.2572   -0.1433    6.7638 C   0  0  1  0  0  0  0  0  0  0  0  0
    9.6716   -0.5620    5.4393 C   0  0  0  0  0  0  0  0  0  0  0  0
    3.8884    2.9853    8.4769 C   0  0  0  0  0  0  0  0  0  0  0  0
    4.1663    4.1176    7.7544 C   0  0  0  0  0  0  0  0  0  0  0  0
    5.4474    4.2993    7.2822 C   0  0  0  0  0  0  0  0  0  0  0  0
    7.2155    1.2388    8.5071 C   0  0  0  0  0  0  0  0  0  0  0  0
    2.5009    2.7460    8.9739 C   0  0  0  0  0  0  0  0  0  0  0  0
    2.0371    3.6287    9.9016 O   0  0  0  0  0  0  0  0  0  0  0  0
    0.9657    3.8336   10.6639 C   0  0  0  0  0  0  0  0  0  0  0  0
    3.2950    6.7551    9.4911 O   0  0  0  0  0  0  0  0  0  0  0  0
    1.2078    7.4824   10.1487 O   0  0  0  0  0  0  0  0  0  0  0  0
   10.9623    1.1552    6.6131 N   0  0  0  0  0  4  0  0  0  0  0  0
   10.6945   -1.2529    4.7588 O   0  0  0  0  0  0  0  0  0  0  0  0
  2  1  2  0
 20  1  1  0
  3  2  1  0
  2 21  1  0
 18  3  2  0
  4  5  2  0
 24  4  1  0
  5  6  1  0
  7  6  2  0
  8  7  1  0
  8  9  1  0
 24  8  2  0
  9 10  1  6
 10 25  1  0
 10 26  2  0
 11 12  2  0
 21 11  1  0
 12 13  1  0
 16 12  1  1
 14 13  2  0
 15 14  1  0
 21 15  2  0
 16 17  1  0
 27 16  1  6
 17 28  1  6
 18 19  1  0
 22 18  1  0
 19 20  2  0
 22 23  1  6
 23 24  1  0
M  CHG  1  27   1
M  END
$$$$
