
     RDKit          3D

 28 30  0  0  0  0  0  0  0  0999 V2000
    6.6601    2.7198    8.0873 C   0  0  0  0  0  0  0  0  0  0  0  0
    5.4838    3.4098    8.2801 C   0  0  0  0  0  0  0  0  0  0  0  0
    4.5263    2.7809    9.0458 C   0  0  0  0  0  0  0  0  0  0  0  0
    0.5773    0.4950    9.2050 C   0  0  0  0  0  0  0  0  0  0  0  0
   -0.8026    0.3107    9.0554 C   0  0  0  0  0  0  0  0  0  0  0  0
   -1.6929    0.9766    9.8701 C   0  0  0  0  0  0  0  0  0  0  0  0
   -1.1909    1.8335   10.8412 C   0  0  0  0  0  0  0  0  0  0  0  0
    0.1605    2.0199   10.9942 C   0  0  0  0  0  0  0  0  0  0  0  0
    0.6776    2.9431   12.0420 C   0  0  0  0  0  0  0  0  0  0  0  0
    1.2818    4.1109   11.3564 C   0  0  0  0  0  0  0  0  0  0  0  0
    5.9977    5.2133    6.6164 C   0  0  0  0  0  0  0  0  0  0  0  0
    5.7797    6.4742    6.0984 C   0  0  0  0  0  0  0  0  0  0  0  0
    4.8395    7.2858    6.6598 C   0  0  0  0  0  0  0  0  0  0  0  0
    4.1180    6.8314    7.7419 C   0  0  0  0  0  0  0  0  0  0  0  0
    4.3486    5.5556    8.2550 C   0  0  0  0  0  0  0  0  0  0  0  0
    6.5734    6.9364    4.9321 C   0  0  1  0  0  0  0  0  0  0  0  0
    7.7738    7.7284    5.3954 C   0  0  0  0  0  0  0  0  0  0  0  0
    4.6808    1.5405    9.6088 C   0  0  0  0  0  0  0  0  0  0  0  0
    5.8597    0.8620    9.4087 C   0  0  0  0  0  0  0  0  0  0  0  0
    6.8410    1.4529    8.6512 C   0  0  0  0  0  0  0  0  0  0  0  0
    5.2973    4.7238    7.6961 C   0  0  0  0  0  0  0  0  0  0  0  0
    3.5747    0.9851   10.4178 C   0  0  0  0  0  0  0  0  0  0  0  0
    2.3713    1.5699   10.3691 O   0  0  0  0  0  0  0  0  0  0  0  0
    1.0821    1.3405   10.1624 C   0  0  0  0  0  0  0  0  0  0  0  0
    0.6783    4.6749   10.2220 O   0  0  0  0  0  0  0  0  0  0  0  0
    2.3339    4.6290   11.7560 O   0  0  0  0  0  0  0  0  0  0  0  0
    7.0181    5.8149    4.1291 N   0  0  0  0  0  4  0  0  0  0  0  0
    7.3734    9.0066    5.7745 O   0  0  0  0  0  0  0  0  0  0  0  0
  2  1  2  0
 20  1  1  0
  3  2  1  0
  2 21  1  0
 18  3  2  0
  4  5  2  0
 24  4  1  0
  5  6  1  0
  7  6  2  0
  8  7  1  0
  8  9  1  0
 24  8  2  0
  9 10  1  0
 10 25  1  0
 10 26  2  0
 11 12  2  0
 21 11  1  0
 12 13  1  0
 12 16  1  0
 14 13  2  0
 15 14  1  0
 21 15  2  0
 16 17  1  0
 16 27  1  1
 17 28  1  0
 18 19  1  0
 22 18  1  0
 19 20  2  0
 23 22  1  0
 23 24  1  0
M  CHG  1  27   1
M  END
$$$$
