
     RDKit          3D

 21 23  0  0  0  0  0  0  0  0999 V2000
   26.2176   58.8827   87.0771 O   0  0  0  0  0  0  0  0  0  0  0  0
   23.9300   56.5928   87.9311 C   0  0  2  0  0  0  0  0  0  0  0  0
   21.7291   54.9476   85.8347 O   0  0  0  0  0  0  0  0  0  0  0  0
   24.4303   57.3048   86.7498 C   0  0  2  0  0  0  0  0  0  0  0  0
   30.7081   55.0751   85.7798 C   0  0  0  0  0  0  0  0  0  0  0  0
   26.9096   56.7766   86.4888 N   0  0  0  0  0  0  0  0  0  0  0  0
   25.8821   57.7058   86.7839 C   0  0  0  0  0  0  0  0  0  0  0  0
   27.3958   55.8205   87.4624 C   0  0  0  0  0  0  0  0  0  0  0  0
   28.5451   55.0023   86.9237 C   0  0  0  0  0  0  0  0  0  0  0  0
   29.5872   55.9276   86.3470 C   0  0  0  0  0  0  0  0  0  0  0  0
   22.7077   55.6743   87.8188 C   0  0  1  0  0  0  0  0  0  0  0  0
   22.6595   54.7431   88.8994 N   0  0  0  0  0  0  0  0  0  0  0  0
   21.8022   54.8048   90.0108 C   0  0  0  0  0  0  0  0  0  0  0  0
   22.1024   54.3075   91.1379 N   0  0  0  0  0  0  0  0  0  0  0  0
   20.2411   55.6240   89.7820 S   0  0  0  0  0  0  0  0  0  0  0  0
   20.1816   55.9171   87.9672 C   0  0  0  0  0  0  0  0  0  0  0  0
   21.4892   56.4310   87.4919 C   0  0  2  0  0  0  0  0  0  0  0  0
   21.4557   56.3312   85.9565 C   0  0  0  0  0  0  0  0  0  0  0  0
   22.9360   54.8651   86.5368 C   0  0  0  0  0  0  0  0  0  0  0  0
   23.5844   58.0513   87.8014 C   0  0  0  0  0  0  0  0  0  0  0  0
   21.7729   53.3777   91.4755 H   0  0  0  0  0  0  0  0  0  0  0  0
  7  1  2  0
  2  4  1  0
 11  2  1  0
  2 20  1  1
  3 18  1  0
 19  3  1  0
  4  7  1  1
 20  4  1  0
 10  5  1  0
  7  6  1  0
  6  8  1  0
  8  9  1  0
  9 10  1  0
 11 12  1  0
 11 17  1  0
 11 19  1  6
 12 13  1  0
 13 14  2  0
 13 15  1  0
 15 16  1  0
 17 16  1  1
 17 18  1  0
 14 21  1  0
M  END
$$$$
