
     RDKit          3D

 21 23  0  0  0  0  0  0  0  0999 V2000
   25.3629   57.3569   85.8068 O   0  0  0  0  0  0  0  0  0  0  0  0
   22.8509   56.2706   86.4357 C   0  0  2  0  0  0  0  0  0  0  0  0
   19.4541   55.7063   86.7320 O   0  0  0  0  0  0  0  0  0  0  0  0
   24.0221   55.4073   86.2456 C   0  0  2  0  0  0  0  0  0  0  0  0
   29.5685   55.0662   88.4507 C   0  0  0  0  0  0  0  0  0  0  0  0
   26.4566   55.3653   85.4936 N   0  0  0  0  0  0  0  0  0  0  0  0
   25.2974   56.1007   85.8427 C   0  0  0  0  0  0  0  0  0  0  0  0
   27.7393   55.9985   85.2659 C   0  0  0  0  0  0  0  0  0  0  0  0
   28.8194   55.4169   86.1467 C   0  0  0  0  0  0  0  0  0  0  0  0
   28.4897   55.7002   87.5910 C   0  0  0  0  0  0  0  0  0  0  0  0
   21.6986   55.8202   87.3410 C   0  0  1  0  0  0  0  0  0  0  0  0
   22.1294   54.8268   88.2709 N   0  0  0  0  0  0  0  0  0  0  0  0
   22.3767   55.0228   89.6400 C   0  0  0  0  0  0  0  0  0  0  0  0
   23.2004   54.3173   90.2969 N   0  0  0  0  0  0  0  0  0  0  0  0
   21.4744   56.3261   90.4450 S   0  0  0  0  0  0  0  0  0  0  0  0
   20.2596   56.8486   89.1668 C   0  0  0  0  0  0  0  0  0  0  0  0
   20.9278   56.9661   87.8479 C   0  0  2  0  0  0  0  0  0  0  0  0
   19.8009   57.0767   86.8055 C   0  0  0  0  0  0  0  0  0  0  0  0
   20.6928   55.1490   86.3986 C   0  0  0  0  0  0  0  0  0  0  0  0
   22.9346   55.4861   85.1547 C   0  0  0  0  0  0  0  0  0  0  0  0
   23.2387   54.2769   91.3381 H   0  0  0  0  0  0  0  0  0  0  0  0
  7  1  2  0
  2  4  1  0
 11  2  1  0
  2 20  1  6
  3 18  1  0
 19  3  1  0
  4  7  1  6
 20  4  1  0
 10  5  1  0
  7  6  1  0
  6  8  1  0
  8  9  1  0
  9 10  1  0
 11 12  1  0
 11 17  1  0
 11 19  1  6
 12 13  1  0
 13 14  2  0
 13 15  1  0
 15 16  1  0
 17 16  1  1
 17 18  1  0
 14 21  1  0
M  END
$$$$
