
     RDKit          3D

 21 23  0  0  0  0  0  0  0  0999 V2000
   25.8984   56.0891   85.0029 O   0  0  0  0  0  0  0  0  0  0  0  0
   22.9198   56.2520   86.6151 C   0  0  2  0  0  0  0  0  0  0  0  0
   19.5550   55.5104   86.3445 O   0  0  0  0  0  0  0  0  0  0  0  0
   24.0129   55.3287   86.2906 C   0  0  2  0  0  0  0  0  0  0  0  0
   30.0810   55.0205   87.4937 C   0  0  0  0  0  0  0  0  0  0  0  0
   26.1172   56.3835   87.2671 N   0  0  0  0  0  0  0  0  0  0  0  0
   25.3788   55.9464   86.1401 C   0  0  0  0  0  0  0  0  0  0  0  0
   27.4706   56.8888   87.1610 C   0  0  0  0  0  0  0  0  0  0  0  0
   28.2998   56.0806   86.1915 C   0  0  0  0  0  0  0  0  0  0  0  0
   29.7548   56.1841   86.5748 C   0  0  0  0  0  0  0  0  0  0  0  0
   21.6580   55.7380   87.3179 C   0  0  1  0  0  0  0  0  0  0  0  0
   21.9793   54.7640   88.3104 N   0  0  0  0  0  0  0  0  0  0  0  0
   21.9848   54.9662   89.7008 C   0  0  0  0  0  0  0  0  0  0  0  0
   22.7234   54.3013   90.4884 N   0  0  0  0  0  0  0  0  0  0  0  0
   20.8946   56.2169   90.3393 S   0  0  0  0  0  0  0  0  0  0  0  0
   19.8837   56.6816   88.8747 C   0  0  0  0  0  0  0  0  0  0  0  0
   20.7549   56.8398   87.6849 C   0  0  2  0  0  0  0  0  0  0  0  0
   19.8129   56.8966   86.4692 C   0  0  0  0  0  0  0  0  0  0  0  0
   20.8592   55.0199   86.2240 C   0  0  0  0  0  0  0  0  0  0  0  0
   23.0326   55.7830   85.1901 C   0  0  0  0  0  0  0  0  0  0  0  0
   22.4856   54.0958   91.4826 H   0  0  0  0  0  0  0  0  0  0  0  0
  7  1  2  0
  2  4  1  0
 11  2  1  0
  2 20  1  6
  3 18  1  0
 19  3  1  0
  4  7  1  6
 20  4  1  0
 10  5  1  0
  7  6  1  0
  6  8  1  0
  8  9  1  0
  9 10  1  0
 11 12  1  0
 11 17  1  0
 11 19  1  6
 12 13  1  0
 13 14  2  0
 13 15  1  0
 15 16  1  0
 17 16  1  1
 17 18  1  0
 14 21  1  0
M  END
$$$$
