
     RDKit          3D

 21 23  0  0  0  0  0  0  0  0999 V2000
   25.0605   57.4224   86.0861 O   0  0  0  0  0  0  0  0  0  0  0  0
   23.0606   55.5328   86.9238 C   0  0  2  0  0  0  0  0  0  0  0  0
   19.6241   55.1763   86.8300 O   0  0  0  0  0  0  0  0  0  0  0  0
   24.3354   55.7209   87.6256 C   0  0  2  0  0  0  0  0  0  0  0  0
   30.6382   54.6151   87.4462 C   0  0  0  0  0  0  0  0  0  0  0  0
   26.7665   56.2525   87.0770 N   0  0  0  0  0  0  0  0  0  0  0  0
   25.3864   56.5103   86.8895 C   0  0  0  0  0  0  0  0  0  0  0  0
   27.7776   56.7239   86.1531 C   0  0  0  0  0  0  0  0  0  0  0  0
   29.1730   56.3983   86.6302 C   0  0  0  0  0  0  0  0  0  0  0  0
   29.3239   54.9019   86.7422 C   0  0  0  0  0  0  0  0  0  0  0  0
   21.7760   55.2621   87.7155 C   0  0  1  0  0  0  0  0  0  0  0  0
   22.0200   54.3811   88.8116 N   0  0  0  0  0  0  0  0  0  0  0  0
   22.1039   54.7447   90.1662 C   0  0  0  0  0  0  0  0  0  0  0  0
   22.7901   54.0937   91.0106 N   0  0  0  0  0  0  0  0  0  0  0  0
   21.1934   56.1849   90.6735 S   0  0  0  0  0  0  0  0  0  0  0  0
   20.1869   56.5912   89.1887 C   0  0  0  0  0  0  0  0  0  0  0  0
   21.0231   56.5007   87.9671 C   0  0  2  0  0  0  0  0  0  0  0  0
   20.0470   56.5262   86.7774 C   0  0  0  0  0  0  0  0  0  0  0  0
   20.8563   54.5210   86.7381 C   0  0  0  0  0  0  0  0  0  0  0  0
   24.0198   54.3740   86.9437 C   0  0  0  0  0  0  0  0  0  0  0  0
   22.5148   53.9521   92.0062 H   0  0  0  0  0  0  0  0  0  0  0  0
  7  1  2  0
  2  4  1  0
 11  2  1  0
  2 20  1  6
  3 18  1  0
 19  3  1  0
  4  7  1  6
 20  4  1  0
 10  5  1  0
  7  6  1  0
  6  8  1  0
  8  9  1  0
  9 10  1  0
 11 12  1  0
 11 17  1  0
 11 19  1  6
 12 13  1  0
 13 14  2  0
 13 15  1  0
 15 16  1  0
 17 16  1  1
 17 18  1  0
 14 21  1  0
M  END
$$$$
