
     RDKit          3D

 21 23  0  0  0  0  0  0  0  0999 V2000
   24.9412   57.8212   85.9259 O   0  0  0  0  0  0  0  0  0  0  0  0
   22.6400   56.3240   86.5000 C   0  0  2  0  0  0  0  0  0  0  0  0
   19.2827   55.5191   86.3385 O   0  0  0  0  0  0  0  0  0  0  0  0
   23.9699   55.8413   86.8891 C   0  0  2  0  0  0  0  0  0  0  0  0
   30.3008   54.9517   85.9732 C   0  0  0  0  0  0  0  0  0  0  0  0
   26.4650   56.3534   86.8115 N   0  0  0  0  0  0  0  0  0  0  0  0
   25.1309   56.7253   86.5146 C   0  0  0  0  0  0  0  0  0  0  0  0
   27.5408   57.3197   86.8955 C   0  0  0  0  0  0  0  0  0  0  0  0
   28.7739   56.8563   86.1571 C   0  0  0  0  0  0  0  0  0  0  0  0
   29.4287   55.7410   86.9332 C   0  0  0  0  0  0  0  0  0  0  0  0
   21.3948   55.8532   87.2603 C   0  0  1  0  0  0  0  0  0  0  0  0
   21.7426   54.9683   88.3247 N   0  0  0  0  0  0  0  0  0  0  0  0
   21.7634   55.2840   89.6936 C   0  0  0  0  0  0  0  0  0  0  0  0
   22.5214   54.6958   90.5225 N   0  0  0  0  0  0  0  0  0  0  0  0
   20.6641   56.5688   90.2427 S   0  0  0  0  0  0  0  0  0  0  0  0
   19.6278   56.8984   88.7594 C   0  0  0  0  0  0  0  0  0  0  0  0
   20.4812   56.9697   87.5484 C   0  0  2  0  0  0  0  0  0  0  0  0
   19.5227   56.9142   86.3455 C   0  0  0  0  0  0  0  0  0  0  0  0
   20.5921   55.0373   86.2403 C   0  0  0  0  0  0  0  0  0  0  0  0
   23.2599   55.2423   85.6580 C   0  0  0  0  0  0  0  0  0  0  0  0
   22.2864   54.5433   91.5268 H   0  0  0  0  0  0  0  0  0  0  0  0
  7  1  2  0
  2  4  1  0
 11  2  1  0
  2 20  1  6
  3 18  1  0
 19  3  1  0
  4  7  1  6
 20  4  1  0
 10  5  1  0
  7  6  1  0
  6  8  1  0
  8  9  1  0
  9 10  1  0
 11 12  1  0
 11 17  1  0
 11 19  1  6
 12 13  1  0
 13 14  2  0
 13 15  1  0
 15 16  1  0
 17 16  1  1
 17 18  1  0
 14 21  1  0
M  END
$$$$
