
     RDKit          3D

 21 23  0  0  0  0  0  0  0  0999 V2000
   25.2781   57.8796   87.2050 O   0  0  0  0  0  0  0  0  0  0  0  0
   22.8708   56.3409   86.8450 C   0  0  2  0  0  0  0  0  0  0  0  0
   19.7381   54.9456   86.4152 O   0  0  0  0  0  0  0  0  0  0  0  0
   24.2142   55.7509   86.8475 C   0  0  2  0  0  0  0  0  0  0  0  0
   30.6357   55.2620   86.8981 C   0  0  0  0  0  0  0  0  0  0  0  0
   26.5670   56.3543   86.0767 N   0  0  0  0  0  0  0  0  0  0  0  0
   25.3626   56.7185   86.7273 C   0  0  0  0  0  0  0  0  0  0  0  0
   27.8254   56.2310   86.7834 C   0  0  0  0  0  0  0  0  0  0  0  0
   28.2348   54.7879   86.9580 C   0  0  0  0  0  0  0  0  0  0  0  0
   29.5088   54.7261   87.7630 C   0  0  0  0  0  0  0  0  0  0  0  0
   21.6983   55.5943   87.4917 C   0  0  1  0  0  0  0  0  0  0  0  0
   22.1503   54.7128   88.5192 N   0  0  0  0  0  0  0  0  0  0  0  0
   22.0396   54.9255   89.9036 C   0  0  0  0  0  0  0  0  0  0  0  0
   22.8503   54.4277   90.7417 N   0  0  0  0  0  0  0  0  0  0  0  0
   20.6909   55.9420   90.4590 S   0  0  0  0  0  0  0  0  0  0  0  0
   19.6902   56.1832   88.9347 C   0  0  0  0  0  0  0  0  0  0  0  0
   20.5772   56.4992   87.7888 C   0  0  2  0  0  0  0  0  0  0  0  0
   19.7106   56.3567   86.5249 C   0  0  0  0  0  0  0  0  0  0  0  0
   21.1180   54.7217   86.3727 C   0  0  0  0  0  0  0  0  0  0  0  0
   23.3487   55.6970   85.5720 C   0  0  0  0  0  0  0  0  0  0  0  0
   22.5759   54.0682   91.6813 H   0  0  0  0  0  0  0  0  0  0  0  0
  7  1  2  0
  2  4  1  0
 11  2  1  0
  2 20  1  6
  3 18  1  0
 19  3  1  0
  4  7  1  6
 20  4  1  0
 10  5  1  0
  7  6  1  0
  6  8  1  0
  8  9  1  0
  9 10  1  0
 11 12  1  0
 11 17  1  0
 11 19  1  6
 12 13  1  0
 13 14  2  0
 13 15  1  0
 15 16  1  0
 17 16  1  1
 17 18  1  0
 14 21  1  0
M  END
$$$$
