
     RDKit          3D

 21 23  0  0  0  0  0  0  0  0999 V2000
   25.0376   57.0876   85.5488 O   0  0  0  0  0  0  0  0  0  0  0  0
   22.5713   55.9870   86.3062 C   0  0  2  0  0  0  0  0  0  0  0  0
   19.1413   55.6091   86.4987 O   0  0  0  0  0  0  0  0  0  0  0  0
   23.8022   55.1903   86.3645 C   0  0  2  0  0  0  0  0  0  0  0  0
   30.6128   55.4319   88.0323 C   0  0  0  0  0  0  0  0  0  0  0  0
   26.3243   55.2443   86.0041 N   0  0  0  0  0  0  0  0  0  0  0  0
   25.0677   55.8959   85.9519 C   0  0  0  0  0  0  0  0  0  0  0  0
   27.5759   55.9558   85.8447 C   0  0  0  0  0  0  0  0  0  0  0  0
   28.7288   55.2190   86.4838 C   0  0  0  0  0  0  0  0  0  0  0  0
   29.3012   56.0606   87.5969 C   0  0  0  0  0  0  0  0  0  0  0  0
   21.3680   55.6137   87.1797 C   0  0  1  0  0  0  0  0  0  0  0  0
   21.7148   54.6146   88.1381 N   0  0  0  0  0  0  0  0  0  0  0  0
   21.9281   54.8201   89.5115 C   0  0  0  0  0  0  0  0  0  0  0  0
   22.6912   54.0829   90.2057 N   0  0  0  0  0  0  0  0  0  0  0  0
   21.0717   56.1829   90.2666 S   0  0  0  0  0  0  0  0  0  0  0  0
   19.9283   56.7477   88.9413 C   0  0  0  0  0  0  0  0  0  0  0  0
   20.6439   56.8073   87.6435 C   0  0  2  0  0  0  0  0  0  0  0  0
   19.5586   56.9602   86.5630 C   0  0  0  0  0  0  0  0  0  0  0  0
   20.3584   54.9813   86.2148 C   0  0  0  0  0  0  0  0  0  0  0  0
   22.8171   55.0062   85.1922 C   0  0  0  0  0  0  0  0  0  0  0  0
   22.6371   53.9948   91.2432 H   0  0  0  0  0  0  0  0  0  0  0  0
  7  1  2  0
  2  4  1  0
 11  2  1  0
  2 20  1  6
  3 18  1  0
 19  3  1  0
  4  7  1  6
 20  4  1  0
 10  5  1  0
  7  6  1  0
  6  8  1  0
  8  9  1  0
  9 10  1  0
 11 12  1  0
 11 17  1  0
 11 19  1  6
 12 13  1  0
 13 14  2  0
 13 15  1  0
 15 16  1  0
 17 16  1  1
 17 18  1  0
 14 21  1  0
M  END
$$$$
