
     RDKit          3D

 21 23  0  0  0  0  0  0  0  0999 V2000
   25.4009   57.0255   85.2742 O   0  0  0  0  0  0  0  0  0  0  0  0
   22.9247   55.9990   86.5225 C   0  0  2  0  0  0  0  0  0  0  0  0
   19.5686   55.1735   86.5308 O   0  0  0  0  0  0  0  0  0  0  0  0
   24.2940   55.7433   86.9836 C   0  0  2  0  0  0  0  0  0  0  0  0
   30.1368   55.1746   86.0737 C   0  0  0  0  0  0  0  0  0  0  0  0
   26.3093   57.2550   87.3678 N   0  0  0  0  0  0  0  0  0  0  0  0
   25.3487   56.6983   86.4882 C   0  0  0  0  0  0  0  0  0  0  0  0
   27.7342   57.0858   87.1701 C   0  0  0  0  0  0  0  0  0  0  0  0
   28.0456   56.4267   85.8475 C   0  0  0  0  0  0  0  0  0  0  0  0
   28.6234   55.0564   86.0984 C   0  0  0  0  0  0  0  0  0  0  0  0
   21.7286   55.4954   87.3386 C   0  0  1  0  0  0  0  0  0  0  0  0
   22.1430   54.5810   88.3531 N   0  0  0  0  0  0  0  0  0  0  0  0
   22.2414   54.8547   89.7277 C   0  0  0  0  0  0  0  0  0  0  0  0
   23.0497   54.2472   90.4926 N   0  0  0  0  0  0  0  0  0  0  0  0
   21.1682   56.1135   90.3792 S   0  0  0  0  0  0  0  0  0  0  0  0
   20.0456   56.4805   88.9693 C   0  0  0  0  0  0  0  0  0  0  0  0
   20.8267   56.5954   87.7137 C   0  0  2  0  0  0  0  0  0  0  0  0
   19.8003   56.5695   86.5672 C   0  0  0  0  0  0  0  0  0  0  0  0
   20.8729   54.7050   86.3420 C   0  0  0  0  0  0  0  0  0  0  0  0
   23.6880   54.8901   85.8508 C   0  0  0  0  0  0  0  0  0  0  0  0
   22.8429   53.9939   91.4827 H   0  0  0  0  0  0  0  0  0  0  0  0
  7  1  2  0
  2  4  1  0
 11  2  1  0
  2 20  1  6
  3 18  1  0
 19  3  1  0
  4  7  1  6
 20  4  1  0
 10  5  1  0
  7  6  1  0
  6  8  1  0
  8  9  1  0
  9 10  1  0
 11 12  1  0
 11 17  1  0
 11 19  1  6
 12 13  1  0
 13 14  2  0
 13 15  1  0
 15 16  1  0
 17 16  1  1
 17 18  1  0
 14 21  1  0
M  END
$$$$
