
     RDKit          3D

 21 23  0  0  0  0  0  0  0  0999 V2000
   25.3342   57.5640   86.6327 O   0  0  0  0  0  0  0  0  0  0  0  0
   22.6849   55.8413   86.6189 C   0  0  2  0  0  0  0  0  0  0  0  0
   19.2547   55.6284   86.9840 O   0  0  0  0  0  0  0  0  0  0  0  0
   24.0601   55.5656   87.0501 C   0  0  2  0  0  0  0  0  0  0  0  0
   29.8676   56.0665   87.0505 C   0  0  0  0  0  0  0  0  0  0  0  0
   25.9717   55.7545   85.3756 N   0  0  0  0  0  0  0  0  0  0  0  0
   25.1418   56.3515   86.3560 C   0  0  0  0  0  0  0  0  0  0  0  0
   27.0424   56.4766   84.7195 C   0  0  0  0  0  0  0  0  0  0  0  0
   28.4009   55.9345   85.0950 C   0  0  0  0  0  0  0  0  0  0  0  0
   28.4605   55.7325   86.5885 C   0  0  0  0  0  0  0  0  0  0  0  0
   21.5092   55.5610   87.5621 C   0  0  1  0  0  0  0  0  0  0  0  0
   21.8573   54.5893   88.5478 N   0  0  0  0  0  0  0  0  0  0  0  0
   22.1442   54.8438   89.8995 C   0  0  0  0  0  0  0  0  0  0  0  0
   22.9066   54.1032   90.5908 N   0  0  0  0  0  0  0  0  0  0  0  0
   21.3846   56.2753   90.6305 S   0  0  0  0  0  0  0  0  0  0  0  0
   20.2053   56.8340   89.3344 C   0  0  0  0  0  0  0  0  0  0  0  0
   20.8605   56.8052   88.0042 C   0  0  2  0  0  0  0  0  0  0  0  0
   19.7329   56.9607   86.9683 C   0  0  0  0  0  0  0  0  0  0  0  0
   20.4285   54.9342   86.6736 C   0  0  0  0  0  0  0  0  0  0  0  0
   23.3366   54.5878   86.1018 C   0  0  0  0  0  0  0  0  0  0  0  0
   22.7362   53.8551   91.5891 H   0  0  0  0  0  0  0  0  0  0  0  0
  7  1  2  0
  2  4  1  0
 11  2  1  0
  2 20  1  6
  3 18  1  0
 19  3  1  0
  4  7  1  6
 20  4  1  0
 10  5  1  0
  7  6  1  0
  6  8  1  0
  8  9  1  0
  9 10  1  0
 11 12  1  0
 11 17  1  0
 11 19  1  6
 12 13  1  0
 13 14  2  0
 13 15  1  0
 15 16  1  0
 17 16  1  1
 17 18  1  0
 14 21  1  0
M  END
$$$$
