
     RDKit          3D

 21 23  0  0  0  0  0  0  0  0999 V2000
   25.6069   56.8624   84.9915 O   0  0  0  0  0  0  0  0  0  0  0  0
   22.9442   56.5345   87.0176 C   0  0  2  0  0  0  0  0  0  0  0  0
   19.6905   55.5064   86.4680 O   0  0  0  0  0  0  0  0  0  0  0  0
   23.7439   55.7703   86.0536 C   0  0  2  0  0  0  0  0  0  0  0  0
   30.9089   56.1506   87.6052 C   0  0  0  0  0  0  0  0  0  0  0  0
   26.1424   55.7314   86.9137 N   0  0  0  0  0  0  0  0  0  0  0  0
   25.1970   56.1538   85.9472 C   0  0  0  0  0  0  0  0  0  0  0  0
   27.4662   55.2660   86.5543 C   0  0  0  0  0  0  0  0  0  0  0  0
   28.5413   56.2333   86.9890 C   0  0  0  0  0  0  0  0  0  0  0  0
   29.8892   55.6976   86.5757 C   0  0  0  0  0  0  0  0  0  0  0  0
   21.6710   55.9270   87.6180 C   0  0  1  0  0  0  0  0  0  0  0  0
   21.9811   55.0001   88.6580 N   0  0  0  0  0  0  0  0  0  0  0  0
   21.8445   55.2246   90.0382 C   0  0  0  0  0  0  0  0  0  0  0  0
   22.5616   54.6376   90.9036 N   0  0  0  0  0  0  0  0  0  0  0  0
   20.6013   56.3889   90.5478 S   0  0  0  0  0  0  0  0  0  0  0  0
   19.6916   56.7423   88.9888 C   0  0  0  0  0  0  0  0  0  0  0  0
   20.6505   56.9543   87.8773 C   0  0  2  0  0  0  0  0  0  0  0  0
   19.8204   56.9114   86.5820 C   0  0  0  0  0  0  0  0  0  0  0  0
   21.0364   55.1261   86.4752 C   0  0  0  0  0  0  0  0  0  0  0  0
   22.7991   56.8857   85.5619 C   0  0  0  0  0  0  0  0  0  0  0  0
   22.5213   54.8304   91.9276 H   0  0  0  0  0  0  0  0  0  0  0  0
  7  1  2  0
  2  4  1  0
 11  2  1  0
  2 20  1  6
  3 18  1  0
 19  3  1  0
  4  7  1  1
 20  4  1  0
 10  5  1  0
  7  6  1  0
  6  8  1  0
  8  9  1  0
  9 10  1  0
 11 12  1  0
 11 17  1  0
 11 19  1  6
 12 13  1  0
 13 14  2  0
 13 15  1  0
 15 16  1  0
 17 16  1  1
 17 18  1  0
 14 21  1  0
M  END
$$$$
