
     RDKit          3D

 21 23  0  0  0  0  0  0  0  0999 V2000
   25.3211   57.8311   86.2292 O   0  0  0  0  0  0  0  0  0  0  0  0
   22.8199   56.2169   86.3442 C   0  0  2  0  0  0  0  0  0  0  0  0
   19.4114   55.7398   86.6599 O   0  0  0  0  0  0  0  0  0  0  0  0
   24.1805   55.7515   86.6359 C   0  0  2  0  0  0  0  0  0  0  0  0
   29.8360   54.9989   88.1630 C   0  0  0  0  0  0  0  0  0  0  0  0
   26.3609   55.9908   85.3389 N   0  0  0  0  0  0  0  0  0  0  0  0
   25.3009   56.5833   86.0680 C   0  0  0  0  0  0  0  0  0  0  0  0
   27.7190   56.4913   85.3970 C   0  0  0  0  0  0  0  0  0  0  0  0
   28.6483   55.5214   86.0872 C   0  0  0  0  0  0  0  0  0  0  0  0
   28.8850   55.9818   87.5038 C   0  0  0  0  0  0  0  0  0  0  0  0
   21.6576   55.8315   87.2666 C   0  0  1  0  0  0  0  0  0  0  0  0
   22.0664   54.8704   88.2394 N   0  0  0  0  0  0  0  0  0  0  0  0
   22.3172   55.1205   89.5991 C   0  0  0  0  0  0  0  0  0  0  0  0
   23.1250   54.4266   90.2872 N   0  0  0  0  0  0  0  0  0  0  0  0
   21.4431   56.4769   90.3453 S   0  0  0  0  0  0  0  0  0  0  0  0
   20.2405   56.9694   89.0438 C   0  0  0  0  0  0  0  0  0  0  0  0
   20.9117   57.0148   87.7220 C   0  0  2  0  0  0  0  0  0  0  0  0
   19.7879   57.1043   86.6742 C   0  0  0  0  0  0  0  0  0  0  0  0
   20.6379   55.1418   86.3529 C   0  0  0  0  0  0  0  0  0  0  0  0
   23.3442   55.0574   85.5416 C   0  0  0  0  0  0  0  0  0  0  0  0
   22.9972   54.2087   91.2988 H   0  0  0  0  0  0  0  0  0  0  0  0
  7  1  2  0
  2  4  1  0
 11  2  1  0
  2 20  1  6
  3 18  1  0
 19  3  1  0
  4  7  1  6
 20  4  1  0
 10  5  1  0
  7  6  1  0
  6  8  1  0
  8  9  1  0
  9 10  1  0
 11 12  1  0
 11 17  1  0
 11 19  1  6
 12 13  1  0
 13 14  2  0
 13 15  1  0
 15 16  1  0
 17 16  1  1
 17 18  1  0
 14 21  1  0
M  END
$$$$
