
     RDKit          3D

 21 23  0  0  0  0  0  0  0  0999 V2000
   23.9279   58.0453   84.6539 O   0  0  0  0  0  0  0  0  0  0  0  0
   22.0990   56.9758   86.6432 C   0  0  2  0  0  0  0  0  0  0  0  0
   19.0067   55.9575   87.8035 O   0  0  0  0  0  0  0  0  0  0  0  0
   22.8562   56.1563   85.6904 C   0  0  2  0  0  0  0  0  0  0  0  0
   28.5559   56.1559   87.8313 C   0  0  0  0  0  0  0  0  0  0  0  0
   25.2127   56.1465   84.7206 N   0  0  0  0  0  0  0  0  0  0  0  0
   24.0087   56.8382   85.0001 C   0  0  0  0  0  0  0  0  0  0  0  0
   25.7127   55.0830   85.5676 C   0  0  0  0  0  0  0  0  0  0  0  0
   27.1320   55.3390   86.0154 C   0  0  0  0  0  0  0  0  0  0  0  0
   27.1189   55.8924   87.4184 C   0  0  0  0  0  0  0  0  0  0  0  0
   21.3081   56.3107   87.7757 C   0  0  1  0  0  0  0  0  0  0  0  0
   22.0866   55.3106   88.4320 N   0  0  0  0  0  0  0  0  0  0  0  0
   22.6970   55.4278   89.6921 C   0  0  0  0  0  0  0  0  0  0  0  0
   23.7418   54.7844   90.0114 N   0  0  0  0  0  0  0  0  0  0  0  0
   21.9385   56.5364   90.8567 S   0  0  0  0  0  0  0  0  0  0  0  0
   20.3605   56.9977   90.0322 C   0  0  0  0  0  0  0  0  0  0  0  0
   20.6047   57.3041   88.6017 C   0  0  2  0  0  0  0  0  0  0  0  0
   19.2199   57.3510   87.9316 C   0  0  0  0  0  0  0  0  0  0  0  0
   20.1464   55.5924   87.0796 C   0  0  0  0  0  0  0  0  0  0  0  0
   21.4900   56.7473   85.2866 C   0  0  0  0  0  0  0  0  0  0  0  0
   24.3044   54.9677   90.8700 H   0  0  0  0  0  0  0  0  0  0  0  0
  7  1  2  0
  2  4  1  0
 11  2  1  0
  2 20  1  6
  3 18  1  0
 19  3  1  0
  4  7  1  6
 20  4  1  0
 10  5  1  0
  7  6  1  0
  6  8  1  0
  8  9  1  0
  9 10  1  0
 11 12  1  0
 11 17  1  0
 11 19  1  6
 12 13  1  0
 13 14  2  0
 13 15  1  0
 15 16  1  0
 17 16  1  1
 17 18  1  0
 14 21  1  0
M  END
$$$$
