
     RDKit          3D

 21 23  0  0  0  0  0  0  0  0999 V2000
   25.6545   56.5510   84.9784 O   0  0  0  0  0  0  0  0  0  0  0  0
   22.9684   56.2217   86.6631 C   0  0  2  0  0  0  0  0  0  0  0  0
   19.5976   55.4621   86.5845 O   0  0  0  0  0  0  0  0  0  0  0  0
   24.0512   55.3106   86.2754 C   0  0  2  0  0  0  0  0  0  0  0  0
   29.7089   58.2239   86.9599 C   0  0  0  0  0  0  0  0  0  0  0  0
   26.4185   55.8734   87.0322 N   0  0  0  0  0  0  0  0  0  0  0  0
   25.4000   55.9429   86.0503 C   0  0  0  0  0  0  0  0  0  0  0  0
   27.7182   55.2928   86.7639 C   0  0  0  0  0  0  0  0  0  0  0  0
   28.6181   56.2466   86.0150 C   0  0  0  0  0  0  0  0  0  0  0  0
   29.7264   56.7061   86.9290 C   0  0  0  0  0  0  0  0  0  0  0  0
   21.7533   55.6930   87.4341 C   0  0  1  0  0  0  0  0  0  0  0  0
   22.1383   54.7112   88.3958 N   0  0  0  0  0  0  0  0  0  0  0  0
   22.2251   54.8996   89.7854 C   0  0  0  0  0  0  0  0  0  0  0  0
   23.0127   54.2316   90.5210 N   0  0  0  0  0  0  0  0  0  0  0  0
   21.1677   56.1373   90.5001 S   0  0  0  0  0  0  0  0  0  0  0  0
   20.0692   56.6102   89.1028 C   0  0  0  0  0  0  0  0  0  0  0  0
   20.8675   56.7856   87.8652 C   0  0  2  0  0  0  0  0  0  0  0  0
   19.8548   56.8486   86.7080 C   0  0  0  0  0  0  0  0  0  0  0  0
   20.8952   54.9809   86.3821 C   0  0  0  0  0  0  0  0  0  0  0  0
   23.0060   55.7570   85.2327 C   0  0  0  0  0  0  0  0  0  0  0  0
   22.7065   53.4894   91.1863 H   0  0  0  0  0  0  0  0  0  0  0  0
  7  1  2  0
  2  4  1  0
 11  2  1  0
  2 20  1  6
  3 18  1  0
 19  3  1  0
  4  7  1  6
 20  4  1  0
 10  5  1  0
  7  6  1  0
  6  8  1  0
  8  9  1  0
  9 10  1  0
 11 12  1  0
 11 17  1  0
 11 19  1  6
 12 13  1  0
 13 14  2  0
 13 15  1  0
 15 16  1  0
 17 16  1  1
 17 18  1  0
 14 21  1  0
M  END
$$$$
