
     RDKit          3D

 21 23  0  0  0  0  0  0  0  0999 V2000
   24.3709   58.3606   86.3686 O   0  0  0  0  0  0  0  0  0  0  0  0
   22.5211   56.2306   87.0400 C   0  0  2  0  0  0  0  0  0  0  0  0
   19.1102   55.6747   87.0879 O   0  0  0  0  0  0  0  0  0  0  0  0
   23.8221   56.4256   87.6898 C   0  0  2  0  0  0  0  0  0  0  0  0
   26.7851   55.5376   82.7561 C   0  0  0  0  0  0  0  0  0  0  0  0
   26.1788   57.0902   86.9840 N   0  0  0  0  0  0  0  0  0  0  0  0
   24.7850   57.3428   86.9819 C   0  0  0  0  0  0  0  0  0  0  0  0
   27.0579   57.5746   85.9396 C   0  0  0  0  0  0  0  0  0  0  0  0
   26.5763   57.1727   84.5659 C   0  0  0  0  0  0  0  0  0  0  0  0
   27.2654   55.8969   84.1508 C   0  0  0  0  0  0  0  0  0  0  0  0
   21.3005   55.8096   87.8666 C   0  0  1  0  0  0  0  0  0  0  0  0
   21.6552   54.8475   88.8594 N   0  0  0  0  0  0  0  0  0  0  0  0
   21.7950   55.0885   90.2365 C   0  0  0  0  0  0  0  0  0  0  0  0
   22.5633   54.4054   90.9785 N   0  0  0  0  0  0  0  0  0  0  0  0
   20.8353   56.4171   90.9253 S   0  0  0  0  0  0  0  0  0  0  0  0
   19.7252   56.8968   89.5394 C   0  0  0  0  0  0  0  0  0  0  0  0
   20.4948   56.9711   88.2738 C   0  0  2  0  0  0  0  0  0  0  0  0
   19.4531   57.0470   87.1433 C   0  0  0  0  0  0  0  0  0  0  0  0
   20.3701   55.1074   86.8709 C   0  0  0  0  0  0  0  0  0  0  0  0
   23.5409   55.1340   86.8952 C   0  0  0  0  0  0  0  0  0  0  0  0
   22.6234   54.5089   92.0143 H   0  0  0  0  0  0  0  0  0  0  0  0
  7  1  2  0
  2  4  1  0
 11  2  1  0
  2 20  1  6
  3 18  1  0
 19  3  1  0
  4  7  1  6
 20  4  1  0
 10  5  1  0
  7  6  1  0
  6  8  1  0
  8  9  1  0
  9 10  1  0
 11 12  1  0
 11 17  1  0
 11 19  1  6
 12 13  1  0
 13 14  2  0
 13 15  1  0
 15 16  1  0
 17 16  1  1
 17 18  1  0
 14 21  1  0
M  END
$$$$
