
     RDKit          3D

 31 34  0  0  0  0  0  0  0  0999 V2000
   88.1602  162.8436  175.6196 O   0  0  0  0  0  0  0  0  0  0  0  0
   87.2564  163.0531  176.6672 C   0  0  1  0  0  0  0  0  0  0  0  0
   85.8859  163.2561  176.0530 C   0  0  0  0  0  0  0  0  0  0  0  0
   85.2317  161.9678  176.2744 N   0  0  2  0  0  4  0  0  0  0  0  0
   83.8130  162.0497  176.1777 C   0  0  0  0  0  0  0  0  0  0  0  0
   83.4147  162.3157  174.7495 C   0  0  0  0  0  0  0  0  0  0  0  0
   83.4909  161.4050  173.7066 C   0  0  0  0  0  0  0  0  0  0  0  0
   83.9012  160.1216  173.6454 N   0  0  0  0  0  0  0  0  0  0  0  0
   83.8649  159.4631  172.4697 C   0  0  0  0  0  0  0  0  0  0  0  0
   83.4222  160.0810  171.3637 N   0  0  0  0  0  0  0  0  0  0  0  0
   83.0044  161.3548  171.3752 C   0  0  0  0  0  0  0  0  0  0  0  0
   82.5361  162.0076  170.2029 N   0  0  0  0  0  0  0  0  0  0  0  0
   83.0408  162.0303  172.5773 C   0  0  0  0  0  0  0  0  0  0  0  0
   82.7017  163.2789  172.9190 N   0  0  0  0  0  0  0  0  0  0  0  0
   82.9184  163.4734  174.2221 C   0  0  0  0  0  0  0  0  0  0  0  0
   85.6812  161.7122  177.6789 C   0  0  0  0  0  0  0  0  0  0  0  0
   87.1591  161.7088  177.3976 C   0  0  2  0  0  0  0  0  0  0  0  0
   88.0826  161.5607  178.5382 C   0  0  0  0  0  0  0  0  0  0  0  0
   88.1443  160.0464  179.4171 S   0  0  0  0  0  0  0  0  0  0  0  0
   89.2933  158.8480  178.8142 C   0  0  0  0  0  0  0  0  0  0  0  0
   90.5212  159.4154  178.2008 C   0  0  0  0  0  0  0  0  0  0  0  0
   91.8390  158.9225  178.6557 C   0  0  0  0  0  0  0  0  0  0  0  0
   91.8746  157.4390  178.3009 C   0  0  0  0  0  0  0  0  0  0  0  0
   92.0151  156.8959  177.0816 N   0  0  0  0  0  0  0  0  0  0  0  0
   92.0007  155.5626  177.2107 N   0  0  0  0  0  0  0  0  0  0  0  0
   91.8567  155.2296  178.4658 N   0  0  0  0  0  0  0  0  0  0  0  0
   91.7759  156.3728  179.1637 C   0  0  0  0  0  0  0  0  0  0  0  0
   91.7879  153.9024  179.0829 C   0  0  0  0  0  0  0  0  0  0  0  0
   90.3742  153.3651  179.0181 C   0  0  0  0  0  0  0  0  0  0  0  0
   88.0921  153.4676  180.0906 C   0  0  0  0  0  0  0  0  0  0  0  0
   89.5668  153.6627  180.2464 C   0  0  0  0  0  0  0  0  0  0  0  0
  2  1  1  6
  2  3  1  0
  2 17  1  0
  3  4  1  0
  4  5  1  1
  4 16  1  0
  5  6  1  0
  6  7  1  0
  6 15  2  0
  7  8  2  0
  7 13  1  0
  8  9  1  0
  9 10  2  0
 10 11  1  0
 11 12  1  0
 11 13  2  0
 13 14  1  0
 14 15  1  0
 16 17  1  0
 17 18  1  1
 18 19  1  0
 19 20  1  0
 20 21  1  0
 21 22  1  0
 22 23  1  0
 23 24  1  0
 23 27  2  0
 24 25  2  0
 25 26  1  0
 26 27  1  0
 26 28  1  0
 28 29  1  0
 29 31  1  0
 31 30  1  0
M  CHG  1   4   1
M  END
$$$$
