
     RDKit          3D

 31 34  0  0  0  0  0  0  0  0999 V2000
   88.3049  163.9920  176.9548 O   0  0  0  0  0  0  0  0  0  0  0  0
   87.6080  162.8991  177.4821 C   0  0  1  0  0  0  0  0  0  0  0  0
   86.1307  163.1463  177.2513 C   0  0  0  0  0  0  0  0  0  0  0  0
   85.8267  162.2837  176.1111 N   0  0  2  0  0  4  0  0  0  0  0  0
   84.4338  162.0141  175.9837 C   0  0  0  0  0  0  0  0  0  0  0  0
   84.0980  161.7422  174.5406 C   0  0  0  0  0  0  0  0  0  0  0  0
   83.1539  162.4247  173.7885 C   0  0  0  0  0  0  0  0  0  0  0  0
   82.3224  163.4463  174.0788 N   0  0  0  0  0  0  0  0  0  0  0  0
   81.4909  163.9220  173.1304 C   0  0  0  0  0  0  0  0  0  0  0  0
   81.4894  163.3821  171.9017 N   0  0  0  0  0  0  0  0  0  0  0  0
   82.2972  162.3660  171.5665 C   0  0  0  0  0  0  0  0  0  0  0  0
   82.2942  161.7953  170.2650 N   0  0  0  0  0  0  0  0  0  0  0  0
   83.1488  161.8778  172.5355 C   0  0  0  0  0  0  0  0  0  0  0  0
   84.0581  160.8961  172.5234 N   0  0  0  0  0  0  0  0  0  0  0  0
   84.6422  160.7961  173.7200 C   0  0  0  0  0  0  0  0  0  0  0  0
   86.5948  161.0670  176.5231 C   0  0  0  0  0  0  0  0  0  0  0  0
   87.9510  161.7168  176.5687 C   0  0  2  0  0  0  0  0  0  0  0  0
   89.0957  160.9033  177.0199 C   0  0  0  0  0  0  0  0  0  0  0  0
   89.3410  159.3013  176.3544 S   0  0  0  0  0  0  0  0  0  0  0  0
   89.0784  157.9534  177.4653 C   0  0  0  0  0  0  0  0  0  0  0  0
   90.2601  157.5817  178.2846 C   0  0  0  0  0  0  0  0  0  0  0  0
   90.0986  156.5712  179.3520 C   0  0  0  0  0  0  0  0  0  0  0  0
   89.0721  157.1493  180.3217 C   0  0  0  0  0  0  0  0  0  0  0  0
   87.7377  157.0149  180.2713 N   0  0  0  0  0  0  0  0  0  0  0  0
   87.2091  157.6715  181.3125 N   0  0  0  0  0  0  0  0  0  0  0  0
   88.1531  158.2216  182.0288 N   0  0  0  0  0  0  0  0  0  0  0  0
   89.3178  157.9142  181.4377 C   0  0  0  0  0  0  0  0  0  0  0  0
   88.0569  159.0281  183.2485 C   0  0  0  0  0  0  0  0  0  0  0  0
   87.4112  158.2270  184.3588 C   0  0  0  0  0  0  0  0  0  0  0  0
   87.6724  156.3004  185.9677 C   0  0  0  0  0  0  0  0  0  0  0  0
   88.3086  157.1702  184.9304 C   0  0  0  0  0  0  0  0  0  0  0  0
  2  1  1  6
  2  3  1  0
  2 17  1  0
  3  4  1  0
  4  5  1  1
  4 16  1  0
  5  6  1  0
  6  7  1  0
  6 15  2  0
  7  8  2  0
  7 13  1  0
  8  9  1  0
  9 10  2  0
 10 11  1  0
 11 12  1  0
 11 13  2  0
 13 14  1  0
 14 15  1  0
 16 17  1  0
 17 18  1  1
 18 19  1  0
 19 20  1  0
 20 21  1  0
 21 22  1  0
 22 23  1  0
 23 24  1  0
 23 27  2  0
 24 25  2  0
 25 26  1  0
 26 27  1  0
 26 28  1  0
 28 29  1  0
 29 31  1  0
 31 30  1  0
M  CHG  1   4   1
M  END
$$$$
