
     RDKit          3D

 31 34  0  0  0  0  0  0  0  0999 V2000
   87.8227  162.0056  178.5010 O   0  0  0  0  0  0  0  0  0  0  0  0
   86.4966  161.7338  178.1464 C   0  0  1  0  0  0  0  0  0  0  0  0
   85.9128  163.0027  177.5585 C   0  0  0  0  0  0  0  0  0  0  0  0
   85.9340  162.7397  176.1208 N   0  0  2  0  0  4  0  0  0  0  0  0
   85.0504  163.5892  175.3951 C   0  0  0  0  0  0  0  0  0  0  0  0
   84.5330  162.8657  174.1793 C   0  0  0  0  0  0  0  0  0  0  0  0
   83.3988  162.0693  174.1350 C   0  0  0  0  0  0  0  0  0  0  0  0
   82.4891  161.7259  175.0698 N   0  0  0  0  0  0  0  0  0  0  0  0
   81.4625  160.9173  174.7388 C   0  0  0  0  0  0  0  0  0  0  0  0
   81.3449  160.4552  173.4844 N   0  0  0  0  0  0  0  0  0  0  0  0
   82.2237  160.7689  172.5217 C   0  0  0  0  0  0  0  0  0  0  0  0
   82.0977  160.2785  171.1938 N   0  0  0  0  0  0  0  0  0  0  0  0
   83.2749  161.5961  172.8584 C   0  0  0  0  0  0  0  0  0  0  0  0
   84.2976  162.0867  172.1484 N   0  0  0  0  0  0  0  0  0  0  0  0
   85.0684  162.8539  172.9231 C   0  0  0  0  0  0  0  0  0  0  0  0
   85.4589  161.3205  176.1326 C   0  0  0  0  0  0  0  0  0  0  0  0
   86.5812  160.7615  176.9642 C   0  0  2  0  0  0  0  0  0  0  0  0
   86.5258  159.3352  177.3362 C   0  0  0  0  0  0  0  0  0  0  0  0
   86.6596  158.8690  179.0197 S   0  0  0  0  0  0  0  0  0  0  0  0
   87.3450  157.2705  179.3278 C   0  0  0  0  0  0  0  0  0  0  0  0
   88.4944  156.9075  178.4601 C   0  0  0  0  0  0  0  0  0  0  0  0
   89.4128  155.8368  178.9036 C   0  0  0  0  0  0  0  0  0  0  0  0
   88.5224  154.7162  179.4323 C   0  0  0  0  0  0  0  0  0  0  0  0
   87.3420  154.3114  178.9381 N   0  0  0  0  0  0  0  0  0  0  0  0
   86.8955  153.2981  179.6920 N   0  0  0  0  0  0  0  0  0  0  0  0
   87.7440  153.0372  180.6505 N   0  0  0  0  0  0  0  0  0  0  0  0
   88.7617  153.9009  180.5135 C   0  0  0  0  0  0  0  0  0  0  0  0
   87.6838  152.0243  181.7076 C   0  0  0  0  0  0  0  0  0  0  0  0
   87.9401  150.6479  181.1320 C   0  0  0  0  0  0  0  0  0  0  0  0
   89.1982  149.0580  182.6348 C   0  0  0  0  0  0  0  0  0  0  0  0
   87.8710  149.5524  182.1539 C   0  0  0  0  0  0  0  0  0  0  0  0
  2  1  1  6
  2  3  1  0
  2 17  1  0
  3  4  1  0
  4  5  1  6
  4 16  1  0
  5  6  1  0
  6  7  1  0
  6 15  2  0
  7  8  2  0
  7 13  1  0
  8  9  1  0
  9 10  2  0
 10 11  1  0
 11 12  1  0
 11 13  2  0
 13 14  1  0
 14 15  1  0
 16 17  1  0
 17 18  1  1
 18 19  1  0
 19 20  1  0
 20 21  1  0
 21 22  1  0
 22 23  1  0
 23 24  1  0
 23 27  2  0
 24 25  2  0
 25 26  1  0
 26 27  1  0
 26 28  1  0
 28 29  1  0
 29 31  1  0
 31 30  1  0
M  CHG  1   4   1
M  END
$$$$
