
     RDKit          3D

 31 34  0  0  0  0  0  0  0  0999 V2000
   57.1252  176.4364  183.6247 O   0  0  0  0  0  0  0  0  0  0  0  0
   56.0092  175.6292  183.3775 C   0  0  1  0  0  0  0  0  0  0  0  0
   55.7565  175.6461  181.8833 C   0  0  0  0  0  0  0  0  0  0  0  0
   56.2898  174.3578  181.4445 N   0  0  2  0  0  4  0  0  0  0  0  0
   55.7855  173.9602  180.1731 C   0  0  0  0  0  0  0  0  0  0  0  0
   55.8586  175.1179  179.2119 C   0  0  0  0  0  0  0  0  0  0  0  0
   57.0191  175.7596  178.8070 C   0  0  0  0  0  0  0  0  0  0  0  0
   58.3193  175.5697  179.1114 N   0  0  0  0  0  0  0  0  0  0  0  0
   59.2588  176.3611  178.5560 C   0  0  0  0  0  0  0  0  0  0  0  0
   58.9030  177.3344  177.7033 N   0  0  0  0  0  0  0  0  0  0  0  0
   57.6242  177.5612  177.3707 C   0  0  0  0  0  0  0  0  0  0  0  0
   57.2492  178.5925  176.4677 N   0  0  0  0  0  0  0  0  0  0  0  0
   56.6614  176.7525  177.9379 C   0  0  0  0  0  0  0  0  0  0  0  0
   55.3292  176.7177  177.8166 N   0  0  0  0  0  0  0  0  0  0  0  0
   54.8242  175.7415  178.5747 C   0  0  0  0  0  0  0  0  0  0  0  0
   55.7629  173.4951  182.5481 C   0  0  0  0  0  0  0  0  0  0  0  0
   56.4665  174.1972  183.6775 C   0  0  2  0  0  0  0  0  0  0  0  0
   56.1962  173.7413  185.0541 C   0  0  0  0  0  0  0  0  0  0  0  0
   57.2172  174.2887  186.3684 S   0  0  0  0  0  0  0  0  0  0  0  0
   56.5220  175.5198  187.4271 C   0  0  0  0  0  0  0  0  0  0  0  0
   57.4334  176.0140  188.4906 C   0  0  0  0  0  0  0  0  0  0  0  0
   56.9293  177.0179  189.4522 C   0  0  0  0  0  0  0  0  0  0  0  0
   55.6477  176.4301  190.0354 C   0  0  0  0  0  0  0  0  0  0  0  0
   55.4175  175.1515  190.3726 N   0  0  0  0  0  0  0  0  0  0  0  0
   54.1696  175.0609  190.8514 N   0  0  0  0  0  0  0  0  0  0  0  0
   53.5909  176.2321  190.8345 N   0  0  0  0  0  0  0  0  0  0  0  0
   54.4840  177.0991  190.3336 C   0  0  0  0  0  0  0  0  0  0  0  0
   52.2425  176.6190  191.2582 C   0  0  0  0  0  0  0  0  0  0  0  0
   51.9911  178.0781  190.9435 C   0  0  0  0  0  0  0  0  0  0  0  0
   50.6842  180.1518  191.5442 C   0  0  0  0  0  0  0  0  0  0  0  0
   50.9636  178.7113  191.8337 C   0  0  0  0  0  0  0  0  0  0  0  0
  2  1  1  6
  2  3  1  0
  2 17  1  0
  3  4  1  0
  4  5  1  6
  4 16  1  0
  5  6  1  0
  6  7  1  0
  6 15  2  0
  7  8  2  0
  7 13  1  0
  8  9  1  0
  9 10  2  0
 10 11  1  0
 11 12  1  0
 11 13  2  0
 13 14  1  0
 14 15  1  0
 16 17  1  0
 17 18  1  1
 18 19  1  0
 19 20  1  0
 20 21  1  0
 21 22  1  0
 22 23  1  0
 23 24  1  0
 23 27  2  0
 24 25  2  0
 25 26  1  0
 26 27  1  0
 26 28  1  0
 28 29  1  0
 29 31  1  0
 31 30  1  0
M  CHG  1   4   1
M  END
$$$$
