
     RDKit          3D

 31 34  0  0  0  0  0  0  0  0999 V2000
   87.5867  162.2576  178.6024 O   0  0  0  0  0  0  0  0  0  0  0  0
   86.7998  161.6637  177.6093 C   0  0  1  0  0  0  0  0  0  0  0  0
   85.8475  162.7217  177.0892 C   0  0  0  0  0  0  0  0  0  0  0  0
   86.4532  163.1135  175.8178 N   0  0  2  0  0  4  0  0  0  0  0  0
   85.5320  163.7675  174.9503 C   0  0  0  0  0  0  0  0  0  0  0  0
   84.9375  162.7681  173.9927 C   0  0  0  0  0  0  0  0  0  0  0  0
   83.6156  162.3498  173.9791 C   0  0  0  0  0  0  0  0  0  0  0  0
   82.5494  162.6731  174.7394 N   0  0  0  0  0  0  0  0  0  0  0  0
   81.3549  162.0977  174.4956 C   0  0  0  0  0  0  0  0  0  0  0  0
   81.2258  161.2064  173.5006 N   0  0  0  0  0  0  0  0  0  0  0  0
   82.2562  160.8536  172.7188 C   0  0  0  0  0  0  0  0  0  0  0  0
   82.1177  159.9095  171.6657 N   0  0  0  0  0  0  0  0  0  0  0  0
   83.4792  161.4413  172.9666 C   0  0  0  0  0  0  0  0  0  0  0  0
   84.6761  161.3099  172.3826 N   0  0  0  0  0  0  0  0  0  0  0  0
   85.5697  162.0992  172.9838 C   0  0  0  0  0  0  0  0  0  0  0  0
   86.8329  161.7583  175.3087 C   0  0  0  0  0  0  0  0  0  0  0  0
   87.7538  161.3918  176.4406 C   0  0  2  0  0  0  0  0  0  0  0  0
   88.3548  160.0448  176.4383 C   0  0  0  0  0  0  0  0  0  0  0  0
   88.8355  159.3036  177.9513 S   0  0  0  0  0  0  0  0  0  0  0  0
   87.5439  158.5413  178.8842 C   0  0  0  0  0  0  0  0  0  0  0  0
   87.1362  157.1972  178.4014 C   0  0  0  0  0  0  0  0  0  0  0  0
   86.1540  156.4234  179.1907 C   0  0  0  0  0  0  0  0  0  0  0  0
   86.9592  155.7039  180.2686 C   0  0  0  0  0  0  0  0  0  0  0  0
   87.1041  156.0632  181.5536 N   0  0  0  0  0  0  0  0  0  0  0  0
   87.8844  155.1577  182.1583 N   0  0  0  0  0  0  0  0  0  0  0  0
   88.2452  154.2312  181.3107 N   0  0  0  0  0  0  0  0  0  0  0  0
   87.6861  154.5447  180.1320 C   0  0  0  0  0  0  0  0  0  0  0  0
   89.0868  153.0490  181.5142 C   0  0  0  0  0  0  0  0  0  0  0  0
   88.2270  151.8162  181.6938 C   0  0  0  0  0  0  0  0  0  0  0  0
   89.2416  149.5171  181.9252 C   0  0  0  0  0  0  0  0  0  0  0  0
   88.8389  150.7897  182.5999 C   0  0  0  0  0  0  0  0  0  0  0  0
  2  1  1  1
  2  3  1  0
  2 17  1  0
  3  4  1  0
  4  5  1  6
  4 16  1  0
  5  6  1  0
  6  7  1  0
  6 15  2  0
  7  8  2  0
  7 13  1  0
  8  9  1  0
  9 10  2  0
 10 11  1  0
 11 12  1  0
 11 13  2  0
 13 14  1  0
 14 15  1  0
 16 17  1  0
 17 18  1  6
 18 19  1  0
 19 20  1  0
 20 21  1  0
 21 22  1  0
 22 23  1  0
 23 24  1  0
 23 27  2  0
 24 25  2  0
 25 26  1  0
 26 27  1  0
 26 28  1  0
 28 29  1  0
 29 31  1  0
 31 30  1  0
M  CHG  1   4   1
M  END
$$$$
