
     RDKit          3D

 31 34  0  0  0  0  0  0  0  0999 V2000
   86.4267  161.7921  178.8433 O   0  0  0  0  0  0  0  0  0  0  0  0
   85.7421  161.3546  177.7040 C   0  0  1  0  0  0  0  0  0  0  0  0
   85.4246  162.5767  176.8659 C   0  0  0  0  0  0  0  0  0  0  0  0
   86.4255  162.5157  175.8023 N   0  0  2  0  0  4  0  0  0  0  0  0
   86.0666  163.2968  174.6665 C   0  0  0  0  0  0  0  0  0  0  0  0
   85.1746  162.4926  173.7571 C   0  0  0  0  0  0  0  0  0  0  0  0
   83.7886  162.5317  173.7438 C   0  0  0  0  0  0  0  0  0  0  0  0
   82.8896  163.2322  174.4651 N   0  0  0  0  0  0  0  0  0  0  0  0
   81.5719  163.0675  174.2334 C   0  0  0  0  0  0  0  0  0  0  0  0
   81.1548  162.2102  173.2889 N   0  0  0  0  0  0  0  0  0  0  0  0
   82.0103  161.4923  172.5471 C   0  0  0  0  0  0  0  0  0  0  0  0
   81.5669  160.5847  171.5474 N   0  0  0  0  0  0  0  0  0  0  0  0
   83.3591  161.6594  172.7827 C   0  0  0  0  0  0  0  0  0  0  0  0
   84.4450  161.1075  172.2287 N   0  0  0  0  0  0  0  0  0  0  0  0
   85.5496  161.5940  172.7996 C   0  0  0  0  0  0  0  0  0  0  0  0
   86.3714  161.0488  175.5100 C   0  0  0  0  0  0  0  0  0  0  0  0
   86.7749  160.5769  176.8804 C   0  0  2  0  0  0  0  0  0  0  0  0
   86.7970  159.1243  177.1358 C   0  0  0  0  0  0  0  0  0  0  0  0
   86.5540  158.5229  178.7633 S   0  0  0  0  0  0  0  0  0  0  0  0
   87.8795  158.8015  179.8971 C   0  0  0  0  0  0  0  0  0  0  0  0
   88.9256  157.7473  179.9039 C   0  0  0  0  0  0  0  0  0  0  0  0
   89.8021  157.6046  178.7215 C   0  0  0  0  0  0  0  0  0  0  0  0
   90.7644  156.4671  179.0507 C   0  0  0  0  0  0  0  0  0  0  0  0
   92.1038  156.5257  179.1149 N   0  0  0  0  0  0  0  0  0  0  0  0
   92.5630  155.3099  179.4396 N   0  0  0  0  0  0  0  0  0  0  0  0
   91.5698  154.4739  179.5864 N   0  0  0  0  0  0  0  0  0  0  0  0
   90.4435  155.1642  179.3513 C   0  0  0  0  0  0  0  0  0  0  0  0
   91.5843  153.0513  179.9375 C   0  0  0  0  0  0  0  0  0  0  0  0
   92.6723  152.3315  179.1697 C   0  0  0  0  0  0  0  0  0  0  0  0
   92.8698  150.4081  180.7915 C   0  0  0  0  0  0  0  0  0  0  0  0
   92.6645  150.8461  179.3763 C   0  0  0  0  0  0  0  0  0  0  0  0
  2  1  1  1
  2  3  1  0
  2 17  1  0
  3  4  1  0
  4  5  1  6
  4 16  1  0
  5  6  1  0
  6  7  1  0
  6 15  2  0
  7  8  2  0
  7 13  1  0
  8  9  1  0
  9 10  2  0
 10 11  1  0
 11 12  1  0
 11 13  2  0
 13 14  1  0
 14 15  1  0
 16 17  1  0
 17 18  1  6
 18 19  1  0
 19 20  1  0
 20 21  1  0
 21 22  1  0
 22 23  1  0
 23 24  1  0
 23 27  2  0
 24 25  2  0
 25 26  1  0
 26 27  1  0
 26 28  1  0
 28 29  1  0
 29 31  1  0
 31 30  1  0
M  CHG  1   4   1
M  END
$$$$
