
     RDKit          3D

 31 34  0  0  0  0  0  0  0  0999 V2000
   87.8880  163.9328  177.3488 O   0  0  0  0  0  0  0  0  0  0  0  0
   87.3358  162.6619  177.5438 C   0  0  1  0  0  0  0  0  0  0  0  0
   85.8312  162.7950  177.4209 C   0  0  0  0  0  0  0  0  0  0  0  0
   85.5625  162.2712  176.0829 N   0  0  2  0  0  4  0  0  0  0  0  0
   84.2006  161.8930  175.9058 C   0  0  0  0  0  0  0  0  0  0  0  0
   83.9407  161.5933  174.4525 C   0  0  0  0  0  0  0  0  0  0  0  0
   83.0426  162.2653  173.6372 C   0  0  0  0  0  0  0  0  0  0  0  0
   82.2035  163.2971  173.8618 N   0  0  0  0  0  0  0  0  0  0  0  0
   81.4270  163.7578  172.8607 C   0  0  0  0  0  0  0  0  0  0  0  0
   81.4877  163.1927  171.6449 N   0  0  0  0  0  0  0  0  0  0  0  0
   82.3057  162.1656  171.3741 C   0  0  0  0  0  0  0  0  0  0  0  0
   82.3685  161.5683  170.0861 N   0  0  0  0  0  0  0  0  0  0  0  0
   83.1010  161.6928  172.3971 C   0  0  0  0  0  0  0  0  0  0  0  0
   84.0033  160.7062  172.4536 N   0  0  0  0  0  0  0  0  0  0  0  0
   84.5219  160.6277  173.6815 C   0  0  0  0  0  0  0  0  0  0  0  0
   86.4726  161.0833  176.1064 C   0  0  0  0  0  0  0  0  0  0  0  0
   87.7543  161.8423  176.3178 C   0  0  2  0  0  0  0  0  0  0  0  0
   88.9985  161.0692  176.4908 C   0  0  0  0  0  0  0  0  0  0  0  0
   89.0791  159.8105  177.7068 S   0  0  0  0  0  0  0  0  0  0  0  0
   88.4565  158.2290  177.2260 C   0  0  0  0  0  0  0  0  0  0  0  0
   88.7030  157.1387  178.2039 C   0  0  0  0  0  0  0  0  0  0  0  0
   87.6924  156.8781  179.2514 C   0  0  0  0  0  0  0  0  0  0  0  0
   88.3402  155.8932  180.2201 C   0  0  0  0  0  0  0  0  0  0  0  0
   88.1153  154.5732  180.3118 N   0  0  0  0  0  0  0  0  0  0  0  0
   88.8916  154.0808  181.2862 N   0  0  0  0  0  0  0  0  0  0  0  0
   89.6059  155.0341  181.8228 N   0  0  0  0  0  0  0  0  0  0  0  0
   89.2843  156.1679  181.1814 C   0  0  0  0  0  0  0  0  0  0  0  0
   90.5878  154.9736  182.9089 C   0  0  0  0  0  0  0  0  0  0  0  0
   90.8876  153.5336  183.2668 C   0  0  0  0  0  0  0  0  0  0  0  0
   93.0589  154.3371  184.2711 C   0  0  0  0  0  0  0  0  0  0  0  0
   91.9043  153.3907  184.3600 C   0  0  0  0  0  0  0  0  0  0  0  0
  2  1  1  6
  2  3  1  0
  2 17  1  0
  3  4  1  0
  4  5  1  1
  4 16  1  0
  5  6  1  0
  6  7  1  0
  6 15  2  0
  7  8  2  0
  7 13  1  0
  8  9  1  0
  9 10  2  0
 10 11  1  0
 11 12  1  0
 11 13  2  0
 13 14  1  0
 14 15  1  0
 16 17  1  0
 17 18  1  1
 18 19  1  0
 19 20  1  0
 20 21  1  0
 21 22  1  0
 22 23  1  0
 23 24  1  0
 23 27  2  0
 24 25  2  0
 25 26  1  0
 26 27  1  0
 26 28  1  0
 28 29  1  0
 29 31  1  0
 31 30  1  0
M  CHG  1   4   1
M  END
$$$$
