
     RDKit          3D

 31 34  0  0  0  0  0  0  0  0999 V2000
   58.3224  173.9211  184.5705 O   0  0  0  0  0  0  0  0  0  0  0  0
   57.5353  174.6149  183.6446 C   0  0  1  0  0  0  0  0  0  0  0  0
   57.7130  173.9402  182.2993 C   0  0  0  0  0  0  0  0  0  0  0  0
   56.4862  173.1581  182.1585 N   0  0  2  0  0  4  0  0  0  0  0  0
   56.2249  172.7867  180.8084 C   0  0  0  0  0  0  0  0  0  0  0  0
   55.9331  174.0170  179.9896 C   0  0  0  0  0  0  0  0  0  0  0  0
   56.8821  174.8704  179.4475 C   0  0  0  0  0  0  0  0  0  0  0  0
   58.2306  174.8696  179.4754 N   0  0  0  0  0  0  0  0  0  0  0  0
   58.9132  175.8467  178.8457 C   0  0  0  0  0  0  0  0  0  0  0  0
   58.2548  176.8170  178.1931 N   0  0  0  0  0  0  0  0  0  0  0  0
   56.9159  176.8599  178.1377 C   0  0  0  0  0  0  0  0  0  0  0  0
   56.2203  177.8883  177.4463 N   0  0  0  0  0  0  0  0  0  0  0  0
   56.2156  175.8610  178.7814 C   0  0  0  0  0  0  0  0  0  0  0  0
   54.9057  175.6204  178.9124 N   0  0  0  0  0  0  0  0  0  0  0  0
   54.7118  174.5152  179.6361 C   0  0  0  0  0  0  0  0  0  0  0  0
   55.5023  174.1685  182.6594 C   0  0  0  0  0  0  0  0  0  0  0  0
   56.0839  174.3182  184.0388 C   0  0  2  0  0  0  0  0  0  0  0  0
   55.4773  175.3125  184.9439 C   0  0  0  0  0  0  0  0  0  0  0  0
   53.7927  175.7528  184.7494 S   0  0  0  0  0  0  0  0  0  0  0  0
   52.7849  175.6139  186.1933 C   0  0  0  0  0  0  0  0  0  0  0  0
   53.3937  176.1598  187.4331 C   0  0  0  0  0  0  0  0  0  0  0  0
   52.5093  176.7398  188.4665 C   0  0  0  0  0  0  0  0  0  0  0  0
   51.3674  175.7438  188.6449 C   0  0  0  0  0  0  0  0  0  0  0  0
   50.6881  175.4761  189.7711 N   0  0  0  0  0  0  0  0  0  0  0  0
   49.7650  174.5455  189.4946 N   0  0  0  0  0  0  0  0  0  0  0  0
   49.8260  174.2062  188.2344 N   0  0  0  0  0  0  0  0  0  0  0  0
   50.8102  174.9333  187.6839 C   0  0  0  0  0  0  0  0  0  0  0  0
   49.0224  173.2383  187.4829 C   0  0  0  0  0  0  0  0  0  0  0  0
   49.5090  171.8302  187.7513 C   0  0  0  0  0  0  0  0  0  0  0  0
   51.1402  170.0236  187.0851 C   0  0  0  0  0  0  0  0  0  0  0  0
   50.5556  171.3666  186.7825 C   0  0  0  0  0  0  0  0  0  0  0  0
  2  1  1  1
  2  3  1  0
  2 17  1  0
  3  4  1  0
  4  5  1  6
  4 16  1  0
  5  6  1  0
  6  7  1  0
  6 15  2  0
  7  8  2  0
  7 13  1  0
  8  9  1  0
  9 10  2  0
 10 11  1  0
 11 12  1  0
 11 13  2  0
 13 14  1  0
 14 15  1  0
 16 17  1  0
 17 18  1  6
 18 19  1  0
 19 20  1  0
 20 21  1  0
 21 22  1  0
 22 23  1  0
 23 24  1  0
 23 27  2  0
 24 25  2  0
 25 26  1  0
 26 27  1  0
 26 28  1  0
 28 29  1  0
 29 31  1  0
 31 30  1  0
M  CHG  1   4   1
M  END
$$$$
