
     RDKit          3D

 31 34  0  0  0  0  0  0  0  0999 V2000
   86.0052  163.4810  180.0903 O   0  0  0  0  0  0  0  0  0  0  0  0
   85.5535  162.4001  179.3252 C   0  0  1  0  0  0  0  0  0  0  0  0
   84.2326  162.8037  178.7014 C   0  0  0  0  0  0  0  0  0  0  0  0
   84.6014  163.1145  177.3215 N   0  0  2  0  0  4  0  0  0  0  0  0
   83.4838  163.0982  176.4385 C   0  0  0  0  0  0  0  0  0  0  0  0
   83.6375  161.9774  175.4438 C   0  0  0  0  0  0  0  0  0  0  0  0
   83.4664  162.0857  174.0720 C   0  0  0  0  0  0  0  0  0  0  0  0
   83.1435  163.1231  173.2728 N   0  0  0  0  0  0  0  0  0  0  0  0
   83.0450  162.9364  171.9414 C   0  0  0  0  0  0  0  0  0  0  0  0
   83.2671  161.7234  171.4119 N   0  0  0  0  0  0  0  0  0  0  0  0
   83.5904  160.6628  172.1655 C   0  0  0  0  0  0  0  0  0  0  0  0
   83.8251  159.3789  171.6031 N   0  0  0  0  0  0  0  0  0  0  0  0
   83.6918  160.8518  173.5281 C   0  0  0  0  0  0  0  0  0  0  0  0
   83.9901  160.0197  174.5328 N   0  0  0  0  0  0  0  0  0  0  0  0
   83.9634  160.6754  175.6956 C   0  0  0  0  0  0  0  0  0  0  0  0
   85.5335  161.9724  177.0625 C   0  0  0  0  0  0  0  0  0  0  0  0
   86.5260  162.3007  178.1444 C   0  0  2  0  0  0  0  0  0  0  0  0
   87.6554  161.3755  178.3545 C   0  0  0  0  0  0  0  0  0  0  0  0
   89.2915  161.9111  178.0289 S   0  0  0  0  0  0  0  0  0  0  0  0
   89.9985  161.3578  176.5078 C   0  0  0  0  0  0  0  0  0  0  0  0
   90.8892  160.1754  176.6282 C   0  0  0  0  0  0  0  0  0  0  0  0
   90.2898  158.8242  176.5915 C   0  0  0  0  0  0  0  0  0  0  0  0
   91.4438  157.8500  176.8097 C   0  0  0  0  0  0  0  0  0  0  0  0
   92.5498  157.7162  176.0612 N   0  0  0  0  0  0  0  0  0  0  0  0
   93.3090  156.7534  176.6007 N   0  0  0  0  0  0  0  0  0  0  0  0
   92.7326  156.2648  177.6665 N   0  0  0  0  0  0  0  0  0  0  0  0
   91.5752  156.9260  177.8195 C   0  0  0  0  0  0  0  0  0  0  0  0
   93.1833  155.2083  178.5766 C   0  0  0  0  0  0  0  0  0  0  0  0
   92.3386  155.2009  179.8327 C   0  0  0  0  0  0  0  0  0  0  0  0
   91.1244  153.1517  180.6667 C   0  0  0  0  0  0  0  0  0  0  0  0
   91.1293  154.3196  179.7323 C   0  0  0  0  0  0  0  0  0  0  0  0
  2  1  1  1
  2  3  1  0
  2 17  1  0
  3  4  1  0
  4  5  1  6
  4 16  1  0
  5  6  1  0
  6  7  1  0
  6 15  2  0
  7  8  2  0
  7 13  1  0
  8  9  1  0
  9 10  2  0
 10 11  1  0
 11 12  1  0
 11 13  2  0
 13 14  1  0
 14 15  1  0
 16 17  1  0
 17 18  1  1
 18 19  1  0
 19 20  1  0
 20 21  1  0
 21 22  1  0
 22 23  1  0
 23 24  1  0
 23 27  2  0
 24 25  2  0
 25 26  1  0
 26 27  1  0
 26 28  1  0
 28 29  1  0
 29 31  1  0
 31 30  1  0
M  CHG  1   4   1
M  END
$$$$
