
     RDKit          3D

 31 34  0  0  0  0  0  0  0  0999 V2000
   86.9614  165.0012  178.6830 O   0  0  0  0  0  0  0  0  0  0  0  0
   86.5333  163.7930  178.1217 C   0  0  1  0  0  0  0  0  0  0  0  0
   85.6995  164.1277  176.9012 C   0  0  0  0  0  0  0  0  0  0  0  0
   86.6150  163.8601  175.7935 N   0  0  2  0  0  4  0  0  0  0  0  0
   85.9376  163.6849  174.5528 C   0  0  0  0  0  0  0  0  0  0  0  0
   85.1632  162.3929  174.5737 C   0  0  0  0  0  0  0  0  0  0  0  0
   83.8199  162.2613  174.8913 C   0  0  0  0  0  0  0  0  0  0  0  0
   82.8747  163.1566  175.2440 N   0  0  0  0  0  0  0  0  0  0  0  0
   81.6195  162.7377  175.5014 C   0  0  0  0  0  0  0  0  0  0  0  0
   81.3102  161.4352  175.4073 N   0  0  0  0  0  0  0  0  0  0  0  0
   82.2153  160.5088  175.0606 C   0  0  0  0  0  0  0  0  0  0  0  0
   81.8860  159.1299  174.9617 N   0  0  0  0  0  0  0  0  0  0  0  0
   83.5002  160.9355  174.7968 C   0  0  0  0  0  0  0  0  0  0  0  0
   84.6096  160.2809  174.4341 N   0  0  0  0  0  0  0  0  0  0  0  0
   85.6237  161.1381  174.2940 C   0  0  0  0  0  0  0  0  0  0  0  0
   87.2156  162.5809  176.2864 C   0  0  0  0  0  0  0  0  0  0  0  0
   87.7976  163.1335  177.5590 C   0  0  2  0  0  0  0  0  0  0  0  0
   88.4646  162.1958  178.4819 C   0  0  0  0  0  0  0  0  0  0  0  0
   89.7663  161.1785  177.8986 S   0  0  0  0  0  0  0  0  0  0  0  0
   89.4960  159.4365  178.0094 C   0  0  0  0  0  0  0  0  0  0  0  0
   89.6808  158.6950  176.7360 C   0  0  0  0  0  0  0  0  0  0  0  0
   89.9296  157.2383  176.7885 C   0  0  0  0  0  0  0  0  0  0  0  0
   89.0768  156.7107  177.9385 C   0  0  0  0  0  0  0  0  0  0  0  0
   87.7388  156.6160  177.9839 N   0  0  0  0  0  0  0  0  0  0  0  0
   87.3938  156.0959  179.1693 N   0  0  0  0  0  0  0  0  0  0  0  0
   88.4591  155.8532  179.8857 N   0  0  0  0  0  0  0  0  0  0  0  0
   89.5161  156.2247  179.1475 C   0  0  0  0  0  0  0  0  0  0  0  0
   88.5757  155.2889  181.2331 C   0  0  0  0  0  0  0  0  0  0  0  0
   88.6347  156.3963  182.2634 C   0  0  0  0  0  0  0  0  0  0  0  0
   87.6972  155.2634  184.3143 C   0  0  0  0  0  0  0  0  0  0  0  0
   88.8801  155.9007  183.6574 C   0  0  0  0  0  0  0  0  0  0  0  0
  2  1  1  6
  2  3  1  0
  2 17  1  0
  3  4  1  0
  4  5  1  6
  4 16  1  0
  5  6  1  0
  6  7  1  0
  6 15  2  0
  7  8  2  0
  7 13  1  0
  8  9  1  0
  9 10  2  0
 10 11  1  0
 11 12  1  0
 11 13  2  0
 13 14  1  0
 14 15  1  0
 16 17  1  0
 17 18  1  1
 18 19  1  0
 19 20  1  0
 20 21  1  0
 21 22  1  0
 22 23  1  0
 23 24  1  0
 23 27  2  0
 24 25  2  0
 25 26  1  0
 26 27  1  0
 26 28  1  0
 28 29  1  0
 29 31  1  0
 31 30  1  0
M  CHG  1   4   1
M  END
$$$$
