
     RDKit          3D

 31 34  0  0  0  0  0  0  0  0999 V2000
   86.5729  163.1052  178.9523 O   0  0  0  0  0  0  0  0  0  0  0  0
   85.5869  162.6932  178.0490 C   0  0  1  0  0  0  0  0  0  0  0  0
   85.3809  163.8184  177.0548 C   0  0  0  0  0  0  0  0  0  0  0  0
   86.0998  163.3485  175.8720 N   0  0  2  0  0  4  0  0  0  0  0  0
   85.6947  164.0188  174.6822 C   0  0  0  0  0  0  0  0  0  0  0  0
   84.2823  163.6281  174.3337 C   0  0  0  0  0  0  0  0  0  0  0  0
   83.9139  162.5488  173.5449 C   0  0  0  0  0  0  0  0  0  0  0  0
   84.6294  161.6006  172.9058 N   0  0  0  0  0  0  0  0  0  0  0  0
   83.9932  160.6485  172.1946 C   0  0  0  0  0  0  0  0  0  0  0  0
   82.6531  160.6429  172.1218 N   0  0  0  0  0  0  0  0  0  0  0  0
   81.8999  161.5641  172.7395 C   0  0  0  0  0  0  0  0  0  0  0  0
   80.4809  161.5567  172.6612 N   0  0  0  0  0  0  0  0  0  0  0  0
   82.5490  162.5391  173.4678 C   0  0  0  0  0  0  0  0  0  0  0  0
   82.1001  163.5761  174.1847 N   0  0  0  0  0  0  0  0  0  0  0  0
   83.1259  164.2462  174.7153 C   0  0  0  0  0  0  0  0  0  0  0  0
   85.6625  161.9172  175.8822 C   0  0  0  0  0  0  0  0  0  0  0  0
   86.2273  161.5656  177.2316 C   0  0  2  0  0  0  0  0  0  0  0  0
   85.9797  160.2093  177.7558 C   0  0  0  0  0  0  0  0  0  0  0  0
   87.0561  158.8976  177.3196 S   0  0  0  0  0  0  0  0  0  0  0  0
   88.4316  158.6349  178.3960 C   0  0  0  0  0  0  0  0  0  0  0  0
   89.6207  158.0233  177.7498 C   0  0  0  0  0  0  0  0  0  0  0  0
   90.8748  157.9101  178.5251 C   0  0  0  0  0  0  0  0  0  0  0  0
   90.5838  156.9170  179.6463 C   0  0  0  0  0  0  0  0  0  0  0  0
   90.7673  157.0983  180.9634 N   0  0  0  0  0  0  0  0  0  0  0  0
   90.3811  155.9843  181.5993 N   0  0  0  0  0  0  0  0  0  0  0  0
   89.9568  155.0956  180.7408 N   0  0  0  0  0  0  0  0  0  0  0  0
   90.0713  155.6470  179.5229 C   0  0  0  0  0  0  0  0  0  0  0  0
   89.4399  153.7433  180.9675 C   0  0  0  0  0  0  0  0  0  0  0  0
   88.0837  153.8044  181.6373 C   0  0  0  0  0  0  0  0  0  0  0  0
   85.5861  153.9212  181.2954 C   0  0  0  0  0  0  0  0  0  0  0  0
   86.9419  153.8605  180.6667 C   0  0  0  0  0  0  0  0  0  0  0  0
  2  1  1  1
  2  3  1  0
  2 17  1  0
  3  4  1  0
  4  5  1  6
  4 16  1  0
  5  6  1  0
  6  7  1  0
  6 15  2  0
  7  8  2  0
  7 13  1  0
  8  9  1  0
  9 10  2  0
 10 11  1  0
 11 12  1  0
 11 13  2  0
 13 14  1  0
 14 15  1  0
 16 17  1  0
 17 18  1  1
 18 19  1  0
 19 20  1  0
 20 21  1  0
 21 22  1  0
 22 23  1  0
 23 24  1  0
 23 27  2  0
 24 25  2  0
 25 26  1  0
 26 27  1  0
 26 28  1  0
 28 29  1  0
 29 31  1  0
 31 30  1  0
M  CHG  1   4   1
M  END
$$$$
