
     RDKit          3D

 31 34  0  0  0  0  0  0  0  0999 V2000
   86.6662  161.4229  178.1171 O   0  0  0  0  0  0  0  0  0  0  0  0
   86.1158  160.9522  176.9198 C   0  0  1  0  0  0  0  0  0  0  0  0
   85.4386  162.1240  176.2379 C   0  0  0  0  0  0  0  0  0  0  0  0
   86.3917  162.4926  175.1928 N   0  0  2  0  0  4  0  0  0  0  0  0
   85.7974  163.2718  174.1590 C   0  0  0  0  0  0  0  0  0  0  0  0
   85.0076  162.3784  173.2385 C   0  0  0  0  0  0  0  0  0  0  0  0
   83.6244  162.3016  173.1779 C   0  0  0  0  0  0  0  0  0  0  0  0
   82.6457  162.9386  173.8528 N   0  0  0  0  0  0  0  0  0  0  0  0
   81.3551  162.6602  173.5807 C   0  0  0  0  0  0  0  0  0  0  0  0
   81.0440  161.7527  172.6422 N   0  0  0  0  0  0  0  0  0  0  0  0
   81.9815  161.0943  171.9458 C   0  0  0  0  0  0  0  0  0  0  0  0
   81.6501  160.1336  170.9524 N   0  0  0  0  0  0  0  0  0  0  0  0
   83.3026  161.3779  172.2227 C   0  0  0  0  0  0  0  0  0  0  0  0
   84.4493  160.9077  171.7179 N   0  0  0  0  0  0  0  0  0  0  0  0
   85.4892  161.4957  172.3145 C   0  0  0  0  0  0  0  0  0  0  0  0
   86.7618  161.1230  174.7160 C   0  0  0  0  0  0  0  0  0  0  0  0
   87.3135  160.6203  176.0224 C   0  0  2  0  0  0  0  0  0  0  0  0
   87.7635  159.2173  176.0920 C   0  0  0  0  0  0  0  0  0  0  0  0
   88.8082  158.7023  177.4008 S   0  0  0  0  0  0  0  0  0  0  0  0
   88.1424  157.4784  178.4864 C   0  0  0  0  0  0  0  0  0  0  0  0
   89.1557  156.6414  179.1781 C   0  0  0  0  0  0  0  0  0  0  0  0
   89.8769  157.2076  180.3382 C   0  0  0  0  0  0  0  0  0  0  0  0
   89.5601  156.2892  181.5149 C   0  0  0  0  0  0  0  0  0  0  0  0
   88.7004  156.5192  182.5196 N   0  0  0  0  0  0  0  0  0  0  0  0
   88.7167  155.4589  183.3382 N   0  0  0  0  0  0  0  0  0  0  0  0
   89.5536  154.5578  182.8971 N   0  0  0  0  0  0  0  0  0  0  0  0
   90.0903  155.0461  181.7685 C   0  0  0  0  0  0  0  0  0  0  0  0
   89.9012  153.2474  183.4533 C   0  0  0  0  0  0  0  0  0  0  0  0
   88.6705  152.5751  184.0234 C   0  0  0  0  0  0  0  0  0  0  0  0
   87.7093  150.3468  183.3309 C   0  0  0  0  0  0  0  0  0  0  0  0
   87.8922  151.7953  183.0060 C   0  0  0  0  0  0  0  0  0  0  0  0
  2  1  1  1
  2  3  1  0
  2 17  1  0
  3  4  1  0
  4  5  1  6
  4 16  1  0
  5  6  1  0
  6  7  1  0
  6 15  2  0
  7  8  2  0
  7 13  1  0
  8  9  1  0
  9 10  2  0
 10 11  1  0
 11 12  1  0
 11 13  2  0
 13 14  1  0
 14 15  1  0
 16 17  1  0
 17 18  1  6
 18 19  1  0
 19 20  1  0
 20 21  1  0
 21 22  1  0
 22 23  1  0
 23 24  1  0
 23 27  2  0
 24 25  2  0
 25 26  1  0
 26 27  1  0
 26 28  1  0
 28 29  1  0
 29 31  1  0
 31 30  1  0
M  CHG  1   4   1
M  END
$$$$
