
     RDKit          3D

 25 28  0  0  0  0  0  0  0  0999 V2000
  -24.1754   21.4726   -9.5390 C   0  0  0  0  0  0  0  0  0  0  0  0
  -22.8896   19.8819  -10.3666 C   0  0  0  0  0  0  0  0  0  0  0  0
  -21.0201   18.8074  -11.4771 C   0  0  0  0  0  0  0  0  0  0  0  0
  -21.0134   21.1464  -11.2457 C   0  0  0  0  0  0  0  0  0  0  0  0
  -18.3972   18.6303  -13.0331 C   0  0  0  0  0  0  0  0  0  0  0  0
  -18.9121   16.1523  -12.9107 C   0  0  0  0  0  0  0  0  0  0  0  0
  -27.3075   17.4982   -8.8782 O   0  0  0  0  0  0  0  0  0  0  0  0
  -27.1864   18.0842   -9.9614 C   0  0  0  0  0  0  0  0  0  0  0  0
  -28.1736   17.8713  -10.8861 N   0  0  0  0  0  0  0  0  0  0  0  0
  -28.1219   18.4641  -12.0827 C   0  0  0  0  0  0  0  0  0  0  0  0
  -27.0801   19.2977  -12.4107 C   0  0  0  0  0  0  0  0  0  0  0  0
  -26.0995   19.4990  -11.4701 C   0  0  0  0  0  0  0  0  0  0  0  0
  -26.1150   18.8967  -10.2018 C   0  0  0  0  0  0  0  0  0  0  0  0
  -25.0202   19.1836   -9.2684 C   0  0  0  0  0  0  0  0  0  0  0  0
  -24.0400   20.1268   -9.7365 N   0  0  0  0  0  0  0  0  0  0  0  0
  -23.0544   22.0671  -10.0734 C   0  0  0  0  0  0  0  0  0  0  0  0
  -22.2436   21.0823  -10.5934 C   0  0  0  0  0  0  0  0  0  0  0  0
  -22.2407   18.7570  -10.8283 C   0  0  0  0  0  0  0  0  0  0  0  0
  -20.3958   19.9980  -11.6915 C   0  0  0  0  0  0  0  0  0  0  0  0
  -20.3683   17.5793  -11.9504 C   0  0  0  0  0  0  0  0  0  0  0  0
  -19.1869   17.4937  -12.6515 C   0  0  0  0  0  0  0  0  0  0  0  0
  -17.7741   19.5425  -13.3247 N   0  0  0  0  0  0  0  0  0  0  0  0
  -19.9476   15.4751  -12.3509 N   0  0  0  0  0  0  0  0  0  0  0  0
  -20.7981   16.3231  -11.7889 N   0  0  0  0  0  0  0  0  0  0  0  0
  -17.7952   15.6222  -13.6058 N   0  0  0  0  0  0  0  0  0  0  0  0
 15  1  1  0
 16  1  2  0
  2 15  1  0
  2 17  2  0
 18  2  1  0
  3 18  2  0
  3 19  1  0
 20  3  1  0
  4 17  1  0
 19  4  2  0
 21  5  1  0
  5 22  3  0
 21  6  2  0
  6 23  1  0
  6 25  1  0
  8  7  2  0
  8  9  1  0
 13  8  1  0
  9 10  1  0
 11 10  2  0
 12 11  1  0
 13 12  2  0
 14 13  1  0
 14 15  1  6
 17 16  1  0
 20 21  1  0
 20 24  2  0
 23 24  1  0
M  END
$$$$
