
     RDKit          3D

 25 28  0  0  0  0  0  0  0  0999 V2000
  -25.0924   19.8675  -12.3176 C   0  0  0  0  0  0  0  0  0  0  0  0
  -23.0107   19.3066  -12.3348 C   0  0  0  0  0  0  0  0  0  0  0  0
  -20.9104   18.3654  -12.9562 C   0  0  0  0  0  0  0  0  0  0  0  0
  -22.8340   17.9954  -14.3552 C   0  0  0  0  0  0  0  0  0  0  0  0
  -19.5666   15.6624  -12.9673 C   0  0  0  0  0  0  0  0  0  0  0  0
  -17.5815   17.1186  -12.3946 C   0  0  0  0  0  0  0  0  0  0  0  0
  -23.5937   21.6597   -7.7995 O   0  0  0  0  0  0  0  0  0  0  0  0
  -24.2779   20.6029   -7.9791 C   0  0  0  0  0  0  0  0  0  0  0  0
  -24.8719   20.0512   -6.8966 N   0  0  0  0  0  0  0  0  0  0  0  0
  -25.6034   18.9466   -6.9993 C   0  0  0  0  0  0  0  0  0  0  0  0
  -25.7267   18.3898   -8.2661 C   0  0  0  0  0  0  0  0  0  0  0  0
  -25.1408   18.9168   -9.3914 C   0  0  0  0  0  0  0  0  0  0  0  0
  -24.3833   20.0742   -9.2412 C   0  0  0  0  0  0  0  0  0  0  0  0
  -23.7201   20.7171  -10.3967 C   0  0  0  0  0  0  0  0  0  0  0  0
  -23.9571   19.9963  -11.6331 N   0  0  0  0  0  0  0  0  0  0  0  0
  -24.8996   19.0991  -13.4626 C   0  0  0  0  0  0  0  0  0  0  0  0
  -23.5670   18.7566  -13.4471 C   0  0  0  0  0  0  0  0  0  0  0  0
  -21.6607   19.1097  -12.0823 C   0  0  0  0  0  0  0  0  0  0  0  0
  -21.4960   17.8058  -14.0962 C   0  0  0  0  0  0  0  0  0  0  0  0
  -19.4962   18.1678  -12.6811 C   0  0  0  0  0  0  0  0  0  0  0  0
  -18.9123   16.9199  -12.6932 C   0  0  0  0  0  0  0  0  0  0  0  0
  -20.0790   14.6393  -13.1784 N   0  0  0  0  0  0  0  0  0  0  0  0
  -17.3795   18.4435  -12.2106 N   0  0  0  0  0  0  0  0  0  0  0  0
  -18.5469   19.0624  -12.3875 N   0  0  0  0  0  0  0  0  0  0  0  0
  -16.5793   16.1204  -12.2927 N   0  0  0  0  0  0  0  0  0  0  0  0
 15  1  1  0
 16  1  2  0
  2 15  1  0
  2 17  2  0
 18  2  1  0
  3 18  2  0
  3 19  1  0
 20  3  1  0
  4 17  1  0
 19  4  2  0
 21  5  1  0
  5 22  3  0
 21  6  2  0
  6 23  1  0
  6 25  1  0
  8  7  2  0
  8  9  1  0
 13  8  1  0
  9 10  1  0
 11 10  2  0
 12 11  1  0
 13 12  2  0
 14 13  1  0
 15 14  1  0
 17 16  1  0
 20 21  1  0
 20 24  2  0
 23 24  1  0
M  END
$$$$
