
     RDKit          3D

 25 28  0  0  0  0  0  0  0  0999 V2000
  -12.8792    9.0566  -30.1364 C   0  0  0  0  0  0  0  0  0  0  0  0
  -13.2107    9.1340  -28.0074 C   0  0  0  0  0  0  0  0  0  0  0  0
  -13.7006    9.9038  -25.8051 C   0  0  0  0  0  0  0  0  0  0  0  0
  -13.7522   11.4590  -27.6417 C   0  0  0  0  0  0  0  0  0  0  0  0
  -11.7065   10.7566  -23.7053 C   0  0  0  0  0  0  0  0  0  0  0  0
  -13.4003    9.5950  -22.2321 C   0  0  0  0  0  0  0  0  0  0  0  0
  -11.5415    4.4725  -28.0794 O   0  0  0  0  0  0  0  0  0  0  0  0
  -10.7060    5.3734  -28.4076 C   0  0  0  0  0  0  0  0  0  0  0  0
   -9.3913    5.0685  -28.3205 N   0  0  0  0  0  0  0  0  0  0  0  0
   -8.4549    5.9540  -28.6441 C   0  0  0  0  0  0  0  0  0  0  0  0
   -8.8908    7.2013  -29.0735 C   0  0  0  0  0  0  0  0  0  0  0  0
  -10.2149    7.5527  -29.1767 C   0  0  0  0  0  0  0  0  0  0  0  0
  -11.1640    6.5967  -28.8285 C   0  0  0  0  0  0  0  0  0  0  0  0
  -12.6130    6.8821  -28.9134 C   0  0  0  0  0  0  0  0  0  0  0  0
  -12.8838    8.3017  -29.0390 N   0  0  0  0  0  0  0  0  0  0  0  0
  -13.2000   10.3773  -29.8341 C   0  0  0  0  0  0  0  0  0  0  0  0
  -13.4056   10.3965  -28.4737 C   0  0  0  0  0  0  0  0  0  0  0  0
  -13.3599    8.8802  -26.6516 C   0  0  0  0  0  0  0  0  0  0  0  0
  -13.8979   11.1973  -26.2987 C   0  0  0  0  0  0  0  0  0  0  0  0
  -13.8556    9.6246  -24.3864 C   0  0  0  0  0  0  0  0  0  0  0  0
  -12.9264   10.0270  -23.4520 C   0  0  0  0  0  0  0  0  0  0  0  0
  -10.7313   11.3515  -23.9269 N   0  0  0  0  0  0  0  0  0  0  0  0
  -14.5751    8.9553  -22.4339 N   0  0  0  0  0  0  0  0  0  0  0  0
  -14.8350    8.9826  -23.7411 N   0  0  0  0  0  0  0  0  0  0  0  0
  -12.7796    9.7786  -20.9702 N   0  0  0  0  0  0  0  0  0  0  0  0
 15  1  1  0
 16  1  2  0
  2 15  1  0
  2 17  2  0
 18  2  1  0
  3 18  2  0
  3 19  1  0
 20  3  1  0
  4 17  1  0
 19  4  2  0
 21  5  1  0
  5 22  3  0
 21  6  2  0
  6 23  1  0
  6 25  1  0
  8  7  2  0
  8  9  1  0
 13  8  1  0
  9 10  1  0
 11 10  2  0
 12 11  1  0
 13 12  2  0
 14 13  1  0
 15 14  1  0
 17 16  1  0
 20 21  1  0
 20 24  2  0
 23 24  1  0
M  END
$$$$
