
     RDKit          3D

 25 28  0  0  0  0  0  0  0  0999 V2000
  -12.9410    8.8953  -30.5854 C   0  0  0  0  0  0  0  0  0  0  0  0
  -13.2369    9.0641  -28.4564 C   0  0  0  0  0  0  0  0  0  0  0  0
  -13.4421    9.9367  -26.2475 C   0  0  0  0  0  0  0  0  0  0  0  0
  -12.9417   11.4294  -28.0684 C   0  0  0  0  0  0  0  0  0  0  0  0
  -11.9700   11.3825  -24.0441 C   0  0  0  0  0  0  0  0  0  0  0  0
  -13.4997    9.9325  -22.6491 C   0  0  0  0  0  0  0  0  0  0  0  0
  -13.3478    4.0401  -28.8532 O   0  0  0  0  0  0  0  0  0  0  0  0
  -12.2316    4.6492  -28.8771 C   0  0  0  0  0  0  0  0  0  0  0  0
  -11.1163    3.9199  -28.6462 N   0  0  0  0  0  0  0  0  0  0  0  0
   -9.9117    4.4808  -28.6530 C   0  0  0  0  0  0  0  0  0  0  0  0
   -9.8551    5.8454  -28.9072 C   0  0  0  0  0  0  0  0  0  0  0  0
  -10.9619    6.6233  -29.1466 C   0  0  0  0  0  0  0  0  0  0  0  0
  -12.2046    5.9976  -29.1309 C   0  0  0  0  0  0  0  0  0  0  0  0
  -13.4512    6.7526  -29.3840 C   0  0  0  0  0  0  0  0  0  0  0  0
  -13.2129    8.1792  -29.4957 N   0  0  0  0  0  0  0  0  0  0  0  0
  -12.7862   10.2427  -30.2705 C   0  0  0  0  0  0  0  0  0  0  0  0
  -12.9799   10.3199  -28.9104 C   0  0  0  0  0  0  0  0  0  0  0  0
  -13.4722    8.8658  -27.1036 C   0  0  0  0  0  0  0  0  0  0  0  0
  -13.1764   11.2227  -26.7284 C   0  0  0  0  0  0  0  0  0  0  0  0
  -13.6920    9.7159  -24.8320 C   0  0  0  0  0  0  0  0  0  0  0  0
  -13.0021   10.3919  -23.8494 C   0  0  0  0  0  0  0  0  0  0  0  0
  -11.1496   12.1898  -24.2153 N   0  0  0  0  0  0  0  0  0  0  0  0
  -14.4562    9.0118  -22.9090 N   0  0  0  0  0  0  0  0  0  0  0  0
  -14.5592    8.8934  -24.2328 N   0  0  0  0  0  0  0  0  0  0  0  0
  -13.0936   10.3410  -21.3531 N   0  0  0  0  0  0  0  0  0  0  0  0
 15  1  1  0
 16  1  2  0
  2 15  1  0
  2 17  2  0
 18  2  1  0
  3 18  2  0
  3 19  1  0
 20  3  1  0
  4 17  1  0
 19  4  2  0
 21  5  1  0
  5 22  3  0
 21  6  2  0
  6 23  1  0
  6 25  1  0
  8  7  2  0
  8  9  1  0
 13  8  1  0
  9 10  1  0
 11 10  2  0
 12 11  1  0
 13 12  2  0
 14 13  1  0
 15 14  1  0
 17 16  1  0
 20 21  1  0
 20 24  2  0
 23 24  1  0
M  END
$$$$
