
     RDKit          3D

 25 28  0  0  0  0  0  0  0  0999 V2000
  -24.7154   20.7554  -10.2979 C   0  0  0  0  0  0  0  0  0  0  0  0
  -22.7448   20.0266  -10.7821 C   0  0  0  0  0  0  0  0  0  0  0  0
  -20.4809   19.2987  -10.6151 C   0  0  0  0  0  0  0  0  0  0  0  0
  -21.6498   19.9961   -8.6297 C   0  0  0  0  0  0  0  0  0  0  0  0
  -20.4185   16.8364  -12.3602 C   0  0  0  0  0  0  0  0  0  0  0  0
  -17.9824   17.4999  -12.4789 C   0  0  0  0  0  0  0  0  0  0  0  0
  -24.0136   19.0856  -15.2162 O   0  0  0  0  0  0  0  0  0  0  0  0
  -24.5902   18.3724  -14.3352 C   0  0  0  0  0  0  0  0  0  0  0  0
  -24.9945   17.1343  -14.6995 N   0  0  0  0  0  0  0  0  0  0  0  0
  -25.6050   16.3269  -13.8387 C   0  0  0  0  0  0  0  0  0  0  0  0
  -25.8063   16.8147  -12.5535 C   0  0  0  0  0  0  0  0  0  0  0  0
  -25.4120   18.0645  -12.1416 C   0  0  0  0  0  0  0  0  0  0  0  0
  -24.7760   18.8790  -13.0733 C   0  0  0  0  0  0  0  0  0  0  0  0
  -24.3106   20.2378  -12.7193 C   0  0  0  0  0  0  0  0  0  0  0  0
  -23.9598   20.3468  -11.3159 N   0  0  0  0  0  0  0  0  0  0  0  0
  -24.0069   20.7063   -9.1003 C   0  0  0  0  0  0  0  0  0  0  0  0
  -22.7576   20.2393   -9.4390 C   0  0  0  0  0  0  0  0  0  0  0  0
  -21.5893   19.5486  -11.3830 C   0  0  0  0  0  0  0  0  0  0  0  0
  -20.5085   19.5221   -9.2349 C   0  0  0  0  0  0  0  0  0  0  0  0
  -19.2765   18.7964  -11.2567 C   0  0  0  0  0  0  0  0  0  0  0  0
  -19.2806   17.6681  -12.0475 C   0  0  0  0  0  0  0  0  0  0  0  0
  -21.3475   16.1783  -12.6012 N   0  0  0  0  0  0  0  0  0  0  0  0
  -17.2290   18.4970  -11.9611 N   0  0  0  0  0  0  0  0  0  0  0  0
  -18.0269   19.2710  -11.2253 N   0  0  0  0  0  0  0  0  0  0  0  0
  -17.4981   16.4667  -13.3210 N   0  0  0  0  0  0  0  0  0  0  0  0
 15  1  1  0
 16  1  2  0
  2 15  1  0
  2 17  2  0
 18  2  1  0
  3 18  2  0
  3 19  1  0
 20  3  1  0
  4 17  1  0
 19  4  2  0
 21  5  1  0
  5 22  3  0
 21  6  2  0
  6 23  1  0
  6 25  1  0
  8  7  2  0
  8  9  1  0
 13  8  1  0
  9 10  1  0
 11 10  2  0
 12 11  1  0
 13 12  2  0
 14 13  1  0
 15 14  1  0
 17 16  1  0
 20 21  1  0
 20 24  2  0
 23 24  1  0
M  END
$$$$
