
     RDKit          3D

 25 28  0  0  0  0  0  0  0  0999 V2000
  -13.0084    9.5496  -29.5022 C   0  0  0  0  0  0  0  0  0  0  0  0
  -12.8636    9.8331  -27.3698 C   0  0  0  0  0  0  0  0  0  0  0  0
  -12.7063   10.8302  -25.2101 C   0  0  0  0  0  0  0  0  0  0  0  0
  -12.8060   12.2383  -27.1599 C   0  0  0  0  0  0  0  0  0  0  0  0
  -14.1715    8.6986  -23.6539 C   0  0  0  0  0  0  0  0  0  0  0  0
  -12.9784    9.8634  -21.7542 C   0  0  0  0  0  0  0  0  0  0  0  0
  -12.2521    4.9754  -27.1222 O   0  0  0  0  0  0  0  0  0  0  0  0
  -11.3427    5.6106  -27.7443 C   0  0  0  0  0  0  0  0  0  0  0  0
  -10.1315    5.0192  -27.8557 N   0  0  0  0  0  0  0  0  0  0  0  0
   -9.1280    5.6164  -28.4896 C   0  0  0  0  0  0  0  0  0  0  0  0
   -9.3831    6.8711  -29.0289 C   0  0  0  0  0  0  0  0  0  0  0  0
  -10.5972    7.5076  -28.9391 C   0  0  0  0  0  0  0  0  0  0  0  0
  -11.6219    6.8482  -28.2673 C   0  0  0  0  0  0  0  0  0  0  0  0
  -12.9647    7.4524  -28.1256 C   0  0  0  0  0  0  0  0  0  0  0  0
  -12.9453    8.8856  -28.3492 N   0  0  0  0  0  0  0  0  0  0  0  0
  -12.9686   10.9248  -29.2882 C   0  0  0  0  0  0  0  0  0  0  0  0
  -12.8766   11.0751  -27.9235 C   0  0  0  0  0  0  0  0  0  0  0  0
  -12.7771    9.7051  -25.9910 C   0  0  0  0  0  0  0  0  0  0  0  0
  -12.7206   12.1011  -25.7934 C   0  0  0  0  0  0  0  0  0  0  0  0
  -12.6176   10.6827  -23.7661 C   0  0  0  0  0  0  0  0  0  0  0  0
  -13.3000    9.6989  -23.0843 C   0  0  0  0  0  0  0  0  0  0  0  0
  -14.8692    7.8992  -24.1315 N   0  0  0  0  0  0  0  0  0  0  0  0
  -12.1309   10.9124  -21.6476 N   0  0  0  0  0  0  0  0  0  0  0  0
  -11.9237   11.3954  -22.8727 N   0  0  0  0  0  0  0  0  0  0  0  0
  -13.4442    9.0794  -20.6681 N   0  0  0  0  0  0  0  0  0  0  0  0
 15  1  1  0
 16  1  2  0
  2 15  1  0
  2 17  2  0
 18  2  1  0
  3 18  2  0
  3 19  1  0
 20  3  1  0
  4 17  1  0
 19  4  2  0
 21  5  1  0
  5 22  3  0
 21  6  2  0
  6 23  1  0
  6 25  1  0
  8  7  2  0
  8  9  1  0
 13  8  1  0
  9 10  1  0
 11 10  2  0
 12 11  1  0
 13 12  2  0
 14 13  1  0
 15 14  1  0
 17 16  1  0
 20 21  1  0
 20 24  2  0
 23 24  1  0
M  END
$$$$
