
     RDKit          3D

 25 28  0  0  0  0  0  0  0  0999 V2000
  -25.4485   20.4824  -10.0722 C   0  0  0  0  0  0  0  0  0  0  0  0
  -23.4757   19.8396  -10.8229 C   0  0  0  0  0  0  0  0  0  0  0  0
  -21.8058   18.6580  -12.1261 C   0  0  0  0  0  0  0  0  0  0  0  0
  -24.0805   18.2423  -12.5477 C   0  0  0  0  0  0  0  0  0  0  0  0
  -20.5859   15.9657  -12.8977 C   0  0  0  0  0  0  0  0  0  0  0  0
  -18.4703   17.3577  -12.9815 C   0  0  0  0  0  0  0  0  0  0  0  0
  -22.2333   23.7419   -7.6706 O   0  0  0  0  0  0  0  0  0  0  0  0
  -22.5151   23.8650   -8.8692 C   0  0  0  0  0  0  0  0  0  0  0  0
  -22.1818   25.0559   -9.4571 N   0  0  0  0  0  0  0  0  0  0  0  0
  -22.4504   25.2743  -10.7479 C   0  0  0  0  0  0  0  0  0  0  0  0
  -23.0653   24.3115  -11.5114 C   0  0  0  0  0  0  0  0  0  0  0  0
  -23.3919   23.1236  -10.9041 C   0  0  0  0  0  0  0  0  0  0  0  0
  -23.1278   22.8528   -9.5519 C   0  0  0  0  0  0  0  0  0  0  0  0
  -23.5127   21.5480   -9.0028 C   0  0  0  0  0  0  0  0  0  0  0  0
  -24.0956   20.6291   -9.9437 N   0  0  0  0  0  0  0  0  0  0  0  0
  -25.6546   19.5628  -11.0760 C   0  0  0  0  0  0  0  0  0  0  0  0
  -24.4284   19.1543  -11.5526 C   0  0  0  0  0  0  0  0  0  0  0  0
  -22.1639   19.5609  -11.1413 C   0  0  0  0  0  0  0  0  0  0  0  0
  -22.7567   17.9920  -12.8372 C   0  0  0  0  0  0  0  0  0  0  0  0
  -20.3927   18.3956  -12.4285 C   0  0  0  0  0  0  0  0  0  0  0  0
  -19.8379   17.1851  -12.7766 C   0  0  0  0  0  0  0  0  0  0  0  0
  -21.1936   15.0025  -12.9888 N   0  0  0  0  0  0  0  0  0  0  0  0
  -18.2516   18.6774  -12.7468 N   0  0  0  0  0  0  0  0  0  0  0  0
  -19.3881   19.2786  -12.4225 N   0  0  0  0  0  0  0  0  0  0  0  0
  -17.5248   16.3679  -13.3531 N   0  0  0  0  0  0  0  0  0  0  0  0
 15  1  1  0
 16  1  2  0
  2 15  1  0
  2 17  2  0
 18  2  1  0
  3 18  2  0
  3 19  1  0
 20  3  1  0
  4 17  1  0
 19  4  2  0
 21  5  1  0
  5 22  3  0
 21  6  2  0
  6 23  1  0
  6 25  1  0
  8  7  2  0
  8  9  1  0
 13  8  1  0
  9 10  1  0
 11 10  2  0
 12 11  1  0
 13 12  2  0
 14 13  1  0
 14 15  1  6
 17 16  1  0
 20 21  1  0
 20 24  2  0
 23 24  1  0
M  END
$$$$
