
     RDKit          3D

 25 28  0  0  0  0  0  0  0  0999 V2000
  -25.5581   19.3930  -10.4585 C   0  0  0  0  0  0  0  0  0  0  0  0
  -23.5454   19.0682  -11.1604 C   0  0  0  0  0  0  0  0  0  0  0  0
  -21.6623   18.2867  -12.3955 C   0  0  0  0  0  0  0  0  0  0  0  0
  -23.8656   17.5140  -12.9809 C   0  0  0  0  0  0  0  0  0  0  0  0
  -20.0096   15.7736  -12.6515 C   0  0  0  0  0  0  0  0  0  0  0  0
  -18.1921   17.5058  -12.9436 C   0  0  0  0  0  0  0  0  0  0  0  0
  -23.2347   22.8440   -7.6377 O   0  0  0  0  0  0  0  0  0  0  0  0
  -23.4437   23.0853   -8.8687 C   0  0  0  0  0  0  0  0  0  0  0  0
  -23.3853   24.3750   -9.2717 N   0  0  0  0  0  0  0  0  0  0  0  0
  -23.5922   24.7112  -10.5404 C   0  0  0  0  0  0  0  0  0  0  0  0
  -23.8701   23.6785  -11.4272 C   0  0  0  0  0  0  0  0  0  0  0  0
  -23.9389   22.3563  -11.0608 C   0  0  0  0  0  0  0  0  0  0  0  0
  -23.7157   22.0462   -9.7229 C   0  0  0  0  0  0  0  0  0  0  0  0
  -23.7630   20.6499   -9.2367 C   0  0  0  0  0  0  0  0  0  0  0  0
  -24.2917   19.7410  -10.2361 N   0  0  0  0  0  0  0  0  0  0  0  0
  -25.6496   18.4974  -11.5207 C   0  0  0  0  0  0  0  0  0  0  0  0
  -24.3548   18.3096  -11.9469 C   0  0  0  0  0  0  0  0  0  0  0  0
  -22.1765   19.0588  -11.3857 C   0  0  0  0  0  0  0  0  0  0  0  0
  -22.5066   17.5114  -13.1966 C   0  0  0  0  0  0  0  0  0  0  0  0
  -20.2259   18.2868  -12.6226 C   0  0  0  0  0  0  0  0  0  0  0  0
  -19.4991   17.1216  -12.7343 C   0  0  0  0  0  0  0  0  0  0  0  0
  -20.4395   14.6941  -12.5894 N   0  0  0  0  0  0  0  0  0  0  0  0
  -18.1424   18.8577  -12.9562 N   0  0  0  0  0  0  0  0  0  0  0  0
  -19.3800   19.3130  -12.7608 N   0  0  0  0  0  0  0  0  0  0  0  0
  -17.0761   16.6485  -13.1183 N   0  0  0  0  0  0  0  0  0  0  0  0
 15  1  1  0
 16  1  2  0
  2 15  1  0
  2 17  2  0
 18  2  1  0
  3 18  2  0
  3 19  1  0
 20  3  1  0
  4 17  1  0
 19  4  2  0
 21  5  1  0
  5 22  3  0
 21  6  2  0
  6 23  1  0
  6 25  1  0
  8  7  2  0
  8  9  1  0
 13  8  1  0
  9 10  1  0
 11 10  2  0
 12 11  1  0
 13 12  2  0
 14 13  1  0
 15 14  1  0
 17 16  1  0
 20 21  1  0
 20 24  2  0
 23 24  1  0
M  END
$$$$
