
     RDKit          3D

 25 28  0  0  0  0  0  0  0  0999 V2000
  -13.2242   10.0341  -29.4027 C   0  0  0  0  0  0  0  0  0  0  0  0
  -13.3825    9.7321  -27.2228 C   0  0  0  0  0  0  0  0  0  0  0  0
  -13.6181   10.2354  -24.8618 C   0  0  0  0  0  0  0  0  0  0  0  0
  -13.6781   12.0010  -26.4123 C   0  0  0  0  0  0  0  0  0  0  0  0
  -12.3185   11.5725  -22.4420 C   0  0  0  0  0  0  0  0  0  0  0  0
  -13.3878    9.6143  -21.2411 C   0  0  0  0  0  0  0  0  0  0  0  0
  -13.0647    5.3693  -30.3135 O   0  0  0  0  0  0  0  0  0  0  0  0
  -12.1686    6.2091  -30.4653 C   0  0  0  0  0  0  0  0  0  0  0  0
  -11.2369    5.9421  -31.4326 N   0  0  0  0  0  0  0  0  0  0  0  0
  -10.2342    6.7950  -31.6630 C   0  0  0  0  0  0  0  0  0  0  0  0
  -10.1161    7.9552  -30.9364 C   0  0  0  0  0  0  0  0  0  0  0  0
  -11.0601    8.2056  -29.9706 C   0  0  0  0  0  0  0  0  0  0  0  0
  -12.1290    7.3373  -29.6962 C   0  0  0  0  0  0  0  0  0  0  0  0
  -13.0864    7.7027  -28.6464 C   0  0  0  0  0  0  0  0  0  0  0  0
  -13.2176    9.1127  -28.3930 N   0  0  0  0  0  0  0  0  0  0  0  0
  -13.4025   11.2662  -28.8147 C   0  0  0  0  0  0  0  0  0  0  0  0
  -13.5027   11.0895  -27.4522 C   0  0  0  0  0  0  0  0  0  0  0  0
  -13.4448    9.3410  -25.9025 C   0  0  0  0  0  0  0  0  0  0  0  0
  -13.7365   11.5697  -25.1048 C   0  0  0  0  0  0  0  0  0  0  0  0
  -13.6785    9.7685  -23.4706 C   0  0  0  0  0  0  0  0  0  0  0  0
  -13.0952   10.3669  -22.3769 C   0  0  0  0  0  0  0  0  0  0  0  0
  -11.6998   12.5307  -22.5091 N   0  0  0  0  0  0  0  0  0  0  0  0
  -14.1430    8.5822  -21.6981 N   0  0  0  0  0  0  0  0  0  0  0  0
  -14.3081    8.6820  -23.0100 N   0  0  0  0  0  0  0  0  0  0  0  0
  -12.9823    9.8769  -19.9076 N   0  0  0  0  0  0  0  0  0  0  0  0
 15  1  1  0
 16  1  2  0
  2 15  1  0
  2 17  2  0
 18  2  1  0
  3 18  2  0
  3 19  1  0
 20  3  1  0
  4 17  1  0
 19  4  2  0
 21  5  1  0
  5 22  3  0
 21  6  2  0
  6 23  1  0
  6 25  1  0
  8  7  2  0
  8  9  1  0
 13  8  1  0
  9 10  1  0
 11 10  2  0
 12 11  1  0
 13 12  2  0
 14 13  1  0
 14 15  1  6
 17 16  1  0
 20 21  1  0
 20 24  2  0
 23 24  1  0
M  END
$$$$
