
     RDKit          3D

 25 28  0  0  0  0  0  0  0  0999 V2000
  -22.8143   18.4978  -13.4634 C   0  0  0  0  0  0  0  0  0  0  0  0
  -22.6133   19.4821  -11.4990 C   0  0  0  0  0  0  0  0  0  0  0  0
  -23.1951   20.3268   -9.3010 C   0  0  0  0  0  0  0  0  0  0  0  0
  -24.8216   19.1686  -10.5413 C   0  0  0  0  0  0  0  0  0  0  0  0
  -24.7788   20.4568   -6.6919 C   0  0  0  0  0  0  0  0  0  0  0  0
  -22.8077   21.8854   -5.9891 C   0  0  0  0  0  0  0  0  0  0  0  0
  -17.7564   19.3465  -13.3047 O   0  0  0  0  0  0  0  0  0  0  0  0
  -18.3825   18.2801  -13.2589 C   0  0  0  0  0  0  0  0  0  0  0  0
  -17.6444   17.1319  -13.3667 N   0  0  0  0  0  0  0  0  0  0  0  0
  -18.2398   15.9361  -13.3280 C   0  0  0  0  0  0  0  0  0  0  0  0
  -19.6019   15.8327  -13.1798 C   0  0  0  0  0  0  0  0  0  0  0  0
  -20.3253   16.9955  -13.0733 C   0  0  0  0  0  0  0  0  0  0  0  0
  -19.7402   18.2714  -13.1088 C   0  0  0  0  0  0  0  0  0  0  0  0
  -20.6039   19.4503  -12.9804 C   0  0  0  0  0  0  0  0  0  0  0  0
  -21.9723   19.1786  -12.6292 N   0  0  0  0  0  0  0  0  0  0  0  0
  -24.0186   18.3842  -12.8058 C   0  0  0  0  0  0  0  0  0  0  0  0
  -23.9044   18.9959  -11.5767 C   0  0  0  0  0  0  0  0  0  0  0  0
  -22.2943   20.1486  -10.3354 C   0  0  0  0  0  0  0  0  0  0  0  0
  -24.4634   19.8402   -9.3926 C   0  0  0  0  0  0  0  0  0  0  0  0
  -22.8066   21.0445   -8.0800 C   0  0  0  0  0  0  0  0  0  0  0  0
  -23.5159   21.1063   -6.9021 C   0  0  0  0  0  0  0  0  0  0  0  0
  -25.7765   19.9273   -6.5196 N   0  0  0  0  0  0  0  0  0  0  0  0
  -21.6888   22.2665   -6.6579 N   0  0  0  0  0  0  0  0  0  0  0  0
  -21.6977   21.7669   -7.8862 N   0  0  0  0  0  0  0  0  0  0  0  0
  -23.1812   22.2035   -4.6583 N   0  0  0  0  0  0  0  0  0  0  0  0
 15  1  1  0
 16  1  2  0
  2 15  1  0
  2 17  2  0
 18  2  1  0
  3 18  2  0
  3 19  1  0
 20  3  1  0
  4 17  1  0
 19  4  2  0
 21  5  1  0
  5 22  3  0
 21  6  2  0
  6 23  1  0
  6 25  1  0
  8  7  2  0
  8  9  1  0
 13  8  1  0
  9 10  1  0
 11 10  2  0
 12 11  1  0
 13 12  2  0
 14 13  1  0
 14 15  1  6
 17 16  1  0
 20 21  1  0
 20 24  2  0
 23 24  1  0
M  END
$$$$
