
     RDKit          3D

 25 28  0  0  0  0  0  0  0  0999 V2000
  -25.5557   20.6450  -10.7747 C   0  0  0  0  0  0  0  0  0  0  0  0
  -23.5842   19.7410  -11.1805 C   0  0  0  0  0  0  0  0  0  0  0  0
  -21.3416   19.4603  -12.0607 C   0  0  0  0  0  0  0  0  0  0  0  0
  -22.5189   21.4334  -12.5563 C   0  0  0  0  0  0  0  0  0  0  0  0
  -21.2215   16.4185  -12.3167 C   0  0  0  0  0  0  0  0  0  0  0  0
  -18.7327   16.8865  -12.4032 C   0  0  0  0  0  0  0  0  0  0  0  0
  -26.6616   16.2681   -8.6337 O   0  0  0  0  0  0  0  0  0  0  0  0
  -26.6186   16.3827   -9.8651 C   0  0  0  0  0  0  0  0  0  0  0  0
  -27.3009   15.4436  -10.5914 N   0  0  0  0  0  0  0  0  0  0  0  0
  -27.3071   15.4915  -11.9269 C   0  0  0  0  0  0  0  0  0  0  0  0
  -26.6309   16.4811  -12.5988 C   0  0  0  0  0  0  0  0  0  0  0  0
  -25.9524   17.4139  -11.8531 C   0  0  0  0  0  0  0  0  0  0  0  0
  -25.9200   17.4008  -10.4494 C   0  0  0  0  0  0  0  0  0  0  0  0
  -25.1694   18.4486   -9.7487 C   0  0  0  0  0  0  0  0  0  0  0  0
  -24.7527   19.5595  -10.5623 N   0  0  0  0  0  0  0  0  0  0  0  0
  -24.8383   21.5227  -11.5563 C   0  0  0  0  0  0  0  0  0  0  0  0
  -23.6044   20.9680  -11.8160 C   0  0  0  0  0  0  0  0  0  0  0  0
  -22.4252   19.0098  -11.3286 C   0  0  0  0  0  0  0  0  0  0  0  0
  -21.3767   20.6724  -12.6796 C   0  0  0  0  0  0  0  0  0  0  0  0
  -20.1278   18.6433  -12.1885 C   0  0  0  0  0  0  0  0  0  0  0  0
  -20.0680   17.2731  -12.3043 C   0  0  0  0  0  0  0  0  0  0  0  0
  -22.1380   15.7368  -12.3418 N   0  0  0  0  0  0  0  0  0  0  0  0
  -18.0331   18.0489  -12.3429 N   0  0  0  0  0  0  0  0  0  0  0  0
  -18.8625   19.0758  -12.2167 N   0  0  0  0  0  0  0  0  0  0  0  0
  -18.2269   15.5682  -12.5375 N   0  0  0  0  0  0  0  0  0  0  0  0
 15  1  1  0
 16  1  2  0
  2 15  1  0
  2 17  2  0
 18  2  1  0
  3 18  2  0
  3 19  1  0
 20  3  1  0
  4 17  1  0
 19  4  2  0
 21  5  1  0
  5 22  3  0
 21  6  2  0
  6 23  1  0
  6 25  1  0
  8  7  2  0
  8  9  1  0
 13  8  1  0
  9 10  1  0
 11 10  2  0
 12 11  1  0
 13 12  2  0
 14 13  1  0
 14 15  1  6
 17 16  1  0
 20 21  1  0
 20 24  2  0
 23 24  1  0
M  END
$$$$
