
     RDKit          3D

 25 28  0  0  0  0  0  0  0  0999 V2000
  -13.2389   10.0301  -29.4205 C   0  0  0  0  0  0  0  0  0  0  0  0
  -13.1272   10.0208  -27.2673 C   0  0  0  0  0  0  0  0  0  0  0  0
  -13.6836   10.2084  -24.9569 C   0  0  0  0  0  0  0  0  0  0  0  0
  -15.3565   10.6871  -26.6203 C   0  0  0  0  0  0  0  0  0  0  0  0
  -15.1710   11.5420  -22.6939 C   0  0  0  0  0  0  0  0  0  0  0  0
  -13.3341   10.4064  -21.3805 C   0  0  0  0  0  0  0  0  0  0  0  0
   -8.6417    8.0670  -28.9759 O   0  0  0  0  0  0  0  0  0  0  0  0
   -9.6686    7.3294  -28.8388 C   0  0  0  0  0  0  0  0  0  0  0  0
   -9.4992    5.9932  -28.9601 N   0  0  0  0  0  0  0  0  0  0  0  0
  -10.5213    5.1539  -28.8315 C   0  0  0  0  0  0  0  0  0  0  0  0
  -11.7652    5.7138  -28.5680 C   0  0  0  0  0  0  0  0  0  0  0  0
  -11.9816    7.0641  -28.4372 C   0  0  0  0  0  0  0  0  0  0  0  0
  -10.8851    7.9089  -28.5787 C   0  0  0  0  0  0  0  0  0  0  0  0
  -11.0203    9.3762  -28.4483 C   0  0  0  0  0  0  0  0  0  0  0  0
  -12.4084    9.7953  -28.4059 N   0  0  0  0  0  0  0  0  0  0  0  0
  -14.4966   10.4079  -28.9579 C   0  0  0  0  0  0  0  0  0  0  0  0
  -14.3958   10.3931  -27.5856 C   0  0  0  0  0  0  0  0  0  0  0  0
  -12.7620    9.9259  -25.9322 C   0  0  0  0  0  0  0  0  0  0  0  0
  -14.9848   10.5901  -25.2990 C   0  0  0  0  0  0  0  0  0  0  0  0
  -13.2889   10.1036  -23.5612 C   0  0  0  0  0  0  0  0  0  0  0  0
  -13.9890   10.7255  -22.5505 C   0  0  0  0  0  0  0  0  0  0  0  0
  -16.1119   12.2160  -22.8138 N   0  0  0  0  0  0  0  0  0  0  0  0
  -12.2770    9.6191  -21.6853 N   0  0  0  0  0  0  0  0  0  0  0  0
  -12.2649    9.4464  -23.0071 N   0  0  0  0  0  0  0  0  0  0  0  0
  -13.6898   10.8211  -20.0718 N   0  0  0  0  0  0  0  0  0  0  0  0
 15  1  1  0
 16  1  2  0
  2 15  1  0
  2 17  2  0
 18  2  1  0
  3 18  2  0
  3 19  1  0
 20  3  1  0
  4 17  1  0
 19  4  2  0
 21  5  1  0
  5 22  3  0
 21  6  2  0
  6 23  1  0
  6 25  1  0
  8  7  2  0
  8  9  1  0
 13  8  1  0
  9 10  1  0
 11 10  2  0
 12 11  1  0
 13 12  2  0
 14 13  1  0
 15 14  1  0
 17 16  1  0
 20 21  1  0
 20 24  2  0
 23 24  1  0
M  END
$$$$
