
     RDKit          3D

 25 28  0  0  0  0  0  0  0  0999 V2000
  -12.8216    8.6827  -30.1726 C   0  0  0  0  0  0  0  0  0  0  0  0
  -12.8033    8.9258  -27.9797 C   0  0  0  0  0  0  0  0  0  0  0  0
  -12.8422    9.9956  -25.8032 C   0  0  0  0  0  0  0  0  0  0  0  0
  -13.0172   11.3308  -27.7298 C   0  0  0  0  0  0  0  0  0  0  0  0
  -14.7873   11.2654  -23.8192 C   0  0  0  0  0  0  0  0  0  0  0  0
  -13.2727   10.1087  -22.1494 C   0  0  0  0  0  0  0  0  0  0  0  0
  -11.8208    3.9145  -28.3085 O   0  0  0  0  0  0  0  0  0  0  0  0
  -10.9460    4.7801  -28.4379 C   0  0  0  0  0  0  0  0  0  0  0  0
   -9.6488    4.3653  -28.2957 N   0  0  0  0  0  0  0  0  0  0  0  0
   -8.6410    5.2343  -28.4188 C   0  0  0  0  0  0  0  0  0  0  0  0
   -8.8835    6.5594  -28.6898 C   0  0  0  0  0  0  0  0  0  0  0  0
  -10.1910    6.9564  -28.8289 C   0  0  0  0  0  0  0  0  0  0  0  0
  -11.2790    6.0771  -28.7078 C   0  0  0  0  0  0  0  0  0  0  0  0
  -12.6374    6.6034  -28.8808 C   0  0  0  0  0  0  0  0  0  0  0  0
  -12.7385    8.0356  -28.9715 N   0  0  0  0  0  0  0  0  0  0  0  0
  -12.9434   10.0253  -29.8927 C   0  0  0  0  0  0  0  0  0  0  0  0
  -12.9332   10.1889  -28.5249 C   0  0  0  0  0  0  0  0  0  0  0  0
  -12.7601    8.8702  -26.6031 C   0  0  0  0  0  0  0  0  0  0  0  0
  -12.9715   11.2330  -26.3560 C   0  0  0  0  0  0  0  0  0  0  0  0
  -12.7917    9.8838  -24.3397 C   0  0  0  0  0  0  0  0  0  0  0  0
  -13.6652   10.4535  -23.4414 C   0  0  0  0  0  0  0  0  0  0  0  0
  -15.6803   11.9049  -24.1338 N   0  0  0  0  0  0  0  0  0  0  0  0
  -12.1679    9.3375  -22.3204 N   0  0  0  0  0  0  0  0  0  0  0  0
  -11.8935    9.2114  -23.6116 N   0  0  0  0  0  0  0  0  0  0  0  0
  -13.8961   10.4846  -20.9321 N   0  0  0  0  0  0  0  0  0  0  0  0
 15  1  1  0
 16  1  2  0
  2 15  1  0
  2 17  2  0
 18  2  1  0
  3 18  2  0
  3 19  1  0
 20  3  1  0
  4 17  1  0
 19  4  2  0
 21  5  1  0
  5 22  3  0
 21  6  2  0
  6 23  1  0
  6 25  1  0
  8  7  2  0
  8  9  1  0
 13  8  1  0
  9 10  1  0
 11 10  2  0
 12 11  1  0
 13 12  2  0
 14 13  1  0
 14 15  1  6
 17 16  1  0
 20 21  1  0
 20 24  2  0
 23 24  1  0
M  END
$$$$
