
     RDKit          3D

 25 28  0  0  0  0  0  0  0  0999 V2000
  -25.1378   20.3389  -11.2613 C   0  0  0  0  0  0  0  0  0  0  0  0
  -23.3485   19.2072  -11.6692 C   0  0  0  0  0  0  0  0  0  0  0  0
  -21.8501   17.4482  -12.2554 C   0  0  0  0  0  0  0  0  0  0  0  0
  -24.2224   17.0407  -12.2815 C   0  0  0  0  0  0  0  0  0  0  0  0
  -19.5714   19.2304  -13.1179 C   0  0  0  0  0  0  0  0  0  0  0  0
  -18.3395   17.0313  -12.9292 C   0  0  0  0  0  0  0  0  0  0  0  0
  -22.0119   23.8682   -9.7612 O   0  0  0  0  0  0  0  0  0  0  0  0
  -22.2168   22.8699   -9.0003 C   0  0  0  0  0  0  0  0  0  0  0  0
  -21.9492   23.0222   -7.6835 N   0  0  0  0  0  0  0  0  0  0  0  0
  -22.1355   22.0276   -6.8222 C   0  0  0  0  0  0  0  0  0  0  0  0
  -22.6159   20.8306   -7.3386 C   0  0  0  0  0  0  0  0  0  0  0  0
  -22.9007   20.6330   -8.6679 C   0  0  0  0  0  0  0  0  0  0  0  0
  -22.6920   21.6995   -9.5368 C   0  0  0  0  0  0  0  0  0  0  0  0
  -22.9763   21.5823  -10.9837 C   0  0  0  0  0  0  0  0  0  0  0  0
  -23.8094   20.4336  -11.2855 N   0  0  0  0  0  0  0  0  0  0  0  0
  -25.5530   19.0608  -11.6256 C   0  0  0  0  0  0  0  0  0  0  0  0
  -24.3941   18.3635  -11.8793 C   0  0  0  0  0  0  0  0  0  0  0  0
  -22.0542   18.7452  -11.8595 C   0  0  0  0  0  0  0  0  0  0  0  0
  -22.9350   16.5917  -12.4676 C   0  0  0  0  0  0  0  0  0  0  0  0
  -20.4888   16.9765  -12.4530 C   0  0  0  0  0  0  0  0  0  0  0  0
  -19.4700   17.8156  -12.8482 C   0  0  0  0  0  0  0  0  0  0  0  0
  -19.6351   20.3699  -13.3446 N   0  0  0  0  0  0  0  0  0  0  0  0
  -18.6749   15.7647  -12.5927 N   0  0  0  0  0  0  0  0  0  0  0  0
  -19.9772   15.7498  -12.3079 N   0  0  0  0  0  0  0  0  0  0  0  0
  -17.0387   17.4580  -13.2994 N   0  0  0  0  0  0  0  0  0  0  0  0
 15  1  1  0
 16  1  2  0
  2 15  1  0
  2 17  2  0
 18  2  1  0
  3 18  2  0
  3 19  1  0
 20  3  1  0
  4 17  1  0
 19  4  2  0
 21  5  1  0
  5 22  3  0
 21  6  2  0
  6 23  1  0
  6 25  1  0
  8  7  2  0
  8  9  1  0
 13  8  1  0
  9 10  1  0
 11 10  2  0
 12 11  1  0
 13 12  2  0
 14 13  1  0
 15 14  1  0
 17 16  1  0
 20 21  1  0
 20 24  2  0
 23 24  1  0
M  END
$$$$
