
     RDKit          3D

 25 28  0  0  0  0  0  0  0  0999 V2000
  -12.9895    9.5478  -29.7899 C   0  0  0  0  0  0  0  0  0  0  0  0
  -12.8588    9.8784  -27.6634 C   0  0  0  0  0  0  0  0  0  0  0  0
  -12.6767   10.9211  -25.5274 C   0  0  0  0  0  0  0  0  0  0  0  0
  -12.6717   12.2815  -27.5133 C   0  0  0  0  0  0  0  0  0  0  0  0
  -14.1638    8.8183  -23.9529 C   0  0  0  0  0  0  0  0  0  0  0  0
  -13.0138   10.0310  -22.0566 C   0  0  0  0  0  0  0  0  0  0  0  0
  -12.6995    4.7535  -28.1944 O   0  0  0  0  0  0  0  0  0  0  0  0
  -11.6462    5.4622  -28.2689 C   0  0  0  0  0  0  0  0  0  0  0  0
  -10.4572    4.8178  -28.2626 N   0  0  0  0  0  0  0  0  0  0  0  0
   -9.3106    5.4852  -28.3366 C   0  0  0  0  0  0  0  0  0  0  0  0
   -9.3932    6.8695  -28.4200 C   0  0  0  0  0  0  0  0  0  0  0  0
  -10.5786    7.5638  -28.4296 C   0  0  0  0  0  0  0  0  0  0  0  0
  -11.7568    6.8277  -28.3507 C   0  0  0  0  0  0  0  0  0  0  0  0
  -13.0805    7.4879  -28.3604 C   0  0  0  0  0  0  0  0  0  0  0  0
  -12.9790    8.9116  -28.6198 N   0  0  0  0  0  0  0  0  0  0  0  0
  -12.8769   10.9239  -29.6101 C   0  0  0  0  0  0  0  0  0  0  0  0
  -12.7956   11.1044  -28.2484 C   0  0  0  0  0  0  0  0  0  0  0  0
  -12.7986    9.7817  -26.2807 C   0  0  0  0  0  0  0  0  0  0  0  0
  -12.6129   12.1753  -26.1426 C   0  0  0  0  0  0  0  0  0  0  0  0
  -12.6163   10.8065  -24.0790 C   0  0  0  0  0  0  0  0  0  0  0  0
  -13.3081    9.8352  -23.3888 C   0  0  0  0  0  0  0  0  0  0  0  0
  -14.8438    7.9848  -24.3965 N   0  0  0  0  0  0  0  0  0  0  0  0
  -12.1730   11.0861  -21.9569 N   0  0  0  0  0  0  0  0  0  0  0  0
  -11.9434   11.5424  -23.1882 N   0  0  0  0  0  0  0  0  0  0  0  0
  -13.4979    9.2695  -20.9626 N   0  0  0  0  0  0  0  0  0  0  0  0
 15  1  1  0
 16  1  2  0
  2 15  1  0
  2 17  2  0
 18  2  1  0
  3 18  2  0
  3 19  1  0
 20  3  1  0
  4 17  1  0
 19  4  2  0
 21  5  1  0
  5 22  3  0
 21  6  2  0
  6 23  1  0
  6 25  1  0
  8  7  2  0
  8  9  1  0
 13  8  1  0
  9 10  1  0
 11 10  2  0
 12 11  1  0
 13 12  2  0
 14 13  1  0
 15 14  1  0
 17 16  1  0
 20 21  1  0
 20 24  2  0
 23 24  1  0
M  END
$$$$
