
     RDKit          3D

 25 28  0  0  0  0  0  0  0  0999 V2000
  -24.5254   19.7203  -11.7538 C   0  0  0  0  0  0  0  0  0  0  0  0
  -22.3859   19.2553  -12.0275 C   0  0  0  0  0  0  0  0  0  0  0  0
  -20.3763   18.0959  -12.7347 C   0  0  0  0  0  0  0  0  0  0  0  0
  -22.4695   17.2246  -13.3546 C   0  0  0  0  0  0  0  0  0  0  0  0
  -18.7185   15.6512  -13.5143 C   0  0  0  0  0  0  0  0  0  0  0  0
  -16.8077   17.2327  -12.9963 C   0  0  0  0  0  0  0  0  0  0  0  0
  -22.9727   23.5227   -8.9057 O   0  0  0  0  0  0  0  0  0  0  0  0
  -24.0374   22.9287   -9.1175 C   0  0  0  0  0  0  0  0  0  0  0  0
  -25.1403   23.3935   -8.4523 N   0  0  0  0  0  0  0  0  0  0  0  0
  -26.3308   22.8103   -8.6217 C   0  0  0  0  0  0  0  0  0  0  0  0
  -26.4739   21.7345   -9.4644 C   0  0  0  0  0  0  0  0  0  0  0  0
  -25.3563   21.2827  -10.1226 C   0  0  0  0  0  0  0  0  0  0  0  0
  -24.0876   21.8657   -9.9739 C   0  0  0  0  0  0  0  0  0  0  0  0
  -22.9595   21.3089  -10.7287 C   0  0  0  0  0  0  0  0  0  0  0  0
  -23.2461   20.1137  -11.4764 N   0  0  0  0  0  0  0  0  0  0  0  0
  -24.4330   18.5722  -12.5081 C   0  0  0  0  0  0  0  0  0  0  0  0
  -23.1002   18.2722  -12.6854 C   0  0  0  0  0  0  0  0  0  0  0  0
  -21.0140   19.1306  -12.0745 C   0  0  0  0  0  0  0  0  0  0  0  0
  -21.0945   17.1358  -13.3796 C   0  0  0  0  0  0  0  0  0  0  0  0
  -18.9104   18.0072  -12.7563 C   0  0  0  0  0  0  0  0  0  0  0  0
  -18.1587   16.9088  -13.1067 C   0  0  0  0  0  0  0  0  0  0  0  0
  -19.1734   14.6508  -13.8265 N   0  0  0  0  0  0  0  0  0  0  0  0
  -16.7973   18.5254  -12.5801 N   0  0  0  0  0  0  0  0  0  0  0  0
  -18.0384   18.9714  -12.4420 N   0  0  0  0  0  0  0  0  0  0  0  0
  -15.6973   16.3915  -13.2627 N   0  0  0  0  0  0  0  0  0  0  0  0
 15  1  1  0
 16  1  2  0
  2 15  1  0
  2 17  2  0
 18  2  1  0
  3 18  2  0
  3 19  1  0
 20  3  1  0
  4 17  1  0
 19  4  2  0
 21  5  1  0
  5 22  3  0
 21  6  2  0
  6 23  1  0
  6 25  1  0
  8  7  2  0
  8  9  1  0
 13  8  1  0
  9 10  1  0
 11 10  2  0
 12 11  1  0
 13 12  2  0
 14 13  1  0
 14 15  1  6
 17 16  1  0
 20 21  1  0
 20 24  2  0
 23 24  1  0
M  END
$$$$
