
     RDKit          3D

 25 28  0  0  0  0  0  0  0  0999 V2000
  -13.9537    7.5318  -28.5453 C   0  0  0  0  0  0  0  0  0  0  0  0
  -12.4075    6.0616  -28.2351 C   0  0  0  0  0  0  0  0  0  0  0  0
  -11.2401    3.9940  -28.0222 C   0  0  0  0  0  0  0  0  0  0  0  0
  -13.5917    3.9785  -28.5363 C   0  0  0  0  0  0  0  0  0  0  0  0
  -11.0378    1.6088  -26.1832 C   0  0  0  0  0  0  0  0  0  0  0  0
   -8.6281    1.7731  -26.9282 C   0  0  0  0  0  0  0  0  0  0  0  0
  -11.2029    8.8107  -25.3341 O   0  0  0  0  0  0  0  0  0  0  0  0
  -11.9385    9.6811  -25.8986 C   0  0  0  0  0  0  0  0  0  0  0  0
  -12.4115   10.6910  -25.1336 N   0  0  0  0  0  0  0  0  0  0  0  0
  -13.1870   11.6402  -25.6467 C   0  0  0  0  0  0  0  0  0  0  0  0
  -13.4862   11.5442  -26.9999 C   0  0  0  0  0  0  0  0  0  0  0  0
  -13.0274   10.5363  -27.8130 C   0  0  0  0  0  0  0  0  0  0  0  0
  -12.2180    9.5622  -27.2370 C   0  0  0  0  0  0  0  0  0  0  0  0
  -11.6723    8.4425  -28.0349 C   0  0  0  0  0  0  0  0  0  0  0  0
  -12.6582    7.4033  -28.2638 N   0  0  0  0  0  0  0  0  0  0  0  0
  -14.5558    6.2861  -28.7013 C   0  0  0  0  0  0  0  0  0  0  0  0
  -13.5487    5.3706  -28.4985 C   0  0  0  0  0  0  0  0  0  0  0  0
  -11.2324    5.3650  -27.9925 C   0  0  0  0  0  0  0  0  0  0  0  0
  -12.4212    3.2965  -28.2945 C   0  0  0  0  0  0  0  0  0  0  0  0
  -10.0016    3.2756  -27.7680 C   0  0  0  0  0  0  0  0  0  0  0  0
   -9.9418    2.1899  -26.9218 C   0  0  0  0  0  0  0  0  0  0  0  0
  -11.9152    1.1507  -25.5714 N   0  0  0  0  0  0  0  0  0  0  0  0
   -7.9276    2.5854  -27.7527 N   0  0  0  0  0  0  0  0  0  0  0  0
   -8.7731    3.4873  -28.2515 N   0  0  0  0  0  0  0  0  0  0  0  0
   -8.0829    0.6831  -26.2031 N   0  0  0  0  0  0  0  0  0  0  0  0
 15  1  1  0
 16  1  2  0
  2 15  1  0
  2 17  2  0
 18  2  1  0
  3 18  2  0
  3 19  1  0
 20  3  1  0
  4 17  1  0
 19  4  2  0
 21  5  1  0
  5 22  3  0
 21  6  2  0
  6 23  1  0
  6 25  1  0
  8  7  2  0
  8  9  1  0
 13  8  1  0
  9 10  1  0
 11 10  2  0
 12 11  1  0
 13 12  2  0
 14 13  1  0
 15 14  1  0
 17 16  1  0
 20 21  1  0
 20 24  2  0
 23 24  1  0
M  END
$$$$
