
     RDKit          3D

 25 28  0  0  0  0  0  0  0  0999 V2000
  -23.3500   23.1331  -10.2858 C   0  0  0  0  0  0  0  0  0  0  0  0
  -22.5633   21.1538  -10.6210 C   0  0  0  0  0  0  0  0  0  0  0  0
  -21.5487   19.2467  -11.6292 C   0  0  0  0  0  0  0  0  0  0  0  0
  -21.7630   21.2824  -12.8960 C   0  0  0  0  0  0  0  0  0  0  0  0
  -21.9118   17.2272  -13.8433 C   0  0  0  0  0  0  0  0  0  0  0  0
  -20.7707   15.7679  -12.1236 C   0  0  0  0  0  0  0  0  0  0  0  0
  -21.6473   19.9868   -7.0552 O   0  0  0  0  0  0  0  0  0  0  0  0
  -21.6607   21.2200   -6.7449 C   0  0  0  0  0  0  0  0  0  0  0  0
  -20.7632   21.6433   -5.8260 N   0  0  0  0  0  0  0  0  0  0  0  0
  -20.7123   22.9157   -5.4467 C   0  0  0  0  0  0  0  0  0  0  0  0
  -21.6214   23.7846   -6.0371 C   0  0  0  0  0  0  0  0  0  0  0  0
  -22.5490   23.3973   -6.9736 C   0  0  0  0  0  0  0  0  0  0  0  0
  -22.5693   22.0562   -7.3438 C   0  0  0  0  0  0  0  0  0  0  0  0
  -23.5283   21.5482   -8.3489 C   0  0  0  0  0  0  0  0  0  0  0  0
  -23.1729   21.9519   -9.6962 N   0  0  0  0  0  0  0  0  0  0  0  0
  -22.8623   23.1173  -11.5897 C   0  0  0  0  0  0  0  0  0  0  0  0
  -22.3682   21.8465  -11.7749 C   0  0  0  0  0  0  0  0  0  0  0  0
  -22.1481   19.8323  -10.5437 C   0  0  0  0  0  0  0  0  0  0  0  0
  -21.3545   19.9712  -12.8095 C   0  0  0  0  0  0  0  0  0  0  0  0
  -21.1164   17.8615  -11.5349 C   0  0  0  0  0  0  0  0  0  0  0  0
  -21.2974   16.9631  -12.5638 C   0  0  0  0  0  0  0  0  0  0  0  0
  -22.4190   17.4540  -14.8657 N   0  0  0  0  0  0  0  0  0  0  0  0
  -20.2912   15.9491  -10.8717 N   0  0  0  0  0  0  0  0  0  0  0  0
  -20.5084   17.2197  -10.5319 N   0  0  0  0  0  0  0  0  0  0  0  0
  -20.7284   14.5464  -12.8428 N   0  0  0  0  0  0  0  0  0  0  0  0
 15  1  1  0
 16  1  2  0
  2 15  1  0
  2 17  2  0
 18  2  1  0
  3 18  2  0
  3 19  1  0
 20  3  1  0
  4 17  1  0
 19  4  2  0
 21  5  1  0
  5 22  3  0
 21  6  2  0
  6 23  1  0
  6 25  1  0
  8  7  2  0
  8  9  1  0
 13  8  1  0
  9 10  1  0
 11 10  2  0
 12 11  1  0
 13 12  2  0
 14 13  1  0
 15 14  1  0
 17 16  1  0
 20 21  1  0
 20 24  2  0
 23 24  1  0
M  END
$$$$
