
     RDKit          3D

 25 28  0  0  0  0  0  0  0  0999 V2000
  -24.7750   20.5521  -10.3631 C   0  0  0  0  0  0  0  0  0  0  0  0
  -23.0377   19.4245  -10.9623 C   0  0  0  0  0  0  0  0  0  0  0  0
  -21.5478   18.0030  -12.1634 C   0  0  0  0  0  0  0  0  0  0  0  0
  -23.7717   18.3713  -13.0078 C   0  0  0  0  0  0  0  0  0  0  0  0
  -19.9241   18.0097  -14.7082 C   0  0  0  0  0  0  0  0  0  0  0  0
  -18.3532   16.7169  -13.2084 C   0  0  0  0  0  0  0  0  0  0  0  0
  -23.3017   22.1236   -6.5136 O   0  0  0  0  0  0  0  0  0  0  0  0
  -23.0584   22.8296   -7.5430 C   0  0  0  0  0  0  0  0  0  0  0  0
  -23.0740   24.1740   -7.3971 N   0  0  0  0  0  0  0  0  0  0  0  0
  -22.8308   24.9821   -8.4235 C   0  0  0  0  0  0  0  0  0  0  0  0
  -22.5614   24.3810   -9.6467 C   0  0  0  0  0  0  0  0  0  0  0  0
  -22.5354   23.0210   -9.8391 C   0  0  0  0  0  0  0  0  0  0  0  0
  -22.7952   22.2098   -8.7389 C   0  0  0  0  0  0  0  0  0  0  0  0
  -22.7831   20.7347   -8.8486 C   0  0  0  0  0  0  0  0  0  0  0  0
  -23.5244   20.2666  -10.0043 N   0  0  0  0  0  0  0  0  0  0  0  0
  -25.1135   19.9045  -11.5483 C   0  0  0  0  0  0  0  0  0  0  0  0
  -23.9898   19.1953  -11.9057 C   0  0  0  0  0  0  0  0  0  0  0  0
  -21.7955   18.8200  -11.0902 C   0  0  0  0  0  0  0  0  0  0  0  0
  -22.5365   17.7764  -13.1260 C   0  0  0  0  0  0  0  0  0  0  0  0
  -20.2412   17.3767  -12.2869 C   0  0  0  0  0  0  0  0  0  0  0  0
  -19.5247   17.3965  -13.4636 C   0  0  0  0  0  0  0  0  0  0  0  0
  -20.2652   18.5048  -15.7044 N   0  0  0  0  0  0  0  0  0  0  0  0
  -18.3716   16.3054  -11.9198 N   0  0  0  0  0  0  0  0  0  0  0  0
  -19.5196   16.7127  -11.3781 N   0  0  0  0  0  0  0  0  0  0  0  0
  -17.2969   16.4784  -14.1241 N   0  0  0  0  0  0  0  0  0  0  0  0
 15  1  1  0
 16  1  2  0
  2 15  1  0
  2 17  2  0
 18  2  1  0
  3 18  2  0
  3 19  1  0
 20  3  1  0
  4 17  1  0
 19  4  2  0
 21  5  1  0
  5 22  3  0
 21  6  2  0
  6 23  1  0
  6 25  1  0
  8  7  2  0
  8  9  1  0
 13  8  1  0
  9 10  1  0
 11 10  2  0
 12 11  1  0
 13 12  2  0
 14 13  1  0
 15 14  1  0
 17 16  1  0
 20 21  1  0
 20 24  2  0
 23 24  1  0
M  END
$$$$
