
     RDKit          3D

 25 28  0  0  0  0  0  0  0  0999 V2000
  -25.0510   20.7602  -11.0450 C   0  0  0  0  0  0  0  0  0  0  0  0
  -23.2534   19.5059  -11.2971 C   0  0  0  0  0  0  0  0  0  0  0  0
  -21.4889   18.2399  -12.3772 C   0  0  0  0  0  0  0  0  0  0  0  0
  -23.0761   19.3456  -13.7126 C   0  0  0  0  0  0  0  0  0  0  0  0
  -18.7528   18.7994  -13.6154 C   0  0  0  0  0  0  0  0  0  0  0  0
  -18.1960   16.5990  -12.4891 C   0  0  0  0  0  0  0  0  0  0  0  0
  -23.4149   20.5961   -6.1988 O   0  0  0  0  0  0  0  0  0  0  0  0
  -22.9432   21.3624   -7.0483 C   0  0  0  0  0  0  0  0  0  0  0  0
  -22.1955   22.4095   -6.5800 N   0  0  0  0  0  0  0  0  0  0  0  0
  -21.6491   23.2861   -7.4280 C   0  0  0  0  0  0  0  0  0  0  0  0
  -21.8251   23.1564   -8.7845 C   0  0  0  0  0  0  0  0  0  0  0  0
  -22.5782   22.0998   -9.2351 C   0  0  0  0  0  0  0  0  0  0  0  0
  -23.1696   21.1565   -8.3795 C   0  0  0  0  0  0  0  0  0  0  0  0
  -23.9506   20.0612   -8.9649 C   0  0  0  0  0  0  0  0  0  0  0  0
  -24.0586   20.0771  -10.3994 N   0  0  0  0  0  0  0  0  0  0  0  0
  -24.8340   20.5946  -12.3945 C   0  0  0  0  0  0  0  0  0  0  0  0
  -23.7129   19.8123  -12.5638 C   0  0  0  0  0  0  0  0  0  0  0  0
  -22.1296   18.7095  -11.2449 C   0  0  0  0  0  0  0  0  0  0  0  0
  -21.9534   18.5521  -13.6183 C   0  0  0  0  0  0  0  0  0  0  0  0
  -20.2934   17.3937  -12.2690 C   0  0  0  0  0  0  0  0  0  0  0  0
  -19.0586   17.6410  -12.8245 C   0  0  0  0  0  0  0  0  0  0  0  0
  -18.5245   19.7242  -14.2464 N   0  0  0  0  0  0  0  0  0  0  0  0
  -18.9509   15.7566  -11.7376 N   0  0  0  0  0  0  0  0  0  0  0  0
  -20.1823   16.2328  -11.6142 N   0  0  0  0  0  0  0  0  0  0  0  0
  -16.8331   16.4592  -12.8559 N   0  0  0  0  0  0  0  0  0  0  0  0
 15  1  1  0
 16  1  2  0
  2 15  1  0
  2 17  2  0
 18  2  1  0
  3 18  2  0
  3 19  1  0
 20  3  1  0
  4 17  1  0
 19  4  2  0
 21  5  1  0
  5 22  3  0
 21  6  2  0
  6 23  1  0
  6 25  1  0
  8  7  2  0
  8  9  1  0
 13  8  1  0
  9 10  1  0
 11 10  2  0
 12 11  1  0
 13 12  2  0
 14 13  1  0
 14 15  1  6
 17 16  1  0
 20 21  1  0
 20 24  2  0
 23 24  1  0
M  END
$$$$
