
     RDKit          3D

 25 28  0  0  0  0  0  0  0  0999 V2000
  -12.8215   10.1087  -30.4847 C   0  0  0  0  0  0  0  0  0  0  0  0
  -11.9806    8.2781  -29.7164 C   0  0  0  0  0  0  0  0  0  0  0  0
  -11.6393    5.9846  -29.1630 C   0  0  0  0  0  0  0  0  0  0  0  0
  -13.6105    6.6267  -30.3863 C   0  0  0  0  0  0  0  0  0  0  0  0
  -12.7501    3.8409  -27.3512 C   0  0  0  0  0  0  0  0  0  0  0  0
  -10.3059    3.1980  -27.3167 C   0  0  0  0  0  0  0  0  0  0  0  0
   -7.8943    9.9947  -29.4749 O   0  0  0  0  0  0  0  0  0  0  0  0
   -8.4361   10.7013  -30.3830 C   0  0  0  0  0  0  0  0  0  0  0  0
   -7.6313   11.2078  -31.3447 N   0  0  0  0  0  0  0  0  0  0  0  0
   -8.1188   11.9565  -32.3282 C   0  0  0  0  0  0  0  0  0  0  0  0
   -9.4879   12.1921  -32.3197 C   0  0  0  0  0  0  0  0  0  0  0  0
  -10.3410   11.6975  -31.3632 C   0  0  0  0  0  0  0  0  0  0  0  0
   -9.7909   10.9179  -30.3505 C   0  0  0  0  0  0  0  0  0  0  0  0
  -10.6320   10.3374  -29.2810 C   0  0  0  0  0  0  0  0  0  0  0  0
  -11.7779    9.6246  -29.8133 N   0  0  0  0  0  0  0  0  0  0  0  0
  -13.7077    9.0916  -30.8292 C   0  0  0  0  0  0  0  0  0  0  0  0
  -13.1471    7.9393  -30.3279 C   0  0  0  0  0  0  0  0  0  0  0  0
  -11.2119    7.2870  -29.1234 C   0  0  0  0  0  0  0  0  0  0  0  0
  -12.8411    5.6508  -29.7953 C   0  0  0  0  0  0  0  0  0  0  0  0
  -10.8237    4.9549  -28.5392 C   0  0  0  0  0  0  0  0  0  0  0  0
  -11.3611    3.9897  -27.7157 C   0  0  0  0  0  0  0  0  0  0  0  0
  -13.8735    3.7392  -27.0653 N   0  0  0  0  0  0  0  0  0  0  0  0
   -9.1754    3.6769  -27.8849 N   0  0  0  0  0  0  0  0  0  0  0  0
   -9.5068    4.7384  -28.6202 N   0  0  0  0  0  0  0  0  0  0  0  0
  -10.3713    2.0707  -26.4587 N   0  0  0  0  0  0  0  0  0  0  0  0
 15  1  1  0
 16  1  2  0
  2 15  1  0
  2 17  2  0
 18  2  1  0
  3 18  2  0
  3 19  1  0
 20  3  1  0
  4 17  1  0
 19  4  2  0
 21  5  1  0
  5 22  3  0
 21  6  2  0
  6 23  1  0
  6 25  1  0
  8  7  2  0
  8  9  1  0
 13  8  1  0
  9 10  1  0
 11 10  2  0
 12 11  1  0
 13 12  2  0
 14 13  1  0
 15 14  1  0
 17 16  1  0
 20 21  1  0
 20 24  2  0
 23 24  1  0
M  END
$$$$
