
     RDKit          3D

 25 28  0  0  0  0  0  0  0  0999 V2000
  -25.4151   20.1715  -11.0566 C   0  0  0  0  0  0  0  0  0  0  0  0
  -23.4124   19.6059  -11.6204 C   0  0  0  0  0  0  0  0  0  0  0  0
  -21.5495   18.4381  -12.5416 C   0  0  0  0  0  0  0  0  0  0  0  0
  -23.7680   17.5535  -12.8426 C   0  0  0  0  0  0  0  0  0  0  0  0
  -20.0095   15.8447  -12.4190 C   0  0  0  0  0  0  0  0  0  0  0  0
  -18.1181   17.4342  -12.9529 C   0  0  0  0  0  0  0  0  0  0  0  0
  -21.6433   22.8064   -8.6714 O   0  0  0  0  0  0  0  0  0  0  0  0
  -22.5642   22.1513   -8.0883 C   0  0  0  0  0  0  0  0  0  0  0  0
  -22.5026   22.0502   -6.7411 N   0  0  0  0  0  0  0  0  0  0  0  0
  -23.4253   21.3825   -6.0566 C   0  0  0  0  0  0  0  0  0  0  0  0
  -24.4501   20.7967   -6.7892 C   0  0  0  0  0  0  0  0  0  0  0  0
  -24.5510   20.8746   -8.1570 C   0  0  0  0  0  0  0  0  0  0  0  0
  -23.5647   21.5831   -8.8363 C   0  0  0  0  0  0  0  0  0  0  0  0
  -23.5934   21.7260  -10.3083 C   0  0  0  0  0  0  0  0  0  0  0  0
  -24.1423   20.5523  -10.9606 N   0  0  0  0  0  0  0  0  0  0  0  0
  -25.5271   18.9832  -11.7735 C   0  0  0  0  0  0  0  0  0  0  0  0
  -24.2382   18.6474  -12.1191 C   0  0  0  0  0  0  0  0  0  0  0  0
  -22.0454   19.5025  -11.8333 C   0  0  0  0  0  0  0  0  0  0  0  0
  -22.4107   17.4598  -13.0486 C   0  0  0  0  0  0  0  0  0  0  0  0
  -20.1149   18.3420  -12.7594 C   0  0  0  0  0  0  0  0  0  0  0  0
  -19.4403   17.1424  -12.6958 C   0  0  0  0  0  0  0  0  0  0  0  0
  -20.4833   14.8030  -12.2087 N   0  0  0  0  0  0  0  0  0  0  0  0
  -18.0089   18.7661  -13.1631 N   0  0  0  0  0  0  0  0  0  0  0  0
  -19.2250   19.2989  -13.0424 N   0  0  0  0  0  0  0  0  0  0  0  0
  -17.0411   16.5124  -12.9949 N   0  0  0  0  0  0  0  0  0  0  0  0
 15  1  1  0
 16  1  2  0
  2 15  1  0
  2 17  2  0
 18  2  1  0
  3 18  2  0
  3 19  1  0
 20  3  1  0
  4 17  1  0
 19  4  2  0
 21  5  1  0
  5 22  3  0
 21  6  2  0
  6 23  1  0
  6 25  1  0
  8  7  2  0
  8  9  1  0
 13  8  1  0
  9 10  1  0
 11 10  2  0
 12 11  1  0
 13 12  2  0
 14 13  1  0
 15 14  1  0
 17 16  1  0
 20 21  1  0
 20 24  2  0
 23 24  1  0
M  END
$$$$
