
     RDKit          3D

 25 28  0  0  0  0  0  0  0  0999 V2000
  -12.9988    8.3379  -30.8406 C   0  0  0  0  0  0  0  0  0  0  0  0
  -12.8015    8.6411  -28.6640 C   0  0  0  0  0  0  0  0  0  0  0  0
  -13.3976    9.1530  -26.3694 C   0  0  0  0  0  0  0  0  0  0  0  0
  -15.0668    9.2316  -28.0224 C   0  0  0  0  0  0  0  0  0  0  0  0
  -14.0477   11.5136  -24.5426 C   0  0  0  0  0  0  0  0  0  0  0  0
  -12.7303   10.1249  -22.8825 C   0  0  0  0  0  0  0  0  0  0  0  0
   -7.9173    7.9024  -30.3501 O   0  0  0  0  0  0  0  0  0  0  0  0
   -8.5162    8.9680  -30.5429 C   0  0  0  0  0  0  0  0  0  0  0  0
   -7.7569   10.0316  -30.9516 N   0  0  0  0  0  0  0  0  0  0  0  0
   -8.3222   11.2203  -31.1824 C   0  0  0  0  0  0  0  0  0  0  0  0
   -9.6740   11.4010  -31.0149 C   0  0  0  0  0  0  0  0  0  0  0  0
  -10.4190   10.3225  -30.6045 C   0  0  0  0  0  0  0  0  0  0  0  0
   -9.8658    9.0571  -30.3513 C   0  0  0  0  0  0  0  0  0  0  0  0
  -10.7522    7.9698  -29.9222 C   0  0  0  0  0  0  0  0  0  0  0  0
  -12.1392    8.3235  -29.7780 N   0  0  0  0  0  0  0  0  0  0  0  0
  -14.2373    8.6786  -30.3449 C   0  0  0  0  0  0  0  0  0  0  0  0
  -14.1258    8.8704  -28.9853 C   0  0  0  0  0  0  0  0  0  0  0  0
  -12.4735    8.7948  -27.3342 C   0  0  0  0  0  0  0  0  0  0  0  0
  -14.6992    9.3740  -26.7020 C   0  0  0  0  0  0  0  0  0  0  0  0
  -12.9983    9.3039  -24.9641 C   0  0  0  0  0  0  0  0  0  0  0  0
  -13.2885   10.3648  -24.1367 C   0  0  0  0  0  0  0  0  0  0  0  0
  -14.6429   12.4295  -24.8779 N   0  0  0  0  0  0  0  0  0  0  0  0
  -12.1199    8.9178  -23.0034 N   0  0  0  0  0  0  0  0  0  0  0  0
  -12.2833    8.4436  -24.2309 N   0  0  0  0  0  0  0  0  0  0  0  0
  -12.7922   10.9622  -21.7393 N   0  0  0  0  0  0  0  0  0  0  0  0
 15  1  1  0
 16  1  2  0
  2 15  1  0
  2 17  2  0
 18  2  1  0
  3 18  2  0
  3 19  1  0
 20  3  1  0
  4 17  1  0
 19  4  2  0
 21  5  1  0
  5 22  3  0
 21  6  2  0
  6 23  1  0
  6 25  1  0
  8  7  2  0
  8  9  1  0
 13  8  1  0
  9 10  1  0
 11 10  2  0
 12 11  1  0
 13 12  2  0
 14 13  1  0
 14 15  1  6
 17 16  1  0
 20 21  1  0
 20 24  2  0
 23 24  1  0
M  END
$$$$
