
     RDKit          3D

 25 28  0  0  0  0  0  0  0  0999 V2000
  -13.0011    8.8843  -30.0590 C   0  0  0  0  0  0  0  0  0  0  0  0
  -12.8206    9.2100  -27.9354 C   0  0  0  0  0  0  0  0  0  0  0  0
  -12.9140   10.1936  -25.7659 C   0  0  0  0  0  0  0  0  0  0  0  0
  -13.7205   11.4346  -27.6642 C   0  0  0  0  0  0  0  0  0  0  0  0
  -15.0487   10.5746  -23.6658 C   0  0  0  0  0  0  0  0  0  0  0  0
  -13.0625   10.1175  -22.1709 C   0  0  0  0  0  0  0  0  0  0  0  0
  -10.3782    4.8087  -28.2666 O   0  0  0  0  0  0  0  0  0  0  0  0
   -9.7948    5.8734  -28.6455 C   0  0  0  0  0  0  0  0  0  0  0  0
   -8.4494    5.8359  -28.7776 N   0  0  0  0  0  0  0  0  0  0  0  0
   -7.7646    6.9056  -29.1682 C   0  0  0  0  0  0  0  0  0  0  0  0
   -8.4950    8.0576  -29.4322 C   0  0  0  0  0  0  0  0  0  0  0  0
   -9.8609    8.1393  -29.3111 C   0  0  0  0  0  0  0  0  0  0  0  0
  -10.5406    6.9970  -28.8997 C   0  0  0  0  0  0  0  0  0  0  0  0
  -12.0119    6.9882  -28.7471 C   0  0  0  0  0  0  0  0  0  0  0  0
  -12.5883    8.3065  -28.9321 N   0  0  0  0  0  0  0  0  0  0  0  0
  -13.5021   10.1594  -29.8108 C   0  0  0  0  0  0  0  0  0  0  0  0
  -13.3747   10.3391  -28.4525 C   0  0  0  0  0  0  0  0  0  0  0  0
  -12.5851    9.1328  -26.5703 C   0  0  0  0  0  0  0  0  0  0  0  0
  -13.4832   11.3485  -26.3115 C   0  0  0  0  0  0  0  0  0  0  0  0
  -12.6637   10.0996  -24.3365 C   0  0  0  0  0  0  0  0  0  0  0  0
  -13.6602   10.2796  -23.4021 C   0  0  0  0  0  0  0  0  0  0  0  0
  -16.1731   10.7990  -23.8640 N   0  0  0  0  0  0  0  0  0  0  0  0
  -11.7510    9.8494  -22.3661 N   0  0  0  0  0  0  0  0  0  0  0  0
  -11.5275    9.8424  -23.6803 N   0  0  0  0  0  0  0  0  0  0  0  0
  -13.6946   10.2114  -20.9048 N   0  0  0  0  0  0  0  0  0  0  0  0
 15  1  1  0
 16  1  2  0
  2 15  1  0
  2 17  2  0
 18  2  1  0
  3 18  2  0
  3 19  1  0
 20  3  1  0
  4 17  1  0
 19  4  2  0
 21  5  1  0
  5 22  3  0
 21  6  2  0
  6 23  1  0
  6 25  1  0
  8  7  2  0
  8  9  1  0
 13  8  1  0
  9 10  1  0
 11 10  2  0
 12 11  1  0
 13 12  2  0
 14 13  1  0
 15 14  1  0
 17 16  1  0
 20 21  1  0
 20 24  2  0
 23 24  1  0
M  END
$$$$
