
     RDKit          3D

 25 28  0  0  0  0  0  0  0  0999 V2000
  -25.3367   20.8056  -11.8829 C   0  0  0  0  0  0  0  0  0  0  0  0
  -23.2867   19.9893  -11.8851 C   0  0  0  0  0  0  0  0  0  0  0  0
  -21.2970   18.8234  -12.6364 C   0  0  0  0  0  0  0  0  0  0  0  0
  -23.1651   18.9181  -14.0599 C   0  0  0  0  0  0  0  0  0  0  0  0
  -20.1951   16.0027  -13.0384 C   0  0  0  0  0  0  0  0  0  0  0  0
  -18.0708   17.1046  -12.2056 C   0  0  0  0  0  0  0  0  0  0  0  0
  -23.6239   21.6478   -7.0503 O   0  0  0  0  0  0  0  0  0  0  0  0
  -24.3386   20.7083   -7.4217 C   0  0  0  0  0  0  0  0  0  0  0  0
  -24.8862   19.9296   -6.4375 N   0  0  0  0  0  0  0  0  0  0  0  0
  -25.6701   18.8933   -6.7494 C   0  0  0  0  0  0  0  0  0  0  0  0
  -25.9431   18.5870   -8.0608 C   0  0  0  0  0  0  0  0  0  0  0  0
  -25.3847   19.3795   -9.0338 C   0  0  0  0  0  0  0  0  0  0  0  0
  -24.5563   20.4772   -8.7503 C   0  0  0  0  0  0  0  0  0  0  0  0
  -24.0155   21.2627   -9.8650 C   0  0  0  0  0  0  0  0  0  0  0  0
  -24.1779   20.6778  -11.1693 N   0  0  0  0  0  0  0  0  0  0  0  0
  -25.1352   20.1657  -13.0853 C   0  0  0  0  0  0  0  0  0  0  0  0
  -23.8571   19.6518  -13.0977 C   0  0  0  0  0  0  0  0  0  0  0  0
  -21.9942   19.5522  -11.6898 C   0  0  0  0  0  0  0  0  0  0  0  0
  -21.8727   18.5002  -13.8270 C   0  0  0  0  0  0  0  0  0  0  0  0
  -19.9202   18.3805  -12.3808 C   0  0  0  0  0  0  0  0  0  0  0  0
  -19.4185   17.1114  -12.5602 C   0  0  0  0  0  0  0  0  0  0  0  0
  -20.8230   15.1223  -13.4074 N   0  0  0  0  0  0  0  0  0  0  0  0
  -17.8099   18.3812  -11.8227 N   0  0  0  0  0  0  0  0  0  0  0  0
  -18.9036   19.1232  -11.9294 N   0  0  0  0  0  0  0  0  0  0  0  0
  -17.1780   16.0031  -12.2408 N   0  0  0  0  0  0  0  0  0  0  0  0
 15  1  1  0
 16  1  2  0
  2 15  1  0
  2 17  2  0
 18  2  1  0
  3 18  2  0
  3 19  1  0
 20  3  1  0
  4 17  1  0
 19  4  2  0
 21  5  1  0
  5 22  3  0
 21  6  2  0
  6 23  1  0
  6 25  1  0
  8  7  2  0
  8  9  1  0
 13  8  1  0
  9 10  1  0
 11 10  2  0
 12 11  1  0
 13 12  2  0
 14 13  1  0
 14 15  1  6
 17 16  1  0
 20 21  1  0
 20 24  2  0
 23 24  1  0
M  END
$$$$
