
     RDKit          3D

 25 28  0  0  0  0  0  0  0  0999 V2000
  -25.4188   21.1632  -11.0722 C   0  0  0  0  0  0  0  0  0  0  0  0
  -23.8267   19.7751  -11.5048 C   0  0  0  0  0  0  0  0  0  0  0  0
  -22.0116   18.6489  -12.5632 C   0  0  0  0  0  0  0  0  0  0  0  0
  -22.9960   20.5699  -13.6286 C   0  0  0  0  0  0  0  0  0  0  0  0
  -19.0515   19.0953  -12.9509 C   0  0  0  0  0  0  0  0  0  0  0  0
  -19.0665   16.5834  -12.6703 C   0  0  0  0  0  0  0  0  0  0  0  0
  -25.0124   18.3219   -6.7952 O   0  0  0  0  0  0  0  0  0  0  0  0
  -24.2552   19.3244   -6.9928 C   0  0  0  0  0  0  0  0  0  0  0  0
  -23.5208   19.7689   -5.9477 N   0  0  0  0  0  0  0  0  0  0  0  0
  -22.7057   20.8110   -6.0711 C   0  0  0  0  0  0  0  0  0  0  0  0
  -22.6457   21.4179   -7.3193 C   0  0  0  0  0  0  0  0  0  0  0  0
  -23.3735   20.9994   -8.4067 C   0  0  0  0  0  0  0  0  0  0  0  0
  -24.2151   19.9045   -8.2359 C   0  0  0  0  0  0  0  0  0  0  0  0
  -25.0325   19.3789   -9.3511 C   0  0  0  0  0  0  0  0  0  0  0  0
  -24.7894   20.0926  -10.5904 N   0  0  0  0  0  0  0  0  0  0  0  0
  -24.8777   21.5510  -12.2950 C   0  0  0  0  0  0  0  0  0  0  0  0
  -23.8675   20.6505  -12.5445 C   0  0  0  0  0  0  0  0  0  0  0  0
  -22.8847   18.7565  -11.5111 C   0  0  0  0  0  0  0  0  0  0  0  0
  -22.0652   19.5564  -13.6258 C   0  0  0  0  0  0  0  0  0  0  0  0
  -21.0279   17.5780  -12.5572 C   0  0  0  0  0  0  0  0  0  0  0  0
  -19.6826   17.8144  -12.7379 C   0  0  0  0  0  0  0  0  0  0  0  0
  -18.5432   20.1244  -13.1426 N   0  0  0  0  0  0  0  0  0  0  0  0
  -20.0154   15.6434  -12.4561 N   0  0  0  0  0  0  0  0  0  0  0  0
  -21.1945   16.2619  -12.3904 N   0  0  0  0  0  0  0  0  0  0  0  0
  -17.6783   16.3240  -12.8003 N   0  0  0  0  0  0  0  0  0  0  0  0
 15  1  1  0
 16  1  2  0
  2 15  1  0
  2 17  2  0
 18  2  1  0
  3 18  2  0
  3 19  1  0
 20  3  1  0
  4 17  1  0
 19  4  2  0
 21  5  1  0
  5 22  3  0
 21  6  2  0
  6 23  1  0
  6 25  1  0
  8  7  2  0
  8  9  1  0
 13  8  1  0
  9 10  1  0
 11 10  2  0
 12 11  1  0
 13 12  2  0
 14 13  1  0
 15 14  1  0
 17 16  1  0
 20 21  1  0
 20 24  2  0
 23 24  1  0
M  END
$$$$
