
     RDKit          3D

 25 28  0  0  0  0  0  0  0  0999 V2000
  -24.6090   19.7701  -11.2541 C   0  0  0  0  0  0  0  0  0  0  0  0
  -22.5369   19.3326  -11.8734 C   0  0  0  0  0  0  0  0  0  0  0  0
  -20.6346   18.1410  -12.7920 C   0  0  0  0  0  0  0  0  0  0  0  0
  -22.7540   17.1273  -12.8640 C   0  0  0  0  0  0  0  0  0  0  0  0
  -18.8362   15.6754  -12.6537 C   0  0  0  0  0  0  0  0  0  0  0  0
  -17.0865   17.3578  -13.3805 C   0  0  0  0  0  0  0  0  0  0  0  0
  -23.8030   21.1670   -8.0656 O   0  0  0  0  0  0  0  0  0  0  0  0
  -24.3829   22.0218   -8.7471 C   0  0  0  0  0  0  0  0  0  0  0  0
  -25.3822   22.7237   -8.1278 N   0  0  0  0  0  0  0  0  0  0  0  0
  -26.0613   23.6651   -8.7900 C   0  0  0  0  0  0  0  0  0  0  0  0
  -25.7727   23.9486  -10.1032 C   0  0  0  0  0  0  0  0  0  0  0  0
  -24.7672   23.2340  -10.7072 C   0  0  0  0  0  0  0  0  0  0  0  0
  -24.0291   22.2374  -10.0488 C   0  0  0  0  0  0  0  0  0  0  0  0
  -22.9708   21.5372  -10.7849 C   0  0  0  0  0  0  0  0  0  0  0  0
  -23.3249   20.2372  -11.2893 N   0  0  0  0  0  0  0  0  0  0  0  0
  -24.5956   18.5268  -11.8453 C   0  0  0  0  0  0  0  0  0  0  0  0
  -23.3055   18.2430  -12.2363 C   0  0  0  0  0  0  0  0  0  0  0  0
  -21.1939   19.2424  -12.1698 C   0  0  0  0  0  0  0  0  0  0  0  0
  -21.4059   17.0759  -13.1447 C   0  0  0  0  0  0  0  0  0  0  0  0
  -19.1966   18.0929  -13.0871 C   0  0  0  0  0  0  0  0  0  0  0  0
  -18.3819   16.9852  -13.0265 C   0  0  0  0  0  0  0  0  0  0  0  0
  -19.1974   14.6287  -12.3717 N   0  0  0  0  0  0  0  0  0  0  0  0
  -17.1713   18.6875  -13.6432 N   0  0  0  0  0  0  0  0  0  0  0  0
  -18.4159   19.1100  -13.4677 N   0  0  0  0  0  0  0  0  0  0  0  0
  -15.9405   16.5249  -13.4488 N   0  0  0  0  0  0  0  0  0  0  0  0
 15  1  1  0
 16  1  2  0
  2 15  1  0
  2 17  2  0
 18  2  1  0
  3 18  2  0
  3 19  1  0
 20  3  1  0
  4 17  1  0
 19  4  2  0
 21  5  1  0
  5 22  3  0
 21  6  2  0
  6 23  1  0
  6 25  1  0
  8  7  2  0
  8  9  1  0
 13  8  1  0
  9 10  1  0
 11 10  2  0
 12 11  1  0
 13 12  2  0
 14 13  1  0
 14 15  1  6
 17 16  1  0
 20 21  1  0
 20 24  2  0
 23 24  1  0
M  END
$$$$
