
     RDKit          3D

 25 28  0  0  0  0  0  0  0  0999 V2000
  -25.2038   20.0261  -12.0495 C   0  0  0  0  0  0  0  0  0  0  0  0
  -23.2622   18.9805  -11.9773 C   0  0  0  0  0  0  0  0  0  0  0  0
  -21.2498   17.8530  -12.7269 C   0  0  0  0  0  0  0  0  0  0  0  0
  -22.7717   18.6496  -14.3314 C   0  0  0  0  0  0  0  0  0  0  0  0
  -18.5003   18.4590  -13.9125 C   0  0  0  0  0  0  0  0  0  0  0  0
  -17.8195   16.5669  -12.3707 C   0  0  0  0  0  0  0  0  0  0  0  0
  -25.1105   19.6995   -7.0521 O   0  0  0  0  0  0  0  0  0  0  0  0
  -25.7970   19.0523   -7.8528 C   0  0  0  0  0  0  0  0  0  0  0  0
  -26.8993   18.4202   -7.3427 N   0  0  0  0  0  0  0  0  0  0  0  0
  -27.6961   17.6986   -8.1367 C   0  0  0  0  0  0  0  0  0  0  0  0
  -27.4275   17.5754   -9.4786 C   0  0  0  0  0  0  0  0  0  0  0  0
  -26.3174   18.2166   -9.9718 C   0  0  0  0  0  0  0  0  0  0  0  0
  -25.4544   18.9843   -9.1734 C   0  0  0  0  0  0  0  0  0  0  0  0
  -24.2985   19.6333   -9.8017 C   0  0  0  0  0  0  0  0  0  0  0  0
  -24.2298   19.5211  -11.2343 N   0  0  0  0  0  0  0  0  0  0  0  0
  -24.8051   19.7801  -13.3442 C   0  0  0  0  0  0  0  0  0  0  0  0
  -23.5927   19.1270  -13.3111 C   0  0  0  0  0  0  0  0  0  0  0  0
  -22.0729   18.3316  -11.7236 C   0  0  0  0  0  0  0  0  0  0  0  0
  -21.5890   18.0067  -14.0365 C   0  0  0  0  0  0  0  0  0  0  0  0
  -19.9912   17.1679  -12.4050 C   0  0  0  0  0  0  0  0  0  0  0  0
  -18.7501   17.4369  -12.9358 C   0  0  0  0  0  0  0  0  0  0  0  0
  -18.2948   19.2810  -14.6789 N   0  0  0  0  0  0  0  0  0  0  0  0
  -18.5420   15.8005  -11.5134 N   0  0  0  0  0  0  0  0  0  0  0  0
  -19.8175   16.1618  -11.5410 N   0  0  0  0  0  0  0  0  0  0  0  0
  -16.4279   16.5044  -12.6381 N   0  0  0  0  0  0  0  0  0  0  0  0
 15  1  1  0
 16  1  2  0
  2 15  1  0
  2 17  2  0
 18  2  1  0
  3 18  2  0
  3 19  1  0
 20  3  1  0
  4 17  1  0
 19  4  2  0
 21  5  1  0
  5 22  3  0
 21  6  2  0
  6 23  1  0
  6 25  1  0
  8  7  2  0
  8  9  1  0
 13  8  1  0
  9 10  1  0
 11 10  2  0
 12 11  1  0
 13 12  2  0
 14 13  1  0
 14 15  1  6
 17 16  1  0
 20 21  1  0
 20 24  2  0
 23 24  1  0
M  END
$$$$
