
     RDKit          3D

 25 28  0  0  0  0  0  0  0  0999 V2000
  -25.3484   20.6862  -10.2186 C   0  0  0  0  0  0  0  0  0  0  0  0
  -23.3376   20.0625  -10.8790 C   0  0  0  0  0  0  0  0  0  0  0  0
  -21.5967   18.9762  -12.1720 C   0  0  0  0  0  0  0  0  0  0  0  0
  -23.8387   18.6901  -12.8175 C   0  0  0  0  0  0  0  0  0  0  0  0
  -20.3593   16.2719  -12.8707 C   0  0  0  0  0  0  0  0  0  0  0  0
  -18.2289   17.6429  -12.8269 C   0  0  0  0  0  0  0  0  0  0  0  0
  -22.0885   23.4548   -7.2459 O   0  0  0  0  0  0  0  0  0  0  0  0
  -22.2682   23.7280   -8.4394 C   0  0  0  0  0  0  0  0  0  0  0  0
  -21.7749   24.9294   -8.8732 N   0  0  0  0  0  0  0  0  0  0  0  0
  -21.9251   25.3048  -10.1470 C   0  0  0  0  0  0  0  0  0  0  0  0
  -22.5761   24.4958  -11.0469 C   0  0  0  0  0  0  0  0  0  0  0  0
  -23.0639   23.2946  -10.5931 C   0  0  0  0  0  0  0  0  0  0  0  0
  -22.9279   22.8618   -9.2642 C   0  0  0  0  0  0  0  0  0  0  0  0
  -23.4810   21.5572   -8.8844 C   0  0  0  0  0  0  0  0  0  0  0  0
  -24.0075   20.7701   -9.9674 N   0  0  0  0  0  0  0  0  0  0  0  0
  -25.4945   19.8923  -11.3341 C   0  0  0  0  0  0  0  0  0  0  0  0
  -24.2441   19.4969  -11.7555 C   0  0  0  0  0  0  0  0  0  0  0  0
  -22.0117   19.7753  -11.1221 C   0  0  0  0  0  0  0  0  0  0  0  0
  -22.5023   18.4275  -13.0278 C   0  0  0  0  0  0  0  0  0  0  0  0
  -20.1707   18.6998  -12.3894 C   0  0  0  0  0  0  0  0  0  0  0  0
  -19.6080   17.4838  -12.7044 C   0  0  0  0  0  0  0  0  0  0  0  0
  -20.9468   15.2998  -12.9946 N   0  0  0  0  0  0  0  0  0  0  0  0
  -18.0117   18.9604  -12.5788 N   0  0  0  0  0  0  0  0  0  0  0  0
  -19.1596   19.5728  -12.3227 N   0  0  0  0  0  0  0  0  0  0  0  0
  -17.2727   16.6438  -13.1417 N   0  0  0  0  0  0  0  0  0  0  0  0
 15  1  1  0
 16  1  2  0
  2 15  1  0
  2 17  2  0
 18  2  1  0
  3 18  2  0
  3 19  1  0
 20  3  1  0
  4 17  1  0
 19  4  2  0
 21  5  1  0
  5 22  3  0
 21  6  2  0
  6 23  1  0
  6 25  1  0
  8  7  2  0
  8  9  1  0
 13  8  1  0
  9 10  1  0
 11 10  2  0
 12 11  1  0
 13 12  2  0
 14 13  1  0
 14 15  1  6
 17 16  1  0
 20 21  1  0
 20 24  2  0
 23 24  1  0
M  END
$$$$
