
     RDKit          3D

 25 28  0  0  0  0  0  0  0  0999 V2000
  -25.6075   20.3240  -10.7315 C   0  0  0  0  0  0  0  0  0  0  0  0
  -23.5703   19.7520  -11.1453 C   0  0  0  0  0  0  0  0  0  0  0  0
  -21.6210   18.8694  -12.1960 C   0  0  0  0  0  0  0  0  0  0  0  0
  -23.7519   18.6732  -13.2983 C   0  0  0  0  0  0  0  0  0  0  0  0
  -20.3139   16.4313  -13.4041 C   0  0  0  0  0  0  0  0  0  0  0  0
  -18.2620   17.6215  -12.5310 C   0  0  0  0  0  0  0  0  0  0  0  0
  -22.4624   22.3070   -7.0658 O   0  0  0  0  0  0  0  0  0  0  0  0
  -22.6705   22.9242   -8.1581 C   0  0  0  0  0  0  0  0  0  0  0  0
  -22.1603   24.1708   -8.2789 N   0  0  0  0  0  0  0  0  0  0  0  0
  -22.3336   24.8826   -9.3875 C   0  0  0  0  0  0  0  0  0  0  0  0
  -23.0607   24.2863  -10.4101 C   0  0  0  0  0  0  0  0  0  0  0  0
  -23.5961   23.0237  -10.3296 C   0  0  0  0  0  0  0  0  0  0  0  0
  -23.3918   22.3114   -9.1519 C   0  0  0  0  0  0  0  0  0  0  0  0
  -23.9251   20.9429   -8.9761 C   0  0  0  0  0  0  0  0  0  0  0  0
  -24.3746   20.3665  -10.2292 N   0  0  0  0  0  0  0  0  0  0  0  0
  -25.6196   19.6867  -11.9694 C   0  0  0  0  0  0  0  0  0  0  0  0
  -24.3108   19.3341  -12.2065 C   0  0  0  0  0  0  0  0  0  0  0  0
  -22.2029   19.5174  -11.1368 C   0  0  0  0  0  0  0  0  0  0  0  0
  -22.3950   18.4452  -13.2807 C   0  0  0  0  0  0  0  0  0  0  0  0
  -20.1866   18.6311  -12.1759 C   0  0  0  0  0  0  0  0  0  0  0  0
  -19.6201   17.5068  -12.7359 C   0  0  0  0  0  0  0  0  0  0  0  0
  -20.8899   15.5757  -13.9426 N   0  0  0  0  0  0  0  0  0  0  0  0
  -18.0273   18.7780  -11.8696 N   0  0  0  0  0  0  0  0  0  0  0  0
  -19.2011   19.3752  -11.6633 N   0  0  0  0  0  0  0  0  0  0  0  0
  -17.2646   16.6980  -12.9355 N   0  0  0  0  0  0  0  0  0  0  0  0
 15  1  1  0
 16  1  2  0
  2 15  1  0
  2 17  2  0
 18  2  1  0
  3 18  2  0
  3 19  1  0
 20  3  1  0
  4 17  1  0
 19  4  2  0
 21  5  1  0
  5 22  3  0
 21  6  2  0
  6 23  1  0
  6 25  1  0
  8  7  2  0
  8  9  1  0
 13  8  1  0
  9 10  1  0
 11 10  2  0
 12 11  1  0
 13 12  2  0
 14 13  1  0
 15 14  1  0
 17 16  1  0
 20 21  1  0
 20 24  2  0
 23 24  1  0
M  END
$$$$
