
     RDKit          3D

 25 28  0  0  0  0  0  0  0  0999 V2000
  -24.3712   19.3633  -11.5133 C   0  0  0  0  0  0  0  0  0  0  0  0
  -23.0139   20.4753  -10.2605 C   0  0  0  0  0  0  0  0  0  0  0  0
  -22.0646   21.6670   -8.4270 C   0  0  0  0  0  0  0  0  0  0  0  0
  -24.3073   20.8109   -8.2488 C   0  0  0  0  0  0  0  0  0  0  0  0
  -20.9275   21.0681   -5.6956 C   0  0  0  0  0  0  0  0  0  0  0  0
  -19.3968   22.9576   -6.3852 C   0  0  0  0  0  0  0  0  0  0  0  0
  -19.4139   19.5021  -12.9399 O   0  0  0  0  0  0  0  0  0  0  0  0
  -20.1038   18.4418  -12.8085 C   0  0  0  0  0  0  0  0  0  0  0  0
  -19.4531   17.2589  -12.8865 N   0  0  0  0  0  0  0  0  0  0  0  0
  -20.1010   16.1056  -12.7604 C   0  0  0  0  0  0  0  0  0  0  0  0
  -21.4719   16.1749  -12.5459 C   0  0  0  0  0  0  0  0  0  0  0  0
  -22.1719   17.3539  -12.4600 C   0  0  0  0  0  0  0  0  0  0  0  0
  -21.4563   18.5393  -12.5972 C   0  0  0  0  0  0  0  0  0  0  0  0
  -22.1236   19.8568  -12.5130 C   0  0  0  0  0  0  0  0  0  0  0  0
  -23.1466   19.8865  -11.4850 N   0  0  0  0  0  0  0  0  0  0  0  0
  -25.0437   19.6037  -10.3181 C   0  0  0  0  0  0  0  0  0  0  0  0
  -24.1563   20.3123   -9.5410 C   0  0  0  0  0  0  0  0  0  0  0  0
  -21.9489   21.1633   -9.6972 C   0  0  0  0  0  0  0  0  0  0  0  0
  -23.2455   21.4918   -7.6988 C   0  0  0  0  0  0  0  0  0  0  0  0
  -20.9406   22.3847   -7.8473 C   0  0  0  0  0  0  0  0  0  0  0  0
  -20.4448   22.0878   -6.5965 C   0  0  0  0  0  0  0  0  0  0  0  0
  -21.3350   20.2548   -4.9699 N   0  0  0  0  0  0  0  0  0  0  0  0
  -19.2725   23.7478   -7.4761 N   0  0  0  0  0  0  0  0  0  0  0  0
  -20.2132   23.3879   -8.3495 N   0  0  0  0  0  0  0  0  0  0  0  0
  -18.5767   23.0292   -5.2304 N   0  0  0  0  0  0  0  0  0  0  0  0
 15  1  1  0
 16  1  2  0
  2 15  1  0
  2 17  2  0
 18  2  1  0
  3 18  2  0
  3 19  1  0
 20  3  1  0
  4 17  1  0
 19  4  2  0
 21  5  1  0
  5 22  3  0
 21  6  2  0
  6 23  1  0
  6 25  1  0
  8  7  2  0
  8  9  1  0
 13  8  1  0
  9 10  1  0
 11 10  2  0
 12 11  1  0
 13 12  2  0
 14 13  1  0
 15 14  1  0
 17 16  1  0
 20 21  1  0
 20 24  2  0
 23 24  1  0
M  END
$$$$
