
     RDKit          3D

 25 28  0  0  0  0  0  0  0  0999 V2000
  -24.4456   19.8238  -11.3351 C   0  0  0  0  0  0  0  0  0  0  0  0
  -22.3714   19.2663  -11.8404 C   0  0  0  0  0  0  0  0  0  0  0  0
  -20.5004   17.9961  -12.7172 C   0  0  0  0  0  0  0  0  0  0  0  0
  -22.6791   17.1682  -13.0217 C   0  0  0  0  0  0  0  0  0  0  0  0
  -19.1008   15.8808  -14.4198 C   0  0  0  0  0  0  0  0  0  0  0  0
  -17.0399   17.1082  -13.6034 C   0  0  0  0  0  0  0  0  0  0  0  0
  -22.5144   23.6407   -8.8177 O   0  0  0  0  0  0  0  0  0  0  0  0
  -23.6417   23.2633   -9.1612 C   0  0  0  0  0  0  0  0  0  0  0  0
  -24.7031   23.9595   -8.6478 N   0  0  0  0  0  0  0  0  0  0  0  0
  -25.9557   23.6191   -8.9656 C   0  0  0  0  0  0  0  0  0  0  0  0
  -26.2055   22.5660   -9.8121 C   0  0  0  0  0  0  0  0  0  0  0  0
  -25.1281   21.8798  -10.3170 C   0  0  0  0  0  0  0  0  0  0  0  0
  -23.7969   22.2039  -10.0094 C   0  0  0  0  0  0  0  0  0  0  0  0
  -22.7185   21.4096  -10.6079 C   0  0  0  0  0  0  0  0  0  0  0  0
  -23.1307   20.1853  -11.2411 N   0  0  0  0  0  0  0  0  0  0  0  0
  -24.4815   18.6323  -12.0240 C   0  0  0  0  0  0  0  0  0  0  0  0
  -23.1906   18.2743  -12.3450 C   0  0  0  0  0  0  0  0  0  0  0  0
  -21.0203   19.0891  -12.0477 C   0  0  0  0  0  0  0  0  0  0  0  0
  -21.3212   17.0280  -13.2098 C   0  0  0  0  0  0  0  0  0  0  0  0
  -19.0519   17.8528  -12.9130 C   0  0  0  0  0  0  0  0  0  0  0  0
  -18.4162   16.9021  -13.6788 C   0  0  0  0  0  0  0  0  0  0  0  0
  -19.6455   15.0589  -14.9971 N   0  0  0  0  0  0  0  0  0  0  0  0
  -16.8980   18.1848  -12.7878 N   0  0  0  0  0  0  0  0  0  0  0  0
  -18.0866   18.6151  -12.3874 N   0  0  0  0  0  0  0  0  0  0  0  0
  -16.0214   16.3550  -14.2414 N   0  0  0  0  0  0  0  0  0  0  0  0
 15  1  1  0
 16  1  2  0
  2 15  1  0
  2 17  2  0
 18  2  1  0
  3 18  2  0
  3 19  1  0
 20  3  1  0
  4 17  1  0
 19  4  2  0
 21  5  1  0
  5 22  3  0
 21  6  2  0
  6 23  1  0
  6 25  1  0
  8  7  2  0
  8  9  1  0
 13  8  1  0
  9 10  1  0
 11 10  2  0
 12 11  1  0
 13 12  2  0
 14 13  1  0
 14 15  1  6
 17 16  1  0
 20 21  1  0
 20 24  2  0
 23 24  1  0
M  END
$$$$
