
     RDKit          3D

 21 24  0  0  0  0  0  0  0  0999 V2000
   32.5938   32.9240   20.3471 C   0  0  0  0  0  0  0  0  0  0  0  0
   33.4939   29.9335   25.2023 C   0  0  0  0  0  0  0  0  0  0  0  0
   31.7295   30.7222   20.7823 C   0  0  0  0  0  0  0  0  0  0  0  0
   33.6804   32.5690   21.1207 C   0  0  0  0  0  0  0  0  0  0  0  0
   34.0115   30.2854   26.4335 C   0  0  0  0  0  0  0  0  0  0  0  0
   35.3100   29.9938   26.7600 C   0  0  0  0  0  0  0  0  0  0  0  0
   35.1746   28.0076   22.5737 C   0  0  0  0  0  0  0  0  0  0  0  0
   34.0263   28.7933   22.9384 N   0  0  0  0  0  0  0  0  0  0  0  0
   36.2101   28.3326   23.5492 N   0  0  0  0  0  0  0  0  0  0  0  0
   34.2595   29.2752   24.2503 C   0  0  0  0  0  0  0  0  0  0  0  0
   35.5815   28.9908   24.6117 C   0  0  0  0  0  0  0  0  0  0  0  0
   35.7256   28.3590   21.2816 N   0  0  0  0  0  0  0  0  0  0  0  0
   32.8720   29.0460   22.1461 C   0  0  0  0  0  0  0  0  0  0  0  0
   37.5931   27.9724   23.3138 C   0  0  0  0  0  0  0  0  0  0  0  0
   32.8213   30.3958   21.5468 C   0  0  0  0  0  0  0  0  0  0  0  0
   32.4902   34.1534   19.7677 F   0  0  0  0  0  0  0  0  0  0  0  0
   36.7854   27.4405   20.9860 C   0  0  0  0  0  0  0  0  0  0  0  0
   36.0874   29.3496   25.8503 C   0  0  0  0  0  0  0  0  0  0  0  0
   33.8088   31.3370   21.7154 C   0  0  0  0  0  0  0  0  0  0  0  0
   31.6124   31.9640   20.1899 C   0  0  0  0  0  0  0  0  0  0  0  0
   37.6484   27.0599   22.1377 C   0  0  0  0  0  0  0  0  0  0  0  0
  1  4  2  0
  1 16  1  0
 20  1  1  0
  2  5  2  0
 10  2  1  0
 15  3  1  0
  3 20  2  0
  4 19  1  0
  5  6  1  0
 18  6  2  0
  8  7  1  0
  7  9  1  0
  7 12  1  0
  8 10  1  0
 13  8  1  0
 11  9  1  0
  9 14  1  0
 10 11  2  0
 11 18  1  0
 12 17  1  0
 13 15  1  0
 14 21  1  0
 15 19  2  0
 17 21  1  0
M  END
$$$$
