
     RDKit          3D

 21 24  0  0  0  0  0  0  0  0999 V2000
   32.5532   32.8581   20.0642 C   0  0  0  0  0  0  0  0  0  0  0  0
   33.5278   29.6646   25.0991 C   0  0  0  0  0  0  0  0  0  0  0  0
   31.9468   30.6104   20.4648 C   0  0  0  0  0  0  0  0  0  0  0  0
   33.6020   32.7152   20.9559 C   0  0  0  0  0  0  0  0  0  0  0  0
   33.9278   29.9521   26.3910 C   0  0  0  0  0  0  0  0  0  0  0  0
   35.2680   29.9471   26.7525 C   0  0  0  0  0  0  0  0  0  0  0  0
   35.6513   28.6067   22.3146 C   0  0  0  0  0  0  0  0  0  0  0  0
   34.3628   29.0404   22.7762 N   0  0  0  0  0  0  0  0  0  0  0  0
   36.5591   29.0218   23.3325 N   0  0  0  0  0  0  0  0  0  0  0  0
   34.5138   29.3642   24.1494 C   0  0  0  0  0  0  0  0  0  0  0  0
   35.8479   29.3542   24.4888 C   0  0  0  0  0  0  0  0  0  0  0  0
   35.7970   27.1765   22.2066 N   0  0  0  0  0  0  0  0  0  0  0  0
   33.1501   29.1322   22.0044 C   0  0  0  0  0  0  0  0  0  0  0  0
   37.9594   29.0013   22.9731 C   0  0  0  0  0  0  0  0  0  0  0  0
   32.9789   30.4454   21.3518 C   0  0  0  0  0  0  0  0  0  0  0  0
   32.2960   34.0137   19.4050 F   0  0  0  0  0  0  0  0  0  0  0  0
   37.1103   26.6797   22.4018 C   0  0  0  0  0  0  0  0  0  0  0  0
   36.2179   29.6508   25.8095 C   0  0  0  0  0  0  0  0  0  0  0  0
   33.8134   31.5032   21.6007 C   0  0  0  0  0  0  0  0  0  0  0  0
   31.7204   31.7881   19.8215 C   0  0  0  0  0  0  0  0  0  0  0  0
   38.2258   27.6622   22.3623 C   0  0  0  0  0  0  0  0  0  0  0  0
  1  4  2  0
  1 16  1  0
 20  1  1  0
  2  5  2  0
 10  2  1  0
 15  3  1  0
  3 20  2  0
  4 19  1  0
  5  6  1  0
 18  6  2  0
  8  7  1  0
  7  9  1  0
  7 12  1  0
  8 10  1  0
 13  8  1  1
 11  9  1  0
 14  9  1  1
 10 11  2  0
 11 18  1  0
 17 12  1  1
 13 15  1  0
 21 14  1  1
 15 19  2  0
 17 21  1  0
M  END
$$$$
