
     RDKit          3D

 21 24  0  0  0  0  0  0  0  0999 V2000
   32.4573   33.0673   20.0530 C   0  0  0  0  0  0  0  0  0  0  0  0
   33.5419   30.1283   25.1095 C   0  0  0  0  0  0  0  0  0  0  0  0
   31.8536   30.7546   20.3205 C   0  0  0  0  0  0  0  0  0  0  0  0
   33.2712   32.9049   21.1559 C   0  0  0  0  0  0  0  0  0  0  0  0
   34.1345   30.4600   26.3122 C   0  0  0  0  0  0  0  0  0  0  0  0
   35.4568   30.1852   26.5443 C   0  0  0  0  0  0  0  0  0  0  0  0
   35.0761   28.2984   22.3272 C   0  0  0  0  0  0  0  0  0  0  0  0
   33.9414   29.0532   22.7871 N   0  0  0  0  0  0  0  0  0  0  0  0
   36.1687   28.6193   23.2397 N   0  0  0  0  0  0  0  0  0  0  0  0
   34.2534   29.5077   24.0925 C   0  0  0  0  0  0  0  0  0  0  0  0
   35.6013   29.2396   24.3580 C   0  0  0  0  0  0  0  0  0  0  0  0
   35.5334   28.6912   21.0107 N   0  0  0  0  0  0  0  0  0  0  0  0
   32.7326   29.3032   22.0799 C   0  0  0  0  0  0  0  0  0  0  0  0
   37.5389   28.2910   22.9040 C   0  0  0  0  0  0  0  0  0  0  0  0
   32.6709   30.6212   21.4146 C   0  0  0  0  0  0  0  0  0  0  0  0
   32.3586   34.2579   19.3969 F   0  0  0  0  0  0  0  0  0  0  0  0
   36.5867   27.8003   20.6222 C   0  0  0  0  0  0  0  0  0  0  0  0
   36.1826   29.5779   25.5690 C   0  0  0  0  0  0  0  0  0  0  0  0
   33.3883   31.7159   21.8346 C   0  0  0  0  0  0  0  0  0  0  0  0
   31.7447   31.9551   19.6470 C   0  0  0  0  0  0  0  0  0  0  0  0
   37.5312   27.4083   21.7041 C   0  0  0  0  0  0  0  0  0  0  0  0
  1  4  2  0
  1 16  1  0
 20  1  1  0
  2  5  2  0
 10  2  1  0
 15  3  1  0
  3 20  2  0
  4 19  1  0
  5  6  1  0
 18  6  2  0
  8  7  1  0
  7  9  1  0
  7 12  1  0
  8 10  1  0
 13  8  1  0
 11  9  1  0
  9 14  1  0
 10 11  2  0
 11 18  1  0
 12 17  1  0
 13 15  1  0
 14 21  1  0
 15 19  2  0
 17 21  1  0
M  END
$$$$
