
     RDKit          3D

 21 24  0  0  0  0  0  0  0  0999 V2000
   38.2560   33.3119   21.2410 C   0  0  0  0  0  0  0  0  0  0  0  0
   35.4340   30.7404   25.8201 C   0  0  0  0  0  0  0  0  0  0  0  0
   37.3196   32.3242   23.1717 C   0  0  0  0  0  0  0  0  0  0  0  0
   39.0349   32.1818   21.0625 C   0  0  0  0  0  0  0  0  0  0  0  0
   34.2737   30.7839   26.5706 C   0  0  0  0  0  0  0  0  0  0  0  0
   33.2530   29.8625   26.3806 C   0  0  0  0  0  0  0  0  0  0  0  0
   36.1797   28.4863   23.0372 C   0  0  0  0  0  0  0  0  0  0  0  0
   36.6400   29.4804   23.9652 N   0  0  0  0  0  0  0  0  0  0  0  0
   34.9930   27.9615   23.6278 N   0  0  0  0  0  0  0  0  0  0  0  0
   35.5617   29.7355   24.8515 C   0  0  0  0  0  0  0  0  0  0  0  0
   34.5605   28.8128   24.6484 C   0  0  0  0  0  0  0  0  0  0  0  0
   35.7907   29.0053   21.7497 N   0  0  0  0  0  0  0  0  0  0  0  0
   37.9389   30.1021   23.9978 C   0  0  0  0  0  0  0  0  0  0  0  0
   34.5047   26.7227   23.0646 C   0  0  0  0  0  0  0  0  0  0  0  0
   38.0809   31.1949   23.0153 C   0  0  0  0  0  0  0  0  0  0  0  0
   38.2988   34.3782   20.4060 F   0  0  0  0  0  0  0  0  0  0  0  0
   34.7805   28.2739   21.0758 C   0  0  0  0  0  0  0  0  0  0  0  0
   33.3963   28.8868   25.4283 C   0  0  0  0  0  0  0  0  0  0  0  0
   38.9450   31.1208   21.9545 C   0  0  0  0  0  0  0  0  0  0  0  0
   37.3908   33.3757   22.3108 C   0  0  0  0  0  0  0  0  0  0  0  0
   34.4720   26.9097   21.5809 C   0  0  0  0  0  0  0  0  0  0  0  0
  1  4  2  0
  1 16  1  0
 20  1  1  0
  2  5  2  0
 10  2  1  0
 15  3  1  0
  3 20  2  0
  4 19  1  0
  5  6  1  0
 18  6  2  0
  8  7  1  0
  7  9  1  0
  7 12  1  0
  8 10  1  0
 13  8  1  1
 11  9  1  0
 14  9  1  1
 10 11  2  0
 11 18  1  0
 17 12  1  1
 13 15  1  0
 21 14  1  1
 15 19  2  0
 17 21  1  0
M  END
$$$$
