
     RDKit          3D

 21 24  0  0  0  0  0  0  0  0999 V2000
   32.4822   32.9952   20.1469 C   0  0  0  0  0  0  0  0  0  0  0  0
   33.4204   29.5878   24.7995 C   0  0  0  0  0  0  0  0  0  0  0  0
   33.6482   31.4012   21.4428 C   0  0  0  0  0  0  0  0  0  0  0  0
   31.5407   32.0289   19.8380 C   0  0  0  0  0  0  0  0  0  0  0  0
   33.8740   29.8576   26.0774 C   0  0  0  0  0  0  0  0  0  0  0  0
   35.2249   29.8062   26.3925 C   0  0  0  0  0  0  0  0  0  0  0  0
   35.4100   28.4679   21.9414 C   0  0  0  0  0  0  0  0  0  0  0  0
   34.1536   28.9433   22.4480 N   0  0  0  0  0  0  0  0  0  0  0  0
   36.3658   28.8488   22.9283 N   0  0  0  0  0  0  0  0  0  0  0  0
   34.3625   29.2574   23.8158 C   0  0  0  0  0  0  0  0  0  0  0  0
   35.7063   29.2013   24.1090 C   0  0  0  0  0  0  0  0  0  0  0  0
   35.5035   27.0339   21.8256 N   0  0  0  0  0  0  0  0  0  0  0  0
   32.9188   29.0783   21.7186 C   0  0  0  0  0  0  0  0  0  0  0  0
   37.7514   28.7823   22.5209 C   0  0  0  0  0  0  0  0  0  0  0  0
   32.7283   30.4277   21.1505 C   0  0  0  0  0  0  0  0  0  0  0  0
   32.4140   34.2674   19.6854 F   0  0  0  0  0  0  0  0  0  0  0  0
   36.8051   26.4924   21.9744 C   0  0  0  0  0  0  0  0  0  0  0  0
   36.1313   29.4811   25.4168 C   0  0  0  0  0  0  0  0  0  0  0  0
   31.6667   30.7411   20.3431 C   0  0  0  0  0  0  0  0  0  0  0  0
   33.5454   32.6692   20.9595 C   0  0  0  0  0  0  0  0  0  0  0  0
   37.9512   27.4369   21.8986 C   0  0  0  0  0  0  0  0  0  0  0  0
  1  4  2  0
  1 16  1  0
 20  1  1  0
  2  5  2  0
 10  2  1  0
 15  3  1  0
  3 20  2  0
  4 19  1  0
  5  6  1  0
 18  6  2  0
  8  7  1  0
  7  9  1  0
  7 12  1  0
  8 10  1  0
 13  8  1  1
 11  9  1  0
 14  9  1  1
 10 11  2  0
 11 18  1  0
 17 12  1  1
 13 15  1  0
 21 14  1  1
 15 19  2  0
 17 21  1  0
M  END
$$$$
