
     RDKit          3D

 21 24  0  0  0  0  0  0  0  0999 V2000
   32.3195   33.2214   20.0981 C   0  0  0  0  0  0  0  0  0  0  0  0
   33.3343   29.8706   24.9603 C   0  0  0  0  0  0  0  0  0  0  0  0
   31.7488   30.9467   20.3808 C   0  0  0  0  0  0  0  0  0  0  0  0
   33.3652   33.0511   20.9886 C   0  0  0  0  0  0  0  0  0  0  0  0
   33.7298   30.1268   26.2600 C   0  0  0  0  0  0  0  0  0  0  0  0
   35.0686   30.1126   26.6261 C   0  0  0  0  0  0  0  0  0  0  0  0
   35.4674   28.8790   22.1588 C   0  0  0  0  0  0  0  0  0  0  0  0
   34.1775   29.3020   22.6260 N   0  0  0  0  0  0  0  0  0  0  0  0
   36.3717   29.2691   23.1896 N   0  0  0  0  0  0  0  0  0  0  0  0
   34.3237   29.5927   24.0071 C   0  0  0  0  0  0  0  0  0  0  0  0
   35.6565   29.5739   24.3509 C   0  0  0  0  0  0  0  0  0  0  0  0
   35.6131   27.4517   22.0170 N   0  0  0  0  0  0  0  0  0  0  0  0
   32.9675   29.4128   21.8523 C   0  0  0  0  0  0  0  0  0  0  0  0
   37.7733   29.2567   22.8348 C   0  0  0  0  0  0  0  0  0  0  0  0
   32.7781   30.7542   21.2655 C   0  0  0  0  0  0  0  0  0  0  0  0
   32.0468   34.4043   19.4962 F   0  0  0  0  0  0  0  0  0  0  0  0
   36.9255   26.9498   22.2049 C   0  0  0  0  0  0  0  0  0  0  0  0
   36.0219   29.8387   25.6797 C   0  0  0  0  0  0  0  0  0  0  0  0
   33.5931   31.8118   21.5731 C   0  0  0  0  0  0  0  0  0  0  0  0
   31.5064   32.1514   19.7960 C   0  0  0  0  0  0  0  0  0  0  0  0
   38.0415   27.9325   22.1930 C   0  0  0  0  0  0  0  0  0  0  0  0
  1  4  2  0
  1 16  1  0
 20  1  1  0
  2  5  2  0
 10  2  1  0
 15  3  1  0
  3 20  2  0
  4 19  1  0
  5  6  1  0
 18  6  2  0
  8  7  1  0
  7  9  1  0
  7 12  1  0
  8 10  1  0
 13  8  1  1
 11  9  1  0
 14  9  1  1
 10 11  2  0
 11 18  1  0
 17 12  1  1
 13 15  1  0
 21 14  1  1
 15 19  2  0
 17 21  1  0
M  END
$$$$
