
     RDKit          3D

 21 24  0  0  0  0  0  0  0  0999 V2000
   32.4950   32.6586   20.0181 C   0  0  0  0  0  0  0  0  0  0  0  0
   33.3781   29.3740   25.3385 C   0  0  0  0  0  0  0  0  0  0  0  0
   33.6131   31.2781   21.5751 C   0  0  0  0  0  0  0  0  0  0  0  0
   31.5257   31.6812   19.8748 C   0  0  0  0  0  0  0  0  0  0  0  0
   33.8510   29.5840   26.6205 C   0  0  0  0  0  0  0  0  0  0  0  0
   35.2114   29.6274   26.8929 C   0  0  0  0  0  0  0  0  0  0  0  0
   35.3559   28.6544   22.3464 C   0  0  0  0  0  0  0  0  0  0  0  0
   34.0818   28.9778   22.9238 N   0  0  0  0  0  0  0  0  0  0  0  0
   36.3093   29.0412   23.3334 N   0  0  0  0  0  0  0  0  0  0  0  0
   34.3104   29.2035   24.3059 C   0  0  0  0  0  0  0  0  0  0  0  0
   35.6634   29.2433   24.5562 C   0  0  0  0  0  0  0  0  0  0  0  0
   35.5673   27.2473   22.1149 N   0  0  0  0  0  0  0  0  0  0  0  0
   32.8156   29.0594   22.2420 C   0  0  0  0  0  0  0  0  0  0  0  0
   37.6806   29.1278   22.8835 C   0  0  0  0  0  0  0  0  0  0  0  0
   32.6651   30.2959   21.4495 C   0  0  0  0  0  0  0  0  0  0  0  0
   32.4645   33.8339   19.3445 F   0  0  0  0  0  0  0  0  0  0  0  0
   36.9147   26.8122   22.1842 C   0  0  0  0  0  0  0  0  0  0  0  0
   36.1080   29.4585   25.8697 C   0  0  0  0  0  0  0  0  0  0  0  0
   31.6135   30.4963   20.5943 C   0  0  0  0  0  0  0  0  0  0  0  0
   33.5478   32.4466   20.8806 C   0  0  0  0  0  0  0  0  0  0  0  0
   37.9728   27.8565   22.1514 C   0  0  0  0  0  0  0  0  0  0  0  0
  1  4  2  0
  1 16  1  0
 20  1  1  0
  2  5  2  0
 10  2  1  0
 15  3  1  0
  3 20  2  0
  4 19  1  0
  5  6  1  0
 18  6  2  0
  8  7  1  0
  7  9  1  0
  7 12  1  0
  8 10  1  0
 13  8  1  1
 11  9  1  0
 14  9  1  1
 10 11  2  0
 11 18  1  0
 17 12  1  1
 13 15  1  0
 21 14  1  1
 15 19  2  0
 17 21  1  0
M  END
$$$$
