
     RDKit          3D

 21 24  0  0  0  0  0  0  0  0999 V2000
   34.0870   31.8709   25.4898 C   0  0  0  0  0  0  0  0  0  0  0  0
   35.0374   26.2066   24.7625 C   0  0  0  0  0  0  0  0  0  0  0  0
   32.9199   29.9371   24.6636 C   0  0  0  0  0  0  0  0  0  0  0  0
   35.0677   31.5827   24.5622 C   0  0  0  0  0  0  0  0  0  0  0  0
   35.8128   25.2930   25.4494 C   0  0  0  0  0  0  0  0  0  0  0  0
   37.0518   24.9337   24.9872 C   0  0  0  0  0  0  0  0  0  0  0  0
   35.8060   27.7629   21.5329 C   0  0  0  0  0  0  0  0  0  0  0  0
   34.9320   27.7362   22.6750 N   0  0  0  0  0  0  0  0  0  0  0  0
   37.0322   27.0904   21.9495 N   0  0  0  0  0  0  0  0  0  0  0  0
   35.4753   26.7955   23.5847 C   0  0  0  0  0  0  0  0  0  0  0  0
   36.7441   26.4095   23.1373 C   0  0  0  0  0  0  0  0  0  0  0  0
   36.2024   29.0998   21.1426 N   0  0  0  0  0  0  0  0  0  0  0  0
   33.7475   28.5002   22.8677 C   0  0  0  0  0  0  0  0  0  0  0  0
   38.2459   27.2050   21.1675 C   0  0  0  0  0  0  0  0  0  0  0  0
   33.9099   29.6740   23.7506 C   0  0  0  0  0  0  0  0  0  0  0  0
   34.1798   32.9394   26.3311 F   0  0  0  0  0  0  0  0  0  0  0  0
   36.9735   29.0007   19.9386 C   0  0  0  0  0  0  0  0  0  0  0  0
   37.5110   25.4919   23.8364 C   0  0  0  0  0  0  0  0  0  0  0  0
   34.9981   30.5125   23.7032 C   0  0  0  0  0  0  0  0  0  0  0  0
   33.0018   31.0161   25.5214 C   0  0  0  0  0  0  0  0  0  0  0  0
   37.9084   27.8446   19.8652 C   0  0  0  0  0  0  0  0  0  0  0  0
  1  4  2  0
  1 16  1  0
 20  1  1  0
  2  5  2  0
 10  2  1  0
 15  3  1  0
  3 20  2  0
  4 19  1  0
  5  6  1  0
 18  6  2  0
  8  7  1  0
  7  9  1  0
  7 12  1  0
  8 10  1  0
 13  8  1  0
 11  9  1  0
  9 14  1  0
 10 11  2  0
 11 18  1  0
 12 17  1  0
 13 15  1  0
 14 21  1  0
 15 19  2  0
 17 21  1  0
M  END
$$$$
