
     RDKit          3D

 21 24  0  0  0  0  0  0  0  0999 V2000
   32.5495   32.8015   19.6929 C   0  0  0  0  0  0  0  0  0  0  0  0
   34.0605   29.6013   25.5467 C   0  0  0  0  0  0  0  0  0  0  0  0
   32.7671   32.1381   21.9496 C   0  0  0  0  0  0  0  0  0  0  0  0
   32.4328   31.4706   19.3317 C   0  0  0  0  0  0  0  0  0  0  0  0
   34.8606   29.5518   26.6732 C   0  0  0  0  0  0  0  0  0  0  0  0
   36.2246   29.3105   26.5829 C   0  0  0  0  0  0  0  0  0  0  0  0
   35.0660   28.9319   22.0938 C   0  0  0  0  0  0  0  0  0  0  0  0
   34.0647   29.4034   23.0083 N   0  0  0  0  0  0  0  0  0  0  0  0
   36.2877   29.0058   22.8250 N   0  0  0  0  0  0  0  0  0  0  0  0
   34.6605   29.4007   24.2960 C   0  0  0  0  0  0  0  0  0  0  0  0
   36.0114   29.1601   24.1863 C   0  0  0  0  0  0  0  0  0  0  0  0
   34.9160   27.5525   21.7026 N   0  0  0  0  0  0  0  0  0  0  0  0
   32.7179   29.8030   22.6902 C   0  0  0  0  0  0  0  0  0  0  0  0
   37.4977   28.8993   22.0407 C   0  0  0  0  0  0  0  0  0  0  0  0
   32.6538   30.8134   21.6156 C   0  0  0  0  0  0  0  0  0  0  0  0
   32.5060   33.8169   18.7967 F   0  0  0  0  0  0  0  0  0  0  0  0
   36.1187   26.8740   21.3819 C   0  0  0  0  0  0  0  0  0  0  0  0
   36.7934   29.1167   25.3507 C   0  0  0  0  0  0  0  0  0  0  0  0
   32.4855   30.4748   20.2987 C   0  0  0  0  0  0  0  0  0  0  0  0
   32.7184   33.1305   21.0197 C   0  0  0  0  0  0  0  0  0  0  0  0
   37.3325   27.7032   21.1578 C   0  0  0  0  0  0  0  0  0  0  0  0
  1  4  2  0
  1 16  1  0
 20  1  1  0
  2  5  2  0
 10  2  1  0
 15  3  1  0
  3 20  2  0
  4 19  1  0
  5  6  1  0
 18  6  2  0
  8  7  1  0
  7  9  1  0
  7 12  1  0
  8 10  1  0
 13  8  1  1
 11  9  1  0
 14  9  1  1
 10 11  2  0
 11 18  1  0
 17 12  1  1
 13 15  1  0
 21 14  1  1
 15 19  2  0
 17 21  1  0
M  END
$$$$
