
     RDKit          3D

 21 24  0  0  0  0  0  0  0  0999 V2000
   32.4037   33.0865   20.2251 C   0  0  0  0  0  0  0  0  0  0  0  0
   33.5794   30.2079   25.2322 C   0  0  0  0  0  0  0  0  0  0  0  0
   33.1540   31.7044   22.0447 C   0  0  0  0  0  0  0  0  0  0  0  0
   31.7922   31.9577   19.7182 C   0  0  0  0  0  0  0  0  0  0  0  0
   34.2192   30.5730   26.4005 C   0  0  0  0  0  0  0  0  0  0  0  0
   35.5602   30.3462   26.5685 C   0  0  0  0  0  0  0  0  0  0  0  0
   35.0356   28.4007   22.3937 C   0  0  0  0  0  0  0  0  0  0  0  0
   33.8997   29.1214   22.9029 N   0  0  0  0  0  0  0  0  0  0  0  0
   36.1606   28.7689   23.2472 N   0  0  0  0  0  0  0  0  0  0  0  0
   34.2604   29.6007   24.1866 C   0  0  0  0  0  0  0  0  0  0  0  0
   35.6283   29.3819   24.3867 C   0  0  0  0  0  0  0  0  0  0  0  0
   35.4128   28.7943   21.0523 N   0  0  0  0  0  0  0  0  0  0  0  0
   32.6492   29.3220   22.2549 C   0  0  0  0  0  0  0  0  0  0  0  0
   37.5229   28.4839   22.8463 C   0  0  0  0  0  0  0  0  0  0  0  0
   32.5364   30.5979   21.5181 C   0  0  0  0  0  0  0  0  0  0  0  0
   32.3349   34.2916   19.5918 F   0  0  0  0  0  0  0  0  0  0  0  0
   36.4758   27.9357   20.6199 C   0  0  0  0  0  0  0  0  0  0  0  0
   36.2571   29.7532   25.5638 C   0  0  0  0  0  0  0  0  0  0  0  0
   31.8464   30.7320   20.3368 C   0  0  0  0  0  0  0  0  0  0  0  0
   33.0920   32.9307   21.4131 C   0  0  0  0  0  0  0  0  0  0  0  0
   37.4860   27.5882   21.6566 C   0  0  0  0  0  0  0  0  0  0  0  0
  1  4  2  0
  1 16  1  0
 20  1  1  0
  2  5  2  0
 10  2  1  0
 15  3  1  0
  3 20  2  0
  4 19  1  0
  5  6  1  0
 18  6  2  0
  8  7  1  0
  7  9  1  0
  7 12  1  0
  8 10  1  0
 13  8  1  0
 11  9  1  0
  9 14  1  0
 10 11  2  0
 11 18  1  0
 12 17  1  0
 13 15  1  0
 14 21  1  0
 15 19  2  0
 17 21  1  0
M  END
$$$$
