
     RDKit          3D

 21 24  0  0  0  0  0  0  0  0999 V2000
   32.0527   32.9037   20.7603 C   0  0  0  0  0  0  0  0  0  0  0  0
   33.9959   30.1373   25.3068 C   0  0  0  0  0  0  0  0  0  0  0  0
   33.4056   31.4446   22.1113 C   0  0  0  0  0  0  0  0  0  0  0  0
   31.2636   31.8029   20.4942 C   0  0  0  0  0  0  0  0  0  0  0  0
   34.6753   30.6021   26.4159 C   0  0  0  0  0  0  0  0  0  0  0  0
   36.0401   30.5084   26.4951 C   0  0  0  0  0  0  0  0  0  0  0  0
   35.4239   28.3756   22.4256 C   0  0  0  0  0  0  0  0  0  0  0  0
   34.2610   29.0039   22.9929 N   0  0  0  0  0  0  0  0  0  0  0  0
   36.5633   28.8779   23.1865 N   0  0  0  0  0  0  0  0  0  0  0  0
   34.6600   29.5602   24.2336 C   0  0  0  0  0  0  0  0  0  0  0  0
   36.0529   29.4781   24.3426 C   0  0  0  0  0  0  0  0  0  0  0  0
   35.6699   28.7551   21.0501 N   0  0  0  0  0  0  0  0  0  0  0  0
   32.9560   29.0631   22.4294 C   0  0  0  0  0  0  0  0  0  0  0  0
   37.9165   28.7081   22.6986 C   0  0  0  0  0  0  0  0  0  0  0  0
   32.6038   30.3670   21.8299 C   0  0  0  0  0  0  0  0  0  0  0  0
   31.7790   34.1324   20.2374 F   0  0  0  0  0  0  0  0  0  0  0  0
   36.7788   27.9854   20.5685 C   0  0  0  0  0  0  0  0  0  0  0  0
   36.7213   29.9483   25.4611 C   0  0  0  0  0  0  0  0  0  0  0  0
   31.5178   30.5544   21.0085 C   0  0  0  0  0  0  0  0  0  0  0  0
   33.1393   32.6943   21.5880 C   0  0  0  0  0  0  0  0  0  0  0  0
   37.8856   27.7714   21.5408 C   0  0  0  0  0  0  0  0  0  0  0  0
  1  4  2  0
  1 16  1  0
 20  1  1  0
  2  5  2  0
 10  2  1  0
 15  3  1  0
  3 20  2  0
  4 19  1  0
  5  6  1  0
 18  6  2  0
  8  7  1  0
  7  9  1  0
  7 12  1  0
  8 10  1  0
 13  8  1  0
 11  9  1  0
  9 14  1  0
 10 11  2  0
 11 18  1  0
 12 17  1  0
 13 15  1  0
 14 21  1  0
 15 19  2  0
 17 21  1  0
M  END
$$$$
