
     RDKit          3D

 21 24  0  0  0  0  0  0  0  0999 V2000
   32.4654   32.8167   21.8495 C   0  0  0  0  0  0  0  0  0  0  0  0
   36.5343   30.4990   25.3017 C   0  0  0  0  0  0  0  0  0  0  0  0
   34.2172   31.9249   23.1595 C   0  0  0  0  0  0  0  0  0  0  0  0
   33.3315   32.8884   20.7724 C   0  0  0  0  0  0  0  0  0  0  0  0
   36.6793   29.8536   26.5157 C   0  0  0  0  0  0  0  0  0  0  0  0
   36.9472   28.4934   26.5857 C   0  0  0  0  0  0  0  0  0  0  0  0
   36.5548   28.9759   21.9758 C   0  0  0  0  0  0  0  0  0  0  0  0
   36.5619   30.1669   22.7774 N   0  0  0  0  0  0  0  0  0  0  0  0
   36.9973   27.9448   22.8553 N   0  0  0  0  0  0  0  0  0  0  0  0
   36.6645   29.7440   24.1280 C   0  0  0  0  0  0  0  0  0  0  0  0
   36.9300   28.3942   24.1770 C   0  0  0  0  0  0  0  0  0  0  0  0
   35.2496   28.5749   21.5130 N   0  0  0  0  0  0  0  0  0  0  0  0
   36.4814   31.5274   22.3112 C   0  0  0  0  0  0  0  0  0  0  0  0
   37.3934   26.7061   22.2236 C   0  0  0  0  0  0  0  0  0  0  0  0
   35.0931   31.9865   22.1067 C   0  0  0  0  0  0  0  0  0  0  0  0
   31.1699   33.2081   21.7832 F   0  0  0  0  0  0  0  0  0  0  0  0
   35.0722   27.1822   21.3165 C   0  0  0  0  0  0  0  0  0  0  0  0
   37.0711   27.7717   25.4267 C   0  0  0  0  0  0  0  0  0  0  0  0
   34.6499   32.4711   20.9042 C   0  0  0  0  0  0  0  0  0  0  0  0
   32.9217   32.3279   23.0537 C   0  0  0  0  0  0  0  0  0  0  0  0
   36.2943   26.3360   21.2789 C   0  0  0  0  0  0  0  0  0  0  0  0
  1  4  2  0
  1 16  1  0
 20  1  1  0
  2  5  2  0
 10  2  1  0
 15  3  1  0
  3 20  2  0
  4 19  1  0
  5  6  1  0
 18  6  2  0
  8  7  1  0
  7  9  1  0
  7 12  1  0
  8 10  1  0
 13  8  1  1
 11  9  1  0
 14  9  1  1
 10 11  2  0
 11 18  1  0
 17 12  1  1
 13 15  1  0
 21 14  1  1
 15 19  2  0
 17 21  1  0
M  END
$$$$
