
     RDKit          3D

 21 24  0  0  0  0  0  0  0  0999 V2000
   32.1410   32.7142   20.0713 C   0  0  0  0  0  0  0  0  0  0  0  0
   33.2140   29.9212   25.1172 C   0  0  0  0  0  0  0  0  0  0  0  0
   31.4980   30.4261   20.4390 C   0  0  0  0  0  0  0  0  0  0  0  0
   33.0783   32.5328   21.0682 C   0  0  0  0  0  0  0  0  0  0  0  0
   33.7534   30.3146   26.3263 C   0  0  0  0  0  0  0  0  0  0  0  0
   35.0730   30.0850   26.6157 C   0  0  0  0  0  0  0  0  0  0  0  0
   34.8955   28.0289   22.4648 C   0  0  0  0  0  0  0  0  0  0  0  0
   33.7257   28.7696   22.8543 N   0  0  0  0  0  0  0  0  0  0  0  0
   35.9454   28.4141   23.4023 N   0  0  0  0  0  0  0  0  0  0  0  0
   33.9780   29.2819   24.1511 C   0  0  0  0  0  0  0  0  0  0  0  0
   35.3217   29.0610   24.4746 C   0  0  0  0  0  0  0  0  0  0  0  0
   35.3903   28.3836   21.1510 N   0  0  0  0  0  0  0  0  0  0  0  0
   32.5374   28.9594   22.0953 C   0  0  0  0  0  0  0  0  0  0  0  0
   37.3350   28.1106   23.1285 C   0  0  0  0  0  0  0  0  0  0  0  0
   32.4385   30.2734   21.4265 C   0  0  0  0  0  0  0  0  0  0  0  0
   32.0023   33.9023   19.4176 F   0  0  0  0  0  0  0  0  0  0  0  0
   36.4798   27.5075   20.8353 C   0  0  0  0  0  0  0  0  0  0  0  0
   35.8494   29.4609   25.6913 C   0  0  0  0  0  0  0  0  0  0  0  0
   33.2382   31.3460   21.7420 C   0  0  0  0  0  0  0  0  0  0  0  0
   31.3473   31.6242   19.7692 C   0  0  0  0  0  0  0  0  0  0  0  0
   37.3939   27.1830   21.9646 C   0  0  0  0  0  0  0  0  0  0  0  0
  1  4  2  0
  1 16  1  0
 20  1  1  0
  2  5  2  0
 10  2  1  0
 15  3  1  0
  3 20  2  0
  4 19  1  0
  5  6  1  0
 18  6  2  0
  8  7  1  0
  7  9  1  0
  7 12  1  0
  8 10  1  0
 13  8  1  0
 11  9  1  0
  9 14  1  0
 10 11  2  0
 11 18  1  0
 12 17  1  0
 13 15  1  0
 14 21  1  0
 15 19  2  0
 17 21  1  0
M  END
$$$$
