
     RDKit          3D

 21 24  0  0  0  0  0  0  0  0999 V2000
   31.9389   32.3288   20.9804 C   0  0  0  0  0  0  0  0  0  0  0  0
   34.2531   29.8108   25.4875 C   0  0  0  0  0  0  0  0  0  0  0  0
   33.3994   30.9668   22.3205 C   0  0  0  0  0  0  0  0  0  0  0  0
   31.1807   31.1921   20.7850 C   0  0  0  0  0  0  0  0  0  0  0  0
   34.9928   30.3405   26.5267 C   0  0  0  0  0  0  0  0  0  0  0  0
   36.3617   30.2800   26.5181 C   0  0  0  0  0  0  0  0  0  0  0  0
   35.5301   27.9499   22.5978 C   0  0  0  0  0  0  0  0  0  0  0  0
   34.3922   28.5784   23.2136 N   0  0  0  0  0  0  0  0  0  0  0  0
   36.7047   28.5111   23.2573 N   0  0  0  0  0  0  0  0  0  0  0  0
   34.8586   29.1995   24.3987 C   0  0  0  0  0  0  0  0  0  0  0  0
   36.2574   29.1525   24.4174 C   0  0  0  0  0  0  0  0  0  0  0  0
   35.6751   28.2712   21.1934 N   0  0  0  0  0  0  0  0  0  0  0  0
   33.0518   28.5834   22.7370 C   0  0  0  0  0  0  0  0  0  0  0  0
   38.0264   28.3483   22.6876 C   0  0  0  0  0  0  0  0  0  0  0  0
   32.6271   29.8523   22.1098 C   0  0  0  0  0  0  0  0  0  0  0  0
   31.5985   33.5279   20.4288 F   0  0  0  0  0  0  0  0  0  0  0  0
   36.7683   27.5043   20.6730 C   0  0  0  0  0  0  0  0  0  0  0  0
   36.9865   29.6879   25.4664 C   0  0  0  0  0  0  0  0  0  0  0  0
   31.5018   29.9721   21.3295 C   0  0  0  0  0  0  0  0  0  0  0  0
   33.0657   32.1873   21.7676 C   0  0  0  0  0  0  0  0  0  0  0  0
   37.9419   27.3590   21.5772 C   0  0  0  0  0  0  0  0  0  0  0  0
  1  4  2  0
  1 16  1  0
 20  1  1  0
  2  5  2  0
 10  2  1  0
 15  3  1  0
  3 20  2  0
  4 19  1  0
  5  6  1  0
 18  6  2  0
  8  7  1  0
  7  9  1  0
  7 12  1  0
  8 10  1  0
 13  8  1  0
 11  9  1  0
  9 14  1  0
 10 11  2  0
 11 18  1  0
 12 17  1  0
 13 15  1  0
 14 21  1  0
 15 19  2  0
 17 21  1  0
M  END
$$$$
