
     RDKit          3D

 21 24  0  0  0  0  0  0  0  0999 V2000
   34.4489   28.8066   27.2867 C   0  0  0  0  0  0  0  0  0  0  0  0
   37.1130   32.1606   22.9475 C   0  0  0  0  0  0  0  0  0  0  0  0
   35.4002   29.2641   25.1734 C   0  0  0  0  0  0  0  0  0  0  0  0
   33.3750   29.6157   26.9583 C   0  0  0  0  0  0  0  0  0  0  0  0
   38.3155   32.6681   22.4917 C   0  0  0  0  0  0  0  0  0  0  0  0
   39.0368   32.0332   21.4900 C   0  0  0  0  0  0  0  0  0  0  0  0
   35.5256   29.0177   21.9554 C   0  0  0  0  0  0  0  0  0  0  0  0
   35.4371   30.2653   22.6602 N   0  0  0  0  0  0  0  0  0  0  0  0
   36.5896   29.2023   21.0245 N   0  0  0  0  0  0  0  0  0  0  0  0
   36.6299   30.9777   22.3715 C   0  0  0  0  0  0  0  0  0  0  0  0
   37.3307   30.3335   21.3771 C   0  0  0  0  0  0  0  0  0  0  0  0
   35.9016   27.8933   22.7756 N   0  0  0  0  0  0  0  0  0  0  0  0
   34.3546   30.7142   23.4977 C   0  0  0  0  0  0  0  0  0  0  0  0
   36.6788   28.2194   19.9680 C   0  0  0  0  0  0  0  0  0  0  0  0
   34.3470   30.0700   24.8262 C   0  0  0  0  0  0  0  0  0  0  0  0
   34.5533   28.1634   28.4746 F   0  0  0  0  0  0  0  0  0  0  0  0
   36.6124   26.8625   22.1109 C   0  0  0  0  0  0  0  0  0  0  0  0
   38.5480   30.8770   20.9388 C   0  0  0  0  0  0  0  0  0  0  0  0
   33.3264   30.2486   25.7227 C   0  0  0  0  0  0  0  0  0  0  0  0
   35.4693   28.6342   26.3777 C   0  0  0  0  0  0  0  0  0  0  0  0
   36.6063   26.8770   20.6240 C   0  0  0  0  0  0  0  0  0  0  0  0
  1  4  2  0
  1 16  1  0
 20  1  1  0
  2  5  2  0
 10  2  1  0
 15  3  1  0
  3 20  2  0
  4 19  1  0
  5  6  1  0
 18  6  2  0
  8  7  1  0
  7  9  1  0
  7 12  1  0
  8 10  1  0
 13  8  1  1
 11  9  1  0
 14  9  1  1
 10 11  2  0
 11 18  1  0
 17 12  1  1
 13 15  1  0
 21 14  1  1
 15 19  2  0
 17 21  1  0
M  END
$$$$
