
     RDKit          3D

 21 24  0  0  0  0  0  0  0  0999 V2000
   32.5440   31.5317   24.7317 C   0  0  0  0  0  0  0  0  0  0  0  0
   36.3578   30.9276   23.2995 C   0  0  0  0  0  0  0  0  0  0  0  0
   33.5264   31.6033   22.5846 C   0  0  0  0  0  0  0  0  0  0  0  0
   32.6541   30.1522   24.7164 C   0  0  0  0  0  0  0  0  0  0  0  0
   37.4508   31.4199   23.9882 C   0  0  0  0  0  0  0  0  0  0  0  0
   38.7289   30.9254   23.7676 C   0  0  0  0  0  0  0  0  0  0  0  0
   36.3136   28.1402   20.9310 C   0  0  0  0  0  0  0  0  0  0  0  0
   35.6228   29.2430   21.5375 N   0  0  0  0  0  0  0  0  0  0  0  0
   37.6953   28.4117   21.1537 N   0  0  0  0  0  0  0  0  0  0  0  0
   36.5675   29.9067   22.3624 C   0  0  0  0  0  0  0  0  0  0  0  0
   37.8274   29.4034   22.1297 C   0  0  0  0  0  0  0  0  0  0  0  0
   36.0526   26.8617   21.5441 N   0  0  0  0  0  0  0  0  0  0  0  0
   34.2427   29.6110   21.3511 C   0  0  0  0  0  0  0  0  0  0  0  0
   38.6245   27.6320   20.3670 C   0  0  0  0  0  0  0  0  0  0  0  0
   33.6457   30.2381   22.5470 C   0  0  0  0  0  0  0  0  0  0  0  0
   32.0140   32.2191   25.7722 F   0  0  0  0  0  0  0  0  0  0  0  0
   37.1082   25.9188   21.4641 C   0  0  0  0  0  0  0  0  0  0  0  0
   38.9141   29.9267   22.8469 C   0  0  0  0  0  0  0  0  0  0  0  0
   33.2074   29.5055   23.6186 C   0  0  0  0  0  0  0  0  0  0  0  0
   32.9878   32.2583   23.6490 C   0  0  0  0  0  0  0  0  0  0  0  0
   38.2065   26.2022   20.5025 C   0  0  0  0  0  0  0  0  0  0  0  0
  1  4  2  0
  1 16  1  0
 20  1  1  0
  2  5  2  0
 10  2  1  0
 15  3  1  0
  3 20  2  0
  4 19  1  0
  5  6  1  0
 18  6  2  0
  8  7  1  0
  7  9  1  0
  7 12  1  0
  8 10  1  0
 13  8  1  1
 11  9  1  0
 14  9  1  1
 10 11  2  0
 11 18  1  0
 17 12  1  1
 13 15  1  0
 21 14  1  1
 15 19  2  0
 17 21  1  0
M  END
$$$$
