
     RDKit          3D

 21 24  0  0  0  0  0  0  0  0999 V2000
   32.5669   32.9560   19.9888 C   0  0  0  0  0  0  0  0  0  0  0  0
   33.3612   30.0502   24.9525 C   0  0  0  0  0  0  0  0  0  0  0  0
   33.4046   31.4397   21.6572 C   0  0  0  0  0  0  0  0  0  0  0  0
   31.7417   31.9289   19.5771 C   0  0  0  0  0  0  0  0  0  0  0  0
   33.9219   30.4197   26.1595 C   0  0  0  0  0  0  0  0  0  0  0  0
   35.2408   30.1644   26.4299 C   0  0  0  0  0  0  0  0  0  0  0  0
   34.9780   28.1621   22.2572 C   0  0  0  0  0  0  0  0  0  0  0  0
   33.8257   28.9176   22.6699 N   0  0  0  0  0  0  0  0  0  0  0  0
   36.0456   28.5181   23.1862 N   0  0  0  0  0  0  0  0  0  0  0  0
   34.1024   29.4098   23.9696 C   0  0  0  0  0  0  0  0  0  0  0  0
   35.4460   29.1623   24.2738 C   0  0  0  0  0  0  0  0  0  0  0  0
   35.4628   28.5242   20.9418 N   0  0  0  0  0  0  0  0  0  0  0  0
   32.6318   29.1366   21.9280 C   0  0  0  0  0  0  0  0  0  0  0  0
   37.4264   28.1946   22.8918 C   0  0  0  0  0  0  0  0  0  0  0  0
   32.5732   30.4362   21.2271 C   0  0  0  0  0  0  0  0  0  0  0  0
   32.5584   34.1768   19.3827 F   0  0  0  0  0  0  0  0  0  0  0  0
   36.5333   27.6338   20.6023 C   0  0  0  0  0  0  0  0  0  0  0  0
   35.9952   29.5385   25.4886 C   0  0  0  0  0  0  0  0  0  0  0  0
   31.7310   30.6898   20.1708 C   0  0  0  0  0  0  0  0  0  0  0  0
   33.4057   32.6808   21.0519 C   0  0  0  0  0  0  0  0  0  0  0  0
   37.4554   27.2802   21.7162 C   0  0  0  0  0  0  0  0  0  0  0  0
  1  4  2  0
  1 16  1  0
 20  1  1  0
  2  5  2  0
 10  2  1  0
 15  3  1  0
  3 20  2  0
  4 19  1  0
  5  6  1  0
 18  6  2  0
  8  7  1  0
  7  9  1  0
  7 12  1  0
  8 10  1  0
 13  8  1  0
 11  9  1  0
  9 14  1  0
 10 11  2  0
 11 18  1  0
 12 17  1  0
 13 15  1  0
 14 21  1  0
 15 19  2  0
 17 21  1  0
M  END
$$$$
