
     RDKit          3D

 21 24  0  0  0  0  0  0  0  0999 V2000
   32.6655   33.0178   20.0675 C   0  0  0  0  0  0  0  0  0  0  0  0
   33.5581   30.0843   25.0673 C   0  0  0  0  0  0  0  0  0  0  0  0
   31.9151   30.7576   20.4029 C   0  0  0  0  0  0  0  0  0  0  0  0
   33.6081   32.7707   21.0451 C   0  0  0  0  0  0  0  0  0  0  0  0
   34.0879   30.4342   26.2939 C   0  0  0  0  0  0  0  0  0  0  0  0
   35.3939   30.1554   26.6014 C   0  0  0  0  0  0  0  0  0  0  0  0
   35.2255   28.1943   22.4044 C   0  0  0  0  0  0  0  0  0  0  0  0
   34.0734   28.9645   22.7893 N   0  0  0  0  0  0  0  0  0  0  0  0
   36.2701   28.5249   23.3683 N   0  0  0  0  0  0  0  0  0  0  0  0
   34.3185   29.4408   24.1011 C   0  0  0  0  0  0  0  0  0  0  0  0
   35.6482   29.1691   24.4433 C   0  0  0  0  0  0  0  0  0  0  0  0
   35.7554   28.5601   21.1075 N   0  0  0  0  0  0  0  0  0  0  0  0
   32.9060   29.2091   22.0139 C   0  0  0  0  0  0  0  0  0  0  0  0
   37.6538   28.1819   23.1124 C   0  0  0  0  0  0  0  0  0  0  0  0
   32.8622   30.5392   21.3716 C   0  0  0  0  0  0  0  0  0  0  0  0
   32.5759   34.2238   19.4386 F   0  0  0  0  0  0  0  0  0  0  0  0
   36.8215   27.6556   20.7920 C   0  0  0  0  0  0  0  0  0  0  0  0
   36.1664   29.5258   25.6774 C   0  0  0  0  0  0  0  0  0  0  0  0
   33.7191   31.5646   21.6938 C   0  0  0  0  0  0  0  0  0  0  0  0
   31.8138   31.9745   19.7583 C   0  0  0  0  0  0  0  0  0  0  0  0
   37.7039   27.2775   21.9298 C   0  0  0  0  0  0  0  0  0  0  0  0
  1  4  2  0
  1 16  1  0
 20  1  1  0
  2  5  2  0
 10  2  1  0
 15  3  1  0
  3 20  2  0
  4 19  1  0
  5  6  1  0
 18  6  2  0
  8  7  1  0
  7  9  1  0
  7 12  1  0
  8 10  1  0
 13  8  1  0
 11  9  1  0
  9 14  1  0
 10 11  2  0
 11 18  1  0
 12 17  1  0
 13 15  1  0
 14 21  1  0
 15 19  2  0
 17 21  1  0
M  END
$$$$
