
     RDKit          3D

 21 24  0  0  0  0  0  0  0  0999 V2000
   31.2455   31.7215   20.0030 C   0  0  0  0  0  0  0  0  0  0  0  0
   33.8426   30.5948   25.4303 C   0  0  0  0  0  0  0  0  0  0  0  0
   32.2493   31.3102   22.1014 C   0  0  0  0  0  0  0  0  0  0  0  0
   32.4639   32.1757   19.5293 C   0  0  0  0  0  0  0  0  0  0  0  0
   33.7048   29.9435   26.6420 C   0  0  0  0  0  0  0  0  0  0  0  0
   34.3022   28.7124   26.8748 C   0  0  0  0  0  0  0  0  0  0  0  0
   35.5249   29.3458   22.4317 C   0  0  0  0  0  0  0  0  0  0  0  0
   34.8960   30.4391   23.1175 N   0  0  0  0  0  0  0  0  0  0  0  0
   35.8836   28.4295   23.4633 N   0  0  0  0  0  0  0  0  0  0  0  0
   34.6068   29.9805   24.4287 C   0  0  0  0  0  0  0  0  0  0  0  0
   35.2070   28.7599   24.6407 C   0  0  0  0  0  0  0  0  0  0  0  0
   34.6558   28.6222   21.5375 N   0  0  0  0  0  0  0  0  0  0  0  0
   34.6108   31.7476   22.5870 C   0  0  0  0  0  0  0  0  0  0  0  0
   36.8197   27.3938   23.0873 C   0  0  0  0  0  0  0  0  0  0  0  0
   33.4663   31.7557   21.6544 C   0  0  0  0  0  0  0  0  0  0  0  0
   30.1252   31.6815   19.2418 F   0  0  0  0  0  0  0  0  0  0  0  0
   34.9673   27.2507   21.3594 C   0  0  0  0  0  0  0  0  0  0  0  0
   35.0459   28.1273   25.8829 C   0  0  0  0  0  0  0  0  0  0  0  0
   33.5770   32.1918   20.3602 C   0  0  0  0  0  0  0  0  0  0  0  0
   31.1456   31.2853   21.3057 C   0  0  0  0  0  0  0  0  0  0  0  0
   36.3026   26.7873   21.8216 C   0  0  0  0  0  0  0  0  0  0  0  0
  1  4  2  0
  1 16  1  0
 20  1  1  0
  2  5  2  0
 10  2  1  0
 15  3  1  0
  3 20  2  0
  4 19  1  0
  5  6  1  0
 18  6  2  0
  8  7  1  0
  7  9  1  0
  7 12  1  0
  8 10  1  0
 13  8  1  1
 11  9  1  0
 14  9  1  1
 10 11  2  0
 11 18  1  0
 17 12  1  1
 13 15  1  0
 21 14  1  1
 15 19  2  0
 17 21  1  0
M  END
$$$$
