
     RDKit          3D

 21 24  0  0  0  0  0  0  0  0999 V2000
   33.4422   30.0118   27.5113 C   0  0  0  0  0  0  0  0  0  0  0  0
   37.1939   32.4566   23.5536 C   0  0  0  0  0  0  0  0  0  0  0  0
   34.9911   30.8507   25.8739 C   0  0  0  0  0  0  0  0  0  0  0  0
   34.1300   28.8172   27.4406 C   0  0  0  0  0  0  0  0  0  0  0  0
   37.1750   33.6157   22.8027 C   0  0  0  0  0  0  0  0  0  0  0  0
   36.6430   33.6272   21.5400 C   0  0  0  0  0  0  0  0  0  0  0  0
   36.1249   29.1176   22.4802 C   0  0  0  0  0  0  0  0  0  0  0  0
   36.5562   29.9463   23.5739 N   0  0  0  0  0  0  0  0  0  0  0  0
   35.6702   30.0325   21.4381 N   0  0  0  0  0  0  0  0  0  0  0  0
   36.6795   31.2634   23.0662 C   0  0  0  0  0  0  0  0  0  0  0  0
   36.1430   31.3056   21.7742 C   0  0  0  0  0  0  0  0  0  0  0  0
   34.9828   28.2879   22.8024 N   0  0  0  0  0  0  0  0  0  0  0  0
   36.8140   29.5367   24.9118 C   0  0  0  0  0  0  0  0  0  0  0  0
   34.8797   29.5550   20.3224 C   0  0  0  0  0  0  0  0  0  0  0  0
   35.6568   29.6518   25.8235 C   0  0  0  0  0  0  0  0  0  0  0  0
   32.3677   30.1794   28.3332 F   0  0  0  0  0  0  0  0  0  0  0  0
   34.7213   27.4367   21.6794 C   0  0  0  0  0  0  0  0  0  0  0  0
   36.1306   32.4754   21.0324 C   0  0  0  0  0  0  0  0  0  0  0  0
   35.2155   28.6227   26.6210 C   0  0  0  0  0  0  0  0  0  0  0  0
   33.9015   31.0334   26.7021 C   0  0  0  0  0  0  0  0  0  0  0  0
   34.8905   28.0656   20.3407 C   0  0  0  0  0  0  0  0  0  0  0  0
  1  4  2  0
  1 16  1  0
 20  1  1  0
  2  5  2  0
 10  2  1  0
 15  3  1  0
  3 20  2  0
  4 19  1  0
  5  6  1  0
 18  6  2  0
  8  7  1  0
  7  9  1  0
  7 12  1  0
  8 10  1  0
 13  8  1  0
 11  9  1  0
  9 14  1  0
 10 11  2  0
 11 18  1  0
 12 17  1  0
 13 15  1  0
 14 21  1  0
 15 19  2  0
 17 21  1  0
M  END
$$$$
