
     RDKit          3D

 21 24  0  0  0  0  0  0  0  0999 V2000
   31.7733   32.4080   21.1215 C   0  0  0  0  0  0  0  0  0  0  0  0
   37.0787   31.4666   23.9193 C   0  0  0  0  0  0  0  0  0  0  0  0
   32.9301   30.3639   21.3736 C   0  0  0  0  0  0  0  0  0  0  0  0
   32.3486   32.8578   22.2972 C   0  0  0  0  0  0  0  0  0  0  0  0
   38.2956   32.1204   23.9749 C   0  0  0  0  0  0  0  0  0  0  0  0
   39.2886   31.8841   23.0343 C   0  0  0  0  0  0  0  0  0  0  0  0
   36.0910   28.8366   21.5764 C   0  0  0  0  0  0  0  0  0  0  0  0
   35.7161   29.7609   22.6090 N   0  0  0  0  0  0  0  0  0  0  0  0
   37.3158   29.3500   21.0580 N   0  0  0  0  0  0  0  0  0  0  0  0
   36.8642   30.5488   22.8819 C   0  0  0  0  0  0  0  0  0  0  0  0
   37.8368   30.3010   21.9398 C   0  0  0  0  0  0  0  0  0  0  0  0
   36.3811   27.5040   22.0437 N   0  0  0  0  0  0  0  0  0  0  0  0
   34.4301   29.8736   23.2480 C   0  0  0  0  0  0  0  0  0  0  0  0
   37.7452   28.7959   19.7936 C   0  0  0  0  0  0  0  0  0  0  0  0
   33.5118   30.7878   22.5403 C   0  0  0  0  0  0  0  0  0  0  0  0
   30.9161   33.1556   20.3851 F   0  0  0  0  0  0  0  0  0  0  0  0
   37.3270   26.7794   21.2756 C   0  0  0  0  0  0  0  0  0  0  0  0
   39.0602   30.9828   22.0269 C   0  0  0  0  0  0  0  0  0  0  0  0
   33.2208   32.0425   23.0073 C   0  0  0  0  0  0  0  0  0  0  0  0
   32.0730   31.1448   20.6612 C   0  0  0  0  0  0  0  0  0  0  0  0
   37.6612   27.3084   19.9267 C   0  0  0  0  0  0  0  0  0  0  0  0
  1  4  2  0
  1 16  1  0
 20  1  1  0
  2  5  2  0
 10  2  1  0
 15  3  1  0
  3 20  2  0
  4 19  1  0
  5  6  1  0
 18  6  2  0
  8  7  1  0
  7  9  1  0
  7 12  1  0
  8 10  1  0
 13  8  1  1
 11  9  1  0
 14  9  1  1
 10 11  2  0
 11 18  1  0
 17 12  1  1
 13 15  1  0
 21 14  1  1
 15 19  2  0
 17 21  1  0
M  END
$$$$
