
     RDKit          3D

 21 24  0  0  0  0  0  0  0  0999 V2000
   31.6406   32.6839   20.0446 C   0  0  0  0  0  0  0  0  0  0  0  0
   33.9782   30.6396   25.4690 C   0  0  0  0  0  0  0  0  0  0  0  0
   32.5691   31.5031   21.9228 C   0  0  0  0  0  0  0  0  0  0  0  0
   32.9278   33.0942   19.7616 C   0  0  0  0  0  0  0  0  0  0  0  0
   33.6960   30.0550   26.6881 C   0  0  0  0  0  0  0  0  0  0  0  0
   33.8441   28.7052   26.8720 C   0  0  0  0  0  0  0  0  0  0  0  0
   34.9438   28.9267   22.3742 C   0  0  0  0  0  0  0  0  0  0  0  0
   34.7810   30.1869   23.0483 N   0  0  0  0  0  0  0  0  0  0  0  0
   35.0132   27.9155   23.4240 N   0  0  0  0  0  0  0  0  0  0  0  0
   34.4202   29.8921   24.3865 C   0  0  0  0  0  0  0  0  0  0  0  0
   34.5620   28.5167   24.6040 C   0  0  0  0  0  0  0  0  0  0  0  0
   36.1890   28.8220   21.6427 N   0  0  0  0  0  0  0  0  0  0  0  0
   34.9462   31.4858   22.4921 C   0  0  0  0  0  0  0  0  0  0  0  0
   35.4868   26.5771   23.1374 C   0  0  0  0  0  0  0  0  0  0  0  0
   33.8386   31.9257   21.6184 C   0  0  0  0  0  0  0  0  0  0  0  0
   30.5782   33.0560   19.2759 F   0  0  0  0  0  0  0  0  0  0  0  0
   36.1827   27.5779   20.9311 C   0  0  0  0  0  0  0  0  0  0  0  0
   34.2752   27.9438   25.8322 C   0  0  0  0  0  0  0  0  0  0  0  0
   34.0152   32.7333   20.5201 C   0  0  0  0  0  0  0  0  0  0  0  0
   31.4845   31.8728   21.1524 C   0  0  0  0  0  0  0  0  0  0  0  0
   35.5929   26.4215   21.6597 C   0  0  0  0  0  0  0  0  0  0  0  0
  1  4  2  0
  1 16  1  0
 20  1  1  0
  2  5  2  0
 10  2  1  0
 15  3  1  0
  3 20  2  0
  4 19  1  0
  5  6  1  0
 18  6  2  0
  8  7  1  0
  7  9  1  0
  7 12  1  0
  8 10  1  0
 13  8  1  0
 11  9  1  0
  9 14  1  0
 10 11  2  0
 11 18  1  0
 12 17  1  0
 13 15  1  0
 14 21  1  0
 15 19  2  0
 17 21  1  0
M  END
$$$$
