
     RDKit          3D

 21 24  0  0  0  0  0  0  0  0999 V2000
   31.8991   32.3550   23.1995 C   0  0  0  0  0  0  0  0  0  0  0  0
   36.1174   29.7769   24.9243 C   0  0  0  0  0  0  0  0  0  0  0  0
   32.2349   30.1491   24.0970 C   0  0  0  0  0  0  0  0  0  0  0  0
   32.8079   32.0131   22.2186 C   0  0  0  0  0  0  0  0  0  0  0  0
   37.2649   30.3238   25.4646 C   0  0  0  0  0  0  0  0  0  0  0  0
   38.4631   30.2375   24.8053 C   0  0  0  0  0  0  0  0  0  0  0  0
   35.8543   27.8064   21.8434 C   0  0  0  0  0  0  0  0  0  0  0  0
   35.1503   28.4742   22.9052 N   0  0  0  0  0  0  0  0  0  0  0  0
   37.2024   28.3651   21.8416 N   0  0  0  0  0  0  0  0  0  0  0  0
   36.1277   29.1219   23.7009 C   0  0  0  0  0  0  0  0  0  0  0  0
   37.3652   29.0495   23.0509 C   0  0  0  0  0  0  0  0  0  0  0  0
   35.3111   28.0825   20.5299 N   0  0  0  0  0  0  0  0  0  0  0  0
   33.7452   28.4899   23.1269 C   0  0  0  0  0  0  0  0  0  0  0  0
   38.0907   28.1607   20.7159 C   0  0  0  0  0  0  0  0  0  0  0  0
   33.1352   29.8358   23.1099 C   0  0  0  0  0  0  0  0  0  0  0  0
   31.3028   33.5802   23.2367 F   0  0  0  0  0  0  0  0  0  0  0  0
   36.0211   27.2800   19.5780 C   0  0  0  0  0  0  0  0  0  0  0  0
   38.5081   29.6025   23.6047 C   0  0  0  0  0  0  0  0  0  0  0  0
   33.4225   30.7857   22.1587 C   0  0  0  0  0  0  0  0  0  0  0  0
   31.6240   31.3865   24.1459 C   0  0  0  0  0  0  0  0  0  0  0  0
   37.4838   27.1401   19.8165 C   0  0  0  0  0  0  0  0  0  0  0  0
  1  4  2  0
  1 16  1  0
 20  1  1  0
  2  5  2  0
 10  2  1  0
 15  3  1  0
  3 20  2  0
  4 19  1  0
  5  6  1  0
 18  6  2  0
  8  7  1  0
  7  9  1  0
  7 12  1  0
  8 10  1  0
 13  8  1  0
 11  9  1  0
  9 14  1  0
 10 11  2  0
 11 18  1  0
 12 17  1  0
 13 15  1  0
 14 21  1  0
 15 19  2  0
 17 21  1  0
M  END
$$$$
