
     RDKit          3D

 21 24  0  0  0  0  0  0  0  0999 V2000
   32.5368   32.7942   20.1899 C   0  0  0  0  0  0  0  0  0  0  0  0
   33.4499   30.0794   25.3160 C   0  0  0  0  0  0  0  0  0  0  0  0
   33.3826   31.3929   21.9520 C   0  0  0  0  0  0  0  0  0  0  0  0
   31.7499   31.7231   19.8174 C   0  0  0  0  0  0  0  0  0  0  0  0
   34.0304   30.4868   26.5011 C   0  0  0  0  0  0  0  0  0  0  0  0
   35.3604   30.2654   26.7455 C   0  0  0  0  0  0  0  0  0  0  0  0
   35.0441   28.1680   22.6236 C   0  0  0  0  0  0  0  0  0  0  0  0
   33.8856   28.9078   23.0474 N   0  0  0  0  0  0  0  0  0  0  0  0
   36.1251   28.5666   23.5193 N   0  0  0  0  0  0  0  0  0  0  0  0
   34.1818   29.4337   24.3294 C   0  0  0  0  0  0  0  0  0  0  0  0
   35.5371   29.2214   24.6069 C   0  0  0  0  0  0  0  0  0  0  0  0
   35.4902   28.5118   21.2897 N   0  0  0  0  0  0  0  0  0  0  0  0
   32.6703   29.0852   22.3295 C   0  0  0  0  0  0  0  0  0  0  0  0
   37.5053   28.2661   23.1991 C   0  0  0  0  0  0  0  0  0  0  0  0
   32.5893   30.3441   21.5599 C   0  0  0  0  0  0  0  0  0  0  0  0
   32.5060   33.9809   19.5200 F   0  0  0  0  0  0  0  0  0  0  0  0
   36.5716   27.6371   20.9438 C   0  0  0  0  0  0  0  0  0  0  0  0
   36.1061   29.6354   25.8001 C   0  0  0  0  0  0  0  0  0  0  0  0
   31.7623   30.5171   20.4756 C   0  0  0  0  0  0  0  0  0  0  0  0
   33.3608   32.6000   21.2820 C   0  0  0  0  0  0  0  0  0  0  0  0
   37.5268   27.3273   22.0428 C   0  0  0  0  0  0  0  0  0  0  0  0
  1  4  2  0
  1 16  1  0
 20  1  1  0
  2  5  2  0
 10  2  1  0
 15  3  1  0
  3 20  2  0
  4 19  1  0
  5  6  1  0
 18  6  2  0
  8  7  1  0
  7  9  1  0
  7 12  1  0
  8 10  1  0
 13  8  1  0
 11  9  1  0
  9 14  1  0
 10 11  2  0
 11 18  1  0
 12 17  1  0
 13 15  1  0
 14 21  1  0
 15 19  2  0
 17 21  1  0
M  END
$$$$
