
     RDKit          3D

 21 24  0  0  0  0  0  0  0  0999 V2000
   31.9690   32.6672   20.6369 C   0  0  0  0  0  0  0  0  0  0  0  0
   34.6325   30.7768   25.2438 C   0  0  0  0  0  0  0  0  0  0  0  0
   33.2366   30.8677   21.6060 C   0  0  0  0  0  0  0  0  0  0  0  0
   33.1344   33.4061   20.6694 C   0  0  0  0  0  0  0  0  0  0  0  0
   34.3352   30.4433   26.5508 C   0  0  0  0  0  0  0  0  0  0  0  0
   34.4282   29.1468   26.9845 C   0  0  0  0  0  0  0  0  0  0  0  0
   35.5028   28.4754   22.5254 C   0  0  0  0  0  0  0  0  0  0  0  0
   35.3977   29.8452   22.9513 N   0  0  0  0  0  0  0  0  0  0  0  0
   35.5378   27.6766   23.7462 N   0  0  0  0  0  0  0  0  0  0  0  0
   35.0349   29.8218   24.3209 C   0  0  0  0  0  0  0  0  0  0  0  0
   35.1208   28.5067   24.7924 C   0  0  0  0  0  0  0  0  0  0  0  0
   36.7371   28.1829   21.8271 N   0  0  0  0  0  0  0  0  0  0  0  0
   35.6128   31.0088   22.1616 C   0  0  0  0  0  0  0  0  0  0  0  0
   35.9530   26.2894   23.7157 C   0  0  0  0  0  0  0  0  0  0  0  0
   34.3808   31.6250   21.6266 C   0  0  0  0  0  0  0  0  0  0  0  0
   30.8016   33.1799   20.1549 F   0  0  0  0  0  0  0  0  0  0  0  0
   36.6737   26.8289   21.3613 C   0  0  0  0  0  0  0  0  0  0  0  0
   34.8195   28.1866   26.1060 C   0  0  0  0  0  0  0  0  0  0  0  0
   34.3234   32.9130   21.1500 C   0  0  0  0  0  0  0  0  0  0  0  0
   32.0478   31.3752   21.1204 C   0  0  0  0  0  0  0  0  0  0  0  0
   36.0416   25.8555   22.2934 C   0  0  0  0  0  0  0  0  0  0  0  0
  1  4  2  0
  1 16  1  0
 20  1  1  0
  2  5  2  0
 10  2  1  0
 15  3  1  0
  3 20  2  0
  4 19  1  0
  5  6  1  0
 18  6  2  0
  8  7  1  0
  7  9  1  0
  7 12  1  0
  8 10  1  0
 13  8  1  0
 11  9  1  0
  9 14  1  0
 10 11  2  0
 11 18  1  0
 12 17  1  0
 13 15  1  0
 14 21  1  0
 15 19  2  0
 17 21  1  0
M  END
$$$$
