
     RDKit          3D

 21 24  0  0  0  0  0  0  0  0999 V2000
   31.0099   31.9868   22.3811 C   0  0  0  0  0  0  0  0  0  0  0  0
   36.0745   30.8007   24.4855 C   0  0  0  0  0  0  0  0  0  0  0  0
   33.0538   32.0537   21.1153 C   0  0  0  0  0  0  0  0  0  0  0  0
   31.5588   30.9239   23.0697 C   0  0  0  0  0  0  0  0  0  0  0  0
   36.6935   30.6959   25.7157 C   0  0  0  0  0  0  0  0  0  0  0  0
   37.2627   29.5163   26.1185 C   0  0  0  0  0  0  0  0  0  0  0  0
   35.5258   28.1083   22.0578 C   0  0  0  0  0  0  0  0  0  0  0  0
   35.4530   29.5205   22.3213 N   0  0  0  0  0  0  0  0  0  0  0  0
   36.4351   27.5593   23.0584 N   0  0  0  0  0  0  0  0  0  0  0  0
   36.0027   29.7254   23.6111 C   0  0  0  0  0  0  0  0  0  0  0  0
   36.5926   28.5342   24.0494 C   0  0  0  0  0  0  0  0  0  0  0  0
   36.1152   27.7921   20.7735 N   0  0  0  0  0  0  0  0  0  0  0  0
   34.9320   30.5284   21.4630 C   0  0  0  0  0  0  0  0  0  0  0  0
   36.9905   26.2300   22.9090 C   0  0  0  0  0  0  0  0  0  0  0  0
   33.5751   30.9952   21.8160 C   0  0  0  0  0  0  0  0  0  0  0  0
   29.7638   32.4628   22.6610 F   0  0  0  0  0  0  0  0  0  0  0  0
   36.0302   26.3742   20.5829 C   0  0  0  0  0  0  0  0  0  0  0  0
   37.2101   28.4434   25.2860 C   0  0  0  0  0  0  0  0  0  0  0  0
   32.8120   30.4253   22.8071 C   0  0  0  0  0  0  0  0  0  0  0  0
   31.7929   32.5454   21.3890 C   0  0  0  0  0  0  0  0  0  0  0  0
   36.2790   25.5450   21.7939 C   0  0  0  0  0  0  0  0  0  0  0  0
  1  4  2  0
  1 16  1  0
 20  1  1  0
  2  5  2  0
 10  2  1  0
 15  3  1  0
  3 20  2  0
  4 19  1  0
  5  6  1  0
 18  6  2  0
  8  7  1  0
  7  9  1  0
  7 12  1  0
  8 10  1  0
 13  8  1  0
 11  9  1  0
  9 14  1  0
 10 11  2  0
 11 18  1  0
 12 17  1  0
 13 15  1  0
 14 21  1  0
 15 19  2  0
 17 21  1  0
M  END
$$$$
