
     RDKit          3D

  8  8  0  0  0  0  0  0  0  0999 V2000
   43.4833   51.5109  463.2173 O   0  0  0  0  0  0  0  0  0  0  0  0
   43.3402   50.5029  462.5459 C   0  0  0  0  0  0  0  0  0  0  0  0
   43.2656   50.6546  461.0793 C   0  0  0  0  0  0  0  0  0  0  0  0
   43.2447   49.1658  463.1922 C   0  0  0  0  0  0  0  0  0  0  0  0
   41.9524   48.4677  462.7751 C   0  0  0  0  0  0  0  0  0  0  0  0
   41.4569   49.1224  461.5428 C   0  0  0  0  0  0  0  0  0  0  0  0
   40.2883   49.3456  461.3910 O   0  0  0  0  0  0  0  0  0  0  0  0
   42.4577   49.4869  460.5144 C   0  0  0  0  0  0  0  0  0  0  0  0
  1  2  2  0
  2  3  1  0
  2  4  1  0
  3  8  1  0
  4  5  1  0
  5  6  1  0
  6  7  2  0
  6  8  1  0
M  END
$$$$
