
     RDKit          3D

  8  8  0  0  0  0  0  0  0  0999 V2000
   42.3641   52.5410  459.6942 O   0  0  0  0  0  0  0  0  0  0  0  0
   42.4290   51.9023  460.7219 C   0  0  0  0  0  0  0  0  0  0  0  0
   41.1675   51.6301  461.4514 C   0  0  0  0  0  0  0  0  0  0  0  0
   43.6913   51.3841  461.2825 C   0  0  0  0  0  0  0  0  0  0  0  0
   43.5647   50.0044  461.8644 C   0  0  0  0  0  0  0  0  0  0  0  0
   42.1977   49.5790  462.1358 C   0  0  0  0  0  0  0  0  0  0  0  0
   42.0030   48.7298  462.9918 O   0  0  0  0  0  0  0  0  0  0  0  0
   40.9987   50.1174  461.4293 C   0  0  0  0  0  0  0  0  0  0  0  0
  1  2  2  0
  3  2  1  1
  4  2  1  1
  3  8  1  0
  4  5  1  0
  5  6  1  6
  6  7  2  0
  8  6  1  6
M  END
$$$$
