
     RDKit          3D

  8  8  0  0  0  0  0  0  0  0999 V2000
   41.6135   51.6710  459.8755 O   0  0  0  0  0  0  0  0  0  0  0  0
   42.1454   50.7078  460.3829 C   0  0  0  0  0  0  0  0  0  0  0  0
   43.6261   50.6387  460.3584 C   0  0  0  0  0  0  0  0  0  0  0  0
   41.4006   49.6056  461.0206 C   0  0  0  0  0  0  0  0  0  0  0  0
   42.0460   49.0978  462.2791 C   0  0  0  0  0  0  0  0  0  0  0  0
   43.4431   49.4773  462.4450 C   0  0  0  0  0  0  0  0  0  0  0  0
   44.1658   48.7788  463.1389 O   0  0  0  0  0  0  0  0  0  0  0  0
   44.0632   50.6799  461.8159 C   0  0  0  0  0  0  0  0  0  0  0  0
  1  2  2  0
  3  2  1  1
  4  2  1  1
  3  8  1  0
  4  5  1  0
  5  6  1  6
  6  7  2  0
  8  6  1  6
M  END
$$$$
