
     RDKit          3D

  8  8  0  0  0  0  0  0  0  0999 V2000
   41.1779   49.9650  460.5388 O   0  0  0  0  0  0  0  0  0  0  0  0
   42.2754   49.6025  460.9028 C   0  0  0  0  0  0  0  0  0  0  0  0
   43.3880   49.6673  459.9252 C   0  0  0  0  0  0  0  0  0  0  0  0
   42.5610   49.1025  462.2610 C   0  0  0  0  0  0  0  0  0  0  0  0
   43.8770   49.5786  462.8085 C   0  0  0  0  0  0  0  0  0  0  0  0
   44.8013   50.1000  461.8098 C   0  0  0  0  0  0  0  0  0  0  0  0
   45.9994   50.0760  462.0455 O   0  0  0  0  0  0  0  0  0  0  0  0
   44.3793   50.6708  460.4973 C   0  0  0  0  0  0  0  0  0  0  0  0
  1  2  2  0
  3  2  1  1
  4  2  1  1
  3  8  1  0
  4  5  1  0
  5  6  1  6
  6  7  2  0
  8  6  1  6
M  END
$$$$
