
     RDKit          3D

  8  8  0  0  0  0  0  0  0  0999 V2000
   58.9141   49.0841  475.0702 O   0  0  0  0  0  0  0  0  0  0  0  0
   59.1694   48.5176  474.0208 C   0  0  0  0  0  0  0  0  0  0  0  0
   58.1879   48.6220  472.9229 C   0  0  0  0  0  0  0  0  0  0  0  0
   60.4325   47.7473  473.8599 C   0  0  0  0  0  0  0  0  0  0  0  0
   60.1264   46.3092  473.4482 C   0  0  0  0  0  0  0  0  0  0  0  0
   58.7490   46.2728  472.9058 C   0  0  0  0  0  0  0  0  0  0  0  0
   58.0062   45.3692  473.1709 O   0  0  0  0  0  0  0  0  0  0  0  0
   58.3313   47.3906  472.0293 C   0  0  0  0  0  0  0  0  0  0  0  0
  1  2  2  0
  2  3  1  0
  2  4  1  0
  3  8  1  0
  4  5  1  0
  5  6  1  0
  6  7  2  0
  6  8  1  0
M  END
$$$$
