
     RDKit          3D

  8  8  0  0  0  0  0  0  0  0999 V2000
   43.4305   52.4517  459.7020 O   0  0  0  0  0  0  0  0  0  0  0  0
   43.0903   51.5688  460.4590 C   0  0  0  0  0  0  0  0  0  0  0  0
   43.7608   51.4886  461.7787 C   0  0  0  0  0  0  0  0  0  0  0  0
   42.0489   50.5744  460.1378 C   0  0  0  0  0  0  0  0  0  0  0  0
   41.1536   50.2500  461.3003 C   0  0  0  0  0  0  0  0  0  0  0  0
   41.6775   50.6416  462.6025 C   0  0  0  0  0  0  0  0  0  0  0  0
   41.2915   50.0465  463.5968 O   0  0  0  0  0  0  0  0  0  0  0  0
   42.6690   51.7373  462.8098 C   0  0  0  0  0  0  0  0  0  0  0  0
  1  2  2  0
  3  2  1  1
  4  2  1  1
  3  8  1  0
  4  5  1  0
  5  6  1  6
  6  7  2  0
  8  6  1  6
M  END
$$$$
