
     RDKit          3D

  8  8  0  0  0  0  0  0  0  0999 V2000
   43.2421   47.6544  460.6718 O   0  0  0  0  0  0  0  0  0  0  0  0
   42.8479   48.7596  460.9742 C   0  0  0  0  0  0  0  0  0  0  0  0
   42.2246   48.9338  462.3080 C   0  0  0  0  0  0  0  0  0  0  0  0
   42.9552   49.9350  460.0893 C   0  0  0  0  0  0  0  0  0  0  0  0
   43.3226   51.1982  460.8156 C   0  0  0  0  0  0  0  0  0  0  0  0
   43.1279   51.1515  462.2589 C   0  0  0  0  0  0  0  0  0  0  0  0
   42.9484   52.1972  462.8641 O   0  0  0  0  0  0  0  0  0  0  0  0
   43.1324   49.8946  463.0630 C   0  0  0  0  0  0  0  0  0  0  0  0
  1  2  2  0
  3  2  1  1
  4  2  1  1
  3  8  1  0
  4  5  1  0
  5  6  1  6
  6  7  2  0
  8  6  1  6
M  END
$$$$
