
     RDKit          3D

  8  8  0  0  0  0  0  0  0  0999 V2000
   55.4677   45.6867  445.7073 O   0  0  0  0  0  0  0  0  0  0  0  0
   55.0282   46.3374  444.7740 C   0  0  0  0  0  0  0  0  0  0  0  0
   53.5701   46.3177  444.5443 C   0  0  0  0  0  0  0  0  0  0  0  0
   55.9397   47.1239  443.8992 C   0  0  0  0  0  0  0  0  0  0  0  0
   55.7622   46.7083  442.4408 C   0  0  0  0  0  0  0  0  0  0  0  0
   54.4580   46.0178  442.3182 C   0  0  0  0  0  0  0  0  0  0  0  0
   54.3425   45.0352  441.6401 O   0  0  0  0  0  0  0  0  0  0  0  0
   53.3119   46.5876  443.0624 C   0  0  0  0  0  0  0  0  0  0  0  0
  1  2  2  0
  2  3  1  0
  2  4  1  0
  3  8  1  0
  4  5  1  0
  5  6  1  0
  6  7  2  0
  6  8  1  0
M  END
$$$$
