
     RDKit          3D

  8  8  0  0  0  0  0  0  0  0999 V2000
   43.1861   49.3005  464.1193 O   0  0  0  0  0  0  0  0  0  0  0  0
   43.2460   49.1273  462.9135 C   0  0  0  0  0  0  0  0  0  0  0  0
   44.0588   50.0699  462.1197 C   0  0  0  0  0  0  0  0  0  0  0  0
   42.5196   47.9988  462.2703 C   0  0  0  0  0  0  0  0  0  0  0  0
   41.5882   48.5224  461.1797 C   0  0  0  0  0  0  0  0  0  0  0  0
   42.0388   49.8833  460.8089 C   0  0  0  0  0  0  0  0  0  0  0  0
   41.2465   50.7609  460.6068 O   0  0  0  0  0  0  0  0  0  0  0  0
   43.4974   50.1126  460.6990 C   0  0  0  0  0  0  0  0  0  0  0  0
  1  2  2  0
  2  3  1  0
  2  4  1  0
  3  8  1  0
  4  5  1  0
  5  6  1  0
  6  7  2  0
  6  8  1  0
M  END
$$$$
