
     RDKit          3D

  8  8  0  0  0  0  0  0  0  0999 V2000
   42.7104   46.5979  463.5824 O   0  0  0  0  0  0  0  0  0  0  0  0
   43.1006   47.2524  462.6301 C   0  0  0  0  0  0  0  0  0  0  0  0
   44.3257   48.0581  462.8011 C   0  0  0  0  0  0  0  0  0  0  0  0
   42.3593   47.2340  461.3397 C   0  0  0  0  0  0  0  0  0  0  0  0
   41.9743   48.6537  460.9306 C   0  0  0  0  0  0  0  0  0  0  0  0
   42.8369   49.5950  461.6806 C   0  0  0  0  0  0  0  0  0  0  0  0
   42.3880   50.6057  462.1449 O   0  0  0  0  0  0  0  0  0  0  0  0
   44.2659   49.2381  461.8317 C   0  0  0  0  0  0  0  0  0  0  0  0
  1  2  2  0
  2  3  1  0
  2  4  1  0
  3  8  1  0
  4  5  1  0
  5  6  1  0
  6  7  2  0
  6  8  1  0
M  END
$$$$
