
     RDKit          3D

  8  8  0  0  0  0  0  0  0  0999 V2000
   55.4379   44.9290  447.2897 O   0  0  0  0  0  0  0  0  0  0  0  0
   54.9070   45.8830  446.7462 C   0  0  0  0  0  0  0  0  0  0  0  0
   53.4334   45.8967  446.6596 C   0  0  0  0  0  0  0  0  0  0  0  0
   55.7260   46.9943  446.1902 C   0  0  0  0  0  0  0  0  0  0  0  0
   55.4060   47.1986  444.7113 C   0  0  0  0  0  0  0  0  0  0  0  0
   54.0975   46.5628  444.4351 C   0  0  0  0  0  0  0  0  0  0  0  0
   53.9175   45.9356  443.4287 O   0  0  0  0  0  0  0  0  0  0  0  0
   53.0294   46.7331  445.4461 C   0  0  0  0  0  0  0  0  0  0  0  0
  1  2  2  0
  2  3  1  0
  2  4  1  0
  3  8  1  0
  4  5  1  0
  5  6  1  0
  6  7  2  0
  6  8  1  0
M  END
$$$$
