
     RDKit          3D

  8  8  0  0  0  0  0  0  0  0999 V2000
   41.1889   49.6388  459.7281 O   0  0  0  0  0  0  0  0  0  0  0  0
   41.7433   50.3000  460.5788 C   0  0  0  0  0  0  0  0  0  0  0  0
   40.9840   50.6258  461.8098 C   0  0  0  0  0  0  0  0  0  0  0  0
   43.1272   50.7955  460.4545 C   0  0  0  0  0  0  0  0  0  0  0  0
   43.9075   50.7167  461.7363 C   0  0  0  0  0  0  0  0  0  0  0  0
   43.0966   50.5517  462.9358 C   0  0  0  0  0  0  0  0  0  0  0  0
   43.5454   50.9280  464.0076 O   0  0  0  0  0  0  0  0  0  0  0  0
   41.7334   49.9451  462.9465 C   0  0  0  0  0  0  0  0  0  0  0  0
  1  2  2  0
  3  2  1  1
  4  2  1  1
  3  8  1  0
  4  5  1  0
  5  6  1  6
  6  7  2  0
  8  6  1  6
M  END
$$$$
