
     RDKit          3D

  8  8  0  0  0  0  0  0  0  0999 V2000
   41.5348   50.9975  459.1092 O   0  0  0  0  0  0  0  0  0  0  0  0
   41.5733   51.0199  460.3201 C   0  0  0  0  0  0  0  0  0  0  0  0
   40.9721   49.8816  461.0554 C   0  0  0  0  0  0  0  0  0  0  0  0
   42.1840   52.1151  461.0973 C   0  0  0  0  0  0  0  0  0  0  0  0
   42.9548   51.6392  462.2963 C   0  0  0  0  0  0  0  0  0  0  0  0
   42.6561   50.2750  462.7123 C   0  0  0  0  0  0  0  0  0  0  0  0
   42.8484   49.9577  463.8760 O   0  0  0  0  0  0  0  0  0  0  0  0
   42.1229   49.2207  461.8009 C   0  0  0  0  0  0  0  0  0  0  0  0
  1  2  2  0
  3  2  1  1
  4  2  1  1
  3  8  1  0
  4  5  1  0
  5  6  1  6
  6  7  2  0
  8  6  1  6
M  END
$$$$
