
     RDKit          3D

  8  8  0  0  0  0  0  0  0  0999 V2000
   44.6776   48.9229  466.2458 O   0  0  0  0  0  0  0  0  0  0  0  0
   44.8111   48.5166  465.1037 C   0  0  0  0  0  0  0  0  0  0  0  0
   44.7284   49.5006  464.0063 C   0  0  0  0  0  0  0  0  0  0  0  0
   45.0497   47.0727  464.8331 C   0  0  0  0  0  0  0  0  0  0  0  0
   43.9883   46.5310  463.8786 C   0  0  0  0  0  0  0  0  0  0  0  0
   43.3652   47.6828  463.1873 C   0  0  0  0  0  0  0  0  0  0  0  0
   42.1816   47.7202  462.9969 O   0  0  0  0  0  0  0  0  0  0  0  0
   44.2585   48.7774  462.7447 C   0  0  0  0  0  0  0  0  0  0  0  0
  1  2  2  0
  2  3  1  0
  2  4  1  0
  3  8  1  0
  4  5  1  0
  5  6  1  0
  6  7  2  0
  6  8  1  0
M  END
$$$$
