
     RDKit          3D

  8  8  0  0  0  0  0  0  0  0999 V2000
   41.5001   48.0675  461.1163 O   0  0  0  0  0  0  0  0  0  0  0  0
   41.5530   49.2709  461.2477 C   0  0  0  0  0  0  0  0  0  0  0  0
   40.8107   49.8796  462.3774 C   0  0  0  0  0  0  0  0  0  0  0  0
   42.3136   50.1577  460.3469 C   0  0  0  0  0  0  0  0  0  0  0  0
   43.0246   51.2705  461.0642 C   0  0  0  0  0  0  0  0  0  0  0  0
   42.5484   51.5273  462.4173 C   0  0  0  0  0  0  0  0  0  0  0  0
   42.7072   52.6391  462.8974 O   0  0  0  0  0  0  0  0  0  0  0  0
   41.8688   50.5102  463.2717 C   0  0  0  0  0  0  0  0  0  0  0  0
  1  2  2  0
  3  2  1  1
  4  2  1  1
  3  8  1  0
  4  5  1  0
  5  6  1  6
  6  7  2  0
  8  6  1  6
M  END
$$$$
