
     RDKit          3D

  8  8  0  0  0  0  0  0  0  0999 V2000
   45.3240   48.7544  463.0700 O   0  0  0  0  0  0  0  0  0  0  0  0
   44.4341   47.9861  462.7767 C   0  0  0  0  0  0  0  0  0  0  0  0
   43.0368   48.4716  462.8749 C   0  0  0  0  0  0  0  0  0  0  0  0
   44.6670   46.5998  462.3292 C   0  0  0  0  0  0  0  0  0  0  0  0
   43.7523   46.1692  461.2174 C   0  0  0  0  0  0  0  0  0  0  0  0
   42.5711   47.0040  461.0403 C   0  0  0  0  0  0  0  0  0  0  0  0
   41.5778   46.5182  460.5216 O   0  0  0  0  0  0  0  0  0  0  0  0
   42.4888   48.4350  461.4552 C   0  0  0  0  0  0  0  0  0  0  0  0
  1  2  2  0
  3  2  1  1
  4  2  1  1
  3  8  1  0
  4  5  1  0
  5  6  1  6
  6  7  2  0
  8  6  1  6
M  END
$$$$
