
     RDKit          3D

  8  8  0  0  0  0  0  0  0  0999 V2000
   45.9391   47.2372  462.3579 O   0  0  0  0  0  0  0  0  0  0  0  0
   44.9159   47.8661  462.1977 C   0  0  0  0  0  0  0  0  0  0  0  0
   44.8287   48.7627  461.0203 C   0  0  0  0  0  0  0  0  0  0  0  0
   43.7580   47.7869  463.1084 C   0  0  0  0  0  0  0  0  0  0  0  0
   42.4353   47.7921  462.3951 C   0  0  0  0  0  0  0  0  0  0  0  0
   42.4871   48.2592  461.0158 C   0  0  0  0  0  0  0  0  0  0  0  0
   41.4782   48.7311  460.5145 O   0  0  0  0  0  0  0  0  0  0  0  0
   43.7069   48.2006  460.1584 C   0  0  0  0  0  0  0  0  0  0  0  0
  1  2  2  0
  3  2  1  1
  4  2  1  1
  3  8  1  0
  4  5  1  0
  5  6  1  6
  6  7  2  0
  8  6  1  6
M  END
$$$$
