
     RDKit          3D

  8  8  0  0  0  0  0  0  0  0999 V2000
   43.7844   49.7690  459.7784 O   0  0  0  0  0  0  0  0  0  0  0  0
   43.3209   50.4950  460.6306 C   0  0  0  0  0  0  0  0  0  0  0  0
   42.1495   51.3293  460.2704 C   0  0  0  0  0  0  0  0  0  0  0  0
   43.8583   50.5918  462.0011 C   0  0  0  0  0  0  0  0  0  0  0  0
   42.7922   50.7005  463.0547 C   0  0  0  0  0  0  0  0  0  0  0  0
   41.4773   51.0823  462.5559 C   0  0  0  0  0  0  0  0  0  0  0  0
   40.6950   51.6319  463.3159 O   0  0  0  0  0  0  0  0  0  0  0  0
   41.0119   50.8448  461.1583 C   0  0  0  0  0  0  0  0  0  0  0  0
  1  2  2  0
  3  2  1  1
  4  2  1  1
  3  8  1  0
  4  5  1  0
  5  6  1  6
  6  7  2  0
  8  6  1  6
M  END
$$$$
