
     RDKit          3D

  8  8  0  0  0  0  0  0  0  0999 V2000
   44.2103   68.2898  452.1966 O   0  0  0  0  0  0  0  0  0  0  0  0
   45.0994   68.5915  452.9750 C   0  0  0  0  0  0  0  0  0  0  0  0
   45.3767   67.6725  454.0966 C   0  0  0  0  0  0  0  0  0  0  0  0
   45.8757   69.8480  452.7930 C   0  0  0  0  0  0  0  0  0  0  0  0
   45.7957   70.7065  454.0530 C   0  0  0  0  0  0  0  0  0  0  0  0
   45.3781   69.8341  455.1743 C   0  0  0  0  0  0  0  0  0  0  0  0
   44.5850   70.2154  455.9892 O   0  0  0  0  0  0  0  0  0  0  0  0
   45.9766   68.4817  455.2458 C   0  0  0  0  0  0  0  0  0  0  0  0
  1  2  2  0
  2  3  1  0
  2  4  1  0
  3  8  1  0
  4  5  1  0
  5  6  1  0
  6  7  2  0
  6  8  1  0
M  END
$$$$
