
     RDKit          3D

  8  8  0  0  0  0  0  0  0  0999 V2000
   43.5478   46.2129  463.6002 O   0  0  0  0  0  0  0  0  0  0  0  0
   43.6078   46.8835  462.5833 C   0  0  0  0  0  0  0  0  0  0  0  0
   44.9326   47.0788  461.9619 C   0  0  0  0  0  0  0  0  0  0  0  0
   42.3798   47.4827  461.9937 C   0  0  0  0  0  0  0  0  0  0  0  0
   42.5446   48.9938  461.8508 C   0  0  0  0  0  0  0  0  0  0  0  0
   43.9918   49.3026  461.9056 C   0  0  0  0  0  0  0  0  0  0  0  0
   44.3962   50.2541  462.5135 O   0  0  0  0  0  0  0  0  0  0  0  0
   44.9110   48.3938  461.1836 C   0  0  0  0  0  0  0  0  0  0  0  0
  1  2  2  0
  2  3  1  0
  2  4  1  0
  3  8  1  0
  4  5  1  0
  5  6  1  0
  6  7  2  0
  6  8  1  0
M  END
$$$$
