
     RDKit          3D

  8  8  0  0  0  0  0  0  0  0999 V2000
   51.9409   55.5460  456.1561 O   0  0  0  0  0  0  0  0  0  0  0  0
   52.7926   55.8617  456.9699 C   0  0  0  0  0  0  0  0  0  0  0  0
   52.3487   56.2132  458.3333 C   0  0  0  0  0  0  0  0  0  0  0  0
   54.2320   55.8891  456.5928 C   0  0  0  0  0  0  0  0  0  0  0  0
   54.8259   57.2676  456.8724 C   0  0  0  0  0  0  0  0  0  0  0  0
   53.9344   57.9636  457.8282 C   0  0  0  0  0  0  0  0  0  0  0  0
   53.6799   59.1284  457.6970 O   0  0  0  0  0  0  0  0  0  0  0  0
   53.3751   57.1668  458.9437 C   0  0  0  0  0  0  0  0  0  0  0  0
  1  2  2  0
  2  3  1  0
  2  4  1  0
  3  8  1  0
  4  5  1  0
  5  6  1  0
  6  7  2  0
  6  8  1  0
M  END
$$$$
