
     RDKit          3D

  8  8  0  0  0  0  0  0  0  0999 V2000
   40.3056   50.2269  462.2196 O   0  0  0  0  0  0  0  0  0  0  0  0
   41.0423   49.2896  461.9624 C   0  0  0  0  0  0  0  0  0  0  0  0
   41.8636   48.7360  463.0571 C   0  0  0  0  0  0  0  0  0  0  0  0
   41.1057   48.7274  460.5859 C   0  0  0  0  0  0  0  0  0  0  0  0
   42.5426   48.7515  460.0703 C   0  0  0  0  0  0  0  0  0  0  0  0
   43.4444   48.8860  461.2372 C   0  0  0  0  0  0  0  0  0  0  0  0
   44.4037   49.6045  461.1948 O   0  0  0  0  0  0  0  0  0  0  0  0
   43.1137   48.1017  462.4487 C   0  0  0  0  0  0  0  0  0  0  0  0
  1  2  2  0
  2  3  1  0
  2  4  1  0
  3  8  1  0
  4  5  1  0
  5  6  1  0
  6  7  2  0
  6  8  1  0
M  END
$$$$
