
     RDKit          3D

  8  8  0  0  0  0  0  0  0  0999 V2000
   54.1650   45.5347  445.8246 O   0  0  0  0  0  0  0  0  0  0  0  0
   54.2504   46.2292  444.8257 C   0  0  0  0  0  0  0  0  0  0  0  0
   53.2319   46.0519  443.7719 C   0  0  0  0  0  0  0  0  0  0  0  0
   55.3498   47.2219  444.6813 C   0  0  0  0  0  0  0  0  0  0  0  0
   56.1328   46.9608  443.3969 C   0  0  0  0  0  0  0  0  0  0  0  0
   55.2888   46.1298  442.5083 C   0  0  0  0  0  0  0  0  0  0  0  0
   55.7621   45.2268  441.8766 O   0  0  0  0  0  0  0  0  0  0  0  0
   53.8471   46.4587  442.4335 C   0  0  0  0  0  0  0  0  0  0  0  0
  1  2  2  0
  2  3  1  0
  2  4  1  0
  3  8  1  0
  4  5  1  0
  5  6  1  0
  6  7  2  0
  6  8  1  0
M  END
$$$$
