
     RDKit          3D

  8  8  0  0  0  0  0  0  0  0999 V2000
   47.7222   44.5260  465.4385 O   0  0  0  0  0  0  0  0  0  0  0  0
   48.5399   43.6291  465.5581 C   0  0  0  0  0  0  0  0  0  0  0  0
   49.9384   44.0033  465.8472 C   0  0  0  0  0  0  0  0  0  0  0  0
   48.1328   42.2047  465.4158 C   0  0  0  0  0  0  0  0  0  0  0  0
   48.9695   41.5207  464.3372 C   0  0  0  0  0  0  0  0  0  0  0  0
   50.1865   42.3354  464.1181 C   0  0  0  0  0  0  0  0  0  0  0  0
   50.6101   42.5248  463.0121 O   0  0  0  0  0  0  0  0  0  0  0  0
   50.8526   42.9014  465.3130 C   0  0  0  0  0  0  0  0  0  0  0  0
  1  2  2  0
  2  3  1  0
  2  4  1  0
  3  8  1  0
  4  5  1  0
  5  6  1  0
  6  7  2  0
  6  8  1  0
M  END
$$$$
