
     RDKit          3D

  8  8  0  0  0  0  0  0  0  0999 V2000
   42.1822   45.9289  459.5997 O   0  0  0  0  0  0  0  0  0  0  0  0
   41.8888   46.6598  460.5205 C   0  0  0  0  0  0  0  0  0  0  0  0
   42.5100   46.3974  461.8408 C   0  0  0  0  0  0  0  0  0  0  0  0
   40.9505   47.7915  460.3974 C   0  0  0  0  0  0  0  0  0  0  0  0
   41.3803   49.0102  461.1644 C   0  0  0  0  0  0  0  0  0  0  0  0
   42.3930   48.7649  462.1832 C   0  0  0  0  0  0  0  0  0  0  0  0
   42.4727   49.5302  463.1318 O   0  0  0  0  0  0  0  0  0  0  0  0
   43.3555   47.6253  462.1480 C   0  0  0  0  0  0  0  0  0  0  0  0
  1  2  2  0
  3  2  1  1
  4  2  1  1
  3  8  1  0
  4  5  1  0
  5  6  1  6
  6  7  2  0
  8  6  1  6
M  END
$$$$
