
     RDKit          3D

  8  8  0  0  0  0  0  0  0  0999 V2000
   51.8670   50.4370  439.7578 O   0  0  0  0  0  0  0  0  0  0  0  0
   52.6470   51.3744  439.7517 C   0  0  0  0  0  0  0  0  0  0  0  0
   52.2514   52.5976  439.0260 C   0  0  0  0  0  0  0  0  0  0  0  0
   53.9546   51.2804  440.4561 C   0  0  0  0  0  0  0  0  0  0  0  0
   55.0992   51.5683  439.4875 C   0  0  0  0  0  0  0  0  0  0  0  0
   54.5385   52.2814  438.3171 C   0  0  0  0  0  0  0  0  0  0  0  0
   54.9013   52.0195  437.2043 O   0  0  0  0  0  0  0  0  0  0  0  0
   53.5192   53.3233  438.5771 C   0  0  0  0  0  0  0  0  0  0  0  0
  1  2  2  0
  2  3  1  0
  2  4  1  0
  3  8  1  0
  4  5  1  0
  5  6  1  0
  6  7  2  0
  6  8  1  0
M  END
$$$$
