
     RDKit          3D

  8  8  0  0  0  0  0  0  0  0999 V2000
   41.3855   48.2559  461.1353 O   0  0  0  0  0  0  0  0  0  0  0  0
   41.3970   49.4558  461.3035 C   0  0  0  0  0  0  0  0  0  0  0  0
   41.1297   49.9685  462.6686 C   0  0  0  0  0  0  0  0  0  0  0  0
   41.6618   50.4285  460.2264 C   0  0  0  0  0  0  0  0  0  0  0  0
   42.5165   51.5850  460.6626 C   0  0  0  0  0  0  0  0  0  0  0  0
   42.6082   51.7667  462.1055 C   0  0  0  0  0  0  0  0  0  0  0  0
   42.8637   52.8771  462.5452 O   0  0  0  0  0  0  0  0  0  0  0  0
   42.4083   50.6726  463.1003 C   0  0  0  0  0  0  0  0  0  0  0  0
  1  2  2  0
  3  2  1  1
  4  2  1  1
  3  8  1  0
  4  5  1  0
  5  6  1  6
  6  7  2  0
  8  6  1  6
M  END
$$$$
