
     RDKit          3D

  8  8  0  0  0  0  0  0  0  0999 V2000
   42.1356   47.8764  460.1116 O   0  0  0  0  0  0  0  0  0  0  0  0
   42.8232   48.5744  460.8245 C   0  0  0  0  0  0  0  0  0  0  0  0
   43.9706   49.2811  460.2066 C   0  0  0  0  0  0  0  0  0  0  0  0
   42.5797   48.7569  462.2680 C   0  0  0  0  0  0  0  0  0  0  0  0
   42.8004   50.1673  462.7375 C   0  0  0  0  0  0  0  0  0  0  0  0
   43.5718   51.0012  461.8248 C   0  0  0  0  0  0  0  0  0  0  0  0
   44.1851   51.9569  462.2745 O   0  0  0  0  0  0  0  0  0  0  0  0
   43.6665   50.7653  460.3545 C   0  0  0  0  0  0  0  0  0  0  0  0
  1  2  2  0
  3  2  1  1
  4  2  1  1
  3  8  1  0
  4  5  1  0
  5  6  1  6
  6  7  2  0
  8  6  1  6
M  END
$$$$
