
     RDKit          3D

  8  8  0  0  0  0  0  0  0  0999 V2000
   45.2394   77.9244  476.5062 O   0  0  0  0  0  0  0  0  0  0  0  0
   45.1337   77.2285  477.5022 C   0  0  0  0  0  0  0  0  0  0  0  0
   45.4519   75.7923  477.3784 C   0  0  0  0  0  0  0  0  0  0  0  0
   44.6970   77.8163  478.7978 C   0  0  0  0  0  0  0  0  0  0  0  0
   43.4685   77.0793  479.3257 C   0  0  0  0  0  0  0  0  0  0  0  0
   43.3931   75.7685  478.6411 C   0  0  0  0  0  0  0  0  0  0  0  0
   42.3420   75.3286  478.2666 O   0  0  0  0  0  0  0  0  0  0  0  0
   44.6605   75.0299  478.4404 C   0  0  0  0  0  0  0  0  0  0  0  0
  1  2  2  0
  2  3  1  0
  2  4  1  0
  3  8  1  0
  4  5  1  0
  5  6  1  0
  6  7  2  0
  6  8  1  0
M  END
$$$$
