
     RDKit          3D

  8  8  0  0  0  0  0  0  0  0999 V2000
   44.3574   47.1919  458.9166 O   0  0  0  0  0  0  0  0  0  0  0  0
   45.2263   46.3368  458.8820 C   0  0  0  0  0  0  0  0  0  0  0  0
   46.6273   46.7683  459.0563 C   0  0  0  0  0  0  0  0  0  0  0  0
   44.8772   44.9057  458.6703 C   0  0  0  0  0  0  0  0  0  0  0  0
   45.6282   44.3512  457.4621 C   0  0  0  0  0  0  0  0  0  0  0  0
   46.7737   45.2478  457.1854 C   0  0  0  0  0  0  0  0  0  0  0  0
   47.0686   45.5413  456.0605 O   0  0  0  0  0  0  0  0  0  0  0  0
   47.5334   45.7623  458.3474 C   0  0  0  0  0  0  0  0  0  0  0  0
  1  2  2  0
  2  3  1  0
  2  4  1  0
  3  8  1  0
  4  5  1  0
  5  6  1  0
  6  7  2  0
  6  8  1  0
M  END
$$$$
