
     RDKit          3D

 34 39  0  0  0  0  0  0  0  0999 V2000
   26.6990   -7.4854    5.3003 O   0  0  0  0  0  0  0  0  0  0  0  0
   26.8238   -7.2502    6.5151 C   0  0  0  0  0  0  0  0  0  0  0  0
   27.2175   -5.9294    6.8812 N   0  0  0  0  0  0  0  0  0  0  0  0
   26.8821   -5.3563    8.1509 C   0  0  0  0  0  0  0  0  0  0  0  0
   26.8788   -3.8826    8.0834 C   0  0  0  0  0  0  0  0  0  0  0  0
   26.7270   -2.9474    9.0805 N   0  0  0  0  0  0  0  0  0  0  0  0
   26.7950   -1.7733    8.5165 N   0  0  0  0  0  0  0  0  0  0  0  0
   26.9847   -1.8704    7.1948 C   0  0  0  0  0  0  0  0  0  0  0  0
   27.1221   -0.7969    6.1840 C   0  0  1  0  0  0  0  0  0  0  0  0
   26.8536    0.5770    6.7096 C   0  0  0  0  0  0  0  0  0  0  0  0
   28.1994    0.2071    6.3397 C   0  0  0  0  0  0  0  0  0  0  0  0
   27.0339   -3.2125    6.9520 N   0  0  0  0  0  0  0  0  0  0  0  0
   27.2348   -3.8444    5.6393 C   0  0  0  0  0  0  0  0  0  0  0  0
   27.9772   -5.1578    5.9153 C   0  0  0  0  0  0  0  0  0  0  0  0
   26.5861   -8.2392    7.5414 C   0  0  0  0  0  0  0  0  0  0  0  0
   27.1770   -8.1081    8.8060 C   0  0  0  0  0  0  0  0  0  0  0  0
   26.9643   -9.0296    9.7843 C   0  0  0  0  0  0  0  0  0  0  0  0
   25.7863   -9.3365    7.3382 C   0  0  0  0  0  0  0  0  0  0  0  0
   25.5707  -10.2818    8.3451 C   0  0  0  0  0  0  0  0  0  0  0  0
   26.1475  -10.1493    9.5746 C   0  0  0  0  0  0  0  0  0  0  0  0
   25.9956  -11.1091   10.6563 C   0  0  0  0  0  0  0  0  0  0  0  0
   25.7628  -10.8565   11.9076 C   0  0  0  0  0  0  0  0  0  0  0  0
   25.4909  -11.7534   13.0059 C   0  0  0  0  0  0  0  0  0  0  0  0
   25.4072  -13.0092   13.0214 O   0  0  0  0  0  0  0  0  0  0  0  0
   25.7389   -9.5518   12.4309 O   0  0  0  0  0  0  0  0  0  0  0  0
   25.4706   -9.5932   13.7798 C   0  0  0  0  0  0  0  0  0  0  0  0
   25.3444   -8.5917   14.7369 C   0  0  0  0  0  0  0  0  0  0  0  0
   25.4826   -7.2091   14.3323 C   0  0  0  0  0  0  0  0  0  0  0  0
   25.4047   -6.3125   15.2016 O   0  0  0  0  0  0  0  0  0  0  0  0
   25.6983   -6.8598   12.9904 N   0  0  0  0  0  0  0  0  0  0  0  0
   25.3092  -10.9088   14.1932 C   0  0  0  0  0  0  0  0  0  0  0  0
   25.0336  -11.2583   15.5067 C   0  0  0  0  0  0  0  0  0  0  0  0
   24.9136  -10.2464   16.4461 C   0  0  0  0  0  0  0  0  0  0  0  0
   25.0712   -8.9480   16.0384 C   0  0  0  0  0  0  0  0  0  0  0  0
  1  2  2  0
  2  3  1  0
  2 15  1  0
  4  3  1  1
 14  3  1  1
  4  5  1  0
  5  6  2  0
  5 12  1  0
  6  7  1  0
  7  8  2  0
  9  8  1  1
  8 12  1  0
  9 10  1  0
  9 11  1  0
 10 11  2  0
 13 12  1  1
 13 14  1  0
 15 16  2  0
 15 18  1  0
 16 17  1  0
 17 20  2  0
 18 19  2  0
 19 20  1  0
 20 21  1  0
 21 22  2  0
 22 23  1  0
 22 25  1  0
 23 24  2  0
 23 31  1  0
 25 26  1  0
 26 27  2  0
 26 31  1  0
 27 28  1  0
 27 34  1  0
 28 29  2  0
 28 30  1  0
 31 32  2  0
 32 33  1  0
 33 34  2  0
M  END
$$$$
