
     RDKit          3D

 34 39  0  0  0  0  0  0  0  0999 V2000
   26.9118  -11.4812    7.5261 O   0  0  0  0  0  0  0  0  0  0  0  0
   25.8107  -10.8570    7.6725 C   0  0  0  0  0  0  0  0  0  0  0  0
   24.7534  -11.1811    6.7978 N   0  0  0  0  0  0  0  0  0  0  0  0
   23.5837  -10.3341    6.7687 C   0  0  0  0  0  0  0  0  0  0  0  0
   23.1751  -10.1337    5.3517 C   0  0  0  0  0  0  0  0  0  0  0  0
   22.5760   -9.1033    4.7388 N   0  0  0  0  0  0  0  0  0  0  0  0
   22.3911   -9.3662    3.4682 N   0  0  0  0  0  0  0  0  0  0  0  0
   22.8947  -10.6252    3.2536 C   0  0  0  0  0  0  0  0  0  0  0  0
   22.8589  -11.2873    1.9253 C   0  0  1  0  0  0  0  0  0  0  0  0
   21.5902  -11.4459    1.2508 C   0  0  0  0  0  0  0  0  0  0  0  0
   22.4501  -10.4322    0.8182 C   0  0  0  0  0  0  0  0  0  0  0  0
   23.3752  -11.0863    4.4165 N   0  0  0  0  0  0  0  0  0  0  0  0
   24.0252  -12.3411    4.7264 C   0  0  0  0  0  0  0  0  0  0  0  0
   24.8515  -12.3497    5.9589 C   0  0  0  0  0  0  0  0  0  0  0  0
   25.7314   -9.8572    8.7348 C   0  0  0  0  0  0  0  0  0  0  0  0
   26.3193   -8.6197    8.6673 C   0  0  0  0  0  0  0  0  0  0  0  0
   26.2139   -7.6976    9.7084 C   0  0  0  0  0  0  0  0  0  0  0  0
   25.0250  -10.1424    9.8974 C   0  0  0  0  0  0  0  0  0  0  0  0
   24.9148   -9.2381   10.9313 C   0  0  0  0  0  0  0  0  0  0  0  0
   25.5140   -7.9788   10.8622 C   0  0  0  0  0  0  0  0  0  0  0  0
   25.3553   -7.0106   11.9384 C   0  0  0  0  0  0  0  0  0  0  0  0
   25.9742   -5.8399   11.9542 C   0  0  0  0  0  0  0  0  0  0  0  0
   25.9680   -4.8049   12.9736 C   0  0  0  0  0  0  0  0  0  0  0  0
   25.3572   -4.8240   14.0807 O   0  0  0  0  0  0  0  0  0  0  0  0
   26.8051   -5.3262   10.9343 O   0  0  0  0  0  0  0  0  0  0  0  0
   27.2836   -4.0691   11.2796 C   0  0  0  0  0  0  0  0  0  0  0  0
   28.1139   -3.2500   10.5528 C   0  0  0  0  0  0  0  0  0  0  0  0
   28.6473   -3.5863    9.2431 C   0  0  0  0  0  0  0  0  0  0  0  0
   29.3692   -2.7552    8.6321 O   0  0  0  0  0  0  0  0  0  0  0  0
   28.3846   -4.8267    8.6182 N   0  0  0  0  0  0  0  0  0  0  0  0
   26.8053   -3.6964   12.5174 C   0  0  0  0  0  0  0  0  0  0  0  0
   27.1589   -2.4794   13.0508 C   0  0  0  0  0  0  0  0  0  0  0  0
   27.9877   -1.6368   12.3494 C   0  0  0  0  0  0  0  0  0  0  0  0
   28.4701   -2.0200   11.0943 C   0  0  0  0  0  0  0  0  0  0  0  0
  1  2  2  0
  2  3  1  0
  2 15  1  0
  3  4  1  0
  3 14  1  0
  4  5  1  0
  5  6  2  0
  5 12  1  0
  6  7  1  0
  7  8  2  0
  9  8  1  1
  8 12  1  0
  9 10  1  0
  9 11  1  0
 10 11  2  0
 12 13  1  0
 13 14  1  0
 15 16  2  0
 15 18  1  0
 16 17  1  0
 17 20  2  0
 18 19  2  0
 19 20  1  0
 20 21  1  0
 21 22  2  0
 22 23  1  0
 22 25  1  0
 23 24  2  0
 23 31  1  0
 25 26  1  0
 26 27  2  0
 26 31  1  0
 27 28  1  0
 27 34  1  0
 28 29  2  0
 28 30  1  0
 31 32  2  0
 32 33  1  0
 33 34  2  0
M  END
$$$$
