
     RDKit          3D

 34 39  0  0  0  0  0  0  0  0999 V2000
   24.3539  -12.6759   10.3090 O   0  0  0  0  0  0  0  0  0  0  0  0
   24.0656  -12.2561   11.4435 C   0  0  0  0  0  0  0  0  0  0  0  0
   23.5648  -13.2095   12.3783 N   0  0  0  0  0  0  0  0  0  0  0  0
   24.2150  -13.4680   13.6287 C   0  0  0  0  0  0  0  0  0  0  0  0
   23.8814  -14.8143   14.1315 C   0  0  0  0  0  0  0  0  0  0  0  0
   24.1884  -15.4173   15.3289 N   0  0  0  0  0  0  0  0  0  0  0  0
   23.6708  -16.6141   15.2977 N   0  0  0  0  0  0  0  0  0  0  0  0
   23.0328  -16.8465   14.1439 C   0  0  0  0  0  0  0  0  0  0  0  0
   22.3092  -18.0591   13.6981 C   0  0  1  0  0  0  0  0  0  0  0  0
   21.5360  -18.7431   14.7799 C   0  0  0  0  0  0  0  0  0  0  0  0
   20.8286  -18.0645   13.7198 C   0  0  0  0  0  0  0  0  0  0  0  0
   23.1826  -15.6931   13.4296 N   0  0  0  0  0  0  0  0  0  0  0  0
   22.6509  -15.4382   12.0824 C   0  0  0  0  0  0  0  0  0  0  0  0
   22.3582  -13.9337   12.0249 C   0  0  0  0  0  0  0  0  0  0  0  0
   24.2202  -10.8750   11.8394 C   0  0  0  0  0  0  0  0  0  0  0  0
   23.7501  -10.4353   13.0849 C   0  0  0  0  0  0  0  0  0  0  0  0
   23.8870   -9.1386   13.4741 C   0  0  0  0  0  0  0  0  0  0  0  0
   24.8224   -9.9394   11.0351 C   0  0  0  0  0  0  0  0  0  0  0  0
   24.9606   -8.6079   11.4376 C   0  0  0  0  0  0  0  0  0  0  0  0
   24.5021   -8.1850   12.6513 C   0  0  0  0  0  0  0  0  0  0  0  0
   24.5806   -6.8111   13.1211 C   0  0  0  0  0  0  0  0  0  0  0  0
   25.3923   -5.8840   12.7144 C   0  0  0  0  0  0  0  0  0  0  0  0
   25.6493   -4.5679   13.2496 C   0  0  0  0  0  0  0  0  0  0  0  0
   25.1436   -3.9884   14.2460 O   0  0  0  0  0  0  0  0  0  0  0  0
   26.2207   -6.0354   11.5886 O   0  0  0  0  0  0  0  0  0  0  0  0
   26.9689   -4.8960   11.4013 C   0  0  0  0  0  0  0  0  0  0  0  0
   27.9209   -4.5515   10.4472 C   0  0  0  0  0  0  0  0  0  0  0  0
   28.2388   -5.4948    9.3967 C   0  0  0  0  0  0  0  0  0  0  0  0
   29.0177   -5.1439    8.4825 O   0  0  0  0  0  0  0  0  0  0  0  0
   27.6899   -6.7861    9.3852 N   0  0  0  0  0  0  0  0  0  0  0  0
   26.6674   -3.9614   12.3828 C   0  0  0  0  0  0  0  0  0  0  0  0
   27.2727   -2.7154   12.4494 C   0  0  0  0  0  0  0  0  0  0  0  0
   28.2202   -2.3914   11.4911 C   0  0  0  0  0  0  0  0  0  0  0  0
   28.5170   -3.3127   10.5215 C   0  0  0  0  0  0  0  0  0  0  0  0
  1  2  2  0
  2  3  1  0
  2 15  1  0
  4  3  1  1
 14  3  1  1
  4  5  1  0
  5  6  2  0
  5 12  1  0
  6  7  1  0
  7  8  2  0
  9  8  1  1
  8 12  1  0
  9 10  1  0
  9 11  1  0
 10 11  2  0
 13 12  1  1
 13 14  1  0
 15 16  2  0
 15 18  1  0
 16 17  1  0
 17 20  2  0
 18 19  2  0
 19 20  1  0
 20 21  1  0
 21 22  2  0
 22 23  1  0
 22 25  1  0
 23 24  2  0
 23 31  1  0
 25 26  1  0
 26 27  2  0
 26 31  1  0
 27 28  1  0
 27 34  1  0
 28 29  2  0
 28 30  1  0
 31 32  2  0
 32 33  1  0
 33 34  2  0
M  END
$$$$
