
     RDKit          3D

 34 39  0  0  0  0  0  0  0  0999 V2000
   22.5853  -11.3791    9.9872 O   0  0  0  0  0  0  0  0  0  0  0  0
   23.7835  -11.7223    9.7228 C   0  0  0  0  0  0  0  0  0  0  0  0
   24.0405  -13.0927    9.5127 N   0  0  0  0  0  0  0  0  0  0  0  0
   25.1089  -13.7261   10.2500 C   0  0  0  0  0  0  0  0  0  0  0  0
   24.6401  -15.0583   10.7194 C   0  0  0  0  0  0  0  0  0  0  0  0
   24.9534  -15.7761   11.8069 N   0  0  0  0  0  0  0  0  0  0  0  0
   24.3039  -16.9145   11.8116 N   0  0  0  0  0  0  0  0  0  0  0  0
   23.5369  -16.9300   10.6731 C   0  0  0  0  0  0  0  0  0  0  0  0
   22.6586  -18.0717   10.3136 C   0  0  1  0  0  0  0  0  0  0  0  0
   23.1945  -19.4135   10.3553 C   0  0  0  0  0  0  0  0  0  0  0  0
   22.3680  -18.9959   11.4024 C   0  0  0  0  0  0  0  0  0  0  0  0
   23.7497  -15.7846   10.0108 N   0  0  0  0  0  0  0  0  0  0  0  0
   23.1752  -15.3001    8.7746 C   0  0  0  0  0  0  0  0  0  0  0  0
   23.2448  -13.8328    8.5650 C   0  0  0  0  0  0  0  0  0  0  0  0
   24.7942  -10.6694    9.6575 C   0  0  0  0  0  0  0  0  0  0  0  0
   25.0916   -9.8275   10.6989 C   0  0  0  0  0  0  0  0  0  0  0  0
   26.0674   -8.8372   10.5882 C   0  0  0  0  0  0  0  0  0  0  0  0
   25.5181  -10.4817    8.4859 C   0  0  0  0  0  0  0  0  0  0  0  0
   26.4843   -9.5064    8.3669 C   0  0  0  0  0  0  0  0  0  0  0  0
   26.7861   -8.6493    9.4271 C   0  0  0  0  0  0  0  0  0  0  0  0
   27.8400   -7.6511    9.3102 C   0  0  0  0  0  0  0  0  0  0  0  0
   27.8433   -6.5198    9.9988 C   0  0  0  0  0  0  0  0  0  0  0  0
   28.7391   -5.3805    9.9004 C   0  0  0  0  0  0  0  0  0  0  0  0
   29.7157   -5.2403    9.1093 O   0  0  0  0  0  0  0  0  0  0  0  0
   26.9373   -6.1692   11.0239 O   0  0  0  0  0  0  0  0  0  0  0  0
   27.2366   -4.9123   11.5329 C   0  0  0  0  0  0  0  0  0  0  0  0
   26.5905   -4.2284   12.5345 C   0  0  0  0  0  0  0  0  0  0  0  0
   25.4359   -4.7385   13.2556 C   0  0  0  0  0  0  0  0  0  0  0  0
   24.8741   -4.0180   14.1218 O   0  0  0  0  0  0  0  0  0  0  0  0
   24.9106   -6.0295   13.0203 N   0  0  0  0  0  0  0  0  0  0  0  0
   28.3300   -4.3795   10.8845 C   0  0  0  0  0  0  0  0  0  0  0  0
   28.7968   -3.1351   11.2373 C   0  0  0  0  0  0  0  0  0  0  0  0
   28.1731   -2.4251   12.2351 C   0  0  0  0  0  0  0  0  0  0  0  0
   27.0643   -2.9703   12.8893 C   0  0  0  0  0  0  0  0  0  0  0  0
  1  2  2  0
  2  3  1  0
  2 15  1  0
  3  4  1  0
  3 14  1  0
  4  5  1  0
  5  6  2  0
  5 12  1  0
  6  7  1  0
  7  8  2  0
  9  8  1  1
  8 12  1  0
  9 10  1  0
  9 11  1  0
 10 11  2  0
 12 13  1  0
 13 14  1  0
 15 16  2  0
 15 18  1  0
 16 17  1  0
 17 20  2  0
 18 19  2  0
 19 20  1  0
 20 21  1  0
 21 22  2  0
 22 23  1  0
 22 25  1  0
 23 24  2  0
 23 31  1  0
 25 26  1  0
 26 27  2  0
 26 31  1  0
 27 28  1  0
 27 34  1  0
 28 29  2  0
 28 30  1  0
 31 32  2  0
 32 33  1  0
 33 34  2  0
M  END
$$$$
