
     RDKit          3D

 34 39  0  0  0  0  0  0  0  0999 V2000
   25.8206  -13.0553   11.0976 O   0  0  0  0  0  0  0  0  0  0  0  0
   24.9950  -12.5932   11.9046 C   0  0  0  0  0  0  0  0  0  0  0  0
   24.0560  -13.5084   12.4651 N   0  0  0  0  0  0  0  0  0  0  0  0
   24.4387  -14.5087   13.4170 C   0  0  0  0  0  0  0  0  0  0  0  0
   23.4901  -15.6386   13.4095 C   0  0  0  0  0  0  0  0  0  0  0  0
   23.4126  -16.7397   14.2299 N   0  0  0  0  0  0  0  0  0  0  0  0
   22.4014  -17.4530   13.8175 N   0  0  0  0  0  0  0  0  0  0  0  0
   21.7961  -16.8894   12.7648 C   0  0  0  0  0  0  0  0  0  0  0  0
   20.6193  -17.3564   11.9966 C   0  0  1  0  0  0  0  0  0  0  0  0
   20.9551  -18.2467   10.8431 C   0  0  0  0  0  0  0  0  0  0  0  0
   20.2840  -18.7987   11.9963 C   0  0  0  0  0  0  0  0  0  0  0  0
   22.5049  -15.7466   12.5314 N   0  0  0  0  0  0  0  0  0  0  0  0
   22.2308  -14.7631   11.4729 C   0  0  0  0  0  0  0  0  0  0  0  0
   22.6737  -13.4069   12.0360 C   0  0  0  0  0  0  0  0  0  0  0  0
   24.9571  -11.2005   12.2880 C   0  0  0  0  0  0  0  0  0  0  0  0
   23.7307  -10.5418   12.4545 C   0  0  0  0  0  0  0  0  0  0  0  0
   23.6761   -9.2309   12.8152 C   0  0  0  0  0  0  0  0  0  0  0  0
   26.0948  -10.4633   12.5052 C   0  0  0  0  0  0  0  0  0  0  0  0
   26.0350   -9.1165   12.8746 C   0  0  0  0  0  0  0  0  0  0  0  0
   24.8388   -8.4800   13.0363 C   0  0  0  0  0  0  0  0  0  0  0  0
   24.7012   -7.0751   13.3851 C   0  0  0  0  0  0  0  0  0  0  0  0
   25.3513   -6.0707   12.8829 C   0  0  0  0  0  0  0  0  0  0  0  0
   25.3714   -4.6815   13.2756 C   0  0  0  0  0  0  0  0  0  0  0  0
   24.7563   -4.0960   14.2047 O   0  0  0  0  0  0  0  0  0  0  0  0
   26.2142   -6.1953   11.7799 O   0  0  0  0  0  0  0  0  0  0  0  0
   26.7618   -4.9708   11.4732 C   0  0  0  0  0  0  0  0  0  0  0  0
   27.6591   -4.5704   10.4885 C   0  0  0  0  0  0  0  0  0  0  0  0
   28.1518   -5.5501    9.5440 C   0  0  0  0  0  0  0  0  0  0  0  0
   28.9428   -5.1826    8.6470 O   0  0  0  0  0  0  0  0  0  0  0  0
   27.7580   -6.8950    9.6158 N   0  0  0  0  0  0  0  0  0  0  0  0
   26.2879   -4.0040   12.3499 C   0  0  0  0  0  0  0  0  0  0  0  0
   26.6718   -2.6730   12.2843 C   0  0  0  0  0  0  0  0  0  0  0  0
   27.5682   -2.2940   11.2976 C   0  0  0  0  0  0  0  0  0  0  0  0
   28.0350   -3.2472   10.4313 C   0  0  0  0  0  0  0  0  0  0  0  0
  1  2  2  0
  2  3  1  0
  2 15  1  0
  4  3  1  1
 14  3  1  1
  4  5  1  0
  5  6  2  0
  5 12  1  0
  6  7  1  0
  7  8  2  0
  9  8  1  1
  8 12  1  0
  9 10  1  0
  9 11  1  0
 10 11  2  0
 13 12  1  1
 13 14  1  0
 15 16  2  0
 15 18  1  0
 16 17  1  0
 17 20  2  0
 18 19  2  0
 19 20  1  0
 20 21  1  0
 21 22  2  0
 22 23  1  0
 22 25  1  0
 23 24  2  0
 23 31  1  0
 25 26  1  0
 26 27  2  0
 26 31  1  0
 27 28  1  0
 27 34  1  0
 28 29  2  0
 28 30  1  0
 31 32  2  0
 32 33  1  0
 33 34  2  0
M  END
$$$$
