
     RDKit          3D

 34 39  0  0  0  0  0  0  0  0999 V2000
   25.2645  -12.6707   10.7992 O   0  0  0  0  0  0  0  0  0  0  0  0
   24.6714  -12.2812   11.8204 C   0  0  0  0  0  0  0  0  0  0  0  0
   23.9523  -13.2622   12.5647 N   0  0  0  0  0  0  0  0  0  0  0  0
   24.0803  -13.3883   13.9863 C   0  0  0  0  0  0  0  0  0  0  0  0
   23.7283  -14.7500   14.4318 C   0  0  0  0  0  0  0  0  0  0  0  0
   23.6028  -15.2654   15.7007 N   0  0  0  0  0  0  0  0  0  0  0  0
   23.2771  -16.5219   15.5722 N   0  0  0  0  0  0  0  0  0  0  0  0
   23.1770  -16.8770   14.2852 C   0  0  0  0  0  0  0  0  0  0  0  0
   22.8289  -18.1910   13.6975 C   0  0  1  0  0  0  0  0  0  0  0  0
   22.4531  -19.2315   14.7035 C   0  0  0  0  0  0  0  0  0  0  0  0
   21.4418  -18.6934   13.8246 C   0  0  0  0  0  0  0  0  0  0  0  0
   23.4666  -15.7384   13.5906 N   0  0  0  0  0  0  0  0  0  0  0  0
   23.4852  -15.6031   12.1263 C   0  0  0  0  0  0  0  0  0  0  0  0
   23.0726  -14.1550   11.8338 C   0  0  0  0  0  0  0  0  0  0  0  0
   24.6882  -10.9081   12.2705 C   0  0  0  0  0  0  0  0  0  0  0  0
   24.8805   -9.8625   11.3566 C   0  0  0  0  0  0  0  0  0  0  0  0
   24.8992   -8.5639   11.7626 C   0  0  0  0  0  0  0  0  0  0  0  0
   24.5204  -10.5611   13.5882 C   0  0  0  0  0  0  0  0  0  0  0  0
   24.5412   -9.2260   14.0019 C   0  0  0  0  0  0  0  0  0  0  0  0
   24.7279   -8.2117   13.1084 C   0  0  0  0  0  0  0  0  0  0  0  0
   24.7950   -6.8051   13.4711 C   0  0  0  0  0  0  0  0  0  0  0  0
   25.5637   -5.8944   12.9578 C   0  0  0  0  0  0  0  0  0  0  0  0
   25.8095   -4.5352   13.3782 C   0  0  0  0  0  0  0  0  0  0  0  0
   25.3331   -3.8915   14.3492 O   0  0  0  0  0  0  0  0  0  0  0  0
   26.3455   -6.1142   11.8103 O   0  0  0  0  0  0  0  0  0  0  0  0
   27.0550   -4.9762   11.5021 C   0  0  0  0  0  0  0  0  0  0  0  0
   27.9549   -4.6856   10.4819 C   0  0  0  0  0  0  0  0  0  0  0  0
   28.2509   -5.7003    9.4933 C   0  0  0  0  0  0  0  0  0  0  0  0
   29.0222   -5.4197    8.5490 O   0  0  0  0  0  0  0  0  0  0  0  0
   27.6891   -6.9836    9.5746 N   0  0  0  0  0  0  0  0  0  0  0  0
   26.7725   -3.9751   12.4217 C   0  0  0  0  0  0  0  0  0  0  0  0
   27.3475   -2.7144   12.3648 C   0  0  0  0  0  0  0  0  0  0  0  0
   28.2433   -2.4447   11.3422 C   0  0  0  0  0  0  0  0  0  0  0  0
   28.5212   -3.4316   10.4336 C   0  0  0  0  0  0  0  0  0  0  0  0
  1  2  2  0
  2  3  1  0
  2 15  1  0
  4  3  1  1
 14  3  1  1
  4  5  1  0
  5  6  2  0
  5 12  1  0
  6  7  1  0
  7  8  2  0
  9  8  1  1
  8 12  1  0
  9 10  1  0
  9 11  1  0
 10 11  2  0
 13 12  1  1
 13 14  1  0
 15 16  2  0
 15 18  1  0
 16 17  1  0
 17 20  2  0
 18 19  2  0
 19 20  1  0
 20 21  1  0
 21 22  2  0
 22 23  1  0
 22 25  1  0
 23 24  2  0
 23 31  1  0
 25 26  1  0
 26 27  2  0
 26 31  1  0
 27 28  1  0
 27 34  1  0
 28 29  2  0
 28 30  1  0
 31 32  2  0
 32 33  1  0
 33 34  2  0
M  END
$$$$
