
     RDKit          3D

 34 39  0  0  0  0  0  0  0  0999 V2000
   26.1871   -5.9575    8.0246 O   0  0  0  0  0  0  0  0  0  0  0  0
   25.7013   -7.0447    7.6664 C   0  0  0  0  0  0  0  0  0  0  0  0
   25.2000   -7.1216    6.3336 N   0  0  0  0  0  0  0  0  0  0  0  0
   25.1458   -8.3558    5.6076 C   0  0  0  0  0  0  0  0  0  0  0  0
   25.1477   -8.1154    4.1520 C   0  0  0  0  0  0  0  0  0  0  0  0
   24.9916   -8.9943    3.1058 N   0  0  0  0  0  0  0  0  0  0  0  0
   25.0731   -8.2975    2.0061 N   0  0  0  0  0  0  0  0  0  0  0  0
   25.2751   -6.9984    2.2584 C   0  0  0  0  0  0  0  0  0  0  0  0
   25.4209   -5.8689    1.3117 C   0  0  1  0  0  0  0  0  0  0  0  0
   25.2465   -6.2475   -0.1244 C   0  0  0  0  0  0  0  0  0  0  0  0
   24.2460   -5.4324    0.5232 C   0  0  0  0  0  0  0  0  0  0  0  0
   25.3171   -6.9147    3.6201 N   0  0  0  0  0  0  0  0  0  0  0  0
   25.5134   -5.6852    4.4027 C   0  0  0  0  0  0  0  0  0  0  0  0
   24.7414   -5.8936    5.7116 C   0  0  0  0  0  0  0  0  0  0  0  0
   25.6325   -8.2031    8.5275 C   0  0  0  0  0  0  0  0  0  0  0  0
   25.2294   -8.0729    9.8640 C   0  0  0  0  0  0  0  0  0  0  0  0
   25.1589   -9.1526   10.6891 C   0  0  0  0  0  0  0  0  0  0  0  0
   25.9511   -9.4659    8.0930 C   0  0  0  0  0  0  0  0  0  0  0  0
   25.8785  -10.5728    8.9436 C   0  0  0  0  0  0  0  0  0  0  0  0
   25.4848  -10.4410   10.2435 C   0  0  0  0  0  0  0  0  0  0  0  0
   25.4188  -11.5404   11.1929 C   0  0  0  0  0  0  0  0  0  0  0  0
   25.5619  -11.4793   12.4812 C   0  0  0  0  0  0  0  0  0  0  0  0
   25.7073  -12.5350   13.4552 C   0  0  0  0  0  0  0  0  0  0  0  0
   25.7269  -13.7834   13.2962 O   0  0  0  0  0  0  0  0  0  0  0  0
   25.6013  -10.2643   13.1875 O   0  0  0  0  0  0  0  0  0  0  0  0
   25.7626  -10.5093   14.5318 C   0  0  0  0  0  0  0  0  0  0  0  0
   25.8604   -9.6605   15.6296 C   0  0  0  0  0  0  0  0  0  0  0  0
   25.7638   -8.2309   15.4255 C   0  0  0  0  0  0  0  0  0  0  0  0
   25.9263   -7.4670   16.4030 O   0  0  0  0  0  0  0  0  0  0  0  0
   25.4904   -7.6917   14.1592 N   0  0  0  0  0  0  0  0  0  0  0  0
   25.8348  -11.8767   14.7615 C   0  0  0  0  0  0  0  0  0  0  0  0
   26.0013  -12.4214   16.0260 C   0  0  0  0  0  0  0  0  0  0  0  0
   26.0989  -11.5594   17.1068 C   0  0  0  0  0  0  0  0  0  0  0  0
   26.0262  -10.2101   16.8809 C   0  0  0  0  0  0  0  0  0  0  0  0
  1  2  2  0
  2  3  1  0
  2 15  1  0
  4  3  1  1
 14  3  1  1
  4  5  1  0
  5  6  2  0
  5 12  1  0
  6  7  1  0
  7  8  2  0
  9  8  1  1
  8 12  1  0
  9 10  1  0
  9 11  1  0
 10 11  2  0
 13 12  1  1
 13 14  1  0
 15 16  2  0
 15 18  1  0
 16 17  1  0
 17 20  2  0
 18 19  2  0
 19 20  1  0
 20 21  1  0
 21 22  2  0
 22 23  1  0
 22 25  1  0
 23 24  2  0
 23 31  1  0
 25 26  1  0
 26 27  2  0
 26 31  1  0
 27 28  1  0
 27 34  1  0
 28 29  2  0
 28 30  1  0
 31 32  2  0
 32 33  1  0
 33 34  2  0
M  END
$$$$
