
     RDKit          3D

 34 39  0  0  0  0  0  0  0  0999 V2000
   22.9527  -12.1317   10.2973 O   0  0  0  0  0  0  0  0  0  0  0  0
   24.1484  -12.2020   10.7316 C   0  0  0  0  0  0  0  0  0  0  0  0
   24.4731  -13.2777   11.5834 N   0  0  0  0  0  0  0  0  0  0  0  0
   25.0531  -12.9971   12.8762 C   0  0  0  0  0  0  0  0  0  0  0  0
   24.4144  -13.8823   13.8878 C   0  0  0  0  0  0  0  0  0  0  0  0
   24.1638  -13.7021   15.1920 N   0  0  0  0  0  0  0  0  0  0  0  0
   23.5911  -14.7644   15.7032 N   0  0  0  0  0  0  0  0  0  0  0  0
   23.4677  -15.6709   14.6796 C   0  0  0  0  0  0  0  0  0  0  0  0
   22.8700  -17.0168   14.8683 C   0  0  1  0  0  0  0  0  0  0  0  0
   23.3103  -17.8344   15.9761 C   0  0  0  0  0  0  0  0  0  0  0  0
   22.0804  -17.1787   16.0826 C   0  0  0  0  0  0  0  0  0  0  0  0
   23.9748  -15.1182   13.5692 N   0  0  0  0  0  0  0  0  0  0  0  0
   24.0680  -15.6424   12.2239 C   0  0  0  0  0  0  0  0  0  0  0  0
   24.2318  -14.6315   11.1501 C   0  0  0  0  0  0  0  0  0  0  0  0
   25.0868  -11.1639   10.3119 C   0  0  0  0  0  0  0  0  0  0  0  0
   26.3421  -11.4191    9.8211 C   0  0  0  0  0  0  0  0  0  0  0  0
   27.2022  -10.3926    9.4316 C   0  0  0  0  0  0  0  0  0  0  0  0
   24.7187   -9.8265   10.4000 C   0  0  0  0  0  0  0  0  0  0  0  0
   25.5610   -8.8053   10.0174 C   0  0  0  0  0  0  0  0  0  0  0  0
   26.8389   -9.0657    9.5185 C   0  0  0  0  0  0  0  0  0  0  0  0
   27.7068   -7.9845    9.0729 C   0  0  0  0  0  0  0  0  0  0  0  0
   27.7763   -6.8137    9.6878 C   0  0  0  0  0  0  0  0  0  0  0  0
   28.7149   -5.7220    9.4936 C   0  0  0  0  0  0  0  0  0  0  0  0
   29.6731   -5.6733    8.6698 O   0  0  0  0  0  0  0  0  0  0  0  0
   26.9155   -6.3614   10.7120 O   0  0  0  0  0  0  0  0  0  0  0  0
   27.2806   -5.0891   11.1319 C   0  0  0  0  0  0  0  0  0  0  0  0
   26.6923   -4.3170   12.1046 C   0  0  0  0  0  0  0  0  0  0  0  0
   25.5392   -4.7313   12.8868 C   0  0  0  0  0  0  0  0  0  0  0  0
   25.0350   -3.9362   13.7228 O   0  0  0  0  0  0  0  0  0  0  0  0
   24.9523   -6.0094   12.7450 N   0  0  0  0  0  0  0  0  0  0  0  0
   28.3757   -4.6450   10.4225 C   0  0  0  0  0  0  0  0  0  0  0  0
   28.9031   -3.4021   10.6829 C   0  0  0  0  0  0  0  0  0  0  0  0
   28.3381   -2.6052   11.6497 C   0  0  0  0  0  0  0  0  0  0  0  0
   27.2273   -3.0605   12.3661 C   0  0  0  0  0  0  0  0  0  0  0  0
  1  2  2  0
  2  3  1  0
  2 15  1  0
  3  4  1  0
  3 14  1  0
  4  5  1  0
  5  6  2  0
  5 12  1  0
  6  7  1  0
  7  8  2  0
  9  8  1  1
  8 12  1  0
  9 10  1  0
  9 11  1  0
 10 11  2  0
 12 13  1  0
 13 14  1  0
 15 16  2  0
 15 18  1  0
 16 17  1  0
 17 20  2  0
 18 19  2  0
 19 20  1  0
 20 21  1  0
 21 22  2  0
 22 23  1  0
 22 25  1  0
 23 24  2  0
 23 31  1  0
 25 26  1  0
 26 27  2  0
 26 31  1  0
 27 28  1  0
 27 34  1  0
 28 29  2  0
 28 30  1  0
 31 32  2  0
 32 33  1  0
 33 34  2  0
M  END
$$$$
