
     RDKit          3D

 34 39  0  0  0  0  0  0  0  0999 V2000
   26.0497   -6.2151   14.3025 O   0  0  0  0  0  0  0  0  0  0  0  0
   25.9900   -6.7323   13.1396 C   0  0  0  0  0  0  0  0  0  0  0  0
   25.9299   -5.8565   12.0362 N   0  0  0  0  0  0  0  0  0  0  0  0
   26.4222   -4.5068   12.1855 C   0  0  0  0  0  0  0  0  0  0  0  0
   27.2053   -4.1476   10.9720 C   0  0  0  0  0  0  0  0  0  0  0  0
   28.2564   -3.3334   10.8037 N   0  0  0  0  0  0  0  0  0  0  0  0
   28.6211   -3.3045    9.5451 N   0  0  0  0  0  0  0  0  0  0  0  0
   27.7639   -4.1392    8.8720 C   0  0  0  0  0  0  0  0  0  0  0  0
   27.8495   -4.3641    7.4070 C   0  0  1  0  0  0  0  0  0  0  0  0
   27.8844   -3.2235    6.5197 C   0  0  0  0  0  0  0  0  0  0  0  0
   29.0802   -3.8990    6.7801 C   0  0  0  0  0  0  0  0  0  0  0  0
   26.8998   -4.6530    9.7581 N   0  0  0  0  0  0  0  0  0  0  0  0
   25.8181   -5.5950    9.5693 C   0  0  0  0  0  0  0  0  0  0  0  0
   25.3734   -6.3157   10.7878 C   0  0  0  0  0  0  0  0  0  0  0  0
   25.9895   -8.1900   13.0425 C   0  0  0  0  0  0  0  0  0  0  0  0
   24.8701   -8.9403   12.7860 C   0  0  0  0  0  0  0  0  0  0  0  0
   24.9208  -10.3314   12.7012 C   0  0  0  0  0  0  0  0  0  0  0  0
   27.1771   -8.8918   13.2135 C   0  0  0  0  0  0  0  0  0  0  0  0
   27.2374  -10.2660   13.1312 C   0  0  0  0  0  0  0  0  0  0  0  0
   26.0975  -11.0291   12.8707 C   0  0  0  0  0  0  0  0  0  0  0  0
   26.1761  -12.4773   12.7394 C   0  0  0  0  0  0  0  0  0  0  0  0
   25.2364  -13.2956   13.1879 C   0  0  0  0  0  0  0  0  0  0  0  0
   25.2334  -14.7463   13.2641 C   0  0  0  0  0  0  0  0  0  0  0  0
   26.1585  -15.5335   12.9124 O   0  0  0  0  0  0  0  0  0  0  0  0
   23.9799  -12.9122   13.7062 O   0  0  0  0  0  0  0  0  0  0  0  0
   23.2425  -14.0286   14.0781 C   0  0  0  0  0  0  0  0  0  0  0  0
   21.9796  -14.0678   14.6185 C   0  0  0  0  0  0  0  0  0  0  0  0
   21.1764  -12.8890   14.8986 C   0  0  0  0  0  0  0  0  0  0  0  0
   20.0637  -13.0153   15.4739 O   0  0  0  0  0  0  0  0  0  0  0  0
   21.6002  -11.5874   14.5461 N   0  0  0  0  0  0  0  0  0  0  0  0
   23.9577  -15.1807   13.8312 C   0  0  0  0  0  0  0  0  0  0  0  0
   23.4077  -16.4056   14.1276 C   0  0  0  0  0  0  0  0  0  0  0  0
   22.1466  -16.4794   14.6689 C   0  0  0  0  0  0  0  0  0  0  0  0
   21.4257  -15.3076   14.9175 C   0  0  0  0  0  0  0  0  0  0  0  0
  1  2  2  0
  2  3  1  0
  2 15  1  0
  3  4  1  0
  3 14  1  0
  4  5  1  0
  5  6  2  0
  5 12  1  0
  6  7  1  0
  7  8  2  0
  9  8  1  1
  8 12  1  0
  9 10  1  0
  9 11  1  0
 10 11  2  0
 12 13  1  0
 13 14  1  0
 15 16  2  0
 15 18  1  0
 16 17  1  0
 17 20  2  0
 18 19  2  0
 19 20  1  0
 20 21  1  0
 21 22  2  0
 22 23  1  0
 22 25  1  0
 23 24  2  0
 23 31  1  0
 25 26  1  0
 26 27  2  0
 26 31  1  0
 27 28  1  0
 27 34  1  0
 28 29  2  0
 28 30  1  0
 31 32  2  0
 32 33  1  0
 33 34  2  0
M  END
$$$$
