
     RDKit          3D

 34 39  0  0  0  0  0  0  0  0999 V2000
   27.2070   -8.2608    8.1778 O   0  0  0  0  0  0  0  0  0  0  0  0
   27.1227   -8.4322    9.4066 C   0  0  0  0  0  0  0  0  0  0  0  0
   27.3195   -7.2880   10.2345 N   0  0  0  0  0  0  0  0  0  0  0  0
   26.7817   -7.2021   11.5599 C   0  0  0  0  0  0  0  0  0  0  0  0
   26.6173   -5.7960   11.9755 C   0  0  0  0  0  0  0  0  0  0  0  0
   26.2496   -5.2653   13.1898 N   0  0  0  0  0  0  0  0  0  0  0  0
   26.2450   -3.9680   13.0540 N   0  0  0  0  0  0  0  0  0  0  0  0
   26.5903   -3.5999   11.8141 C   0  0  0  0  0  0  0  0  0  0  0  0
   26.7155   -2.2415   11.2377 C   0  0  1  0  0  0  0  0  0  0  0  0
   26.0006   -1.1800   12.0113 C   0  0  0  0  0  0  0  0  0  0  0  0
   27.4444   -1.2000   11.9971 C   0  0  0  0  0  0  0  0  0  0  0  0
   26.8195   -4.7744   11.1577 N   0  0  0  0  0  0  0  0  0  0  0  0
   27.2360   -4.9106    9.7539 C   0  0  0  0  0  0  0  0  0  0  0  0
   28.0885   -6.1841    9.6911 C   0  0  0  0  0  0  0  0  0  0  0  0
   26.8357   -9.7138   10.0092 C   0  0  0  0  0  0  0  0  0  0  0  0
   27.8101  -10.7214   10.0360 C   0  0  0  0  0  0  0  0  0  0  0  0
   27.5574  -11.9341   10.5991 C   0  0  0  0  0  0  0  0  0  0  0  0
   25.6200  -10.0076   10.5757 C   0  0  0  0  0  0  0  0  0  0  0  0
   25.3633  -11.2548   11.1525 C   0  0  0  0  0  0  0  0  0  0  0  0
   26.3155  -12.2320   11.1768 C   0  0  0  0  0  0  0  0  0  0  0  0
   26.1081  -13.5615   11.7280 C   0  0  0  0  0  0  0  0  0  0  0  0
   25.0761  -13.9892   12.3880 C   0  0  0  0  0  0  0  0  0  0  0  0
   24.7666  -15.3096   12.8832 C   0  0  0  0  0  0  0  0  0  0  0  0
   25.4223  -16.3802   12.7932 O   0  0  0  0  0  0  0  0  0  0  0  0
   24.0057  -13.1547   12.7547 O   0  0  0  0  0  0  0  0  0  0  0  0
   23.0612  -13.8802   13.4438 C   0  0  0  0  0  0  0  0  0  0  0  0
   21.8425  -13.5234   14.0117 C   0  0  0  0  0  0  0  0  0  0  0  0
   21.3812  -12.1571   13.8891 C   0  0  0  0  0  0  0  0  0  0  0  0
   20.3645  -11.8013   14.5257 O   0  0  0  0  0  0  0  0  0  0  0  0
   22.0491  -11.2324   13.0719 N   0  0  0  0  0  0  0  0  0  0  0  0
   23.4662  -15.2034   13.5569 C   0  0  0  0  0  0  0  0  0  0  0  0
   22.7138  -16.1696   14.2078 C   0  0  0  0  0  0  0  0  0  0  0  0
   21.5033  -15.7943   14.7689 C   0  0  0  0  0  0  0  0  0  0  0  0
   21.1026  -14.4890   14.6564 C   0  0  0  0  0  0  0  0  0  0  0  0
  1  2  2  0
  2  3  1  0
  2 15  1  0
  4  3  1  1
 14  3  1  1
  4  5  1  0
  5  6  2  0
  5 12  1  0
  6  7  1  0
  7  8  2  0
  9  8  1  1
  8 12  1  0
  9 10  1  0
  9 11  1  0
 10 11  2  0
 13 12  1  1
 13 14  1  0
 15 16  2  0
 15 18  1  0
 16 17  1  0
 17 20  2  0
 18 19  2  0
 19 20  1  0
 20 21  1  0
 21 22  2  0
 22 23  1  0
 22 25  1  0
 23 24  2  0
 23 31  1  0
 25 26  1  0
 26 27  2  0
 26 31  1  0
 27 28  1  0
 27 34  1  0
 28 29  2  0
 28 30  1  0
 31 32  2  0
 32 33  1  0
 33 34  2  0
M  END
$$$$
