
     RDKit          3D

 34 39  0  0  0  0  0  0  0  0999 V2000
   22.7821  -12.2602    9.3336 O   0  0  0  0  0  0  0  0  0  0  0  0
   23.7980  -12.1556   10.0431 C   0  0  0  0  0  0  0  0  0  0  0  0
   24.0183  -13.1779   11.0125 N   0  0  0  0  0  0  0  0  0  0  0  0
   25.2316  -13.2642   11.7699 C   0  0  0  0  0  0  0  0  0  0  0  0
   25.4626  -14.6413   12.2464 C   0  0  0  0  0  0  0  0  0  0  0  0
   26.4273  -15.1397   13.0904 N   0  0  0  0  0  0  0  0  0  0  0  0
   26.2120  -16.4213   13.2021 N   0  0  0  0  0  0  0  0  0  0  0  0
   25.1545  -16.8094   12.4787 C   0  0  0  0  0  0  0  0  0  0  0  0
   24.5653  -18.1594   12.3254 C   0  0  1  0  0  0  0  0  0  0  0  0
   25.5638  -19.2337   12.0339 C   0  0  0  0  0  0  0  0  0  0  0  0
   24.8990  -19.2088   13.3154 C   0  0  0  0  0  0  0  0  0  0  0  0
   24.7030  -15.6649   11.8880 N   0  0  0  0  0  0  0  0  0  0  0  0
   23.5440  -15.5580   10.9890 C   0  0  0  0  0  0  0  0  0  0  0  0
   22.9656  -14.1556   11.2156 C   0  0  0  0  0  0  0  0  0  0  0  0
   24.7404  -11.0670    9.9207 C   0  0  0  0  0  0  0  0  0  0  0  0
   25.5593  -10.9592    8.7878 C   0  0  0  0  0  0  0  0  0  0  0  0
   26.4522   -9.9410    8.6556 C   0  0  0  0  0  0  0  0  0  0  0  0
   24.8817  -10.1007   10.8857 C   0  0  0  0  0  0  0  0  0  0  0  0
   25.8007   -9.0566   10.7472 C   0  0  0  0  0  0  0  0  0  0  0  0
   26.5949   -8.9556    9.6422 C   0  0  0  0  0  0  0  0  0  0  0  0
   27.5948   -7.9181    9.4465 C   0  0  0  0  0  0  0  0  0  0  0  0
   27.6796   -6.7788   10.0616 C   0  0  0  0  0  0  0  0  0  0  0  0
   28.6185   -5.6949    9.8935 C   0  0  0  0  0  0  0  0  0  0  0  0
   29.5959   -5.5877    9.1076 O   0  0  0  0  0  0  0  0  0  0  0  0
   26.7876   -6.3918   11.0771 O   0  0  0  0  0  0  0  0  0  0  0  0
   27.1203   -5.1397   11.5405 C   0  0  0  0  0  0  0  0  0  0  0  0
   26.5584   -4.3280   12.5205 C   0  0  0  0  0  0  0  0  0  0  0  0
   25.4165   -4.8118   13.2665 C   0  0  0  0  0  0  0  0  0  0  0  0
   24.8412   -4.0378   14.0636 O   0  0  0  0  0  0  0  0  0  0  0  0
   24.9489   -6.1260   13.1134 N   0  0  0  0  0  0  0  0  0  0  0  0
   28.2296   -4.6585   10.8582 C   0  0  0  0  0  0  0  0  0  0  0  0
   28.7898   -3.4152   11.1107 C   0  0  0  0  0  0  0  0  0  0  0  0
   28.2145   -2.6202   12.0894 C   0  0  0  0  0  0  0  0  0  0  0  0
   27.1208   -3.0952   12.7640 C   0  0  0  0  0  0  0  0  0  0  0  0
  1  2  2  0
  2  3  1  0
  2 15  1  0
  4  3  1  1
 14  3  1  1
  4  5  1  0
  5  6  2  0
  5 12  1  0
  6  7  1  0
  7  8  2  0
  9  8  1  1
  8 12  1  0
  9 10  1  0
  9 11  1  0
 10 11  2  0
 13 12  1  1
 13 14  1  0
 15 16  2  0
 15 18  1  0
 16 17  1  0
 17 20  2  0
 18 19  2  0
 19 20  1  0
 20 21  1  0
 21 22  2  0
 22 23  1  0
 22 25  1  0
 23 24  2  0
 23 31  1  0
 25 26  1  0
 26 27  2  0
 26 31  1  0
 27 28  1  0
 27 34  1  0
 28 29  2  0
 28 30  1  0
 31 32  2  0
 32 33  1  0
 33 34  2  0
M  END
$$$$
