
     RDKit          3D

 34 39  0  0  0  0  0  0  0  0999 V2000
   25.0226  -12.8166   13.8457 O   0  0  0  0  0  0  0  0  0  0  0  0
   25.0979  -12.7398   12.5761 C   0  0  0  0  0  0  0  0  0  0  0  0
   24.4809  -13.7584   11.8211 N   0  0  0  0  0  0  0  0  0  0  0  0
   25.0177  -15.0981   11.8816 C   0  0  0  0  0  0  0  0  0  0  0  0
   23.8871  -16.0611   11.9770 C   0  0  0  0  0  0  0  0  0  0  0  0
   23.7912  -17.2607   12.5669 N   0  0  0  0  0  0  0  0  0  0  0  0
   22.5973  -17.7701   12.3858 N   0  0  0  0  0  0  0  0  0  0  0  0
   21.8918  -16.8552   11.6442 C   0  0  0  0  0  0  0  0  0  0  0  0
   20.4865  -17.0790   11.2210 C   0  0  1  0  0  0  0  0  0  0  0  0
   20.2247  -17.8425   10.0218 C   0  0  0  0  0  0  0  0  0  0  0  0
   20.0419  -18.4664   11.2593 C   0  0  0  0  0  0  0  0  0  0  0  0
   22.6928  -15.8090   11.4003 N   0  0  0  0  0  0  0  0  0  0  0  0
   22.4305  -14.5787   10.6856 C   0  0  0  0  0  0  0  0  0  0  0  0
   23.3380  -13.4473   10.9990 C   0  0  0  0  0  0  0  0  0  0  0  0
   25.8158  -11.6030   12.0046 C   0  0  0  0  0  0  0  0  0  0  0  0
   25.4526  -10.2939   12.1943 C   0  0  0  0  0  0  0  0  0  0  0  0
   26.1719   -9.2417   11.6281 C   0  0  0  0  0  0  0  0  0  0  0  0
   26.9398  -11.8239   11.2173 C   0  0  0  0  0  0  0  0  0  0  0  0
   27.6574  -10.7911   10.6539 C   0  0  0  0  0  0  0  0  0  0  0  0
   27.2867   -9.4587   10.8469 C   0  0  0  0  0  0  0  0  0  0  0  0
   28.0756   -8.3703   10.2870 C   0  0  0  0  0  0  0  0  0  0  0  0
   27.8506   -7.0958   10.5681 C   0  0  0  0  0  0  0  0  0  0  0  0
   28.3692   -5.9017    9.9237 C   0  0  0  0  0  0  0  0  0  0  0  0
   29.1550   -5.8451    8.9345 O   0  0  0  0  0  0  0  0  0  0  0  0
   27.0244   -6.6076   11.6042 O   0  0  0  0  0  0  0  0  0  0  0  0
   27.0221   -5.2189   11.6151 C   0  0  0  0  0  0  0  0  0  0  0  0
   26.3462   -4.3798   12.4681 C   0  0  0  0  0  0  0  0  0  0  0  0
   25.4860   -4.8360   13.5475 C   0  0  0  0  0  0  0  0  0  0  0  0
   24.9383   -3.9936   14.3062 O   0  0  0  0  0  0  0  0  0  0  0  0
   25.2357   -6.2070   13.7835 N   0  0  0  0  0  0  0  0  0  0  0  0
   27.8273   -4.7294   10.6092 C   0  0  0  0  0  0  0  0  0  0  0  0
   27.9673   -3.3716   10.4429 C   0  0  0  0  0  0  0  0  0  0  0  0
   27.3049   -2.5053   11.2793 C   0  0  0  0  0  0  0  0  0  0  0  0
   26.4892   -3.0073   12.2978 C   0  0  0  0  0  0  0  0  0  0  0  0
  1  2  2  0
  2  3  1  0
  2 15  1  0
  3  4  1  0
  3 14  1  0
  4  5  1  0
  5  6  2  0
  5 12  1  0
  6  7  1  0
  7  8  2  0
  9  8  1  6
  8 12  1  0
  9 10  1  0
  9 11  1  0
 10 11  2  0
 12 13  1  0
 13 14  1  0
 15 16  2  0
 15 18  1  0
 16 17  1  0
 17 20  2  0
 18 19  2  0
 19 20  1  0
 20 21  1  0
 21 22  2  0
 22 23  1  0
 22 25  1  0
 23 24  2  0
 23 31  1  0
 25 26  1  0
 26 27  2  0
 26 31  1  0
 27 28  1  0
 27 34  1  0
 28 29  2  0
 28 30  1  0
 31 32  2  0
 32 33  1  0
 33 34  2  0
M  END
$$$$
