
     RDKit          3D

 34 39  0  0  0  0  0  0  0  0999 V2000
   22.5881  -11.7129   10.0856 O   0  0  0  0  0  0  0  0  0  0  0  0
   23.6777  -11.7842   10.6808 C   0  0  0  0  0  0  0  0  0  0  0  0
   23.8327  -12.8446   11.6216 N   0  0  0  0  0  0  0  0  0  0  0  0
   25.0762  -13.5346   11.7972 C   0  0  0  0  0  0  0  0  0  0  0  0
   24.8601  -14.8838   12.3536 C   0  0  0  0  0  0  0  0  0  0  0  0
   25.7675  -15.8250   12.7804 N   0  0  0  0  0  0  0  0  0  0  0  0
   25.0834  -16.8593   13.1849 N   0  0  0  0  0  0  0  0  0  0  0  0
   23.7658  -16.6623   13.0528 C   0  0  0  0  0  0  0  0  0  0  0  0
   22.6422  -17.5658   13.3909 C   0  0  1  0  0  0  0  0  0  0  0  0
   22.9914  -18.6347   14.3766 C   0  0  0  0  0  0  0  0  0  0  0  0
   22.1059  -17.5646   14.7712 C   0  0  0  0  0  0  0  0  0  0  0  0
   23.6565  -15.4077   12.5267 N   0  0  0  0  0  0  0  0  0  0  0  0
   22.4004  -14.7169   12.1985 C   0  0  0  0  0  0  0  0  0  0  0  0
   22.6756  -13.2230   12.4110 C   0  0  0  0  0  0  0  0  0  0  0  0
   24.7646  -10.8590   10.4559 C   0  0  0  0  0  0  0  0  0  0  0  0
   25.5845  -10.4532   11.5183 C   0  0  0  0  0  0  0  0  0  0  0  0
   26.6124   -9.5827   11.3250 C   0  0  0  0  0  0  0  0  0  0  0  0
   25.0470  -10.3388    9.2171 C   0  0  0  0  0  0  0  0  0  0  0  0
   26.1031   -9.4440    9.0222 C   0  0  0  0  0  0  0  0  0  0  0  0
   26.8989   -9.0527   10.0594 C   0  0  0  0  0  0  0  0  0  0  0  0
   27.9915   -8.1011    9.9373 C   0  0  0  0  0  0  0  0  0  0  0  0
   28.0255   -6.8795   10.3734 C   0  0  0  0  0  0  0  0  0  0  0  0
   28.8978   -5.7854   10.0176 C   0  0  0  0  0  0  0  0  0  0  0  0
   29.8498   -5.7461    9.1952 O   0  0  0  0  0  0  0  0  0  0  0  0
   27.1359   -6.3920   11.3469 O   0  0  0  0  0  0  0  0  0  0  0  0
   27.4077   -5.0688   11.6088 C   0  0  0  0  0  0  0  0  0  0  0  0
   26.8228   -4.1499   12.4740 C   0  0  0  0  0  0  0  0  0  0  0  0
   25.7269   -4.5756   13.3180 C   0  0  0  0  0  0  0  0  0  0  0  0
   25.2118   -3.7503   14.1047 O   0  0  0  0  0  0  0  0  0  0  0  0
   25.2377   -5.8900   13.2706 N   0  0  0  0  0  0  0  0  0  0  0  0
   28.4726   -4.6378   10.8291 C   0  0  0  0  0  0  0  0  0  0  0  0
   28.9672   -3.3431   10.8769 C   0  0  0  0  0  0  0  0  0  0  0  0
   28.3698   -2.4415   11.7438 C   0  0  0  0  0  0  0  0  0  0  0  0
   27.3200   -2.8667   12.5145 C   0  0  0  0  0  0  0  0  0  0  0  0
  1  2  2  0
  2  3  1  0
  2 15  1  0
  4  3  1  1
 14  3  1  1
  4  5  1  0
  5  6  2  0
  5 12  1  0
  6  7  1  0
  7  8  2  0
  9  8  1  1
  8 12  1  0
  9 10  1  0
  9 11  1  0
 10 11  2  0
 13 12  1  1
 13 14  1  0
 15 16  2  0
 15 18  1  0
 16 17  1  0
 17 20  2  0
 18 19  2  0
 19 20  1  0
 20 21  1  0
 21 22  2  0
 22 23  1  0
 22 25  1  0
 23 24  2  0
 23 31  1  0
 25 26  1  0
 26 27  2  0
 26 31  1  0
 27 28  1  0
 27 34  1  0
 28 29  2  0
 28 30  1  0
 31 32  2  0
 32 33  1  0
 33 34  2  0
M  END
$$$$
