
     RDKit          3D

 34 39  0  0  0  0  0  0  0  0999 V2000
   23.3273  -12.7263    9.1599 O   0  0  0  0  0  0  0  0  0  0  0  0
   24.0986  -12.3003   10.0375 C   0  0  0  0  0  0  0  0  0  0  0  0
   24.0176  -12.9127   11.3227 N   0  0  0  0  0  0  0  0  0  0  0  0
   25.1054  -12.8798   12.2548 C   0  0  0  0  0  0  0  0  0  0  0  0
   25.0202  -14.0016   13.2092 C   0  0  0  0  0  0  0  0  0  0  0  0
   25.7782  -14.2813   14.3222 N   0  0  0  0  0  0  0  0  0  0  0  0
   25.3140  -15.3885   14.8322 N   0  0  0  0  0  0  0  0  0  0  0  0
   24.2850  -15.8663   14.1215 C   0  0  0  0  0  0  0  0  0  0  0  0
   23.4710  -17.0825   14.3480 C   0  0  1  0  0  0  0  0  0  0  0  0
   24.2551  -18.3557   14.3329 C   0  0  0  0  0  0  0  0  0  0  0  0
   23.6929  -17.8809   15.5752 C   0  0  0  0  0  0  0  0  0  0  0  0
   24.1232  -14.9700   13.1050 N   0  0  0  0  0  0  0  0  0  0  0  0
   23.1073  -15.0437   12.0442 C   0  0  0  0  0  0  0  0  0  0  0  0
   22.7836  -13.5913   11.6721 C   0  0  0  0  0  0  0  0  0  0  0  0
   25.0515  -11.2389    9.8065 C   0  0  0  0  0  0  0  0  0  0  0  0
   25.2296  -10.2237   10.7569 C   0  0  0  0  0  0  0  0  0  0  0  0
   26.1222   -9.2165   10.5561 C   0  0  0  0  0  0  0  0  0  0  0  0
   25.8171  -11.1687    8.6690 C   0  0  0  0  0  0  0  0  0  0  0  0
   26.7325  -10.1321    8.4654 C   0  0  0  0  0  0  0  0  0  0  0  0
   26.9028   -9.1467    9.3939 C   0  0  0  0  0  0  0  0  0  0  0  0
   27.8098   -8.0214    9.2344 C   0  0  0  0  0  0  0  0  0  0  0  0
   27.7929   -6.8972    9.8822 C   0  0  0  0  0  0  0  0  0  0  0  0
   28.6547   -5.7439    9.7727 C   0  0  0  0  0  0  0  0  0  0  0  0
   29.6442   -5.5436    9.0212 O   0  0  0  0  0  0  0  0  0  0  0  0
   26.8456   -6.6053   10.8791 O   0  0  0  0  0  0  0  0  0  0  0  0
   27.0721   -5.3464   11.3861 C   0  0  0  0  0  0  0  0  0  0  0  0
   26.4237   -4.6062   12.3694 C   0  0  0  0  0  0  0  0  0  0  0  0
   25.2988   -5.1927   13.0658 C   0  0  0  0  0  0  0  0  0  0  0  0
   24.6191   -4.4743   13.8322 O   0  0  0  0  0  0  0  0  0  0  0  0
   24.9619   -6.5446   12.8988 N   0  0  0  0  0  0  0  0  0  0  0  0
   28.1628   -4.7667   10.7521 C   0  0  0  0  0  0  0  0  0  0  0  0
   28.6229   -3.4940   11.0553 C   0  0  0  0  0  0  0  0  0  0  0  0
   27.9625   -2.7714   12.0364 C   0  0  0  0  0  0  0  0  0  0  0  0
   26.8870   -3.3435   12.6633 C   0  0  0  0  0  0  0  0  0  0  0  0
  1  2  2  0
  2  3  1  0
  2 15  1  0
  4  3  1  1
 14  3  1  1
  4  5  1  0
  5  6  2  0
  5 12  1  0
  6  7  1  0
  7  8  2  0
  9  8  1  1
  8 12  1  0
  9 10  1  0
  9 11  1  0
 10 11  2  0
 13 12  1  1
 13 14  1  0
 15 16  2  0
 15 18  1  0
 16 17  1  0
 17 20  2  0
 18 19  2  0
 19 20  1  0
 20 21  1  0
 21 22  2  0
 22 23  1  0
 22 25  1  0
 23 24  2  0
 23 31  1  0
 25 26  1  0
 26 27  2  0
 26 31  1  0
 27 28  1  0
 27 34  1  0
 28 29  2  0
 28 30  1  0
 31 32  2  0
 32 33  1  0
 33 34  2  0
M  END
$$$$
