
     RDKit          3D

 34 39  0  0  0  0  0  0  0  0999 V2000
   26.8454  -12.9152    9.8040 O   0  0  0  0  0  0  0  0  0  0  0  0
   26.2746  -12.1456    9.0113 C   0  0  0  0  0  0  0  0  0  0  0  0
   25.2839  -12.7142    8.1577 N   0  0  0  0  0  0  0  0  0  0  0  0
   24.2775  -11.9187    7.5194 C   0  0  0  0  0  0  0  0  0  0  0  0
   23.0914  -12.7307    7.1869 C   0  0  0  0  0  0  0  0  0  0  0  0
   21.9602  -12.4026    6.4768 N   0  0  0  0  0  0  0  0  0  0  0  0
   21.1996  -13.4622    6.4590 N   0  0  0  0  0  0  0  0  0  0  0  0
   21.7600  -14.4835    7.1186 C   0  0  0  0  0  0  0  0  0  0  0  0
   21.2470  -15.8555    7.3370 C   0  0  1  0  0  0  0  0  0  0  0  0
   21.5070  -16.3954    8.7070 C   0  0  0  0  0  0  0  0  0  0  0  0
   20.1559  -16.0705    8.3148 C   0  0  0  0  0  0  0  0  0  0  0  0
   22.9521  -13.9918    7.5656 N   0  0  0  0  0  0  0  0  0  0  0  0
   23.9523  -14.7343    8.3473 C   0  0  0  0  0  0  0  0  0  0  0  0
   25.3135  -14.1499    7.9497 C   0  0  0  0  0  0  0  0  0  0  0  0
   26.5680  -10.7331    8.9297 C   0  0  0  0  0  0  0  0  0  0  0  0
   26.7991  -10.1253    7.6876 C   0  0  0  0  0  0  0  0  0  0  0  0
   27.0767   -8.7966    7.5919 C   0  0  0  0  0  0  0  0  0  0  0  0
   26.6348   -9.9276   10.0395 C   0  0  0  0  0  0  0  0  0  0  0  0
   26.9213   -8.5632    9.9376 C   0  0  0  0  0  0  0  0  0  0  0  0
   27.1446   -7.9761    8.7262 C   0  0  0  0  0  0  0  0  0  0  0  0
   27.4808   -6.5727    8.5478 C   0  0  0  0  0  0  0  0  0  0  0  0
   27.6017   -5.6675    9.4696 C   0  0  0  0  0  0  0  0  0  0  0  0
   28.5138   -4.5528    9.5692 C   0  0  0  0  0  0  0  0  0  0  0  0
   29.4260   -4.1831    8.7847 O   0  0  0  0  0  0  0  0  0  0  0  0
   26.7874   -5.6319   10.6151 O   0  0  0  0  0  0  0  0  0  0  0  0
   27.1425   -4.5657   11.4091 C   0  0  0  0  0  0  0  0  0  0  0  0
   26.6503   -4.1035   12.6253 C   0  0  0  0  0  0  0  0  0  0  0  0
   25.5746   -4.8258   13.2702 C   0  0  0  0  0  0  0  0  0  0  0  0
   24.9980   -4.3055   14.2511 O   0  0  0  0  0  0  0  0  0  0  0  0
   25.1725   -6.0919   12.8182 N   0  0  0  0  0  0  0  0  0  0  0  0
   28.1906   -3.8660   10.8262 C   0  0  0  0  0  0  0  0  0  0  0  0
   28.7561   -2.7376   11.4007 C   0  0  0  0  0  0  0  0  0  0  0  0
   28.2506   -2.2914   12.6116 C   0  0  0  0  0  0  0  0  0  0  0  0
   27.2174   -2.9823   13.1879 C   0  0  0  0  0  0  0  0  0  0  0  0
  1  2  2  0
  2  3  1  0
  2 15  1  0
  4  3  1  1
 14  3  1  1
  4  5  1  0
  5  6  2  0
  5 12  1  0
  6  7  1  0
  7  8  2  0
  9  8  1  1
  8 12  1  0
  9 10  1  0
  9 11  1  0
 10 11  2  0
 13 12  1  1
 13 14  1  0
 15 16  2  0
 15 18  1  0
 16 17  1  0
 17 20  2  0
 18 19  2  0
 19 20  1  0
 20 21  1  0
 21 22  2  0
 22 23  1  0
 22 25  1  0
 23 24  2  0
 23 31  1  0
 25 26  1  0
 26 27  2  0
 26 31  1  0
 27 28  1  0
 27 34  1  0
 28 29  2  0
 28 30  1  0
 31 32  2  0
 32 33  1  0
 33 34  2  0
M  END
$$$$
