
     RDKit          3D

 34 39  0  0  0  0  0  0  0  0999 V2000
   26.6257  -13.0864   12.6228 O   0  0  0  0  0  0  0  0  0  0  0  0
   25.4342  -12.6471   12.7280 C   0  0  0  0  0  0  0  0  0  0  0  0
   24.3911  -13.5936   12.7923 N   0  0  0  0  0  0  0  0  0  0  0  0
   23.0537  -13.1879   12.4275 C   0  0  0  0  0  0  0  0  0  0  0  0
   22.4376  -14.2624   11.6023 C   0  0  0  0  0  0  0  0  0  0  0  0
   21.5316  -14.2137   10.6160 N   0  0  0  0  0  0  0  0  0  0  0  0
   21.2632  -15.4187   10.1758 N   0  0  0  0  0  0  0  0  0  0  0  0
   22.0327  -16.2834   10.9140 C   0  0  0  0  0  0  0  0  0  0  0  0
   21.9994  -17.7544   10.7166 C   0  0  1  0  0  0  0  0  0  0  0  0
   20.7424  -18.3949   10.4011 C   0  0  0  0  0  0  0  0  0  0  0  0
   21.6612  -18.1905    9.3676 C   0  0  0  0  0  0  0  0  0  0  0  0
   22.7511  -15.5625   11.7857 N   0  0  0  0  0  0  0  0  0  0  0  0
   23.7246  -15.9856   12.7688 C   0  0  0  0  0  0  0  0  0  0  0  0
   24.6719  -14.9394   13.2270 C   0  0  0  0  0  0  0  0  0  0  0  0
   25.2445  -11.1993   12.7746 C   0  0  0  0  0  0  0  0  0  0  0  0
   25.6978  -10.3359   11.8098 C   0  0  0  0  0  0  0  0  0  0  0  0
   25.4904   -8.9596   11.8984 C   0  0  0  0  0  0  0  0  0  0  0  0
   24.5673  -10.6278   13.8455 C   0  0  0  0  0  0  0  0  0  0  0  0
   24.3571   -9.2693   13.9419 C   0  0  0  0  0  0  0  0  0  0  0  0
   24.8194   -8.3910   12.9598 C   0  0  0  0  0  0  0  0  0  0  0  0
   24.5539   -6.9616   13.0444 C   0  0  0  0  0  0  0  0  0  0  0  0
   25.4004   -6.0423   12.6060 C   0  0  0  0  0  0  0  0  0  0  0  0
   25.6918   -4.7238   13.1417 C   0  0  0  0  0  0  0  0  0  0  0  0
   25.1833   -4.1836   14.1657 O   0  0  0  0  0  0  0  0  0  0  0  0
   26.2329   -6.1542   11.4707 O   0  0  0  0  0  0  0  0  0  0  0  0
   26.9875   -5.0008   11.3015 C   0  0  0  0  0  0  0  0  0  0  0  0
   27.9066   -4.7269   10.3172 C   0  0  0  0  0  0  0  0  0  0  0  0
   28.2497   -5.6460    9.2445 C   0  0  0  0  0  0  0  0  0  0  0  0
   29.0763   -5.2937    8.3626 O   0  0  0  0  0  0  0  0  0  0  0  0
   27.6847   -6.9382    9.1499 N   0  0  0  0  0  0  0  0  0  0  0  0
   26.6998   -4.0887   12.2940 C   0  0  0  0  0  0  0  0  0  0  0  0
   27.3396   -2.8717   12.3129 C   0  0  0  0  0  0  0  0  0  0  0  0
   28.2642   -2.5667   11.3428 C   0  0  0  0  0  0  0  0  0  0  0  0
   28.5524   -3.4957   10.3386 C   0  0  0  0  0  0  0  0  0  0  0  0
  1  2  2  0
  2  3  1  0
  2 15  1  0
  3  4  1  0
  3 14  1  0
  4  5  1  0
  5  6  2  0
  5 12  1  0
  6  7  1  0
  7  8  2  0
  9  8  1  6
  8 12  1  0
  9 10  1  0
  9 11  1  0
 10 11  2  0
 12 13  1  0
 13 14  1  0
 15 16  2  0
 15 18  1  0
 16 17  1  0
 17 20  2  0
 18 19  2  0
 19 20  1  0
 20 21  1  0
 21 22  2  0
 22 23  1  0
 22 25  1  0
 23 24  2  0
 23 31  1  0
 25 26  1  0
 26 27  2  0
 26 31  1  0
 27 28  1  0
 27 34  1  0
 28 29  2  0
 28 30  1  0
 31 32  2  0
 32 33  1  0
 33 34  2  0
M  END
$$$$
