
     RDKit          3D

 34 39  0  0  0  0  0  0  0  0999 V2000
   23.4038  -11.6490   12.4435 O   0  0  0  0  0  0  0  0  0  0  0  0
   24.2991  -12.0583   11.6345 C   0  0  0  0  0  0  0  0  0  0  0  0
   24.3171  -13.4325   11.3189 N   0  0  0  0  0  0  0  0  0  0  0  0
   25.5526  -14.1673   11.4595 C   0  0  0  0  0  0  0  0  0  0  0  0
   25.2558  -15.4843   12.0859 C   0  0  0  0  0  0  0  0  0  0  0  0
   25.9859  -16.2678   12.8915 N   0  0  0  0  0  0  0  0  0  0  0  0
   25.3270  -17.3594   13.1951 N   0  0  0  0  0  0  0  0  0  0  0  0
   24.1158  -17.2741   12.5544 C   0  0  0  0  0  0  0  0  0  0  0  0
   23.0842  -18.3378   12.6452 C   0  0  1  0  0  0  0  0  0  0  0  0
   23.2637  -19.5597   11.8940 C   0  0  0  0  0  0  0  0  0  0  0  0
   23.5280  -19.5791   13.2666 C   0  0  0  0  0  0  0  0  0  0  0  0
   24.0821  -16.1179   11.8777 N   0  0  0  0  0  0  0  0  0  0  0  0
   23.0339  -15.5429   11.0630 C   0  0  0  0  0  0  0  0  0  0  0  0
   23.1130  -14.0759   10.8551 C   0  0  0  0  0  0  0  0  0  0  0  0
   25.2338  -11.0719   11.0983 C   0  0  0  0  0  0  0  0  0  0  0  0
   25.5042  -10.9201    9.7620 C   0  0  0  0  0  0  0  0  0  0  0  0
   26.4048   -9.9614    9.2983 C   0  0  0  0  0  0  0  0  0  0  0  0
   25.9062  -10.2183   11.9650 C   0  0  0  0  0  0  0  0  0  0  0  0
   26.7975   -9.2678   11.5166 C   0  0  0  0  0  0  0  0  0  0  0  0
   27.0728   -9.1143   10.1563 C   0  0  0  0  0  0  0  0  0  0  0  0
   27.9806   -8.0775    9.6853 C   0  0  0  0  0  0  0  0  0  0  0  0
   28.0110   -6.8566   10.1974 C   0  0  0  0  0  0  0  0  0  0  0  0
   28.8406   -5.7214    9.8320 C   0  0  0  0  0  0  0  0  0  0  0  0
   29.7170   -5.6750    8.9215 O   0  0  0  0  0  0  0  0  0  0  0  0
   27.2094   -6.3812   11.2585 O   0  0  0  0  0  0  0  0  0  0  0  0
   27.5085   -5.0550   11.5417 C   0  0  0  0  0  0  0  0  0  0  0  0
   26.9479   -4.2467   12.5013 C   0  0  0  0  0  0  0  0  0  0  0  0
   25.9030   -4.6738   13.4172 C   0  0  0  0  0  0  0  0  0  0  0  0
   25.3961   -3.8427   14.2156 O   0  0  0  0  0  0  0  0  0  0  0  0
   25.4258   -6.0040   13.4483 N   0  0  0  0  0  0  0  0  0  0  0  0
   28.4997   -4.5961   10.7010 C   0  0  0  0  0  0  0  0  0  0  0  0
   28.9485   -3.3011   10.8132 C   0  0  0  0  0  0  0  0  0  0  0  0
   28.4086   -2.4670   11.7627 C   0  0  0  0  0  0  0  0  0  0  0  0
   27.4032   -2.9376   12.6127 C   0  0  0  0  0  0  0  0  0  0  0  0
  1  2  2  0
  2  3  1  0
  2 15  1  0
  3  4  1  0
  3 14  1  0
  4  5  1  0
  5  6  2  0
  5 12  1  0
  6  7  1  0
  7  8  2  0
  9  8  1  6
  8 12  1  0
  9 10  1  0
  9 11  1  0
 10 11  2  0
 12 13  1  0
 13 14  1  0
 15 16  2  0
 15 18  1  0
 16 17  1  0
 17 20  2  0
 18 19  2  0
 19 20  1  0
 20 21  1  0
 21 22  2  0
 22 23  1  0
 22 25  1  0
 23 24  2  0
 23 31  1  0
 25 26  1  0
 26 27  2  0
 26 31  1  0
 27 28  1  0
 27 34  1  0
 28 29  2  0
 28 30  1  0
 31 32  2  0
 32 33  1  0
 33 34  2  0
M  END
$$$$
