
     RDKit          3D

 34 39  0  0  0  0  0  0  0  0999 V2000
   27.9262   -6.3552   12.1547 O   0  0  0  0  0  0  0  0  0  0  0  0
   27.4695   -6.9935   11.1902 C   0  0  0  0  0  0  0  0  0  0  0  0
   27.3184   -6.2876    9.9604 N   0  0  0  0  0  0  0  0  0  0  0  0
   26.7399   -4.9782    9.8970 C   0  0  0  0  0  0  0  0  0  0  0  0
   26.1815   -4.7094    8.5581 C   0  0  0  0  0  0  0  0  0  0  0  0
   25.6466   -3.5561    8.0333 N   0  0  0  0  0  0  0  0  0  0  0  0
   25.2876   -3.8245    6.8084 N   0  0  0  0  0  0  0  0  0  0  0  0
   25.5532   -5.0957    6.4831 C   0  0  0  0  0  0  0  0  0  0  0  0
   25.3145   -5.8086    5.2072 C   0  0  1  0  0  0  0  0  0  0  0  0
   24.5294   -5.0240    4.2051 C   0  0  0  0  0  0  0  0  0  0  0  0
   25.9284   -5.2881    3.9643 C   0  0  0  0  0  0  0  0  0  0  0  0
   26.1168   -5.6278    7.6065 N   0  0  0  0  0  0  0  0  0  0  0  0
   26.5949   -7.0101    7.7594 C   0  0  0  0  0  0  0  0  0  0  0  0
   27.7677   -6.9415    8.7455 C   0  0  0  0  0  0  0  0  0  0  0  0
   27.1006   -8.3885   11.2674 C   0  0  0  0  0  0  0  0  0  0  0  0
   27.1786   -9.2087   10.1330 C   0  0  0  0  0  0  0  0  0  0  0  0
   26.8354  -10.5243   10.1873 C   0  0  0  0  0  0  0  0  0  0  0  0
   26.6636   -8.9733   12.4301 C   0  0  0  0  0  0  0  0  0  0  0  0
   26.3108  -10.3249   12.4822 C   0  0  0  0  0  0  0  0  0  0  0  0
   26.3893  -11.1193   11.3754 C   0  0  0  0  0  0  0  0  0  0  0  0
   26.0072  -12.5220   11.3475 C   0  0  0  0  0  0  0  0  0  0  0  0
   25.2175  -13.1406   12.1706 C   0  0  0  0  0  0  0  0  0  0  0  0
   25.0517  -14.5527   12.4217 C   0  0  0  0  0  0  0  0  0  0  0  0
   25.6318  -15.5396   11.8984 O   0  0  0  0  0  0  0  0  0  0  0  0
   24.3228  -12.4673   13.0207 O   0  0  0  0  0  0  0  0  0  0  0  0
   23.6205  -13.3776   13.7768 C   0  0  0  0  0  0  0  0  0  0  0  0
   22.6377  -13.2220   14.7489 C   0  0  0  0  0  0  0  0  0  0  0  0
   22.1832  -11.8896   15.0842 C   0  0  0  0  0  0  0  0  0  0  0  0
   21.3727  -11.7450   16.0265 O   0  0  0  0  0  0  0  0  0  0  0  0
   22.6312  -10.7656   14.3736 N   0  0  0  0  0  0  0  0  0  0  0  0
   24.0192  -14.6690   13.4592 C   0  0  0  0  0  0  0  0  0  0  0  0
   23.4845  -15.7947   14.0677 C   0  0  0  0  0  0  0  0  0  0  0  0
   22.5078  -15.6192   15.0352 C   0  0  0  0  0  0  0  0  0  0  0  0
   22.1130  -14.3451   15.3479 C   0  0  0  0  0  0  0  0  0  0  0  0
  1  2  2  0
  2  3  1  0
  2 15  1  0
  4  3  1  1
 14  3  1  1
  4  5  1  0
  5  6  2  0
  5 12  1  0
  6  7  1  0
  7  8  2  0
  9  8  1  1
  8 12  1  0
  9 10  1  0
  9 11  1  0
 10 11  2  0
 13 12  1  1
 13 14  1  0
 15 16  2  0
 15 18  1  0
 16 17  1  0
 17 20  2  0
 18 19  2  0
 19 20  1  0
 20 21  1  0
 21 22  2  0
 22 23  1  0
 22 25  1  0
 23 24  2  0
 23 31  1  0
 25 26  1  0
 26 27  2  0
 26 31  1  0
 27 28  1  0
 27 34  1  0
 28 29  2  0
 28 30  1  0
 31 32  2  0
 32 33  1  0
 33 34  2  0
M  END
$$$$
