
     RDKit          3D

 34 39  0  0  0  0  0  0  0  0999 V2000
   23.3029  -10.7124    7.2757 O   0  0  0  0  0  0  0  0  0  0  0  0
   24.3579  -11.1502    7.8403 C   0  0  0  0  0  0  0  0  0  0  0  0
   24.3958  -12.5164    8.1869 N   0  0  0  0  0  0  0  0  0  0  0  0
   25.4436  -12.9883    9.0620 C   0  0  0  0  0  0  0  0  0  0  0  0
   24.8514  -13.9297   10.0509 C   0  0  0  0  0  0  0  0  0  0  0  0
   25.1852  -14.2106   11.3181 N   0  0  0  0  0  0  0  0  0  0  0  0
   24.3886  -15.1261   11.8133 N   0  0  0  0  0  0  0  0  0  0  0  0
   23.5006  -15.4496   10.8175 C   0  0  0  0  0  0  0  0  0  0  0  0
   22.4365  -16.4699   10.9927 C   0  0  1  0  0  0  0  0  0  0  0  0
   22.8101  -17.8564   11.1596 C   0  0  0  0  0  0  0  0  0  0  0  0
   22.4219  -17.1325   12.2907 C   0  0  0  0  0  0  0  0  0  0  0  0
   23.7928  -14.7078    9.7405 N   0  0  0  0  0  0  0  0  0  0  0  0
   23.1525  -14.6505    8.4444 C   0  0  0  0  0  0  0  0  0  0  0  0
   23.4008  -13.4164    7.6587 C   0  0  0  0  0  0  0  0  0  0  0  0
   25.4433  -10.2027    8.0822 C   0  0  0  0  0  0  0  0  0  0  0  0
   26.2907   -9.7433    7.1062 C   0  0  0  0  0  0  0  0  0  0  0  0
   27.3126   -8.8366    7.3867 C   0  0  0  0  0  0  0  0  0  0  0  0
   25.6587   -9.7156    9.3660 C   0  0  0  0  0  0  0  0  0  0  0  0
   26.6653   -8.8194    9.6531 C   0  0  0  0  0  0  0  0  0  0  0  0
   27.5279   -8.3526    8.6593 C   0  0  0  0  0  0  0  0  0  0  0  0
   28.5603   -7.3706    8.9603 C   0  0  0  0  0  0  0  0  0  0  0  0
   28.3885   -6.3842    9.8271 C   0  0  0  0  0  0  0  0  0  0  0  0
   29.1251   -5.1402    9.9696 C   0  0  0  0  0  0  0  0  0  0  0  0
   30.0991   -4.7423    9.2681 O   0  0  0  0  0  0  0  0  0  0  0  0
   27.4105   -6.3341   10.8448 O   0  0  0  0  0  0  0  0  0  0  0  0
   27.5208   -5.1562   11.5720 C   0  0  0  0  0  0  0  0  0  0  0  0
   26.7560   -4.7434   12.6365 C   0  0  0  0  0  0  0  0  0  0  0  0
   25.6580   -5.5132   13.1977 C   0  0  0  0  0  0  0  0  0  0  0  0
   25.0055   -5.0505   14.1699 O   0  0  0  0  0  0  0  0  0  0  0  0
   25.2875   -6.7788   12.6887 N   0  0  0  0  0  0  0  0  0  0  0  0
   28.5528   -4.3846   11.0829 C   0  0  0  0  0  0  0  0  0  0  0  0
   28.8357   -3.1706   11.6634 C   0  0  0  0  0  0  0  0  0  0  0  0
   28.0897   -2.7288   12.7298 C   0  0  0  0  0  0  0  0  0  0  0  0
   27.0438   -3.5155   13.2217 C   0  0  0  0  0  0  0  0  0  0  0  0
  1  2  2  0
  2  3  1  0
  2 15  1  0
  3  4  1  0
  3 14  1  0
  4  5  1  0
  5  6  2  0
  5 12  1  0
  6  7  1  0
  7  8  2  0
  9  8  1  1
  8 12  1  0
  9 10  1  0
  9 11  1  0
 10 11  2  0
 12 13  1  0
 13 14  1  0
 15 16  2  0
 15 18  1  0
 16 17  1  0
 17 20  2  0
 18 19  2  0
 19 20  1  0
 20 21  1  0
 21 22  2  0
 22 23  1  0
 22 25  1  0
 23 24  2  0
 23 31  1  0
 25 26  1  0
 26 27  2  0
 26 31  1  0
 27 28  1  0
 27 34  1  0
 28 29  2  0
 28 30  1  0
 31 32  2  0
 32 33  1  0
 33 34  2  0
M  END
$$$$
