
     RDKit          3D

 34 39  0  0  0  0  0  0  0  0999 V2000
   23.1147  -12.1909   10.0664 O   0  0  0  0  0  0  0  0  0  0  0  0
   23.3517  -11.9970   11.2717 C   0  0  0  0  0  0  0  0  0  0  0  0
   23.1072  -13.0837   12.1621 N   0  0  0  0  0  0  0  0  0  0  0  0
   23.8323  -13.2456   13.3873 C   0  0  0  0  0  0  0  0  0  0  0  0
   23.8289  -14.6551   13.8233 C   0  0  0  0  0  0  0  0  0  0  0  0
   24.2973  -15.2281   14.9825 N   0  0  0  0  0  0  0  0  0  0  0  0
   24.0665  -16.5090   14.8959 N   0  0  0  0  0  0  0  0  0  0  0  0
   23.4681  -16.8260   13.7410 C   0  0  0  0  0  0  0  0  0  0  0  0
   23.0294  -18.1497   13.2426 C   0  0  1  0  0  0  0  0  0  0  0  0
   24.0993  -19.1943   13.2561 C   0  0  0  0  0  0  0  0  0  0  0  0
   22.9928  -19.2969   14.1781 C   0  0  0  0  0  0  0  0  0  0  0  0
   23.3312  -15.6362   13.0864 N   0  0  0  0  0  0  0  0  0  0  0  0
   22.7197  -15.4459   11.7626 C   0  0  0  0  0  0  0  0  0  0  0  0
   22.0892  -14.0479   11.7890 C   0  0  0  0  0  0  0  0  0  0  0  0
   23.8569  -10.7454   11.7877 C   0  0  0  0  0  0  0  0  0  0  0  0
   23.2575  -10.1419   12.9022 C   0  0  0  0  0  0  0  0  0  0  0  0
   23.7198   -8.9636   13.4016 C   0  0  0  0  0  0  0  0  0  0  0  0
   24.9274  -10.0939   11.2269 C   0  0  0  0  0  0  0  0  0  0  0  0
   25.3991   -8.8830   11.7419 C   0  0  0  0  0  0  0  0  0  0  0  0
   24.8128   -8.3000   12.8275 C   0  0  0  0  0  0  0  0  0  0  0  0
   25.2275   -7.0272   13.3952 C   0  0  0  0  0  0  0  0  0  0  0  0
   25.9384   -6.1037   12.8248 C   0  0  0  0  0  0  0  0  0  0  0  0
   26.1950   -4.7411   13.2275 C   0  0  0  0  0  0  0  0  0  0  0  0
   25.7869   -4.1062   14.2347 O   0  0  0  0  0  0  0  0  0  0  0  0
   26.6302   -6.3096   11.6183 O   0  0  0  0  0  0  0  0  0  0  0  0
   27.2947   -5.1600   11.2575 C   0  0  0  0  0  0  0  0  0  0  0  0
   28.1060   -4.8539   10.1698 C   0  0  0  0  0  0  0  0  0  0  0  0
   28.3389   -5.8627    9.1586 C   0  0  0  0  0  0  0  0  0  0  0  0
   27.8378   -6.9991    9.3096 O   0  0  0  0  0  0  0  0  0  0  0  0
   29.1140   -5.5899    8.0211 N   0  0  0  0  0  0  0  0  0  0  0  0
   27.0701   -4.1646   12.1989 C   0  0  0  0  0  0  0  0  0  0  0  0
   27.6185   -2.8946   12.0995 C   0  0  0  0  0  0  0  0  0  0  0  0
   28.4259   -2.6094   11.0097 C   0  0  0  0  0  0  0  0  0  0  0  0
   28.6466   -3.5909   10.0796 C   0  0  0  0  0  0  0  0  0  0  0  0
  1  2  2  0
  2  3  1  0
  2 15  1  0
  4  3  1  1
 14  3  1  1
  4  5  1  0
  5  6  2  0
  5 12  1  0
  6  7  1  0
  7  8  2  0
  9  8  1  1
  8 12  1  0
  9 10  1  0
  9 11  1  0
 10 11  2  0
 13 12  1  1
 13 14  1  0
 15 16  2  0
 15 18  1  0
 16 17  1  0
 17 20  2  0
 18 19  2  0
 19 20  1  0
 20 21  1  0
 21 22  2  0
 22 23  1  0
 22 25  1  0
 23 24  2  0
 23 31  1  0
 25 26  1  0
 26 27  2  0
 26 31  1  0
 27 28  1  0
 27 34  1  0
 28 29  2  0
 28 30  1  0
 31 32  2  0
 32 33  1  0
 33 34  2  0
M  END
$$$$
