
     RDKit          3D

 34 39  0  0  0  0  0  0  0  0999 V2000
   23.3885  -12.4157   10.0451 O   0  0  0  0  0  0  0  0  0  0  0  0
   23.8485  -12.3471   11.2314 C   0  0  0  0  0  0  0  0  0  0  0  0
   24.1166  -13.5590   11.9004 N   0  0  0  0  0  0  0  0  0  0  0  0
   24.7831  -13.5195   13.1812 C   0  0  0  0  0  0  0  0  0  0  0  0
   24.1182  -14.4878   14.0951 C   0  0  0  0  0  0  0  0  0  0  0  0
   23.9500  -14.4806   15.4247 N   0  0  0  0  0  0  0  0  0  0  0  0
   23.3098  -15.5556   15.8149 N   0  0  0  0  0  0  0  0  0  0  0  0
   23.0542  -16.2891   14.6830 C   0  0  0  0  0  0  0  0  0  0  0  0
   22.3475  -17.5943   14.7161 C   0  0  1  0  0  0  0  0  0  0  0  0
   21.1699  -17.7374   15.5421 C   0  0  0  0  0  0  0  0  0  0  0  0
   20.9990  -17.5823   14.1634 C   0  0  0  0  0  0  0  0  0  0  0  0
   23.5534  -15.6233   13.6326 N   0  0  0  0  0  0  0  0  0  0  0  0
   23.5318  -15.9506   12.2235 C   0  0  0  0  0  0  0  0  0  0  0  0
   23.7326  -14.8103   11.2955 C   0  0  0  0  0  0  0  0  0  0  0  0
   24.0622  -11.0196   11.8026 C   0  0  0  0  0  0  0  0  0  0  0  0
   24.9136  -10.0848   11.2706 C   0  0  0  0  0  0  0  0  0  0  0  0
   25.0828   -8.8286   11.8524 C   0  0  0  0  0  0  0  0  0  0  0  0
   23.3772  -10.6467   12.9531 C   0  0  0  0  0  0  0  0  0  0  0  0
   23.5372   -9.4080   13.5352 C   0  0  0  0  0  0  0  0  0  0  0  0
   24.4046   -8.4572   12.9935 C   0  0  0  0  0  0  0  0  0  0  0  0
   24.5346   -7.1336   13.5870 C   0  0  0  0  0  0  0  0  0  0  0  0
   25.2799   -6.1749   13.0586 C   0  0  0  0  0  0  0  0  0  0  0  0
   25.5312   -4.8278   13.5408 C   0  0  0  0  0  0  0  0  0  0  0  0
   25.0786   -4.2947   14.5944 O   0  0  0  0  0  0  0  0  0  0  0  0
   26.0175   -6.2635   11.8575 O   0  0  0  0  0  0  0  0  0  0  0  0
   26.6795   -5.0700   11.6005 C   0  0  0  0  0  0  0  0  0  0  0  0
   27.4915   -4.7645   10.5348 C   0  0  0  0  0  0  0  0  0  0  0  0
   27.7995   -5.6872    9.4546 C   0  0  0  0  0  0  0  0  0  0  0  0
   28.5417   -5.3137    8.5086 O   0  0  0  0  0  0  0  0  0  0  0  0
   27.2923   -7.0061    9.4226 N   0  0  0  0  0  0  0  0  0  0  0  0
   26.4201   -4.1529   12.5962 C   0  0  0  0  0  0  0  0  0  0  0  0
   26.9800   -2.8985   12.5354 C   0  0  0  0  0  0  0  0  0  0  0  0
   27.7967   -2.5612   11.4827 C   0  0  0  0  0  0  0  0  0  0  0  0
   28.0566   -3.4955   10.4756 C   0  0  0  0  0  0  0  0  0  0  0  0
  1  2  2  0
  2  3  1  0
  2 15  1  0
  3  4  1  0
  3 14  1  0
  4  5  1  0
  5  6  2  0
  5 12  1  0
  6  7  1  0
  7  8  2  0
  9  8  1  1
  8 12  1  0
  9 10  1  0
  9 11  1  0
 10 11  2  0
 12 13  1  0
 13 14  1  0
 15 16  2  0
 15 18  1  0
 16 17  1  0
 17 20  2  0
 18 19  2  0
 19 20  1  0
 20 21  1  0
 21 22  2  0
 22 23  1  0
 22 25  1  0
 23 24  2  0
 23 31  1  0
 25 26  1  0
 26 27  2  0
 26 31  1  0
 27 28  1  0
 27 34  1  0
 28 29  2  0
 28 30  1  0
 31 32  2  0
 32 33  1  0
 33 34  2  0
M  END
$$$$
