
     RDKit          3D

 34 39  0  0  0  0  0  0  0  0999 V2000
   25.5637  -14.4262   12.1321 O   0  0  0  0  0  0  0  0  0  0  0  0
   25.4282  -13.2438   11.7714 C   0  0  0  0  0  0  0  0  0  0  0  0
   24.7872  -13.0193   10.5176 N   0  0  0  0  0  0  0  0  0  0  0  0
   23.8393  -11.9627   10.3223 C   0  0  0  0  0  0  0  0  0  0  0  0
   22.9297  -12.2666    9.2011 C   0  0  0  0  0  0  0  0  0  0  0  0
   21.9622  -11.4911    8.6061 N   0  0  0  0  0  0  0  0  0  0  0  0
   21.4270  -12.2090    7.6576 N   0  0  0  0  0  0  0  0  0  0  0  0
   21.9838  -13.4242    7.5841 C   0  0  0  0  0  0  0  0  0  0  0  0
   21.6833  -14.5409    6.6590 C   0  0  1  0  0  0  0  0  0  0  0  0
   20.5302  -15.3935    7.0826 C   0  0  0  0  0  0  0  0  0  0  0  0
   20.3981  -14.5426    5.9236 C   0  0  0  0  0  0  0  0  0  0  0  0
   22.9281  -13.4303    8.5694 N   0  0  0  0  0  0  0  0  0  0  0  0
   23.8263  -14.5481    8.8959 C   0  0  0  0  0  0  0  0  0  0  0  0
   25.1183  -13.9085    9.4198 C   0  0  0  0  0  0  0  0  0  0  0  0
   25.8805  -12.1194   12.5583 C   0  0  0  0  0  0  0  0  0  0  0  0
   25.4543  -10.8194   12.2517 C   0  0  0  0  0  0  0  0  0  0  0  0
   25.8700   -9.7489   12.9817 C   0  0  0  0  0  0  0  0  0  0  0  0
   26.7332  -12.2602   13.6250 C   0  0  0  0  0  0  0  0  0  0  0  0
   27.1591  -11.1582   14.3722 C   0  0  0  0  0  0  0  0  0  0  0  0
   26.7407   -9.8949   14.0704 C   0  0  0  0  0  0  0  0  0  0  0  0
   27.1687   -8.7006   14.7810 C   0  0  0  0  0  0  0  0  0  0  0  0
   26.9687   -7.4652   14.4384 C   0  0  0  0  0  0  0  0  0  0  0  0
   27.3973   -6.2401   15.0709 C   0  0  0  0  0  0  0  0  0  0  0  0
   28.0710   -6.0655   16.1197 O   0  0  0  0  0  0  0  0  0  0  0  0
   26.2382   -7.0995   13.2941 O   0  0  0  0  0  0  0  0  0  0  0  0
   26.1932   -5.7286   13.1856 C   0  0  0  0  0  0  0  0  0  0  0  0
   25.6061   -4.8858   12.2475 C   0  0  0  0  0  0  0  0  0  0  0  0
   24.8593   -5.4640   11.1509 C   0  0  0  0  0  0  0  0  0  0  0  0
   24.5561   -4.7405   10.1762 O   0  0  0  0  0  0  0  0  0  0  0  0
   24.4704   -6.8122   11.1639 N   0  0  0  0  0  0  0  0  0  0  0  0
   26.8829   -5.1445   14.2396 C   0  0  0  0  0  0  0  0  0  0  0  0
   27.0096   -3.7716   14.3896 C   0  0  0  0  0  0  0  0  0  0  0  0
   26.4193   -2.9485   13.4435 C   0  0  0  0  0  0  0  0  0  0  0  0
   25.7374   -3.5243   12.4041 C   0  0  0  0  0  0  0  0  0  0  0  0
  1  2  2  0
  2  3  1  0
  2 15  1  0
  4  3  1  1
 14  3  1  1
  4  5  1  0
  5  6  2  0
  5 12  1  0
  6  7  1  0
  7  8  2  0
  9  8  1  1
  8 12  1  0
  9 10  1  0
  9 11  1  0
 10 11  2  0
 13 12  1  1
 13 14  1  0
 15 16  2  0
 15 18  1  0
 16 17  1  0
 17 20  2  0
 18 19  2  0
 19 20  1  0
 20 21  1  0
 21 22  2  0
 22 23  1  0
 22 25  1  0
 23 24  2  0
 23 31  1  0
 25 26  1  0
 26 27  2  0
 26 31  1  0
 27 28  1  0
 27 34  1  0
 28 29  2  0
 28 30  1  0
 31 32  2  0
 32 33  1  0
 33 34  2  0
M  END
$$$$
