
     RDKit          3D

 34 39  0  0  0  0  0  0  0  0999 V2000
   21.4772  -11.5648   11.5612 O   0  0  0  0  0  0  0  0  0  0  0  0
   22.5598  -11.4723   12.1661 C   0  0  0  0  0  0  0  0  0  0  0  0
   23.2000  -12.6914   12.5369 N   0  0  0  0  0  0  0  0  0  0  0  0
   24.6154  -12.7795   12.7422 C   0  0  0  0  0  0  0  0  0  0  0  0
   25.0940  -14.1619   12.5508 C   0  0  0  0  0  0  0  0  0  0  0  0
   26.3388  -14.7084   12.7589 N   0  0  0  0  0  0  0  0  0  0  0  0
   26.2595  -15.9712   12.4421 N   0  0  0  0  0  0  0  0  0  0  0  0
   25.0283  -16.3013   12.0329 C   0  0  0  0  0  0  0  0  0  0  0  0
   24.5060  -17.6143   11.5896 C   0  0  1  0  0  0  0  0  0  0  0  0
   25.2010  -18.7881   12.2022 C   0  0  0  0  0  0  0  0  0  0  0  0
   23.8372  -18.4945   12.5748 C   0  0  0  0  0  0  0  0  0  0  0  0
   24.3160  -15.1398   12.1129 N   0  0  0  0  0  0  0  0  0  0  0  0
   22.8942  -14.9753   11.7752 C   0  0  0  0  0  0  0  0  0  0  0  0
   22.3689  -13.8696   12.6994 C   0  0  0  0  0  0  0  0  0  0  0  0
   23.1780  -10.2080   12.4937 C   0  0  0  0  0  0  0  0  0  0  0  0
   22.6355   -9.3891   13.4939 C   0  0  0  0  0  0  0  0  0  0  0  0
   23.2043   -8.1955   13.8156 C   0  0  0  0  0  0  0  0  0  0  0  0
   24.3051   -9.7504   11.8571 C   0  0  0  0  0  0  0  0  0  0  0  0
   24.8863   -8.5232   12.1893 C   0  0  0  0  0  0  0  0  0  0  0  0
   24.3550   -7.7301   13.1643 C   0  0  0  0  0  0  0  0  0  0  0  0
   24.8850   -6.4288   13.5384 C   0  0  0  0  0  0  0  0  0  0  0  0
   25.7216   -5.6963   12.8695 C   0  0  0  0  0  0  0  0  0  0  0  0
   26.2328   -4.3746   13.1456 C   0  0  0  0  0  0  0  0  0  0  0  0
   25.9889   -3.5987   14.1062 O   0  0  0  0  0  0  0  0  0  0  0  0
   26.3113   -6.1184   11.6651 O   0  0  0  0  0  0  0  0  0  0  0  0
   27.1516   -5.1393   11.1869 C   0  0  0  0  0  0  0  0  0  0  0  0
   27.9547   -5.0714   10.0531 C   0  0  0  0  0  0  0  0  0  0  0  0
   27.9601   -6.1826    9.1259 C   0  0  0  0  0  0  0  0  0  0  0  0
   28.6835   -6.1183    8.1071 O   0  0  0  0  0  0  0  0  0  0  0  0
   27.1711   -7.3215    9.3479 N   0  0  0  0  0  0  0  0  0  0  0  0
   27.1489   -4.0482   12.0455 C   0  0  0  0  0  0  0  0  0  0  0  0
   27.9082   -2.9096   11.8208 C   0  0  0  0  0  0  0  0  0  0  0  0
   28.7036   -2.8616   10.6868 C   0  0  0  0  0  0  0  0  0  0  0  0
   28.7054   -3.9374    9.8384 C   0  0  0  0  0  0  0  0  0  0  0  0
  1  2  2  0
  2  3  1  0
  2 15  1  0
  4  3  1  1
 14  3  1  1
  4  5  1  0
  5  6  2  0
  5 12  1  0
  6  7  1  0
  7  8  2  0
  9  8  1  1
  8 12  1  0
  9 10  1  0
  9 11  1  0
 10 11  2  0
 13 12  1  1
 13 14  1  0
 15 16  2  0
 15 18  1  0
 16 17  1  0
 17 20  2  0
 18 19  2  0
 19 20  1  0
 20 21  1  0
 21 22  2  0
 22 23  1  0
 22 25  1  0
 23 24  2  0
 23 31  1  0
 25 26  1  0
 26 27  2  0
 26 31  1  0
 27 28  1  0
 27 34  1  0
 28 29  2  0
 28 30  1  0
 31 32  2  0
 32 33  1  0
 33 34  2  0
M  END
$$$$
