
     RDKit          3D

 34 39  0  0  0  0  0  0  0  0999 V2000
   27.7133   -7.1080   11.9252 O   0  0  0  0  0  0  0  0  0  0  0  0
   26.9567   -7.4560   10.9608 C   0  0  0  0  0  0  0  0  0  0  0  0
   26.5653   -6.4592   10.0436 N   0  0  0  0  0  0  0  0  0  0  0  0
   26.3471   -5.1139   10.5219 C   0  0  0  0  0  0  0  0  0  0  0  0
   26.9483   -4.1591    9.5514 C   0  0  0  0  0  0  0  0  0  0  0  0
   27.4965   -2.9482    9.7224 N   0  0  0  0  0  0  0  0  0  0  0  0
   27.8902   -2.4533    8.5744 N   0  0  0  0  0  0  0  0  0  0  0  0
   27.5804   -3.3900    7.6198 C   0  0  0  0  0  0  0  0  0  0  0  0
   27.8638   -3.1879    6.1765 C   0  0  1  0  0  0  0  0  0  0  0  0
   26.8450   -2.6045    5.3332 C   0  0  0  0  0  0  0  0  0  0  0  0
   27.9097   -1.7970    5.7436 C   0  0  0  0  0  0  0  0  0  0  0  0
   27.0041   -4.4341    8.2310 N   0  0  0  0  0  0  0  0  0  0  0  0
   26.5145   -5.6816    7.6858 C   0  0  0  0  0  0  0  0  0  0  0  0
   26.3812   -6.7980    8.6542 C   0  0  0  0  0  0  0  0  0  0  0  0
   26.5566   -8.8589   10.8820 C   0  0  0  0  0  0  0  0  0  0  0  0
   25.6827   -9.4563   11.7545 C   0  0  0  0  0  0  0  0  0  0  0  0
   25.3299  -10.8004   11.6370 C   0  0  0  0  0  0  0  0  0  0  0  0
   27.0714   -9.6661    9.8745 C   0  0  0  0  0  0  0  0  0  0  0  0
   26.7288  -10.9950    9.7498 C   0  0  0  0  0  0  0  0  0  0  0  0
   25.8397  -11.6027   10.6387 C   0  0  0  0  0  0  0  0  0  0  0  0
   25.4461  -12.9951   10.4741 C   0  0  0  0  0  0  0  0  0  0  0  0
   24.8249  -13.6867   11.4173 C   0  0  0  0  0  0  0  0  0  0  0  0
   24.4495  -15.0899   11.4389 C   0  0  0  0  0  0  0  0  0  0  0  0
   24.6552  -15.9516   10.5366 O   0  0  0  0  0  0  0  0  0  0  0  0
   24.3720  -13.1808   12.6556 O   0  0  0  0  0  0  0  0  0  0  0  0
   23.7593  -14.1814   13.3985 C   0  0  0  0  0  0  0  0  0  0  0  0
   23.1931  -14.0832   14.6468 C   0  0  0  0  0  0  0  0  0  0  0  0
   23.1424  -12.8558   15.4240 C   0  0  0  0  0  0  0  0  0  0  0  0
   22.6472  -12.8712   16.5815 O   0  0  0  0  0  0  0  0  0  0  0  0
   23.6338  -11.6277   14.9259 N   0  0  0  0  0  0  0  0  0  0  0  0
   23.7762  -15.3728   12.7056 C   0  0  0  0  0  0  0  0  0  0  0  0
   23.2174  -16.4983   13.2638 C   0  0  0  0  0  0  0  0  0  0  0  0
   22.6429  -16.4337   14.5107 C   0  0  0  0  0  0  0  0  0  0  0  0
   22.6287  -15.2227   15.2092 C   0  0  0  0  0  0  0  0  0  0  0  0
  1  2  2  0
  2  3  1  0
  2 15  1  0
  3  4  1  0
  3 14  1  0
  4  5  1  0
  5  6  2  0
  5 12  1  0
  6  7  1  0
  7  8  2  0
  9  8  1  1
  8 12  1  0
  9 10  1  0
  9 11  1  0
 10 11  2  0
 12 13  1  0
 13 14  1  0
 15 16  2  0
 15 18  1  0
 16 17  1  0
 17 20  2  0
 18 19  2  0
 19 20  1  0
 20 21  1  0
 21 22  2  0
 22 23  1  0
 22 25  1  0
 23 24  2  0
 23 31  1  0
 25 26  1  0
 26 27  2  0
 26 31  1  0
 27 28  1  0
 27 34  1  0
 28 29  2  0
 28 30  1  0
 31 32  2  0
 32 33  1  0
 33 34  2  0
M  END
$$$$
