
     RDKit          3D

 34 39  0  0  0  0  0  0  0  0999 V2000
   26.4040  -12.7741   14.1372 O   0  0  0  0  0  0  0  0  0  0  0  0
   25.9124  -12.6386   12.9695 C   0  0  0  0  0  0  0  0  0  0  0  0
   25.0491  -13.6505   12.5014 N   0  0  0  0  0  0  0  0  0  0  0  0
   25.4901  -15.0251   12.5495 C   0  0  0  0  0  0  0  0  0  0  0  0
   24.3626  -15.8714   13.0263 C   0  0  0  0  0  0  0  0  0  0  0  0
   24.3455  -17.0097   13.7334 N   0  0  0  0  0  0  0  0  0  0  0  0
   23.1145  -17.4205   13.9173 N   0  0  0  0  0  0  0  0  0  0  0  0
   22.3014  -16.5033   13.2992 C   0  0  0  0  0  0  0  0  0  0  0  0
   20.8222  -16.6292   13.2775 C   0  0  1  0  0  0  0  0  0  0  0  0
   20.2245  -17.8217   12.7207 C   0  0  0  0  0  0  0  0  0  0  0  0
   20.2794  -17.6938   14.1117 C   0  0  0  0  0  0  0  0  0  0  0  0
   23.0781  -15.5554   12.7569 N   0  0  0  0  0  0  0  0  0  0  0  0
   22.7198  -14.3633   12.0196 C   0  0  0  0  0  0  0  0  0  0  0  0
   23.7528  -13.2989   11.9772 C   0  0  0  0  0  0  0  0  0  0  0  0
   26.2813  -11.4463   12.2101 C   0  0  0  0  0  0  0  0  0  0  0  0
   25.6748  -10.2250   12.3595 C   0  0  0  0  0  0  0  0  0  0  0  0
   26.0640   -9.1143   11.6113 C   0  0  0  0  0  0  0  0  0  0  0  0
   27.3049  -11.5166   11.2725 C   0  0  0  0  0  0  0  0  0  0  0  0
   27.6970  -10.4249   10.5287 C   0  0  0  0  0  0  0  0  0  0  0  0
   27.0787   -9.1821   10.6807 C   0  0  0  0  0  0  0  0  0  0  0  0
   27.5282   -8.0213    9.9249 C   0  0  0  0  0  0  0  0  0  0  0  0
   27.4250   -6.7807   10.3767 C   0  0  0  0  0  0  0  0  0  0  0  0
   28.0569   -5.5654    9.8931 C   0  0  0  0  0  0  0  0  0  0  0  0
   28.8473   -5.4511    8.9126 O   0  0  0  0  0  0  0  0  0  0  0  0
   26.6463   -6.3601   11.4773 O   0  0  0  0  0  0  0  0  0  0  0  0
   26.7763   -4.9916   11.6743 C   0  0  0  0  0  0  0  0  0  0  0  0
   26.1812   -4.2145   12.6389 C   0  0  0  0  0  0  0  0  0  0  0  0
   25.2784   -4.7280   13.6560 C   0  0  0  0  0  0  0  0  0  0  0  0
   24.7218   -3.9302   14.4553 O   0  0  0  0  0  0  0  0  0  0  0  0
   24.9959   -6.1069   13.7861 N   0  0  0  0  0  0  0  0  0  0  0  0
   27.6273   -4.4498   10.7351 C   0  0  0  0  0  0  0  0  0  0  0  0
   27.8967   -3.1015   10.7510 C   0  0  0  0  0  0  0  0  0  0  0  0
   27.3176   -2.2966   11.7027 C   0  0  0  0  0  0  0  0  0  0  0  0
   26.4549   -2.8514   12.6528 C   0  0  0  0  0  0  0  0  0  0  0  0
  1  2  2  0
  2  3  1  0
  2 15  1  0
  3  4  1  0
  3 14  1  0
  4  5  1  0
  5  6  2  0
  5 12  1  0
  6  7  1  0
  7  8  2  0
  9  8  1  1
  8 12  1  0
  9 10  1  0
  9 11  1  0
 10 11  2  0
 12 13  1  0
 13 14  1  0
 15 16  2  0
 15 18  1  0
 16 17  1  0
 17 20  2  0
 18 19  2  0
 19 20  1  0
 20 21  1  0
 21 22  2  0
 22 23  1  0
 22 25  1  0
 23 24  2  0
 23 31  1  0
 25 26  1  0
 26 27  2  0
 26 31  1  0
 27 28  1  0
 27 34  1  0
 28 29  2  0
 28 30  1  0
 31 32  2  0
 32 33  1  0
 33 34  2  0
M  END
$$$$
