
     RDKit          3D

 34 39  0  0  0  0  0  0  0  0999 V2000
   24.4291  -12.3112    7.4496 O   0  0  0  0  0  0  0  0  0  0  0  0
   24.7787  -11.8106    8.5679 C   0  0  0  0  0  0  0  0  0  0  0  0
   24.2954  -12.4270    9.7405 N   0  0  0  0  0  0  0  0  0  0  0  0
   22.9904  -13.0458    9.7197 C   0  0  0  0  0  0  0  0  0  0  0  0
   23.0680  -14.3470   10.4379 C   0  0  0  0  0  0  0  0  0  0  0  0
   22.3952  -15.4939   10.2705 N   0  0  0  0  0  0  0  0  0  0  0  0
   22.7819  -16.3882   11.1471 N   0  0  0  0  0  0  0  0  0  0  0  0
   23.7489  -15.7882   11.9149 C   0  0  0  0  0  0  0  0  0  0  0  0
   24.4294  -16.4848   13.0356 C   0  0  1  0  0  0  0  0  0  0  0  0
   23.6331  -17.1897   14.0146 C   0  0  0  0  0  0  0  0  0  0  0  0
   24.2950  -17.9360   13.0352 C   0  0  0  0  0  0  0  0  0  0  0  0
   23.9179  -14.5356   11.4696 N   0  0  0  0  0  0  0  0  0  0  0  0
   24.8236  -13.4998   11.9168 C   0  0  0  0  0  0  0  0  0  0  0  0
   25.1016  -12.4217   10.9359 C   0  0  0  0  0  0  0  0  0  0  0  0
   25.6522  -10.6398    8.5460 C   0  0  0  0  0  0  0  0  0  0  0  0
   25.2323   -9.3654    8.8308 C   0  0  0  0  0  0  0  0  0  0  0  0
   26.1057   -8.2787    8.7979 C   0  0  0  0  0  0  0  0  0  0  0  0
   26.9957  -10.7893    8.2226 C   0  0  0  0  0  0  0  0  0  0  0  0
   27.8667   -9.7219    8.1878 C   0  0  0  0  0  0  0  0  0  0  0  0
   27.4384   -8.4248    8.4771 C   0  0  0  0  0  0  0  0  0  0  0  0
   28.3733   -7.3083    8.4835 C   0  0  0  0  0  0  0  0  0  0  0  0
   28.3105   -6.3184    9.3610 C   0  0  0  0  0  0  0  0  0  0  0  0
   29.1897   -5.1740    9.5278 C   0  0  0  0  0  0  0  0  0  0  0  0
   30.2132   -4.8882    8.8423 O   0  0  0  0  0  0  0  0  0  0  0  0
   27.3330   -6.1625   10.3684 O   0  0  0  0  0  0  0  0  0  0  0  0
   27.5751   -5.0149   11.1119 C   0  0  0  0  0  0  0  0  0  0  0  0
   26.8522   -4.5253   12.1731 C   0  0  0  0  0  0  0  0  0  0  0  0
   25.6625   -5.1636   12.7120 C   0  0  0  0  0  0  0  0  0  0  0  0
   25.0278   -4.6097   13.6478 O   0  0  0  0  0  0  0  0  0  0  0  0
   25.1821   -6.3989   12.2211 N   0  0  0  0  0  0  0  0  0  0  0  0
   28.6986   -4.3677   10.6443 C   0  0  0  0  0  0  0  0  0  0  0  0
   29.1182   -3.2034   11.2436 C   0  0  0  0  0  0  0  0  0  0  0  0
   28.4174   -2.6873   12.3073 C   0  0  0  0  0  0  0  0  0  0  0  0
   27.2783   -3.3478   12.7774 C   0  0  0  0  0  0  0  0  0  0  0  0
  1  2  2  0
  2  3  1  0
  2 15  1  0
  3  4  1  0
  3 14  1  0
  4  5  1  0
  5  6  2  0
  5 12  1  0
  6  7  1  0
  7  8  2  0
  9  8  1  6
  8 12  1  0
  9 10  1  0
  9 11  1  0
 10 11  2  0
 12 13  1  0
 13 14  1  0
 15 16  2  0
 15 18  1  0
 16 17  1  0
 17 20  2  0
 18 19  2  0
 19 20  1  0
 20 21  1  0
 21 22  2  0
 22 23  1  0
 22 25  1  0
 23 24  2  0
 23 31  1  0
 25 26  1  0
 26 27  2  0
 26 31  1  0
 27 28  1  0
 27 34  1  0
 28 29  2  0
 28 30  1  0
 31 32  2  0
 32 33  1  0
 33 34  2  0
M  END
$$$$
