
     RDKit          3D

 34 39  0  0  0  0  0  0  0  0999 V2000
   23.1227  -11.5976   11.4056 O   0  0  0  0  0  0  0  0  0  0  0  0
   24.3423  -11.9117   11.2118 C   0  0  0  0  0  0  0  0  0  0  0  0
   24.7296  -13.2375   11.4952 N   0  0  0  0  0  0  0  0  0  0  0  0
   25.5178  -13.4995   12.6769 C   0  0  0  0  0  0  0  0  0  0  0  0
   24.9911  -14.7234   13.3400 C   0  0  0  0  0  0  0  0  0  0  0  0
   24.9560  -15.0883   14.6291 N   0  0  0  0  0  0  0  0  0  0  0  0
   24.4066  -16.2711   14.7593 N   0  0  0  0  0  0  0  0  0  0  0  0
   24.0727  -16.6868   13.4942 C   0  0  0  0  0  0  0  0  0  0  0  0
   23.4318  -17.9985   13.2244 C   0  0  1  0  0  0  0  0  0  0  0  0
   24.0374  -18.8948   12.2656 C   0  0  0  0  0  0  0  0  0  0  0  0
   24.2112  -19.1626   13.6265 C   0  0  0  0  0  0  0  0  0  0  0  0
   24.4345  -15.7281   12.6307 N   0  0  0  0  0  0  0  0  0  0  0  0
   24.2874  -15.6622   11.1929 C   0  0  0  0  0  0  0  0  0  0  0  0
   24.3437  -14.3021   10.6026 C   0  0  0  0  0  0  0  0  0  0  0  0
   25.2407  -10.8743   10.7108 C   0  0  0  0  0  0  0  0  0  0  0  0
   26.0243  -11.0138    9.5936 C   0  0  0  0  0  0  0  0  0  0  0  0
   26.8661   -9.9926    9.1535 C   0  0  0  0  0  0  0  0  0  0  0  0
   25.3313   -9.6598   11.3806 C   0  0  0  0  0  0  0  0  0  0  0  0
   26.1596   -8.6446   10.9536 C   0  0  0  0  0  0  0  0  0  0  0  0
   26.9575   -8.7875    9.8166 C   0  0  0  0  0  0  0  0  0  0  0  0
   27.7960   -7.6945    9.3444 C   0  0  0  0  0  0  0  0  0  0  0  0
   27.8603   -6.5191    9.9511 C   0  0  0  0  0  0  0  0  0  0  0  0
   28.7519   -5.3991    9.7042 C   0  0  0  0  0  0  0  0  0  0  0  0
   29.6633   -5.3238    8.8308 O   0  0  0  0  0  0  0  0  0  0  0  0
   27.0406   -6.0894   11.0179 O   0  0  0  0  0  0  0  0  0  0  0  0
   27.3864   -4.8041   11.4139 C   0  0  0  0  0  0  0  0  0  0  0  0
   26.8257   -4.0464   12.4140 C   0  0  0  0  0  0  0  0  0  0  0  0
   25.7293   -4.4934   13.2572 C   0  0  0  0  0  0  0  0  0  0  0  0
   25.2265   -3.7018   14.0973 O   0  0  0  0  0  0  0  0  0  0  0  0
   25.1967   -5.7999   13.1712 N   0  0  0  0  0  0  0  0  0  0  0  0
   28.4279   -4.3288   10.6463 C   0  0  0  0  0  0  0  0  0  0  0  0
   28.9282   -3.0686   10.8746 C   0  0  0  0  0  0  0  0  0  0  0  0
   28.3897   -2.2853   11.8674 C   0  0  0  0  0  0  0  0  0  0  0  0
   27.3332   -2.7724   12.6429 C   0  0  0  0  0  0  0  0  0  0  0  0
  1  2  2  0
  2  3  1  0
  2 15  1  0
  3  4  1  0
  3 14  1  0
  4  5  1  0
  5  6  2  0
  5 12  1  0
  6  7  1  0
  7  8  2  0
  9  8  1  1
  8 12  1  0
  9 10  1  0
  9 11  1  0
 10 11  2  0
 12 13  1  0
 13 14  1  0
 15 16  2  0
 15 18  1  0
 16 17  1  0
 17 20  2  0
 18 19  2  0
 19 20  1  0
 20 21  1  0
 21 22  2  0
 22 23  1  0
 22 25  1  0
 23 24  2  0
 23 31  1  0
 25 26  1  0
 26 27  2  0
 26 31  1  0
 27 28  1  0
 27 34  1  0
 28 29  2  0
 28 30  1  0
 31 32  2  0
 32 33  1  0
 33 34  2  0
M  END
$$$$
