
     RDKit          3D

 41 44  0  0  0  0  0  0  0  0999 V2000
  -17.8138   25.9339  -15.8667 C   0  0  0  0  0  0  0  0  0  0  0  0
  -19.5149   17.9346  -18.2609 C   0  0  0  0  0  0  0  0  0  0  0  0
  -16.3152   26.1563  -15.8493 C   0  0  0  0  0  0  0  0  0  0  0  0
  -15.9454   26.9676  -17.0773 C   0  0  0  0  0  0  0  0  0  0  0  0
  -18.3075   20.9193  -15.2122 C   0  0  0  0  0  0  0  0  0  0  0  0
  -14.4779   27.1494  -17.0913 C   0  0  0  0  0  0  0  0  0  0  0  0
  -18.1808   23.5121  -16.2266 C   0  0  0  0  0  0  0  0  0  0  0  0
  -18.2562   23.2901  -14.8809 C   0  0  0  0  0  0  0  0  0  0  0  0
  -18.3209   21.9962  -14.3485 C   0  0  0  0  0  0  0  0  0  0  0  0
  -18.2328   21.1033  -16.5888 C   0  0  0  0  0  0  0  0  0  0  0  0
  -19.2311   18.9777  -17.2795 C   0  0  0  0  0  0  0  0  0  0  0  0
  -18.1057   24.8332  -16.7290 N   0  0  0  0  0  0  0  0  0  0  0  0
  -18.2251   19.9646  -17.4683 N   0  0  0  0  0  0  0  0  0  0  0  0
  -18.3276   25.0458  -18.1445 C   0  0  0  0  0  0  0  0  0  0  0  0
  -18.7852   23.8162  -18.8741 C   0  0  1  0  0  0  0  0  0  0  0  0
  -20.1974   16.7808  -17.9027 C   0  0  0  0  0  0  0  0  0  0  0  0
  -20.4612   15.7897  -18.8177 C   0  0  0  0  0  0  0  0  0  0  0  0
  -20.0656   15.8828  -20.1356 C   0  0  0  0  0  0  0  0  0  0  0  0
  -19.9486   14.8638  -22.3738 C   0  0  0  0  0  0  0  0  0  0  0  0
  -20.9343   13.9929  -23.1508 C   0  0  0  0  0  0  0  0  0  0  0  0
  -18.4613   23.9762  -20.3034 C   0  0  0  0  0  0  0  0  0  0  0  0
  -22.1254   14.8030  -23.6062 C   0  0  0  0  0  0  0  0  0  0  0  0
  -23.0508   13.8295  -24.3204 C   0  0  0  0  0  0  0  0  0  0  0  0
  -23.8088   12.9673  -23.3821 C   0  0  0  0  0  0  0  0  0  0  0  0
  -24.8212   13.5314  -22.6064 C   0  0  0  0  0  0  0  0  0  0  0  0
  -25.5655   12.7702  -21.7152 C   0  0  0  0  0  0  0  0  0  0  0  0
  -25.2571   11.4351  -21.6329 C   0  0  0  0  0  0  0  0  0  0  0  0
  -24.2461   10.8713  -22.4078 C   0  0  0  0  0  0  0  0  0  0  0  0
  -23.5115   11.6349  -23.2908 C   0  0  0  0  0  0  0  0  0  0  0  0
  -19.3851   17.0252  -20.5088 C   0  0  0  0  0  0  0  0  0  0  0  0
  -19.1168   18.0357  -19.5762 C   0  0  0  0  0  0  0  0  0  0  0  0
  -18.1724   22.3908  -17.0454 C   0  0  0  0  0  0  0  0  0  0  0  0
  -26.5555   13.2830  -20.9479 F   0  0  0  0  0  0  0  0  0  0  0  0
  -18.6214   25.0715  -20.8684 O   0  0  0  0  0  0  0  0  0  0  0  0
  -17.9780   22.9036  -21.0205 O   0  0  0  0  0  0  0  0  0  0  0  0
  -13.8795   27.7803  -16.1581 O   0  0  0  0  0  0  0  0  0  0  0  0
  -13.7280   26.6224  -18.1476 O   0  0  0  0  0  0  0  0  0  0  0  0
  -19.9165   18.9874  -16.2264 O   0  0  0  0  0  0  0  0  0  0  0  0
  -20.3475   14.8650  -21.0294 O   0  0  0  0  0  0  0  0  0  0  0  0
  -18.0991   22.6368  -18.4112 O   0  0  0  0  0  0  0  0  0  0  0  0
  -22.2489   10.8607  -24.2394 Cl  0  0  0  0  0  0  0  0  0  0  0  0
  1  3  1  0
 12  1  1  0
  2 11  1  0
 16  2  2  0
  2 31  1  0
  3  4  1  0
  4  6  1  0
  5  9  2  0
 10  5  1  0
  6 36  2  0
  6 37  1  0
  7  8  2  0
  7 12  1  0
 32  7  1  0
  9  8  1  0
 13 10  1  0
 10 32  2  0
 11 13  1  0
 11 38  2  0
 12 14  1  0
 14 15  1  0
 15 21  1  6
 15 40  1  0
 17 16  1  0
 18 17  2  0
 18 30  1  0
 39 18  1  0
 19 20  1  0
 19 39  1  0
 20 22  1  0
 21 34  2  0
 21 35  1  0
 22 23  1  0
 23 24  1  0
 24 25  2  0
 24 29  1  0
 25 26  1  0
 26 27  2  0
 26 33  1  0
 27 28  1  0
 28 29  2  0
 29 41  1  0
 30 31  2  0
 32 40  1  0
M  END
$$$$
