
     RDKit          3D

 41 44  0  0  0  0  0  0  0  0999 V2000
  -18.2441   24.5179  -14.1619 C   0  0  0  0  0  0  0  0  0  0  0  0
  -18.8508   17.6906  -19.2669 C   0  0  0  0  0  0  0  0  0  0  0  0
  -17.7541   25.8839  -14.5533 C   0  0  0  0  0  0  0  0  0  0  0  0
  -16.4338   25.7306  -15.2740 C   0  0  0  0  0  0  0  0  0  0  0  0
  -17.9770   19.7273  -15.6270 C   0  0  0  0  0  0  0  0  0  0  0  0
  -15.6262   26.9690  -15.1771 C   0  0  0  0  0  0  0  0  0  0  0  0
  -18.5157   22.3987  -15.3956 C   0  0  0  0  0  0  0  0  0  0  0  0
  -18.1401   21.6484  -14.2917 C   0  0  0  0  0  0  0  0  0  0  0  0
  -17.8636   20.3014  -14.3834 C   0  0  0  0  0  0  0  0  0  0  0  0
  -18.3497   20.4518  -16.7450 C   0  0  0  0  0  0  0  0  0  0  0  0
  -18.6195   18.3903  -18.0335 C   0  0  0  0  0  0  0  0  0  0  0  0
  -18.7971   23.7847  -15.2678 N   0  0  0  0  0  0  0  0  0  0  0  0
  -18.4505   19.7892  -17.9991 N   0  0  0  0  0  0  0  0  0  0  0  0
  -19.6430   24.3907  -16.2746 C   0  0  0  0  0  0  0  0  0  0  0  0
  -19.0787   23.9592  -17.6309 C   0  0  1  0  0  0  0  0  0  0  0  0
  -19.0353   16.3135  -19.2663 C   0  0  0  0  0  0  0  0  0  0  0  0
  -19.2583   15.6549  -20.4306 C   0  0  0  0  0  0  0  0  0  0  0  0
  -19.3195   16.2839  -21.6883 C   0  0  0  0  0  0  0  0  0  0  0  0
  -19.7286   15.9225  -24.0821 C   0  0  0  0  0  0  0  0  0  0  0  0
  -19.7879   14.8275  -25.0906 C   0  0  0  0  0  0  0  0  0  0  0  0
  -17.7833   24.5815  -17.9041 C   0  0  0  0  0  0  0  0  0  0  0  0
  -19.8020   13.4766  -24.4960 C   0  0  0  0  0  0  0  0  0  0  0  0
  -20.9442   12.5683  -24.6839 C   0  0  0  0  0  0  0  0  0  0  0  0
  -22.1897   12.7979  -23.9654 C   0  0  0  0  0  0  0  0  0  0  0  0
  -23.2221   13.5249  -24.5676 C   0  0  0  0  0  0  0  0  0  0  0  0
  -24.3946   13.8271  -23.9254 C   0  0  0  0  0  0  0  0  0  0  0  0
  -24.5279   13.3794  -22.6312 C   0  0  0  0  0  0  0  0  0  0  0  0
  -23.5396   12.6610  -21.9981 C   0  0  0  0  0  0  0  0  0  0  0  0
  -22.3792   12.3790  -22.6767 C   0  0  0  0  0  0  0  0  0  0  0  0
  -19.1358   17.6356  -21.6573 C   0  0  0  0  0  0  0  0  0  0  0  0
  -18.9032   18.3366  -20.4641 C   0  0  0  0  0  0  0  0  0  0  0  0
  -18.6231   21.7869  -16.6509 C   0  0  0  0  0  0  0  0  0  0  0  0
  -25.3898   14.5397  -24.5370 F   0  0  0  0  0  0  0  0  0  0  0  0
  -17.7202   25.7105  -18.4336 O   0  0  0  0  0  0  0  0  0  0  0  0
  -16.6145   23.9260  -17.5787 O   0  0  0  0  0  0  0  0  0  0  0  0
  -16.0181   28.0921  -15.5809 O   0  0  0  0  0  0  0  0  0  0  0  0
  -14.3640   26.8892  -14.6084 O   0  0  0  0  0  0  0  0  0  0  0  0
  -18.5709   17.7004  -16.9519 O   0  0  0  0  0  0  0  0  0  0  0  0
  -19.5500   15.5272  -22.7684 O   0  0  0  0  0  0  0  0  0  0  0  0
  -18.9997   22.5687  -17.7249 O   0  0  0  0  0  0  0  0  0  0  0  0
  -21.1398   11.4576  -21.8310 Cl  0  0  0  0  0  0  0  0  0  0  0  0
  3  1  1  1
  1 12  1  6
  2 11  1  0
 16  2  2  0
  2 31  1  0
  3  4  1  0
  4  6  1  6
  5  9  2  0
 10  5  1  0
  6 36  2  0
  6 37  1  0
  7  8  2  0
  7 12  1  0
 32  7  1  0
  9  8  1  0
 13 10  1  0
 10 32  2  0
 11 13  1  0
 11 38  2  0
 14 12  1  1
 14 15  1  0
 15 21  1  1
 15 40  1  0
 17 16  1  0
 18 17  2  0
 18 30  1  0
 39 18  1  0
 20 19  1  1
 19 39  1  6
 20 22  1  0
 21 34  2  0
 21 35  1  0
 22 23  1  6
 23 24  1  6
 24 25  2  0
 24 29  1  0
 25 26  1  0
 26 27  2  0
 26 33  1  0
 27 28  1  0
 28 29  2  0
 29 41  1  0
 30 31  2  0
 32 40  1  0
M  END
$$$$
