
     RDKit          3D

 41 44  0  0  0  0  0  0  0  0999 V2000
  -24.5104   11.2155  -21.3277 C   0  0  0  0  0  0  0  0  0  0  0  0
  -18.3798   17.0672  -20.9359 C   0  0  0  0  0  0  0  0  0  0  0  0
  -25.2497   11.0287  -20.0324 C   0  0  0  0  0  0  0  0  0  0  0  0
  -24.4690   10.0624  -19.1705 C   0  0  0  0  0  0  0  0  0  0  0  0
  -19.8317   13.0008  -21.0263 C   0  0  0  0  0  0  0  0  0  0  0  0
  -25.1225    9.8735  -17.8544 C   0  0  0  0  0  0  0  0  0  0  0  0
  -22.5346   12.6931  -21.3082 C   0  0  0  0  0  0  0  0  0  0  0  0
  -21.6710   11.6261  -21.5033 C   0  0  0  0  0  0  0  0  0  0  0  0
  -20.3057   11.7565  -21.3669 C   0  0  0  0  0  0  0  0  0  0  0  0
  -20.6704   14.0825  -20.8258 C   0  0  0  0  0  0  0  0  0  0  0  0
  -18.8587   15.7149  -21.0152 C   0  0  0  0  0  0  0  0  0  0  0  0
  -23.9368   12.5271  -21.4594 N   0  0  0  0  0  0  0  0  0  0  0  0
  -20.1077   15.3416  -20.4794 N   0  0  0  0  0  0  0  0  0  0  0  0
  -24.7228   13.7088  -21.7463 C   0  0  0  0  0  0  0  0  0  0  0  0
  -24.2946   14.7706  -20.7296 C   0  0  1  0  0  0  0  0  0  0  0  0
  -17.1284   17.3972  -21.4415 C   0  0  0  0  0  0  0  0  0  0  0  0
  -16.6795   18.6749  -21.3703 C   0  0  0  0  0  0  0  0  0  0  0  0
  -17.4127   19.7333  -20.8016 C   0  0  0  0  0  0  0  0  0  0  0  0
  -17.3842   22.1343  -20.2891 C   0  0  0  0  0  0  0  0  0  0  0  0
  -16.5451   23.3505  -20.4799 C   0  0  0  0  0  0  0  0  0  0  0  0
  -24.7312   14.4339  -19.3746 C   0  0  0  0  0  0  0  0  0  0  0  0
  -15.2187   23.0678  -21.0624 C   0  0  0  0  0  0  0  0  0  0  0  0
  -13.9943   23.6656  -20.5069 C   0  0  0  0  0  0  0  0  0  0  0  0
  -12.6880   23.1398  -20.8776 C   0  0  0  0  0  0  0  0  0  0  0  0
  -11.8086   23.9195  -21.6363 C   0  0  0  0  0  0  0  0  0  0  0  0
  -10.5905   23.4633  -22.0685 C   0  0  0  0  0  0  0  0  0  0  0  0
  -10.2502   22.1759  -21.7221 C   0  0  0  0  0  0  0  0  0  0  0  0
  -11.0827   21.3722  -20.9774 C   0  0  0  0  0  0  0  0  0  0  0  0
  -12.2953   21.8673  -20.5637 C   0  0  0  0  0  0  0  0  0  0  0  0
  -18.6373   19.3793  -20.3149 C   0  0  0  0  0  0  0  0  0  0  0  0
  -19.1208   18.0635  -20.3776 C   0  0  0  0  0  0  0  0  0  0  0  0
  -22.0232   13.9500  -20.9616 C   0  0  0  0  0  0  0  0  0  0  0  0
   -9.7479   24.2464  -22.8094 F   0  0  0  0  0  0  0  0  0  0  0  0
  -23.9241   14.4605  -18.4224 O   0  0  0  0  0  0  0  0  0  0  0  0
  -26.0427   14.0825  -19.1339 O   0  0  0  0  0  0  0  0  0  0  0  0
  -24.8266    8.9525  -17.0531 O   0  0  0  0  0  0  0  0  0  0  0  0
  -26.1193   10.7621  -17.4806 O   0  0  0  0  0  0  0  0  0  0  0  0
  -18.1110   14.8462  -21.5937 O   0  0  0  0  0  0  0  0  0  0  0  0
  -16.8651   20.9549  -20.7928 O   0  0  0  0  0  0  0  0  0  0  0  0
  -22.9164   14.9866  -20.7761 O   0  0  0  0  0  0  0  0  0  0  0  0
  -13.3308   20.8069  -19.6130 Cl  0  0  0  0  0  0  0  0  0  0  0  0
  3  1  1  1
  1 12  1  6
  2 11  1  0
 16  2  2  0
  2 31  1  0
  3  4  1  0
  4  6  1  6
  5  9  2  0
 10  5  1  0
  6 36  2  0
  6 37  1  0
  7  8  2  0
  7 12  1  0
 32  7  1  0
  9  8  1  0
 13 10  1  0
 10 32  2  0
 11 13  1  0
 11 38  2  0
 14 12  1  1
 14 15  1  0
 15 21  1  1
 15 40  1  0
 17 16  1  0
 18 17  2  0
 18 30  1  0
 39 18  1  0
 20 19  1  1
 19 39  1  6
 20 22  1  0
 21 34  2  0
 21 35  1  0
 22 23  1  6
 23 24  1  6
 24 25  2  0
 24 29  1  0
 25 26  1  0
 26 27  2  0
 26 33  1  0
 27 28  1  0
 28 29  2  0
 29 41  1  0
 30 31  2  0
 32 40  1  0
M  END
$$$$
