
     RDKit          3D

 41 44  0  0  0  0  0  0  0  0999 V2000
  -17.5840   24.0570  -15.8043 C   0  0  0  0  0  0  0  0  0  0  0  0
  -18.2143   17.4785  -21.2419 C   0  0  0  0  0  0  0  0  0  0  0  0
  -18.8716   24.6929  -16.2873 C   0  0  0  0  0  0  0  0  0  0  0  0
  -20.0115   24.1419  -15.4506 C   0  0  0  0  0  0  0  0  0  0  0  0
  -16.4019   21.1634  -19.8103 C   0  0  0  0  0  0  0  0  0  0  0  0
  -21.2838   24.6620  -15.9960 C   0  0  0  0  0  0  0  0  0  0  0  0
  -17.2145   22.1433  -17.3310 C   0  0  0  0  0  0  0  0  0  0  0  0
  -16.5021   22.9268  -18.1938 C   0  0  0  0  0  0  0  0  0  0  0  0
  -16.0831   22.4558  -19.4446 C   0  0  0  0  0  0  0  0  0  0  0  0
  -17.1248   20.3336  -18.9598 C   0  0  0  0  0  0  0  0  0  0  0  0
  -17.7446   18.7638  -20.7329 C   0  0  0  0  0  0  0  0  0  0  0  0
  -17.6312   22.6561  -16.0792 N   0  0  0  0  0  0  0  0  0  0  0  0
  -17.4404   18.9887  -19.3623 N   0  0  0  0  0  0  0  0  0  0  0  0
  -18.1134   21.7256  -15.0794 C   0  0  0  0  0  0  0  0  0  0  0  0
  -17.9416   20.2848  -15.4643 C   0  0  1  0  0  0  0  0  0  0  0  0
  -18.3699   17.2611  -22.6035 C   0  0  0  0  0  0  0  0  0  0  0  0
  -18.8200   16.0575  -23.0912 C   0  0  0  0  0  0  0  0  0  0  0  0
  -19.1414   15.0032  -22.2622 C   0  0  0  0  0  0  0  0  0  0  0  0
  -20.5292   13.7040  -23.8267 C   0  0  0  0  0  0  0  0  0  0  0  0
  -20.8641   12.2246  -24.0081 C   0  0  0  0  0  0  0  0  0  0  0  0
  -18.9062   19.4794  -14.6935 C   0  0  0  0  0  0  0  0  0  0  0  0
  -22.1963   11.8931  -23.3772 C   0  0  0  0  0  0  0  0  0  0  0  0
  -22.8651   13.2259  -23.0763 C   0  0  0  0  0  0  0  0  0  0  0  0
  -23.8197   13.1447  -21.9448 C   0  0  0  0  0  0  0  0  0  0  0  0
  -23.7070   14.0533  -20.8928 C   0  0  0  0  0  0  0  0  0  0  0  0
  -24.5763   14.0258  -19.8106 C   0  0  0  0  0  0  0  0  0  0  0  0
  -25.5525   13.0607  -19.8245 C   0  0  0  0  0  0  0  0  0  0  0  0
  -25.6655   12.1532  -20.8752 C   0  0  0  0  0  0  0  0  0  0  0  0
  -24.7976   12.1876  -21.9466 C   0  0  0  0  0  0  0  0  0  0  0  0
  -18.9919   15.2030  -20.9038 C   0  0  0  0  0  0  0  0  0  0  0  0
  -18.5326   16.4298  -20.4068 C   0  0  0  0  0  0  0  0  0  0  0  0
  -17.5041   20.8526  -17.7529 C   0  0  0  0  0  0  0  0  0  0  0  0
  -24.4978   14.8919  -18.7735 F   0  0  0  0  0  0  0  0  0  0  0  0
  -19.6910   18.7091  -15.2728 O   0  0  0  0  0  0  0  0  0  0  0  0
  -18.9403   19.5808  -13.3199 O   0  0  0  0  0  0  0  0  0  0  0  0
  -22.4046   24.1501  -15.6661 O   0  0  0  0  0  0  0  0  0  0  0  0
  -21.2620   25.7349  -16.8928 O   0  0  0  0  0  0  0  0  0  0  0  0
  -17.6098   19.7019  -21.5578 O   0  0  0  0  0  0  0  0  0  0  0  0
  -19.5925   13.8056  -22.7881 O   0  0  0  0  0  0  0  0  0  0  0  0
  -18.2261   20.0696  -16.8603 O   0  0  0  0  0  0  0  0  0  0  0  0
  -24.9954   11.0128  -23.2404 Cl  0  0  0  0  0  0  0  0  0  0  0  0
  1  3  1  0
 12  1  1  0
  2 11  1  0
 16  2  2  0
  2 31  1  0
  3  4  1  0
  4  6  1  0
  5  9  2  0
 10  5  1  0
  6 36  2  0
  6 37  1  0
  7  8  2  0
  7 12  1  0
 32  7  1  0
  9  8  1  0
 13 10  1  0
 10 32  2  0
 11 13  1  0
 11 38  2  0
 12 14  1  0
 14 15  1  0
 15 21  1  1
 15 40  1  0
 17 16  1  0
 18 17  2  0
 18 30  1  0
 39 18  1  0
 19 20  1  0
 19 39  1  0
 20 22  1  0
 21 34  2  0
 21 35  1  0
 22 23  1  0
 23 24  1  0
 24 25  2  0
 24 29  1  0
 25 26  1  0
 26 27  2  0
 26 33  1  0
 27 28  1  0
 28 29  2  0
 29 41  1  0
 30 31  2  0
 32 40  1  0
M  END
$$$$
