
     RDKit          3D

 41 44  0  0  0  0  0  0  0  0999 V2000
  -13.5558   21.5885  -19.3106 C   0  0  0  0  0  0  0  0  0  0  0  0
  -19.2711   15.6236  -21.5971 C   0  0  0  0  0  0  0  0  0  0  0  0
  -13.4942   21.8241  -17.8152 C   0  0  0  0  0  0  0  0  0  0  0  0
  -14.5775   22.8223  -17.4508 C   0  0  0  0  0  0  0  0  0  0  0  0
  -15.1598   17.0165  -20.8409 C   0  0  0  0  0  0  0  0  0  0  0  0
  -14.7605   22.7968  -15.9836 C   0  0  0  0  0  0  0  0  0  0  0  0
  -14.9512   19.6773  -20.0382 C   0  0  0  0  0  0  0  0  0  0  0  0
  -13.9136   18.8079  -19.8556 C   0  0  0  0  0  0  0  0  0  0  0  0
  -13.9958   17.4667  -20.2509 C   0  0  0  0  0  0  0  0  0  0  0  0
  -16.2392   17.8699  -21.0435 C   0  0  0  0  0  0  0  0  0  0  0  0
  -17.9826   16.1558  -21.1630 C   0  0  0  0  0  0  0  0  0  0  0  0
  -14.8290   21.0290  -19.6364 N   0  0  0  0  0  0  0  0  0  0  0  0
  -17.4433   17.3753  -21.6564 N   0  0  0  0  0  0  0  0  0  0  0  0
  -16.0282   21.8383  -19.5668 C   0  0  0  0  0  0  0  0  0  0  0  0
  -17.2941   21.0591  -19.7769 C   0  0  1  0  0  0  0  0  0  0  0  0
  -19.8449   14.5309  -20.9631 C   0  0  0  0  0  0  0  0  0  0  0  0
  -21.0531   14.0176  -21.3706 C   0  0  0  0  0  0  0  0  0  0  0  0
  -21.7604   14.5542  -22.4259 C   0  0  0  0  0  0  0  0  0  0  0  0
  -23.6144   12.9601  -22.1375 C   0  0  0  0  0  0  0  0  0  0  0  0
  -25.0753   12.9445  -22.5840 C   0  0  0  0  0  0  0  0  0  0  0  0
  -18.3459   21.9918  -20.2210 C   0  0  0  0  0  0  0  0  0  0  0  0
  -25.7997   11.7476  -22.0137 C   0  0  0  0  0  0  0  0  0  0  0  0
  -24.9015   10.5472  -22.2719 C   0  0  0  0  0  0  0  0  0  0  0  0
  -25.4197    9.3017  -21.6567 C   0  0  0  0  0  0  0  0  0  0  0  0
  -26.5441    8.6874  -22.2073 C   0  0  0  0  0  0  0  0  0  0  0  0
  -27.0690    7.5177  -21.6746 C   0  0  0  0  0  0  0  0  0  0  0  0
  -26.4290    6.9942  -20.5789 C   0  0  0  0  0  0  0  0  0  0  0  0
  -25.3057    7.6073  -20.0287 C   0  0  0  0  0  0  0  0  0  0  0  0
  -24.7907    8.7694  -20.5643 C   0  0  0  0  0  0  0  0  0  0  0  0
  -21.2032   15.6426  -23.0679 C   0  0  0  0  0  0  0  0  0  0  0  0
  -19.9720   16.1661  -22.6521 C   0  0  0  0  0  0  0  0  0  0  0  0
  -16.0962   19.1671  -20.6353 C   0  0  0  0  0  0  0  0  0  0  0  0
  -28.1570    6.8936  -22.1832 F   0  0  0  0  0  0  0  0  0  0  0  0
  -18.3969   23.1481  -19.7682 O   0  0  0  0  0  0  0  0  0  0  0  0
  -19.2815   21.5797  -21.1447 O   0  0  0  0  0  0  0  0  0  0  0  0
  -15.8881   22.5088  -15.4614 O   0  0  0  0  0  0  0  0  0  0  0  0
  -13.6790   23.0955  -15.1487 O   0  0  0  0  0  0  0  0  0  0  0  0
  -17.3352   15.4920  -20.3150 O   0  0  0  0  0  0  0  0  0  0  0  0
  -22.9738   14.0110  -22.8095 O   0  0  0  0  0  0  0  0  0  0  0  0
  -17.1421   20.0655  -20.8092 O   0  0  0  0  0  0  0  0  0  0  0  0
  -23.3699    9.4924  -19.8214 Cl  0  0  0  0  0  0  0  0  0  0  0  0
  1  3  1  0
 12  1  1  0
  2 11  1  0
 16  2  2  0
  2 31  1  0
  3  4  1  0
  4  6  1  0
  5  9  2  0
 10  5  1  0
  6 36  2  0
  6 37  1  0
  7  8  2  0
  7 12  1  0
 32  7  1  0
  9  8  1  0
 13 10  1  0
 10 32  2  0
 11 13  1  0
 11 38  2  0
 12 14  1  0
 14 15  1  0
 15 21  1  6
 15 40  1  0
 17 16  1  0
 18 17  2  0
 18 30  1  0
 39 18  1  0
 19 20  1  0
 19 39  1  0
 20 22  1  0
 21 34  2  0
 21 35  1  0
 22 23  1  0
 23 24  1  0
 24 25  2  0
 24 29  1  0
 25 26  1  0
 26 27  2  0
 26 33  1  0
 27 28  1  0
 28 29  2  0
 29 41  1  0
 30 31  2  0
 32 40  1  0
M  END
$$$$
