
     RDKit          3D

 41 44  0  0  0  0  0  0  0  0999 V2000
  -15.5274   24.0300  -17.2400 C   0  0  0  0  0  0  0  0  0  0  0  0
  -18.4850   17.2050  -21.4411 C   0  0  0  0  0  0  0  0  0  0  0  0
  -16.5238   25.0064  -16.6803 C   0  0  0  0  0  0  0  0  0  0  0  0
  -17.1618   25.7517  -17.8306 C   0  0  0  0  0  0  0  0  0  0  0  0
  -16.2414   20.8155  -21.0248 C   0  0  0  0  0  0  0  0  0  0  0  0
  -16.1715   26.0403  -18.8941 C   0  0  0  0  0  0  0  0  0  0  0  0
  -16.1159   22.0483  -18.5867 C   0  0  0  0  0  0  0  0  0  0  0  0
  -15.3055   22.4565  -19.6351 C   0  0  0  0  0  0  0  0  0  0  0  0
  -15.3507   21.8511  -20.8724 C   0  0  0  0  0  0  0  0  0  0  0  0
  -17.0615   20.3876  -19.9962 C   0  0  0  0  0  0  0  0  0  0  0  0
  -17.6603   18.3625  -21.2303 C   0  0  0  0  0  0  0  0  0  0  0  0
  -16.0433   22.6908  -17.3224 N   0  0  0  0  0  0  0  0  0  0  0  0
  -17.9558   19.3064  -20.2261 N   0  0  0  0  0  0  0  0  0  0  0  0
  -16.4978   21.9459  -16.1669 C   0  0  0  0  0  0  0  0  0  0  0  0
  -17.8700   21.3738  -16.5333 C   0  0  1  0  0  0  0  0  0  0  0  0
  -19.3288   16.7540  -20.4336 C   0  0  0  0  0  0  0  0  0  0  0  0
  -20.1102   15.6642  -20.6356 C   0  0  0  0  0  0  0  0  0  0  0  0
  -20.1328   14.9265  -21.8340 C   0  0  0  0  0  0  0  0  0  0  0  0
  -21.1112   12.9766  -22.9606 C   0  0  0  0  0  0  0  0  0  0  0  0
  -21.6581   11.6393  -22.5972 C   0  0  0  0  0  0  0  0  0  0  0  0
  -18.8852   22.4215  -16.6410 C   0  0  0  0  0  0  0  0  0  0  0  0
  -22.3733   11.6242  -21.3062 C   0  0  0  0  0  0  0  0  0  0  0  0
  -23.1745   10.4633  -20.8872 C   0  0  0  0  0  0  0  0  0  0  0  0
  -23.8147   10.4475  -19.5795 C   0  0  0  0  0  0  0  0  0  0  0  0
  -23.0552   10.6658  -18.4250 C   0  0  0  0  0  0  0  0  0  0  0  0
  -23.5839   10.6054  -17.1620 C   0  0  0  0  0  0  0  0  0  0  0  0
  -24.9250   10.3145  -17.0626 C   0  0  0  0  0  0  0  0  0  0  0  0
  -25.7114   10.0924  -18.1697 C   0  0  0  0  0  0  0  0  0  0  0  0
  -25.1430   10.1622  -19.4182 C   0  0  0  0  0  0  0  0  0  0  0  0
  -19.2953   15.3934  -22.8048 C   0  0  0  0  0  0  0  0  0  0  0  0
  -18.4779   16.5185  -22.6167 C   0  0  0  0  0  0  0  0  0  0  0  0
  -17.0145   20.9899  -18.7710 C   0  0  0  0  0  0  0  0  0  0  0  0
  -22.8194   10.8235  -16.0483 F   0  0  0  0  0  0  0  0  0  0  0  0
  -18.9517   23.3314  -15.7886 O   0  0  0  0  0  0  0  0  0  0  0  0
  -19.7822   22.4154  -17.6884 O   0  0  0  0  0  0  0  0  0  0  0  0
  -14.9448   25.7897  -18.7933 O   0  0  0  0  0  0  0  0  0  0  0  0
  -16.6196   26.6206  -20.0712 O   0  0  0  0  0  0  0  0  0  0  0  0
  -16.6357   18.5158  -21.9886 O   0  0  0  0  0  0  0  0  0  0  0  0
  -20.9504   13.8696  -21.9162 O   0  0  0  0  0  0  0  0  0  0  0  0
  -17.8038   20.6139  -17.7023 O   0  0  0  0  0  0  0  0  0  0  0  0
  -26.1837    9.8716  -20.8085 Cl  0  0  0  0  0  0  0  0  0  0  0  0
  3  1  1  1
  1 12  1  6
  2 11  1  0
 16  2  2  0
  2 31  1  0
  3  4  1  0
  4  6  1  6
  5  9  2  0
 10  5  1  0
  6 36  2  0
  6 37  1  0
  7  8  2  0
  7 12  1  0
 32  7  1  0
  9  8  1  0
 13 10  1  0
 10 32  2  0
 11 13  1  0
 11 38  2  0
 14 12  1  1
 14 15  1  0
 15 21  1  6
 15 40  1  0
 17 16  1  0
 18 17  2  0
 18 30  1  0
 39 18  1  0
 20 19  1  1
 19 39  1  6
 20 22  1  0
 21 34  2  0
 21 35  1  0
 22 23  1  6
 23 24  1  6
 24 25  2  0
 24 29  1  0
 25 26  1  0
 26 27  2  0
 26 33  1  0
 27 28  1  0
 28 29  2  0
 29 41  1  0
 30 31  2  0
 32 40  1  0
M  END
$$$$
