
     RDKit          3D

 41 44  0  0  0  0  0  0  0  0999 V2000
  -25.8879   11.0809  -19.8549 C   0  0  0  0  0  0  0  0  0  0  0  0
  -18.5746   14.5315  -22.9838 C   0  0  0  0  0  0  0  0  0  0  0  0
  -27.1392   11.9321  -19.7837 C   0  0  0  0  0  0  0  0  0  0  0  0
  -27.2388   12.7313  -21.0700 C   0  0  0  0  0  0  0  0  0  0  0  0
  -22.1497   12.1658  -23.1211 C   0  0  0  0  0  0  0  0  0  0  0  0
  -28.4911   13.5170  -21.0348 C   0  0  0  0  0  0  0  0  0  0  0  0
  -23.8684   12.0254  -20.9315 C   0  0  0  0  0  0  0  0  0  0  0  0
  -24.2379   11.5184  -22.1448 C   0  0  0  0  0  0  0  0  0  0  0  0
  -23.3910   11.5777  -23.2589 C   0  0  0  0  0  0  0  0  0  0  0  0
  -21.7365   12.6947  -21.9029 C   0  0  0  0  0  0  0  0  0  0  0  0
  -19.8115   13.7557  -22.9800 C   0  0  0  0  0  0  0  0  0  0  0  0
  -24.7457   11.9382  -19.8242 N   0  0  0  0  0  0  0  0  0  0  0  0
  -20.4396   13.3067  -21.7861 N   0  0  0  0  0  0  0  0  0  0  0  0
  -24.4565   12.7372  -18.6512 C   0  0  0  0  0  0  0  0  0  0  0  0
  -23.3228   13.7023  -18.8440 C   0  0  1  0  0  0  0  0  0  0  0  0
  -17.9253   14.8386  -24.1709 C   0  0  0  0  0  0  0  0  0  0  0  0
  -16.7558   15.5607  -24.1834 C   0  0  0  0  0  0  0  0  0  0  0  0
  -16.1633   16.0187  -23.0254 C   0  0  0  0  0  0  0  0  0  0  0  0
  -14.2512   17.1322  -21.9459 C   0  0  0  0  0  0  0  0  0  0  0  0
  -13.0029   17.8661  -22.4327 C   0  0  0  0  0  0  0  0  0  0  0  0
  -22.7723   14.0434  -17.5197 C   0  0  0  0  0  0  0  0  0  0  0  0
  -12.0981   16.9350  -23.2053 C   0  0  0  0  0  0  0  0  0  0  0  0
  -11.3108   17.8120  -24.1671 C   0  0  0  0  0  0  0  0  0  0  0  0
   -9.8445   17.6880  -23.9852 C   0  0  0  0  0  0  0  0  0  0  0  0
   -9.1525   18.7028  -23.3247 C   0  0  0  0  0  0  0  0  0  0  0  0
   -7.7805   18.6364  -23.1227 C   0  0  0  0  0  0  0  0  0  0  0  0
   -7.1365   17.5241  -23.6047 C   0  0  0  0  0  0  0  0  0  0  0  0
   -7.8274   16.5101  -24.2642 C   0  0  0  0  0  0  0  0  0  0  0  0
   -9.1906   16.5842  -24.4606 C   0  0  0  0  0  0  0  0  0  0  0  0
  -16.7970   15.7218  -21.8346 C   0  0  0  0  0  0  0  0  0  0  0  0
  -17.9893   14.9862  -21.8221 C   0  0  0  0  0  0  0  0  0  0  0  0
  -22.6094   12.6058  -20.8540 C   0  0  0  0  0  0  0  0  0  0  0  0
   -7.0768   19.6010  -22.4854 F   0  0  0  0  0  0  0  0  0  0  0  0
  -23.2191   13.5053  -16.4923 O   0  0  0  0  0  0  0  0  0  0  0  0
  -21.7548   14.9668  -17.4179 O   0  0  0  0  0  0  0  0  0  0  0  0
  -29.6247   12.9507  -20.8882 O   0  0  0  0  0  0  0  0  0  0  0  0
  -28.4360   14.9082  -21.1664 O   0  0  0  0  0  0  0  0  0  0  0  0
  -20.3292   13.4813  -24.0916 O   0  0  0  0  0  0  0  0  0  0  0  0
  -14.9851   16.7422  -23.0754 O   0  0  0  0  0  0  0  0  0  0  0  0
  -22.2528   13.1192  -19.6129 O   0  0  0  0  0  0  0  0  0  0  0  0
  -10.0021   15.2695  -25.3012 Cl  0  0  0  0  0  0  0  0  0  0  0  0
  1  3  1  0
 12  1  1  0
  2 11  1  0
 16  2  2  0
  2 31  1  0
  3  4  1  0
  4  6  1  0
  5  9  2  0
 10  5  1  0
  6 36  2  0
  6 37  1  0
  7  8  2  0
  7 12  1  0
 32  7  1  0
  9  8  1  0
 13 10  1  0
 10 32  2  0
 11 13  1  0
 11 38  2  0
 12 14  1  0
 14 15  1  0
 15 21  1  1
 15 40  1  0
 17 16  1  0
 18 17  2  0
 18 30  1  0
 39 18  1  0
 19 20  1  0
 19 39  1  0
 20 22  1  0
 21 34  2  0
 21 35  1  0
 22 23  1  0
 23 24  1  0
 24 25  2  0
 24 29  1  0
 25 26  1  0
 26 27  2  0
 26 33  1  0
 27 28  1  0
 28 29  2  0
 29 41  1  0
 30 31  2  0
 32 40  1  0
M  END
$$$$
