
     RDKit          3D

 41 44  0  0  0  0  0  0  0  0999 V2000
  -26.6188   12.3834  -22.0072 C   0  0  0  0  0  0  0  0  0  0  0  0
  -18.3048   13.9836  -22.5394 C   0  0  0  0  0  0  0  0  0  0  0  0
  -27.2961   11.8241  -20.7875 C   0  0  0  0  0  0  0  0  0  0  0  0
  -27.7952   12.9768  -19.9460 C   0  0  0  0  0  0  0  0  0  0  0  0
  -21.9965   12.2342  -23.9515 C   0  0  0  0  0  0  0  0  0  0  0  0
  -29.2042   12.7686  -19.5380 C   0  0  0  0  0  0  0  0  0  0  0  0
  -24.2272   12.7795  -22.4660 C   0  0  0  0  0  0  0  0  0  0  0  0
  -24.3326   12.2531  -23.7444 C   0  0  0  0  0  0  0  0  0  0  0  0
  -23.2234   11.9700  -24.5119 C   0  0  0  0  0  0  0  0  0  0  0  0
  -21.8622   12.7593  -22.6787 C   0  0  0  0  0  0  0  0  0  0  0  0
  -19.5451   13.4557  -23.0368 C   0  0  0  0  0  0  0  0  0  0  0  0
  -25.3897   13.0632  -21.7014 N   0  0  0  0  0  0  0  0  0  0  0  0
  -20.5601   13.0109  -22.1660 N   0  0  0  0  0  0  0  0  0  0  0  0
  -25.2698   14.0413  -20.6404 C   0  0  0  0  0  0  0  0  0  0  0  0
  -24.0314   13.6502  -19.8293 C   0  0  1  0  0  0  0  0  0  0  0  0
  -17.3421   14.4581  -23.4217 C   0  0  0  0  0  0  0  0  0  0  0  0
  -16.1739   14.9605  -22.9507 C   0  0  0  0  0  0  0  0  0  0  0  0
  -15.8494   15.0414  -21.5835 C   0  0  0  0  0  0  0  0  0  0  0  0
  -14.3993   16.7150  -20.5231 C   0  0  0  0  0  0  0  0  0  0  0  0
  -13.0460   16.8027  -19.9062 C   0  0  0  0  0  0  0  0  0  0  0  0
  -24.2403   12.4107  -19.0811 C   0  0  0  0  0  0  0  0  0  0  0  0
  -11.9461   16.5381  -20.8542 C   0  0  0  0  0  0  0  0  0  0  0  0
  -10.5663   16.9586  -20.5641 C   0  0  0  0  0  0  0  0  0  0  0  0
   -9.4948   16.6566  -21.5029 C   0  0  0  0  0  0  0  0  0  0  0  0
   -9.1046   17.6089  -22.4505 C   0  0  0  0  0  0  0  0  0  0  0  0
   -8.1458   17.3673  -23.3996 C   0  0  0  0  0  0  0  0  0  0  0  0
   -7.5620   16.1214  -23.3904 C   0  0  0  0  0  0  0  0  0  0  0  0
   -7.9135   15.1533  -22.4778 C   0  0  0  0  0  0  0  0  0  0  0  0
   -8.8791   15.4354  -21.5427 C   0  0  0  0  0  0  0  0  0  0  0  0
  -16.8139   14.5693  -20.7416 C   0  0  0  0  0  0  0  0  0  0  0  0
  -18.0292   14.0448  -21.2076 C   0  0  0  0  0  0  0  0  0  0  0  0
  -22.9636   13.0386  -21.9203 C   0  0  0  0  0  0  0  0  0  0  0  0
   -7.7816   18.3162  -24.3156 F   0  0  0  0  0  0  0  0  0  0  0  0
  -23.7300   11.3399  -19.4709 O   0  0  0  0  0  0  0  0  0  0  0  0
  -25.0052   12.4116  -17.9337 O   0  0  0  0  0  0  0  0  0  0  0  0
  -30.1889   13.2322  -20.1651 O   0  0  0  0  0  0  0  0  0  0  0  0
  -29.4560   12.0193  -18.3987 O   0  0  0  0  0  0  0  0  0  0  0  0
  -19.7063   13.3998  -24.3093 O   0  0  0  0  0  0  0  0  0  0  0  0
  -14.6648   15.5616  -21.2396 O   0  0  0  0  0  0  0  0  0  0  0  0
  -22.9016   13.5627  -20.6444 O   0  0  0  0  0  0  0  0  0  0  0  0
   -9.2998   14.1697  -20.3932 Cl  0  0  0  0  0  0  0  0  0  0  0  0
  3  1  1  1
  1 12  1  6
  2 11  1  0
 16  2  2  0
  2 31  1  0
  3  4  1  0
  4  6  1  6
  5  9  2  0
 10  5  1  0
  6 36  2  0
  6 37  1  0
  7  8  2  0
  7 12  1  0
 32  7  1  0
  9  8  1  0
 13 10  1  0
 10 32  2  0
 11 13  1  0
 11 38  2  0
 14 12  1  1
 14 15  1  0
 15 21  1  6
 15 40  1  0
 17 16  1  0
 18 17  2  0
 18 30  1  0
 39 18  1  0
 20 19  1  1
 19 39  1  6
 20 22  1  0
 21 34  2  0
 21 35  1  0
 22 23  1  6
 23 24  1  6
 24 25  2  0
 24 29  1  0
 25 26  1  0
 26 27  2  0
 26 33  1  0
 27 28  1  0
 28 29  2  0
 29 41  1  0
 30 31  2  0
 32 40  1  0
M  END
$$$$
