
     RDKit          3D

 41 44  0  0  0  0  0  0  0  0999 V2000
  -17.4277   25.1088  -16.8358 C   0  0  0  0  0  0  0  0  0  0  0  0
  -18.4844   17.4703  -20.5420 C   0  0  0  0  0  0  0  0  0  0  0  0
  -16.1035   25.7620  -17.1169 C   0  0  0  0  0  0  0  0  0  0  0  0
  -15.0375   25.0463  -16.3186 C   0  0  0  0  0  0  0  0  0  0  0  0
  -17.3668   21.5426  -20.3638 C   0  0  0  0  0  0  0  0  0  0  0  0
  -14.4616   25.9339  -15.2815 C   0  0  0  0  0  0  0  0  0  0  0  0
  -17.3566   22.9424  -18.0142 C   0  0  0  0  0  0  0  0  0  0  0  0
  -16.9786   23.5442  -19.2047 C   0  0  0  0  0  0  0  0  0  0  0  0
  -16.9757   22.8597  -20.4010 C   0  0  0  0  0  0  0  0  0  0  0  0
  -17.7488   20.9172  -19.1905 C   0  0  0  0  0  0  0  0  0  0  0  0
  -18.1462   18.8643  -20.4594 C   0  0  0  0  0  0  0  0  0  0  0  0
  -17.3459   23.6742  -16.7973 N   0  0  0  0  0  0  0  0  0  0  0  0
  -18.1372   19.5499  -19.2280 N   0  0  0  0  0  0  0  0  0  0  0  0
  -17.2479   22.9205  -15.5648 C   0  0  0  0  0  0  0  0  0  0  0  0
  -18.2981   21.8097  -15.6522 C   0  0  1  0  0  0  0  0  0  0  0  0
  -18.3412   16.7853  -21.7423 C   0  0  0  0  0  0  0  0  0  0  0  0
  -18.6563   15.4685  -21.8176 C   0  0  0  0  0  0  0  0  0  0  0  0
  -19.1357   14.7132  -20.7310 C   0  0  0  0  0  0  0  0  0  0  0  0
  -19.6042   12.7431  -22.1193 C   0  0  0  0  0  0  0  0  0  0  0  0
  -20.7195   13.2384  -22.9740 C   0  0  0  0  0  0  0  0  0  0  0  0
  -19.6592   22.3408  -15.5790 C   0  0  0  0  0  0  0  0  0  0  0  0
  -21.9980   13.3846  -22.2512 C   0  0  0  0  0  0  0  0  0  0  0  0
  -23.2735   12.9737  -22.8589 C   0  0  0  0  0  0  0  0  0  0  0  0
  -24.3076   12.3519  -22.0438 C   0  0  0  0  0  0  0  0  0  0  0  0
  -25.2095   13.1478  -21.3294 C   0  0  0  0  0  0  0  0  0  0  0  0
  -26.1671   12.6276  -20.4982 C   0  0  0  0  0  0  0  0  0  0  0  0
  -26.2146   11.2571  -20.3855 C   0  0  0  0  0  0  0  0  0  0  0  0
  -25.3484   10.4344  -21.0685 C   0  0  0  0  0  0  0  0  0  0  0  0
  -24.4028   10.9955  -21.8917 C   0  0  0  0  0  0  0  0  0  0  0  0
  -19.2648   15.4120  -19.5661 C   0  0  0  0  0  0  0  0  0  0  0  0
  -18.9452   16.7748  -19.4662 C   0  0  0  0  0  0  0  0  0  0  0  0
  -17.7507   21.5985  -18.0064 C   0  0  0  0  0  0  0  0  0  0  0  0
  -27.0381   13.4279  -19.8106 F   0  0  0  0  0  0  0  0  0  0  0  0
  -20.5638   21.8713  -16.3002 O   0  0  0  0  0  0  0  0  0  0  0  0
  -19.9585   23.3689  -14.7099 O   0  0  0  0  0  0  0  0  0  0  0  0
  -13.8855   27.0213  -15.5337 O   0  0  0  0  0  0  0  0  0  0  0  0
  -14.5617   25.5465  -13.9538 O   0  0  0  0  0  0  0  0  0  0  0  0
  -17.8485   19.4753  -21.5486 O   0  0  0  0  0  0  0  0  0  0  0  0
  -19.4091   13.4174  -20.9271 O   0  0  0  0  0  0  0  0  0  0  0  0
  -18.1199   21.0363  -16.8004 O   0  0  0  0  0  0  0  0  0  0  0  0
  -23.3140    9.9082  -22.7476 Cl  0  0  0  0  0  0  0  0  0  0  0  0
  3  1  1  1
  1 12  1  6
  2 11  1  0
 16  2  2  0
  2 31  1  0
  3  4  1  0
  4  6  1  6
  5  9  2  0
 10  5  1  0
  6 36  2  0
  6 37  1  0
  7  8  2  0
  7 12  1  0
 32  7  1  0
  9  8  1  0
 13 10  1  0
 10 32  2  0
 11 13  1  0
 11 38  2  0
 14 12  1  1
 14 15  1  0
 15 21  1  6
 15 40  1  0
 17 16  1  0
 18 17  2  0
 18 30  1  0
 39 18  1  0
 20 19  1  1
 19 39  1  6
 20 22  1  0
 21 34  2  0
 21 35  1  0
 22 23  1  6
 23 24  1  6
 24 25  2  0
 24 29  1  0
 25 26  1  0
 26 27  2  0
 26 33  1  0
 27 28  1  0
 28 29  2  0
 29 41  1  0
 30 31  2  0
 32 40  1  0
M  END
$$$$
