
     RDKit          3D

 41 44  0  0  0  0  0  0  0  0999 V2000
  -26.4111   12.5602  -20.4083 C   0  0  0  0  0  0  0  0  0  0  0  0
  -18.3722   12.7332  -23.1764 C   0  0  0  0  0  0  0  0  0  0  0  0
  -27.3398   13.6710  -20.0044 C   0  0  0  0  0  0  0  0  0  0  0  0
  -27.2933   14.7445  -21.0680 C   0  0  0  0  0  0  0  0  0  0  0  0
  -22.6044   12.0388  -23.6340 C   0  0  0  0  0  0  0  0  0  0  0  0
  -26.5013   15.9115  -20.6139 C   0  0  0  0  0  0  0  0  0  0  0  0
  -24.1962   12.6382  -21.4923 C   0  0  0  0  0  0  0  0  0  0  0  0
  -24.7436   12.4026  -22.7441 C   0  0  0  0  0  0  0  0  0  0  0  0
  -23.9623   12.0988  -23.8381 C   0  0  0  0  0  0  0  0  0  0  0  0
  -22.0315   12.2694  -22.3962 C   0  0  0  0  0  0  0  0  0  0  0  0
  -19.7958   12.6108  -23.3274 C   0  0  0  0  0  0  0  0  0  0  0  0
  -25.0282   12.9521  -20.3852 N   0  0  0  0  0  0  0  0  0  0  0  0
  -20.6180   12.1942  -22.2612 N   0  0  0  0  0  0  0  0  0  0  0  0
  -24.4267   13.6649  -19.2776 C   0  0  0  0  0  0  0  0  0  0  0  0
  -23.1335   12.9200  -18.9349 C   0  0  1  0  0  0  0  0  0  0  0  0
  -17.6026   13.2652  -24.2036 C   0  0  0  0  0  0  0  0  0  0  0  0
  -16.2596   13.3846  -24.0579 C   0  0  0  0  0  0  0  0  0  0  0  0
  -15.5585   12.9959  -22.9009 C   0  0  0  0  0  0  0  0  0  0  0  0
  -13.3314   12.8101  -21.8843 C   0  0  0  0  0  0  0  0  0  0  0  0
  -12.1539   13.7077  -21.7190 C   0  0  0  0  0  0  0  0  0  0  0  0
  -23.4012   11.6081  -18.3457 C   0  0  0  0  0  0  0  0  0  0  0  0
  -12.3569   15.0581  -22.2791 C   0  0  0  0  0  0  0  0  0  0  0  0
  -11.4834   16.1819  -21.9064 C   0  0  0  0  0  0  0  0  0  0  0  0
  -10.9380   17.0588  -22.9330 C   0  0  0  0  0  0  0  0  0  0  0  0
  -11.5014   18.3213  -23.1475 C   0  0  0  0  0  0  0  0  0  0  0  0
  -11.0750   19.1701  -24.1355 C   0  0  0  0  0  0  0  0  0  0  0  0
  -10.0448   18.7281  -24.9332 C   0  0  0  0  0  0  0  0  0  0  0  0
   -9.4600   17.4946  -24.7597 C   0  0  0  0  0  0  0  0  0  0  0  0
   -9.9166   16.6735  -23.7578 C   0  0  0  0  0  0  0  0  0  0  0  0
  -16.3404   12.4786  -21.9095 C   0  0  0  0  0  0  0  0  0  0  0  0
  -17.7313   12.3454  -22.0396 C   0  0  0  0  0  0  0  0  0  0  0  0
  -22.8087   12.5701  -21.3137 C   0  0  0  0  0  0  0  0  0  0  0  0
  -11.6426   20.4007  -24.3244 F   0  0  0  0  0  0  0  0  0  0  0  0
  -24.5421   11.3202  -17.9281 O   0  0  0  0  0  0  0  0  0  0  0  0
  -22.3932   10.6724  -18.2450 O   0  0  0  0  0  0  0  0  0  0  0  0
  -26.8070   16.6205  -19.6232 O   0  0  0  0  0  0  0  0  0  0  0  0
  -25.3552   16.2444  -21.3200 O   0  0  0  0  0  0  0  0  0  0  0  0
  -20.3046   12.8945  -24.4715 O   0  0  0  0  0  0  0  0  0  0  0  0
  -14.2310   13.1668  -22.8729 O   0  0  0  0  0  0  0  0  0  0  0  0
  -22.3032   12.8111  -20.0516 O   0  0  0  0  0  0  0  0  0  0  0  0
   -9.1416   15.1037  -23.5691 Cl  0  0  0  0  0  0  0  0  0  0  0  0
  3  1  1  1
  1 12  1  6
  2 11  1  0
 16  2  2  0
  2 31  1  0
  3  4  1  0
  4  6  1  6
  5  9  2  0
 10  5  1  0
  6 36  2  0
  6 37  1  0
  7  8  2  0
  7 12  1  0
 32  7  1  0
  9  8  1  0
 13 10  1  0
 10 32  2  0
 11 13  1  0
 11 38  2  0
 14 12  1  1
 14 15  1  0
 15 21  1  6
 15 40  1  0
 17 16  1  0
 18 17  2  0
 18 30  1  0
 39 18  1  0
 20 19  1  1
 19 39  1  6
 20 22  1  0
 21 34  2  0
 21 35  1  0
 22 23  1  6
 23 24  1  6
 24 25  2  0
 24 29  1  0
 25 26  1  0
 26 27  2  0
 26 33  1  0
 27 28  1  0
 28 29  2  0
 29 41  1  0
 30 31  2  0
 32 40  1  0
M  END
$$$$
