
     RDKit          3D

 41 44  0  0  0  0  0  0  0  0999 V2000
  -12.4917  -12.8561  -11.5776 C   0  0  0  0  0  0  0  0  0  0  0  0
  -15.8797   -5.2177  -13.5991 C   0  0  0  0  0  0  0  0  0  0  0  0
  -11.8187  -13.2532  -10.2796 C   0  0  0  0  0  0  0  0  0  0  0  0
  -10.7234  -14.2523  -10.6037 C   0  0  0  0  0  0  0  0  0  0  0  0
  -15.7971   -8.9970  -11.5606 C   0  0  0  0  0  0  0  0  0  0  0  0
   -9.7465  -14.2495   -9.4936 C   0  0  0  0  0  0  0  0  0  0  0  0
  -13.5264  -10.6090  -11.6749 C   0  0  0  0  0  0  0  0  0  0  0  0
  -14.7053  -11.0945  -11.1848 C   0  0  0  0  0  0  0  0  0  0  0  0
  -15.8590  -10.3031  -11.1177 C   0  0  0  0  0  0  0  0  0  0  0  0
  -14.6154   -8.4648  -12.0654 C   0  0  0  0  0  0  0  0  0  0  0  0
  -15.8058   -6.4892  -12.8853 C   0  0  0  0  0  0  0  0  0  0  0  0
  -12.3830  -11.4409  -11.7382 N   0  0  0  0  0  0  0  0  0  0  0  0
  -14.5755   -7.0990  -12.5164 N   0  0  0  0  0  0  0  0  0  0  0  0
  -11.0942  -10.8239  -11.9753 C   0  0  0  0  0  0  0  0  0  0  0  0
  -11.1314   -9.3233  -11.9542 C   0  0  1  0  0  0  0  0  0  0  0  0
  -17.1029   -4.6448  -13.9170 C   0  0  0  0  0  0  0  0  0  0  0  0
  -17.1821   -3.4527  -14.5965 C   0  0  0  0  0  0  0  0  0  0  0  0
  -16.0590   -2.7612  -14.9996 C   0  0  0  0  0  0  0  0  0  0  0  0
  -17.1878   -1.2828  -16.6126 C   0  0  0  0  0  0  0  0  0  0  0  0
  -16.8671    0.0653  -17.2557 C   0  0  0  0  0  0  0  0  0  0  0  0
   -9.9721   -8.8187  -12.7123 C   0  0  0  0  0  0  0  0  0  0  0  0
  -15.6490   -0.0380  -18.1434 C   0  0  0  0  0  0  0  0  0  0  0  0
  -15.9762    0.7486  -19.4037 C   0  0  0  0  0  0  0  0  0  0  0  0
  -15.1255    1.9523  -19.5641 C   0  0  0  0  0  0  0  0  0  0  0  0
  -15.7163    3.2147  -19.5151 C   0  0  0  0  0  0  0  0  0  0  0  0
  -14.9671    4.3751  -19.6547 C   0  0  0  0  0  0  0  0  0  0  0  0
  -13.6163    4.2214  -19.8442 C   0  0  0  0  0  0  0  0  0  0  0  0
  -13.0258    2.9607  -19.8929 C   0  0  0  0  0  0  0  0  0  0  0  0
  -13.7776    1.8128  -19.7532 C   0  0  0  0  0  0  0  0  0  0  0  0
  -14.8332   -3.3177  -14.6909 C   0  0  0  0  0  0  0  0  0  0  0  0
  -14.7526   -4.5326  -13.9977 C   0  0  0  0  0  0  0  0  0  0  0  0
  -13.5247   -9.2885  -12.1041 C   0  0  0  0  0  0  0  0  0  0  0  0
  -15.5060    5.6160  -19.6112 F   0  0  0  0  0  0  0  0  0  0  0  0
   -9.9991   -7.6889  -13.2296 O   0  0  0  0  0  0  0  0  0  0  0  0
   -8.8490   -9.6049  -12.8503 O   0  0  0  0  0  0  0  0  0  0  0  0
   -8.5324  -14.5942   -9.6784 O   0  0  0  0  0  0  0  0  0  0  0  0
  -10.1583  -13.8638   -8.2139 O   0  0  0  0  0  0  0  0  0  0  0  0
  -16.8885   -7.0558  -12.5929 O   0  0  0  0  0  0  0  0  0  0  0  0
  -16.1763   -1.5639  -15.6829 O   0  0  0  0  0  0  0  0  0  0  0  0
  -12.3156   -8.8115  -12.5958 O   0  0  0  0  0  0  0  0  0  0  0  0
  -12.9696    0.2522  -19.8246 Cl  0  0  0  0  0  0  0  0  0  0  0  0
  1  3  1  0
 12  1  1  0
  2 11  1  0
 16  2  2  0
  2 31  1  0
  3  4  1  0
  4  6  1  0
  5  9  2  0
 10  5  1  0
  6 36  2  0
  6 37  1  0
  7  8  2  0
  7 12  1  0
 32  7  1  0
  9  8  1  0
 13 10  1  0
 10 32  2  0
 11 13  1  0
 11 38  2  0
 12 14  1  0
 14 15  1  0
 15 21  1  6
 15 40  1  0
 17 16  1  0
 18 17  2  0
 18 30  1  0
 39 18  1  0
 19 20  1  0
 19 39  1  0
 20 22  1  0
 21 34  2  0
 21 35  1  0
 22 23  1  0
 23 24  1  0
 24 25  2  0
 24 29  1  0
 25 26  1  0
 26 27  2  0
 26 33  1  0
 27 28  1  0
 28 29  2  0
 29 41  1  0
 30 31  2  0
 32 40  1  0
M  END
$$$$
