
     RDKit          3D

 41 44  0  0  0  0  0  0  0  0999 V2000
  -25.2035   11.5218  -22.2899 C   0  0  0  0  0  0  0  0  0  0  0  0
  -19.0624   17.2597  -21.4319 C   0  0  0  0  0  0  0  0  0  0  0  0
  -25.6722   11.4069  -23.7135 C   0  0  0  0  0  0  0  0  0  0  0  0
  -26.2255   12.7461  -24.1450 C   0  0  0  0  0  0  0  0  0  0  0  0
  -20.6004   13.4179  -22.9099 C   0  0  0  0  0  0  0  0  0  0  0  0
  -27.5553   12.5942  -24.7804 C   0  0  0  0  0  0  0  0  0  0  0  0
  -23.2367   13.0112  -22.3060 C   0  0  0  0  0  0  0  0  0  0  0  0
  -22.5981   12.2423  -23.2669 C   0  0  0  0  0  0  0  0  0  0  0  0
  -21.2709   12.4283  -23.5884 C   0  0  0  0  0  0  0  0  0  0  0  0
  -21.2125   14.1998  -21.9468 C   0  0  0  0  0  0  0  0  0  0  0  0
  -19.8340   16.2175  -22.0508 C   0  0  0  0  0  0  0  0  0  0  0  0
  -24.6066   12.7969  -21.9996 N   0  0  0  0  0  0  0  0  0  0  0  0
  -20.4565   15.2084  -21.2888 N   0  0  0  0  0  0  0  0  0  0  0  0
  -25.3385   13.8956  -21.4047 C   0  0  0  0  0  0  0  0  0  0  0  0
  -24.4804   14.4097  -20.2454 C   0  0  1  0  0  0  0  0  0  0  0  0
  -18.5998   18.3304  -22.1869 C   0  0  0  0  0  0  0  0  0  0  0  0
  -17.8757   19.3158  -21.6007 C   0  0  0  0  0  0  0  0  0  0  0  0
  -17.5441   19.3379  -20.2330 C   0  0  0  0  0  0  0  0  0  0  0  0
  -16.4000   21.5005  -20.4385 C   0  0  0  0  0  0  0  0  0  0  0  0
  -15.7911   22.5672  -19.5952 C   0  0  0  0  0  0  0  0  0  0  0  0
  -24.4219   13.4487  -19.1440 C   0  0  0  0  0  0  0  0  0  0  0  0
  -15.6956   22.2089  -18.1666 C   0  0  0  0  0  0  0  0  0  0  0  0
  -15.1539   23.1509  -17.1746 C   0  0  0  0  0  0  0  0  0  0  0  0
  -14.3398   22.6646  -16.0696 C   0  0  0  0  0  0  0  0  0  0  0  0
  -14.7390   21.5330  -15.3503 C   0  0  0  0  0  0  0  0  0  0  0  0
  -14.0511   21.0589  -14.2638 C   0  0  0  0  0  0  0  0  0  0  0  0
  -12.9220   21.7516  -13.8921 C   0  0  0  0  0  0  0  0  0  0  0  0
  -12.4910   22.8694  -14.5691 C   0  0  0  0  0  0  0  0  0  0  0  0
  -13.2089   23.3124  -15.6531 C   0  0  0  0  0  0  0  0  0  0  0  0
  -18.0126   18.2748  -19.5174 C   0  0  0  0  0  0  0  0  0  0  0  0
  -18.7630   17.2442  -20.1040 C   0  0  0  0  0  0  0  0  0  0  0  0
  -22.5283   14.0128  -21.6303 C   0  0  0  0  0  0  0  0  0  0  0  0
  -14.4624   19.9491  -13.5772 F   0  0  0  0  0  0  0  0  0  0  0  0
  -23.3234   13.0224  -18.7309 O   0  0  0  0  0  0  0  0  0  0  0  0
  -25.5827   13.0022  -18.5484 O   0  0  0  0  0  0  0  0  0  0  0  0
  -27.7601   12.7267  -26.0126 O   0  0  0  0  0  0  0  0  0  0  0  0
  -28.6400   12.2879  -23.9726 O   0  0  0  0  0  0  0  0  0  0  0  0
  -19.9431   16.2303  -23.3299 O   0  0  0  0  0  0  0  0  0  0  0  0
  -16.8264   20.3679  -19.7680 O   0  0  0  0  0  0  0  0  0  0  0  0
  -23.2003   14.7564  -20.6805 O   0  0  0  0  0  0  0  0  0  0  0  0
  -12.6239   24.7459  -16.4917 Cl  0  0  0  0  0  0  0  0  0  0  0  0
  3  1  1  1
  1 12  1  6
  2 11  1  0
 16  2  2  0
  2 31  1  0
  3  4  1  0
  4  6  1  6
  5  9  2  0
 10  5  1  0
  6 36  2  0
  6 37  1  0
  7  8  2  0
  7 12  1  0
 32  7  1  0
  9  8  1  0
 13 10  1  0
 10 32  2  0
 11 13  1  0
 11 38  2  0
 14 12  1  1
 14 15  1  0
 15 21  1  1
 15 40  1  0
 17 16  1  0
 18 17  2  0
 18 30  1  0
 39 18  1  0
 20 19  1  1
 19 39  1  6
 20 22  1  0
 21 34  2  0
 21 35  1  0
 22 23  1  6
 23 24  1  6
 24 25  2  0
 24 29  1  0
 25 26  1  0
 26 27  2  0
 26 33  1  0
 27 28  1  0
 28 29  2  0
 29 41  1  0
 30 31  2  0
 32 40  1  0
M  END
$$$$
