
     RDKit          3D

 41 44  0  0  0  0  0  0  0  0999 V2000
  -23.9748   12.0363  -21.9232 C   0  0  0  0  0  0  0  0  0  0  0  0
  -17.0260   16.6980  -20.4574 C   0  0  0  0  0  0  0  0  0  0  0  0
  -25.3935   12.1141  -22.4138 C   0  0  0  0  0  0  0  0  0  0  0  0
  -26.2150   12.8600  -21.3868 C   0  0  0  0  0  0  0  0  0  0  0  0
  -19.1130   13.2379  -21.6281 C   0  0  0  0  0  0  0  0  0  0  0  0
  -27.6134   12.3709  -21.3647 C   0  0  0  0  0  0  0  0  0  0  0  0
  -21.8254   13.2463  -21.9788 C   0  0  0  0  0  0  0  0  0  0  0  0
  -21.1028   12.0642  -22.0328 C   0  0  0  0  0  0  0  0  0  0  0  0
  -19.7358   12.0347  -21.8591 C   0  0  0  0  0  0  0  0  0  0  0  0
  -19.8091   14.4319  -21.5693 C   0  0  0  0  0  0  0  0  0  0  0  0
  -17.7160   15.5870  -21.0524 C   0  0  0  0  0  0  0  0  0  0  0  0
  -23.2332   13.2438  -22.1649 N   0  0  0  0  0  0  0  0  0  0  0  0
  -19.0967   15.6392  -21.3307 N   0  0  0  0  0  0  0  0  0  0  0  0
  -23.8523   14.4788  -22.5988 C   0  0  0  0  0  0  0  0  0  0  0  0
  -23.3150   15.5786  -21.6790 C   0  0  1  0  0  0  0  0  0  0  0  0
  -17.7336   17.8169  -20.0359 C   0  0  0  0  0  0  0  0  0  0  0  0
  -17.0817   18.8628  -19.4702 C   0  0  0  0  0  0  0  0  0  0  0  0
  -15.6891   18.9032  -19.2694 C   0  0  0  0  0  0  0  0  0  0  0  0
  -15.4209   20.5276  -17.4479 C   0  0  0  0  0  0  0  0  0  0  0  0
  -15.0407   21.9557  -17.2593 C   0  0  0  0  0  0  0  0  0  0  0  0
  -23.8242   15.4436  -20.3143 C   0  0  0  0  0  0  0  0  0  0  0  0
  -15.2486   22.7864  -18.4615 C   0  0  0  0  0  0  0  0  0  0  0  0
  -15.0834   24.2479  -18.4213 C   0  0  0  0  0  0  0  0  0  0  0  0
  -15.9204   25.0569  -17.5464 C   0  0  0  0  0  0  0  0  0  0  0  0
  -15.4658   25.4087  -16.2709 C   0  0  0  0  0  0  0  0  0  0  0  0
  -16.2265   26.1165  -15.3771 C   0  0  0  0  0  0  0  0  0  0  0  0
  -17.4886   26.4807  -15.7862 C   0  0  0  0  0  0  0  0  0  0  0  0
  -17.9783   26.1571  -17.0308 C   0  0  0  0  0  0  0  0  0  0  0  0
  -17.1840   25.4466  -17.8974 C   0  0  0  0  0  0  0  0  0  0  0  0
  -15.0215   17.7907  -19.6918 C   0  0  0  0  0  0  0  0  0  0  0  0
  -15.6761   16.6978  -20.2803 C   0  0  0  0  0  0  0  0  0  0  0  0
  -21.1641   14.4579  -21.7417 C   0  0  0  0  0  0  0  0  0  0  0  0
  -15.7583   26.4487  -14.1350 F   0  0  0  0  0  0  0  0  0  0  0  0
  -23.4064   14.5343  -19.5676 O   0  0  0  0  0  0  0  0  0  0  0  0
  -24.7740   16.3218  -19.8365 O   0  0  0  0  0  0  0  0  0  0  0  0
  -28.5473   12.9519  -20.7579 O   0  0  0  0  0  0  0  0  0  0  0  0
  -27.9140   11.2048  -22.0522 O   0  0  0  0  0  0  0  0  0  0  0  0
  -17.0343   14.5344  -21.3272 O   0  0  0  0  0  0  0  0  0  0  0  0
  -15.1595   19.9908  -18.6959 O   0  0  0  0  0  0  0  0  0  0  0  0
  -21.9197   15.6126  -21.6953 O   0  0  0  0  0  0  0  0  0  0  0  0
  -17.8479   25.0528  -19.4800 Cl  0  0  0  0  0  0  0  0  0  0  0  0
  3  1  1  1
  1 12  1  6
  2 11  1  0
 16  2  2  0
  2 31  1  0
  3  4  1  0
  4  6  1  6
  5  9  2  0
 10  5  1  0
  6 36  2  0
  6 37  1  0
  7  8  2  0
  7 12  1  0
 32  7  1  0
  9  8  1  0
 13 10  1  0
 10 32  2  0
 11 13  1  0
 11 38  2  0
 14 12  1  1
 14 15  1  0
 15 21  1  1
 15 40  1  0
 17 16  1  0
 18 17  2  0
 18 30  1  0
 39 18  1  0
 20 19  1  1
 19 39  1  6
 20 22  1  0
 21 34  2  0
 21 35  1  0
 22 23  1  6
 23 24  1  6
 24 25  2  0
 24 29  1  0
 25 26  1  0
 26 27  2  0
 26 33  1  0
 27 28  1  0
 28 29  2  0
 29 41  1  0
 30 31  2  0
 32 40  1  0
M  END
$$$$
