
     RDKit          3D

 41 44  0  0  0  0  0  0  0  0999 V2000
  -14.7022   23.5413  -17.7388 C   0  0  0  0  0  0  0  0  0  0  0  0
  -18.4467   16.6824  -21.2762 C   0  0  0  0  0  0  0  0  0  0  0  0
  -15.4352   24.8182  -18.0966 C   0  0  0  0  0  0  0  0  0  0  0  0
  -16.6122   24.9663  -17.1502 C   0  0  0  0  0  0  0  0  0  0  0  0
  -15.8692   19.9525  -21.1412 C   0  0  0  0  0  0  0  0  0  0  0  0
  -17.2356   26.2865  -17.3847 C   0  0  0  0  0  0  0  0  0  0  0  0
  -15.7130   21.6031  -18.9009 C   0  0  0  0  0  0  0  0  0  0  0  0
  -14.7347   21.6223  -19.8539 C   0  0  0  0  0  0  0  0  0  0  0  0
  -14.7919   20.8019  -20.9877 C   0  0  0  0  0  0  0  0  0  0  0  0
  -16.8855   19.9024  -20.1930 C   0  0  0  0  0  0  0  0  0  0  0  0
  -17.7178   17.6113  -20.4174 C   0  0  0  0  0  0  0  0  0  0  0  0
  -15.6279   22.4541  -17.7731 N   0  0  0  0  0  0  0  0  0  0  0  0
  -17.9956   19.0050  -20.3737 N   0  0  0  0  0  0  0  0  0  0  0  0
  -16.5076   22.2006  -16.6506 C   0  0  0  0  0  0  0  0  0  0  0  0
  -17.2952   20.9289  -16.7773 C   0  0  1  0  0  0  0  0  0  0  0  0
  -18.7775   15.4089  -20.8356 C   0  0  0  0  0  0  0  0  0  0  0  0
  -19.4556   14.5247  -21.6403 C   0  0  0  0  0  0  0  0  0  0  0  0
  -19.8438   14.8487  -22.9234 C   0  0  0  0  0  0  0  0  0  0  0  0
  -21.0114   12.7041  -23.2377 C   0  0  0  0  0  0  0  0  0  0  0  0
  -22.3117   12.4049  -23.9817 C   0  0  0  0  0  0  0  0  0  0  0  0
  -18.4910   21.0354  -15.9218 C   0  0  0  0  0  0  0  0  0  0  0  0
  -23.5076   12.8670  -23.1826 C   0  0  0  0  0  0  0  0  0  0  0  0
  -23.4553   12.1075  -21.8655 C   0  0  0  0  0  0  0  0  0  0  0  0
  -24.6689   12.3116  -21.0386 C   0  0  0  0  0  0  0  0  0  0  0  0
  -25.8332   11.6120  -21.3545 C   0  0  0  0  0  0  0  0  0  0  0  0
  -26.9966   11.7612  -20.6117 C   0  0  0  0  0  0  0  0  0  0  0  0
  -26.9471   12.6312  -19.5510 C   0  0  0  0  0  0  0  0  0  0  0  0
  -25.7842   13.3300  -19.2350 C   0  0  0  0  0  0  0  0  0  0  0  0
  -24.6326   13.1757  -19.9783 C   0  0  0  0  0  0  0  0  0  0  0  0
  -19.5223   16.1128  -23.3775 C   0  0  0  0  0  0  0  0  0  0  0  0
  -18.8316   17.0142  -22.5570 C   0  0  0  0  0  0  0  0  0  0  0  0
  -16.7707   20.7279  -19.1089 C   0  0  0  0  0  0  0  0  0  0  0  0
  -28.1437   11.0982  -20.8881 F   0  0  0  0  0  0  0  0  0  0  0  0
  -18.3773   21.2075  -14.6962 O   0  0  0  0  0  0  0  0  0  0  0  0
  -19.7457   20.9427  -16.4836 O   0  0  0  0  0  0  0  0  0  0  0  0
  -17.7518   26.5847  -18.5125 O   0  0  0  0  0  0  0  0  0  0  0  0
  -17.2601   27.2304  -16.3530 O   0  0  0  0  0  0  0  0  0  0  0  0
  -16.8068   17.1397  -19.6918 O   0  0  0  0  0  0  0  0  0  0  0  0
  -20.5245   13.9329  -23.7059 O   0  0  0  0  0  0  0  0  0  0  0  0
  -17.7541   20.7197  -18.1270 O   0  0  0  0  0  0  0  0  0  0  0  0
  -23.1987   14.0879  -19.5256 Cl  0  0  0  0  0  0  0  0  0  0  0  0
  1  3  1  0
 12  1  1  0
  2 11  1  0
 16  2  2  0
  2 31  1  0
  3  4  1  0
  4  6  1  0
  5  9  2  0
 10  5  1  0
  6 36  2  0
  6 37  1  0
  7  8  2  0
  7 12  1  0
 32  7  1  0
  9  8  1  0
 13 10  1  0
 10 32  2  0
 11 13  1  0
 11 38  2  0
 12 14  1  0
 14 15  1  0
 15 21  1  1
 15 40  1  0
 17 16  1  0
 18 17  2  0
 18 30  1  0
 39 18  1  0
 19 20  1  0
 19 39  1  0
 20 22  1  0
 21 34  2  0
 21 35  1  0
 22 23  1  0
 23 24  1  0
 24 25  2  0
 24 29  1  0
 25 26  1  0
 26 27  2  0
 26 33  1  0
 27 28  1  0
 28 29  2  0
 29 41  1  0
 30 31  2  0
 32 40  1  0
M  END
$$$$
