
     RDKit          3D

 41 44  0  0  0  0  0  0  0  0999 V2000
  -16.3086   25.8260  -15.9797 C   0  0  0  0  0  0  0  0  0  0  0  0
  -18.6833   18.9762  -20.1861 C   0  0  0  0  0  0  0  0  0  0  0  0
  -17.3396   26.8938  -16.2167 C   0  0  0  0  0  0  0  0  0  0  0  0
  -17.3548   27.2257  -17.6917 C   0  0  0  0  0  0  0  0  0  0  0  0
  -16.6768   22.9155  -20.0493 C   0  0  0  0  0  0  0  0  0  0  0  0
  -16.9215   28.6225  -17.9287 C   0  0  0  0  0  0  0  0  0  0  0  0
  -16.7721   23.9571  -17.5222 C   0  0  0  0  0  0  0  0  0  0  0  0
  -15.8709   24.4393  -18.4591 C   0  0  0  0  0  0  0  0  0  0  0  0
  -15.8042   23.9308  -19.7383 C   0  0  0  0  0  0  0  0  0  0  0  0
  -17.5859   22.4152  -19.1344 C   0  0  0  0  0  0  0  0  0  0  0  0
  -17.9130   20.1847  -20.0832 C   0  0  0  0  0  0  0  0  0  0  0  0
  -16.8140   24.5003  -16.2108 N   0  0  0  0  0  0  0  0  0  0  0  0
  -18.4552   21.3604  -19.5262 N   0  0  0  0  0  0  0  0  0  0  0  0
  -17.3702   23.6719  -15.1615 C   0  0  0  0  0  0  0  0  0  0  0  0
  -18.7035   23.1381  -15.6925 C   0  0  1  0  0  0  0  0  0  0  0  0
  -19.9853   18.9329  -19.7031 C   0  0  0  0  0  0  0  0  0  0  0  0
  -20.7129   17.7931  -19.8052 C   0  0  0  0  0  0  0  0  0  0  0  0
  -20.2315   16.6045  -20.3853 C   0  0  0  0  0  0  0  0  0  0  0  0
  -22.3506   15.4307  -19.9854 C   0  0  0  0  0  0  0  0  0  0  0  0
  -23.1931   14.4171  -20.6800 C   0  0  0  0  0  0  0  0  0  0  0  0
  -19.7055   24.1974  -15.8101 C   0  0  0  0  0  0  0  0  0  0  0  0
  -22.7484   13.0272  -20.4588 C   0  0  0  0  0  0  0  0  0  0  0  0
  -23.2400   11.9225  -21.2972 C   0  0  0  0  0  0  0  0  0  0  0  0
  -23.0076   10.5409  -20.9001 C   0  0  0  0  0  0  0  0  0  0  0  0
  -23.4035   10.1003  -19.6327 C   0  0  0  0  0  0  0  0  0  0  0  0
  -23.1613    8.8313  -19.1751 C   0  0  0  0  0  0  0  0  0  0  0  0
  -22.4969    7.9793  -20.0270 C   0  0  0  0  0  0  0  0  0  0  0  0
  -22.0884    8.3683  -21.2822 C   0  0  0  0  0  0  0  0  0  0  0  0
  -22.3505    9.6492  -21.7032 C   0  0  0  0  0  0  0  0  0  0  0  0
  -18.9512   16.6775  -20.8513 C   0  0  0  0  0  0  0  0  0  0  0  0
  -18.1805   17.8463  -20.7554 C   0  0  0  0  0  0  0  0  0  0  0  0
  -17.6497   22.9215  -17.8672 C   0  0  0  0  0  0  0  0  0  0  0  0
  -23.5595    8.4245  -17.9308 F   0  0  0  0  0  0  0  0  0  0  0  0
  -20.3917   24.3101  -16.8471 O   0  0  0  0  0  0  0  0  0  0  0  0
  -19.9036   25.0853  -14.7738 O   0  0  0  0  0  0  0  0  0  0  0  0
  -16.2466   28.9854  -18.9240 O   0  0  0  0  0  0  0  0  0  0  0  0
  -17.2793   29.5893  -17.0012 O   0  0  0  0  0  0  0  0  0  0  0  0
  -16.7045   20.1650  -20.5163 O   0  0  0  0  0  0  0  0  0  0  0  0
  -21.0462   15.5432  -20.4325 O   0  0  0  0  0  0  0  0  0  0  0  0
  -18.5318   22.4697  -16.9058 O   0  0  0  0  0  0  0  0  0  0  0  0
  -21.8112   10.1071  -23.3157 Cl  0  0  0  0  0  0  0  0  0  0  0  0
  3  1  1  1
  1 12  1  6
  2 11  1  0
 16  2  2  0
  2 31  1  0
  3  4  1  0
  4  6  1  6
  5  9  2  0
 10  5  1  0
  6 36  2  0
  6 37  1  0
  7  8  2  0
  7 12  1  0
 32  7  1  0
  9  8  1  0
 13 10  1  0
 10 32  2  0
 11 13  1  0
 11 38  2  0
 14 12  1  1
 14 15  1  0
 15 21  1  6
 15 40  1  0
 17 16  1  0
 18 17  2  0
 18 30  1  0
 39 18  1  0
 20 19  1  1
 19 39  1  6
 20 22  1  0
 21 34  2  0
 21 35  1  0
 22 23  1  6
 23 24  1  6
 24 25  2  0
 24 29  1  0
 25 26  1  0
 26 27  2  0
 26 33  1  0
 27 28  1  0
 28 29  2  0
 29 41  1  0
 30 31  2  0
 32 40  1  0
M  END
$$$$
