
     RDKit          3D

 41 44  0  0  0  0  0  0  0  0999 V2000
  -25.8950   12.4817  -18.6757 C   0  0  0  0  0  0  0  0  0  0  0  0
  -18.2032   16.0650  -19.7064 C   0  0  0  0  0  0  0  0  0  0  0  0
  -26.1106   11.0863  -19.2253 C   0  0  0  0  0  0  0  0  0  0  0  0
  -24.8179   10.3093  -19.0575 C   0  0  0  0  0  0  0  0  0  0  0  0
  -21.4250   14.5006  -17.3489 C   0  0  0  0  0  0  0  0  0  0  0  0
  -25.1088    8.8727  -19.2532 C   0  0  0  0  0  0  0  0  0  0  0  0
  -23.6705   13.5677  -18.7108 C   0  0  0  0  0  0  0  0  0  0  0  0
  -23.4340   13.2000  -17.4168 C   0  0  0  0  0  0  0  0  0  0  0  0
  -22.3125   13.6561  -16.7126 C   0  0  0  0  0  0  0  0  0  0  0  0
  -21.6294   14.8975  -18.6661 C   0  0  0  0  0  0  0  0  0  0  0  0
  -19.3420   15.7496  -18.8489 C   0  0  0  0  0  0  0  0  0  0  0  0
  -24.8204   13.0962  -19.3883 N   0  0  0  0  0  0  0  0  0  0  0  0
  -20.6872   15.7748  -19.3086 N   0  0  0  0  0  0  0  0  0  0  0  0
  -24.8865   13.2551  -20.8264 C   0  0  0  0  0  0  0  0  0  0  0  0
  -23.6123   13.7639  -21.4358 C   0  0  1  0  0  0  0  0  0  0  0  0
  -18.2277   15.7784  -21.0638 C   0  0  0  0  0  0  0  0  0  0  0  0
  -17.1569   16.0636  -21.8770 C   0  0  0  0  0  0  0  0  0  0  0  0
  -16.0037   16.6467  -21.3952 C   0  0  0  0  0  0  0  0  0  0  0  0
  -14.8299   16.4169  -23.5471 C   0  0  0  0  0  0  0  0  0  0  0  0
  -13.3726   16.5716  -23.9786 C   0  0  0  0  0  0  0  0  0  0  0  0
  -23.9335   14.3874  -22.7325 C   0  0  0  0  0  0  0  0  0  0  0  0
  -13.2772   17.2895  -25.3045 C   0  0  0  0  0  0  0  0  0  0  0  0
  -14.5028   16.8696  -26.1019 C   0  0  0  0  0  0  0  0  0  0  0  0
  -14.3319   17.0685  -27.5612 C   0  0  0  0  0  0  0  0  0  0  0  0
  -14.8031   18.2428  -28.1478 C   0  0  0  0  0  0  0  0  0  0  0  0
  -14.6656   18.4831  -29.5082 C   0  0  0  0  0  0  0  0  0  0  0  0
  -14.0441   17.5093  -30.2497 C   0  0  0  0  0  0  0  0  0  0  0  0
  -13.5731   16.3364  -29.6641 C   0  0  0  0  0  0  0  0  0  0  0  0
  -13.7137   16.1057  -28.3116 C   0  0  0  0  0  0  0  0  0  0  0  0
  -15.9630   16.9387  -20.0459 C   0  0  0  0  0  0  0  0  0  0  0  0
  -17.0547   16.6484  -19.2172 C   0  0  0  0  0  0  0  0  0  0  0  0
  -22.7428   14.4174  -19.2984 C   0  0  0  0  0  0  0  0  0  0  0  0
  -15.1092   19.6108  -30.1111 F   0  0  0  0  0  0  0  0  0  0  0  0
  -23.7277   15.5988  -22.9189 O   0  0  0  0  0  0  0  0  0  0  0  0
  -24.4672   13.6227  -23.7468 O   0  0  0  0  0  0  0  0  0  0  0  0
  -26.3025    8.4550  -19.4193 O   0  0  0  0  0  0  0  0  0  0  0  0
  -24.0575    7.9505  -19.2548 O   0  0  0  0  0  0  0  0  0  0  0  0
  -19.1030   15.4450  -17.6535 O   0  0  0  0  0  0  0  0  0  0  0  0
  -14.9447   16.9190  -22.2428 O   0  0  0  0  0  0  0  0  0  0  0  0
  -22.9983   14.7773  -20.6161 O   0  0  0  0  0  0  0  0  0  0  0  0
  -13.0967   14.6038  -27.6356 Cl  0  0  0  0  0  0  0  0  0  0  0  0
  1  3  1  0
 12  1  1  0
  2 11  1  0
 16  2  2  0
  2 31  1  0
  3  4  1  0
  4  6  1  0
  5  9  2  0
 10  5  1  0
  6 36  2  0
  6 37  1  0
  7  8  2  0
  7 12  1  0
 32  7  1  0
  9  8  1  0
 13 10  1  0
 10 32  2  0
 11 13  1  0
 11 38  2  0
 12 14  1  0
 14 15  1  0
 15 21  1  6
 15 40  1  0
 17 16  1  0
 18 17  2  0
 18 30  1  0
 39 18  1  0
 19 20  1  0
 19 39  1  0
 20 22  1  0
 21 34  2  0
 21 35  1  0
 22 23  1  0
 23 24  1  0
 24 25  2  0
 24 29  1  0
 25 26  1  0
 26 27  2  0
 26 33  1  0
 27 28  1  0
 28 29  2  0
 29 41  1  0
 30 31  2  0
 32 40  1  0
M  END
$$$$
