
     RDKit          3D

 41 44  0  0  0  0  0  0  0  0999 V2000
  -23.5367   10.9649  -22.4836 C   0  0  0  0  0  0  0  0  0  0  0  0
  -18.1167   17.1667  -20.7065 C   0  0  0  0  0  0  0  0  0  0  0  0
  -24.4168   10.6333  -21.2958 C   0  0  0  0  0  0  0  0  0  0  0  0
  -23.5539    9.9623  -20.2432 C   0  0  0  0  0  0  0  0  0  0  0  0
  -19.2100   13.5621  -23.0770 C   0  0  0  0  0  0  0  0  0  0  0  0
  -24.3823    9.7292  -19.0406 C   0  0  0  0  0  0  0  0  0  0  0  0
  -21.8457   12.7659  -22.6446 C   0  0  0  0  0  0  0  0  0  0  0  0
  -20.9377   11.9090  -23.1987 C   0  0  0  0  0  0  0  0  0  0  0  0
  -19.6082   12.2870  -23.4253 C   0  0  0  0  0  0  0  0  0  0  0  0
  -20.1043   14.4648  -22.5115 C   0  0  0  0  0  0  0  0  0  0  0  0
  -18.5235   15.9073  -21.3230 C   0  0  0  0  0  0  0  0  0  0  0  0
  -23.1786   12.3462  -22.4198 N   0  0  0  0  0  0  0  0  0  0  0  0
  -19.6658   15.7897  -22.1616 N   0  0  0  0  0  0  0  0  0  0  0  0
  -24.1760   13.3520  -22.1171 C   0  0  0  0  0  0  0  0  0  0  0  0
  -23.6728   14.7598  -22.2530 C   0  0  1  0  0  0  0  0  0  0  0  0
  -17.0075   17.2319  -19.8755 C   0  0  0  0  0  0  0  0  0  0  0  0
  -16.6224   18.4111  -19.2836 C   0  0  0  0  0  0  0  0  0  0  0  0
  -17.3110   19.5900  -19.4792 C   0  0  0  0  0  0  0  0  0  0  0  0
  -17.2669   22.0440  -19.2863 C   0  0  0  0  0  0  0  0  0  0  0  0
  -16.4760   23.0521  -18.4545 C   0  0  0  0  0  0  0  0  0  0  0  0
  -24.5276   15.6400  -21.4358 C   0  0  0  0  0  0  0  0  0  0  0  0
  -16.7615   22.8761  -16.9814 C   0  0  0  0  0  0  0  0  0  0  0  0
  -17.7637   23.9596  -16.6125 C   0  0  0  0  0  0  0  0  0  0  0  0
  -17.5068   24.5454  -15.2748 C   0  0  0  0  0  0  0  0  0  0  0  0
  -18.3779   24.2537  -14.2255 C   0  0  0  0  0  0  0  0  0  0  0  0
  -18.1827   24.7710  -12.9520 C   0  0  0  0  0  0  0  0  0  0  0  0
  -17.0914   25.5845  -12.7743 C   0  0  0  0  0  0  0  0  0  0  0  0
  -16.2209   25.8758  -13.8221 C   0  0  0  0  0  0  0  0  0  0  0  0
  -16.4222   25.3576  -15.0843 C   0  0  0  0  0  0  0  0  0  0  0  0
  -18.4178   19.5425  -20.3040 C   0  0  0  0  0  0  0  0  0  0  0  0
  -18.8099   18.3405  -20.9076 C   0  0  0  0  0  0  0  0  0  0  0  0
  -21.3876   14.0349  -22.3163 C   0  0  0  0  0  0  0  0  0  0  0  0
  -19.0061   24.5086  -11.9103 F   0  0  0  0  0  0  0  0  0  0  0  0
  -24.0511   16.6442  -20.8797 O   0  0  0  0  0  0  0  0  0  0  0  0
  -25.8657   15.3482  -21.2855 O   0  0  0  0  0  0  0  0  0  0  0  0
  -25.6428    9.9234  -19.0566 O   0  0  0  0  0  0  0  0  0  0  0  0
  -23.7752    9.2890  -17.8601 O   0  0  0  0  0  0  0  0  0  0  0  0
  -17.8207   14.8921  -21.0902 O   0  0  0  0  0  0  0  0  0  0  0  0
  -16.8952   20.7587  -18.8665 O   0  0  0  0  0  0  0  0  0  0  0  0
  -22.3265   14.8936  -21.7574 O   0  0  0  0  0  0  0  0  0  0  0  0
  -15.2854   25.7650  -16.3630 Cl  0  0  0  0  0  0  0  0  0  0  0  0
  1  3  1  0
 12  1  1  0
  2 11  1  0
 16  2  2  0
  2 31  1  0
  3  4  1  0
  4  6  1  0
  5  9  2  0
 10  5  1  0
  6 36  2  0
  6 37  1  0
  7  8  2  0
  7 12  1  0
 32  7  1  0
  9  8  1  0
 13 10  1  0
 10 32  2  0
 11 13  1  0
 11 38  2  0
 12 14  1  0
 14 15  1  0
 15 21  1  1
 15 40  1  0
 17 16  1  0
 18 17  2  0
 18 30  1  0
 39 18  1  0
 19 20  1  0
 19 39  1  0
 20 22  1  0
 21 34  2  0
 21 35  1  0
 22 23  1  0
 23 24  1  0
 24 25  2  0
 24 29  1  0
 25 26  1  0
 26 27  2  0
 26 33  1  0
 27 28  1  0
 28 29  2  0
 29 41  1  0
 30 31  2  0
 32 40  1  0
M  END
$$$$
