
     RDKit          3D

 41 44  0  0  0  0  0  0  0  0999 V2000
  -21.5414   15.4456  -28.0790 C   0  0  0  0  0  0  0  0  0  0  0  0
  -21.5882   15.7570  -19.5387 C   0  0  0  0  0  0  0  0  0  0  0  0
  -22.5033   16.4559  -28.6703 C   0  0  0  0  0  0  0  0  0  0  0  0
  -23.9064   16.0859  -28.2261 C   0  0  0  0  0  0  0  0  0  0  0  0
  -23.1754   14.3978  -23.3833 C   0  0  0  0  0  0  0  0  0  0  0  0
  -24.8683   16.6707  -29.1852 C   0  0  0  0  0  0  0  0  0  0  0  0
  -21.8366   15.3796  -25.6218 C   0  0  0  0  0  0  0  0  0  0  0  0
  -22.6460   14.2833  -25.7155 C   0  0  0  0  0  0  0  0  0  0  0  0
  -23.3286   13.7722  -24.6043 C   0  0  0  0  0  0  0  0  0  0  0  0
  -22.3596   15.5159  -23.2461 C   0  0  0  0  0  0  0  0  0  0  0  0
  -22.1277   15.3062  -20.8183 C   0  0  0  0  0  0  0  0  0  0  0  0
  -21.1707   15.8754  -26.7682 N   0  0  0  0  0  0  0  0  0  0  0  0
  -22.2128   16.1472  -21.9615 N   0  0  0  0  0  0  0  0  0  0  0  0
  -20.1030   16.8364  -26.5833 C   0  0  0  0  0  0  0  0  0  0  0  0
  -19.7294   17.0529  -25.1454 C   0  0  1  0  0  0  0  0  0  0  0  0
  -21.0511   17.0284  -19.3958 C   0  0  0  0  0  0  0  0  0  0  0  0
  -20.5329   17.4581  -18.1975 C   0  0  0  0  0  0  0  0  0  0  0  0
  -20.5160   16.6568  -17.0752 C   0  0  0  0  0  0  0  0  0  0  0  0
  -19.8994   18.4778  -15.5373 C   0  0  0  0  0  0  0  0  0  0  0  0
  -19.1202   18.5734  -14.2268 C   0  0  0  0  0  0  0  0  0  0  0  0
  -19.0746   18.3685  -25.0282 C   0  0  0  0  0  0  0  0  0  0  0  0
  -18.6871   17.2044  -13.7570 C   0  0  0  0  0  0  0  0  0  0  0  0
  -19.5528   16.8782  -12.5493 C   0  0  0  0  0  0  0  0  0  0  0  0
  -20.4544   15.7253  -12.7861 C   0  0  0  0  0  0  0  0  0  0  0  0
  -20.7097   14.8356  -11.7429 C   0  0  0  0  0  0  0  0  0  0  0  0
  -21.5491   13.7421  -11.9075 C   0  0  0  0  0  0  0  0  0  0  0  0
  -22.1159   13.5772  -13.1469 C   0  0  0  0  0  0  0  0  0  0  0  0
  -21.8613   14.4657  -14.1890 C   0  0  0  0  0  0  0  0  0  0  0  0
  -21.0260   15.5497  -14.0168 C   0  0  0  0  0  0  0  0  0  0  0  0
  -21.0470   15.3879  -17.2003 C   0  0  0  0  0  0  0  0  0  0  0  0
  -21.5757   14.9503  -18.4217 C   0  0  0  0  0  0  0  0  0  0  0  0
  -21.7206   15.9654  -24.3683 C   0  0  0  0  0  0  0  0  0  0  0  0
  -21.8206   12.8595  -10.9180 F   0  0  0  0  0  0  0  0  0  0  0  0
  -17.9364   18.5511  -25.4927 O   0  0  0  0  0  0  0  0  0  0  0  0
  -19.7279   19.4051  -24.3979 O   0  0  0  0  0  0  0  0  0  0  0  0
  -25.2813   16.0104  -30.1953 O   0  0  0  0  0  0  0  0  0  0  0  0
  -25.3352   17.9738  -28.9854 O   0  0  0  0  0  0  0  0  0  0  0  0
  -22.5307   14.1184  -20.8934 O   0  0  0  0  0  0  0  0  0  0  0  0
  -19.9854   17.1221  -15.8852 O   0  0  0  0  0  0  0  0  0  0  0  0
  -20.8900   17.0770  -24.2921 O   0  0  0  0  0  0  0  0  0  0  0  0
  -20.7469   16.6332  -15.3738 Cl  0  0  0  0  0  0  0  0  0  0  0  0
  1  3  1  0
 12  1  1  0
  2 11  1  0
 16  2  2  0
  2 31  1  0
  3  4  1  0
  4  6  1  0
  5  9  2  0
 10  5  1  0
  6 36  2  0
  6 37  1  0
  7  8  2  0
  7 12  1  0
 32  7  1  0
  9  8  1  0
 13 10  1  0
 10 32  2  0
 11 13  1  0
 11 38  2  0
 12 14  1  0
 14 15  1  0
 15 21  1  6
 15 40  1  0
 17 16  1  0
 18 17  2  0
 18 30  1  0
 39 18  1  0
 19 20  1  0
 19 39  1  0
 20 22  1  0
 21 34  2  0
 21 35  1  0
 22 23  1  0
 23 24  1  0
 24 25  2  0
 24 29  1  0
 25 26  1  0
 26 27  2  0
 26 33  1  0
 27 28  1  0
 28 29  2  0
 29 41  1  0
 30 31  2  0
 32 40  1  0
M  END
$$$$
