
     RDKit          3D

 41 44  0  0  0  0  0  0  0  0999 V2000
  -25.2841   10.9572  -19.3275 C   0  0  0  0  0  0  0  0  0  0  0  0
  -18.9283   16.4665  -19.2022 C   0  0  0  0  0  0  0  0  0  0  0  0
  -26.3575   11.9095  -18.8800 C   0  0  0  0  0  0  0  0  0  0  0  0
  -27.6228   11.5995  -19.6473 C   0  0  0  0  0  0  0  0  0  0  0  0
  -22.2386   14.4384  -17.3846 C   0  0  0  0  0  0  0  0  0  0  0  0
  -28.7999   11.5753  -18.7478 C   0  0  0  0  0  0  0  0  0  0  0  0
  -23.4682   12.5918  -18.9840 C   0  0  0  0  0  0  0  0  0  0  0  0
  -23.6413   12.5722  -17.6085 C   0  0  0  0  0  0  0  0  0  0  0  0
  -23.0324   13.4918  -16.7821 C   0  0  0  0  0  0  0  0  0  0  0  0
  -22.0484   14.4812  -18.7541 C   0  0  0  0  0  0  0  0  0  0  0  0
  -20.1111   15.9618  -18.5613 C   0  0  0  0  0  0  0  0  0  0  0  0
  -24.1072   11.6281  -19.8084 N   0  0  0  0  0  0  0  0  0  0  0  0
  -21.2091   15.4872  -19.3067 N   0  0  0  0  0  0  0  0  0  0  0  0
  -23.5244   11.3685  -21.1083 C   0  0  0  0  0  0  0  0  0  0  0  0
  -23.2908   12.7350  -21.7583 C   0  0  1  0  0  0  0  0  0  0  0  0
  -18.0010   17.2055  -18.4780 C   0  0  0  0  0  0  0  0  0  0  0  0
  -16.8827   17.6772  -19.0829 C   0  0  0  0  0  0  0  0  0  0  0  0
  -16.5777   17.4673  -20.4409 C   0  0  0  0  0  0  0  0  0  0  0  0
  -14.9597   17.9551  -22.2221 C   0  0  0  0  0  0  0  0  0  0  0  0
  -13.6805   18.6812  -22.4586 C   0  0  0  0  0  0  0  0  0  0  0  0
  -24.5493   13.3915  -22.1123 C   0  0  0  0  0  0  0  0  0  0  0  0
  -12.8289   18.0576  -23.4903 C   0  0  0  0  0  0  0  0  0  0  0  0
  -13.4121   17.3889  -24.6641 C   0  0  0  0  0  0  0  0  0  0  0  0
  -12.6322   17.2369  -25.8843 C   0  0  0  0  0  0  0  0  0  0  0  0
  -13.2577   17.3335  -27.1320 C   0  0  0  0  0  0  0  0  0  0  0  0
  -12.5940   17.1417  -28.3158 C   0  0  0  0  0  0  0  0  0  0  0  0
  -11.2535   16.8422  -28.2356 C   0  0  0  0  0  0  0  0  0  0  0  0
  -10.5961   16.7369  -27.0313 C   0  0  0  0  0  0  0  0  0  0  0  0
  -11.2975   16.9365  -25.8673 C   0  0  0  0  0  0  0  0  0  0  0  0
  -17.5054   16.7379  -21.1257 C   0  0  0  0  0  0  0  0  0  0  0  0
  -18.6695   16.2410  -20.5196 C   0  0  0  0  0  0  0  0  0  0  0  0
  -22.6534   13.5683  -19.5706 C   0  0  0  0  0  0  0  0  0  0  0  0
  -13.2289   17.2423  -29.5237 F   0  0  0  0  0  0  0  0  0  0  0  0
  -24.8186   13.6477  -23.3042 O   0  0  0  0  0  0  0  0  0  0  0  0
  -25.4544   13.7352  -21.1303 O   0  0  0  0  0  0  0  0  0  0  0  0
  -29.5797   10.5961  -18.6438 O   0  0  0  0  0  0  0  0  0  0  0  0
  -29.0602   12.6960  -17.9738 O   0  0  0  0  0  0  0  0  0  0  0  0
  -20.1414   15.9539  -17.2778 O   0  0  0  0  0  0  0  0  0  0  0  0
  -15.4395   17.9800  -20.9247 O   0  0  0  0  0  0  0  0  0  0  0  0
  -22.5070   13.5537  -20.9436 O   0  0  0  0  0  0  0  0  0  0  0  0
  -10.4195   16.7926  -24.3479 Cl  0  0  0  0  0  0  0  0  0  0  0  0
  3  1  1  1
  1 12  1  6
  2 11  1  0
 16  2  2  0
  2 31  1  0
  3  4  1  0
  4  6  1  6
  5  9  2  0
 10  5  1  0
  6 36  2  0
  6 37  1  0
  7  8  2  0
  7 12  1  0
 32  7  1  0
  9  8  1  0
 13 10  1  0
 10 32  2  0
 11 13  1  0
 11 38  2  0
 14 12  1  1
 14 15  1  0
 15 21  1  1
 15 40  1  0
 17 16  1  0
 18 17  2  0
 18 30  1  0
 39 18  1  0
 20 19  1  1
 19 39  1  6
 20 22  1  0
 21 34  2  0
 21 35  1  0
 22 23  1  6
 23 24  1  6
 24 25  2  0
 24 29  1  0
 25 26  1  0
 26 27  2  0
 26 33  1  0
 27 28  1  0
 28 29  2  0
 29 41  1  0
 30 31  2  0
 32 40  1  0
M  END
$$$$
