
     RDKit          3D

 41 44  0  0  0  0  0  0  0  0999 V2000
  -27.1688   12.1935  -22.0485 C   0  0  0  0  0  0  0  0  0  0  0  0
  -18.8821   14.3345  -22.1767 C   0  0  0  0  0  0  0  0  0  0  0  0
  -28.4020   13.0502  -21.9803 C   0  0  0  0  0  0  0  0  0  0  0  0
  -28.7690   13.2461  -20.5267 C   0  0  0  0  0  0  0  0  0  0  0  0
  -22.7220   13.6870  -23.8271 C   0  0  0  0  0  0  0  0  0  0  0  0
  -30.1157   12.6999  -20.2382 C   0  0  0  0  0  0  0  0  0  0  0  0
  -24.8897   13.1141  -22.2608 C   0  0  0  0  0  0  0  0  0  0  0  0
  -25.0190   13.2542  -23.6342 C   0  0  0  0  0  0  0  0  0  0  0  0
  -23.9417   13.5426  -24.4440 C   0  0  0  0  0  0  0  0  0  0  0  0
  -22.5644   13.5527  -22.4593 C   0  0  0  0  0  0  0  0  0  0  0  0
  -20.2008   14.1304  -22.7091 C   0  0  0  0  0  0  0  0  0  0  0  0
  -26.0200   12.8196  -21.4532 N   0  0  0  0  0  0  0  0  0  0  0  0
  -21.2721   13.7203  -21.8902 N   0  0  0  0  0  0  0  0  0  0  0  0
  -25.9512   13.1765  -20.0515 C   0  0  0  0  0  0  0  0  0  0  0  0
  -24.6162   12.6357  -19.5323 C   0  0  1  0  0  0  0  0  0  0  0  0
  -18.5780   13.9250  -20.8843 C   0  0  0  0  0  0  0  0  0  0  0  0
  -17.3316   14.1138  -20.3846 C   0  0  0  0  0  0  0  0  0  0  0  0
  -16.2816   14.7162  -21.1027 C   0  0  0  0  0  0  0  0  0  0  0  0
  -14.1100   13.8886  -20.3106 C   0  0  0  0  0  0  0  0  0  0  0  0
  -12.8809   14.3485  -19.6053 C   0  0  0  0  0  0  0  0  0  0  0  0
  -24.6058   11.1739  -19.4771 C   0  0  0  0  0  0  0  0  0  0  0  0
  -11.6290   13.9072  -20.2507 C   0  0  0  0  0  0  0  0  0  0  0  0
  -10.3144   14.2256  -19.6715 C   0  0  0  0  0  0  0  0  0  0  0  0
   -9.1121   13.5838  -20.1843 C   0  0  0  0  0  0  0  0  0  0  0  0
   -8.6332   12.4136  -19.5858 C   0  0  0  0  0  0  0  0  0  0  0  0
   -7.4765   11.7934  -19.9808 C   0  0  0  0  0  0  0  0  0  0  0  0
   -6.7809   12.3756  -21.0153 C   0  0  0  0  0  0  0  0  0  0  0  0
   -7.2132   13.5261  -21.6341 C   0  0  0  0  0  0  0  0  0  0  0  0
   -8.3778   14.1169  -21.2083 C   0  0  0  0  0  0  0  0  0  0  0  0
  -16.6094   15.1068  -22.3683 C   0  0  0  0  0  0  0  0  0  0  0  0
  -17.8928   14.9216  -22.9048 C   0  0  0  0  0  0  0  0  0  0  0  0
  -23.6341   13.2666  -21.6593 C   0  0  0  0  0  0  0  0  0  0  0  0
   -7.0295   10.6487  -19.3790 F   0  0  0  0  0  0  0  0  0  0  0  0
  -23.7448   10.5208  -20.1025 O   0  0  0  0  0  0  0  0  0  0  0  0
  -25.5497   10.4995  -18.7315 O   0  0  0  0  0  0  0  0  0  0  0  0
  -31.0489   13.3721  -19.7331 O   0  0  0  0  0  0  0  0  0  0  0  0
  -30.3656   11.3700  -20.5414 O   0  0  0  0  0  0  0  0  0  0  0  0
  -20.3797   14.3343  -23.9640 O   0  0  0  0  0  0  0  0  0  0  0  0
  -15.0913   14.8445  -20.5034 O   0  0  0  0  0  0  0  0  0  0  0  0
  -23.5476   13.1191  -20.2891 O   0  0  0  0  0  0  0  0  0  0  0  0
   -8.8962   15.5874  -22.0264 Cl  0  0  0  0  0  0  0  0  0  0  0  0
  3  1  1  1
  1 12  1  6
  2 11  1  0
 16  2  2  0
  2 31  1  0
  3  4  1  0
  4  6  1  6
  5  9  2  0
 10  5  1  0
  6 36  2  0
  6 37  1  0
  7  8  2  0
  7 12  1  0
 32  7  1  0
  9  8  1  0
 13 10  1  0
 10 32  2  0
 11 13  1  0
 11 38  2  0
 14 12  1  1
 14 15  1  0
 15 21  1  6
 15 40  1  0
 17 16  1  0
 18 17  2  0
 18 30  1  0
 39 18  1  0
 20 19  1  1
 19 39  1  6
 20 22  1  0
 21 34  2  0
 21 35  1  0
 22 23  1  6
 23 24  1  6
 24 25  2  0
 24 29  1  0
 25 26  1  0
 26 27  2  0
 26 33  1  0
 27 28  1  0
 28 29  2  0
 29 41  1  0
 30 31  2  0
 32 40  1  0
M  END
$$$$
