
     RDKit          3D

 41 44  0  0  0  0  0  0  0  0999 V2000
  -26.5005   16.4561  -23.0752 C   0  0  0  0  0  0  0  0  0  0  0  0
  -18.7806   12.8303  -23.0590 C   0  0  0  0  0  0  0  0  0  0  0  0
  -27.3087   15.3327  -23.6919 C   0  0  0  0  0  0  0  0  0  0  0  0
  -28.6601   15.2916  -23.0027 C   0  0  0  0  0  0  0  0  0  0  0  0
  -22.4743   14.0913  -25.0789 C   0  0  0  0  0  0  0  0  0  0  0  0
  -29.6359   16.0141  -23.8467 C   0  0  0  0  0  0  0  0  0  0  0  0
  -24.3325   15.3034  -23.3921 C   0  0  0  0  0  0  0  0  0  0  0  0
  -24.4081   15.4633  -24.7465 C   0  0  0  0  0  0  0  0  0  0  0  0
  -23.4857   14.8639  -25.6135 C   0  0  0  0  0  0  0  0  0  0  0  0
  -22.3621   13.9049  -23.7051 C   0  0  0  0  0  0  0  0  0  0  0  0
  -20.0007   13.2610  -23.7354 C   0  0  0  0  0  0  0  0  0  0  0  0
  -25.2889   15.9150  -22.5466 N   0  0  0  0  0  0  0  0  0  0  0  0
  -21.2961   13.0988  -23.1723 N   0  0  0  0  0  0  0  0  0  0  0  0
  -25.0134   15.9765  -21.1260 C   0  0  0  0  0  0  0  0  0  0  0  0
  -23.6321   15.5168  -20.7594 C   0  0  1  0  0  0  0  0  0  0  0  0
  -18.8156   12.3428  -21.7603 C   0  0  0  0  0  0  0  0  0  0  0  0
  -17.6710   11.9435  -21.1125 C   0  0  0  0  0  0  0  0  0  0  0  0
  -16.4298   12.0037  -21.7106 C   0  0  0  0  0  0  0  0  0  0  0  0
  -15.2913   11.1880  -19.6858 C   0  0  0  0  0  0  0  0  0  0  0  0
  -13.8548   10.8201  -19.3184 C   0  0  0  0  0  0  0  0  0  0  0  0
  -23.6386   15.1079  -19.3431 C   0  0  0  0  0  0  0  0  0  0  0  0
  -12.8907   11.8871  -19.7815 C   0  0  0  0  0  0  0  0  0  0  0  0
  -11.4987   11.3742  -19.4447 C   0  0  0  0  0  0  0  0  0  0  0  0
  -10.4372   12.3685  -19.7328 C   0  0  0  0  0  0  0  0  0  0  0  0
   -9.3324   12.4493  -18.8856 C   0  0  0  0  0  0  0  0  0  0  0  0
   -8.3073   13.3583  -19.1105 C   0  0  0  0  0  0  0  0  0  0  0  0
   -8.4330   14.1751  -20.2065 C   0  0  0  0  0  0  0  0  0  0  0  0
   -9.5362   14.0945  -21.0531 C   0  0  0  0  0  0  0  0  0  0  0  0
  -10.5502   13.1884  -20.8224 C   0  0  0  0  0  0  0  0  0  0  0  0
  -16.3773   12.4865  -23.0036 C   0  0  0  0  0  0  0  0  0  0  0  0
  -17.5442   12.8930  -23.6639 C   0  0  0  0  0  0  0  0  0  0  0  0
  -23.2936   14.5168  -22.9128 C   0  0  0  0  0  0  0  0  0  0  0  0
   -7.2204   13.4638  -18.3108 F   0  0  0  0  0  0  0  0  0  0  0  0
  -22.8238   14.2680  -18.9245 O   0  0  0  0  0  0  0  0  0  0  0  0
  -24.5554   15.6596  -18.4750 O   0  0  0  0  0  0  0  0  0  0  0  0
  -30.8885   15.9495  -23.6147 O   0  0  0  0  0  0  0  0  0  0  0  0
  -29.1807   16.7830  -24.9226 O   0  0  0  0  0  0  0  0  0  0  0  0
  -19.8808   13.7965  -24.8657 O   0  0  0  0  0  0  0  0  0  0  0  0
  -15.2982   11.5939  -21.0280 O   0  0  0  0  0  0  0  0  0  0  0  0
  -23.2309   14.3690  -21.5324 O   0  0  0  0  0  0  0  0  0  0  0  0
  -11.9154   13.1384  -21.9301 Cl  0  0  0  0  0  0  0  0  0  0  0  0
  1  3  1  0
 12  1  1  0
  2 11  1  0
 16  2  2  0
  2 31  1  0
  3  4  1  0
  4  6  1  0
  5  9  2  0
 10  5  1  0
  6 36  2  0
  6 37  1  0
  7  8  2  0
  7 12  1  0
 32  7  1  0
  9  8  1  0
 13 10  1  0
 10 32  2  0
 11 13  1  0
 11 38  2  0
 12 14  1  0
 14 15  1  0
 15 21  1  1
 15 40  1  0
 17 16  1  0
 18 17  2  0
 18 30  1  0
 39 18  1  0
 19 20  1  0
 19 39  1  0
 20 22  1  0
 21 34  2  0
 21 35  1  0
 22 23  1  0
 23 24  1  0
 24 25  2  0
 24 29  1  0
 25 26  1  0
 26 27  2  0
 26 33  1  0
 27 28  1  0
 28 29  2  0
 29 41  1  0
 30 31  2  0
 32 40  1  0
M  END
$$$$
