
     RDKit          3D

 41 44  0  0  0  0  0  0  0  0999 V2000
  -20.3871   22.2337  -15.3753 C   0  0  0  0  0  0  0  0  0  0  0  0
  -19.4686   15.9565  -21.0381 C   0  0  0  0  0  0  0  0  0  0  0  0
  -19.3909   22.2113  -14.2341 C   0  0  0  0  0  0  0  0  0  0  0  0
  -19.8893   21.2255  -13.1934 C   0  0  0  0  0  0  0  0  0  0  0  0
  -21.2214   17.6321  -17.3621 C   0  0  0  0  0  0  0  0  0  0  0  0
  -18.7645   20.8881  -12.2947 C   0  0  0  0  0  0  0  0  0  0  0  0
  -20.3048   20.2000  -16.7848 C   0  0  0  0  0  0  0  0  0  0  0  0
  -21.4585   19.7270  -16.2272 C   0  0  0  0  0  0  0  0  0  0  0  0
  -21.9384   18.4403  -16.5027 C   0  0  0  0  0  0  0  0  0  0  0  0
  -20.0426   18.0770  -17.9511 C   0  0  0  0  0  0  0  0  0  0  0  0
  -20.0619   16.4915  -19.8159 C   0  0  0  0  0  0  0  0  0  0  0  0
  -19.8437   21.5020  -16.4751 N   0  0  0  0  0  0  0  0  0  0  0  0
  -19.3160   17.2171  -18.8471 N   0  0  0  0  0  0  0  0  0  0  0  0
  -18.8003   22.0775  -17.2985 C   0  0  0  0  0  0  0  0  0  0  0  0
  -18.4603   21.2515  -18.5051 C   0  0  1  0  0  0  0  0  0  0  0  0
  -20.2322   15.2468  -21.9538 C   0  0  0  0  0  0  0  0  0  0  0  0
  -19.6803   14.7319  -23.1025 C   0  0  0  0  0  0  0  0  0  0  0  0
  -18.3451   14.8889  -23.4099 C   0  0  0  0  0  0  0  0  0  0  0  0
  -16.4742   14.4462  -24.9479 C   0  0  0  0  0  0  0  0  0  0  0  0
  -16.1382   13.2108  -25.7813 C   0  0  0  0  0  0  0  0  0  0  0  0
  -17.0974   21.6053  -18.9417 C   0  0  0  0  0  0  0  0  0  0  0  0
  -16.8673   13.2394  -27.1042 C   0  0  0  0  0  0  0  0  0  0  0  0
  -17.9169   12.1406  -27.0324 C   0  0  0  0  0  0  0  0  0  0  0  0
  -17.3265   10.7813  -27.0761 C   0  0  0  0  0  0  0  0  0  0  0  0
  -16.9827   10.2280  -28.3093 C   0  0  0  0  0  0  0  0  0  0  0  0
  -16.4225    8.9615  -28.4084 C   0  0  0  0  0  0  0  0  0  0  0  0
  -16.2235    8.2785  -27.2344 C   0  0  0  0  0  0  0  0  0  0  0  0
  -16.5665    8.8309  -26.0025 C   0  0  0  0  0  0  0  0  0  0  0  0
  -17.1226   10.0900  -25.9130 C   0  0  0  0  0  0  0  0  0  0  0  0
  -17.5707   15.5932  -22.5089 C   0  0  0  0  0  0  0  0  0  0  0  0
  -18.1336   16.1184  -21.3383 C   0  0  0  0  0  0  0  0  0  0  0  0
  -19.6277   19.3427  -17.6418 C   0  0  0  0  0  0  0  0  0  0  0  0
  -16.0755    8.3938  -29.5870 F   0  0  0  0  0  0  0  0  0  0  0  0
  -16.6523   22.7508  -18.7564 O   0  0  0  0  0  0  0  0  0  0  0  0
  -16.3095   20.6599  -19.5613 O   0  0  0  0  0  0  0  0  0  0  0  0
  -18.1064   21.7962  -11.6870 O   0  0  0  0  0  0  0  0  0  0  0  0
  -18.4109   19.5482  -12.1061 O   0  0  0  0  0  0  0  0  0  0  0  0
  -21.2881   16.2910  -19.6287 O   0  0  0  0  0  0  0  0  0  0  0  0
  -17.8231   14.3561  -24.5752 O   0  0  0  0  0  0  0  0  0  0  0  0
  -18.4585   19.8429  -18.2021 O   0  0  0  0  0  0  0  0  0  0  0  0
  -17.5327   10.7287  -24.3265 Cl  0  0  0  0  0  0  0  0  0  0  0  0
  1  3  1  0
 12  1  1  0
  2 11  1  0
 16  2  2  0
  2 31  1  0
  3  4  1  0
  4  6  1  0
  5  9  2  0
 10  5  1  0
  6 36  2  0
  6 37  1  0
  7  8  2  0
  7 12  1  0
 32  7  1  0
  9  8  1  0
 13 10  1  0
 10 32  2  0
 11 13  1  0
 11 38  2  0
 12 14  1  0
 14 15  1  0
 15 21  1  1
 15 40  1  0
 17 16  1  0
 18 17  2  0
 18 30  1  0
 39 18  1  0
 19 20  1  0
 19 39  1  0
 20 22  1  0
 21 34  2  0
 21 35  1  0
 22 23  1  0
 23 24  1  0
 24 25  2  0
 24 29  1  0
 25 26  1  0
 26 27  2  0
 26 33  1  0
 27 28  1  0
 28 29  2  0
 29 41  1  0
 30 31  2  0
 32 40  1  0
M  END
$$$$
