
     RDKit          3D

 41 44  0  0  0  0  0  0  0  0999 V2000
  -25.8187   12.2777  -21.3868 C   0  0  0  0  0  0  0  0  0  0  0  0
  -17.6188   14.7678  -22.3010 C   0  0  0  0  0  0  0  0  0  0  0  0
  -25.5787   11.4196  -20.1614 C   0  0  0  0  0  0  0  0  0  0  0  0
  -26.0101   12.2110  -18.9406 C   0  0  0  0  0  0  0  0  0  0  0  0
  -21.1532   12.5679  -23.3784 C   0  0  0  0  0  0  0  0  0  0  0  0
  -25.5768   11.4769  -17.7322 C   0  0  0  0  0  0  0  0  0  0  0  0
  -23.5793   13.0583  -22.0973 C   0  0  0  0  0  0  0  0  0  0  0  0
  -23.4289   11.9800  -22.9221 C   0  0  0  0  0  0  0  0  0  0  0  0
  -22.2194   11.7137  -23.5764 C   0  0  0  0  0  0  0  0  0  0  0  0
  -21.2662   13.6774  -22.5472 C   0  0  0  0  0  0  0  0  0  0  0  0
  -18.8421   14.0169  -22.5685 C   0  0  0  0  0  0  0  0  0  0  0  0
  -24.8131   13.2905  -21.4436 N   0  0  0  0  0  0  0  0  0  0  0  0
  -20.1415   14.5553  -22.3609 N   0  0  0  0  0  0  0  0  0  0  0  0
  -25.0334   14.5821  -20.8262 C   0  0  0  0  0  0  0  0  0  0  0  0
  -23.9532   15.5825  -21.1195 C   0  0  1  0  0  0  0  0  0  0  0  0
  -16.3700   14.1906  -22.4815 C   0  0  0  0  0  0  0  0  0  0  0  0
  -15.2134   14.8869  -22.2237 C   0  0  0  0  0  0  0  0  0  0  0  0
  -15.2260   16.1904  -21.7735 C   0  0  0  0  0  0  0  0  0  0  0  0
  -13.9563   18.2328  -21.2463 C   0  0  0  0  0  0  0  0  0  0  0  0
  -12.5752   18.5021  -20.6514 C   0  0  0  0  0  0  0  0  0  0  0  0
  -23.9734   16.6115  -20.0641 C   0  0  0  0  0  0  0  0  0  0  0  0
  -11.7036   17.2710  -20.7353 C   0  0  0  0  0  0  0  0  0  0  0  0
  -10.9024   17.4069  -22.0213 C   0  0  0  0  0  0  0  0  0  0  0  0
  -10.7865   16.1274  -22.7613 C   0  0  0  0  0  0  0  0  0  0  0  0
   -9.6599   15.3286  -22.5672 C   0  0  0  0  0  0  0  0  0  0  0  0
   -9.5018   14.1191  -23.2304 C   0  0  0  0  0  0  0  0  0  0  0  0
  -10.5072   13.7466  -24.0875 C   0  0  0  0  0  0  0  0  0  0  0  0
  -11.6327   14.5440  -24.2815 C   0  0  0  0  0  0  0  0  0  0  0  0
  -11.7818   15.7443  -23.6185 C   0  0  0  0  0  0  0  0  0  0  0  0
  -16.4611   16.7801  -21.5887 C   0  0  0  0  0  0  0  0  0  0  0  0
  -17.6400   16.0704  -21.8520 C   0  0  0  0  0  0  0  0  0  0  0  0
  -22.4731   13.8822  -21.9380 C   0  0  0  0  0  0  0  0  0  0  0  0
   -8.4234   13.3180  -23.0657 F   0  0  0  0  0  0  0  0  0  0  0  0
  -22.9132   17.0210  -19.5611 O   0  0  0  0  0  0  0  0  0  0  0  0
  -25.1764   17.1239  -19.6298 O   0  0  0  0  0  0  0  0  0  0  0  0
  -25.8152   11.9267  -16.5626 O   0  0  0  0  0  0  0  0  0  0  0  0
  -24.8902   10.2664  -17.8702 O   0  0  0  0  0  0  0  0  0  0  0  0
  -18.7211   12.8432  -23.0005 O   0  0  0  0  0  0  0  0  0  0  0  0
  -14.0418   16.8608  -21.5233 O   0  0  0  0  0  0  0  0  0  0  0  0
  -22.6465   14.9759  -21.0983 O   0  0  0  0  0  0  0  0  0  0  0  0
  -13.2274   16.7031  -23.9087 Cl  0  0  0  0  0  0  0  0  0  0  0  0
  1  3  1  0
 12  1  1  0
  2 11  1  0
 16  2  2  0
  2 31  1  0
  3  4  1  0
  4  6  1  0
  5  9  2  0
 10  5  1  0
  6 36  2  0
  6 37  1  0
  7  8  2  0
  7 12  1  0
 32  7  1  0
  9  8  1  0
 13 10  1  0
 10 32  2  0
 11 13  1  0
 11 38  2  0
 12 14  1  0
 14 15  1  0
 15 21  1  1
 15 40  1  0
 17 16  1  0
 18 17  2  0
 18 30  1  0
 39 18  1  0
 19 20  1  0
 19 39  1  0
 20 22  1  0
 21 34  2  0
 21 35  1  0
 22 23  1  0
 23 24  1  0
 24 25  2  0
 24 29  1  0
 25 26  1  0
 26 27  2  0
 26 33  1  0
 27 28  1  0
 28 29  2  0
 29 41  1  0
 30 31  2  0
 32 40  1  0
M  END
$$$$
