
     RDKit          3D

 41 44  0  0  0  0  0  0  0  0999 V2000
  -17.8084   26.6358  -15.6942 C   0  0  0  0  0  0  0  0  0  0  0  0
  -19.2751   19.5337  -20.2409 C   0  0  0  0  0  0  0  0  0  0  0  0
  -16.9887   27.6542  -16.4359 C   0  0  0  0  0  0  0  0  0  0  0  0
  -15.5903   27.6540  -15.8610 C   0  0  0  0  0  0  0  0  0  0  0  0
  -19.1694   23.7045  -19.5312 C   0  0  0  0  0  0  0  0  0  0  0  0
  -14.5939   27.2535  -16.8817 C   0  0  0  0  0  0  0  0  0  0  0  0
  -18.0690   24.7401  -17.2516 C   0  0  0  0  0  0  0  0  0  0  0  0
  -18.5193   25.5699  -18.2671 C   0  0  0  0  0  0  0  0  0  0  0  0
  -19.0773   25.0717  -19.4246 C   0  0  0  0  0  0  0  0  0  0  0  0
  -18.7282   22.8534  -18.5339 C   0  0  0  0  0  0  0  0  0  0  0  0
  -19.0154   20.9287  -20.0157 C   0  0  0  0  0  0  0  0  0  0  0  0
  -17.4958   25.2845  -16.0719 N   0  0  0  0  0  0  0  0  0  0  0  0
  -18.8518   21.4486  -18.7159 N   0  0  0  0  0  0  0  0  0  0  0  0
  -16.6103   24.4336  -15.3048 C   0  0  0  0  0  0  0  0  0  0  0  0
  -17.3412   23.1005  -15.1231 C   0  0  1  0  0  0  0  0  0  0  0  0
  -19.5161   19.0653  -21.5267 C   0  0  0  0  0  0  0  0  0  0  0  0
  -19.7564   17.7476  -21.7385 C   0  0  0  0  0  0  0  0  0  0  0  0
  -19.7813   16.7806  -20.7161 C   0  0  0  0  0  0  0  0  0  0  0  0
  -20.2318   14.9637  -22.3048 C   0  0  0  0  0  0  0  0  0  0  0  0
  -21.1704   13.8084  -22.3696 C   0  0  0  0  0  0  0  0  0  0  0  0
  -18.4927   23.2286  -14.2301 C   0  0  0  0  0  0  0  0  0  0  0  0
  -20.6785   12.6073  -21.6668 C   0  0  0  0  0  0  0  0  0  0  0  0
  -21.4976   11.3892  -21.5655 C   0  0  0  0  0  0  0  0  0  0  0  0
  -20.9357   10.1729  -20.9953 C   0  0  0  0  0  0  0  0  0  0  0  0
  -20.8567   10.0216  -19.6068 C   0  0  0  0  0  0  0  0  0  0  0  0
  -20.2858    8.9296  -19.0068 C   0  0  0  0  0  0  0  0  0  0  0  0
  -19.7778    7.9581  -19.8381 C   0  0  0  0  0  0  0  0  0  0  0  0
  -19.8328    8.0636  -21.2091 C   0  0  0  0  0  0  0  0  0  0  0  0
  -20.4135    9.1742  -21.7711 C   0  0  0  0  0  0  0  0  0  0  0  0
  -19.5404   17.2696  -19.4652 C   0  0  0  0  0  0  0  0  0  0  0  0
  -19.2902   18.6291  -19.2236 C   0  0  0  0  0  0  0  0  0  0  0  0
  -18.1756   23.3503  -17.3876 C   0  0  0  0  0  0  0  0  0  0  0  0
  -20.2214    8.8052  -17.6457 F   0  0  0  0  0  0  0  0  0  0  0  0
  -19.6518   23.2791  -14.6915 O   0  0  0  0  0  0  0  0  0  0  0  0
  -18.3098   23.2953  -12.8649 O   0  0  0  0  0  0  0  0  0  0  0  0
  -14.5626   27.7189  -18.0480 O   0  0  0  0  0  0  0  0  0  0  0  0
  -13.6381   26.3108  -16.5346 O   0  0  0  0  0  0  0  0  0  0  0  0
  -18.9347   21.6975  -21.0408 O   0  0  0  0  0  0  0  0  0  0  0  0
  -20.0260   15.5073  -21.0494 O   0  0  0  0  0  0  0  0  0  0  0  0
  -17.7157   22.5589  -16.3539 O   0  0  0  0  0  0  0  0  0  0  0  0
  -20.4638    9.2705  -23.5286 Cl  0  0  0  0  0  0  0  0  0  0  0  0
  3  1  1  1
  1 12  1  6
  2 11  1  0
 16  2  2  0
  2 31  1  0
  3  4  1  0
  4  6  1  6
  5  9  2  0
 10  5  1  0
  6 36  2  0
  6 37  1  0
  7  8  2  0
  7 12  1  0
 32  7  1  0
  9  8  1  0
 13 10  1  0
 10 32  2  0
 11 13  1  0
 11 38  2  0
 14 12  1  1
 14 15  1  0
 15 21  1  1
 15 40  1  0
 17 16  1  0
 18 17  2  0
 18 30  1  0
 39 18  1  0
 20 19  1  1
 19 39  1  6
 20 22  1  0
 21 34  2  0
 21 35  1  0
 22 23  1  6
 23 24  1  6
 24 25  2  0
 24 29  1  0
 25 26  1  0
 26 27  2  0
 26 33  1  0
 27 28  1  0
 28 29  2  0
 29 41  1  0
 30 31  2  0
 32 40  1  0
M  END
$$$$
