
     RDKit          3D

 41 44  0  0  0  0  0  0  0  0999 V2000
  -26.1702   11.6414  -20.7477 C   0  0  0  0  0  0  0  0  0  0  0  0
  -18.7585   15.3798  -22.4925 C   0  0  0  0  0  0  0  0  0  0  0  0
  -27.0818   11.8640  -19.5735 C   0  0  0  0  0  0  0  0  0  0  0  0
  -26.3920   11.3541  -18.3284 C   0  0  0  0  0  0  0  0  0  0  0  0
  -21.4504   11.9685  -22.4165 C   0  0  0  0  0  0  0  0  0  0  0  0
  -27.3526   10.6785  -17.4251 C   0  0  0  0  0  0  0  0  0  0  0  0
  -23.9620   12.4788  -21.4616 C   0  0  0  0  0  0  0  0  0  0  0  0
  -23.6865   11.3107  -22.1560 C   0  0  0  0  0  0  0  0  0  0  0  0
  -22.4292   11.0314  -22.6466 C   0  0  0  0  0  0  0  0  0  0  0  0
  -21.6974   13.1421  -21.7270 C   0  0  0  0  0  0  0  0  0  0  0  0
  -19.7563   14.3510  -22.5948 C   0  0  0  0  0  0  0  0  0  0  0  0
  -25.2691   12.7388  -20.9712 N   0  0  0  0  0  0  0  0  0  0  0  0
  -20.6360   14.0677  -21.5307 N   0  0  0  0  0  0  0  0  0  0  0  0
  -25.6276   14.1196  -20.7232 C   0  0  0  0  0  0  0  0  0  0  0  0
  -24.4866   14.7215  -19.8984 C   0  0  1  0  0  0  0  0  0  0  0  0
  -17.8355   15.5636  -23.5146 C   0  0  0  0  0  0  0  0  0  0  0  0
  -16.8973   16.5381  -23.4190 C   0  0  0  0  0  0  0  0  0  0  0  0
  -16.7825   17.4115  -22.3212 C   0  0  0  0  0  0  0  0  0  0  0  0
  -15.1504   18.9212  -21.2794 C   0  0  0  0  0  0  0  0  0  0  0  0
  -14.1486   19.9662  -21.6313 C   0  0  0  0  0  0  0  0  0  0  0  0
  -24.4433   14.1684  -18.5448 C   0  0  0  0  0  0  0  0  0  0  0  0
  -12.9418   19.4299  -22.2904 C   0  0  0  0  0  0  0  0  0  0  0  0
  -12.0508   18.4814  -21.6038 C   0  0  0  0  0  0  0  0  0  0  0  0
  -10.9581   17.8465  -22.3272 C   0  0  0  0  0  0  0  0  0  0  0  0
   -9.6787   18.4117  -22.3007 C   0  0  0  0  0  0  0  0  0  0  0  0
   -8.6219   17.8986  -23.0067 C   0  0  0  0  0  0  0  0  0  0  0  0
   -8.8666   16.7769  -23.7648 C   0  0  0  0  0  0  0  0  0  0  0  0
  -10.1083   16.1865  -23.8217 C   0  0  0  0  0  0  0  0  0  0  0  0
  -11.1413   16.7318  -23.0991 C   0  0  0  0  0  0  0  0  0  0  0  0
  -17.7026   17.2079  -21.3344 C   0  0  0  0  0  0  0  0  0  0  0  0
  -18.6812   16.2052  -21.4126 C   0  0  0  0  0  0  0  0  0  0  0  0
  -22.9447   13.4160  -21.2418 C   0  0  0  0  0  0  0  0  0  0  0  0
   -7.3794   18.4701  -22.9634 F   0  0  0  0  0  0  0  0  0  0  0  0
  -23.4600   13.5004  -18.1629 O   0  0  0  0  0  0  0  0  0  0  0  0
  -25.4911   14.3795  -17.6735 O   0  0  0  0  0  0  0  0  0  0  0  0
  -27.0213    9.8244  -16.5656 O   0  0  0  0  0  0  0  0  0  0  0  0
  -28.6963   11.0043  -17.5303 O   0  0  0  0  0  0  0  0  0  0  0  0
  -19.8264   13.6898  -23.6930 O   0  0  0  0  0  0  0  0  0  0  0  0
  -15.8165   18.3380  -22.3426 O   0  0  0  0  0  0  0  0  0  0  0  0
  -23.2598   14.5662  -20.5459 O   0  0  0  0  0  0  0  0  0  0  0  0
  -12.7141   15.9463  -23.1991 Cl  0  0  0  0  0  0  0  0  0  0  0  0
  3  1  1  1
  1 12  1  6
  2 11  1  0
 16  2  2  0
  2 31  1  0
  3  4  1  0
  4  6  1  6
  5  9  2  0
 10  5  1  0
  6 36  2  0
  6 37  1  0
  7  8  2  0
  7 12  1  0
 32  7  1  0
  9  8  1  0
 13 10  1  0
 10 32  2  0
 11 13  1  0
 11 38  2  0
 14 12  1  1
 14 15  1  0
 15 21  1  1
 15 40  1  0
 17 16  1  0
 18 17  2  0
 18 30  1  0
 39 18  1  0
 20 19  1  1
 19 39  1  6
 20 22  1  0
 21 34  2  0
 21 35  1  0
 22 23  1  6
 23 24  1  6
 24 25  2  0
 24 29  1  0
 25 26  1  0
 26 27  2  0
 26 33  1  0
 27 28  1  0
 28 29  2  0
 29 41  1  0
 30 31  2  0
 32 40  1  0
M  END
$$$$
