
     RDKit          3D

 41 44  0  0  0  0  0  0  0  0999 V2000
  -23.4106   11.6789  -23.5618 C   0  0  0  0  0  0  0  0  0  0  0  0
  -18.9681   17.5245  -19.3490 C   0  0  0  0  0  0  0  0  0  0  0  0
  -24.3429   12.3223  -24.5680 C   0  0  0  0  0  0  0  0  0  0  0  0
  -23.6662   13.5694  -25.1064 C   0  0  0  0  0  0  0  0  0  0  0  0
  -19.2729   14.3561  -22.3249 C   0  0  0  0  0  0  0  0  0  0  0  0
  -24.7143   14.5359  -25.4988 C   0  0  0  0  0  0  0  0  0  0  0  0
  -21.8153   13.2231  -22.4665 C   0  0  0  0  0  0  0  0  0  0  0  0
  -20.9404   13.1117  -23.5095 C   0  0  0  0  0  0  0  0  0  0  0  0
  -19.6580   13.6727  -23.4608 C   0  0  0  0  0  0  0  0  0  0  0  0
  -20.1347   14.4927  -21.2418 C   0  0  0  0  0  0  0  0  0  0  0  0
  -18.9319   16.3872  -20.2639 C   0  0  0  0  0  0  0  0  0  0  0  0
  -23.0998   12.6338  -22.5460 N   0  0  0  0  0  0  0  0  0  0  0  0
  -19.7113   15.2138  -20.0709 N   0  0  0  0  0  0  0  0  0  0  0  0
  -24.0961   13.0182  -21.5675 C   0  0  0  0  0  0  0  0  0  0  0  0
  -23.6635   14.1482  -20.6789 C   0  0  1  0  0  0  0  0  0  0  0  0
  -19.8569   17.5589  -18.2840 C   0  0  0  0  0  0  0  0  0  0  0  0
  -19.9042   18.6293  -17.4230 C   0  0  0  0  0  0  0  0  0  0  0  0
  -19.0776   19.7238  -17.5662 C   0  0  0  0  0  0  0  0  0  0  0  0
  -18.3171   21.9093  -16.7254 C   0  0  0  0  0  0  0  0  0  0  0  0
  -18.7684   22.8683  -15.6251 C   0  0  0  0  0  0  0  0  0  0  0  0
  -24.4583   14.0948  -19.4384 C   0  0  0  0  0  0  0  0  0  0  0  0
  -17.6422   23.1446  -14.6567 C   0  0  0  0  0  0  0  0  0  0  0  0
  -17.3283   24.6275  -14.7850 C   0  0  0  0  0  0  0  0  0  0  0  0
  -16.7533   24.9786  -16.1058 C   0  0  0  0  0  0  0  0  0  0  0  0
  -17.3084   26.0322  -16.8314 C   0  0  0  0  0  0  0  0  0  0  0  0
  -16.8071   26.4066  -18.0708 C   0  0  0  0  0  0  0  0  0  0  0  0
  -15.7386   25.6897  -18.5491 C   0  0  0  0  0  0  0  0  0  0  0  0
  -15.1836   24.6374  -17.8245 C   0  0  0  0  0  0  0  0  0  0  0  0
  -15.6879   24.2721  -16.5938 C   0  0  0  0  0  0  0  0  0  0  0  0
  -18.1866   19.7055  -18.6213 C   0  0  0  0  0  0  0  0  0  0  0  0
  -18.1381   18.6141  -19.4985 C   0  0  0  0  0  0  0  0  0  0  0  0
  -21.3727   13.9225  -21.3516 C   0  0  0  0  0  0  0  0  0  0  0  0
  -17.3193   27.4240  -18.8019 F   0  0  0  0  0  0  0  0  0  0  0  0
  -24.1846   14.8378  -18.4805 O   0  0  0  0  0  0  0  0  0  0  0  0
  -25.5130   13.2139  -19.3380 O   0  0  0  0  0  0  0  0  0  0  0  0
  -25.6785   14.8226  -24.7143 O   0  0  0  0  0  0  0  0  0  0  0  0
  -24.6521   15.1483  -26.7545 O   0  0  0  0  0  0  0  0  0  0  0  0
  -18.1713   16.4669  -21.2608 O   0  0  0  0  0  0  0  0  0  0  0  0
  -19.1532   20.7844  -16.6808 O   0  0  0  0  0  0  0  0  0  0  0  0
  -22.2779   14.0285  -20.3025 O   0  0  0  0  0  0  0  0  0  0  0  0
  -14.9407   22.9340  -15.7309 Cl  0  0  0  0  0  0  0  0  0  0  0  0
  1  3  1  0
 12  1  1  0
  2 11  1  0
 16  2  2  0
  2 31  1  0
  3  4  1  0
  4  6  1  0
  5  9  2  0
 10  5  1  0
  6 36  2  0
  6 37  1  0
  7  8  2  0
  7 12  1  0
 32  7  1  0
  9  8  1  0
 13 10  1  0
 10 32  2  0
 11 13  1  0
 11 38  2  0
 12 14  1  0
 14 15  1  0
 15 21  1  1
 15 40  1  0
 17 16  1  0
 18 17  2  0
 18 30  1  0
 39 18  1  0
 19 20  1  0
 19 39  1  0
 20 22  1  0
 21 34  2  0
 21 35  1  0
 22 23  1  0
 23 24  1  0
 24 25  2  0
 24 29  1  0
 25 26  1  0
 26 27  2  0
 26 33  1  0
 27 28  1  0
 28 29  2  0
 29 41  1  0
 30 31  2  0
 32 40  1  0
M  END
$$$$
