
     RDKit          3D

 41 44  0  0  0  0  0  0  0  0999 V2000
  -25.0386   11.8588  -19.3124 C   0  0  0  0  0  0  0  0  0  0  0  0
  -18.8226   17.6442  -18.4821 C   0  0  0  0  0  0  0  0  0  0  0  0
  -25.5491   10.7724  -20.2171 C   0  0  0  0  0  0  0  0  0  0  0  0
  -26.6547   11.3442  -21.0754 C   0  0  0  0  0  0  0  0  0  0  0  0
  -21.0841   14.2453  -17.3541 C   0  0  0  0  0  0  0  0  0  0  0  0
  -27.0808   10.3751  -22.1119 C   0  0  0  0  0  0  0  0  0  0  0  0
  -22.9614   13.1574  -19.0192 C   0  0  0  0  0  0  0  0  0  0  0  0
  -22.7732   12.6639  -17.7372 C   0  0  0  0  0  0  0  0  0  0  0  0
  -21.8338   13.1954  -16.8801 C   0  0  0  0  0  0  0  0  0  0  0  0
  -21.2507   14.7573  -18.6284 C   0  0  0  0  0  0  0  0  0  0  0  0
  -19.6662   16.5448  -18.1024 C   0  0  0  0  0  0  0  0  0  0  0  0
  -23.9358   12.5858  -19.8796 N   0  0  0  0  0  0  0  0  0  0  0  0
  -20.4353   15.8424  -19.0519 N   0  0  0  0  0  0  0  0  0  0  0  0
  -23.7581   12.7679  -21.3051 C   0  0  0  0  0  0  0  0  0  0  0  0
  -23.4882   14.2596  -21.5204 C   0  0  1  0  0  0  0  0  0  0  0  0
  -18.7514   18.0455  -19.8104 C   0  0  0  0  0  0  0  0  0  0  0  0
  -17.9584   19.0862  -20.1667 C   0  0  0  0  0  0  0  0  0  0  0  0
  -17.1716   19.8196  -19.2588 C   0  0  0  0  0  0  0  0  0  0  0  0
  -15.7535   21.8103  -19.0260 C   0  0  0  0  0  0  0  0  0  0  0  0
  -15.7934   23.1797  -19.6115 C   0  0  0  0  0  0  0  0  0  0  0  0
  -24.6755   15.0714  -21.2536 C   0  0  0  0  0  0  0  0  0  0  0  0
  -15.8193   23.1910  -21.0872 C   0  0  0  0  0  0  0  0  0  0  0  0
  -15.3777   24.3675  -21.8526 C   0  0  0  0  0  0  0  0  0  0  0  0
  -14.5313   24.2036  -23.0261 C   0  0  0  0  0  0  0  0  0  0  0  0
  -15.0637   24.3935  -24.3058 C   0  0  0  0  0  0  0  0  0  0  0  0
  -14.3384   24.1973  -25.4520 C   0  0  0  0  0  0  0  0  0  0  0  0
  -13.0312   23.7958  -25.2995 C   0  0  0  0  0  0  0  0  0  0  0  0
  -12.4648   23.5964  -24.0613 C   0  0  0  0  0  0  0  0  0  0  0  0
  -13.2259   23.8039  -22.9370 C   0  0  0  0  0  0  0  0  0  0  0  0
  -17.2629   19.4035  -17.9625 C   0  0  0  0  0  0  0  0  0  0  0  0
  -18.0764   18.3288  -17.5722 C   0  0  0  0  0  0  0  0  0  0  0  0
  -22.1828   14.2284  -19.4756 C   0  0  0  0  0  0  0  0  0  0  0  0
  -14.8825   24.3904  -26.6925 F   0  0  0  0  0  0  0  0  0  0  0  0
  -25.0956   15.2180  -20.0869 O   0  0  0  0  0  0  0  0  0  0  0  0
  -25.3454   15.6854  -22.2908 O   0  0  0  0  0  0  0  0  0  0  0  0
  -28.0467   10.5659  -22.8919 O   0  0  0  0  0  0  0  0  0  0  0  0
  -26.3759    9.1870  -22.2320 O   0  0  0  0  0  0  0  0  0  0  0  0
  -19.7010   16.2153  -16.8620 O   0  0  0  0  0  0  0  0  0  0  0  0
  -16.4312   20.8307  -19.7296 O   0  0  0  0  0  0  0  0  0  0  0  0
  -22.4011   14.6906  -20.7582 O   0  0  0  0  0  0  0  0  0  0  0  0
  -12.4636   23.5379  -21.3722 Cl  0  0  0  0  0  0  0  0  0  0  0  0
  3  1  1  1
  1 12  1  6
  2 11  1  0
 16  2  2  0
  2 31  1  0
  3  4  1  0
  4  6  1  6
  5  9  2  0
 10  5  1  0
  6 36  2  0
  6 37  1  0
  7  8  2  0
  7 12  1  0
 32  7  1  0
  9  8  1  0
 13 10  1  0
 10 32  2  0
 11 13  1  0
 11 38  2  0
 14 12  1  1
 14 15  1  0
 15 21  1  1
 15 40  1  0
 17 16  1  0
 18 17  2  0
 18 30  1  0
 39 18  1  0
 20 19  1  1
 19 39  1  6
 20 22  1  0
 21 34  2  0
 21 35  1  0
 22 23  1  6
 23 24  1  6
 24 25  2  0
 24 29  1  0
 25 26  1  0
 26 27  2  0
 26 33  1  0
 27 28  1  0
 28 29  2  0
 29 41  1  0
 30 31  2  0
 32 40  1  0
M  END
$$$$
