
     RDKit          3D

 41 44  0  0  0  0  0  0  0  0999 V2000
  -14.6709   24.3897  -17.0924 C   0  0  0  0  0  0  0  0  0  0  0  0
  -18.7709   17.8117  -20.7171 C   0  0  0  0  0  0  0  0  0  0  0  0
  -15.5780   25.5387  -16.7016 C   0  0  0  0  0  0  0  0  0  0  0  0
  -16.6910   25.6303  -17.7290 C   0  0  0  0  0  0  0  0  0  0  0  0
  -16.5924   21.5995  -20.8793 C   0  0  0  0  0  0  0  0  0  0  0  0
  -17.7085   26.5806  -17.2305 C   0  0  0  0  0  0  0  0  0  0  0  0
  -15.8340   22.6461  -18.4100 C   0  0  0  0  0  0  0  0  0  0  0  0
  -15.2460   23.0795  -19.5642 C   0  0  0  0  0  0  0  0  0  0  0  0
  -15.6109   22.5681  -20.8161 C   0  0  0  0  0  0  0  0  0  0  0  0
  -17.2146   21.1308  -19.7270 C   0  0  0  0  0  0  0  0  0  0  0  0
  -18.0422   19.0760  -20.7684 C   0  0  0  0  0  0  0  0  0  0  0  0
  -15.4480   23.1933  -17.1630 N   0  0  0  0  0  0  0  0  0  0  0  0
  -18.2316   20.1172  -19.8189 N   0  0  0  0  0  0  0  0  0  0  0  0
  -15.8641   22.5134  -15.9537 C   0  0  0  0  0  0  0  0  0  0  0  0
  -16.5265   21.1896  -16.2040 C   0  0  1  0  0  0  0  0  0  0  0  0
  -19.6909   17.5556  -19.7105 C   0  0  0  0  0  0  0  0  0  0  0  0
  -20.3747   16.3650  -19.6491 C   0  0  0  0  0  0  0  0  0  0  0  0
  -20.1879   15.3622  -20.5773 C   0  0  0  0  0  0  0  0  0  0  0  0
  -21.8704   13.7655  -21.4024 C   0  0  0  0  0  0  0  0  0  0  0  0
  -22.0983   12.2682  -21.2018 C   0  0  0  0  0  0  0  0  0  0  0  0
  -17.3628   20.8598  -15.0356 C   0  0  0  0  0  0  0  0  0  0  0  0
  -22.0806   11.5391  -22.5248 C   0  0  0  0  0  0  0  0  0  0  0  0
  -23.5192   11.5259  -23.0196 C   0  0  0  0  0  0  0  0  0  0  0  0
  -24.3585   10.5291  -22.3124 C   0  0  0  0  0  0  0  0  0  0  0  0
  -23.9699    9.1897  -22.3124 C   0  0  0  0  0  0  0  0  0  0  0  0
  -24.7155    8.2153  -21.6626 C   0  0  0  0  0  0  0  0  0  0  0  0
  -25.8545    8.6325  -21.0201 C   0  0  0  0  0  0  0  0  0  0  0  0
  -26.2428    9.9703  -21.0197 C   0  0  0  0  0  0  0  0  0  0  0  0
  -25.4962   10.9320  -21.6678 C   0  0  0  0  0  0  0  0  0  0  0  0
  -19.2755   15.6011  -21.5863 C   0  0  0  0  0  0  0  0  0  0  0  0
  -18.5789   16.8150  -21.6490 C   0  0  0  0  0  0  0  0  0  0  0  0
  -16.8134   21.6700  -18.5361 C   0  0  0  0  0  0  0  0  0  0  0  0
  -24.3684    6.9073  -21.6405 F   0  0  0  0  0  0  0  0  0  0  0  0
  -18.1708   19.9167  -15.0834 O   0  0  0  0  0  0  0  0  0  0  0  0
  -17.2497   21.6027  -13.8807 O   0  0  0  0  0  0  0  0  0  0  0  0
  -18.0066   26.6427  -15.9918 O   0  0  0  0  0  0  0  0  0  0  0  0
  -18.3603   27.4283  -18.1318 O   0  0  0  0  0  0  0  0  0  0  0  0
  -17.2151   19.2330  -21.7011 O   0  0  0  0  0  0  0  0  0  0  0  0
  -20.8932   14.1756  -20.4841 O   0  0  0  0  0  0  0  0  0  0  0  0
  -17.3972   21.2390  -17.3509 O   0  0  0  0  0  0  0  0  0  0  0  0
  -26.0425   12.6033  -21.6285 Cl  0  0  0  0  0  0  0  0  0  0  0  0
  1  3  1  0
 12  1  1  0
  2 11  1  0
 16  2  2  0
  2 31  1  0
  3  4  1  0
  4  6  1  0
  5  9  2  0
 10  5  1  0
  6 36  2  0
  6 37  1  0
  7  8  2  0
  7 12  1  0
 32  7  1  0
  9  8  1  0
 13 10  1  0
 10 32  2  0
 11 13  1  0
 11 38  2  0
 12 14  1  0
 14 15  1  0
 15 21  1  1
 15 40  1  0
 17 16  1  0
 18 17  2  0
 18 30  1  0
 39 18  1  0
 19 20  1  0
 19 39  1  0
 20 22  1  0
 21 34  2  0
 21 35  1  0
 22 23  1  0
 23 24  1  0
 24 25  2  0
 24 29  1  0
 25 26  1  0
 26 27  2  0
 26 33  1  0
 27 28  1  0
 28 29  2  0
 29 41  1  0
 30 31  2  0
 32 40  1  0
M  END
$$$$
