
     RDKit          3D

 41 44  0  0  0  0  0  0  0  0999 V2000
  -15.6604   27.1954  -17.7328 C   0  0  0  0  0  0  0  0  0  0  0  0
  -18.6711   19.2294  -17.8684 C   0  0  0  0  0  0  0  0  0  0  0  0
  -16.5867   28.2137  -17.1292 C   0  0  0  0  0  0  0  0  0  0  0  0
  -17.3879   28.8510  -18.2417 C   0  0  0  0  0  0  0  0  0  0  0  0
  -17.5022   22.7795  -16.2243 C   0  0  0  0  0  0  0  0  0  0  0  0
  -16.7585   30.1126  -18.6973 C   0  0  0  0  0  0  0  0  0  0  0  0
  -16.7478   24.9820  -17.6596 C   0  0  0  0  0  0  0  0  0  0  0  0
  -16.9002   25.0455  -16.2829 C   0  0  0  0  0  0  0  0  0  0  0  0
  -17.2792   23.9494  -15.5383 C   0  0  0  0  0  0  0  0  0  0  0  0
  -17.3578   22.6879  -17.5971 C   0  0  0  0  0  0  0  0  0  0  0  0
  -17.7837   20.2832  -17.4605 C   0  0  0  0  0  0  0  0  0  0  0  0
  -16.3589   26.1303  -18.3991 N   0  0  0  0  0  0  0  0  0  0  0  0
  -17.6100   21.4448  -18.2396 N   0  0  0  0  0  0  0  0  0  0  0  0
  -16.6973   26.1652  -19.8065 C   0  0  0  0  0  0  0  0  0  0  0  0
  -16.2469   24.8246  -20.3932 C   0  0  1  0  0  0  0  0  0  0  0  0
  -19.3343   19.3054  -19.0870 C   0  0  0  0  0  0  0  0  0  0  0  0
  -20.1679   18.3078  -19.4730 C   0  0  0  0  0  0  0  0  0  0  0  0
  -20.4224   17.1567  -18.7040 C   0  0  0  0  0  0  0  0  0  0  0  0
  -22.1321   16.3390  -20.2650 C   0  0  0  0  0  0  0  0  0  0  0  0
  -21.9504   15.3342  -21.3500 C   0  0  0  0  0  0  0  0  0  0  0  0
  -14.7891   24.7097  -20.4314 C   0  0  0  0  0  0  0  0  0  0  0  0
  -21.1012   14.1913  -20.9610 C   0  0  0  0  0  0  0  0  0  0  0  0
  -21.5394   12.8031  -21.1747 C   0  0  0  0  0  0  0  0  0  0  0  0
  -22.1993   12.4252  -22.4165 C   0  0  0  0  0  0  0  0  0  0  0  0
  -22.1738   13.2912  -23.5150 C   0  0  0  0  0  0  0  0  0  0  0  0
  -22.8242   13.0231  -24.6913 C   0  0  0  0  0  0  0  0  0  0  0  0
  -23.5236   11.8402  -24.7594 C   0  0  0  0  0  0  0  0  0  0  0  0
  -23.5770   10.9577  -23.7048 C   0  0  0  0  0  0  0  0  0  0  0  0
  -22.9113   11.2637  -22.5430 C   0  0  0  0  0  0  0  0  0  0  0  0
  -19.7567   17.1095  -17.5139 C   0  0  0  0  0  0  0  0  0  0  0  0
  -18.8903   18.1308  -17.0948 C   0  0  0  0  0  0  0  0  0  0  0  0
  -16.9818   23.7761  -18.3324 C   0  0  0  0  0  0  0  0  0  0  0  0
  -22.7833   13.8868  -25.7517 F   0  0  0  0  0  0  0  0  0  0  0  0
  -14.0778   25.3947  -19.6674 O   0  0  0  0  0  0  0  0  0  0  0  0
  -14.1830   23.8409  -21.3144 O   0  0  0  0  0  0  0  0  0  0  0  0
  -17.4040   31.0970  -19.1354 O   0  0  0  0  0  0  0  0  0  0  0  0
  -15.3770   30.2180  -18.6384 O   0  0  0  0  0  0  0  0  0  0  0  0
  -17.1468   20.1376  -16.3553 O   0  0  0  0  0  0  0  0  0  0  0  0
  -21.2633   16.2369  -19.1932 O   0  0  0  0  0  0  0  0  0  0  0  0
  -16.8190   23.7545  -19.7034 O   0  0  0  0  0  0  0  0  0  0  0  0
  -23.0047   10.1082  -21.2177 Cl  0  0  0  0  0  0  0  0  0  0  0  0
  3  1  1  1
  1 12  1  6
  2 11  1  0
 16  2  2  0
  2 31  1  0
  3  4  1  0
  4  6  1  6
  5  9  2  0
 10  5  1  0
  6 36  2  0
  6 37  1  0
  7  8  2  0
  7 12  1  0
 32  7  1  0
  9  8  1  0
 13 10  1  0
 10 32  2  0
 11 13  1  0
 11 38  2  0
 14 12  1  1
 14 15  1  0
 15 21  1  1
 15 40  1  0
 17 16  1  0
 18 17  2  0
 18 30  1  0
 39 18  1  0
 20 19  1  1
 19 39  1  6
 20 22  1  0
 21 34  2  0
 21 35  1  0
 22 23  1  6
 23 24  1  6
 24 25  2  0
 24 29  1  0
 25 26  1  0
 26 27  2  0
 26 33  1  0
 27 28  1  0
 28 29  2  0
 29 41  1  0
 30 31  2  0
 32 40  1  0
M  END
$$$$
