
     RDKit          3D

 41 44  0  0  0  0  0  0  0  0999 V2000
  -22.6312   19.0596  -15.0925 C   0  0  0  0  0  0  0  0  0  0  0  0
  -19.8851   15.6699  -22.4286 C   0  0  0  0  0  0  0  0  0  0  0  0
  -22.1138   20.4688  -15.0172 C   0  0  0  0  0  0  0  0  0  0  0  0
  -20.6507   20.4220  -14.6386 C   0  0  0  0  0  0  0  0  0  0  0  0
  -21.6316   18.5800  -19.9853 C   0  0  0  0  0  0  0  0  0  0  0  0
  -20.1134   21.7846  -14.4160 C   0  0  0  0  0  0  0  0  0  0  0  0
  -21.7260   18.3179  -17.2645 C   0  0  0  0  0  0  0  0  0  0  0  0
  -22.0894   19.5061  -17.8797 C   0  0  0  0  0  0  0  0  0  0  0  0
  -22.0502   19.6622  -19.2485 C   0  0  0  0  0  0  0  0  0  0  0  0
  -21.2633   17.3830  -19.3978 C   0  0  0  0  0  0  0  0  0  0  0  0
  -20.7294   16.5011  -21.6158 C   0  0  0  0  0  0  0  0  0  0  0  0
  -21.7744   18.1896  -15.8511 N   0  0  0  0  0  0  0  0  0  0  0  0
  -20.8361   16.3074  -20.2238 N   0  0  0  0  0  0  0  0  0  0  0  0
  -20.9403   17.1741  -15.2430 C   0  0  0  0  0  0  0  0  0  0  0  0
  -21.1898   15.8828  -16.0270 C   0  0  1  0  0  0  0  0  0  0  0  0
  -19.2067   14.5970  -21.8638 C   0  0  0  0  0  0  0  0  0  0  0  0
  -18.4139   13.8103  -22.6330 C   0  0  0  0  0  0  0  0  0  0  0  0
  -18.2180   14.0051  -24.0131 C   0  0  0  0  0  0  0  0  0  0  0  0
  -17.4262   12.8110  -26.0070 C   0  0  0  0  0  0  0  0  0  0  0  0
  -16.3457   11.8863  -26.4510 C   0  0  0  0  0  0  0  0  0  0  0  0
  -22.5342   15.3555  -15.7931 C   0  0  0  0  0  0  0  0  0  0  0  0
  -15.0298   12.1844  -25.8528 C   0  0  0  0  0  0  0  0  0  0  0  0
  -13.8449   11.3683  -26.1611 C   0  0  0  0  0  0  0  0  0  0  0  0
  -12.5308   11.7729  -25.6821 C   0  0  0  0  0  0  0  0  0  0  0  0
  -12.0108   11.2160  -24.5088 C   0  0  0  0  0  0  0  0  0  0  0  0
  -10.8083   11.5961  -23.9720 C   0  0  0  0  0  0  0  0  0  0  0  0
  -10.1082   12.5717  -24.6437 C   0  0  0  0  0  0  0  0  0  0  0  0
  -10.5798   13.1481  -25.8008 C   0  0  0  0  0  0  0  0  0  0  0  0
  -11.7897   12.7390  -26.3062 C   0  0  0  0  0  0  0  0  0  0  0  0
  -18.8974   15.0648  -24.5396 C   0  0  0  0  0  0  0  0  0  0  0  0
  -19.7223   15.8918  -23.7619 C   0  0  0  0  0  0  0  0  0  0  0  0
  -21.3033   17.2314  -18.0407 C   0  0  0  0  0  0  0  0  0  0  0  0
  -10.3213   11.0353  -22.8229 F   0  0  0  0  0  0  0  0  0  0  0  0
  -23.3093   15.9234  -14.9958 O   0  0  0  0  0  0  0  0  0  0  0  0
  -22.9610   14.2222  -16.4528 O   0  0  0  0  0  0  0  0  0  0  0  0
  -20.6179   22.6128  -13.6176 O   0  0  0  0  0  0  0  0  0  0  0  0
  -18.9885   22.1732  -15.1277 O   0  0  0  0  0  0  0  0  0  0  0  0
  -21.3908   17.4354  -22.1971 O   0  0  0  0  0  0  0  0  0  0  0  0
  -17.4135   13.1588  -24.6680 O   0  0  0  0  0  0  0  0  0  0  0  0
  -20.9503   16.0659  -17.3899 O   0  0  0  0  0  0  0  0  0  0  0  0
  -12.3573   13.5013  -27.7885 Cl  0  0  0  0  0  0  0  0  0  0  0  0
  3  1  1  1
  1 12  1  6
  2 11  1  0
 16  2  2  0
  2 31  1  0
  3  4  1  0
  4  6  1  6
  5  9  2  0
 10  5  1  0
  6 36  2  0
  6 37  1  0
  7  8  2  0
  7 12  1  0
 32  7  1  0
  9  8  1  0
 13 10  1  0
 10 32  2  0
 11 13  1  0
 11 38  2  0
 14 12  1  1
 14 15  1  0
 15 21  1  6
 15 40  1  0
 17 16  1  0
 18 17  2  0
 18 30  1  0
 39 18  1  0
 20 19  1  1
 19 39  1  6
 20 22  1  0
 21 34  2  0
 21 35  1  0
 22 23  1  6
 23 24  1  6
 24 25  2  0
 24 29  1  0
 25 26  1  0
 26 27  2  0
 26 33  1  0
 27 28  1  0
 28 29  2  0
 29 41  1  0
 30 31  2  0
 32 40  1  0
M  END
$$$$
