
     RDKit          3D

 41 44  0  0  0  0  0  0  0  0999 V2000
  -16.9374   26.1033  -16.1864 C   0  0  0  0  0  0  0  0  0  0  0  0
  -20.3967   18.5019  -17.6760 C   0  0  0  0  0  0  0  0  0  0  0  0
  -17.0562   27.3251  -17.0745 C   0  0  0  0  0  0  0  0  0  0  0  0
  -15.6892   27.6100  -17.6686 C   0  0  0  0  0  0  0  0  0  0  0  0
  -20.7594   22.8508  -16.9815 C   0  0  0  0  0  0  0  0  0  0  0  0
  -15.8244   28.7174  -18.6393 C   0  0  0  0  0  0  0  0  0  0  0  0
  -18.3364   24.2281  -16.9962 C   0  0  0  0  0  0  0  0  0  0  0  0
  -19.4610   24.7961  -16.4685 C   0  0  0  0  0  0  0  0  0  0  0  0
  -20.6893   24.1231  -16.4502 C   0  0  0  0  0  0  0  0  0  0  0  0
  -19.6372   22.2381  -17.5292 C   0  0  0  0  0  0  0  0  0  0  0  0
  -20.3209   19.9021  -17.2693 C   0  0  0  0  0  0  0  0  0  0  0  0
  -17.1092   24.9334  -16.9878 N   0  0  0  0  0  0  0  0  0  0  0  0
  -19.7373   20.9131  -18.0810 N   0  0  0  0  0  0  0  0  0  0  0  0
  -16.0242   24.4382  -17.8096 C   0  0  0  0  0  0  0  0  0  0  0  0
  -16.4200   23.3053  -18.7117 C   0  0  1  0  0  0  0  0  0  0  0  0
  -20.9223   17.5373  -16.8283 C   0  0  0  0  0  0  0  0  0  0  0  0
  -20.9894   16.2155  -17.1992 C   0  0  0  0  0  0  0  0  0  0  0  0
  -20.5413   15.7736  -18.4263 C   0  0  0  0  0  0  0  0  0  0  0  0
  -20.1438   13.8961  -19.9686 C   0  0  0  0  0  0  0  0  0  0  0  0
  -20.3520   12.3835  -19.9164 C   0  0  0  0  0  0  0  0  0  0  0  0
  -15.2058   22.5493  -19.0686 C   0  0  0  0  0  0  0  0  0  0  0  0
  -20.9970   11.8848  -21.1883 C   0  0  0  0  0  0  0  0  0  0  0  0
  -21.9613   12.9757  -21.6293 C   0  0  0  0  0  0  0  0  0  0  0  0
  -22.2070   12.9656  -23.0914 C   0  0  0  0  0  0  0  0  0  0  0  0
  -23.3053   12.2672  -23.5922 C   0  0  0  0  0  0  0  0  0  0  0  0
  -23.5852   12.2281  -24.9515 C   0  0  0  0  0  0  0  0  0  0  0  0
  -22.7288   12.9093  -25.7802 C   0  0  0  0  0  0  0  0  0  0  0  0
  -21.6317   13.6072  -25.2804 C   0  0  0  0  0  0  0  0  0  0  0  0
  -21.3610   13.6409  -23.9284 C   0  0  0  0  0  0  0  0  0  0  0  0
  -20.0152   16.7212  -19.2824 C   0  0  0  0  0  0  0  0  0  0  0  0
  -19.9474   18.0686  -18.9044 C   0  0  0  0  0  0  0  0  0  0  0  0
  -18.4684   22.9478  -17.5169 C   0  0  0  0  0  0  0  0  0  0  0  0
  -24.6421   11.5622  -25.4726 F   0  0  0  0  0  0  0  0  0  0  0  0
  -15.2471   21.3141  -19.2007 O   0  0  0  0  0  0  0  0  0  0  0  0
  -14.0145   23.2154  -19.2569 O   0  0  0  0  0  0  0  0  0  0  0  0
  -15.6342   28.5319  -19.8869 O   0  0  0  0  0  0  0  0  0  0  0  0
  -16.1655   29.9950  -18.1844 O   0  0  0  0  0  0  0  0  0  0  0  0
  -20.7975   20.2085  -16.1478 O   0  0  0  0  0  0  0  0  0  0  0  0
  -20.6236   14.4349  -18.7661 O   0  0  0  0  0  0  0  0  0  0  0  0
  -17.3147   22.3882  -18.0526 O   0  0  0  0  0  0  0  0  0  0  0  0
  -19.9594   14.5407  -23.3632 Cl  0  0  0  0  0  0  0  0  0  0  0  0
  1  3  1  0
 12  1  1  0
  2 11  1  0
 16  2  2  0
  2 31  1  0
  3  4  1  0
  4  6  1  0
  5  9  2  0
 10  5  1  0
  6 36  2  0
  6 37  1  0
  7  8  2  0
  7 12  1  0
 32  7  1  0
  9  8  1  0
 13 10  1  0
 10 32  2  0
 11 13  1  0
 11 38  2  0
 12 14  1  0
 14 15  1  0
 15 21  1  1
 15 40  1  0
 17 16  1  0
 18 17  2  0
 18 30  1  0
 39 18  1  0
 19 20  1  0
 19 39  1  0
 20 22  1  0
 21 34  2  0
 21 35  1  0
 22 23  1  0
 23 24  1  0
 24 25  2  0
 24 29  1  0
 25 26  1  0
 26 27  2  0
 26 33  1  0
 27 28  1  0
 28 29  2  0
 29 41  1  0
 30 31  2  0
 32 40  1  0
M  END
$$$$
