
     RDKit          3D

 31 35  0  0  0  0  0  0  0  0999 V2000
  -21.8385  -21.1635   12.8907 C   0  0  0  0  0  0  0  0  0  0  0  0
  -24.7661  -21.5856   10.8234 C   0  0  0  0  0  0  0  0  0  0  0  0
  -24.9584  -19.4819    9.5019 C   0  0  0  0  0  0  0  0  0  0  0  0
  -26.5992  -19.1580   11.2995 C   0  0  0  0  0  0  0  0  0  0  0  0
  -30.1211  -17.8927   11.5285 C   0  0  0  0  0  0  0  0  0  0  0  0
  -31.1894  -19.7888   10.4918 C   0  0  0  0  0  0  0  0  0  0  0  0
  -32.6689  -20.9256   12.1724 C   0  0  0  0  0  0  0  0  0  0  0  0
  -32.4107  -18.4570   11.9625 C   0  0  0  0  0  0  0  0  0  0  0  0
  -27.2805  -18.5662    9.1327 C   0  0  0  0  0  0  0  0  0  0  0  0
  -17.2936  -15.9591   12.5972 N   0  0  0  0  0  0  0  0  0  0  0  0
  -18.6001  -16.4380   12.3550 C   0  0  0  0  0  0  0  0  0  0  0  0
  -19.6834  -15.7038   11.9853 N   0  0  0  0  0  0  0  0  0  0  0  0
  -20.7400  -16.4873   11.8485 N   0  0  0  0  0  0  0  0  0  0  0  0
  -20.4176  -17.7657   12.1167 C   0  0  0  0  0  0  0  0  0  0  0  0
  -21.3014  -18.9502   12.0813 C   0  0  0  0  0  0  0  0  0  0  0  0
  -22.3825  -18.9901   11.2533 C   0  0  0  0  0  0  0  0  0  0  0  0
  -23.2255  -20.0939   11.2047 C   0  0  0  0  0  0  0  0  0  0  0  0
  -22.9258  -21.1614   12.0345 C   0  0  0  0  0  0  0  0  0  0  0  0
  -21.0423  -20.0371   12.8899 C   0  0  0  0  0  0  0  0  0  0  0  0
  -23.9200  -22.1043   11.7774 C   0  0  0  0  0  0  0  0  0  0  0  0
  -24.3285  -20.3547   10.4824 N   0  0  0  0  0  0  0  0  0  0  0  0
  -26.3088  -19.0548    9.9581 C   0  0  0  0  0  0  0  0  0  0  0  0
  -27.8215  -18.7881   11.8192 C   0  0  0  0  0  0  0  0  0  0  0  0
  -28.8151  -18.2911   10.9914 C   0  0  0  0  0  0  0  0  0  0  0  0
  -31.0597  -18.9624   11.6715 N   0  0  2  0  0  4  0  0  0  0  0  0
  -32.2394  -20.8324   10.7268 C   0  0  0  0  0  0  0  0  0  0  0  0
  -33.1460  -19.5680   12.6649 C   0  0  0  0  0  0  0  0  0  0  0  0
  -28.5253  -18.1872    9.6472 C   0  0  0  0  0  0  0  0  0  0  0  0
  -19.0759  -17.7392   12.4349 C   0  0  0  0  0  0  0  0  0  0  0  0
  -18.3079  -18.9048   12.7933 C   0  0  0  0  0  0  0  0  0  0  0  0
  -17.7117  -19.8462   13.0797 N   0  0  0  0  0  0  0  0  0  0  0  0
 18  1  2  0
  1 19  1  0
  2 20  2  0
 21  2  1  0
  3 21  1  0
 22  3  1  0
  4 22  2  0
 23  4  1  0
 24  5  1  0
 25  5  1  6
 25  6  1  0
  6 26  1  0
 26  7  1  0
 27  7  1  0
 25  8  1  0
  8 27  1  0
 22  9  1  0
  9 28  2  0
 11 10  1  0
 11 12  1  0
 29 11  2  0
 13 12  1  0
 14 13  2  0
 15 14  1  0
 14 29  1  0
 16 15  1  0
 15 19  2  0
 17 16  2  0
 17 18  1  0
 21 17  1  0
 18 20  1  0
 23 24  2  0
 24 28  1  0
 29 30  1  0
 30 31  3  0
M  CHG  1  25   1
M  END
$$$$
