
     RDKit          3D

 31 35  0  0  0  0  0  0  0  0999 V2000
  -20.2738  -15.2225   13.9939 C   0  0  0  0  0  0  0  0  0  0  0  0
  -22.6911  -17.7329   13.0575 C   0  0  0  0  0  0  0  0  0  0  0  0
  -21.5369  -19.9193   13.3690 C   0  0  0  0  0  0  0  0  0  0  0  0
  -23.2381  -21.2927   12.2517 C   0  0  0  0  0  0  0  0  0  0  0  0
  -24.1076  -22.1346    8.7030 C   0  0  0  0  0  0  0  0  0  0  0  0
  -26.1674  -20.9114    8.9719 C   0  0  0  0  0  0  0  0  0  0  0  0
  -26.6420  -19.6191    6.8717 C   0  0  0  0  0  0  0  0  0  0  0  0
  -25.7042  -21.9261    6.9264 C   0  0  0  0  0  0  0  0  0  0  0  0
  -21.7114  -20.1727   10.8645 C   0  0  0  0  0  0  0  0  0  0  0  0
  -13.6733  -16.1819   15.7518 N   0  0  0  0  0  0  0  0  0  0  0  0
  -14.9556  -16.7374   15.5463 C   0  0  0  0  0  0  0  0  0  0  0  0
  -15.3441  -18.0139   15.8084 N   0  0  0  0  0  0  0  0  0  0  0  0
  -16.6175  -18.1773   15.4908 N   0  0  0  0  0  0  0  0  0  0  0  0
  -17.1341  -17.0329   15.0077 C   0  0  0  0  0  0  0  0  0  0  0  0
  -18.5148  -16.7878   14.5397 C   0  0  0  0  0  0  0  0  0  0  0  0
  -19.3360  -17.8249   14.2143 C   0  0  0  0  0  0  0  0  0  0  0  0
  -20.6370  -17.6161   13.7726 C   0  0  0  0  0  0  0  0  0  0  0  0
  -21.0737  -16.3055   13.6739 C   0  0  0  0  0  0  0  0  0  0  0  0
  -18.9933  -15.4993   14.4257 C   0  0  0  0  0  0  0  0  0  0  0  0
  -22.3870  -16.3997   13.2160 C   0  0  0  0  0  0  0  0  0  0  0  0
  -21.6105  -18.4655   13.4020 N   0  0  0  0  0  0  0  0  0  0  0  0
  -22.1527  -20.4559   12.1252 C   0  0  0  0  0  0  0  0  0  0  0  0
  -23.8772  -21.8404   11.1596 C   0  0  0  0  0  0  0  0  0  0  0  0
  -23.4384  -21.5602    9.8757 C   0  0  0  0  0  0  0  0  0  0  0  0
  -25.0802  -21.2817    8.0930 N   0  0  2  0  0  4  0  0  0  0  0  0
  -27.1567  -20.0758    8.2168 C   0  0  0  0  0  0  0  0  0  0  0  0
  -26.2126  -20.8188    6.0412 C   0  0  0  0  0  0  0  0  0  0  0  0
  -22.3510  -20.7219    9.7477 C   0  0  0  0  0  0  0  0  0  0  0  0
  -16.0947  -16.1268   15.0408 C   0  0  0  0  0  0  0  0  0  0  0  0
  -16.2042  -14.7564   14.6083 C   0  0  0  0  0  0  0  0  0  0  0  0
  -16.2718  -13.6623   14.2592 N   0  0  0  0  0  0  0  0  0  0  0  0
 18  1  2  0
  1 19  1  0
  2 20  2  0
 21  2  1  0
  3 21  1  0
 22  3  1  0
  4 22  2  0
 23  4  1  0
 24  5  1  0
 25  5  1  1
 25  6  1  0
  6 26  1  0
 26  7  1  0
 27  7  1  0
 25  8  1  0
  8 27  1  0
 22  9  1  0
  9 28  2  0
 11 10  1  0
 11 12  1  0
 29 11  2  0
 13 12  1  0
 14 13  2  0
 15 14  1  0
 14 29  1  0
 16 15  1  0
 15 19  2  0
 17 16  2  0
 17 18  1  0
 21 17  1  0
 18 20  1  0
 23 24  2  0
 24 28  1  0
 29 30  1  0
 30 31  3  0
M  CHG  1  25   1
M  END
$$$$
