
     RDKit          3D

 31 35  0  0  0  0  0  0  0  0999 V2000
  -12.4622  -12.8231   24.2368 C   0  0  0  0  0  0  0  0  0  0  0  0
  -12.3558  -11.9924   27.7469 C   0  0  0  0  0  0  0  0  0  0  0  0
  -13.1018   -9.6195   27.8937 C   0  0  0  0  0  0  0  0  0  0  0  0
  -11.2253   -9.1486   29.4056 C   0  0  0  0  0  0  0  0  0  0  0  0
  -10.5629   -9.5497   33.0741 C   0  0  0  0  0  0  0  0  0  0  0  0
  -10.3724  -11.9528   33.0909 C   0  0  0  0  0  0  0  0  0  0  0  0
   -8.0312  -12.5923   33.7354 C   0  0  0  0  0  0  0  0  0  0  0  0
   -9.3114  -10.7146   34.7551 C   0  0  0  0  0  0  0  0  0  0  0  0
  -13.1473  -10.0865   30.3730 C   0  0  0  0  0  0  0  0  0  0  0  0
  -14.2819   -8.8036   18.9521 N   0  0  0  0  0  0  0  0  0  0  0  0
  -14.1072   -8.9416   20.3469 C   0  0  0  0  0  0  0  0  0  0  0  0
  -14.3406   -7.9966   21.2964 N   0  0  0  0  0  0  0  0  0  0  0  0
  -14.0668   -8.4792   22.4969 N   0  0  0  0  0  0  0  0  0  0  0  0
  -13.6429   -9.7529   22.4082 C   0  0  0  0  0  0  0  0  0  0  0  0
  -13.2368  -10.6522   23.5091 C   0  0  0  0  0  0  0  0  0  0  0  0
  -13.2385  -10.2193   24.8008 C   0  0  0  0  0  0  0  0  0  0  0  0
  -12.8606  -11.0485   25.8500 C   0  0  0  0  0  0  0  0  0  0  0  0
  -12.4789  -12.3418   25.5342 C   0  0  0  0  0  0  0  0  0  0  0  0
  -12.8488  -11.9485   23.2425 C   0  0  0  0  0  0  0  0  0  0  0  0
  -12.1601  -12.9294   26.7575 C   0  0  0  0  0  0  0  0  0  0  0  0
  -12.7845  -10.8462   27.1765 N   0  0  0  0  0  0  0  0  0  0  0  0
  -12.5062   -9.6300   29.2573 C   0  0  0  0  0  0  0  0  0  0  0  0
  -10.5872   -9.1166   30.6274 C   0  0  0  0  0  0  0  0  0  0  0  0
  -11.2277   -9.5770   31.7664 C   0  0  0  0  0  0  0  0  0  0  0  0
   -9.7315  -10.6815   33.3452 N   0  0  2  0  0  4  0  0  0  0  0  0
   -9.4410  -13.0652   33.4679 C   0  0  0  0  0  0  0  0  0  0  0  0
   -8.0358  -11.5136   34.8075 C   0  0  0  0  0  0  0  0  0  0  0  0
  -12.5110  -10.0597   31.6190 C   0  0  0  0  0  0  0  0  0  0  0  0
  -13.6667  -10.0470   21.0609 C   0  0  0  0  0  0  0  0  0  0  0  0
  -13.2854  -11.3211   20.5057 C   0  0  0  0  0  0  0  0  0  0  0  0
  -12.9989  -12.3395   20.0536 N   0  0  0  0  0  0  0  0  0  0  0  0
 18  1  2  0
  1 19  1  0
  2 20  2  0
 21  2  1  0
  3 21  1  0
 22  3  1  0
  4 22  2  0
 23  4  1  0
 24  5  1  0
 25  5  1  1
 25  6  1  0
  6 26  1  0
 26  7  1  0
 27  7  1  0
 25  8  1  0
  8 27  1  0
 22  9  1  0
  9 28  2  0
 11 10  1  0
 11 12  1  0
 29 11  2  0
 13 12  1  0
 14 13  2  0
 15 14  1  0
 14 29  1  0
 16 15  1  0
 15 19  2  0
 17 16  2  0
 17 18  1  0
 21 17  1  0
 18 20  1  0
 23 24  2  0
 24 28  1  0
 29 30  1  0
 30 31  3  0
M  CHG  1  25   1
M  END
$$$$
