
     RDKit          3D

 31 35  0  0  0  0  0  0  0  0999 V2000
  -21.1559  -17.9334   14.9489 C   0  0  0  0  0  0  0  0  0  0  0  0
  -23.8419  -19.9372   13.6099 C   0  0  0  0  0  0  0  0  0  0  0  0
  -23.3995  -20.0962   11.1628 C   0  0  0  0  0  0  0  0  0  0  0  0
  -25.6047  -20.7745   10.3228 C   0  0  0  0  0  0  0  0  0  0  0  0
  -28.8672  -19.0564    9.6429 C   0  0  0  0  0  0  0  0  0  0  0  0
  -28.5198  -16.8547    8.7249 C   0  0  0  0  0  0  0  0  0  0  0  0
  -29.2625  -16.8322    6.3262 C   0  0  0  0  0  0  0  0  0  0  0  0
  -30.4478  -18.0336    8.1582 C   0  0  0  0  0  0  0  0  0  0  0  0
  -25.3395  -18.5086   10.8752 C   0  0  0  0  0  0  0  0  0  0  0  0
  -15.4491  -16.2070   11.3305 N   0  0  0  0  0  0  0  0  0  0  0  0
  -16.8475  -16.3897   11.4080 C   0  0  0  0  0  0  0  0  0  0  0  0
  -17.7811  -15.9269   10.5343 N   0  0  0  0  0  0  0  0  0  0  0  0
  -18.9912  -16.2898   10.9255 N   0  0  0  0  0  0  0  0  0  0  0  0
  -18.9251  -17.0029   12.0643 C   0  0  0  0  0  0  0  0  0  0  0  0
  -20.0429  -17.5937   12.8304 C   0  0  0  0  0  0  0  0  0  0  0  0
  -21.0011  -18.3352   12.2076 C   0  0  0  0  0  0  0  0  0  0  0  0
  -22.0597  -18.8993   12.9092 C   0  0  0  0  0  0  0  0  0  0  0  0
  -22.1074  -18.6797   14.2758 C   0  0  0  0  0  0  0  0  0  0  0  0
  -20.1316  -17.4017   14.1933 C   0  0  0  0  0  0  0  0  0  0  0  0
  -23.2516  -19.3497   14.7060 C   0  0  0  0  0  0  0  0  0  0  0  0
  -23.1013  -19.6529   12.5173 N   0  0  0  0  0  0  0  0  0  0  0  0
  -24.7996  -19.7597   10.7880 C   0  0  0  0  0  0  0  0  0  0  0  0
  -26.9154  -20.5632    9.9506 C   0  0  0  0  0  0  0  0  0  0  0  0
  -27.4740  -19.2981   10.0348 C   0  0  0  0  0  0  0  0  0  0  0  0
  -29.0290  -18.1919    8.5151 N   0  0  2  0  0  4  0  0  0  0  0  0
  -28.7977  -16.0191    7.5118 C   0  0  0  0  0  0  0  0  0  0  0  0
  -30.4874  -17.6519    6.7018 C   0  0  0  0  0  0  0  0  0  0  0  0
  -26.6684  -18.2806   10.5007 C   0  0  0  0  0  0  0  0  0  0  0  0
  -17.5818  -17.0680   12.3706 C   0  0  0  0  0  0  0  0  0  0  0  0
  -17.0488  -17.7463   13.5250 C   0  0  0  0  0  0  0  0  0  0  0  0
  -16.6168  -18.3026   14.4347 N   0  0  0  0  0  0  0  0  0  0  0  0
 18  1  2  0
  1 19  1  0
  2 20  2  0
 21  2  1  0
  3 21  1  0
 22  3  1  0
  4 22  2  0
 23  4  1  0
 24  5  1  0
 25  5  1  1
 25  6  1  0
  6 26  1  0
 26  7  1  0
 27  7  1  0
 25  8  1  0
  8 27  1  0
 22  9  1  0
  9 28  2  0
 11 10  1  0
 11 12  1  0
 29 11  2  0
 13 12  1  0
 14 13  2  0
 15 14  1  0
 14 29  1  0
 16 15  1  0
 15 19  2  0
 17 16  2  0
 17 18  1  0
 21 17  1  0
 18 20  1  0
 23 24  2  0
 24 28  1  0
 29 30  1  0
 30 31  3  0
M  CHG  1  25   1
M  END
$$$$
