
     RDKit          3D

 31 35  0  0  0  0  0  0  0  0999 V2000
  -21.6798  -19.6089   14.4187 C   0  0  0  0  0  0  0  0  0  0  0  0
  -24.3484  -21.0233   12.4437 C   0  0  0  0  0  0  0  0  0  0  0  0
  -23.9532  -20.2224   10.1175 C   0  0  0  0  0  0  0  0  0  0  0  0
  -23.6272  -21.4543    8.0187 C   0  0  0  0  0  0  0  0  0  0  0  0
  -22.4438  -24.8832    7.0703 C   0  0  0  0  0  0  0  0  0  0  0  0
  -20.1358  -24.1949    6.9686 C   0  0  0  0  0  0  0  0  0  0  0  0
  -18.6677  -26.1245    7.6223 C   0  0  0  0  0  0  0  0  0  0  0  0
  -20.7226  -26.3248    6.2288 C   0  0  0  0  0  0  0  0  0  0  0  0
  -23.1040  -22.5956   10.0019 C   0  0  0  0  0  0  0  0  0  0  0  0
  -16.1490  -16.2406   11.9466 N   0  0  0  0  0  0  0  0  0  0  0  0
  -17.5086  -16.6013   11.8184 C   0  0  0  0  0  0  0  0  0  0  0  0
  -18.4139  -16.0775   10.9493 N   0  0  0  0  0  0  0  0  0  0  0  0
  -19.5912  -16.6573   11.1128 N   0  0  0  0  0  0  0  0  0  0  0  0
  -19.5299  -17.5841   12.0860 C   0  0  0  0  0  0  0  0  0  0  0  0
  -20.6184  -18.4540   12.5796 C   0  0  0  0  0  0  0  0  0  0  0  0
  -21.5729  -18.9277   11.7308 C   0  0  0  0  0  0  0  0  0  0  0  0
  -22.6042  -19.7467   12.1745 C   0  0  0  0  0  0  0  0  0  0  0  0
  -22.6284  -20.0676   13.5215 C   0  0  0  0  0  0  0  0  0  0  0  0
  -20.6832  -18.8001   13.9132 C   0  0  0  0  0  0  0  0  0  0  0  0
  -23.7486  -20.8831   13.6748 C   0  0  0  0  0  0  0  0  0  0  0  0
  -23.6369  -20.3223   11.5352 N   0  0  0  0  0  0  0  0  0  0  0  0
  -23.5487  -21.4574    9.3928 C   0  0  0  0  0  0  0  0  0  0  0  0
  -23.2751  -22.5491    7.2582 C   0  0  0  0  0  0  0  0  0  0  0  0
  -22.8226  -23.7095    7.8651 C   0  0  0  0  0  0  0  0  0  0  0  0
  -21.0733  -25.2724    7.1957 N   0  0  2  0  0  4  0  0  0  0  0  0
  -18.7362  -24.7240    7.0596 C   0  0  0  0  0  0  0  0  0  0  0  0
  -19.5402  -27.0614    6.8012 C   0  0  0  0  0  0  0  0  0  0  0  0
  -22.7436  -23.7139    9.2418 C   0  0  0  0  0  0  0  0  0  0  0  0
  -18.2249  -17.5522   12.5315 C   0  0  0  0  0  0  0  0  0  0  0  0
  -17.7098  -18.3928   13.5827 C   0  0  0  0  0  0  0  0  0  0  0  0
  -17.2904  -19.0758   14.4080 N   0  0  0  0  0  0  0  0  0  0  0  0
 18  1  2  0
  1 19  1  0
  2 20  2  0
 21  2  1  0
  3 21  1  0
 22  3  1  0
  4 22  2  0
 23  4  1  0
 24  5  1  0
 25  5  1  6
 25  6  1  0
  6 26  1  0
 26  7  1  0
 27  7  1  0
 25  8  1  0
  8 27  1  0
 22  9  1  0
  9 28  2  0
 11 10  1  0
 11 12  1  0
 29 11  2  0
 13 12  1  0
 14 13  2  0
 15 14  1  0
 14 29  1  0
 16 15  1  0
 15 19  2  0
 17 16  2  0
 17 18  1  0
 21 17  1  0
 18 20  1  0
 23 24  2  0
 24 28  1  0
 29 30  1  0
 30 31  3  0
M  CHG  1  25   1
M  END
$$$$
