
     RDKit          3D

 31 35  0  0  0  0  0  0  0  0999 V2000
  -23.3629  -20.4623   12.3793 C   0  0  0  0  0  0  0  0  0  0  0  0
  -23.3307  -22.7496    9.5884 C   0  0  0  0  0  0  0  0  0  0  0  0
  -21.5452  -21.9159    8.0633 C   0  0  0  0  0  0  0  0  0  0  0  0
  -20.0241  -23.7577    8.6317 C   0  0  0  0  0  0  0  0  0  0  0  0
  -19.3818  -27.2136    7.3271 C   0  0  0  0  0  0  0  0  0  0  0  0
  -21.3221  -28.4410    8.0620 C   0  0  0  0  0  0  0  0  0  0  0  0
  -22.0721  -29.9796    6.2247 C   0  0  0  0  0  0  0  0  0  0  0  0
  -19.6916  -29.5335    6.8065 C   0  0  0  0  0  0  0  0  0  0  0  0
  -21.4974  -24.1231    6.8412 C   0  0  0  0  0  0  0  0  0  0  0  0
  -18.5057  -15.6106   13.5316 N   0  0  0  0  0  0  0  0  0  0  0  0
  -19.3221  -16.3388   12.6381 C   0  0  0  0  0  0  0  0  0  0  0  0
  -19.5743  -16.0414   11.3354 N   0  0  0  0  0  0  0  0  0  0  0  0
  -20.3832  -16.9459   10.8096 N   0  0  0  0  0  0  0  0  0  0  0  0
  -20.7060  -17.8788   11.7237 C   0  0  0  0  0  0  0  0  0  0  0  0
  -21.5812  -19.0570   11.5468 C   0  0  0  0  0  0  0  0  0  0  0  0
  -21.4723  -19.8481   10.4431 C   0  0  0  0  0  0  0  0  0  0  0  0
  -22.2851  -20.9600   10.2578 C   0  0  0  0  0  0  0  0  0  0  0  0
  -23.2180  -21.2385   11.2428 C   0  0  0  0  0  0  0  0  0  0  0  0
  -22.5249  -19.3734   12.5015 C   0  0  0  0  0  0  0  0  0  0  0  0
  -23.8762  -22.3842   10.7983 C   0  0  0  0  0  0  0  0  0  0  0  0
  -22.3581  -21.8688    9.2703 N   0  0  0  0  0  0  0  0  0  0  0  0
  -21.0326  -23.2914    7.8193 C   0  0  0  0  0  0  0  0  0  0  0  0
  -19.4831  -25.0173    8.4851 C   0  0  0  0  0  0  0  0  0  0  0  0
  -19.9466  -25.8700    7.4963 C   0  0  0  0  0  0  0  0  0  0  0  0
  -20.3402  -28.2302    7.0213 N   0  0  2  0  0  4  0  0  0  0  0  0
  -22.2321  -29.5654    7.6689 C   0  0  0  0  0  0  0  0  0  0  0  0
  -20.6224  -30.3425    5.9421 C   0  0  0  0  0  0  0  0  0  0  0  0
  -20.9570  -25.4039    6.6817 C   0  0  0  0  0  0  0  0  0  0  0  0
  -20.0423  -17.5017   12.8724 C   0  0  0  0  0  0  0  0  0  0  0  0
  -20.1057  -18.2265   14.1164 C   0  0  0  0  0  0  0  0  0  0  0  0
  -20.1737  -18.7960   15.1138 N   0  0  0  0  0  0  0  0  0  0  0  0
 18  1  2  0
  1 19  1  0
  2 20  2  0
 21  2  1  0
  3 21  1  0
 22  3  1  0
  4 22  2  0
 23  4  1  0
 24  5  1  0
 25  5  1  1
 25  6  1  0
  6 26  1  0
 26  7  1  0
 27  7  1  0
 25  8  1  0
  8 27  1  0
 22  9  1  0
  9 28  2  0
 11 10  1  0
 11 12  1  0
 29 11  2  0
 13 12  1  0
 14 13  2  0
 15 14  1  0
 14 29  1  0
 16 15  1  0
 15 19  2  0
 17 16  2  0
 17 18  1  0
 21 17  1  0
 18 20  1  0
 23 24  2  0
 24 28  1  0
 29 30  1  0
 30 31  3  0
M  CHG  1  25   1
M  END
$$$$
