
     RDKit          3D

 31 35  0  0  0  0  0  0  0  0999 V2000
  -10.2606   -9.0555   29.9198 C   0  0  0  0  0  0  0  0  0  0  0  0
  -13.4171   -8.1995   31.4449 C   0  0  0  0  0  0  0  0  0  0  0  0
  -13.7027   -5.7542   31.0597 C   0  0  0  0  0  0  0  0  0  0  0  0
  -15.8469   -6.3299   30.0111 C   0  0  0  0  0  0  0  0  0  0  0  0
  -19.3964   -6.6796   31.1668 C   0  0  0  0  0  0  0  0  0  0  0  0
  -19.3697   -8.1897   29.2879 C   0  0  0  0  0  0  0  0  0  0  0  0
  -20.4539  -10.3552   29.9519 C   0  0  0  0  0  0  0  0  0  0  0  0
  -21.2558   -8.1036   30.6530 C   0  0  0  0  0  0  0  0  0  0  0  0
  -15.8921   -5.8575   32.3098 C   0  0  0  0  0  0  0  0  0  0  0  0
   -6.1445   -4.9536   26.1995 N   0  0  0  0  0  0  0  0  0  0  0  0
   -7.2132   -5.0743   27.1151 C   0  0  0  0  0  0  0  0  0  0  0  0
   -7.8485   -4.0637   27.7665 N   0  0  0  0  0  0  0  0  0  0  0  0
   -8.8006   -4.5504   28.5447 N   0  0  0  0  0  0  0  0  0  0  0  0
   -8.8466   -5.8917   28.4519 C   0  0  0  0  0  0  0  0  0  0  0  0
   -9.7602   -6.8184   29.1533 C   0  0  0  0  0  0  0  0  0  0  0  0
  -10.9301   -6.3723   29.6901 C   0  0  0  0  0  0  0  0  0  0  0  0
  -11.8028   -7.2268   30.3530 C   0  0  0  0  0  0  0  0  0  0  0  0
  -11.4388   -8.5595   30.4500 C   0  0  0  0  0  0  0  0  0  0  0  0
   -9.4394   -8.1543   29.2745 C   0  0  0  0  0  0  0  0  0  0  0  0
  -12.4812   -9.1649   31.1501 C   0  0  0  0  0  0  0  0  0  0  0  0
  -12.9884   -7.0183   30.9508 N   0  0  0  0  0  0  0  0  0  0  0  0
  -15.1705   -5.9781   31.1570 C   0  0  0  0  0  0  0  0  0  0  0  0
  -17.2065   -6.5587   29.9990 C   0  0  0  0  0  0  0  0  0  0  0  0
  -17.9490   -6.4394   31.1626 C   0  0  0  0  0  0  0  0  0  0  0  0
  -19.7920   -7.9535   30.6508 N   0  0  2  0  0  4  0  0  0  0  0  0
  -19.8898   -9.5181   28.8277 C   0  0  0  0  0  0  0  0  0  0  0  0
  -21.5389   -9.5825   30.6859 C   0  0  0  0  0  0  0  0  0  0  0  0
  -17.2725   -6.0869   32.3113 C   0  0  0  0  0  0  0  0  0  0  0  0
   -7.8522   -6.2246   27.5559 C   0  0  0  0  0  0  0  0  0  0  0  0
   -7.5448   -7.5745   27.1557 C   0  0  0  0  0  0  0  0  0  0  0  0
   -7.3154   -8.6520   26.8240 N   0  0  0  0  0  0  0  0  0  0  0  0
 18  1  2  0
  1 19  1  0
  2 20  2  0
 21  2  1  0
  3 21  1  0
 22  3  1  0
  4 22  2  0
 23  4  1  0
 24  5  1  0
 25  5  1  6
 25  6  1  0
  6 26  1  0
 26  7  1  0
 27  7  1  0
 25  8  1  0
  8 27  1  0
 22  9  1  0
  9 28  2  0
 11 10  1  0
 11 12  1  0
 29 11  2  0
 13 12  1  0
 14 13  2  0
 15 14  1  0
 14 29  1  0
 16 15  1  0
 15 19  2  0
 17 16  2  0
 17 18  1  0
 21 17  1  0
 18 20  1  0
 23 24  2  0
 24 28  1  0
 29 30  1  0
 30 31  3  0
M  CHG  1  25   1
M  END
$$$$
