
     RDKit          3D

 31 35  0  0  0  0  0  0  0  0999 V2000
  -13.9571  -10.5555   28.2114 C   0  0  0  0  0  0  0  0  0  0  0  0
  -12.3865   -8.1951   30.4439 C   0  0  0  0  0  0  0  0  0  0  0  0
  -10.6020   -7.0915   29.0998 C   0  0  0  0  0  0  0  0  0  0  0  0
  -10.1845   -4.9201   28.0322 C   0  0  0  0  0  0  0  0  0  0  0  0
  -12.2707   -1.9666   27.0411 C   0  0  0  0  0  0  0  0  0  0  0  0
  -11.8441    0.4053   26.9839 C   0  0  0  0  0  0  0  0  0  0  0  0
  -10.6070    1.0735   29.0645 C   0  0  0  0  0  0  0  0  0  0  0  0
  -10.1961   -1.0290   27.7935 C   0  0  0  0  0  0  0  0  0  0  0  0
  -12.4047   -5.3888   28.6329 C   0  0  0  0  0  0  0  0  0  0  0  0
  -12.8243  -10.9442   21.3698 N   0  0  0  0  0  0  0  0  0  0  0  0
  -12.3433  -10.6880   22.6728 C   0  0  0  0  0  0  0  0  0  0  0  0
  -11.0437  -10.5653   23.0540 N   0  0  0  0  0  0  0  0  0  0  0  0
  -10.9701  -10.3266   24.3527 N   0  0  0  0  0  0  0  0  0  0  0  0
  -12.2006  -10.2791   24.8944 C   0  0  0  0  0  0  0  0  0  0  0  0
  -12.5604  -10.0375   26.3078 C   0  0  0  0  0  0  0  0  0  0  0  0
  -11.8890   -9.1143   27.0511 C   0  0  0  0  0  0  0  0  0  0  0  0
  -12.2115   -8.8720   28.3810 C   0  0  0  0  0  0  0  0  0  0  0  0
  -13.2485   -9.6081   28.9294 C   0  0  0  0  0  0  0  0  0  0  0  0
  -13.5863  -10.7470   26.8966 C   0  0  0  0  0  0  0  0  0  0  0  0
  -13.3458   -9.1625   30.2467 C   0  0  0  0  0  0  0  0  0  0  0  0
  -11.7000   -8.0279   29.2933 N   0  0  0  0  0  0  0  0  0  0  0  0
  -11.0991   -5.7857   28.5878 C   0  0  0  0  0  0  0  0  0  0  0  0
  -10.5468   -3.6880   27.5306 C   0  0  0  0  0  0  0  0  0  0  0  0
  -11.8685   -3.2745   27.5708 C   0  0  0  0  0  0  0  0  0  0  0  0
  -11.6521   -0.8471   27.6811 N   0  0  2  0  0  4  0  0  0  0  0  0
  -11.1044    1.4940   27.7012 C   0  0  0  0  0  0  0  0  0  0  0  0
   -9.7407   -0.1709   28.9444 C   0  0  0  0  0  0  0  0  0  0  0  0
  -12.7858   -4.1409   28.1273 C   0  0  0  0  0  0  0  0  0  0  0  0
  -13.0652  -10.5053   23.8439 C   0  0  0  0  0  0  0  0  0  0  0  0
  -14.5002  -10.5412   23.9724 C   0  0  0  0  0  0  0  0  0  0  0  0
  -15.6454  -10.5511   24.0823 N   0  0  0  0  0  0  0  0  0  0  0  0
 18  1  2  0
  1 19  1  0
  2 20  2  0
 21  2  1  0
  3 21  1  0
 22  3  1  0
  4 22  2  0
 23  4  1  0
 24  5  1  0
 25  5  1  6
 25  6  1  0
  6 26  1  0
 26  7  1  0
 27  7  1  0
 25  8  1  0
  8 27  1  0
 22  9  1  0
  9 28  2  0
 11 10  1  0
 11 12  1  0
 29 11  2  0
 13 12  1  0
 14 13  2  0
 15 14  1  0
 14 29  1  0
 16 15  1  0
 15 19  2  0
 17 16  2  0
 17 18  1  0
 21 17  1  0
 18 20  1  0
 23 24  2  0
 24 28  1  0
 29 30  1  0
 30 31  3  0
M  CHG  1  25   1
M  END
$$$$
