
     RDKit          3D

 31 35  0  0  0  0  0  0  0  0999 V2000
  -20.8360  -20.9043   10.4163 C   0  0  0  0  0  0  0  0  0  0  0  0
  -24.3865  -21.5041   10.6546 C   0  0  0  0  0  0  0  0  0  0  0  0
  -25.2934  -19.6135   12.0009 C   0  0  0  0  0  0  0  0  0  0  0  0
  -26.6792  -17.9474   10.8466 C   0  0  0  0  0  0  0  0  0  0  0  0
  -29.4440  -18.0388    8.3158 C   0  0  0  0  0  0  0  0  0  0  0  0
  -30.0531  -16.5686    6.5051 C   0  0  0  0  0  0  0  0  0  0  0  0
  -27.9679  -15.6828    5.4219 C   0  0  0  0  0  0  0  0  0  0  0  0
  -28.2502  -18.0198    6.2365 C   0  0  0  0  0  0  0  0  0  0  0  0
  -27.0864  -20.1994   10.3250 C   0  0  0  0  0  0  0  0  0  0  0  0
  -17.2158  -15.9529   13.5884 N   0  0  0  0  0  0  0  0  0  0  0  0
  -18.4664  -16.4304   13.1379 C   0  0  0  0  0  0  0  0  0  0  0  0
  -19.6462  -15.7542   13.1364 N   0  0  0  0  0  0  0  0  0  0  0  0
  -20.6076  -16.5158   12.6417 N   0  0  0  0  0  0  0  0  0  0  0  0
  -20.1227  -17.7214   12.2935 C   0  0  0  0  0  0  0  0  0  0  0  0
  -20.8600  -18.8600   11.7057 C   0  0  0  0  0  0  0  0  0  0  0  0
  -22.2078  -18.9765   11.8661 C   0  0  0  0  0  0  0  0  0  0  0  0
  -22.9195  -20.0387   11.3217 C   0  0  0  0  0  0  0  0  0  0  0  0
  -22.2048  -20.9832   10.6040 C   0  0  0  0  0  0  0  0  0  0  0  0
  -20.1903  -19.8250   10.9829 C   0  0  0  0  0  0  0  0  0  0  0  0
  -23.1577  -21.9109   10.1858 C   0  0  0  0  0  0  0  0  0  0  0  0
  -24.2251  -20.3568   11.3480 N   0  0  0  0  0  0  0  0  0  0  0  0
  -26.3748  -19.2762   11.0360 C   0  0  0  0  0  0  0  0  0  0  0  0
  -27.6642  -17.5343    9.9748 C   0  0  0  0  0  0  0  0  0  0  0  0
  -28.3927  -18.4618    9.2479 C   0  0  0  0  0  0  0  0  0  0  0  0
  -28.9886  -17.2254    7.2311 N   0  0  2  0  0  4  0  0  0  0  0  0
  -29.4729  -15.7995    5.3567 C   0  0  0  0  0  0  0  0  0  0  0  0
  -27.3395  -17.0650    5.5104 C   0  0  0  0  0  0  0  0  0  0  0  0
  -28.0887  -19.7936    9.4368 C   0  0  0  0  0  0  0  0  0  0  0  0
  -18.7796  -17.6721   12.6031 C   0  0  0  0  0  0  0  0  0  0  0  0
  -17.8617  -18.7629   12.3920 C   0  0  0  0  0  0  0  0  0  0  0  0
  -17.1434  -19.6438   12.2137 N   0  0  0  0  0  0  0  0  0  0  0  0
 18  1  2  0
  1 19  1  0
  2 20  2  0
 21  2  1  0
  3 21  1  0
 22  3  1  0
  4 22  2  0
 23  4  1  0
 24  5  1  0
 25  5  1  1
 25  6  1  0
  6 26  1  0
 26  7  1  0
 27  7  1  0
 25  8  1  0
  8 27  1  0
 22  9  1  0
  9 28  2  0
 11 10  1  0
 11 12  1  0
 29 11  2  0
 13 12  1  0
 14 13  2  0
 15 14  1  0
 14 29  1  0
 16 15  1  0
 15 19  2  0
 17 16  2  0
 17 18  1  0
 21 17  1  0
 18 20  1  0
 23 24  2  0
 24 28  1  0
 29 30  1  0
 30 31  3  0
M  CHG  1  25   1
M  END
$$$$
