
     RDKit          3D

 31 35  0  0  0  0  0  0  0  0999 V2000
  -23.6782  -19.2815   10.8059 C   0  0  0  0  0  0  0  0  0  0  0  0
  -24.6615  -22.7337   11.1772 C   0  0  0  0  0  0  0  0  0  0  0  0
  -22.6569  -23.9046   12.0824 C   0  0  0  0  0  0  0  0  0  0  0  0
  -24.5033  -25.2271   13.0153 C   0  0  0  0  0  0  0  0  0  0  0  0
  -26.1469  -28.4972   12.2013 C   0  0  0  0  0  0  0  0  0  0  0  0
  -26.4069  -30.8487   12.6642 C   0  0  0  0  0  0  0  0  0  0  0  0
  -24.3168  -31.7128   13.7553 C   0  0  0  0  0  0  0  0  0  0  0  0
  -25.3395  -29.4913   14.2284 C   0  0  0  0  0  0  0  0  0  0  0  0
  -23.4079  -26.1225   11.1424 C   0  0  0  0  0  0  0  0  0  0  0  0
  -17.7390  -16.3927   12.8225 N   0  0  0  0  0  0  0  0  0  0  0  0
  -18.4579  -17.5616   12.4877 C   0  0  0  0  0  0  0  0  0  0  0  0
  -17.9540  -18.8159   12.3400 N   0  0  0  0  0  0  0  0  0  0  0  0
  -18.9206  -19.6613   12.0238 N   0  0  0  0  0  0  0  0  0  0  0  0
  -20.1012  -19.0208   11.9461 C   0  0  0  0  0  0  0  0  0  0  0  0
  -21.4243  -19.5944   11.6209 C   0  0  0  0  0  0  0  0  0  0  0  0
  -21.6748  -20.9206   11.8059 C   0  0  0  0  0  0  0  0  0  0  0  0
  -22.9115  -21.4795   11.5067 C   0  0  0  0  0  0  0  0  0  0  0  0
  -23.8892  -20.6340   11.0094 C   0  0  0  0  0  0  0  0  0  0  0  0
  -22.4287  -18.7908   11.1232 C   0  0  0  0  0  0  0  0  0  0  0  0
  -24.9993  -21.4521   10.8050 C   0  0  0  0  0  0  0  0  0  0  0  0
  -23.3808  -22.7351   11.6045 N   0  0  0  0  0  0  0  0  0  0  0  0
  -23.5225  -25.1146   12.0563 C   0  0  0  0  0  0  0  0  0  0  0  0
  -25.3551  -26.3097   13.0744 C   0  0  0  0  0  0  0  0  0  0  0  0
  -25.2483  -27.3383   12.1524 C   0  0  0  0  0  0  0  0  0  0  0  0
  -25.5768  -29.6708   12.7872 N   0  0  2  0  0  4  0  0  0  0  0  0
  -25.7481  -31.9985   13.3647 C   0  0  0  0  0  0  0  0  0  0  0  0
  -24.2487  -30.4569   14.6105 C   0  0  0  0  0  0  0  0  0  0  0  0
  -24.2659  -27.2268   11.1912 C   0  0  0  0  0  0  0  0  0  0  0  0
  -19.8154  -17.7031   12.2365 C   0  0  0  0  0  0  0  0  0  0  0  0
  -20.8000  -16.6511   12.2671 C   0  0  0  0  0  0  0  0  0  0  0  0
  -21.6003  -15.8250   12.2948 N   0  0  0  0  0  0  0  0  0  0  0  0
 18  1  2  0
  1 19  1  0
  2 20  2  0
 21  2  1  0
  3 21  1  0
 22  3  1  0
  4 22  2  0
 23  4  1  0
 24  5  1  0
 25  5  1  1
 25  6  1  0
  6 26  1  0
 26  7  1  0
 27  7  1  0
 25  8  1  0
  8 27  1  0
 22  9  1  0
  9 28  2  0
 11 10  1  0
 11 12  1  0
 29 11  2  0
 13 12  1  0
 14 13  2  0
 15 14  1  0
 14 29  1  0
 16 15  1  0
 15 19  2  0
 17 16  2  0
 17 18  1  0
 21 17  1  0
 18 20  1  0
 23 24  2  0
 24 28  1  0
 29 30  1  0
 30 31  3  0
M  CHG  1  25   1
M  END
$$$$
