
     RDKit          3D

 31 35  0  0  0  0  0  0  0  0999 V2000
  -21.1349  -15.8737   13.4375 C   0  0  0  0  0  0  0  0  0  0  0  0
  -23.8165  -18.2884   13.4130 C   0  0  0  0  0  0  0  0  0  0  0  0
  -22.7167  -20.5035   13.1078 C   0  0  0  0  0  0  0  0  0  0  0  0
  -23.0277  -22.0418   11.2194 C   0  0  0  0  0  0  0  0  0  0  0  0
  -25.4246  -22.3260    8.3504 C   0  0  0  0  0  0  0  0  0  0  0  0
  -25.9056  -24.5251    9.2130 C   0  0  0  0  0  0  0  0  0  0  0  0
  -28.3744  -24.9551    9.0513 C   0  0  0  0  0  0  0  0  0  0  0  0
  -27.0321  -23.7741    7.3169 C   0  0  0  0  0  0  0  0  0  0  0  0
  -24.5446  -20.2583   11.3857 C   0  0  0  0  0  0  0  0  0  0  0  0
  -14.4087  -17.7378   13.9484 N   0  0  0  0  0  0  0  0  0  0  0  0
  -15.6939  -17.8816   13.3804 C   0  0  0  0  0  0  0  0  0  0  0  0
  -16.0063  -18.5118   12.2166 N   0  0  0  0  0  0  0  0  0  0  0  0
  -17.3095  -18.4492   11.9998 N   0  0  0  0  0  0  0  0  0  0  0  0
  -17.9221  -17.7831   12.9953 C   0  0  0  0  0  0  0  0  0  0  0  0
  -19.3643  -17.4917   13.1381 C   0  0  0  0  0  0  0  0  0  0  0  0
  -20.2852  -18.4953   13.1125 C   0  0  0  0  0  0  0  0  0  0  0  0
  -21.6453  -18.2428   13.2452 C   0  0  0  0  0  0  0  0  0  0  0  0
  -22.0357  -16.9238   13.4058 C   0  0  0  0  0  0  0  0  0  0  0  0
  -19.8000  -16.1932   13.3002 C   0  0  0  0  0  0  0  0  0  0  0  0
  -23.4250  -16.9724   13.5113 C   0  0  0  0  0  0  0  0  0  0  0  0
  -22.7166  -19.0545   13.2505 N   0  0  0  0  0  0  0  0  0  0  0  0
  -23.4601  -20.9188   11.8875 C   0  0  0  0  0  0  0  0  0  0  0  0
  -23.6498  -22.5064   10.0801 C   0  0  0  0  0  0  0  0  0  0  0  0
  -24.7510  -21.8446    9.5618 C   0  0  0  0  0  0  0  0  0  0  0  0
  -26.4169  -23.3306    8.5780 N   0  0  2  0  0  4  0  0  0  0  0  0
  -27.0088  -25.5315    9.3442 C   0  0  0  0  0  0  0  0  0  0  0  0
  -28.3898  -24.3233    7.6678 C   0  0  0  0  0  0  0  0  0  0  0  0
  -25.1852  -20.7193   10.2301 C   0  0  0  0  0  0  0  0  0  0  0  0
  -16.9121  -17.4252   13.8636 C   0  0  0  0  0  0  0  0  0  0  0  0
  -17.1200  -16.6871   15.0838 C   0  0  0  0  0  0  0  0  0  0  0  0
  -17.3044  -16.0927   16.0515 N   0  0  0  0  0  0  0  0  0  0  0  0
 18  1  2  0
  1 19  1  0
  2 20  2  0
 21  2  1  0
  3 21  1  0
 22  3  1  0
  4 22  2  0
 23  4  1  0
 24  5  1  0
 25  5  1  6
 25  6  1  0
  6 26  1  0
 26  7  1  0
 27  7  1  0
 25  8  1  0
  8 27  1  0
 22  9  1  0
  9 28  2  0
 11 10  1  0
 11 12  1  0
 29 11  2  0
 13 12  1  0
 14 13  2  0
 15 14  1  0
 14 29  1  0
 16 15  1  0
 15 19  2  0
 17 16  2  0
 17 18  1  0
 21 17  1  0
 18 20  1  0
 23 24  2  0
 24 28  1  0
 29 30  1  0
 30 31  3  0
M  CHG  1  25   1
M  END
$$$$
