
     RDKit          3D

 31 35  0  0  0  0  0  0  0  0999 V2000
  -22.2079  -20.4206    9.1902 C   0  0  0  0  0  0  0  0  0  0  0  0
  -22.9695  -23.8850    9.8536 C   0  0  0  0  0  0  0  0  0  0  0  0
  -21.8732  -24.4040   12.0303 C   0  0  0  0  0  0  0  0  0  0  0  0
  -21.9361  -26.8545   11.8895 C   0  0  0  0  0  0  0  0  0  0  0  0
  -24.6173  -29.4732   11.7841 C   0  0  0  0  0  0  0  0  0  0  0  0
  -22.8575  -30.5582   10.5442 C   0  0  0  0  0  0  0  0  0  0  0  0
  -23.8629  -31.8513    8.6409 C   0  0  0  0  0  0  0  0  0  0  0  0
  -24.6447  -29.6082    9.3903 C   0  0  0  0  0  0  0  0  0  0  0  0
  -24.0059  -25.7520   11.9887 C   0  0  0  0  0  0  0  0  0  0  0  0
  -19.1375  -15.9979   13.5429 N   0  0  0  0  0  0  0  0  0  0  0  0
  -19.3355  -17.3261   13.1053 C   0  0  0  0  0  0  0  0  0  0  0  0
  -18.6267  -18.4240   13.4813 N   0  0  0  0  0  0  0  0  0  0  0  0
  -19.0926  -19.4994   12.8687 N   0  0  0  0  0  0  0  0  0  0  0  0
  -20.1216  -19.1760   12.0646 C   0  0  0  0  0  0  0  0  0  0  0  0
  -20.9197  -20.0771   11.2064 C   0  0  0  0  0  0  0  0  0  0  0  0
  -21.1386  -21.3723   11.5675 C   0  0  0  0  0  0  0  0  0  0  0  0
  -21.8860  -22.2355   10.7753 C   0  0  0  0  0  0  0  0  0  0  0  0
  -22.4053  -21.7290    9.5956 C   0  0  0  0  0  0  0  0  0  0  0  0
  -21.4568  -19.6168   10.0224 C   0  0  0  0  0  0  0  0  0  0  0  0
  -23.0938  -22.7961    9.0206 C   0  0  0  0  0  0  0  0  0  0  0  0
  -22.2277  -23.5270   10.9235 N   0  0  0  0  0  0  0  0  0  0  0  0
  -22.6427  -25.6762   11.9698 C   0  0  0  0  0  0  0  0  0  0  0  0
  -22.5577  -28.0837   11.8290 C   0  0  0  0  0  0  0  0  0  0  0  0
  -23.9402  -28.1730   11.8475 C   0  0  0  0  0  0  0  0  0  0  0  0
  -24.2712  -30.2721   10.6494 N   0  0  2  0  0  4  0  0  0  0  0  0
  -22.5987  -31.3411    9.2924 C   0  0  0  0  0  0  0  0  0  0  0  0
  -24.8105  -30.6951    8.3610 C   0  0  0  0  0  0  0  0  0  0  0  0
  -24.6493  -26.9931   11.9279 C   0  0  0  0  0  0  0  0  0  0  0  0
  -20.2773  -17.8133   12.2100 C   0  0  0  0  0  0  0  0  0  0  0  0
  -21.2778  -17.0370   11.5220 C   0  0  0  0  0  0  0  0  0  0  0  0
  -22.0822  -16.4094   10.9903 N   0  0  0  0  0  0  0  0  0  0  0  0
 18  1  2  0
  1 19  1  0
  2 20  2  0
 21  2  1  0
  3 21  1  0
 22  3  1  0
  4 22  2  0
 23  4  1  0
 24  5  1  0
 25  5  1  1
 25  6  1  0
  6 26  1  0
 26  7  1  0
 27  7  1  0
 25  8  1  0
  8 27  1  0
 22  9  1  0
  9 28  2  0
 11 10  1  0
 11 12  1  0
 29 11  2  0
 13 12  1  0
 14 13  2  0
 15 14  1  0
 14 29  1  0
 16 15  1  0
 15 19  2  0
 17 16  2  0
 17 18  1  0
 21 17  1  0
 18 20  1  0
 23 24  2  0
 24 28  1  0
 29 30  1  0
 30 31  3  0
M  CHG  1  25   1
M  END
$$$$
