
     RDKit          3D

 16 17  0  0  0  0  0  0  0  0999 V2000
   48.3999  -28.9556  -98.9833 C   0  0  0  0  0  0  0  0  0  0  0  0
   47.2886  -31.7514  -95.9122 C   0  0  0  0  0  0  0  0  0  0  0  0
   49.5935  -31.7154  -95.2893 C   0  0  0  0  0  0  0  0  0  0  0  0
   48.6261  -25.8345  -95.3098 C   0  0  0  0  0  0  0  0  0  0  0  0
   46.7451  -25.8461  -96.7278 C   0  0  0  0  0  0  0  0  0  0  0  0
   47.4953  -30.6056  -96.6862 C   0  0  0  0  0  0  0  0  0  0  0  0
   49.7720  -30.5786  -96.0647 C   0  0  0  0  0  0  0  0  0  0  0  0
   49.0647  -26.9832  -95.9402 C   0  0  0  0  0  0  0  0  0  0  0  0
   47.1924  -27.0056  -97.3605 C   0  0  0  0  0  0  0  0  0  0  0  0
   48.3504  -32.2977  -95.2165 C   0  0  0  0  0  0  0  0  0  0  0  0
   47.4430  -25.2442  -95.7030 C   0  0  0  0  0  0  0  0  0  0  0  0
   48.7336  -30.0147  -96.7667 C   0  0  0  0  0  0  0  0  0  0  0  0
   48.3752  -27.5893  -96.9621 C   0  0  0  0  0  0  0  0  0  0  0  0
   48.9382  -28.8265  -97.5724 C   0  0  2  0  0  0  0  0  0  0  0  0
   48.1272  -33.4495  -94.4428 O   0  0  0  0  0  0  0  0  0  0  0  0
   46.9393  -24.0876  -95.1149 O   0  0  0  0  0  0  0  0  0  0  0  0
  1 14  1  6
  6  2  2  0
  2 10  1  0
  7  3  1  0
  3 10  2  0
  8  4  2  0
  4 11  1  0
  9  5  1  0
  5 11  2  0
 12  6  1  0
 12  7  2  0
 13  8  1  0
 13  9  2  0
 10 15  1  0
 11 16  1  0
 14 12  1  1
 13 14  1  0
M  END
$$$$
