
     RDKit          3D

 16 17  0  0  0  0  0  0  0  0999 V2000
   49.3007  -29.7816  -95.4506 C   0  0  0  0  0  0  0  0  0  0  0  0
   48.8335  -28.9766 -100.0608 C   0  0  0  0  0  0  0  0  0  0  0  0
   48.6035  -31.2829  -99.4864 C   0  0  0  0  0  0  0  0  0  0  0  0
   46.7597  -25.7772  -96.4283 C   0  0  0  0  0  0  0  0  0  0  0  0
   48.8595  -25.6386  -95.3697 C   0  0  0  0  0  0  0  0  0  0  0  0
   48.6382  -28.6382  -98.7184 C   0  0  0  0  0  0  0  0  0  0  0  0
   48.4124  -30.9203  -98.1607 C   0  0  0  0  0  0  0  0  0  0  0  0
   46.9682  -27.1340  -96.5864 C   0  0  0  0  0  0  0  0  0  0  0  0
   49.0648  -27.0084  -95.5320 C   0  0  0  0  0  0  0  0  0  0  0  0
   48.8136  -30.3075 -100.4321 C   0  0  0  0  0  0  0  0  0  0  0  0
   47.7182  -25.0027  -95.8084 C   0  0  0  0  0  0  0  0  0  0  0  0
   48.4273  -29.6044  -97.7641 C   0  0  0  0  0  0  0  0  0  0  0  0
   48.1026  -27.7753  -96.1521 C   0  0  0  0  0  0  0  0  0  0  0  0
   48.2261  -29.2436  -96.3741 C   0  0  2  0  0  0  0  0  0  0  0  0
   49.0114  -30.6322 -101.7851 O   0  0  0  0  0  0  0  0  0  0  0  0
   47.5774  -23.6317  -95.6143 O   0  0  0  0  0  0  0  0  0  0  0  0
  1 14  1  6
  6  2  2  0
  2 10  1  0
  7  3  1  0
  3 10  2  0
  8  4  2  0
  4 11  1  0
  9  5  1  0
  5 11  2  0
 12  6  1  0
 12  7  2  0
 13  8  1  0
 13  9  2  0
 10 15  1  0
 11 16  1  0
 14 12  1  6
 13 14  1  0
M  END
$$$$
