
     RDKit          3D

 16 17  0  0  0  0  0  0  0  0999 V2000
   49.2462  -29.5436  -95.7335 C   0  0  0  0  0  0  0  0  0  0  0  0
   49.6842  -29.1879  -99.8786 C   0  0  0  0  0  0  0  0  0  0  0  0
   47.3458  -29.5029 -100.1267 C   0  0  0  0  0  0  0  0  0  0  0  0
   48.9791  -25.3537  -95.3672 C   0  0  0  0  0  0  0  0  0  0  0  0
   46.9188  -25.3109  -96.5233 C   0  0  0  0  0  0  0  0  0  0  0  0
   49.5356  -28.9977  -98.5174 C   0  0  0  0  0  0  0  0  0  0  0  0
   47.1741  -29.3165  -98.7730 C   0  0  0  0  0  0  0  0  0  0  0  0
   49.0831  -26.7328  -95.5740 C   0  0  0  0  0  0  0  0  0  0  0  0
   47.0390  -26.6564  -96.7144 C   0  0  0  0  0  0  0  0  0  0  0  0
   48.6166  -29.4377 -100.6857 C   0  0  0  0  0  0  0  0  0  0  0  0
   47.9019  -24.6347  -95.8375 C   0  0  0  0  0  0  0  0  0  0  0  0
   48.2736  -29.0628  -97.9650 C   0  0  0  0  0  0  0  0  0  0  0  0
   48.0987  -27.4065  -96.2601 C   0  0  0  0  0  0  0  0  0  0  0  0
   48.1456  -28.8562  -96.5127 C   0  0  2  0  0  0  0  0  0  0  0  0
   48.7627  -29.6286 -102.0493 O   0  0  0  0  0  0  0  0  0  0  0  0
   47.8071  -23.2517  -95.6247 O   0  0  0  0  0  0  0  0  0  0  0  0
 14  1  1  1
  6  2  2  0
  2 10  1  0
  7  3  1  0
  3 10  2  0
  8  4  2  0
  4 11  1  0
  9  5  1  0
  5 11  2  0
 12  6  1  0
 12  7  2  0
 13  8  1  0
 13  9  2  0
 10 15  1  0
 11 16  1  0
 14 12  1  0
 13 14  1  0
M  END
$$$$
