
     RDKit          3D

 16 17  0  0  0  0  0  0  0  0999 V2000
   48.9569  -29.6040  -95.6447 C   0  0  0  0  0  0  0  0  0  0  0  0
   49.8041  -29.0836  -99.8716 C   0  0  0  0  0  0  0  0  0  0  0  0
   47.5818  -29.9104 -100.1534 C   0  0  0  0  0  0  0  0  0  0  0  0
   46.8507  -25.3078  -96.3156 C   0  0  0  0  0  0  0  0  0  0  0  0
   48.9533  -25.4443  -95.2623 C   0  0  0  0  0  0  0  0  0  0  0  0
   49.5275  -28.8428  -98.5224 C   0  0  0  0  0  0  0  0  0  0  0  0
   47.3329  -29.6618  -98.8110 C   0  0  0  0  0  0  0  0  0  0  0  0
   46.9435  -26.6573  -96.5976 C   0  0  0  0  0  0  0  0  0  0  0  0
   49.0418  -26.8061  -95.5495 C   0  0  0  0  0  0  0  0  0  0  0  0
   48.8185  -29.6196 -100.6784 C   0  0  0  0  0  0  0  0  0  0  0  0
   47.8706  -24.6768  -95.6342 C   0  0  0  0  0  0  0  0  0  0  0  0
   48.2949  -29.1294  -97.9863 C   0  0  0  0  0  0  0  0  0  0  0  0
   48.0189  -27.4293  -96.2306 C   0  0  0  0  0  0  0  0  0  0  0  0
   48.0176  -28.8764  -96.5856 C   0  0  2  0  0  0  0  0  0  0  0  0
   49.1114  -29.8561 -102.0324 O   0  0  0  0  0  0  0  0  0  0  0  0
   47.8465  -23.3222  -95.3155 O   0  0  0  0  0  0  0  0  0  0  0  0
  1 14  1  6
  6  2  2  0
  2 10  1  0
  7  3  1  0
  3 10  2  0
  8  4  2  0
  4 11  1  0
  9  5  1  0
  5 11  2  0
 12  6  1  0
 12  7  2  0
 13  8  1  0
 13  9  2  0
 10 15  1  0
 11 16  1  0
 14 12  1  6
 13 14  1  0
M  END
$$$$
