
     RDKit          3D

 16 17  0  0  0  0  0  0  0  0999 V2000
   48.4096  -29.8188  -95.5037 C   0  0  0  0  0  0  0  0  0  0  0  0
   49.0564  -25.2796  -95.4326 C   0  0  0  0  0  0  0  0  0  0  0  0
   47.1210  -25.7097  -96.7635 C   0  0  0  0  0  0  0  0  0  0  0  0
   47.4149  -30.4935  -99.4356 C   0  0  0  0  0  0  0  0  0  0  0  0
   49.5846  -29.8690 -100.1071 C   0  0  0  0  0  0  0  0  0  0  0  0
   49.4416  -26.6147  -95.5882 C   0  0  0  0  0  0  0  0  0  0  0  0
   47.5257  -27.0297  -96.9025 C   0  0  0  0  0  0  0  0  0  0  0  0
   47.6916  -29.9773  -98.1841 C   0  0  0  0  0  0  0  0  0  0  0  0
   49.8586  -29.3495  -98.8423 C   0  0  0  0  0  0  0  0  0  0  0  0
   47.8896  -24.8391  -96.0279 C   0  0  0  0  0  0  0  0  0  0  0  0
   48.3735  -30.4442 -100.4262 C   0  0  0  0  0  0  0  0  0  0  0  0
   48.6814  -27.4941  -96.3213 C   0  0  0  0  0  0  0  0  0  0  0  0
   48.8958  -29.4025  -97.8580 C   0  0  0  0  0  0  0  0  0  0  0  0
   49.0893  -28.8769  -96.4772 C   0  0  2  0  0  0  0  0  0  0  0  0
   47.5155  -23.4946  -95.8626 O   0  0  0  0  0  0  0  0  0  0  0  0
   48.1664  -30.9435 -101.7088 O   0  0  0  0  0  0  0  0  0  0  0  0
  1 14  1  6
  6  2  2  0
  2 10  1  0
  7  3  1  0
  3 10  2  0
  8  4  2  0
  4 11  1  0
  9  5  1  0
  5 11  2  0
 12  6  1  0
 12  7  2  0
 13  8  1  0
 13  9  2  0
 10 15  1  0
 11 16  1  0
 14 12  1  6
 13 14  1  0
M  END
$$$$
