
     RDKit          3D

 16 17  0  0  0  0  0  0  0  0999 V2000
   48.7214  -28.9339  -99.2406 C   0  0  0  0  0  0  0  0  0  0  0  0
   49.0390  -26.0934  -95.8113 C   0  0  0  0  0  0  0  0  0  0  0  0
   46.8825  -25.6407  -96.6910 C   0  0  0  0  0  0  0  0  0  0  0  0
   50.5819  -31.2576  -96.2275 C   0  0  0  0  0  0  0  0  0  0  0  0
   48.5461  -31.3890  -95.0351 C   0  0  0  0  0  0  0  0  0  0  0  0
   49.0667  -27.3179  -96.4524 C   0  0  0  0  0  0  0  0  0  0  0  0
   46.8884  -26.8562  -97.3386 C   0  0  0  0  0  0  0  0  0  0  0  0
   50.0134  -30.3500  -97.1267 C   0  0  0  0  0  0  0  0  0  0  0  0
   48.0103  -30.5026  -95.9230 C   0  0  0  0  0  0  0  0  0  0  0  0
   47.9714  -25.2552  -95.9181 C   0  0  0  0  0  0  0  0  0  0  0  0
   49.8571  -31.7821  -95.1796 C   0  0  0  0  0  0  0  0  0  0  0  0
   47.9850  -27.6983  -97.2188 C   0  0  0  0  0  0  0  0  0  0  0  0
   48.7023  -29.9586  -96.9799 C   0  0  0  0  0  0  0  0  0  0  0  0
   48.0425  -29.0077  -97.8899 C   0  0  2  0  0  0  0  0  0  0  0  0
   47.9410  -24.0283  -95.2771 O   0  0  0  0  0  0  0  0  0  0  0  0
   50.4367  -32.6918  -94.2832 O   0  0  0  0  0  0  0  0  0  0  0  0
 14  1  1  6
  6  2  2  0
  2 10  1  0
  7  3  1  0
  3 10  2  0
  8  4  2  0
  4 11  1  0
  9  5  1  0
  5 11  2  0
 12  6  1  0
 12  7  2  0
 13  8  1  0
 13  9  2  0
 10 15  1  0
 11 16  1  0
 14 12  1  0
 13 14  1  0
M  END
$$$$
