
     RDKit          3D

 16 17  0  0  0  0  0  0  0  0999 V2000
   48.8017  -30.1074  -95.5789 C   0  0  0  0  0  0  0  0  0  0  0  0
   47.0081  -26.1439  -96.5251 C   0  0  0  0  0  0  0  0  0  0  0  0
   48.9282  -25.5570  -95.2612 C   0  0  0  0  0  0  0  0  0  0  0  0
   49.2380  -29.1634 -100.3306 C   0  0  0  0  0  0  0  0  0  0  0  0
   47.6495  -30.7012  -99.4967 C   0  0  0  0  0  0  0  0  0  0  0  0
   47.5332  -27.3969  -96.7806 C   0  0  0  0  0  0  0  0  0  0  0  0
   49.4708  -26.7995  -95.5030 C   0  0  0  0  0  0  0  0  0  0  0  0
   49.5956  -28.8039  -99.0273 C   0  0  0  0  0  0  0  0  0  0  0  0
   48.0127  -30.3365  -98.2333 C   0  0  0  0  0  0  0  0  0  0  0  0
   47.6816  -25.2257  -95.7788 C   0  0  0  0  0  0  0  0  0  0  0  0
   48.2671  -30.1100 -100.5752 C   0  0  0  0  0  0  0  0  0  0  0  0
   48.7703  -27.7234  -96.2659 C   0  0  0  0  0  0  0  0  0  0  0  0
   48.9763  -29.3966  -97.9507 C   0  0  0  0  0  0  0  0  0  0  0  0
   49.3044  -29.0649  -96.5543 C   0  0  2  0  0  0  0  0  0  0  0  0
   47.1581  -23.9700  -95.5214 O   0  0  0  0  0  0  0  0  0  0  0  0
   47.9159  -30.4635 -101.8862 O   0  0  0  0  0  0  0  0  0  0  0  0
 14  1  1  1
  6  2  2  0
  2 10  1  0
  7  3  1  0
  3 10  2  0
  8  4  2  0
  4 11  1  0
  9  5  1  0
  5 11  2  0
 12  6  1  0
 12  7  2  0
 13  8  1  0
 13  9  2  0
 10 15  1  0
 11 16  1  0
 14 12  1  0
 13 14  1  0
M  END
$$$$
