
     RDKit          3D

 16 17  0  0  0  0  0  0  0  0999 V2000
   47.6860  -29.8872  -95.8932 C   0  0  0  0  0  0  0  0  0  0  0  0
   48.9331  -25.3705  -95.5655 C   0  0  0  0  0  0  0  0  0  0  0  0
   46.7840  -25.6918  -96.5180 C   0  0  0  0  0  0  0  0  0  0  0  0
   50.0377  -29.6914  -99.9933 C   0  0  0  0  0  0  0  0  0  0  0  0
   47.7102  -29.3192 -100.1604 C   0  0  0  0  0  0  0  0  0  0  0  0
   49.2447  -26.7023  -95.7667 C   0  0  0  0  0  0  0  0  0  0  0  0
   47.0728  -27.0220  -96.7281 C   0  0  0  0  0  0  0  0  0  0  0  0
   49.9876  -29.4762  -98.6124 C   0  0  0  0  0  0  0  0  0  0  0  0
   47.6827  -29.1128  -98.8122 C   0  0  0  0  0  0  0  0  0  0  0  0
   47.7261  -24.8564  -95.9295 C   0  0  0  0  0  0  0  0  0  0  0  0
   48.9055  -29.6151 -100.7750 C   0  0  0  0  0  0  0  0  0  0  0  0
   48.3083  -27.5293  -96.3509 C   0  0  0  0  0  0  0  0  0  0  0  0
   48.7911  -29.1805  -98.0005 C   0  0  0  0  0  0  0  0  0  0  0  0
   48.6679  -28.9429  -96.5528 C   0  0  2  0  0  0  0  0  0  0  0  0
   47.4114  -23.5230  -95.7291 O   0  0  0  0  0  0  0  0  0  0  0  0
   48.9665  -29.8326 -102.1592 O   0  0  0  0  0  0  0  0  0  0  0  0
 14  1  1  6
  6  2  2  0
  2 10  1  0
  7  3  1  0
  3 10  2  0
  8  4  2  0
  4 11  1  0
  9  5  1  0
  5 11  2  0
 12  6  1  0
 12  7  2  0
 13  8  1  0
 13  9  2  0
 10 15  1  0
 11 16  1  0
 14 12  1  0
 13 14  1  0
M  END
$$$$
