
     RDKit          3D

 16 17  0  0  0  0  0  0  0  0999 V2000
   49.7527  -29.0074  -98.8529 C   0  0  0  0  0  0  0  0  0  0  0  0
   47.1390  -25.7300  -96.8669 C   0  0  0  0  0  0  0  0  0  0  0  0
   49.2189  -25.9477  -95.7464 C   0  0  0  0  0  0  0  0  0  0  0  0
   47.9091  -31.5597  -95.1766 C   0  0  0  0  0  0  0  0  0  0  0  0
   50.2465  -31.3825  -95.4741 C   0  0  0  0  0  0  0  0  0  0  0  0
   47.3114  -26.9616  -97.4708 C   0  0  0  0  0  0  0  0  0  0  0  0
   49.4116  -27.1770  -96.3368 C   0  0  0  0  0  0  0  0  0  0  0  0
   47.6955  -30.5930  -96.1643 C   0  0  0  0  0  0  0  0  0  0  0  0
   50.0169  -30.4414  -96.4347 C   0  0  0  0  0  0  0  0  0  0  0  0
   48.0683  -25.2158  -96.0151 C   0  0  0  0  0  0  0  0  0  0  0  0
   49.1796  -31.9606  -94.8249 C   0  0  0  0  0  0  0  0  0  0  0  0
   48.4538  -27.6860  -97.2027 C   0  0  0  0  0  0  0  0  0  0  0  0
   48.7642  -30.0166  -96.8119 C   0  0  0  0  0  0  0  0  0  0  0  0
   48.6103  -28.9942  -97.8601 C   0  0  2  0  0  0  0  0  0  0  0  0
   47.8982  -23.9826  -95.4089 O   0  0  0  0  0  0  0  0  0  0  0  0
   49.3830  -32.9309  -93.8329 O   0  0  0  0  0  0  0  0  0  0  0  0
 14  1  1  6
  6  2  2  0
  2 10  1  0
  7  3  1  0
  3 10  2  0
  8  4  2  0
  4 11  1  0
  9  5  1  0
  5 11  2  0
 12  6  1  0
 12  7  2  0
 13  8  1  0
 13  9  2  0
 10 15  1  0
 11 16  1  0
 14 12  1  0
 13 14  1  0
M  END
$$$$
