
     RDKit          3D

 16 17  0  0  0  0  0  0  0  0999 V2000
   49.4336  -29.5012  -95.6818 C   0  0  0  0  0  0  0  0  0  0  0  0
   47.4187  -30.0501  -99.9040 C   0  0  0  0  0  0  0  0  0  0  0  0
   49.5915  -29.1005  -99.9838 C   0  0  0  0  0  0  0  0  0  0  0  0
   47.0378  -25.3582  -96.6199 C   0  0  0  0  0  0  0  0  0  0  0  0
   48.9786  -25.4379  -95.2744 C   0  0  0  0  0  0  0  0  0  0  0  0
   47.3337  -29.7942  -98.5481 C   0  0  0  0  0  0  0  0  0  0  0  0
   49.5287  -28.8361  -98.6336 C   0  0  0  0  0  0  0  0  0  0  0  0
   47.1172  -26.7367  -96.8415 C   0  0  0  0  0  0  0  0  0  0  0  0
   49.0383  -26.7816  -95.5028 C   0  0  0  0  0  0  0  0  0  0  0  0
   48.5232  -29.7150 -100.6263 C   0  0  0  0  0  0  0  0  0  0  0  0
   47.9628  -24.7005  -95.8387 C   0  0  0  0  0  0  0  0  0  0  0  0
   48.3950  -29.1844  -97.9128 C   0  0  0  0  0  0  0  0  0  0  0  0
   48.1339  -27.4716  -96.2760 C   0  0  0  0  0  0  0  0  0  0  0  0
   48.2763  -28.9244  -96.4683 C   0  0  2  0  0  0  0  0  0  0  0  0
   48.6111  -29.9701 -101.9843 O   0  0  0  0  0  0  0  0  0  0  0  0
   47.8743  -23.3176  -95.6227 O   0  0  0  0  0  0  0  0  0  0  0  0
 14  1  1  1
  6  2  2  0
  2 10  1  0
  7  3  1  0
  3 10  2  0
  8  4  2  0
  4 11  1  0
  9  5  1  0
  5 11  2  0
 12  6  1  0
 12  7  2  0
 13  8  1  0
 13  9  2  0
 10 15  1  0
 11 16  1  0
 14 12  1  0
 13 14  1  0
M  END
$$$$
