
     RDKit          3D

 16 17  0  0  0  0  0  0  0  0999 V2000
   47.5849  -28.9623  -98.8720 C   0  0  0  0  0  0  0  0  0  0  0  0
   50.7125  -31.6271  -96.9188 C   0  0  0  0  0  0  0  0  0  0  0  0
   49.2245  -30.9764  -95.1682 C   0  0  0  0  0  0  0  0  0  0  0  0
   49.2819  -25.6762  -95.7199 C   0  0  0  0  0  0  0  0  0  0  0  0
   47.0452  -25.6288  -96.4577 C   0  0  0  0  0  0  0  0  0  0  0  0
   50.2427  -30.5624  -97.6936 C   0  0  0  0  0  0  0  0  0  0  0  0
   48.7754  -29.9272  -95.9575 C   0  0  0  0  0  0  0  0  0  0  0  0
   49.4730  -26.8116  -96.4838 C   0  0  0  0  0  0  0  0  0  0  0  0
   47.2437  -26.7750  -97.2269 C   0  0  0  0  0  0  0  0  0  0  0  0
   50.1927  -31.8231  -95.6534 C   0  0  0  0  0  0  0  0  0  0  0  0
   48.0464  -25.0628  -95.6982 C   0  0  0  0  0  0  0  0  0  0  0  0
   49.2751  -29.7094  -97.2193 C   0  0  0  0  0  0  0  0  0  0  0  0
   48.4806  -27.3818  -97.2434 C   0  0  0  0  0  0  0  0  0  0  0  0
   48.7943  -28.6076  -98.0303 C   0  0  2  0  0  0  0  0  0  0  0  0
   50.6749  -32.8975  -94.8864 O   0  0  0  0  0  0  0  0  0  0  0  0
   47.7802  -23.9178  -94.9532 O   0  0  0  0  0  0  0  0  0  0  0  0
  1 14  1  6
  6  2  2  0
  2 10  1  0
  7  3  1  0
  3 10  2  0
  8  4  2  0
  4 11  1  0
  9  5  1  0
  5 11  2  0
 12  6  1  0
 12  7  2  0
 13  8  1  0
 13  9  2  0
 10 15  1  0
 11 16  1  0
 14 12  1  1
 13 14  1  0
M  END
$$$$
