
     RDKit          3D

 16 17  0  0  0  0  0  0  0  0999 V2000
   48.4064  -28.9284  -99.2891 C   0  0  0  0  0  0  0  0  0  0  0  0
   48.9116  -30.9034  -94.8770 C   0  0  0  0  0  0  0  0  0  0  0  0
   47.7476  -32.0476  -96.5989 C   0  0  0  0  0  0  0  0  0  0  0  0
   46.8819  -25.8736  -96.7112 C   0  0  0  0  0  0  0  0  0  0  0  0
   49.0464  -25.6667  -95.7860 C   0  0  0  0  0  0  0  0  0  0  0  0
   49.1733  -29.8456  -95.7278 C   0  0  0  0  0  0  0  0  0  0  0  0
   47.9966  -31.0053  -97.4639 C   0  0  0  0  0  0  0  0  0  0  0  0
   47.2612  -27.0455  -97.3733 C   0  0  0  0  0  0  0  0  0  0  0  0
   49.3965  -26.8115  -96.4402 C   0  0  0  0  0  0  0  0  0  0  0  0
   48.2109  -31.9955  -95.2896 C   0  0  0  0  0  0  0  0  0  0  0  0
   47.7664  -25.1778  -95.9161 C   0  0  0  0  0  0  0  0  0  0  0  0
   48.7125  -29.8997  -97.0265 C   0  0  0  0  0  0  0  0  0  0  0  0
   48.5416  -27.5321  -97.2414 C   0  0  0  0  0  0  0  0  0  0  0  0
   49.0062  -28.7588  -97.9099 C   0  0  2  0  0  0  0  0  0  0  0  0
   47.9474  -33.0562  -94.4396 O   0  0  0  0  0  0  0  0  0  0  0  0
   47.3761  -24.0034  -95.2564 O   0  0  0  0  0  0  0  0  0  0  0  0
 14  1  1  6
  6  2  2  0
  2 10  1  0
  7  3  1  0
  3 10  2  0
  8  4  2  0
  4 11  1  0
  9  5  1  0
  5 11  2  0
 12  6  1  0
 12  7  2  0
 13  8  1  0
 13  9  2  0
 10 15  1  0
 11 16  1  0
 14 12  1  0
 13 14  1  0
M  END
$$$$
