
     RDKit          3D

 16 17  0  0  0  0  0  0  0  0999 V2000
   48.5149  -29.0864  -98.9620 C   0  0  0  0  0  0  0  0  0  0  0  0
   49.7240  -31.6753  -95.1362 C   0  0  0  0  0  0  0  0  0  0  0  0
   47.4351  -31.7772  -95.8089 C   0  0  0  0  0  0  0  0  0  0  0  0
   48.7987  -25.7411  -95.5248 C   0  0  0  0  0  0  0  0  0  0  0  0
   46.7933  -25.9631  -96.7405 C   0  0  0  0  0  0  0  0  0  0  0  0
   49.9015  -30.5610  -95.9619 C   0  0  0  0  0  0  0  0  0  0  0  0
   47.6377  -30.6701  -96.6206 C   0  0  0  0  0  0  0  0  0  0  0  0
   49.2376  -26.9174  -96.1017 C   0  0  0  0  0  0  0  0  0  0  0  0
   47.2412  -27.1499  -97.3198 C   0  0  0  0  0  0  0  0  0  0  0  0
   48.4811  -32.2756  -95.0691 C   0  0  0  0  0  0  0  0  0  0  0  0
   47.5522  -25.2433  -95.8429 C   0  0  0  0  0  0  0  0  0  0  0  0
   48.8632  -30.0539  -96.7061 C   0  0  0  0  0  0  0  0  0  0  0  0
   48.4876  -27.6406  -96.9969 C   0  0  0  0  0  0  0  0  0  0  0  0
   49.0570  -28.8975  -97.5594 C   0  0  2  0  0  0  0  0  0  0  0  0
   48.3181  -33.3947  -94.2348 O   0  0  0  0  0  0  0  0  0  0  0  0
   47.0440  -24.0659  -95.3020 O   0  0  0  0  0  0  0  0  0  0  0  0
  1 14  1  6
  6  2  2  0
  2 10  1  0
  7  3  1  0
  3 10  2  0
  8  4  2  0
  4 11  1  0
  9  5  1  0
  5 11  2  0
 12  6  1  0
 12  7  2  0
 13  8  1  0
 13  9  2  0
 10 15  1  0
 11 16  1  0
 14 12  1  1
 13 14  1  0
M  END
$$$$
