
     RDKit          3D

 16 17  0  0  0  0  0  0  0  0999 V2000
   50.2891  -28.8587  -98.4360 C   0  0  0  0  0  0  0  0  0  0  0  0
   47.0562  -25.6049  -97.0401 C   0  0  0  0  0  0  0  0  0  0  0  0
   49.0766  -25.7576  -95.7766 C   0  0  0  0  0  0  0  0  0  0  0  0
   49.0266  -31.2981  -95.2320 C   0  0  0  0  0  0  0  0  0  0  0  0
   47.2448  -31.9191  -96.6421 C   0  0  0  0  0  0  0  0  0  0  0  0
   47.3710  -26.8169  -97.6620 C   0  0  0  0  0  0  0  0  0  0  0  0
   49.3657  -26.9588  -96.4084 C   0  0  0  0  0  0  0  0  0  0  0  0
   49.2567  -30.2148  -96.0582 C   0  0  0  0  0  0  0  0  0  0  0  0
   47.4815  -30.8241  -97.4726 C   0  0  0  0  0  0  0  0  0  0  0  0
   47.9210  -25.0850  -96.0959 C   0  0  0  0  0  0  0  0  0  0  0  0
   48.0020  -32.1758  -95.5195 C   0  0  0  0  0  0  0  0  0  0  0  0
   48.5233  -27.4984  -97.3509 C   0  0  0  0  0  0  0  0  0  0  0  0
   48.5068  -29.9518  -97.1787 C   0  0  0  0  0  0  0  0  0  0  0  0
   48.8411  -28.7550  -98.0010 C   0  0  2  0  0  0  0  0  0  0  0  0
   47.5910  -23.8659  -95.4795 O   0  0  0  0  0  0  0  0  0  0  0  0
   47.7115  -33.2873  -94.7339 O   0  0  0  0  0  0  0  0  0  0  0  0
  1 14  1  6
  6  2  2  0
  2 10  1  0
  7  3  1  0
  3 10  2  0
  8  4  2  0
  4 11  1  0
  9  5  1  0
  5 11  2  0
 12  6  1  0
 12  7  2  0
 13  8  1  0
 13  9  2  0
 10 15  1  0
 11 16  1  0
 14 12  1  1
 13 14  1  0
M  END
$$$$
