
     RDKit          3D

 16 17  0  0  0  0  0  0  0  0999 V2000
   48.1057  -29.8871  -95.4966 C   0  0  0  0  0  0  0  0  0  0  0  0
   48.9470  -25.3414  -95.4455 C   0  0  0  0  0  0  0  0  0  0  0  0
   47.1146  -25.7878  -96.9099 C   0  0  0  0  0  0  0  0  0  0  0  0
   47.7741  -30.2806  -99.6590 C   0  0  0  0  0  0  0  0  0  0  0  0
   50.1292  -30.2832  -99.7128 C   0  0  0  0  0  0  0  0  0  0  0  0
   49.3122  -26.6892  -95.5158 C   0  0  0  0  0  0  0  0  0  0  0  0
   47.4981  -27.1204  -96.9628 C   0  0  0  0  0  0  0  0  0  0  0  0
   47.8390  -29.7794  -98.3730 C   0  0  0  0  0  0  0  0  0  0  0  0
   50.1888  -29.7773  -98.4146 C   0  0  0  0  0  0  0  0  0  0  0  0
   47.8421  -24.9029  -96.1502 C   0  0  0  0  0  0  0  0  0  0  0  0
   48.9369  -30.5420 -100.3538 C   0  0  0  0  0  0  0  0  0  0  0  0
   48.5925  -27.5832  -96.2720 C   0  0  0  0  0  0  0  0  0  0  0  0
   49.0230  -29.5188  -97.7272 C   0  0  0  0  0  0  0  0  0  0  0  0
   48.9793  -28.9792  -96.3389 C   0  0  2  0  0  0  0  0  0  0  0  0
   47.4875  -23.5454  -96.0697 O   0  0  0  0  0  0  0  0  0  0  0  0
   48.9491  -31.0468 -101.6508 O   0  0  0  0  0  0  0  0  0  0  0  0
  1 14  1  6
  6  2  2  0
  2 10  1  0
  7  3  1  0
  3 10  2  0
  8  4  2  0
  4 11  1  0
  9  5  1  0
  5 11  2  0
 12  6  1  0
 12  7  2  0
 13  8  1  0
 13  9  2  0
 10 15  1  0
 11 16  1  0
 14 12  1  6
 13 14  1  0
M  END
$$$$
