
     RDKit          3D

 16 17  0  0  0  0  0  0  0  0999 V2000
   46.8367  -30.0055  -96.0491 C   0  0  0  0  0  0  0  0  0  0  0  0
   50.8528  -31.0534  -97.0082 C   0  0  0  0  0  0  0  0  0  0  0  0
   50.3141  -30.6318  -99.2959 C   0  0  0  0  0  0  0  0  0  0  0  0
   49.0079  -26.2354  -95.4723 C   0  0  0  0  0  0  0  0  0  0  0  0
   47.1588  -25.5213  -96.7451 C   0  0  0  0  0  0  0  0  0  0  0  0
   49.6591  -30.4326  -96.6282 C   0  0  0  0  0  0  0  0  0  0  0  0
   49.1356  -30.0204  -98.8923 C   0  0  0  0  0  0  0  0  0  0  0  0
   48.7644  -27.5244  -95.9064 C   0  0  0  0  0  0  0  0  0  0  0  0
   46.9176  -26.8242  -97.1800 C   0  0  0  0  0  0  0  0  0  0  0  0
   51.1689  -31.1464  -98.3503 C   0  0  0  0  0  0  0  0  0  0  0  0
   48.1949  -25.2037  -95.8936 C   0  0  0  0  0  0  0  0  0  0  0  0
   48.7968  -29.9144  -97.5645 C   0  0  0  0  0  0  0  0  0  0  0  0
   47.7341  -27.8493  -96.7548 C   0  0  0  0  0  0  0  0  0  0  0  0
   47.5607  -29.2726  -97.1607 C   0  0  2  0  0  0  0  0  0  0  0  0
   52.3721  -31.7731  -98.7168 O   0  0  0  0  0  0  0  0  0  0  0  0
   48.3792  -23.8819  -95.4984 O   0  0  0  0  0  0  0  0  0  0  0  0
  1 14  1  6
  6  2  2  0
  2 10  1  0
  7  3  1  0
  3 10  2  0
  8  4  2  0
  4 11  1  0
  9  5  1  0
  5 11  2  0
 12  6  1  0
 12  7  2  0
 13  8  1  0
 13  9  2  0
 10 15  1  0
 11 16  1  0
 14 12  1  1
 13 14  1  0
M  END
$$$$
