
     RDKit          3D

 16 17  0  0  0  0  0  0  0  0999 V2000
   47.7841  -29.6554  -95.6792 C   0  0  0  0  0  0  0  0  0  0  0  0
   46.8582  -25.4964  -96.4479 C   0  0  0  0  0  0  0  0  0  0  0  0
   48.8988  -25.1389  -95.2915 C   0  0  0  0  0  0  0  0  0  0  0  0
   47.5978  -29.1364 -100.0084 C   0  0  0  0  0  0  0  0  0  0  0  0
   49.9386  -29.4383  -99.8931 C   0  0  0  0  0  0  0  0  0  0  0  0
   47.1869  -26.8221  -96.6612 C   0  0  0  0  0  0  0  0  0  0  0  0
   49.2468  -26.4562  -95.4924 C   0  0  0  0  0  0  0  0  0  0  0  0
   47.5446  -28.9094  -98.6295 C   0  0  0  0  0  0  0  0  0  0  0  0
   49.8652  -29.2141  -98.5493 C   0  0  0  0  0  0  0  0  0  0  0  0
   47.6896  -24.6536  -95.7754 C   0  0  0  0  0  0  0  0  0  0  0  0
   48.7889  -29.4013 -100.6486 C   0  0  0  0  0  0  0  0  0  0  0  0
   48.3873  -27.3013  -96.1801 C   0  0  0  0  0  0  0  0  0  0  0  0
   48.6958  -28.9469  -97.8765 C   0  0  0  0  0  0  0  0  0  0  0  0
   48.7107  -28.7173  -96.4223 C   0  0  2  0  0  0  0  0  0  0  0  0
   47.3629  -23.3254  -95.5603 O   0  0  0  0  0  0  0  0  0  0  0  0
   48.8315  -29.6276 -102.0320 O   0  0  0  0  0  0  0  0  0  0  0  0
 14  1  1  1
  6  2  2  0
  2 10  1  0
  7  3  1  0
  3 10  2  0
  8  4  2  0
  4 11  1  0
  9  5  1  0
  5 11  2  0
 12  6  1  0
 12  7  2  0
 13  8  1  0
 13  9  2  0
 10 15  1  0
 11 16  1  0
 14 12  1  0
 13 14  1  0
M  END
$$$$
