
     RDKit          3D

 16 17  0  0  0  0  0  0  0  0999 V2000
   49.3795  -29.5895  -95.8083 C   0  0  0  0  0  0  0  0  0  0  0  0
   47.6342  -30.2391 -100.0718 C   0  0  0  0  0  0  0  0  0  0  0  0
   49.6113  -28.9289 -100.1316 C   0  0  0  0  0  0  0  0  0  0  0  0
   48.8100  -25.4282  -95.5004 C   0  0  0  0  0  0  0  0  0  0  0  0
   46.8460  -25.5199  -96.8111 C   0  0  0  0  0  0  0  0  0  0  0  0
   47.4950  -30.0054  -98.7164 C   0  0  0  0  0  0  0  0  0  0  0  0
   49.4925  -28.6828  -98.7817 C   0  0  0  0  0  0  0  0  0  0  0  0
   49.0033  -26.8031  -95.6678 C   0  0  0  0  0  0  0  0  0  0  0  0
   47.0525  -26.8599  -96.9623 C   0  0  0  0  0  0  0  0  0  0  0  0
   48.6703  -29.7167 -100.7840 C   0  0  0  0  0  0  0  0  0  0  0  0
   47.7356  -24.7782  -96.0676 C   0  0  0  0  0  0  0  0  0  0  0  0
   48.4299  -29.2233  -98.0711 C   0  0  0  0  0  0  0  0  0  0  0  0
   48.1123  -27.5422  -96.4117 C   0  0  0  0  0  0  0  0  0  0  0  0
   48.2561  -28.9915  -96.6275 C   0  0  2  0  0  0  0  0  0  0  0  0
   48.8122  -29.9492 -102.1415 O   0  0  0  0  0  0  0  0  0  0  0  0
   47.5508  -23.3989  -95.8937 O   0  0  0  0  0  0  0  0  0  0  0  0
 14  1  1  1
  6  2  2  0
  2 10  1  0
  7  3  1  0
  3 10  2  0
  8  4  2  0
  4 11  1  0
  9  5  1  0
  5 11  2  0
 12  6  1  0
 12  7  2  0
 13  8  1  0
 13  9  2  0
 10 15  1  0
 11 16  1  0
 14 12  1  0
 13 14  1  0
M  END
$$$$
