
     RDKit          3D

 16 17  0  0  0  0  0  0  0  0999 V2000
   46.8035  -29.6520  -96.4505 C   0  0  0  0  0  0  0  0  0  0  0  0
   49.0765  -25.5902  -95.3547 C   0  0  0  0  0  0  0  0  0  0  0  0
   46.9777  -25.4031  -96.4451 C   0  0  0  0  0  0  0  0  0  0  0  0
   48.7237  -28.9653 -100.3202 C   0  0  0  0  0  0  0  0  0  0  0  0
   50.5947  -29.9434  -99.2588 C   0  0  0  0  0  0  0  0  0  0  0  0
   49.1197  -26.9454  -95.6246 C   0  0  0  0  0  0  0  0  0  0  0  0
   46.9996  -26.7514  -96.7250 C   0  0  0  0  0  0  0  0  0  0  0  0
   48.1081  -28.7633  -99.0809 C   0  0  0  0  0  0  0  0  0  0  0  0
   49.9771  -29.7375  -98.0599 C   0  0  0  0  0  0  0  0  0  0  0  0
   48.0292  -24.8159  -95.7515 C   0  0  0  0  0  0  0  0  0  0  0  0
   49.9656  -29.5540 -100.4193 C   0  0  0  0  0  0  0  0  0  0  0  0
   48.0751  -27.5258  -96.3130 C   0  0  0  0  0  0  0  0  0  0  0  0
   48.7393  -29.1537  -97.9221 C   0  0  0  0  0  0  0  0  0  0  0  0
   48.1483  -28.9709  -96.5861 C   0  0  2  0  0  0  0  0  0  0  0  0
   47.9834  -23.4585  -95.4826 O   0  0  0  0  0  0  0  0  0  0  0  0
   50.5744  -29.7520 -101.6671 O   0  0  0  0  0  0  0  0  0  0  0  0
 14  1  1  6
  6  2  2  0
  2 10  1  0
  7  3  1  0
  3 10  2  0
  8  4  2  0
  4 11  1  0
  9  5  1  0
  5 11  2  0
 12  6  1  0
 12  7  2  0
 13  8  1  0
 13  9  2  0
 10 15  1  0
 11 16  1  0
 14 12  1  0
 13 14  1  0
M  END
$$$$
