
     RDKit          3D

 16 17  0  0  0  0  0  0  0  0999 V2000
   49.6153  -28.9456  -99.0350 C   0  0  0  0  0  0  0  0  0  0  0  0
   47.1856  -25.6726  -96.9416 C   0  0  0  0  0  0  0  0  0  0  0  0
   49.2156  -25.9754  -95.7515 C   0  0  0  0  0  0  0  0  0  0  0  0
   48.2657  -31.5003  -95.1405 C   0  0  0  0  0  0  0  0  0  0  0  0
   50.5347  -31.3483  -95.7822 C   0  0  0  0  0  0  0  0  0  0  0  0
   47.3384  -26.9011  -97.5568 C   0  0  0  0  0  0  0  0  0  0  0  0
   49.3883  -27.2025  -96.3525 C   0  0  0  0  0  0  0  0  0  0  0  0
   47.9158  -30.5426  -96.0976 C   0  0  0  0  0  0  0  0  0  0  0  0
   50.1727  -30.4157  -96.7098 C   0  0  0  0  0  0  0  0  0  0  0  0
   48.1005  -25.2015  -96.0501 C   0  0  0  0  0  0  0  0  0  0  0  0
   49.5711  -31.9092  -94.9754 C   0  0  0  0  0  0  0  0  0  0  0  0
   48.4457  -27.6673  -97.2590 C   0  0  0  0  0  0  0  0  0  0  0  0
   48.8814  -29.9834  -96.9030 C   0  0  0  0  0  0  0  0  0  0  0  0
   48.5820  -28.9712  -97.9294 C   0  0  2  0  0  0  0  0  0  0  0  0
   47.9499  -23.9715  -95.4324 O   0  0  0  0  0  0  0  0  0  0  0  0
   49.9115  -32.8704  -94.0126 O   0  0  0  0  0  0  0  0  0  0  0  0
 14  1  1  6
  6  2  2  0
  2 10  1  0
  7  3  1  0
  3 10  2  0
  8  4  2  0
  4 11  1  0
  9  5  1  0
  5 11  2  0
 12  6  1  0
 12  7  2  0
 13  8  1  0
 13  9  2  0
 10 15  1  0
 11 16  1  0
 14 12  1  0
 13 14  1  0
M  END
$$$$
