
     RDKit          3D

 16 17  0  0  0  0  0  0  0  0999 V2000
   48.1764  -29.7654  -95.4699 C   0  0  0  0  0  0  0  0  0  0  0  0
   46.8011  -25.6944  -96.3461 C   0  0  0  0  0  0  0  0  0  0  0  0
   48.8362  -25.1980  -95.2322 C   0  0  0  0  0  0  0  0  0  0  0  0
   47.2968  -29.7669  -99.6637 C   0  0  0  0  0  0  0  0  0  0  0  0
   49.5410  -29.1375 -100.0518 C   0  0  0  0  0  0  0  0  0  0  0  0
   47.2176  -26.9928  -96.5734 C   0  0  0  0  0  0  0  0  0  0  0  0
   49.2717  -26.4867  -95.4475 C   0  0  0  0  0  0  0  0  0  0  0  0
   47.4462  -29.5109  -98.2970 C   0  0  0  0  0  0  0  0  0  0  0  0
   49.6662  -28.8935  -98.7154 C   0  0  0  0  0  0  0  0  0  0  0  0
   47.5855  -24.7976  -95.6873 C   0  0  0  0  0  0  0  0  0  0  0  0
   48.3373  -29.5834 -100.5481 C   0  0  0  0  0  0  0  0  0  0  0  0
   48.4590  -27.3879  -96.1209 C   0  0  0  0  0  0  0  0  0  0  0  0
   48.6509  -29.0650  -97.8035 C   0  0  0  0  0  0  0  0  0  0  0  0
   48.8760  -28.7766  -96.3774 C   0  0  2  0  0  0  0  0  0  0  0  0
   47.1708  -23.4965  -95.4583 O   0  0  0  0  0  0  0  0  0  0  0  0
   48.1772  -29.8432 -101.9170 O   0  0  0  0  0  0  0  0  0  0  0  0
 14  1  1  1
  6  2  2  0
  2 10  1  0
  7  3  1  0
  3 10  2  0
  8  4  2  0
  4 11  1  0
  9  5  1  0
  5 11  2  0
 12  6  1  0
 12  7  2  0
 13  8  1  0
 13  9  2  0
 10 15  1  0
 11 16  1  0
 14 12  1  0
 13 14  1  0
M  END
$$$$
