
     RDKit          3D

 16 17  0  0  0  0  0  0  0  0999 V2000
   47.2235  -29.7417  -96.0189 C   0  0  0  0  0  0  0  0  0  0  0  0
   46.6909  -25.4465  -96.3126 C   0  0  0  0  0  0  0  0  0  0  0  0
   48.7697  -25.3614  -95.1408 C   0  0  0  0  0  0  0  0  0  0  0  0
   47.5714  -29.2109 -100.1729 C   0  0  0  0  0  0  0  0  0  0  0  0
   49.8786  -29.5841  -99.8788 C   0  0  0  0  0  0  0  0  0  0  0  0
   46.9329  -26.7901  -96.6140 C   0  0  0  0  0  0  0  0  0  0  0  0
   48.9858  -26.6960  -95.4534 C   0  0  0  0  0  0  0  0  0  0  0  0
   47.4686  -28.9951  -98.8119 C   0  0  0  0  0  0  0  0  0  0  0  0
   49.7691  -29.3654  -98.5059 C   0  0  0  0  0  0  0  0  0  0  0  0
   47.6212  -24.7417  -95.5726 C   0  0  0  0  0  0  0  0  0  0  0  0
   48.7969  -29.5125 -100.7298 C   0  0  0  0  0  0  0  0  0  0  0  0
   48.0774  -27.4203  -96.1878 C   0  0  0  0  0  0  0  0  0  0  0  0
   48.5416  -29.0646  -97.9571 C   0  0  0  0  0  0  0  0  0  0  0  0
   48.3193  -28.8145  -96.5051 C   0  0  2  0  0  0  0  0  0  0  0  0
   47.3641  -23.3919  -95.2776 O   0  0  0  0  0  0  0  0  0  0  0  0
   48.9765  -29.7422 -102.0907 O   0  0  0  0  0  0  0  0  0  0  0  0
  1 14  1  6
  6  2  2  0
  2 10  1  0
  7  3  1  0
  3 10  2  0
  8  4  2  0
  4 11  1  0
  9  5  1  0
  5 11  2  0
 12  6  1  0
 12  7  2  0
 13  8  1  0
 13  9  2  0
 10 15  1  0
 11 16  1  0
 14 12  1  6
 13 14  1  0
M  END
$$$$
