
     RDKit          3D

 16 17  0  0  0  0  0  0  0  0999 V2000
   49.1935  -29.8034  -95.6491 C   0  0  0  0  0  0  0  0  0  0  0  0
   47.1078  -25.8984  -96.7196 C   0  0  0  0  0  0  0  0  0  0  0  0
   48.9242  -25.3544  -95.2935 C   0  0  0  0  0  0  0  0  0  0  0  0
   48.9817  -29.3464 -100.4443 C   0  0  0  0  0  0  0  0  0  0  0  0
   47.1972  -30.3714  -99.2831 C   0  0  0  0  0  0  0  0  0  0  0  0
   47.6706  -27.1291  -97.0020 C   0  0  0  0  0  0  0  0  0  0  0  0
   49.5033  -26.5751  -95.5606 C   0  0  0  0  0  0  0  0  0  0  0  0
   49.5372  -28.9121  -99.2365 C   0  0  0  0  0  0  0  0  0  0  0  0
   47.7552  -29.9386  -98.1159 C   0  0  0  0  0  0  0  0  0  0  0  0
   47.7117  -25.0124  -95.8804 C   0  0  0  0  0  0  0  0  0  0  0  0
   47.8132  -30.0758 -100.4778 C   0  0  0  0  0  0  0  0  0  0  0  0
   48.8739  -27.4662  -96.4184 C   0  0  0  0  0  0  0  0  0  0  0  0
   48.9191  -29.2091  -98.0435 C   0  0  0  0  0  0  0  0  0  0  0  0
   49.4494  -28.7834  -96.7377 C   0  0  2  0  0  0  0  0  0  0  0  0
   47.1503  -23.7792  -95.5958 O   0  0  0  0  0  0  0  0  0  0  0  0
   47.2643  -30.5066 -101.6944 O   0  0  0  0  0  0  0  0  0  0  0  0
 14  1  1  1
  6  2  2  0
  2 10  1  0
  7  3  1  0
  3 10  2  0
  8  4  2  0
  4 11  1  0
  9  5  1  0
  5 11  2  0
 12  6  1  0
 12  7  2  0
 13  8  1  0
 13  9  2  0
 10 15  1  0
 11 16  1  0
 14 12  1  0
 13 14  1  0
M  END
$$$$
