
     RDKit          3D

 16 17  0  0  0  0  0  0  0  0999 V2000
   48.7582  -29.8442  -95.4297 C   0  0  0  0  0  0  0  0  0  0  0  0
   47.0026  -25.8436  -96.4695 C   0  0  0  0  0  0  0  0  0  0  0  0
   48.9092  -25.3260  -95.1557 C   0  0  0  0  0  0  0  0  0  0  0  0
   48.9971  -29.1715 -100.2226 C   0  0  0  0  0  0  0  0  0  0  0  0
   47.2105  -30.3707  -99.2462 C   0  0  0  0  0  0  0  0  0  0  0  0
   47.4942  -27.1109  -96.7215 C   0  0  0  0  0  0  0  0  0  0  0  0
   49.4182  -26.5834  -95.3936 C   0  0  0  0  0  0  0  0  0  0  0  0
   49.4519  -28.7896  -98.9565 C   0  0  0  0  0  0  0  0  0  0  0  0
   47.6703  -29.9874  -98.0203 C   0  0  0  0  0  0  0  0  0  0  0  0
   47.6865  -24.9521  -95.7005 C   0  0  0  0  0  0  0  0  0  0  0  0
   47.8786  -29.9610 -100.3776 C   0  0  0  0  0  0  0  0  0  0  0  0
   48.7077  -27.4796  -96.1798 C   0  0  0  0  0  0  0  0  0  0  0  0
   48.7820  -29.2007  -97.8269 C   0  0  0  0  0  0  0  0  0  0  0  0
   49.2062  -28.8354  -96.4652 C   0  0  2  0  0  0  0  0  0  0  0  0
   47.1965  -23.6823  -95.4464 O   0  0  0  0  0  0  0  0  0  0  0  0
   47.4307  -30.3384 -101.6519 O   0  0  0  0  0  0  0  0  0  0  0  0
 14  1  1  1
  6  2  2  0
  2 10  1  0
  7  3  1  0
  3 10  2  0
  8  4  2  0
  4 11  1  0
  9  5  1  0
  5 11  2  0
 12  6  1  0
 12  7  2  0
 13  8  1  0
 13  9  2  0
 10 15  1  0
 11 16  1  0
 14 12  1  0
 13 14  1  0
M  END
$$$$
