
     RDKit          3D

 16 17  0  0  0  0  0  0  0  0999 V2000
   50.3370  -28.2413  -98.3530 C   0  0  0  0  0  0  0  0  0  0  0  0
   47.3336  -30.9051  -99.1467 C   0  0  0  0  0  0  0  0  0  0  0  0
   46.7950  -31.2086  -96.8561 C   0  0  0  0  0  0  0  0  0  0  0  0
   46.8724  -25.8009  -96.7585 C   0  0  0  0  0  0  0  0  0  0  0  0
   48.5897  -25.5004  -95.1636 C   0  0  0  0  0  0  0  0  0  0  0  0
   48.2555  -29.9274  -98.8222 C   0  0  0  0  0  0  0  0  0  0  0  0
   47.7082  -30.2375  -96.5097 C   0  0  0  0  0  0  0  0  0  0  0  0
   47.5144  -26.9389  -97.2568 C   0  0  0  0  0  0  0  0  0  0  0  0
   49.2002  -26.6130  -95.6641 C   0  0  0  0  0  0  0  0  0  0  0  0
   46.6059  -31.5461  -98.1910 C   0  0  0  0  0  0  0  0  0  0  0  0
   47.4016  -25.0757  -95.7132 C   0  0  0  0  0  0  0  0  0  0  0  0
   48.4415  -29.5942  -97.4969 C   0  0  0  0  0  0  0  0  0  0  0  0
   48.7024  -27.3613  -96.7053 C   0  0  0  0  0  0  0  0  0  0  0  0
   49.4299  -28.5495  -97.1812 C   0  0  2  0  0  0  0  0  0  0  0  0
   45.6819  -32.5256  -98.5131 O   0  0  0  0  0  0  0  0  0  0  0  0
   46.7497  -23.9358  -95.2209 O   0  0  0  0  0  0  0  0  0  0  0  0
 14  1  1  6
  6  2  2  0
  2 10  1  0
  7  3  1  0
  3 10  2  0
  8  4  2  0
  4 11  1  0
  9  5  1  0
  5 11  2  0
 12  6  1  0
 12  7  2  0
 13  8  1  0
 13  9  2  0
 10 15  1  0
 11 16  1  0
 14 12  1  0
 13 14  1  0
M  END
$$$$
