
     RDKit          3D

 16 17  0  0  0  0  0  0  0  0999 V2000
   48.9007  -29.6662  -95.6484 C   0  0  0  0  0  0  0  0  0  0  0  0
   49.8252  -29.8219  -99.7924 C   0  0  0  0  0  0  0  0  0  0  0  0
   47.4795  -29.8337 -100.2391 C   0  0  0  0  0  0  0  0  0  0  0  0
   46.9528  -25.3459  -96.5507 C   0  0  0  0  0  0  0  0  0  0  0  0
   49.0925  -25.4874  -95.5757 C   0  0  0  0  0  0  0  0  0  0  0  0
   49.5552  -29.4806  -98.4637 C   0  0  0  0  0  0  0  0  0  0  0  0
   47.2387  -29.4948  -98.9152 C   0  0  0  0  0  0  0  0  0  0  0  0
   46.9915  -26.7128  -96.7495 C   0  0  0  0  0  0  0  0  0  0  0  0
   49.1263  -26.8666  -95.7788 C   0  0  0  0  0  0  0  0  0  0  0  0
   48.7740  -29.9960 -100.6724 C   0  0  0  0  0  0  0  0  0  0  0  0
   48.0197  -24.7084  -95.9522 C   0  0  0  0  0  0  0  0  0  0  0  0
   48.2653  -29.3156  -98.0191 C   0  0  0  0  0  0  0  0  0  0  0  0
   48.0567  -27.4962  -96.3772 C   0  0  0  0  0  0  0  0  0  0  0  0
   47.9953  -28.9618  -96.6389 C   0  0  2  0  0  0  0  0  0  0  0  0
   49.0610  -30.3390 -102.0047 O   0  0  0  0  0  0  0  0  0  0  0  0
   48.0512  -23.3365  -95.7198 O   0  0  0  0  0  0  0  0  0  0  0  0
  1 14  1  6
  6  2  2  0
  2 10  1  0
  7  3  1  0
  3 10  2  0
  8  4  2  0
  4 11  1  0
  9  5  1  0
  5 11  2  0
 12  6  1  0
 12  7  2  0
 13  8  1  0
 13  9  2  0
 10 15  1  0
 11 16  1  0
 14 12  1  6
 13 14  1  0
M  END
$$$$
