
     RDKit          3D

 31 35  0  0  0  0  0  0  0  0999 V2000
   42.2767   17.8649    9.7621 C   0  0  0  0  0  0  0  0  0  0  0  0
   40.4241   18.1380   12.2665 C   0  0  0  0  0  0  0  0  0  0  0  0
   39.0349   16.2656   12.9178 C   0  0  0  0  0  0  0  0  0  0  0  0
   39.7261   16.1835   14.1126 C   0  0  0  0  0  0  0  0  0  0  0  0
   40.7476   17.0636   14.3788 C   0  0  0  0  0  0  0  0  0  0  0  0
   41.0900   18.0376   13.4510 C   0  0  0  0  0  0  0  0  0  0  0  0
   40.6391   15.3046    5.8606 C   0  0  0  0  0  0  0  0  0  0  0  0
   40.6445   15.4727    7.3464 C   0  0  0  0  0  0  0  0  0  0  0  0
   40.2979   14.4210    7.9795 O   0  0  0  0  0  0  0  0  0  0  0  0
   41.0005   16.6921    7.9888 N   0  0  0  0  0  0  0  0  0  0  0  0
   42.2012   16.7473    8.7539 C   0  0  1  0  0  0  0  0  0  0  0  0
   41.0569   18.5835    9.9674 N   0  0  0  0  0  0  0  0  0  0  0  0
   40.7677   19.1501   11.2582 C   0  0  0  0  0  0  0  0  0  0  0  0
   39.3999   17.2479   12.0119 C   0  0  0  0  0  0  0  0  0  0  0  0
   42.2160   18.9536   13.8519 C   0  0  0  0  0  0  0  0  0  0  0  0
   41.6385   20.0982   14.3719 O   0  0  0  0  0  0  0  0  0  0  0  0
   40.1820   18.7603    8.8835 C   0  0  0  0  0  0  0  0  0  0  0  0
   39.3530   19.8713    8.7907 C   0  0  0  0  0  0  0  0  0  0  0  0
   38.4992   20.0774    7.7475 C   0  0  0  0  0  0  0  0  0  0  0  0
   38.4768   19.1268    6.7533 C   0  0  0  0  0  0  0  0  0  0  0  0
   39.3012   17.9991    6.8231 C   0  0  0  0  0  0  0  0  0  0  0  0
   40.1430   17.8312    7.8913 C   0  0  0  0  0  0  0  0  0  0  0  0
   37.6481   21.2392    7.6873 C   0  0  0  0  0  0  0  0  0  0  0  0
   37.8736   22.3385    8.4334 C   0  0  0  0  0  0  0  0  0  0  0  0
   36.8902   23.4457    8.2415 C   0  0  0  0  0  0  0  0  0  0  0  0
   35.5770   22.8803    8.5233 N   0  0  0  0  0  4  0  0  0  0  0  0
   35.2810   21.7583    7.6814 C   0  0  0  0  0  0  0  0  0  0  0  0
   36.4560   21.3604    6.8066 C   0  0  0  0  0  0  0  0  0  0  0  0
   43.3784   16.8165    7.8063 C   0  0  1  0  0  0  0  0  0  0  0  0
   44.7186   16.7264    8.4484 C   0  0  0  0  0  0  0  0  0  0  0  0
   44.2301   15.6360    7.7269 C   0  0  0  0  0  0  0  0  0  0  0  0
  1 11  1  0
  1 12  1  6
  2  6  1  0
 13  2  1  0
  2 14  2  0
  3  4  2  0
 14  3  1  0
  5  4  1  0
  6  5  2  0
  6 15  1  0
  7  8  1  6
  8  9  2  0
 10  8  1  0
 11 10  1  6
 10 22  1  0
 11 29  1  0
 13 12  1  6
 12 17  1  0
 15 16  1  6
 17 18  2  0
 17 22  1  0
 18 19  1  0
 19 20  2  0
 19 23  1  0
 20 21  1  0
 21 22  2  0
 23 24  2  0
 28 23  1  1
 25 24  1  1
 26 25  1  1
 26 27  1  0
 27 28  1  6
 29 30  1  1
 29 31  1  0
 30 31  2  0
M  CHG  1  26   1
M  END
$$$$
