
     RDKit          3D

 31 35  0  0  0  0  0  0  0  0999 V2000
   42.0908   17.2344    9.4006 C   0  0  0  0  0  0  0  0  0  0  0  0
   40.6756   18.1380   11.9392 C   0  0  0  0  0  0  0  0  0  0  0  0
   41.6850   16.9337   13.8016 C   0  0  0  0  0  0  0  0  0  0  0  0
   40.4489   16.4506   14.1414 C   0  0  0  0  0  0  0  0  0  0  0  0
   39.3569   16.8019   13.4049 C   0  0  0  0  0  0  0  0  0  0  0  0
   39.4639   17.6611   12.2847 C   0  0  0  0  0  0  0  0  0  0  0  0
   39.1306   15.2466    6.3555 C   0  0  0  0  0  0  0  0  0  0  0  0
   40.5764   15.3938    6.6799 C   0  0  0  0  0  0  0  0  0  0  0  0
   41.3270   14.4297    6.3573 O   0  0  0  0  0  0  0  0  0  0  0  0
   41.0341   16.5547    7.3064 N   0  0  0  0  0  0  0  0  0  0  0  0
   42.2914   16.6450    8.0297 C   0  0  1  0  0  0  0  0  0  0  0  0
   41.1042   18.2545    9.5193 N   0  0  0  0  0  0  0  0  0  0  0  0
   40.9384   18.9533   10.7437 C   0  0  0  0  0  0  0  0  0  0  0  0
   41.7868   17.7601   12.7206 C   0  0  0  0  0  0  0  0  0  0  0  0
   38.2422   18.0379   11.6290 C   0  0  0  0  0  0  0  0  0  0  0  0
   37.7338   19.2608   12.0027 O   0  0  0  0  0  0  0  0  0  0  0  0
   40.2908   18.5594    8.3846 C   0  0  0  0  0  0  0  0  0  0  0  0
   39.5320   19.6921    8.3679 C   0  0  0  0  0  0  0  0  0  0  0  0
   38.7209   20.0234    7.2789 C   0  0  0  0  0  0  0  0  0  0  0  0
   38.7065   19.1680    6.2069 C   0  0  0  0  0  0  0  0  0  0  0  0
   39.4615   18.0074    6.1784 C   0  0  0  0  0  0  0  0  0  0  0  0
   40.2373   17.7374    7.2799 C   0  0  0  0  0  0  0  0  0  0  0  0
   37.9305   21.2747    7.3085 C   0  0  0  0  0  0  0  0  0  0  0  0
   38.3076   22.3671    7.8940 C   0  0  0  0  0  0  0  0  0  0  0  0
   37.4760   23.5873    7.8888 C   0  0  0  0  0  0  0  0  0  0  0  0
   36.0662   23.3013    7.7830 N   0  0  0  0  0  4  0  0  0  0  0  0
   35.7756   22.4078    6.6866 C   0  0  0  0  0  0  0  0  0  0  0  0
   36.6198   21.1982    6.6277 C   0  0  0  0  0  0  0  0  0  0  0  0
   43.3483   17.3992    7.2571 C   0  0  1  0  0  0  0  0  0  0  0  0
   44.5856   17.8783    7.9190 C   0  0  0  0  0  0  0  0  0  0  0  0
   44.6870   16.7702    7.1735 C   0  0  0  0  0  0  0  0  0  0  0  0
 11  1  1  1
 12  1  1  0
  2  6  1  0
 13  2  1  0
  2 14  2  0
  3  4  2  0
 14  3  1  0
  5  4  1  0
  6  5  2  0
  6 15  1  0
  8  7  1  0
  8  9  2  0
 10  8  1  0
 11 10  1  0
 10 22  1  0
 11 29  1  0
 12 13  1  0
 12 17  1  0
 15 16  1  0
 17 18  2  0
 17 22  1  0
 18 19  1  0
 19 20  2  0
 19 23  1  0
 20 21  1  0
 21 22  2  0
 23 24  2  0
 23 28  1  0
 24 25  1  0
 25 26  1  0
 26 27  1  0
 27 28  1  0
 29 30  1  1
 29 31  1  0
 30 31  2  0
M  CHG  1  26   1
M  END
$$$$
