
     RDKit          3D

 31 35  0  0  0  0  0  0  0  0999 V2000
   42.4839   17.2976    9.5399 C   0  0  0  0  0  0  0  0  0  0  0  0
   40.8060   18.1822   12.1471 C   0  0  0  0  0  0  0  0  0  0  0  0
   41.1885   16.6187   13.9766 C   0  0  0  0  0  0  0  0  0  0  0  0
   39.8347   16.5313   14.1668 C   0  0  0  0  0  0  0  0  0  0  0  0
   38.9901   17.2494   13.3737 C   0  0  0  0  0  0  0  0  0  0  0  0
   39.4766   18.0926   12.3456 C   0  0  0  0  0  0  0  0  0  0  0  0
   39.3260   15.4975    6.4763 C   0  0  0  0  0  0  0  0  0  0  0  0
   40.7577   15.5549    6.8816 C   0  0  0  0  0  0  0  0  0  0  0  0
   41.4594   14.5380    6.6163 O   0  0  0  0  0  0  0  0  0  0  0  0
   41.2556   16.6942    7.5173 N   0  0  0  0  0  0  0  0  0  0  0  0
   42.5703   16.7717    8.1318 C   0  0  1  0  0  0  0  0  0  0  0  0
   41.5002   18.2967    9.7894 N   0  0  0  0  0  0  0  0  0  0  0  0
   41.4345   18.9389   11.0537 C   0  0  0  0  0  0  0  0  0  0  0  0
   41.6558   17.4302   12.9841 C   0  0  0  0  0  0  0  0  0  0  0  0
   38.5084   18.8712   11.6238 C   0  0  0  0  0  0  0  0  0  0  0  0
   37.7789   19.7502   12.3912 O   0  0  0  0  0  0  0  0  0  0  0  0
   40.5872   18.6386    8.7446 C   0  0  0  0  0  0  0  0  0  0  0  0
   39.8173   19.7594    8.8447 C   0  0  0  0  0  0  0  0  0  0  0  0
   38.9103   20.1256    7.8463 C   0  0  0  0  0  0  0  0  0  0  0  0
   38.8117   19.3178    6.7424 C   0  0  0  0  0  0  0  0  0  0  0  0
   39.5742   18.1709    6.5965 C   0  0  0  0  0  0  0  0  0  0  0  0
   40.4464   17.8649    7.6131 C   0  0  0  0  0  0  0  0  0  0  0  0
   38.1117   21.3626    8.0004 C   0  0  0  0  0  0  0  0  0  0  0  0
   36.9697   21.5748    7.4267 C   0  0  0  0  0  0  0  0  0  0  0  0
   36.2163   22.8301    7.6195 C   0  0  0  0  0  0  0  0  0  0  0  0
   37.0709   23.9543    7.9137 N   0  0  0  0  0  4  0  0  0  0  0  0
   37.9898   23.6690    8.9902 C   0  0  0  0  0  0  0  0  0  0  0  0
   38.7274   22.3970    8.8596 C   0  0  0  0  0  0  0  0  0  0  0  0
   43.5470   17.5746    7.3047 C   0  0  1  0  0  0  0  0  0  0  0  0
   44.8311   18.0448    7.8779 C   0  0  0  0  0  0  0  0  0  0  0  0
   44.8810   16.9711    7.0789 C   0  0  0  0  0  0  0  0  0  0  0  0
 11  1  1  1
 12  1  1  0
  2  6  1  0
 13  2  1  0
  2 14  2  0
  3  4  2  0
 14  3  1  0
  5  4  1  0
  6  5  2  0
  6 15  1  0
  8  7  1  0
  8  9  2  0
 10  8  1  0
 11 10  1  0
 10 22  1  0
 11 29  1  0
 12 13  1  0
 12 17  1  0
 15 16  1  0
 17 18  2  0
 17 22  1  0
 18 19  1  0
 19 20  2  0
 19 23  1  0
 20 21  1  0
 21 22  2  0
 23 24  2  0
 23 28  1  0
 24 25  1  0
 25 26  1  0
 26 27  1  0
 27 28  1  0
 29 30  1  1
 29 31  1  0
 30 31  2  0
M  CHG  1  26   1
M  END
$$$$
