
     RDKit          3D

 31 35  0  0  0  0  0  0  0  0999 V2000
   42.1915   17.2269    9.0571 C   0  0  0  0  0  0  0  0  0  0  0  0
   40.2144   18.0403   11.6060 C   0  0  0  0  0  0  0  0  0  0  0  0
   40.0043   16.0725   13.0277 C   0  0  0  0  0  0  0  0  0  0  0  0
   38.7147   16.4346   13.3150 C   0  0  0  0  0  0  0  0  0  0  0  0
   38.1897   17.5671   12.7674 C   0  0  0  0  0  0  0  0  0  0  0  0
   38.9467   18.3899   11.8988 C   0  0  0  0  0  0  0  0  0  0  0  0
   39.1941   15.5986    5.6785 C   0  0  0  0  0  0  0  0  0  0  0  0
   40.5592   15.5930    6.2733 C   0  0  0  0  0  0  0  0  0  0  0  0
   41.2472   14.5482    6.0946 O   0  0  0  0  0  0  0  0  0  0  0  0
   41.0139   16.7072    6.9817 N   0  0  0  0  0  0  0  0  0  0  0  0
   42.3157   16.7854    7.6231 C   0  0  1  0  0  0  0  0  0  0  0  0
   41.1757   18.1824    9.3456 N   0  0  0  0  0  0  0  0  0  0  0  0
   41.0711   18.7488   10.6431 C   0  0  0  0  0  0  0  0  0  0  0  0
   40.7320   16.8653   12.1888 C   0  0  0  0  0  0  0  0  0  0  0  0
   38.3295   19.6052   11.4442 C   0  0  0  0  0  0  0  0  0  0  0  0
   37.8707   20.4340   12.4423 O   0  0  0  0  0  0  0  0  0  0  0  0
   40.2704   18.5585    8.3059 C   0  0  0  0  0  0  0  0  0  0  0  0
   39.4672   19.6500    8.4560 C   0  0  0  0  0  0  0  0  0  0  0  0
   38.5665   20.0479    7.4641 C   0  0  0  0  0  0  0  0  0  0  0  0
   38.5089   19.3025    6.3143 C   0  0  0  0  0  0  0  0  0  0  0  0
   39.3061   18.1874    6.1168 C   0  0  0  0  0  0  0  0  0  0  0  0
   40.1701   17.8476    7.1297 C   0  0  0  0  0  0  0  0  0  0  0  0
   37.7304   21.2514    7.6743 C   0  0  0  0  0  0  0  0  0  0  0  0
   36.5850   21.4576    7.1051 C   0  0  0  0  0  0  0  0  0  0  0  0
   35.7935   22.6788    7.3550 C   0  0  0  0  0  0  0  0  0  0  0  0
   36.6126   23.8121    7.7090 N   0  0  0  0  0  4  0  0  0  0  0  0
   37.5351   23.5015    8.7756 C   0  0  0  0  0  0  0  0  0  0  0  0
   38.3111   22.2601    8.5868 C   0  0  0  0  0  0  0  0  0  0  0  0
   43.2823   17.6613    6.8607 C   0  0  1  0  0  0  0  0  0  0  0  0
   44.6993   17.7839    7.2799 C   0  0  0  0  0  0  0  0  0  0  0  0
   44.4429   16.9844    6.2364 C   0  0  0  0  0  0  0  0  0  0  0  0
 11  1  1  1
 12  1  1  0
  2  6  1  0
 13  2  1  0
  2 14  2  0
  3  4  2  0
 14  3  1  0
  5  4  1  0
  6  5  2  0
  6 15  1  0
  8  7  1  0
  8  9  2  0
 10  8  1  0
 11 10  1  0
 10 22  1  0
 11 29  1  0
 12 13  1  0
 12 17  1  0
 15 16  1  0
 17 18  2  0
 17 22  1  0
 18 19  1  0
 19 20  2  0
 19 23  1  0
 20 21  1  0
 21 22  2  0
 23 24  2  0
 23 28  1  0
 24 25  1  0
 25 26  1  0
 26 27  1  0
 27 28  1  0
 29 30  1  1
 29 31  1  0
 30 31  2  0
M  CHG  1  26   1
M  END
$$$$
