
     RDKit          3D

 31 35  0  0  0  0  0  0  0  0999 V2000
   43.5610   17.9249    8.6750 C   0  0  0  0  0  0  0  0  0  0  0  0
   43.7451   19.4441   11.2763 C   0  0  0  0  0  0  0  0  0  0  0  0
   45.8366   20.5077   11.8717 C   0  0  0  0  0  0  0  0  0  0  0  0
   45.2546   21.7440   11.6602 C   0  0  0  0  0  0  0  0  0  0  0  0
   43.9412   21.8279   11.2641 C   0  0  0  0  0  0  0  0  0  0  0  0
   43.1937   20.6736   11.0747 C   0  0  0  0  0  0  0  0  0  0  0  0
   40.5357   15.4682    5.5843 C   0  0  0  0  0  0  0  0  0  0  0  0
   41.5173   15.4365    6.7119 C   0  0  0  0  0  0  0  0  0  0  0  0
   42.0275   14.2847    6.9113 O   0  0  0  0  0  0  0  0  0  0  0  0
   41.8461   16.5838    7.4878 N   0  0  0  0  0  0  0  0  0  0  0  0
   43.1951   17.0419    7.5098 C   0  0  1  0  0  0  0  0  0  0  0  0
   42.5759   18.0083    9.7090 N   0  0  0  0  0  0  0  0  0  0  0  0
   42.9855   18.2025   11.0748 C   0  0  0  0  0  0  0  0  0  0  0  0
   45.0652   19.3741   11.6743 C   0  0  0  0  0  0  0  0  0  0  0  0
   41.7639   20.8844   10.6516 C   0  0  0  0  0  0  0  0  0  0  0  0
   41.4114   22.1628   11.0457 O   0  0  0  0  0  0  0  0  0  0  0  0
   41.2175   17.9432    9.3599 C   0  0  0  0  0  0  0  0  0  0  0  0
   40.2414   18.5876   10.1097 C   0  0  0  0  0  0  0  0  0  0  0  0
   38.9155   18.5519    9.7928 C   0  0  0  0  0  0  0  0  0  0  0  0
   38.5533   17.8387    8.6735 C   0  0  0  0  0  0  0  0  0  0  0  0
   39.5166   17.1807    7.9018 C   0  0  0  0  0  0  0  0  0  0  0  0
   40.8382   17.2416    8.2584 C   0  0  0  0  0  0  0  0  0  0  0  0
   37.9289   19.2273   10.5979 C   0  0  0  0  0  0  0  0  0  0  0  0
   37.7233   18.9219   11.8942 C   0  0  0  0  0  0  0  0  0  0  0  0
   36.6614   19.7236   12.5720 C   0  0  0  0  0  0  0  0  0  0  0  0
   35.4461   19.5376   11.7898 N   0  0  0  0  0  4  0  0  0  0  0  0
   35.6180   19.9357   10.4234 C   0  0  0  0  0  0  0  0  0  0  0  0
   37.0510   20.3218   10.1050 C   0  0  0  0  0  0  0  0  0  0  0  0
   43.4898   17.7482    6.2049 C   0  0  1  0  0  0  0  0  0  0  0  0
   44.8282   18.3946    6.1191 C   0  0  0  0  0  0  0  0  0  0  0  0
   44.5876   17.2205    5.4037 C   0  0  0  0  0  0  0  0  0  0  0  0
  1 11  1  0
  1 12  1  6
  2  6  1  0
 13  2  1  0
  2 14  2  0
  3  4  2  0
 14  3  1  0
  5  4  1  0
  6  5  2  0
  6 15  1  0
  7  8  1  6
  8  9  2  0
 10  8  1  0
 11 10  1  6
 10 22  1  0
 11 29  1  0
 13 12  1  6
 12 17  1  0
 15 16  1  6
 17 18  2  0
 17 22  1  0
 18 19  1  0
 19 20  2  0
 19 23  1  0
 20 21  1  0
 21 22  2  0
 23 24  2  0
 28 23  1  1
 25 24  1  1
 26 25  1  1
 26 27  1  0
 27 28  1  6
 29 30  1  1
 29 31  1  0
 30 31  2  0
M  CHG  1  26   1
M  END
$$$$
