
     RDKit          3D

 31 35  0  0  0  0  0  0  0  0999 V2000
   42.1999   17.0926    9.1826 C   0  0  0  0  0  0  0  0  0  0  0  0
   40.4754   18.0274   11.7758 C   0  0  0  0  0  0  0  0  0  0  0  0
   40.6008   16.1863   13.3672 C   0  0  0  0  0  0  0  0  0  0  0  0
   39.2931   16.4103   13.7086 C   0  0  0  0  0  0  0  0  0  0  0  0
   38.5964   17.4143   13.1047 C   0  0  0  0  0  0  0  0  0  0  0  0
   39.1913   18.2421   12.1222 C   0  0  0  0  0  0  0  0  0  0  0  0
   39.0263   15.3756    6.0631 C   0  0  0  0  0  0  0  0  0  0  0  0
   40.4431   15.3857    6.5211 C   0  0  0  0  0  0  0  0  0  0  0  0
   41.1152   14.3393    6.2962 O   0  0  0  0  0  0  0  0  0  0  0  0
   40.9599   16.5149    7.1596 N   0  0  0  0  0  0  0  0  0  0  0  0
   42.2763   16.5695    7.7729 C   0  0  1  0  0  0  0  0  0  0  0  0
   41.2327   18.1065    9.4362 N   0  0  0  0  0  0  0  0  0  0  0  0
   41.1786   18.7459   10.7025 C   0  0  0  0  0  0  0  0  0  0  0  0
   41.1722   16.9836   12.4187 C   0  0  0  0  0  0  0  0  0  0  0  0
   38.3978   19.3251   11.6101 C   0  0  0  0  0  0  0  0  0  0  0  0
   38.9165   20.5809   11.8281 O   0  0  0  0  0  0  0  0  0  0  0  0
   40.3241   18.4661    8.3934 C   0  0  0  0  0  0  0  0  0  0  0  0
   39.5724   19.5988    8.4976 C   0  0  0  0  0  0  0  0  0  0  0  0
   38.6703   19.9825    7.5013 C   0  0  0  0  0  0  0  0  0  0  0  0
   38.5576   19.1796    6.3952 C   0  0  0  0  0  0  0  0  0  0  0  0
   39.3014   18.0211    6.2450 C   0  0  0  0  0  0  0  0  0  0  0  0
   40.1697   17.6981    7.2598 C   0  0  0  0  0  0  0  0  0  0  0  0
   37.8918   21.2316    7.6600 C   0  0  0  0  0  0  0  0  0  0  0  0
   38.2111   22.1985    8.4610 C   0  0  0  0  0  0  0  0  0  0  0  0
   37.3952   23.4238    8.5759 C   0  0  0  0  0  0  0  0  0  0  0  0
   36.0033   23.1980    8.2722 N   0  0  0  0  0  4  0  0  0  0  0  0
   35.8279   22.5112    7.0143 C   0  0  0  0  0  0  0  0  0  0  0  0
   36.6635   21.3068    6.8398 C   0  0  0  0  0  0  0  0  0  0  0  0
   43.2649   17.3591    6.9471 C   0  0  1  0  0  0  0  0  0  0  0  0
   44.7055   17.3877    7.2972 C   0  0  0  0  0  0  0  0  0  0  0  0
   44.3435   16.5890    6.2848 C   0  0  0  0  0  0  0  0  0  0  0  0
 11  1  1  1
 12  1  1  0
  2  6  1  0
 13  2  1  0
  2 14  2  0
  3  4  2  0
 14  3  1  0
  5  4  1  0
  6  5  2  0
  6 15  1  0
  8  7  1  0
  8  9  2  0
 10  8  1  0
 11 10  1  0
 10 22  1  0
 11 29  1  0
 12 13  1  0
 12 17  1  0
 15 16  1  0
 17 18  2  0
 17 22  1  0
 18 19  1  0
 19 20  2  0
 19 23  1  0
 20 21  1  0
 21 22  2  0
 23 24  2  0
 23 28  1  0
 24 25  1  0
 25 26  1  0
 26 27  1  0
 27 28  1  0
 29 30  1  1
 29 31  1  0
 30 31  2  0
M  CHG  1  26   1
M  END
$$$$
