
     RDKit          3D

 31 35  0  0  0  0  0  0  0  0999 V2000
   41.1783   16.5712    9.7715 C   0  0  0  0  0  0  0  0  0  0  0  0
   39.8977   17.6937   12.0619 C   0  0  0  0  0  0  0  0  0  0  0  0
   39.0930   15.9272   13.5349 C   0  0  0  0  0  0  0  0  0  0  0  0
   37.8096   16.2052   13.1447 C   0  0  0  0  0  0  0  0  0  0  0  0
   37.5749   17.1994   12.2421 C   0  0  0  0  0  0  0  0  0  0  0  0
   38.6314   17.9620   11.6884 C   0  0  0  0  0  0  0  0  0  0  0  0
   40.4553   18.2118    5.7194 C   0  0  0  0  0  0  0  0  0  0  0  0
   41.4005   17.1718    6.2116 C   0  0  0  0  0  0  0  0  0  0  0  0
   41.7300   16.2740    5.3855 O   0  0  0  0  0  0  0  0  0  0  0  0
   41.8737   17.2269    7.5242 N   0  0  0  0  0  0  0  0  0  0  0  0
   41.7825   16.1246    8.4668 C   0  0  1  0  0  0  0  0  0  0  0  0
   41.5087   17.8845   10.2121 N   0  0  0  0  0  0  0  0  0  0  0  0
   41.0883   18.3398   11.4893 C   0  0  0  0  0  0  0  0  0  0  0  0
   40.1104   16.6617   12.9989 C   0  0  0  0  0  0  0  0  0  0  0  0
   38.2705   19.0422   10.8123 C   0  0  0  0  0  0  0  0  0  0  0  0
   38.4534   20.3019   11.3350 O   0  0  0  0  0  0  0  0  0  0  0  0
   42.2705   18.7286    9.3466 C   0  0  0  0  0  0  0  0  0  0  0  0
   42.8325   19.8750    9.8251 C   0  0  0  0  0  0  0  0  0  0  0  0
   43.5811   20.7285    9.0099 C   0  0  0  0  0  0  0  0  0  0  0  0
   43.7420   20.3793    7.6934 C   0  0  0  0  0  0  0  0  0  0  0  0
   43.1913   19.2243    7.1634 C   0  0  0  0  0  0  0  0  0  0  0  0
   42.4655   18.4279    8.0160 C   0  0  0  0  0  0  0  0  0  0  0  0
   44.1821   21.9520    9.5871 C   0  0  0  0  0  0  0  0  0  0  0  0
   44.8198   21.9948   10.7141 C   0  0  0  0  0  0  0  0  0  0  0  0
   45.4005   23.2466   11.2397 C   0  0  0  0  0  0  0  0  0  0  0  0
   44.6936   24.4212   10.7910 N   0  0  0  0  0  4  0  0  0  0  0  0
   44.5158   24.4320    9.3581 C   0  0  0  0  0  0  0  0  0  0  0  0
   43.9829   23.1795    8.7867 C   0  0  0  0  0  0  0  0  0  0  0  0
   43.1117   15.4396    8.6833 C   0  0  1  0  0  0  0  0  0  0  0  0
   43.4325   14.7795    9.9717 C   0  0  0  0  0  0  0  0  0  0  0  0
   43.0732   13.9839    8.9560 C   0  0  0  0  0  0  0  0  0  0  0  0
 11  1  1  1
 12  1  1  0
  2  6  1  0
 13  2  1  0
  2 14  2  0
  3  4  2  0
 14  3  1  0
  5  4  1  0
  6  5  2  0
  6 15  1  0
  8  7  1  0
  8  9  2  0
 10  8  1  0
 11 10  1  0
 10 22  1  0
 11 29  1  0
 12 13  1  0
 12 17  1  0
 15 16  1  0
 17 18  2  0
 17 22  1  0
 18 19  1  0
 19 20  2  0
 19 23  1  0
 20 21  1  0
 21 22  2  0
 23 24  2  0
 23 28  1  0
 24 25  1  0
 25 26  1  0
 26 27  1  0
 27 28  1  0
 29 30  1  1
 29 31  1  0
 30 31  2  0
M  CHG  1  26   1
M  END
$$$$
