
     RDKit          3D

 31 35  0  0  0  0  0  0  0  0999 V2000
   42.1334   17.4681    9.6521 C   0  0  0  0  0  0  0  0  0  0  0  0
   40.2243   18.1192   11.9880 C   0  0  0  0  0  0  0  0  0  0  0  0
   38.5289   16.5154   12.6891 C   0  0  0  0  0  0  0  0  0  0  0  0
   39.0879   16.4918   13.9396 C   0  0  0  0  0  0  0  0  0  0  0  0
   40.1842   17.2563   14.2075 C   0  0  0  0  0  0  0  0  0  0  0  0
   40.7690   18.0851   13.2197 C   0  0  0  0  0  0  0  0  0  0  0  0
   41.1064   14.3237    7.3912 C   0  0  0  0  0  0  0  0  0  0  0  0
   41.1394   15.6391    6.6941 C   0  0  0  0  0  0  0  0  0  0  0  0
   40.9145   15.6234    5.4506 O   0  0  0  0  0  0  0  0  0  0  0  0
   41.4068   16.8033    7.4174 N   0  0  0  0  0  0  0  0  0  0  0  0
   42.5531   16.9680    8.2955 C   0  0  1  0  0  0  0  0  0  0  0  0
   41.0484   18.3900    9.6856 N   0  0  0  0  0  0  0  0  0  0  0  0
   40.6705   19.0094   10.9057 C   0  0  0  0  0  0  0  0  0  0  0  0
   39.0924   17.3161   11.7387 C   0  0  0  0  0  0  0  0  0  0  0  0
   41.9719   18.7840   13.5791 C   0  0  0  0  0  0  0  0  0  0  0  0
   42.9659   18.7597   12.6279 O   0  0  0  0  0  0  0  0  0  0  0  0
   40.3535   18.6781    8.4706 C   0  0  0  0  0  0  0  0  0  0  0  0
   39.4995   19.7388    8.4027 C   0  0  0  0  0  0  0  0  0  0  0  0
   38.7989   20.0511    7.2343 C   0  0  0  0  0  0  0  0  0  0  0  0
   38.9949   19.2525    6.1367 C   0  0  0  0  0  0  0  0  0  0  0  0
   39.8533   18.1659    6.1582 C   0  0  0  0  0  0  0  0  0  0  0  0
   40.5117   17.9108    7.3370 C   0  0  0  0  0  0  0  0  0  0  0  0
   37.8969   21.2248    7.2129 C   0  0  0  0  0  0  0  0  0  0  0  0
   36.8958   21.3661    6.4028 C   0  0  0  0  0  0  0  0  0  0  0  0
   36.0280   22.5605    6.4291 C   0  0  0  0  0  0  0  0  0  0  0  0
   36.7121   23.7369    6.9074 N   0  0  0  0  0  4  0  0  0  0  0  0
   37.3914   23.4972    8.1588 C   0  0  0  0  0  0  0  0  0  0  0  0
   38.2315   22.2837    8.1896 C   0  0  0  0  0  0  0  0  0  0  0  0
   43.6204   17.8502    7.6911 C   0  0  1  0  0  0  0  0  0  0  0  0
   44.7409   18.3690    8.5120 C   0  0  0  0  0  0  0  0  0  0  0  0
   45.0065   17.3275    7.7130 C   0  0  0  0  0  0  0  0  0  0  0  0
 11  1  1  1
 12  1  1  0
  2  6  1  0
 13  2  1  0
  2 14  2  0
  3  4  2  0
 14  3  1  0
  5  4  1  0
  6  5  2  0
  6 15  1  0
  8  7  1  0
  8  9  2  0
 10  8  1  0
 11 10  1  0
 10 22  1  0
 11 29  1  0
 12 13  1  0
 12 17  1  0
 15 16  1  0
 17 18  2  0
 17 22  1  0
 18 19  1  0
 19 20  2  0
 19 23  1  0
 20 21  1  0
 21 22  2  0
 23 24  2  0
 23 28  1  0
 24 25  1  0
 25 26  1  0
 26 27  1  0
 27 28  1  0
 29 30  1  1
 29 31  1  0
 30 31  2  0
M  CHG  1  26   1
M  END
$$$$
