
     RDKit          3D

 31 35  0  0  0  0  0  0  0  0999 V2000
   42.7420   17.7590    9.1907 C   0  0  0  0  0  0  0  0  0  0  0  0
   40.5661   18.1132   11.7467 C   0  0  0  0  0  0  0  0  0  0  0  0
   39.8990   15.8905   12.4356 C   0  0  0  0  0  0  0  0  0  0  0  0
   38.9166   16.4458   13.2348 C   0  0  0  0  0  0  0  0  0  0  0  0
   38.7624   17.8104   13.2881 C   0  0  0  0  0  0  0  0  0  0  0  0
   39.5908   18.6367   12.5411 C   0  0  0  0  0  0  0  0  0  0  0  0
   39.2906   15.3585    6.6811 C   0  0  0  0  0  0  0  0  0  0  0  0
   40.7385   15.7301    6.7227 C   0  0  0  0  0  0  0  0  0  0  0  0
   41.4858   14.9440    6.0515 O   0  0  0  0  0  0  0  0  0  0  0  0
   41.2317   16.8529    7.4453 N   0  0  0  0  0  0  0  0  0  0  0  0
   42.4998   16.7605    8.0882 C   0  0  1  0  0  0  0  0  0  0  0  0
   41.5962   18.5178    9.5879 N   0  0  0  0  0  0  0  0  0  0  0  0
   41.4667   18.9592   10.9514 C   0  0  0  0  0  0  0  0  0  0  0  0
   40.7101   16.7408   11.7022 C   0  0  0  0  0  0  0  0  0  0  0  0
   39.3251   20.1135   12.6676 C   0  0  0  0  0  0  0  0  0  0  0  0
   38.3189   20.4203   11.7691 O   0  0  0  0  0  0  0  0  0  0  0  0
   40.6370   18.8564    8.6202 C   0  0  0  0  0  0  0  0  0  0  0  0
   39.8769   20.0149    8.7225 C   0  0  0  0  0  0  0  0  0  0  0  0
   38.9443   20.3772    7.7959 C   0  0  0  0  0  0  0  0  0  0  0  0
   38.7671   19.5402    6.7185 C   0  0  0  0  0  0  0  0  0  0  0  0
   39.5193   18.3678    6.5922 C   0  0  0  0  0  0  0  0  0  0  0  0
   40.4447   18.0414    7.5486 C   0  0  0  0  0  0  0  0  0  0  0  0
   38.1687   21.5839    7.9378 C   0  0  0  0  0  0  0  0  0  0  0  0
   38.1418   22.2940    9.0828 C   0  0  0  0  0  0  0  0  0  0  0  0
   37.2846   23.5162    9.0489 C   0  0  0  0  0  0  0  0  0  0  0  0
   35.9485   23.0689    8.6770 N   0  0  0  0  0  4  0  0  0  0  0  0
   35.9404   22.3822    7.4186 C   0  0  0  0  0  0  0  0  0  0  0  0
   37.3360   22.1771    6.8580 C   0  0  0  0  0  0  0  0  0  0  0  0
   43.5851   16.8651    7.0394 C   0  0  1  0  0  0  0  0  0  0  0  0
   44.4203   15.6452    6.8639 C   0  0  0  0  0  0  0  0  0  0  0  0
   43.4773   15.9757    5.8893 C   0  0  0  0  0  0  0  0  0  0  0  0
  1 11  1  0
  1 12  1  6
  2  6  1  0
 13  2  1  0
  2 14  2  0
  3  4  2  0
 14  3  1  0
  5  4  1  0
  6  5  2  0
  6 15  1  0
  7  8  1  6
  8  9  2  0
 10  8  1  0
 11 10  1  6
 10 22  1  0
 11 29  1  0
 13 12  1  6
 12 17  1  0
 15 16  1  6
 17 18  2  0
 17 22  1  0
 18 19  1  0
 19 20  2  0
 19 23  1  0
 20 21  1  0
 21 22  2  0
 23 24  2  0
 28 23  1  1
 25 24  1  1
 26 25  1  1
 26 27  1  0
 27 28  1  6
 29 30  1  1
 29 31  1  0
 30 31  2  0
M  CHG  1  26   1
M  END
$$$$
