
     RDKit          3D

 31 35  0  0  0  0  0  0  0  0999 V2000
   41.9934   17.6346    9.5580 C   0  0  0  0  0  0  0  0  0  0  0  0
   40.5403   18.4209   12.0888 C   0  0  0  0  0  0  0  0  0  0  0  0
   41.6639   17.3013   13.9387 C   0  0  0  0  0  0  0  0  0  0  0  0
   40.4800   16.7000   14.2759 C   0  0  0  0  0  0  0  0  0  0  0  0
   39.3579   16.9526   13.5443 C   0  0  0  0  0  0  0  0  0  0  0  0
   39.3802   17.8280   12.4318 C   0  0  0  0  0  0  0  0  0  0  0  0
   39.2369   15.5977    6.3031 C   0  0  0  0  0  0  0  0  0  0  0  0
   40.6395   15.7612    6.7759 C   0  0  0  0  0  0  0  0  0  0  0  0
   41.4263   14.7989    6.5482 O   0  0  0  0  0  0  0  0  0  0  0  0
   41.0208   16.9343    7.4302 N   0  0  0  0  0  0  0  0  0  0  0  0
   42.2552   17.0792    8.1834 C   0  0  1  0  0  0  0  0  0  0  0  0
   40.9515   18.5990    9.6696 N   0  0  0  0  0  0  0  0  0  0  0  0
   40.7217   19.2680   10.9004 C   0  0  0  0  0  0  0  0  0  0  0  0
   41.6843   18.1432   12.8650 C   0  0  0  0  0  0  0  0  0  0  0  0
   38.1267   18.0929   11.7813 C   0  0  0  0  0  0  0  0  0  0  0  0
   37.6120   19.3504   11.9989 O   0  0  0  0  0  0  0  0  0  0  0  0
   40.1481   18.8790    8.5214 C   0  0  0  0  0  0  0  0  0  0  0  0
   39.3306   19.9700    8.5045 C   0  0  0  0  0  0  0  0  0  0  0  0
   38.5271   20.2756    7.4024 C   0  0  0  0  0  0  0  0  0  0  0  0
   38.5819   19.4384    6.3175 C   0  0  0  0  0  0  0  0  0  0  0  0
   39.3982   18.3199    6.2887 C   0  0  0  0  0  0  0  0  0  0  0  0
   40.1628   18.0735    7.4034 C   0  0  0  0  0  0  0  0  0  0  0  0
   37.6707   21.4828    7.4328 C   0  0  0  0  0  0  0  0  0  0  0  0
   36.3837   21.4732    7.2852 C   0  0  0  0  0  0  0  0  0  0  0  0
   35.5802   22.7114    7.3268 C   0  0  0  0  0  0  0  0  0  0  0  0
   36.3237   23.8736    6.9060 N   0  0  0  0  0  4  0  0  0  0  0  0
   37.5859   23.9887    7.5979 C   0  0  0  0  0  0  0  0  0  0  0  0
   38.3983   22.7564    7.6217 C   0  0  0  0  0  0  0  0  0  0  0  0
   43.2872   17.9008    7.4466 C   0  0  1  0  0  0  0  0  0  0  0  0
   44.5400   18.3326    8.1118 C   0  0  0  0  0  0  0  0  0  0  0  0
   44.6259   17.2896    7.2760 C   0  0  0  0  0  0  0  0  0  0  0  0
 11  1  1  1
 12  1  1  0
  2  6  1  0
 13  2  1  0
  2 14  2  0
  3  4  2  0
 14  3  1  0
  5  4  1  0
  6  5  2  0
  6 15  1  0
  8  7  1  0
  8  9  2  0
 10  8  1  0
 11 10  1  0
 10 22  1  0
 11 29  1  0
 12 13  1  0
 12 17  1  0
 15 16  1  0
 17 18  2  0
 17 22  1  0
 18 19  1  0
 19 20  2  0
 19 23  1  0
 20 21  1  0
 21 22  2  0
 23 24  2  0
 23 28  1  0
 24 25  1  0
 25 26  1  0
 26 27  1  0
 27 28  1  0
 29 30  1  1
 29 31  1  0
 30 31  2  0
M  CHG  1  26   1
M  END
$$$$
