
     RDKit          3D

 31 35  0  0  0  0  0  0  0  0999 V2000
   42.4961   17.6166    9.3068 C   0  0  0  0  0  0  0  0  0  0  0  0
   41.6930   18.7879   11.8038 C   0  0  0  0  0  0  0  0  0  0  0  0
   43.7160   20.0143   12.3174 C   0  0  0  0  0  0  0  0  0  0  0  0
   43.6338   19.5781   13.6270 C   0  0  0  0  0  0  0  0  0  0  0  0
   42.5996   18.7614   14.0170 C   0  0  0  0  0  0  0  0  0  0  0  0
   41.6338   18.3708   13.0995 C   0  0  0  0  0  0  0  0  0  0  0  0
   40.2135   15.9854    5.1877 C   0  0  0  0  0  0  0  0  0  0  0  0
   41.4429   16.0647    6.0351 C   0  0  0  0  0  0  0  0  0  0  0  0
   42.3167   15.1805    5.7495 O   0  0  0  0  0  0  0  0  0  0  0  0
   41.6166   17.0342    7.0628 N   0  0  0  0  0  0  0  0  0  0  0  0
   42.6579   16.8523    8.0181 C   0  0  1  0  0  0  0  0  0  0  0  0
   41.2243   18.2464    9.4860 N   0  0  0  0  0  0  0  0  0  0  0  0
   40.6819   18.4020   10.8098 C   0  0  0  0  0  0  0  0  0  0  0  0
   42.7372   19.6079   11.4253 C   0  0  0  0  0  0  0  0  0  0  0  0
   40.5540   17.4673   13.6336 C   0  0  0  0  0  0  0  0  0  0  0  0
   39.5472   17.4385   12.6852 O   0  0  0  0  0  0  0  0  0  0  0  0
   40.5479   18.7435    8.3605 C   0  0  0  0  0  0  0  0  0  0  0  0
   39.6930   19.8352    8.4480 C   0  0  0  0  0  0  0  0  0  0  0  0
   39.0287   20.3480    7.3732 C   0  0  0  0  0  0  0  0  0  0  0  0
   39.2318   19.7388    6.1566 C   0  0  0  0  0  0  0  0  0  0  0  0
   40.0870   18.6381    6.0417 C   0  0  0  0  0  0  0  0  0  0  0  0
   40.7331   18.1543    7.1489 C   0  0  0  0  0  0  0  0  0  0  0  0
   38.1437   21.4785    7.5022 C   0  0  0  0  0  0  0  0  0  0  0  0
   37.4130   21.6999    8.6127 C   0  0  0  0  0  0  0  0  0  0  0  0
   36.5520   22.9192    8.5703 C   0  0  0  0  0  0  0  0  0  0  0  0
   35.6969   22.7761    7.3991 N   0  0  0  0  0  4  0  0  0  0  0  0
   36.4560   22.6227    6.1927 C   0  0  0  0  0  0  0  0  0  0  0  0
   37.9474   22.5137    6.4528 C   0  0  0  0  0  0  0  0  0  0  0  0
   43.9796   17.1966    7.3676 C   0  0  1  0  0  0  0  0  0  0  0  0
   44.6240   18.4460    7.8579 C   0  0  0  0  0  0  0  0  0  0  0  0
   45.1546   17.2099    8.2305 C   0  0  0  0  0  0  0  0  0  0  0  0
  1 11  1  0
  1 12  1  6
  2  6  1  0
 13  2  1  0
  2 14  2  0
  3  4  2  0
 14  3  1  0
  5  4  1  0
  6  5  2  0
  6 15  1  0
  7  8  1  6
  8  9  2  0
 10  8  1  0
 11 10  1  6
 10 22  1  0
 11 29  1  0
 13 12  1  6
 12 17  1  0
 15 16  1  6
 17 18  2  0
 17 22  1  0
 18 19  1  0
 19 20  2  0
 19 23  1  0
 20 21  1  0
 21 22  2  0
 23 24  2  0
 28 23  1  1
 25 24  1  1
 26 25  1  1
 26 27  1  0
 27 28  1  6
 29 30  1  1
 29 31  1  0
 30 31  2  0
M  CHG  1  26   1
M  END
$$$$
