
     RDKit          3D

 31 35  0  0  0  0  0  0  0  0999 V2000
   42.4104   18.3112    9.3455 C   0  0  0  0  0  0  0  0  0  0  0  0
   40.6336   18.3972   11.8198 C   0  0  0  0  0  0  0  0  0  0  0  0
   39.7944   16.1949   12.3728 C   0  0  0  0  0  0  0  0  0  0  0  0
   40.3279   16.3233   13.6420 C   0  0  0  0  0  0  0  0  0  0  0  0
   41.0017   17.4685   13.9930 C   0  0  0  0  0  0  0  0  0  0  0  0
   41.1498   18.5005   13.0764 C   0  0  0  0  0  0  0  0  0  0  0  0
   39.7087   15.7501    6.0074 C   0  0  0  0  0  0  0  0  0  0  0  0
   40.9922   15.9854    6.7376 C   0  0  0  0  0  0  0  0  0  0  0  0
   41.8106   15.0105    6.6569 O   0  0  0  0  0  0  0  0  0  0  0  0
   41.2692   17.1832    7.4550 N   0  0  0  0  0  0  0  0  0  0  0  0
   42.4276   17.2431    8.2824 C   0  0  1  0  0  0  0  0  0  0  0  0
   41.1555   18.9748    9.5221 N   0  0  0  0  0  0  0  0  0  0  0  0
   40.7813   19.4658   10.8220 C   0  0  0  0  0  0  0  0  0  0  0  0
   39.9588   17.2415   11.4803 C   0  0  0  0  0  0  0  0  0  0  0  0
   41.8955   19.7113   13.5719 C   0  0  0  0  0  0  0  0  0  0  0  0
   42.6793   20.1587   12.5234 O   0  0  0  0  0  0  0  0  0  0  0  0
   40.3292   19.1739    8.4045 C   0  0  0  0  0  0  0  0  0  0  0  0
   39.4640   20.2578    8.3226 C   0  0  0  0  0  0  0  0  0  0  0  0
   38.6556   20.4850    7.2480 C   0  0  0  0  0  0  0  0  0  0  0  0
   38.7188   19.5849    6.2096 C   0  0  0  0  0  0  0  0  0  0  0  0
   39.5811   18.4852    6.2676 C   0  0  0  0  0  0  0  0  0  0  0  0
   40.3748   18.2945    7.3682 C   0  0  0  0  0  0  0  0  0  0  0  0
   37.7649   21.6172    7.1999 C   0  0  0  0  0  0  0  0  0  0  0  0
   36.5791   21.5760    6.5609 C   0  0  0  0  0  0  0  0  0  0  0  0
   35.7875   22.8410    6.6145 C   0  0  0  0  0  0  0  0  0  0  0  0
   36.6443   23.8835    6.0644 N   0  0  0  0  0  4  0  0  0  0  0  0
   37.8792   24.0017    6.7828 C   0  0  0  0  0  0  0  0  0  0  0  0
   38.0404   22.9287    7.8444 C   0  0  0  0  0  0  0  0  0  0  0  0
   43.6467   17.4014    7.4009 C   0  0  1  0  0  0  0  0  0  0  0  0
   44.6328   18.4201    7.8552 C   0  0  0  0  0  0  0  0  0  0  0  0
   44.9357   17.0645    7.9929 C   0  0  0  0  0  0  0  0  0  0  0  0
  1 11  1  0
  1 12  1  6
  2  6  1  0
 13  2  1  0
  2 14  2  0
  3  4  2  0
 14  3  1  0
  5  4  1  0
  6  5  2  0
  6 15  1  0
  7  8  1  6
  8  9  2  0
 10  8  1  0
 11 10  1  6
 10 22  1  0
 11 29  1  0
 13 12  1  6
 12 17  1  0
 15 16  1  6
 17 18  2  0
 17 22  1  0
 18 19  1  0
 19 20  2  0
 19 23  1  0
 20 21  1  0
 21 22  2  0
 23 24  2  0
 28 23  1  1
 25 24  1  1
 26 25  1  1
 26 27  1  0
 27 28  1  6
 29 30  1  1
 29 31  1  0
 30 31  2  0
M  CHG  1  26   1
M  END
$$$$
