
     RDKit          3D

 31 35  0  0  0  0  0  0  0  0999 V2000
   42.4338   17.3303    9.4995 C   0  0  0  0  0  0  0  0  0  0  0  0
   40.6516   18.2488   12.0815 C   0  0  0  0  0  0  0  0  0  0  0  0
   40.7730   16.4653   13.7375 C   0  0  0  0  0  0  0  0  0  0  0  0
   39.4427   16.6462   14.0098 C   0  0  0  0  0  0  0  0  0  0  0  0
   38.7367   17.6014   13.3410 C   0  0  0  0  0  0  0  0  0  0  0  0
   39.3449   18.4216   12.3602 C   0  0  0  0  0  0  0  0  0  0  0  0
   39.3309   15.5760    6.2891 C   0  0  0  0  0  0  0  0  0  0  0  0
   40.7132   15.5799    6.8427 C   0  0  0  0  0  0  0  0  0  0  0  0
   41.3810   14.5168    6.6975 O   0  0  0  0  0  0  0  0  0  0  0  0
   41.2046   16.7216    7.4790 N   0  0  0  0  0  0  0  0  0  0  0  0
   42.5203   16.8074    8.0903 C   0  0  1  0  0  0  0  0  0  0  0  0
   41.4437   18.3219    9.7533 N   0  0  0  0  0  0  0  0  0  0  0  0
   41.3766   18.9615   11.0188 C   0  0  0  0  0  0  0  0  0  0  0  0
   41.3574   17.2552   12.7907 C   0  0  0  0  0  0  0  0  0  0  0  0
   38.5349   19.4544   11.7758 C   0  0  0  0  0  0  0  0  0  0  0  0
   37.2519   19.5361   12.2667 O   0  0  0  0  0  0  0  0  0  0  0  0
   40.5256   18.6591    8.7113 C   0  0  0  0  0  0  0  0  0  0  0  0
   39.7480   19.7742    8.8153 C   0  0  0  0  0  0  0  0  0  0  0  0
   38.8359   20.1357    7.8198 C   0  0  0  0  0  0  0  0  0  0  0  0
   38.7401   19.3290    6.7148 C   0  0  0  0  0  0  0  0  0  0  0  0
   39.5104   18.1878    6.5650 C   0  0  0  0  0  0  0  0  0  0  0  0
   40.3874   17.8863    7.5789 C   0  0  0  0  0  0  0  0  0  0  0  0
   38.0288   21.3666    7.9781 C   0  0  0  0  0  0  0  0  0  0  0  0
   37.6158   21.8321    9.1144 C   0  0  0  0  0  0  0  0  0  0  0  0
   36.8138   23.0681    9.2108 C   0  0  0  0  0  0  0  0  0  0  0  0
   36.0303   23.3189    8.0259 N   0  0  0  0  0  4  0  0  0  0  0  0
   36.8279   23.2482    6.8243 C   0  0  0  0  0  0  0  0  0  0  0  0
   37.6824   22.0497    6.7129 C   0  0  0  0  0  0  0  0  0  0  0  0
   43.4891   17.6186    7.2621 C   0  0  1  0  0  0  0  0  0  0  0  0
   44.8797   17.8529    7.7205 C   0  0  0  0  0  0  0  0  0  0  0  0
   44.7013   16.9170    6.7793 C   0  0  0  0  0  0  0  0  0  0  0  0
 11  1  1  1
 12  1  1  0
  2  6  1  0
 13  2  1  0
  2 14  2  0
  3  4  2  0
 14  3  1  0
  5  4  1  0
  6  5  2  0
  6 15  1  0
  8  7  1  0
  8  9  2  0
 10  8  1  0
 11 10  1  0
 10 22  1  0
 11 29  1  0
 12 13  1  0
 12 17  1  0
 15 16  1  0
 17 18  2  0
 17 22  1  0
 18 19  1  0
 19 20  2  0
 19 23  1  0
 20 21  1  0
 21 22  2  0
 23 24  2  0
 23 28  1  0
 24 25  1  0
 25 26  1  0
 26 27  1  0
 27 28  1  0
 29 30  1  1
 29 31  1  0
 30 31  2  0
M  CHG  1  26   1
M  END
$$$$
