
     RDKit          3D

 31 35  0  0  0  0  0  0  0  0999 V2000
   41.9948   17.5853    9.5444 C   0  0  0  0  0  0  0  0  0  0  0  0
   40.6043   18.3873   12.0214 C   0  0  0  0  0  0  0  0  0  0  0  0
   39.3066   16.9408   13.4916 C   0  0  0  0  0  0  0  0  0  0  0  0
   40.3400   16.9507   14.3909 C   0  0  0  0  0  0  0  0  0  0  0  0
   41.4738   17.6551   14.1143 C   0  0  0  0  0  0  0  0  0  0  0  0
   41.6164   18.3867   12.9105 C   0  0  0  0  0  0  0  0  0  0  0  0
   39.4589   15.2577    6.4126 C   0  0  0  0  0  0  0  0  0  0  0  0
   40.8714   15.5986    6.7383 C   0  0  0  0  0  0  0  0  0  0  0  0
   41.7476   14.7543    6.3971 O   0  0  0  0  0  0  0  0  0  0  0  0
   41.1655   16.8004    7.3857 N   0  0  0  0  0  0  0  0  0  0  0  0
   42.3517   17.0162    8.1970 C   0  0  1  0  0  0  0  0  0  0  0  0
   40.9063   18.5028    9.5824 N   0  0  0  0  0  0  0  0  0  0  0  0
   40.5838   19.1840   10.7853 C   0  0  0  0  0  0  0  0  0  0  0  0
   39.4447   17.6479   12.3328 C   0  0  0  0  0  0  0  0  0  0  0  0
   42.8829   19.0239   12.6773 C   0  0  0  0  0  0  0  0  0  0  0  0
   43.8811   18.1892   12.2293 O   0  0  0  0  0  0  0  0  0  0  0  0
   40.1514   18.7235    8.3893 C   0  0  0  0  0  0  0  0  0  0  0  0
   39.2877   19.7753    8.3077 C   0  0  0  0  0  0  0  0  0  0  0  0
   38.5291   20.0225    7.1601 C   0  0  0  0  0  0  0  0  0  0  0  0
   38.6772   19.1681    6.0976 C   0  0  0  0  0  0  0  0  0  0  0  0
   39.5432   18.0879    6.1341 C   0  0  0  0  0  0  0  0  0  0  0  0
   40.2598   17.8982    7.2911 C   0  0  0  0  0  0  0  0  0  0  0  0
   37.6190   21.1894    7.1212 C   0  0  0  0  0  0  0  0  0  0  0  0
   37.3634   21.8856    6.0589 C   0  0  0  0  0  0  0  0  0  0  0  0
   36.4437   23.0406    6.0804 C   0  0  0  0  0  0  0  0  0  0  0  0
   36.3879   23.6855    7.3694 N   0  0  0  0  0  4  0  0  0  0  0  0
   36.1460   22.7433    8.4365 C   0  0  0  0  0  0  0  0  0  0  0  0
   37.0131   21.5487    8.4216 C   0  0  0  0  0  0  0  0  0  0  0  0
   43.3823   17.8701    7.4958 C   0  0  1  0  0  0  0  0  0  0  0  0
   44.7887   17.9125    7.9637 C   0  0  0  0  0  0  0  0  0  0  0  0
   44.5309   17.1602    6.8861 C   0  0  0  0  0  0  0  0  0  0  0  0
 11  1  1  1
 12  1  1  0
  2  6  1  0
 13  2  1  0
  2 14  2  0
  3  4  2  0
 14  3  1  0
  5  4  1  0
  6  5  2  0
  6 15  1  0
  8  7  1  0
  8  9  2  0
 10  8  1  0
 11 10  1  0
 10 22  1  0
 11 29  1  0
 12 13  1  0
 12 17  1  0
 15 16  1  0
 17 18  2  0
 17 22  1  0
 18 19  1  0
 19 20  2  0
 19 23  1  0
 20 21  1  0
 21 22  2  0
 23 24  2  0
 23 28  1  0
 24 25  1  0
 25 26  1  0
 26 27  1  0
 27 28  1  0
 29 30  1  1
 29 31  1  0
 30 31  2  0
M  CHG  1  26   1
M  END
$$$$
