
     RDKit          3D

 31 35  0  0  0  0  0  0  0  0999 V2000
   42.2927   17.2974    9.7730 C   0  0  0  0  0  0  0  0  0  0  0  0
   40.9903   18.9813   12.1392 C   0  0  0  0  0  0  0  0  0  0  0  0
   42.3628   20.9710   12.2715 C   0  0  0  0  0  0  0  0  0  0  0  0
   42.0501   21.0831   13.6138 C   0  0  0  0  0  0  0  0  0  0  0  0
   41.2225   20.1603   14.2072 C   0  0  0  0  0  0  0  0  0  0  0  0
   40.6972   19.1127   13.4633 C   0  0  0  0  0  0  0  0  0  0  0  0
   40.1284   15.9195    5.4853 C   0  0  0  0  0  0  0  0  0  0  0  0
   41.3145   15.9342    6.3956 C   0  0  0  0  0  0  0  0  0  0  0  0
   42.1961   15.0617    6.0981 O   0  0  0  0  0  0  0  0  0  0  0  0
   41.4426   16.8355    7.4899 N   0  0  0  0  0  0  0  0  0  0  0  0
   42.4905   16.6344    8.4342 C   0  0  1  0  0  0  0  0  0  0  0  0
   40.9931   17.8542    9.9910 N   0  0  0  0  0  0  0  0  0  0  0  0
   40.4431   17.8908   11.3203 C   0  0  0  0  0  0  0  0  0  0  0  0
   41.8231   19.9150   11.5555 C   0  0  0  0  0  0  0  0  0  0  0  0
   39.8124   18.1559   14.2178 C   0  0  0  0  0  0  0  0  0  0  0  0
   40.4595   16.9332   14.2302 O   0  0  0  0  0  0  0  0  0  0  0  0
   40.2955   18.3981    8.9006 C   0  0  0  0  0  0  0  0  0  0  0  0
   39.3914   19.4406    9.0616 C   0  0  0  0  0  0  0  0  0  0  0  0
   38.7050   19.9972    8.0229 C   0  0  0  0  0  0  0  0  0  0  0  0
   38.9369   19.4855    6.7672 C   0  0  0  0  0  0  0  0  0  0  0  0
   39.8419   18.4359    6.5783 C   0  0  0  0  0  0  0  0  0  0  0  0
   40.5086   17.9051    7.6513 C   0  0  0  0  0  0  0  0  0  0  0  0
   37.7690   21.0741    8.2278 C   0  0  0  0  0  0  0  0  0  0  0  0
   37.3923   21.9019    7.2334 C   0  0  0  0  0  0  0  0  0  0  0  0
   36.4150   22.9599    7.6275 C   0  0  0  0  0  0  0  0  0  0  0  0
   37.0315   23.6997    8.7212 N   0  0  0  0  0  4  0  0  0  0  0  0
   37.3651   22.8500    9.8265 C   0  0  0  0  0  0  0  0  0  0  0  0
   37.1173   21.3824    9.5284 C   0  0  0  0  0  0  0  0  0  0  0  0
   43.7955   17.0839    7.8150 C   0  0  1  0  0  0  0  0  0  0  0  0
   44.2749   18.4263    8.2448 C   0  0  0  0  0  0  0  0  0  0  0  0
   44.9199   17.2837    8.7211 C   0  0  0  0  0  0  0  0  0  0  0  0
  1 11  1  0
  1 12  1  6
  2  6  1  0
 13  2  1  0
  2 14  2  0
  3  4  2  0
 14  3  1  0
  5  4  1  0
  6  5  2  0
  6 15  1  0
  7  8  1  6
  8  9  2  0
 10  8  1  0
 11 10  1  6
 10 22  1  0
 11 29  1  0
 13 12  1  6
 12 17  1  0
 15 16  1  6
 17 18  2  0
 17 22  1  0
 18 19  1  0
 19 20  2  0
 19 23  1  0
 20 21  1  0
 21 22  2  0
 23 24  2  0
 28 23  1  1
 25 24  1  1
 26 25  1  1
 26 27  1  0
 27 28  1  6
 29 30  1  1
 29 31  1  0
 30 31  2  0
M  CHG  1  26   1
M  END
$$$$
