
     RDKit          3D

 31 35  0  0  0  0  0  0  0  0999 V2000
   41.6578   17.2439    9.5243 C   0  0  0  0  0  0  0  0  0  0  0  0
   40.8111   18.1670   12.0329 C   0  0  0  0  0  0  0  0  0  0  0  0
   40.7602   16.6159   13.9115 C   0  0  0  0  0  0  0  0  0  0  0  0
   41.8771   17.2214   14.4240 C   0  0  0  0  0  0  0  0  0  0  0  0
   42.4471   18.2670   13.7608 C   0  0  0  0  0  0  0  0  0  0  0  0
   41.9119   18.7524   12.5432 C   0  0  0  0  0  0  0  0  0  0  0  0
   39.6351   15.7771    5.5694 C   0  0  0  0  0  0  0  0  0  0  0  0
   40.9616   15.9217    6.2304 C   0  0  0  0  0  0  0  0  0  0  0  0
   41.8457   15.0776    5.9095 O   0  0  0  0  0  0  0  0  0  0  0  0
   41.1727   16.9522    7.1487 N   0  0  0  0  0  0  0  0  0  0  0  0
   42.2161   16.9370    8.1602 C   0  0  1  0  0  0  0  0  0  0  0  0
   40.5976   18.1930    9.5819 N   0  0  0  0  0  0  0  0  0  0  0  0
   40.0990   18.6366   10.8348 C   0  0  0  0  0  0  0  0  0  0  0  0
   40.2443   17.0860   12.7390 C   0  0  0  0  0  0  0  0  0  0  0  0
   42.6369   19.8013   11.8808 C   0  0  0  0  0  0  0  0  0  0  0  0
   42.0472   21.0433   11.9390 O   0  0  0  0  0  0  0  0  0  0  0  0
   40.0510   18.6881    8.3579 C   0  0  0  0  0  0  0  0  0  0  0  0
   39.2348   19.7802    8.3622 C   0  0  0  0  0  0  0  0  0  0  0  0
   38.6778   20.2925    7.1871 C   0  0  0  0  0  0  0  0  0  0  0  0
   38.9777   19.6607    6.0073 C   0  0  0  0  0  0  0  0  0  0  0  0
   39.8029   18.5497    5.9540 C   0  0  0  0  0  0  0  0  0  0  0  0
   40.3181   18.0942    7.1435 C   0  0  0  0  0  0  0  0  0  0  0  0
   37.8113   21.4912    7.2493 C   0  0  0  0  0  0  0  0  0  0  0  0
   37.1995   21.8997    8.3157 C   0  0  0  0  0  0  0  0  0  0  0  0
   36.3480   23.1061    8.3179 C   0  0  0  0  0  0  0  0  0  0  0  0
   35.7625   23.3783    7.0281 N   0  0  0  0  0  4  0  0  0  0  0  0
   36.7496   23.3783    5.9743 C   0  0  0  0  0  0  0  0  0  0  0  0
   37.6540   22.2116    5.9673 C   0  0  0  0  0  0  0  0  0  0  0  0
   43.3649   17.8566    7.8174 C   0  0  1  0  0  0  0  0  0  0  0  0
   44.5710   17.9290    8.6768 C   0  0  0  0  0  0  0  0  0  0  0  0
   44.6729   17.2151    7.5482 C   0  0  0  0  0  0  0  0  0  0  0  0
 11  1  1  1
 12  1  1  0
  2  6  1  0
 13  2  1  0
  2 14  2  0
  3  4  2  0
 14  3  1  0
  5  4  1  0
  6  5  2  0
  6 15  1  0
  8  7  1  0
  8  9  2  0
 10  8  1  0
 11 10  1  0
 10 22  1  0
 11 29  1  0
 12 13  1  0
 12 17  1  0
 15 16  1  0
 17 18  2  0
 17 22  1  0
 18 19  1  0
 19 20  2  0
 19 23  1  0
 20 21  1  0
 21 22  2  0
 23 24  2  0
 23 28  1  0
 24 25  1  0
 25 26  1  0
 26 27  1  0
 27 28  1  0
 29 30  1  1
 29 31  1  0
 30 31  2  0
M  CHG  1  26   1
M  END
$$$$
