
     RDKit          3D

 31 35  0  0  0  0  0  0  0  0999 V2000
   42.9509   17.8642    9.2055 C   0  0  0  0  0  0  0  0  0  0  0  0
   41.1374   18.0150   11.9146 C   0  0  0  0  0  0  0  0  0  0  0  0
   41.5933   16.2083   13.4600 C   0  0  0  0  0  0  0  0  0  0  0  0
   40.2381   16.0964   13.7106 C   0  0  0  0  0  0  0  0  0  0  0  0
   39.3492   16.9291   13.0740 C   0  0  0  0  0  0  0  0  0  0  0  0
   39.8068   17.8852   12.1776 C   0  0  0  0  0  0  0  0  0  0  0  0
   41.8101   14.9097    5.8293 C   0  0  0  0  0  0  0  0  0  0  0  0
   41.0239   15.5671    6.9182 C   0  0  0  0  0  0  0  0  0  0  0  0
   39.9384   14.9598    7.2009 O   0  0  0  0  0  0  0  0  0  0  0  0
   41.4484   16.7579    7.5723 N   0  0  0  0  0  0  0  0  0  0  0  0
   42.7478   16.8028    8.1551 C   0  0  1  0  0  0  0  0  0  0  0  0
   41.7619   18.5372    9.6294 N   0  0  0  0  0  0  0  0  0  0  0  0
   41.6563   19.0231   10.9798 C   0  0  0  0  0  0  0  0  0  0  0  0
   42.0194   17.1721   12.5608 C   0  0  0  0  0  0  0  0  0  0  0  0
   38.7448   18.7345   11.5308 C   0  0  0  0  0  0  0  0  0  0  0  0
   38.0041   19.3009   12.5527 O   0  0  0  0  0  0  0  0  0  0  0  0
   40.7333   18.7504    8.6978 C   0  0  0  0  0  0  0  0  0  0  0  0
   39.8793   19.8421    8.7931 C   0  0  0  0  0  0  0  0  0  0  0  0
   38.8770   20.0829    7.9004 C   0  0  0  0  0  0  0  0  0  0  0  0
   38.7254   19.1889    6.8658 C   0  0  0  0  0  0  0  0  0  0  0  0
   39.5717   18.0816    6.7474 C   0  0  0  0  0  0  0  0  0  0  0  0
   40.5651   17.8773    7.6688 C   0  0  0  0  0  0  0  0  0  0  0  0
   38.0051   21.2229    8.0342 C   0  0  0  0  0  0  0  0  0  0  0  0
   37.3411   21.7505    6.9869 C   0  0  0  0  0  0  0  0  0  0  0  0
   36.4832   22.9289    7.3108 C   0  0  0  0  0  0  0  0  0  0  0  0
   37.3597   23.9161    7.9279 N   0  0  0  0  0  4  0  0  0  0  0  0
   38.0140   23.4017    9.0951 C   0  0  0  0  0  0  0  0  0  0  0  0
   37.7352   21.9261    9.3164 C   0  0  0  0  0  0  0  0  0  0  0  0
   43.7705   16.9563    7.0510 C   0  0  1  0  0  0  0  0  0  0  0  0
   44.7883   18.0207    7.2696 C   0  0  0  0  0  0  0  0  0  0  0  0
   45.1597   16.6812    7.3972 C   0  0  0  0  0  0  0  0  0  0  0  0
  1 11  1  0
  1 12  1  6
  2  6  1  0
 13  2  1  0
  2 14  2  0
  3  4  2  0
 14  3  1  0
  5  4  1  0
  6  5  2  0
  6 15  1  0
  7  8  1  6
  8  9  2  0
 10  8  1  0
 11 10  1  6
 10 22  1  0
 11 29  1  0
 13 12  1  6
 12 17  1  0
 15 16  1  6
 17 18  2  0
 17 22  1  0
 18 19  1  0
 19 20  2  0
 19 23  1  0
 20 21  1  0
 21 22  2  0
 23 24  2  0
 28 23  1  1
 25 24  1  1
 26 25  1  1
 26 27  1  0
 27 28  1  6
 29 30  1  1
 29 31  1  0
 30 31  2  0
M  CHG  1  26   1
M  END
$$$$
