
     RDKit          3D

 31 35  0  0  0  0  0  0  0  0999 V2000
   42.0605   17.2571    9.9272 C   0  0  0  0  0  0  0  0  0  0  0  0
   41.0949   18.4665   12.4110 C   0  0  0  0  0  0  0  0  0  0  0  0
   42.4882   17.8512   14.2925 C   0  0  0  0  0  0  0  0  0  0  0  0
   42.8482   19.1776   14.4446 C   0  0  0  0  0  0  0  0  0  0  0  0
   42.3398   20.1307   13.5949 C   0  0  0  0  0  0  0  0  0  0  0  0
   41.4639   19.7670   12.5812 C   0  0  0  0  0  0  0  0  0  0  0  0
   40.2852   16.3108    5.3170 C   0  0  0  0  0  0  0  0  0  0  0  0
   41.1903   16.0222    6.4718 C   0  0  0  0  0  0  0  0  0  0  0  0
   41.8154   14.9155    6.3652 O   0  0  0  0  0  0  0  0  0  0  0  0
   41.3357   16.9001    7.5829 N   0  0  0  0  0  0  0  0  0  0  0  0
   42.2825   16.5810    8.5987 C   0  0  1  0  0  0  0  0  0  0  0  0
   40.8176   17.9534   10.0563 N   0  0  0  0  0  0  0  0  0  0  0  0
   40.1783   18.0459   11.3422 C   0  0  0  0  0  0  0  0  0  0  0  0
   41.6126   17.5193   13.2717 C   0  0  0  0  0  0  0  0  0  0  0  0
   40.9613   20.8937   11.7177 C   0  0  0  0  0  0  0  0  0  0  0  0
   42.0617   21.6568   11.3704 O   0  0  0  0  0  0  0  0  0  0  0  0
   40.2665   18.5749    8.9243 C   0  0  0  0  0  0  0  0  0  0  0  0
   39.4731   19.7105    9.0309 C   0  0  0  0  0  0  0  0  0  0  0  0
   38.9306   20.3432    7.9515 C   0  0  0  0  0  0  0  0  0  0  0  0
   39.1968   19.8133    6.7102 C   0  0  0  0  0  0  0  0  0  0  0  0
   39.9923   18.6708    6.5757 C   0  0  0  0  0  0  0  0  0  0  0  0
   40.5156   18.0658    7.6882 C   0  0  0  0  0  0  0  0  0  0  0  0
   38.1062   21.5162    8.1001 C   0  0  0  0  0  0  0  0  0  0  0  0
   37.0883   21.5760    8.9813 C   0  0  0  0  0  0  0  0  0  0  0  0
   36.3426   22.8696    8.9992 C   0  0  0  0  0  0  0  0  0  0  0  0
   35.8719   23.0895    7.6377 N   0  0  0  0  0  4  0  0  0  0  0  0
   36.9490   23.1131    6.6919 C   0  0  0  0  0  0  0  0  0  0  0  0
   38.2863   22.7714    7.3234 C   0  0  0  0  0  0  0  0  0  0  0  0
   43.6711   16.8857    8.0817 C   0  0  1  0  0  0  0  0  0  0  0  0
   43.9945   18.3320    7.9402 C   0  0  0  0  0  0  0  0  0  0  0  0
   44.5669   17.6009    8.9824 C   0  0  0  0  0  0  0  0  0  0  0  0
  1 11  1  0
  1 12  1  6
  2  6  1  0
 13  2  1  0
  2 14  2  0
  3  4  2  0
 14  3  1  0
  5  4  1  0
  6  5  2  0
  6 15  1  0
  7  8  1  6
  8  9  2  0
 10  8  1  0
 11 10  1  6
 10 22  1  0
 11 29  1  0
 13 12  1  6
 12 17  1  0
 15 16  1  6
 17 18  2  0
 17 22  1  0
 18 19  1  0
 19 20  2  0
 19 23  1  0
 20 21  1  0
 21 22  2  0
 23 24  2  0
 28 23  1  1
 25 24  1  1
 26 25  1  1
 26 27  1  0
 27 28  1  6
 29 30  1  6
 29 31  1  0
 30 31  2  0
M  CHG  1  26   1
M  END
$$$$
