
     RDKit          3D

 31 35  0  0  0  0  0  0  0  0999 V2000
   42.7357   17.5857    9.1295 C   0  0  0  0  0  0  0  0  0  0  0  0
   40.8415   18.4588   11.6204 C   0  0  0  0  0  0  0  0  0  0  0  0
   41.0154   16.7794   13.3775 C   0  0  0  0  0  0  0  0  0  0  0  0
   39.6539   16.8130   13.5255 C   0  0  0  0  0  0  0  0  0  0  0  0
   38.9069   17.6461   12.7470 C   0  0  0  0  0  0  0  0  0  0  0  0
   39.5038   18.4875   11.7773 C   0  0  0  0  0  0  0  0  0  0  0  0
   39.7999   15.7536    5.8536 C   0  0  0  0  0  0  0  0  0  0  0  0
   41.1927   15.8190    6.3761 C   0  0  0  0  0  0  0  0  0  0  0  0
   41.9163   14.8018    6.1795 O   0  0  0  0  0  0  0  0  0  0  0  0
   41.6335   16.9654    7.0405 N   0  0  0  0  0  0  0  0  0  0  0  0
   42.9101   17.0651    7.7276 C   0  0  1  0  0  0  0  0  0  0  0  0
   41.7215   18.5661    9.3253 N   0  0  0  0  0  0  0  0  0  0  0  0
   41.5736   19.2037   10.5850 C   0  0  0  0  0  0  0  0  0  0  0  0
   41.5891   17.5893   12.4411 C   0  0  0  0  0  0  0  0  0  0  0  0
   38.6372   19.3891   11.0697 C   0  0  0  0  0  0  0  0  0  0  0  0
   37.3645   19.4959   11.5819 O   0  0  0  0  0  0  0  0  0  0  0  0
   40.8622   18.8941    8.2317 C   0  0  0  0  0  0  0  0  0  0  0  0
   40.0676   20.0005    8.2903 C   0  0  0  0  0  0  0  0  0  0  0  0
   39.2113   20.3529    7.2434 C   0  0  0  0  0  0  0  0  0  0  0  0
   39.1892   19.5463    6.1344 C   0  0  0  0  0  0  0  0  0  0  0  0
   39.9794   18.4138    6.0295 C   0  0  0  0  0  0  0  0  0  0  0  0
   40.7989   18.1210    7.0928 C   0  0  0  0  0  0  0  0  0  0  0  0
   38.3828   21.5747    7.3547 C   0  0  0  0  0  0  0  0  0  0  0  0
   38.7218   22.6329    8.0209 C   0  0  0  0  0  0  0  0  0  0  0  0
   37.8534   23.8249    8.0948 C   0  0  0  0  0  0  0  0  0  0  0  0
   36.4538   23.5053    7.9545 N   0  0  0  0  0  4  0  0  0  0  0  0
   36.1994   22.6847    6.7940 C   0  0  0  0  0  0  0  0  0  0  0  0
   37.0805   21.5084    6.6569 C   0  0  0  0  0  0  0  0  0  0  0  0
   43.9167   17.8878    6.9577 C   0  0  1  0  0  0  0  0  0  0  0  0
   45.3508   17.8927    7.3344 C   0  0  0  0  0  0  0  0  0  0  0  0
   45.0039   17.1444    6.2793 C   0  0  0  0  0  0  0  0  0  0  0  0
 11  1  1  1
 12  1  1  0
  2  6  1  0
 13  2  1  0
  2 14  2  0
  3  4  2  0
 14  3  1  0
  5  4  1  0
  6  5  2  0
  6 15  1  0
  8  7  1  0
  8  9  2  0
 10  8  1  0
 11 10  1  0
 10 22  1  0
 11 29  1  0
 12 13  1  0
 12 17  1  0
 15 16  1  0
 17 18  2  0
 17 22  1  0
 18 19  1  0
 19 20  2  0
 19 23  1  0
 20 21  1  0
 21 22  2  0
 23 24  2  0
 23 28  1  0
 24 25  1  0
 25 26  1  0
 26 27  1  0
 27 28  1  0
 29 30  1  1
 29 31  1  0
 30 31  2  0
M  CHG  1  26   1
M  END
$$$$
