
     RDKit          3D

 31 35  0  0  0  0  0  0  0  0999 V2000
   42.1537   17.4802    9.4149 C   0  0  0  0  0  0  0  0  0  0  0  0
   40.3867   18.2673   11.9398 C   0  0  0  0  0  0  0  0  0  0  0  0
   38.3568   17.5548   13.0844 C   0  0  0  0  0  0  0  0  0  0  0  0
   39.1260   16.9432   14.0388 C   0  0  0  0  0  0  0  0  0  0  0  0
   40.4853   16.9887   13.9467 C   0  0  0  0  0  0  0  0  0  0  0  0
   41.1338   17.6586   12.8812 C   0  0  0  0  0  0  0  0  0  0  0  0
   39.2333   15.2924    6.5714 C   0  0  0  0  0  0  0  0  0  0  0  0
   40.6813   15.6212    6.6837 C   0  0  0  0  0  0  0  0  0  0  0  0
   41.4878   14.7963    6.1679 O   0  0  0  0  0  0  0  0  0  0  0  0
   41.0807   16.7917    7.3320 N   0  0  0  0  0  0  0  0  0  0  0  0
   42.3507   16.9448    8.0216 C   0  0  1  0  0  0  0  0  0  0  0  0
   41.1063   18.4286    9.5926 N   0  0  0  0  0  0  0  0  0  0  0  0
   40.9323   19.0797   10.8420 C   0  0  0  0  0  0  0  0  0  0  0  0
   38.9832   18.2017   12.0592 C   0  0  0  0  0  0  0  0  0  0  0  0
   42.5672   17.5744   12.8301 C   0  0  0  0  0  0  0  0  0  0  0  0
   43.1596   17.0410   13.9519 O   0  0  0  0  0  0  0  0  0  0  0  0
   40.2405   18.7110    8.4914 C   0  0  0  0  0  0  0  0  0  0  0  0
   39.4088   19.7906    8.5308 C   0  0  0  0  0  0  0  0  0  0  0  0
   38.5449   20.0981    7.4760 C   0  0  0  0  0  0  0  0  0  0  0  0
   38.5541   19.2746    6.3793 C   0  0  0  0  0  0  0  0  0  0  0  0
   39.3824   18.1680    6.2940 C   0  0  0  0  0  0  0  0  0  0  0  0
   40.2075   17.9191    7.3642 C   0  0  0  0  0  0  0  0  0  0  0  0
   37.6753   21.2928    7.5661 C   0  0  0  0  0  0  0  0  0  0  0  0
   37.2465   21.8062    8.6756 C   0  0  0  0  0  0  0  0  0  0  0  0
   36.3812   23.0024    8.7036 C   0  0  0  0  0  0  0  0  0  0  0  0
   35.5771   23.1374    7.5137 N   0  0  0  0  0  4  0  0  0  0  0  0
   36.3686   23.0335    6.3105 C   0  0  0  0  0  0  0  0  0  0  0  0
   37.2842   21.8765    6.2647 C   0  0  0  0  0  0  0  0  0  0  0  0
   43.3318   17.7893    7.2425 C   0  0  1  0  0  0  0  0  0  0  0  0
   44.6555   18.1444    7.8084 C   0  0  0  0  0  0  0  0  0  0  0  0
   44.6285   17.1589    6.9019 C   0  0  0  0  0  0  0  0  0  0  0  0
 11  1  1  1
 12  1  1  0
  2  6  1  0
 13  2  1  0
  2 14  2  0
  3  4  2  0
 14  3  1  0
  5  4  1  0
  6  5  2  0
  6 15  1  0
  8  7  1  0
  8  9  2  0
 10  8  1  0
 11 10  1  0
 10 22  1  0
 11 29  1  0
 12 13  1  0
 12 17  1  0
 15 16  1  0
 17 18  2  0
 17 22  1  0
 18 19  1  0
 19 20  2  0
 19 23  1  0
 20 21  1  0
 21 22  2  0
 23 24  2  0
 23 28  1  0
 24 25  1  0
 25 26  1  0
 26 27  1  0
 27 28  1  0
 29 30  1  1
 29 31  1  0
 30 31  2  0
M  CHG  1  26   1
M  END
$$$$
