
     RDKit          3D

 31 35  0  0  0  0  0  0  0  0999 V2000
   42.2413   17.6735    9.4284 C   0  0  0  0  0  0  0  0  0  0  0  0
   40.5355   18.3306   11.9258 C   0  0  0  0  0  0  0  0  0  0  0  0
   38.6811   17.2034   13.0342 C   0  0  0  0  0  0  0  0  0  0  0  0
   39.5367   16.7991   14.0247 C   0  0  0  0  0  0  0  0  0  0  0  0
   40.8536   17.1467   13.9678 C   0  0  0  0  0  0  0  0  0  0  0  0
   41.3694   17.9239   12.9027 C   0  0  0  0  0  0  0  0  0  0  0  0
   40.3448   16.0045    5.2038 C   0  0  0  0  0  0  0  0  0  0  0  0
   40.9583   15.8889    6.5557 C   0  0  0  0  0  0  0  0  0  0  0  0
   41.1338   14.7175    6.9963 O   0  0  0  0  0  0  0  0  0  0  0  0
   41.3072   17.0417    7.2623 N   0  0  0  0  0  0  0  0  0  0  0  0
   42.5299   17.1811    8.0352 C   0  0  1  0  0  0  0  0  0  0  0  0
   41.1778   18.6103    9.5673 N   0  0  0  0  0  0  0  0  0  0  0  0
   40.9204   19.2228   10.8218 C   0  0  0  0  0  0  0  0  0  0  0  0
   39.1792   17.9539   12.0093 C   0  0  0  0  0  0  0  0  0  0  0  0
   42.7862   18.1627   12.8921 C   0  0  0  0  0  0  0  0  0  0  0  0
   43.3098   18.6130   14.0824 O   0  0  0  0  0  0  0  0  0  0  0  0
   40.3811   18.9207    8.4222 C   0  0  0  0  0  0  0  0  0  0  0  0
   39.5406   19.9941    8.4407 C   0  0  0  0  0  0  0  0  0  0  0  0
   38.7429   20.3282    7.3428 C   0  0  0  0  0  0  0  0  0  0  0  0
   38.8274   19.5380    6.2250 C   0  0  0  0  0  0  0  0  0  0  0  0
   39.6677   18.4390    6.1598 C   0  0  0  0  0  0  0  0  0  0  0  0
   40.4253   18.1627    7.2723 C   0  0  0  0  0  0  0  0  0  0  0  0
   37.8605   21.5148    7.4128 C   0  0  0  0  0  0  0  0  0  0  0  0
   38.0876   22.5555    8.1502 C   0  0  0  0  0  0  0  0  0  0  0  0
   37.1705   23.7125    8.1778 C   0  0  0  0  0  0  0  0  0  0  0  0
   35.8063   23.3505    7.8801 N   0  0  0  0  0  4  0  0  0  0  0  0
   35.7048   22.5705    6.6692 C   0  0  0  0  0  0  0  0  0  0  0  0
   36.6405   21.4322    6.5808 C   0  0  0  0  0  0  0  0  0  0  0  0
   43.5520   18.0540    7.3451 C   0  0  1  0  0  0  0  0  0  0  0  0
   45.0019   17.8912    7.6091 C   0  0  0  0  0  0  0  0  0  0  0  0
   44.5307   17.3676    6.4700 C   0  0  0  0  0  0  0  0  0  0  0  0
 11  1  1  1
 12  1  1  0
  2  6  1  0
 13  2  1  0
  2 14  2  0
  3  4  2  0
 14  3  1  0
  5  4  1  0
  6  5  2  0
  6 15  1  0
  8  7  1  0
  8  9  2  0
 10  8  1  0
 11 10  1  0
 10 22  1  0
 11 29  1  0
 12 13  1  0
 12 17  1  0
 15 16  1  0
 17 18  2  0
 17 22  1  0
 18 19  1  0
 19 20  2  0
 19 23  1  0
 20 21  1  0
 21 22  2  0
 23 24  2  0
 23 28  1  0
 24 25  1  0
 25 26  1  0
 26 27  1  0
 27 28  1  0
 29 30  1  1
 29 31  1  0
 30 31  2  0
M  CHG  1  26   1
M  END
$$$$
