
     RDKit          3D

 31 35  0  0  0  0  0  0  0  0999 V2000
   39.5926   16.8244    8.8158 C   0  0  0  0  0  0  0  0  0  0  0  0
   38.8397   19.8614    9.4075 C   0  0  0  0  0  0  0  0  0  0  0  0
   36.9182   20.4193    8.0449 C   0  0  0  0  0  0  0  0  0  0  0  0
   37.4330   21.6892    7.8598 C   0  0  0  0  0  0  0  0  0  0  0  0
   38.6298   22.0379    8.4383 C   0  0  0  0  0  0  0  0  0  0  0  0
   39.3268   21.1184    9.2102 C   0  0  0  0  0  0  0  0  0  0  0  0
   42.4241   15.6219    5.1813 C   0  0  0  0  0  0  0  0  0  0  0  0
   41.9140   16.8615    5.8441 C   0  0  0  0  0  0  0  0  0  0  0  0
   41.9194   17.8852    5.0833 O   0  0  0  0  0  0  0  0  0  0  0  0
   41.4685   16.8923    7.1956 N   0  0  0  0  0  0  0  0  0  0  0  0
   40.1906   16.3499    7.5165 C   0  0  1  0  0  0  0  0  0  0  0  0
   40.2811   17.9104    9.4427 N   0  0  0  0  0  0  0  0  0  0  0  0
   39.5464   18.8673   10.2271 C   0  0  0  0  0  0  0  0  0  0  0  0
   37.6365   19.5240    8.8205 C   0  0  0  0  0  0  0  0  0  0  0  0
   40.6307   21.6046    9.7855 C   0  0  0  0  0  0  0  0  0  0  0  0
   41.5169   21.7247    8.7300 O   0  0  0  0  0  0  0  0  0  0  0  0
   41.6768   17.9941    9.3147 C   0  0  0  0  0  0  0  0  0  0  0  0
   42.4650   18.5738   10.3012 C   0  0  0  0  0  0  0  0  0  0  0  0
   43.8228   18.6625   10.2120 C   0  0  0  0  0  0  0  0  0  0  0  0
   44.4161   18.1460    9.0834 C   0  0  0  0  0  0  0  0  0  0  0  0
   43.6451   17.5574    8.0756 C   0  0  0  0  0  0  0  0  0  0  0  0
   42.2827   17.4915    8.2059 C   0  0  0  0  0  0  0  0  0  0  0  0
   44.6088   19.2770   11.2524 C   0  0  0  0  0  0  0  0  0  0  0  0
   44.0487   19.9317   12.2887 C   0  0  0  0  0  0  0  0  0  0  0  0
   45.0158   20.5048   13.2716 C   0  0  0  0  0  0  0  0  0  0  0  0
   45.8995   21.3808   12.5131 N   0  0  0  0  0  4  0  0  0  0  0  0
   46.5711   20.6844   11.4551 C   0  0  0  0  0  0  0  0  0  0  0  0
   46.0946   19.2509   11.3070 C   0  0  0  0  0  0  0  0  0  0  0  0
   40.2867   14.8402    7.5048 C   0  0  1  0  0  0  0  0  0  0  0  0
   39.0000   14.1221    7.2921 C   0  0  0  0  0  0  0  0  0  0  0  0
   39.9378   14.1678    6.2592 C   0  0  0  0  0  0  0  0  0  0  0  0
  1 11  1  0
  1 12  1  6
  2  6  1  0
 13  2  1  0
  2 14  2  0
  3  4  2  0
 14  3  1  0
  5  4  1  0
  6  5  2  0
  6 15  1  0
  7  8  1  6
  8  9  2  0
 10  8  1  0
 11 10  1  1
 10 22  1  0
 11 29  1  0
 13 12  1  6
 12 17  1  0
 15 16  1  6
 17 18  2  0
 17 22  1  0
 18 19  1  0
 19 20  2  0
 19 23  1  0
 20 21  1  0
 21 22  2  0
 23 24  2  0
 28 23  1  1
 25 24  1  1
 26 25  1  1
 26 27  1  0
 27 28  1  6
 29 30  1  1
 29 31  1  0
 30 31  2  0
M  CHG  1  26   1
M  END
$$$$
