
     RDKit          3D

 31 35  0  0  0  0  0  0  0  0999 V2000
   41.7269   17.5008    9.2953 C   0  0  0  0  0  0  0  0  0  0  0  0
   40.6616   18.3648   11.7709 C   0  0  0  0  0  0  0  0  0  0  0  0
   39.8944   16.7102   13.3870 C   0  0  0  0  0  0  0  0  0  0  0  0
   40.9946   16.9744   14.1593 C   0  0  0  0  0  0  0  0  0  0  0  0
   41.9038   17.9039   13.7500 C   0  0  0  0  0  0  0  0  0  0  0  0
   41.7424   18.6138   12.5357 C   0  0  0  0  0  0  0  0  0  0  0  0
   39.4558   15.8588    5.4887 C   0  0  0  0  0  0  0  0  0  0  0  0
   40.7673   15.9097    6.1920 C   0  0  0  0  0  0  0  0  0  0  0  0
   41.5385   14.9240    6.0176 O   0  0  0  0  0  0  0  0  0  0  0  0
   41.0863   17.0100    6.9904 N   0  0  0  0  0  0  0  0  0  0  0  0
   42.1860   17.0321    7.9403 C   0  0  1  0  0  0  0  0  0  0  0  0
   40.7230   18.5107    9.3157 N   0  0  0  0  0  0  0  0  0  0  0  0
   40.3239   19.1011   10.5434 C   0  0  0  0  0  0  0  0  0  0  0  0
   39.7391   17.3965   12.2179 C   0  0  0  0  0  0  0  0  0  0  0  0
   42.8001   19.5083   12.1541 C   0  0  0  0  0  0  0  0  0  0  0  0
   43.9920   18.8987   11.8359 O   0  0  0  0  0  0  0  0  0  0  0  0
   40.1309   18.9163    8.0799 C   0  0  0  0  0  0  0  0  0  0  0  0
   39.3746   20.0491    8.0199 C   0  0  0  0  0  0  0  0  0  0  0  0
   38.7759   20.4771    6.8316 C   0  0  0  0  0  0  0  0  0  0  0  0
   38.9715   19.7183    5.7060 C   0  0  0  0  0  0  0  0  0  0  0  0
   39.7329   18.5615    5.7187 C   0  0  0  0  0  0  0  0  0  0  0  0
   40.2938   18.1937    6.9180 C   0  0  0  0  0  0  0  0  0  0  0  0
   37.9785   21.7243    6.8211 C   0  0  0  0  0  0  0  0  0  0  0  0
   38.1834   22.7328    7.6080 C   0  0  0  0  0  0  0  0  0  0  0  0
   37.3550   23.9537    7.5504 C   0  0  0  0  0  0  0  0  0  0  0  0
   36.0175   23.6986    7.0743 N   0  0  0  0  0  4  0  0  0  0  0  0
   36.0156   22.9487    5.8404 C   0  0  0  0  0  0  0  0  0  0  0  0
   36.8716   21.7461    5.8405 C   0  0  0  0  0  0  0  0  0  0  0  0
   43.3587   17.8464    7.4458 C   0  0  1  0  0  0  0  0  0  0  0  0
   43.5184   19.2701    7.8282 C   0  0  0  0  0  0  0  0  0  0  0  0
   44.2802   18.3793    8.4763 C   0  0  0  0  0  0  0  0  0  0  0  0
 11  1  1  1
 12  1  1  0
  2  6  1  0
 13  2  1  0
  2 14  2  0
  3  4  2  0
 14  3  1  0
  5  4  1  0
  6  5  2  0
  6 15  1  0
  8  7  1  0
  8  9  2  0
 10  8  1  0
 11 10  1  0
 10 22  1  0
 11 29  1  0
 12 13  1  0
 12 17  1  0
 15 16  1  0
 17 18  2  0
 17 22  1  0
 18 19  1  0
 19 20  2  0
 19 23  1  0
 20 21  1  0
 21 22  2  0
 23 24  2  0
 23 28  1  0
 24 25  1  0
 25 26  1  0
 26 27  1  0
 27 28  1  0
 29 30  1  1
 29 31  1  0
 30 31  2  0
M  CHG  1  26   1
M  END
$$$$
