
     RDKit          3D

 31 35  0  0  0  0  0  0  0  0999 V2000
   39.7717   18.0682    7.8858 C   0  0  0  0  0  0  0  0  0  0  0  0
   39.0119   20.6814    8.2337 C   0  0  0  0  0  0  0  0  0  0  0  0
   37.0280   20.9741    6.8776 C   0  0  0  0  0  0  0  0  0  0  0  0
   36.2823   21.1529    8.0282 C   0  0  0  0  0  0  0  0  0  0  0  0
   36.8913   21.0971    9.2589 C   0  0  0  0  0  0  0  0  0  0  0  0
   38.2560   20.8613    9.3529 C   0  0  0  0  0  0  0  0  0  0  0  0
   43.6939   15.3630    6.2343 C   0  0  0  0  0  0  0  0  0  0  0  0
   42.2798   15.8432    6.1594 C   0  0  0  0  0  0  0  0  0  0  0  0
   41.6533   15.4247    5.1302 O   0  0  0  0  0  0  0  0  0  0  0  0
   41.6934   16.6883    7.1434 N   0  0  0  0  0  0  0  0  0  0  0  0
   40.2772   16.8426    7.1693 C   0  0  1  0  0  0  0  0  0  0  0  0
   40.7770   19.0174    8.2529 N   0  0  0  0  0  0  0  0  0  0  0  0
   40.4564   20.4195    8.2978 C   0  0  0  0  0  0  0  0  0  0  0  0
   38.3876   20.7402    7.0037 C   0  0  0  0  0  0  0  0  0  0  0  0
   38.8185   20.8319   10.7495 C   0  0  0  0  0  0  0  0  0  0  0  0
   37.8234   21.2903   11.5943 O   0  0  0  0  0  0  0  0  0  0  0  0
   42.0532   18.5520    8.6080 C   0  0  0  0  0  0  0  0  0  0  0  0
   42.8545   19.2408    9.5101 C   0  0  0  0  0  0  0  0  0  0  0  0
   44.0940   18.8115    9.8829 C   0  0  0  0  0  0  0  0  0  0  0  0
   44.5491   17.6385    9.3264 C   0  0  0  0  0  0  0  0  0  0  0  0
   43.7621   16.9262    8.4156 C   0  0  0  0  0  0  0  0  0  0  0  0
   42.5227   17.3958    8.0676 C   0  0  0  0  0  0  0  0  0  0  0  0
   44.9010   19.5557   10.8170 C   0  0  0  0  0  0  0  0  0  0  0  0
   44.8984   20.9026   10.8597 C   0  0  0  0  0  0  0  0  0  0  0  0
   45.7955   21.5043   11.8908 C   0  0  0  0  0  0  0  0  0  0  0  0
   47.1320   20.9902   11.6207 N   0  0  0  0  0  4  0  0  0  0  0  0
   47.1755   19.5576   11.6530 C   0  0  0  0  0  0  0  0  0  0  0  0
   45.8012   18.9369   11.8260 C   0  0  0  0  0  0  0  0  0  0  0  0
   39.6635   15.5959    7.7675 C   0  0  1  0  0  0  0  0  0  0  0  0
   40.0565   15.3047    9.1736 C   0  0  0  0  0  0  0  0  0  0  0  0
   38.7724   15.7819    8.9062 C   0  0  0  0  0  0  0  0  0  0  0  0
  1 11  1  0
  1 12  1  6
  2  6  1  0
 13  2  1  0
  2 14  2  0
  3  4  2  0
 14  3  1  0
  5  4  1  0
  6  5  2  0
  6 15  1  0
  7  8  1  6
  8  9  2  0
 10  8  1  0
 11 10  1  1
 10 22  1  0
 11 29  1  0
 13 12  1  6
 12 17  1  0
 15 16  1  6
 17 18  2  0
 17 22  1  0
 18 19  1  0
 19 20  2  0
 19 23  1  0
 20 21  1  0
 21 22  2  0
 23 24  2  0
 28 23  1  1
 25 24  1  1
 26 25  1  1
 26 27  1  0
 27 28  1  6
 29 30  1  1
 29 31  1  0
 30 31  2  0
M  CHG  1  26   1
M  END
$$$$
