
     RDKit          3D

 31 35  0  0  0  0  0  0  0  0999 V2000
   42.5220   17.7501    9.4208 C   0  0  0  0  0  0  0  0  0  0  0  0
   41.2008   18.0549   11.9999 C   0  0  0  0  0  0  0  0  0  0  0  0
   42.6856   16.6437   13.2898 C   0  0  0  0  0  0  0  0  0  0  0  0
   41.6025   16.1937   14.0222 C   0  0  0  0  0  0  0  0  0  0  0  0
   40.3415   16.6663   13.7475 C   0  0  0  0  0  0  0  0  0  0  0  0
   40.1493   17.5962   12.7349 C   0  0  0  0  0  0  0  0  0  0  0  0
   39.4413   15.3005    6.4125 C   0  0  0  0  0  0  0  0  0  0  0  0
   40.8470   15.5478    6.8584 C   0  0  0  0  0  0  0  0  0  0  0  0
   41.6526   14.6087    6.5487 O   0  0  0  0  0  0  0  0  0  0  0  0
   41.2435   16.7194    7.5630 N   0  0  0  0  0  0  0  0  0  0  0  0
   42.4217   16.6812    8.3633 C   0  0  1  0  0  0  0  0  0  0  0  0
   41.3338   18.5207    9.6228 N   0  0  0  0  0  0  0  0  0  0  0  0
   41.0341   19.0465   10.9283 C   0  0  0  0  0  0  0  0  0  0  0  0
   42.4621   17.5718   12.2861 C   0  0  0  0  0  0  0  0  0  0  0  0
   38.7260   18.0356   12.5141 C   0  0  0  0  0  0  0  0  0  0  0  0
   38.0207   17.7064   13.6578 O   0  0  0  0  0  0  0  0  0  0  0  0
   40.5020   18.7872    8.5235 C   0  0  0  0  0  0  0  0  0  0  0  0
   39.7324   19.9419    8.4557 C   0  0  0  0  0  0  0  0  0  0  0  0
   38.9219   20.2349    7.3989 C   0  0  0  0  0  0  0  0  0  0  0  0
   38.8826   19.3293    6.3640 C   0  0  0  0  0  0  0  0  0  0  0  0
   39.6474   18.1591    6.4079 C   0  0  0  0  0  0  0  0  0  0  0  0
   40.4470   17.9038    7.4910 C   0  0  0  0  0  0  0  0  0  0  0  0
   38.1319   21.4400    7.3653 C   0  0  0  0  0  0  0  0  0  0  0  0
   38.2424   22.4018    8.3027 C   0  0  0  0  0  0  0  0  0  0  0  0
   37.3461   23.5802    8.1084 C   0  0  0  0  0  0  0  0  0  0  0  0
   35.9875   23.0562    8.0516 N   0  0  0  0  0  4  0  0  0  0  0  0
   35.8254   22.0902    7.0048 C   0  0  0  0  0  0  0  0  0  0  0  0
   37.1337   21.7590    6.3101 C   0  0  0  0  0  0  0  0  0  0  0  0
   43.6291   16.7302    7.4531 C   0  0  1  0  0  0  0  0  0  0  0  0
   44.3882   18.0108    7.4710 C   0  0  0  0  0  0  0  0  0  0  0  0
   44.9300   16.8847    8.0927 C   0  0  0  0  0  0  0  0  0  0  0  0
  1 11  1  0
  1 12  1  6
  2  6  1  0
 13  2  1  0
  2 14  2  0
  3  4  2  0
 14  3  1  0
  5  4  1  0
  6  5  2  0
  6 15  1  0
  7  8  1  6
  8  9  2  0
 10  8  1  0
 11 10  1  6
 10 22  1  0
 11 29  1  0
 13 12  1  6
 12 17  1  0
 15 16  1  6
 17 18  2  0
 17 22  1  0
 18 19  1  0
 19 20  2  0
 19 23  1  0
 20 21  1  0
 21 22  2  0
 23 24  2  0
 28 23  1  1
 25 24  1  1
 26 25  1  1
 26 27  1  0
 27 28  1  6
 29 30  1  6
 29 31  1  0
 30 31  2  0
M  CHG  1  26   1
M  END
$$$$
