
     RDKit          3D

 31 35  0  0  0  0  0  0  0  0999 V2000
   42.1048   17.8084    9.7163 C   0  0  0  0  0  0  0  0  0  0  0  0
   40.5834   17.9330   12.1543 C   0  0  0  0  0  0  0  0  0  0  0  0
   39.5996   16.1134   13.4118 C   0  0  0  0  0  0  0  0  0  0  0  0
   40.8034   15.9309   14.0670 C   0  0  0  0  0  0  0  0  0  0  0  0
   41.8774   16.7357   13.7708 C   0  0  0  0  0  0  0  0  0  0  0  0
   41.7590   17.7342   12.8137 C   0  0  0  0  0  0  0  0  0  0  0  0
   39.3962   15.4694    6.3718 C   0  0  0  0  0  0  0  0  0  0  0  0
   40.7859   15.8329    6.7871 C   0  0  0  0  0  0  0  0  0  0  0  0
   41.6791   15.0552    6.3137 O   0  0  0  0  0  0  0  0  0  0  0  0
   41.0794   16.9401    7.6322 N   0  0  0  0  0  0  0  0  0  0  0  0
   42.1484   16.8331    8.5682 C   0  0  1  0  0  0  0  0  0  0  0  0
   40.8931   18.5601    9.8314 N   0  0  0  0  0  0  0  0  0  0  0  0
   40.4270   18.9735   11.1286 C   0  0  0  0  0  0  0  0  0  0  0  0
   39.5124   17.1177   12.4617 C   0  0  0  0  0  0  0  0  0  0  0  0
   42.9947   18.5620   12.5781 C   0  0  0  0  0  0  0  0  0  0  0  0
   42.9199   19.6491   13.4304 O   0  0  0  0  0  0  0  0  0  0  0  0
   40.2032   18.9196    8.6626 C   0  0  0  0  0  0  0  0  0  0  0  0
   39.4368   20.0765    8.5962 C   0  0  0  0  0  0  0  0  0  0  0  0
   38.7624   20.4588    7.4743 C   0  0  0  0  0  0  0  0  0  0  0  0
   38.8619   19.6444    6.3701 C   0  0  0  0  0  0  0  0  0  0  0  0
   39.6267   18.4740    6.4110 C   0  0  0  0  0  0  0  0  0  0  0  0
   40.2867   18.1270    7.5607 C   0  0  0  0  0  0  0  0  0  0  0  0
   37.9709   21.6631    7.4433 C   0  0  0  0  0  0  0  0  0  0  0  0
   37.9008   22.5078    8.4910 C   0  0  0  0  0  0  0  0  0  0  0  0
   37.0332   23.7049    8.2812 C   0  0  0  0  0  0  0  0  0  0  0  0
   35.7140   23.1973    7.9269 N   0  0  0  0  0  4  0  0  0  0  0  0
   35.7525   22.3615    6.7628 C   0  0  0  0  0  0  0  0  0  0  0  0
   37.1671   22.1082    6.2741 C   0  0  0  0  0  0  0  0  0  0  0  0
   43.4598   16.9581    7.8245 C   0  0  1  0  0  0  0  0  0  0  0  0
   43.4004   16.6391    6.3715 C   0  0  0  0  0  0  0  0  0  0  0  0
   43.5285   17.9688    6.7761 C   0  0  0  0  0  0  0  0  0  0  0  0
  1 11  1  0
  1 12  1  6
  2  6  1  0
 13  2  1  0
  2 14  2  0
  3  4  2  0
 14  3  1  0
  5  4  1  0
  6  5  2  0
  6 15  1  0
  7  8  1  6
  8  9  2  0
 10  8  1  0
 11 10  1  6
 10 22  1  0
 11 29  1  0
 13 12  1  6
 12 17  1  0
 15 16  1  6
 17 18  2  0
 17 22  1  0
 18 19  1  0
 19 20  2  0
 19 23  1  0
 20 21  1  0
 21 22  2  0
 23 24  2  0
 28 23  1  1
 25 24  1  1
 26 25  1  1
 26 27  1  0
 27 28  1  6
 29 30  1  6
 29 31  1  0
 30 31  2  0
M  CHG  1  26   1
M  END
$$$$
