
     RDKit          3D

 31 35  0  0  0  0  0  0  0  0999 V2000
   42.5541   17.9851    9.2931 C   0  0  0  0  0  0  0  0  0  0  0  0
   41.1328   18.3581   11.9428 C   0  0  0  0  0  0  0  0  0  0  0  0
   42.2630   16.6663   13.2545 C   0  0  0  0  0  0  0  0  0  0  0  0
   41.1056   16.4781   13.9874 C   0  0  0  0  0  0  0  0  0  0  0  0
   39.9824   17.2169   13.7021 C   0  0  0  0  0  0  0  0  0  0  0  0
   40.0042   18.1543   12.6785 C   0  0  0  0  0  0  0  0  0  0  0  0
   39.2630   15.3951    6.6078 C   0  0  0  0  0  0  0  0  0  0  0  0
   40.6812   15.6305    7.0193 C   0  0  0  0  0  0  0  0  0  0  0  0
   41.4514   14.6419    6.7824 O   0  0  0  0  0  0  0  0  0  0  0  0
   41.1245   16.8425    7.6200 N   0  0  0  0  0  0  0  0  0  0  0  0
   42.3718   16.8587    8.3086 C   0  0  1  0  0  0  0  0  0  0  0  0
   41.3790   18.7551    9.5623 N   0  0  0  0  0  0  0  0  0  0  0  0
   41.1933   19.3493   10.8597 C   0  0  0  0  0  0  0  0  0  0  0  0
   42.2539   17.6091   12.2396 C   0  0  0  0  0  0  0  0  0  0  0  0
   38.7153   18.8977   12.4470 C   0  0  0  0  0  0  0  0  0  0  0  0
   38.2698   18.5482   11.1847 O   0  0  0  0  0  0  0  0  0  0  0  0
   40.4460   18.9534    8.5319 C   0  0  0  0  0  0  0  0  0  0  0  0
   39.6576   20.0959    8.4735 C   0  0  0  0  0  0  0  0  0  0  0  0
   38.7494   20.3231    7.4819 C   0  0  0  0  0  0  0  0  0  0  0  0
   38.6275   19.3617    6.5055 C   0  0  0  0  0  0  0  0  0  0  0  0
   39.4093   18.2025    6.5415 C   0  0  0  0  0  0  0  0  0  0  0  0
   40.3085   18.0142    7.5581 C   0  0  0  0  0  0  0  0  0  0  0  0
   37.9430   21.5176    7.4566 C   0  0  0  0  0  0  0  0  0  0  0  0
   38.0420   22.4754    8.3994 C   0  0  0  0  0  0  0  0  0  0  0  0
   37.1295   23.6426    8.2134 C   0  0  0  0  0  0  0  0  0  0  0  0
   35.7780   23.1005    8.1558 N   0  0  0  0  0  4  0  0  0  0  0  0
   35.6273   22.1385    7.1037 C   0  0  0  0  0  0  0  0  0  0  0  0
   36.9388   21.8291    6.4050 C   0  0  0  0  0  0  0  0  0  0  0  0
   43.4896   16.8682    7.2893 C   0  0  1  0  0  0  0  0  0  0  0  0
   44.7282   17.5792    7.7096 C   0  0  0  0  0  0  0  0  0  0  0  0
   44.7231   16.1843    7.6583 C   0  0  0  0  0  0  0  0  0  0  0  0
  1 11  1  0
  1 12  1  6
  2  6  1  0
 13  2  1  0
  2 14  2  0
  3  4  2  0
 14  3  1  0
  5  4  1  0
  6  5  2  0
  6 15  1  0
  7  8  1  6
  8  9  2  0
 10  8  1  0
 11 10  1  6
 10 22  1  0
 11 29  1  0
 13 12  1  6
 12 17  1  0
 15 16  1  6
 17 18  2  0
 17 22  1  0
 18 19  1  0
 19 20  2  0
 19 23  1  0
 20 21  1  0
 21 22  2  0
 23 24  2  0
 28 23  1  1
 25 24  1  1
 26 25  1  1
 26 27  1  0
 27 28  1  6
 29 30  1  1
 29 31  1  0
 30 31  2  0
M  CHG  1  26   1
M  END
$$$$
