
     RDKit          3D

 31 35  0  0  0  0  0  0  0  0999 V2000
   41.9628   17.3147    9.4961 C   0  0  0  0  0  0  0  0  0  0  0  0
   41.0546   18.3319   11.9464 C   0  0  0  0  0  0  0  0  0  0  0  0
   43.1678   18.1166   13.1405 C   0  0  0  0  0  0  0  0  0  0  0  0
   42.5298   17.3901   14.1109 C   0  0  0  0  0  0  0  0  0  0  0  0
   41.1933   17.1431   14.0055 C   0  0  0  0  0  0  0  0  0  0  0  0
   40.4359   17.6204   12.9086 C   0  0  0  0  0  0  0  0  0  0  0  0
   40.0299   15.8066    5.5307 C   0  0  0  0  0  0  0  0  0  0  0  0
   41.3504   15.9446    6.2050 C   0  0  0  0  0  0  0  0  0  0  0  0
   42.2269   15.0840    5.9084 O   0  0  0  0  0  0  0  0  0  0  0  0
   41.5643   16.9871    7.1091 N   0  0  0  0  0  0  0  0  0  0  0  0
   42.5639   16.9549    8.1635 C   0  0  1  0  0  0  0  0  0  0  0  0
   40.9396   18.3052    9.4888 N   0  0  0  0  0  0  0  0  0  0  0  0
   40.4080   18.7967   10.7099 C   0  0  0  0  0  0  0  0  0  0  0  0
   42.4370   18.5742   12.0829 C   0  0  0  0  0  0  0  0  0  0  0  0
   39.0197   17.3792   12.9359 C   0  0  0  0  0  0  0  0  0  0  0  0
   38.5312   16.9138   14.1352 O   0  0  0  0  0  0  0  0  0  0  0  0
   40.4637   18.7927    8.2326 C   0  0  0  0  0  0  0  0  0  0  0  0
   39.6920   19.9155    8.1793 C   0  0  0  0  0  0  0  0  0  0  0  0
   39.2045   20.4216    6.9711 C   0  0  0  0  0  0  0  0  0  0  0  0
   39.5273   19.7515    5.8188 C   0  0  0  0  0  0  0  0  0  0  0  0
   40.3092   18.6085    5.8239 C   0  0  0  0  0  0  0  0  0  0  0  0
   40.7567   18.1610    7.0435 C   0  0  0  0  0  0  0  0  0  0  0  0
   38.3845   21.6541    6.9712 C   0  0  0  0  0  0  0  0  0  0  0  0
   38.3934   22.5413    7.9152 C   0  0  0  0  0  0  0  0  0  0  0  0
   37.5534   23.7544    7.8596 C   0  0  0  0  0  0  0  0  0  0  0  0
   36.3481   23.5638    7.0904 N   0  0  0  0  0  4  0  0  0  0  0  0
   36.6192   22.9971    5.7903 C   0  0  0  0  0  0  0  0  0  0  0  0
   37.4971   21.8104    5.7984 C   0  0  0  0  0  0  0  0  0  0  0  0
   43.7614   17.8211    7.8494 C   0  0  1  0  0  0  0  0  0  0  0  0
   45.0944   17.5241    8.4270 C   0  0  0  0  0  0  0  0  0  0  0  0
   44.8923   17.1653    7.1525 C   0  0  0  0  0  0  0  0  0  0  0  0
 11  1  1  1
 12  1  1  0
  2  6  1  0
 13  2  1  0
  2 14  2  0
  3  4  2  0
 14  3  1  0
  5  4  1  0
  6  5  2  0
  6 15  1  0
  8  7  1  0
  8  9  2  0
 10  8  1  0
 11 10  1  0
 10 22  1  0
 11 29  1  0
 12 13  1  0
 12 17  1  0
 15 16  1  0
 17 18  2  0
 17 22  1  0
 18 19  1  0
 19 20  2  0
 19 23  1  0
 20 21  1  0
 21 22  2  0
 23 24  2  0
 23 28  1  0
 24 25  1  0
 25 26  1  0
 26 27  1  0
 27 28  1  0
 29 30  1  1
 29 31  1  0
 30 31  2  0
M  CHG  1  26   1
M  END
$$$$
