
     RDKit          3D

 31 35  0  0  0  0  0  0  0  0999 V2000
   42.4275   18.1877    9.6472 C   0  0  0  0  0  0  0  0  0  0  0  0
   41.6629   18.9259   12.1631 C   0  0  0  0  0  0  0  0  0  0  0  0
   43.8780   18.9932   13.1372 C   0  0  0  0  0  0  0  0  0  0  0  0
   43.4304   18.2037   14.1804 C   0  0  0  0  0  0  0  0  0  0  0  0
   42.1224   17.7831   14.2134 C   0  0  0  0  0  0  0  0  0  0  0  0
   41.2455   18.1483   13.2011 C   0  0  0  0  0  0  0  0  0  0  0  0
   39.8772   15.8106    6.0441 C   0  0  0  0  0  0  0  0  0  0  0  0
   41.0787   15.9568    6.9222 C   0  0  0  0  0  0  0  0  0  0  0  0
   41.8350   14.9297    6.9263 O   0  0  0  0  0  0  0  0  0  0  0  0
   41.3478   17.1306    7.6812 N   0  0  0  0  0  0  0  0  0  0  0  0
   42.4699   17.1460    8.5590 C   0  0  1  0  0  0  0  0  0  0  0  0
   41.1794   18.8727    9.7864 N   0  0  0  0  0  0  0  0  0  0  0  0
   40.7587   19.3393   11.0811 C   0  0  0  0  0  0  0  0  0  0  0  0
   42.9794   19.3413   12.1421 C   0  0  0  0  0  0  0  0  0  0  0  0
   39.8407   17.6224   13.3334 C   0  0  0  0  0  0  0  0  0  0  0  0
   39.3857   17.3622   12.0532 O   0  0  0  0  0  0  0  0  0  0  0  0
   40.4067   19.1164    8.6397 C   0  0  0  0  0  0  0  0  0  0  0  0
   39.5674   20.2198    8.5482 C   0  0  0  0  0  0  0  0  0  0  0  0
   38.8113   20.4900    7.4460 C   0  0  0  0  0  0  0  0  0  0  0  0
   38.9019   19.6146    6.3886 C   0  0  0  0  0  0  0  0  0  0  0  0
   39.7390   18.4961    6.4557 C   0  0  0  0  0  0  0  0  0  0  0  0
   40.4800   18.2620    7.5843 C   0  0  0  0  0  0  0  0  0  0  0  0
   37.9459   21.6414    7.3883 C   0  0  0  0  0  0  0  0  0  0  0  0
   37.8666   22.5356    8.3934 C   0  0  0  0  0  0  0  0  0  0  0  0
   36.9185   23.6656    8.1611 C   0  0  0  0  0  0  0  0  0  0  0  0
   35.6199   23.0616    7.8922 N   0  0  0  0  0  4  0  0  0  0  0  0
   35.6623   22.1681    6.7720 C   0  0  0  0  0  0  0  0  0  0  0  0
   37.0685   21.9739    6.2347 C   0  0  0  0  0  0  0  0  0  0  0  0
   43.7292   17.3005    7.7351 C   0  0  1  0  0  0  0  0  0  0  0  0
   44.9635   16.7360    8.3470 C   0  0  0  0  0  0  0  0  0  0  0  0
   44.3677   16.0744    7.2720 C   0  0  0  0  0  0  0  0  0  0  0  0
  1 11  1  0
  1 12  1  6
  2  6  1  0
 13  2  1  0
  2 14  2  0
  3  4  2  0
 14  3  1  0
  5  4  1  0
  6  5  2  0
  6 15  1  0
  7  8  1  6
  8  9  2  0
 10  8  1  0
 11 10  1  6
 10 22  1  0
 11 29  1  0
 13 12  1  6
 12 17  1  0
 15 16  1  6
 17 18  2  0
 17 22  1  0
 18 19  1  0
 19 20  2  0
 19 23  1  0
 20 21  1  0
 21 22  2  0
 23 24  2  0
 28 23  1  1
 25 24  1  1
 26 25  1  1
 26 27  1  0
 27 28  1  6
 29 30  1  1
 29 31  1  0
 30 31  2  0
M  CHG  1  26   1
M  END
$$$$
