
     RDKit          3D

 23 24  0  0  0  0  0  0  0  0999 V2000
   -6.6707  -31.7116  -14.7908 C   0  0  1  0  0  0  0  0  0  0  0  0
   -6.6217  -31.5375  -13.2907 C   0  0  1  0  0  0  0  0  0  0  0  0
   -6.5176  -30.1021  -12.8682 C   0  0  2  0  0  0  0  0  0  0  0  0
   -7.4723  -29.1943  -13.5779 C   0  0  1  0  0  0  0  0  0  0  0  0
   -8.0396  -29.9431  -14.7618 C   0  0  1  0  0  0  0  0  0  0  0  0
   -8.8088  -29.0183  -15.6785 C   0  0  0  0  0  0  0  0  0  0  0  0
   -7.6695  -32.5595  -15.2034 O   0  0  0  0  0  0  0  0  0  0  0  0
   -7.7479  -32.0787  -12.6650 O   0  0  0  0  0  0  0  0  0  0  0  0
   -5.2242  -29.6057  -12.9666 O   0  0  0  0  0  0  0  0  0  0  0  0
   -8.4600  -28.6790  -12.7552 O   0  0  0  0  0  0  0  0  0  0  0  0
   -6.9156  -30.4854  -15.4281 O   0  0  0  0  0  0  0  0  0  0  0  0
   -8.5728  -29.4019  -16.9776 O   0  0  0  0  0  0  0  0  0  0  0  0
   -7.2950  -33.4652  -16.1767 C   0  0  2  0  0  0  0  0  0  0  0  0
   -8.2699  -34.5802  -16.3129 C   0  0  1  0  0  0  0  0  0  0  0  0
   -7.7249  -35.8226  -16.9352 C   0  0  2  0  0  0  0  0  0  0  0  0
   -6.2639  -36.0542  -16.6131 C   0  0  1  0  0  0  0  0  0  0  0  0
   -5.9763  -35.1979  -15.3963 C   0  0  1  0  0  0  0  0  0  0  0  0
   -4.5952  -35.4577  -14.8445 C   0  0  0  0  0  0  0  0  0  0  0  0
   -8.9119  -34.9097  -15.1251 O   0  0  0  0  0  0  0  0  0  0  0  0
   -7.9340  -35.8628  -18.3207 O   0  0  0  0  0  0  0  0  0  0  0  0
   -5.9941  -37.3976  -16.3738 O   0  0  0  0  0  0  0  0  0  0  0  0
   -6.0078  -33.8816  -15.8319 O   0  0  0  0  0  0  0  0  0  0  0  0
   -3.6373  -35.3849  -15.8624 O   0  0  0  0  0  0  0  0  0  0  0  0
  1  2  1  0
  1  7  1  1
  1 11  1  0
  2  3  1  0
  2  8  1  1
  3  4  1  0
  3  9  1  6
  5  4  1  0
  4 10  1  1
  5  6  1  0
  5 11  1  6
  6 12  1  6
 13  7  1  1
 13 14  1  0
 22 13  1  0
 15 14  1  0
 14 19  1  1
 16 15  1  0
 15 20  1  6
 17 16  1  0
 16 21  1  1
 18 17  1  0
 17 22  1  6
 18 23  1  6
M  END
$$$$
