
     RDKit          3D

 23 24  0  0  0  0  0  0  0  0999 V2000
   -7.4788  -32.9876  -14.6605 C   0  0  1  0  0  0  0  0  0  0  0  0
   -6.5732  -33.6824  -13.6988 C   0  0  1  0  0  0  0  0  0  0  0  0
   -6.6153  -35.1741  -14.0410 C   0  0  2  0  0  0  0  0  0  0  0  0
   -5.9548  -35.2788  -15.3824 C   0  0  1  0  0  0  0  0  0  0  0  0
   -6.4644  -34.2559  -16.3355 C   0  0  1  0  0  0  0  0  0  0  0  0
   -6.9177  -35.0143  -17.5940 C   0  0  0  0  0  0  0  0  0  0  0  0
   -7.3043  -31.6136  -14.7063 O   0  0  0  0  0  0  0  0  0  0  0  0
   -5.2430  -33.2971  -13.8207 O   0  0  0  0  0  0  0  0  0  0  0  0
   -7.8919  -35.6819  -14.0130 O   0  0  0  0  0  0  0  0  0  0  0  0
   -4.5688  -35.0784  -15.1852 O   0  0  0  0  0  0  0  0  0  0  0  0
   -7.4820  -33.4827  -15.9269 O   0  0  0  0  0  0  0  0  0  0  0  0
   -7.2114  -34.1032  -18.6192 O   0  0  0  0  0  0  0  0  0  0  0  0
   -8.1706  -30.9795  -15.5867 C   0  0  2  0  0  0  0  0  0  0  0  0
   -7.5644  -29.8253  -16.2998 C   0  0  1  0  0  0  0  0  0  0  0  0
   -7.7324  -28.5021  -15.6583 C   0  0  2  0  0  0  0  0  0  0  0  0
   -8.9325  -28.3630  -14.7827 C   0  0  1  0  0  0  0  0  0  0  0  0
   -9.0343  -29.6577  -13.9665 C   0  0  1  0  0  0  0  0  0  0  0  0
  -10.0733  -29.4849  -12.8936 C   0  0  0  0  0  0  0  0  0  0  0  0
   -6.1759  -30.0309  -16.4710 O   0  0  0  0  0  0  0  0  0  0  0  0
   -7.8140  -27.4868  -16.6365 O   0  0  0  0  0  0  0  0  0  0  0  0
   -8.7894  -27.2750  -13.9398 O   0  0  0  0  0  0  0  0  0  0  0  0
   -9.3191  -30.6555  -14.8615 O   0  0  0  0  0  0  0  0  0  0  0  0
  -11.3468  -29.3373  -13.3807 O   0  0  0  0  0  0  0  0  0  0  0  0
  1  2  1  0
  1  7  1  6
  1 11  1  0
  2  3  1  0
  2  8  1  6
  3  4  1  0
  3  9  1  6
  5  4  1  0
  4 10  1  1
  5  6  1  6
 11  5  1  0
  6 12  1  0
 13  7  1  1
 13 14  1  0
 22 13  1  0
 15 14  1  0
 14 19  1  1
 16 15  1  0
 15 20  1  6
 17 16  1  0
 16 21  1  1
 17 18  1  1
 17 22  1  0
 23 18  1  0
M  END
$$$$
