
     RDKit          3D

 23 24  0  0  0  0  0  0  0  0999 V2000
   -6.2795  -35.0385  -15.6302 C   0  0  1  0  0  0  0  0  0  0  0  0
   -7.1562  -36.2402  -15.5088 C   0  0  1  0  0  0  0  0  0  0  0  0
   -6.2838  -37.4633  -15.8041 C   0  0  2  0  0  0  0  0  0  0  0  0
   -5.3216  -37.5343  -14.6570 C   0  0  1  0  0  0  0  0  0  0  0  0
   -4.7135  -36.2095  -14.3574 C   0  0  1  0  0  0  0  0  0  0  0  0
   -3.1893  -36.4124  -14.3686 C   0  0  0  0  0  0  0  0  0  0  0  0
   -6.8201  -33.8887  -15.0768 O   0  0  0  0  0  0  0  0  0  0  0  0
   -7.6582  -36.4265  -14.2258 O   0  0  0  0  0  0  0  0  0  0  0  0
   -5.6735  -37.3867  -17.0329 O   0  0  0  0  0  0  0  0  0  0  0  0
   -6.0470  -37.9772  -13.5267 O   0  0  0  0  0  0  0  0  0  0  0  0
   -5.0040  -35.1944  -15.1853 O   0  0  0  0  0  0  0  0  0  0  0  0
   -2.5558  -35.2936  -13.8079 O   0  0  0  0  0  0  0  0  0  0  0  0
   -6.0230  -32.7661  -15.2563 C   0  0  2  0  0  0  0  0  0  0  0  0
   -6.3435  -31.6474  -14.3323 C   0  0  1  0  0  0  0  0  0  0  0  0
   -7.3248  -30.6554  -14.8261 C   0  0  2  0  0  0  0  0  0  0  0  0
   -7.4048  -30.5180  -16.3097 C   0  0  1  0  0  0  0  0  0  0  0  0
   -7.3553  -31.9383  -16.8866 C   0  0  1  0  0  0  0  0  0  0  0  0
   -7.6769  -31.8867  -18.3545 C   0  0  0  0  0  0  0  0  0  0  0  0
   -6.8416  -32.1513  -13.1086 O   0  0  0  0  0  0  0  0  0  0  0  0
   -7.0349  -29.3746  -14.3069 O   0  0  0  0  0  0  0  0  0  0  0  0
   -8.5857  -29.8943  -16.6719 O   0  0  0  0  0  0  0  0  0  0  0  0
   -6.1046  -32.4238  -16.6077 O   0  0  0  0  0  0  0  0  0  0  0  0
   -6.5807  -31.6704  -19.1498 O   0  0  0  0  0  0  0  0  0  0  0  0
  1  2  1  0
  1  7  1  1
  1 11  1  0
  2  3  1  0
  2  8  1  1
  3  4  1  0
  3  9  1  6
  5  4  1  0
  4 10  1  1
  5  6  1  6
 11  5  1  0
  6 12  1  0
 13  7  1  6
 13 14  1  0
 22 13  1  0
 15 14  1  0
 14 19  1  1
 16 15  1  0
 15 20  1  1
 17 16  1  0
 16 21  1  1
 17 18  1  6
 17 22  1  0
 23 18  1  0
M  END
$$$$
