
     RDKit          3D

 23 24  0  0  0  0  0  0  0  0999 V2000
   -6.4799  -33.5001  -15.8650 C   0  0  1  0  0  0  0  0  0  0  0  0
   -7.4833  -34.2244  -16.7321 C   0  0  1  0  0  0  0  0  0  0  0  0
   -6.9014  -35.4136  -17.4371 C   0  0  2  0  0  0  0  0  0  0  0  0
   -6.0793  -36.2963  -16.5517 C   0  0  1  0  0  0  0  0  0  0  0  0
   -5.8011  -35.5463  -15.2694 C   0  0  1  0  0  0  0  0  0  0  0  0
   -4.7634  -36.2590  -14.4311 C   0  0  0  0  0  0  0  0  0  0  0  0
   -6.9556  -33.2212  -14.6070 O   0  0  0  0  0  0  0  0  0  0  0  0
   -8.5843  -34.6699  -15.9959 O   0  0  0  0  0  0  0  0  0  0  0  0
   -6.1767  -35.0651  -18.5694 O   0  0  0  0  0  0  0  0  0  0  0  0
   -6.6502  -37.5377  -16.3252 O   0  0  0  0  0  0  0  0  0  0  0  0
   -5.3267  -34.2782  -15.6795 O   0  0  0  0  0  0  0  0  0  0  0  0
   -3.5229  -35.9974  -14.9634 O   0  0  0  0  0  0  0  0  0  0  0  0
   -6.6000  -31.9804  -14.1153 C   0  0  2  0  0  0  0  0  0  0  0  0
   -7.3353  -31.6371  -12.8689 C   0  0  1  0  0  0  0  0  0  0  0  0
   -7.4092  -30.1784  -12.5611 C   0  0  2  0  0  0  0  0  0  0  0  0
   -7.4640  -29.3136  -13.8024 C   0  0  1  0  0  0  0  0  0  0  0  0
   -7.8912  -30.2397  -14.9233 C   0  0  1  0  0  0  0  0  0  0  0  0
   -8.1632  -29.4820  -16.2005 C   0  0  0  0  0  0  0  0  0  0  0  0
   -8.6127  -32.1812  -12.8056 O   0  0  0  0  0  0  0  0  0  0  0  0
   -6.3738  -29.7573  -11.7152 O   0  0  0  0  0  0  0  0  0  0  0  0
   -8.3441  -28.2471  -13.6508 O   0  0  0  0  0  0  0  0  0  0  0  0
   -6.8156  -31.0820  -15.1620 O   0  0  0  0  0  0  0  0  0  0  0  0
   -6.9730  -28.9740  -16.7338 O   0  0  0  0  0  0  0  0  0  0  0  0
  1  2  1  0
  1  7  1  1
  1 11  1  0
  2  3  1  0
  2  8  1  1
  3  4  1  0
  3  9  1  6
  5  4  1  0
  4 10  1  1
  5  6  1  0
  5 11  1  6
  6 12  1  6
 13  7  1  6
 13 14  1  0
 22 13  1  0
 15 14  1  0
 14 19  1  6
 16 15  1  0
 15 20  1  6
 17 16  1  0
 16 21  1  1
 18 17  1  0
 17 22  1  6
 18 23  1  6
M  END
$$$$
