
     RDKit          3D

 23 24  0  0  0  0  0  0  0  0999 V2000
   -6.5747  -32.2729  -14.3152 C   0  0  1  0  0  0  0  0  0  0  0  0
   -7.4010  -31.8425  -13.1493 C   0  0  1  0  0  0  0  0  0  0  0  0
   -7.0579  -30.3761  -12.8733 C   0  0  2  0  0  0  0  0  0  0  0  0
   -7.5905  -29.6279  -14.0579 C   0  0  1  0  0  0  0  0  0  0  0  0
   -7.2138  -30.2780  -15.3425 C   0  0  1  0  0  0  0  0  0  0  0  0
   -6.5391  -29.1959  -16.2018 C   0  0  0  0  0  0  0  0  0  0  0  0
   -6.9983  -33.4558  -14.8997 O   0  0  0  0  0  0  0  0  0  0  0  0
   -8.7677  -31.8767  -13.4021 O   0  0  0  0  0  0  0  0  0  0  0  0
   -5.7143  -30.1845  -12.6577 O   0  0  0  0  0  0  0  0  0  0  0  0
   -9.0000  -29.6092  -13.9441 O   0  0  0  0  0  0  0  0  0  0  0  0
   -6.3896  -31.3350  -15.2822 O   0  0  0  0  0  0  0  0  0  0  0  0
   -5.1447  -29.3021  -16.0930 O   0  0  0  0  0  0  0  0  0  0  0  0
   -6.4052  -33.7028  -16.1306 C   0  0  2  0  0  0  0  0  0  0  0  0
   -7.3429  -34.2335  -17.1539 C   0  0  1  0  0  0  0  0  0  0  0  0
   -7.4403  -35.7076  -17.2462 C   0  0  2  0  0  0  0  0  0  0  0  0
   -6.2296  -36.4580  -16.8021 C   0  0  1  0  0  0  0  0  0  0  0  0
   -5.7339  -35.7755  -15.5211 C   0  0  1  0  0  0  0  0  0  0  0  0
   -4.6670  -36.6260  -14.8893 C   0  0  0  0  0  0  0  0  0  0  0  0
   -8.6490  -33.7445  -16.9207 O   0  0  0  0  0  0  0  0  0  0  0  0
   -7.7070  -36.1017  -18.5757 O   0  0  0  0  0  0  0  0  0  0  0  0
   -6.5496  -37.7801  -16.5479 O   0  0  0  0  0  0  0  0  0  0  0  0
   -5.3043  -34.5280  -15.8911 O   0  0  0  0  0  0  0  0  0  0  0  0
   -3.3919  -36.2056  -15.1688 O   0  0  0  0  0  0  0  0  0  0  0  0
  1  2  1  0
  1  7  1  6
  1 11  1  0
  2  3  1  0
  2  8  1  6
  3  4  1  0
  3  9  1  6
  5  4  1  0
  4 10  1  1
  5  6  1  6
 11  5  1  0
  6 12  1  0
 13  7  1  1
 13 14  1  0
 22 13  1  0
 15 14  1  0
 14 19  1  1
 16 15  1  0
 15 20  1  6
 17 16  1  0
 16 21  1  1
 17 18  1  6
 17 22  1  0
 23 18  1  0
M  END
$$$$
