
     RDKit          3D

 23 24  0  0  0  0  0  0  0  0999 V2000
   -7.3726  -34.6337  -15.1512 C   0  0  1  0  0  0  0  0  0  0  0  0
   -6.5537  -35.8947  -15.0014 C   0  0  1  0  0  0  0  0  0  0  0  0
   -6.5233  -36.7279  -16.2483 C   0  0  2  0  0  0  0  0  0  0  0  0
   -6.2494  -35.9418  -17.4917 C   0  0  1  0  0  0  0  0  0  0  0  0
   -6.4128  -34.4752  -17.1651 C   0  0  1  0  0  0  0  0  0  0  0  0
   -6.4110  -33.6304  -18.4195 C   0  0  0  0  0  0  0  0  0  0  0  0
   -6.7288  -33.5136  -14.6846 O   0  0  0  0  0  0  0  0  0  0  0  0
   -5.2301  -35.6191  -14.6482 O   0  0  0  0  0  0  0  0  0  0  0  0
   -7.6704  -37.4938  -16.4106 O   0  0  0  0  0  0  0  0  0  0  0  0
   -5.0197  -36.2226  -18.0635 O   0  0  0  0  0  0  0  0  0  0  0  0
   -7.6588  -34.3817  -16.5018 O   0  0  0  0  0  0  0  0  0  0  0  0
   -7.5173  -33.9615  -19.1659 O   0  0  0  0  0  0  0  0  0  0  0  0
   -7.5647  -32.4845  -14.2972 C   0  0  2  0  0  0  0  0  0  0  0  0
   -7.8483  -31.5403  -15.4108 C   0  0  1  0  0  0  0  0  0  0  0  0
   -8.2913  -30.1794  -14.9871 C   0  0  2  0  0  0  0  0  0  0  0  0
   -7.6679  -29.7337  -13.6815 C   0  0  1  0  0  0  0  0  0  0  0  0
   -6.4566  -30.6232  -13.4862 C   0  0  1  0  0  0  0  0  0  0  0  0
   -5.6236  -30.1812  -12.3071 C   0  0  0  0  0  0  0  0  0  0  0  0
   -6.8033  -31.4168  -16.3189 O   0  0  0  0  0  0  0  0  0  0  0  0
   -9.6871  -30.0657  -14.9281 O   0  0  0  0  0  0  0  0  0  0  0  0
   -7.3200  -28.3872  -13.7079 O   0  0  0  0  0  0  0  0  0  0  0  0
   -6.9465  -31.8880  -13.1967 O   0  0  0  0  0  0  0  0  0  0  0  0
   -4.2851  -30.5496  -12.4850 O   0  0  0  0  0  0  0  0  0  0  0  0
  1  2  1  0
  1  7  1  6
  1 11  1  0
  2  3  1  0
  2  8  1  6
  3  4  1  0
  3  9  1  6
  5  4  1  0
  4 10  1  1
  5  6  1  0
  5 11  1  6
  6 12  1  6
 13  7  1  6
 13 14  1  0
 22 13  1  0
 15 14  1  0
 14 19  1  1
 16 15  1  0
 15 20  1  1
 17 16  1  0
 16 21  1  6
 18 17  1  0
 17 22  1  1
 18 23  1  6
M  END
$$$$
