
     RDKit          3D

 23 24  0  0  0  0  0  0  0  0999 V2000
   -6.5180  -33.4478  -15.9041 C   0  0  1  0  0  0  0  0  0  0  0  0
   -7.5239  -34.2002  -16.7438 C   0  0  1  0  0  0  0  0  0  0  0  0
   -6.9113  -35.3180  -17.5344 C   0  0  2  0  0  0  0  0  0  0  0  0
   -5.9826  -36.1803  -16.7390 C   0  0  1  0  0  0  0  0  0  0  0  0
   -5.6755  -35.4675  -15.4421 C   0  0  1  0  0  0  0  0  0  0  0  0
   -4.5458  -36.1441  -14.6984 C   0  0  0  0  0  0  0  0  0  0  0  0
   -6.9335  -33.2535  -14.6093 O   0  0  0  0  0  0  0  0  0  0  0  0
   -8.5478  -34.7479  -15.9662 O   0  0  0  0  0  0  0  0  0  0  0  0
   -6.2801  -34.8755  -18.6897 O   0  0  0  0  0  0  0  0  0  0  0  0
   -6.4585  -37.4651  -16.5365 O   0  0  0  0  0  0  0  0  0  0  0  0
   -5.3085  -34.1548  -15.8209 O   0  0  0  0  0  0  0  0  0  0  0  0
   -4.1463  -35.3184  -13.6740 O   0  0  0  0  0  0  0  0  0  0  0  0
   -6.5504  -32.0488  -14.0528 C   0  0  2  0  0  0  0  0  0  0  0  0
   -7.1902  -31.8106  -12.7314 C   0  0  1  0  0  0  0  0  0  0  0  0
   -7.2511  -30.3805  -12.3083 C   0  0  2  0  0  0  0  0  0  0  0  0
   -7.4079  -29.4250  -13.4721 C   0  0  1  0  0  0  0  0  0  0  0  0
   -7.9131  -30.2694  -14.6246 C   0  0  1  0  0  0  0  0  0  0  0  0
   -8.2883  -29.4211  -15.8158 C   0  0  0  0  0  0  0  0  0  0  0  0
   -8.4548  -32.3749  -12.6127 O   0  0  0  0  0  0  0  0  0  0  0  0
   -6.1569  -30.0107  -11.5141 O   0  0  0  0  0  0  0  0  0  0  0  0
   -8.2817  -28.3850  -13.1728 O   0  0  0  0  0  0  0  0  0  0  0  0
   -6.8527  -31.0768  -15.0083 O   0  0  0  0  0  0  0  0  0  0  0  0
   -7.2116  -28.6157  -16.2046 O   0  0  0  0  0  0  0  0  0  0  0  0
  1  2  1  0
  1  7  1  1
  1 11  1  0
  2  3  1  0
  2  8  1  1
  3  4  1  0
  3  9  1  6
  5  4  1  0
  4 10  1  1
  5  6  1  0
  5 11  1  6
  6 12  1  6
 13  7  1  6
 13 14  1  0
 22 13  1  0
 15 14  1  0
 14 19  1  6
 16 15  1  0
 15 20  1  6
 17 16  1  0
 16 21  1  1
 18 17  1  0
 17 22  1  6
 18 23  1  6
M  END
$$$$
