
     RDKit          3D

 23 24  0  0  0  0  0  0  0  0999 V2000
   -6.4377  -32.6523  -14.5253 C   0  0  1  0  0  0  0  0  0  0  0  0
   -6.8717  -32.1509  -13.1677 C   0  0  1  0  0  0  0  0  0  0  0  0
   -6.8499  -30.6551  -13.0585 C   0  0  2  0  0  0  0  0  0  0  0  0
   -7.4826  -29.9568  -14.2209 C   0  0  1  0  0  0  0  0  0  0  0  0
   -7.6654  -30.9655  -15.3314 C   0  0  1  0  0  0  0  0  0  0  0  0
   -8.0547  -30.2901  -16.6274 C   0  0  0  0  0  0  0  0  0  0  0  0
   -7.2831  -33.6017  -15.0456 O   0  0  0  0  0  0  0  0  0  0  0  0
   -8.1621  -32.5769  -12.8416 O   0  0  0  0  0  0  0  0  0  0  0  0
   -5.5749  -30.1515  -12.8353 O   0  0  0  0  0  0  0  0  0  0  0  0
   -8.6614  -29.3049  -13.8991 O   0  0  0  0  0  0  0  0  0  0  0  0
   -6.4099  -31.6050  -15.4591 O   0  0  0  0  0  0  0  0  0  0  0  0
   -6.9485  -29.6456  -17.1289 O   0  0  0  0  0  0  0  0  0  0  0  0
   -6.7237  -34.4027  -16.0220 C   0  0  2  0  0  0  0  0  0  0  0  0
   -7.6168  -35.5281  -16.4066 C   0  0  1  0  0  0  0  0  0  0  0  0
   -6.9290  -36.6917  -17.0399 C   0  0  2  0  0  0  0  0  0  0  0  0
   -5.5270  -36.9096  -16.5118 C   0  0  1  0  0  0  0  0  0  0  0  0
   -5.4686  -36.1611  -15.1954 C   0  0  1  0  0  0  0  0  0  0  0  0
   -4.1799  -36.4306  -14.4565 C   0  0  0  0  0  0  0  0  0  0  0  0
   -8.4204  -35.9840  -15.3683 O   0  0  0  0  0  0  0  0  0  0  0  0
   -6.9189  -36.6101  -18.4392 O   0  0  0  0  0  0  0  0  0  0  0  0
   -5.2400  -38.2610  -16.3498 O   0  0  0  0  0  0  0  0  0  0  0  0
   -5.4888  -34.8117  -15.5151 O   0  0  0  0  0  0  0  0  0  0  0  0
   -3.0834  -35.9783  -15.1994 O   0  0  0  0  0  0  0  0  0  0  0  0
  1  2  1  0
  1  7  1  6
  1 11  1  0
  2  3  1  0
  2  8  1  6
  3  4  1  0
  3  9  1  6
  5  4  1  0
  4 10  1  1
  5  6  1  0
  5 11  1  6
  6 12  1  6
 13  7  1  1
 13 14  1  0
 22 13  1  0
 15 14  1  0
 14 19  1  1
 16 15  1  0
 15 20  1  6
 17 16  1  0
 16 21  1  1
 18 17  1  0
 17 22  1  6
 18 23  1  6
M  END
$$$$
