
     RDKit          3D

 23 24  0  0  0  0  0  0  0  0999 V2000
   -6.9082  -33.5162  -15.6092 C   0  0  1  0  0  0  0  0  0  0  0  0
   -8.1082  -34.4099  -15.8200 C   0  0  1  0  0  0  0  0  0  0  0  0
   -7.9200  -35.3938  -16.9364 C   0  0  2  0  0  0  0  0  0  0  0  0
   -6.6035  -36.1039  -16.8983 C   0  0  1  0  0  0  0  0  0  0  0  0
   -5.7052  -35.3750  -15.9255 C   0  0  1  0  0  0  0  0  0  0  0  0
   -4.2785  -35.8674  -16.0217 C   0  0  0  0  0  0  0  0  0  0  0  0
   -6.5322  -33.4195  -14.2916 O   0  0  0  0  0  0  0  0  0  0  0  0
   -8.4270  -35.1363  -14.6695 O   0  0  0  0  0  0  0  0  0  0  0  0
   -8.1220  -34.8295  -18.1893 O   0  0  0  0  0  0  0  0  0  0  0  0
   -6.7118  -37.4538  -16.6087 O   0  0  0  0  0  0  0  0  0  0  0  0
   -5.7893  -34.0123  -16.2960 O   0  0  0  0  0  0  0  0  0  0  0  0
   -3.5047  -34.8540  -16.5364 O   0  0  0  0  0  0  0  0  0  0  0  0
   -6.6790  -32.1625  -13.7383 C   0  0  2  0  0  0  0  0  0  0  0  0
   -8.0416  -31.6075  -13.9559 C   0  0  1  0  0  0  0  0  0  0  0  0
   -8.1402  -30.1211  -13.8616 C   0  0  2  0  0  0  0  0  0  0  0  0
   -6.8885  -29.4136  -14.3354 C   0  0  1  0  0  0  0  0  0  0  0  0
   -6.1407  -30.4306  -15.1739 C   0  0  1  0  0  0  0  0  0  0  0  0
   -4.9487  -29.8151  -15.8665 C   0  0  0  0  0  0  0  0  0  0  0  0
   -8.6344  -32.0290  -15.1403 O   0  0  0  0  0  0  0  0  0  0  0  0
   -8.4907  -29.6890  -12.5751 O   0  0  0  0  0  0  0  0  0  0  0  0
   -7.1872  -28.2657  -15.0619 O   0  0  0  0  0  0  0  0  0  0  0  0
   -5.6593  -31.3843  -14.2894 O   0  0  0  0  0  0  0  0  0  0  0  0
   -3.9112  -29.5916  -14.9541 O   0  0  0  0  0  0  0  0  0  0  0  0
  1  2  1  0
  1  7  1  1
  1 11  1  0
  2  3  1  0
  2  8  1  1
  3  4  1  0
  3  9  1  6
  5  4  1  0
  4 10  1  1
  5  6  1  0
  5 11  1  6
  6 12  1  6
 13  7  1  6
 13 14  1  0
 22 13  1  0
 15 14  1  0
 14 19  1  6
 16 15  1  0
 15 20  1  1
 17 16  1  0
 16 21  1  6
 18 17  1  0
 17 22  1  1
 18 23  1  6
M  END
$$$$
