
     RDKit          3D

 23 24  0  0  0  0  0  0  0  0999 V2000
   -7.6579  -32.4744  -14.9398 C   0  0  1  0  0  0  0  0  0  0  0  0
   -7.3391  -31.2424  -15.7544 C   0  0  1  0  0  0  0  0  0  0  0  0
   -7.9139  -29.9861  -15.1705 C   0  0  2  0  0  0  0  0  0  0  0  0
   -7.6846  -29.8459  -13.6985 C   0  0  1  0  0  0  0  0  0  0  0  0
   -7.2235  -31.1831  -13.1660 C   0  0  1  0  0  0  0  0  0  0  0  0
   -7.2207  -31.1999  -11.6537 C   0  0  0  0  0  0  0  0  0  0  0  0
   -6.5611  -33.2690  -14.7112 O   0  0  0  0  0  0  0  0  0  0  0  0
   -5.9619  -31.0495  -15.8923 O   0  0  0  0  0  0  0  0  0  0  0  0
   -9.2628  -29.8272  -15.4608 O   0  0  0  0  0  0  0  0  0  0  0  0
   -6.8166  -28.8179  -13.3698 O   0  0  0  0  0  0  0  0  0  0  0  0
   -8.1516  -32.1222  -13.6741 O   0  0  0  0  0  0  0  0  0  0  0  0
   -8.3136  -30.4928  -11.2110 O   0  0  0  0  0  0  0  0  0  0  0  0
   -6.7740  -34.6199  -14.9057 C   0  0  2  0  0  0  0  0  0  0  0  0
   -5.5093  -35.4012  -14.8600 C   0  0  1  0  0  0  0  0  0  0  0  0
   -5.5614  -36.7270  -15.5436 C   0  0  2  0  0  0  0  0  0  0  0  0
   -6.4808  -36.7372  -16.7462 C   0  0  1  0  0  0  0  0  0  0  0  0
   -6.6756  -35.2815  -17.1199 C   0  0  1  0  0  0  0  0  0  0  0  0
   -7.4330  -35.1347  -18.4177 C   0  0  0  0  0  0  0  0  0  0  0  0
   -4.4005  -34.6974  -15.3152 O   0  0  0  0  0  0  0  0  0  0  0  0
   -5.8908  -37.7688  -14.6655 O   0  0  0  0  0  0  0  0  0  0  0  0
   -5.9467  -37.4728  -17.7990 O   0  0  0  0  0  0  0  0  0  0  0  0
   -7.4574  -34.7250  -16.1185 O   0  0  0  0  0  0  0  0  0  0  0  0
   -6.7730  -34.2462  -19.2744 O   0  0  0  0  0  0  0  0  0  0  0  0
  1  2  1  0
  1  7  1  1
  1 11  1  0
  2  3  1  0
  2  8  1  1
  3  4  1  0
  3  9  1  1
  5  4  1  0
  4 10  1  6
  5  6  1  0
  5 11  1  6
  6 12  1  6
 13  7  1  6
 13 14  1  0
 22 13  1  0
 15 14  1  0
 14 19  1  6
 16 15  1  0
 15 20  1  1
 17 16  1  0
 16 21  1  6
 18 17  1  0
 17 22  1  1
 18 23  1  6
M  END
$$$$
