
     RDKit          3D

 23 24  0  0  0  0  0  0  0  0999 V2000
   -6.1069  -33.6006  -16.1640 C   0  0  1  0  0  0  0  0  0  0  0  0
   -5.9497  -32.8444  -17.4626 C   0  0  1  0  0  0  0  0  0  0  0  0
   -5.2497  -33.6390  -18.5249 C   0  0  2  0  0  0  0  0  0  0  0  0
   -5.7621  -35.0376  -18.6673 C   0  0  1  0  0  0  0  0  0  0  0  0
   -6.6202  -35.3478  -17.4625 C   0  0  1  0  0  0  0  0  0  0  0  0
   -6.9624  -36.8195  -17.3970 C   0  0  0  0  0  0  0  0  0  0  0  0
   -7.3778  -33.5283  -15.6478 O   0  0  0  0  0  0  0  0  0  0  0  0
   -7.1815  -32.4400  -17.9840 O   0  0  0  0  0  0  0  0  0  0  0  0
   -3.8700  -33.6499  -18.3659 O   0  0  0  0  0  0  0  0  0  0  0  0
   -6.4256  -35.2642  -19.8617 O   0  0  0  0  0  0  0  0  0  0  0  0
   -5.8398  -34.9663  -16.3459 O   0  0  0  0  0  0  0  0  0  0  0  0
   -5.8073  -37.5412  -17.5856 O   0  0  0  0  0  0  0  0  0  0  0  0
   -7.4590  -32.9770  -14.3839 C   0  0  2  0  0  0  0  0  0  0  0  0
   -8.0813  -31.6263  -14.3981 C   0  0  1  0  0  0  0  0  0  0  0  0
   -7.7565  -30.7693  -13.2199 C   0  0  2  0  0  0  0  0  0  0  0  0
   -6.3681  -31.0196  -12.6707 C   0  0  1  0  0  0  0  0  0  0  0  0
   -5.6128  -31.7203  -13.7820 C   0  0  1  0  0  0  0  0  0  0  0  0
   -4.1493  -31.8805  -13.4477 C   0  0  0  0  0  0  0  0  0  0  0  0
   -7.8362  -30.9100  -15.5636 O   0  0  0  0  0  0  0  0  0  0  0  0
   -8.7135  -30.8757  -12.2012 O   0  0  0  0  0  0  0  0  0  0  0  0
   -5.7429  -29.8376  -12.2878 O   0  0  0  0  0  0  0  0  0  0  0  0
   -6.1573  -32.9921  -13.8795 O   0  0  0  0  0  0  0  0  0  0  0  0
   -3.9896  -32.6758  -12.3072 O   0  0  0  0  0  0  0  0  0  0  0  0
  1  2  1  0
  1  7  1  6
  1 11  1  0
  2  3  1  0
  2  8  1  6
  3  4  1  0
  3  9  1  1
  5  4  1  0
  4 10  1  6
  5  6  1  0
  5 11  1  1
  6 12  1  6
 13  7  1  6
 13 14  1  0
 22 13  1  0
 15 14  1  0
 14 19  1  6
 16 15  1  0
 15 20  1  1
 17 16  1  0
 16 21  1  6
 18 17  1  0
 17 22  1  1
 18 23  1  6
M  END
$$$$
