
     RDKit          3D

 23 24  0  0  0  0  0  0  0  0999 V2000
   -6.5216  -32.0712  -14.3261 C   0  0  1  0  0  0  0  0  0  0  0  0
   -7.0148  -31.7357  -12.9580 C   0  0  1  0  0  0  0  0  0  0  0  0
   -6.8155  -30.2298  -12.7663 C   0  0  2  0  0  0  0  0  0  0  0  0
   -7.7771  -29.5908  -13.7222 C   0  0  1  0  0  0  0  0  0  0  0  0
   -7.7127  -30.2097  -15.0740 C   0  0  1  0  0  0  0  0  0  0  0  0
   -7.4846  -29.0628  -16.0725 C   0  0  0  0  0  0  0  0  0  0  0  0
   -6.9287  -33.3148  -14.7824 O   0  0  0  0  0  0  0  0  0  0  0  0
   -8.3755  -31.9679  -12.7925 O   0  0  0  0  0  0  0  0  0  0  0  0
   -5.5099  -29.8461  -12.9572 O   0  0  0  0  0  0  0  0  0  0  0  0
   -9.0764  -29.7683  -13.1929 O   0  0  0  0  0  0  0  0  0  0  0  0
   -6.7674  -31.1384  -15.2844 O   0  0  0  0  0  0  0  0  0  0  0  0
   -7.0592  -29.5814  -17.3044 O   0  0  0  0  0  0  0  0  0  0  0  0
   -6.4841  -33.6008  -16.0662 C   0  0  2  0  0  0  0  0  0  0  0  0
   -7.4621  -34.3629  -16.8852 C   0  0  1  0  0  0  0  0  0  0  0  0
   -7.3397  -35.8373  -16.8415 C   0  0  2  0  0  0  0  0  0  0  0  0
   -5.9761  -36.3574  -16.5313 C   0  0  1  0  0  0  0  0  0  0  0  0
   -5.4175  -35.4823  -15.4023 C   0  0  1  0  0  0  0  0  0  0  0  0
   -4.1524  -36.1020  -14.8768 C   0  0  0  0  0  0  0  0  0  0  0  0
   -8.7825  -34.0435  -16.4927 O   0  0  0  0  0  0  0  0  0  0  0  0
   -7.7265  -36.4010  -18.0772 O   0  0  0  0  0  0  0  0  0  0  0  0
   -6.0463  -37.6781  -16.1242 O   0  0  0  0  0  0  0  0  0  0  0  0
   -5.2450  -34.2313  -15.9343 O   0  0  0  0  0  0  0  0  0  0  0  0
   -3.0337  -35.7570  -15.5910 O   0  0  0  0  0  0  0  0  0  0  0  0
  1  2  1  0
  1  7  1  6
  1 11  1  0
  2  3  1  0
  2  8  1  6
  3  4  1  0
  3  9  1  6
  5  4  1  0
  4 10  1  1
  5  6  1  6
 11  5  1  0
  6 12  1  0
 13  7  1  1
 13 14  1  0
 22 13  1  0
 15 14  1  0
 14 19  1  1
 16 15  1  0
 15 20  1  6
 17 16  1  0
 16 21  1  1
 17 18  1  6
 17 22  1  0
 23 18  1  0
M  END
$$$$
