
     RDKit          3D

 23 24  0  0  0  0  0  0  0  0999 V2000
   -6.6728  -31.9432  -14.9556 C   0  0  1  0  0  0  0  0  0  0  0  0
   -7.2357  -32.2888  -13.5966 C   0  0  1  0  0  0  0  0  0  0  0  0
   -8.5752  -32.9599  -13.6681 C   0  0  2  0  0  0  0  0  0  0  0  0
   -8.6440  -34.0617  -14.6783 C   0  0  1  0  0  0  0  0  0  0  0  0
   -7.4295  -33.9557  -15.5716 C   0  0  1  0  0  0  0  0  0  0  0  0
   -7.5524  -34.8639  -16.7746 C   0  0  0  0  0  0  0  0  0  0  0  0
   -5.3603  -32.3185  -15.1074 O   0  0  0  0  0  0  0  0  0  0  0  0
   -6.3828  -33.1294  -12.8764 O   0  0  0  0  0  0  0  0  0  0  0  0
   -9.6157  -32.0622  -13.8692 O   0  0  0  0  0  0  0  0  0  0  0  0
   -8.7785  -35.3199  -14.1154 O   0  0  0  0  0  0  0  0  0  0  0  0
   -7.3836  -32.5997  -15.9722 O   0  0  0  0  0  0  0  0  0  0  0  0
   -6.7795  -34.3473  -17.7876 O   0  0  0  0  0  0  0  0  0  0  0  0
   -4.6712  -31.6315  -16.0877 C   0  0  2  0  0  0  0  0  0  0  0  0
   -5.5001  -31.3991  -17.3005 C   0  0  1  0  0  0  0  0  0  0  0  0
   -4.7289  -31.1424  -18.5524 C   0  0  2  0  0  0  0  0  0  0  0  0
   -3.4104  -31.8849  -18.5982 C   0  0  1  0  0  0  0  0  0  0  0  0
   -3.5331  -32.9928  -17.5716 C   0  0  1  0  0  0  0  0  0  0  0  0
   -2.3552  -33.9357  -17.6240 C   0  0  0  0  0  0  0  0  0  0  0  0
   -6.4351  -32.3995  -17.5387 O   0  0  0  0  0  0  0  0  0  0  0  0
   -4.5301  -29.7748  -18.7870 O   0  0  0  0  0  0  0  0  0  0  0  0
   -3.1431  -32.3858  -19.8680 O   0  0  0  0  0  0  0  0  0  0  0  0
   -3.5147  -32.3751  -16.3299 O   0  0  0  0  0  0  0  0  0  0  0  0
   -1.4195  -33.6089  -16.6358 O   0  0  0  0  0  0  0  0  0  0  0  0
  1  2  1  0
  1  7  1  1
  1 11  1  0
  2  3  1  0
  2  8  1  6
  3  4  1  0
  3  9  1  6
  5  4  1  0
  4 10  1  1
  5  6  1  0
  5 11  1  6
  6 12  1  6
 13  7  1  1
 13 14  1  0
 22 13  1  0
 15 14  1  0
 14 19  1  6
 16 15  1  0
 15 20  1  1
 17 16  1  0
 16 21  1  6
 18 17  1  0
 17 22  1  1
 18 23  1  6
M  END
$$$$
