
     RDKit          3D

 23 24  0  0  0  0  0  0  0  0999 V2000
   -6.6097  -33.8065  -15.9375 C   0  0  1  0  0  0  0  0  0  0  0  0
   -7.5112  -34.5111  -16.8958 C   0  0  1  0  0  0  0  0  0  0  0  0
   -6.7005  -35.6509  -17.5187 C   0  0  2  0  0  0  0  0  0  0  0  0
   -6.4604  -36.6108  -16.3928 C   0  0  1  0  0  0  0  0  0  0  0  0
   -5.9941  -35.9187  -15.1608 C   0  0  1  0  0  0  0  0  0  0  0  0
   -4.6937  -36.6168  -14.7293 C   0  0  0  0  0  0  0  0  0  0  0  0
   -7.2714  -32.9694  -15.0533 O   0  0  0  0  0  0  0  0  0  0  0  0
   -8.6061  -35.1086  -16.2819 O   0  0  0  0  0  0  0  0  0  0  0  0
   -5.5480  -35.2057  -18.1201 O   0  0  0  0  0  0  0  0  0  0  0  0
   -7.6884  -37.2586  -16.1237 O   0  0  0  0  0  0  0  0  0  0  0  0
   -5.7507  -34.6019  -15.2457 O   0  0  0  0  0  0  0  0  0  0  0  0
   -3.5941  -35.9929  -15.3368 O   0  0  0  0  0  0  0  0  0  0  0  0
   -6.4129  -32.2167  -14.2633 C   0  0  2  0  0  0  0  0  0  0  0  0
   -7.0465  -31.6774  -13.0322 C   0  0  1  0  0  0  0  0  0  0  0  0
   -7.6399  -30.3260  -13.1433 C   0  0  2  0  0  0  0  0  0  0  0  0
   -7.0364  -29.4457  -14.1860 C   0  0  1  0  0  0  0  0  0  0  0  0
   -6.8184  -30.3197  -15.4274 C   0  0  1  0  0  0  0  0  0  0  0  0
   -6.4425  -29.4426  -16.5893 C   0  0  0  0  0  0  0  0  0  0  0  0
   -8.0706  -32.5458  -12.5886 O   0  0  0  0  0  0  0  0  0  0  0  0
   -7.5379  -29.6401  -11.9131 O   0  0  0  0  0  0  0  0  0  0  0  0
   -7.8889  -28.3967  -14.4820 O   0  0  0  0  0  0  0  0  0  0  0  0
   -5.8580  -31.2366  -15.0889 O   0  0  0  0  0  0  0  0  0  0  0  0
   -5.1181  -29.0868  -16.6033 O   0  0  0  0  0  0  0  0  0  0  0  0
  1  2  1  0
  1  7  1  1
  1 11  1  0
  2  3  1  0
  2  8  1  1
  3  4  1  0
  3  9  1  1
  5  4  1  0
  4 10  1  1
  5  6  1  6
 11  5  1  0
  6 12  1  0
 13  7  1  6
 13 14  1  0
 22 13  1  0
 15 14  1  0
 14 19  1  6
 16 15  1  0
 15 20  1  1
 17 16  1  0
 16 21  1  6
 17 18  1  6
 17 22  1  0
 23 18  1  0
M  END
$$$$
