
     RDKit          3D

 23 24  0  0  0  0  0  0  0  0999 V2000
   -6.3546  -32.2882  -14.5648 C   0  0  1  0  0  0  0  0  0  0  0  0
   -7.3708  -31.9597  -13.4959 C   0  0  1  0  0  0  0  0  0  0  0  0
   -7.2308  -30.5660  -12.9596 C   0  0  2  0  0  0  0  0  0  0  0  0
   -7.0738  -29.5243  -14.0223 C   0  0  1  0  0  0  0  0  0  0  0  0
   -6.7680  -30.2260  -15.3255 C   0  0  1  0  0  0  0  0  0  0  0  0
   -6.3385  -29.2421  -16.3907 C   0  0  0  0  0  0  0  0  0  0  0  0
   -6.9095  -32.8786  -15.6739 O   0  0  0  0  0  0  0  0  0  0  0  0
   -8.6812  -32.1014  -13.9600 O   0  0  0  0  0  0  0  0  0  0  0  0
   -6.2112  -30.4506  -12.0236 O   0  0  0  0  0  0  0  0  0  0  0  0
   -8.1592  -28.6701  -14.1235 O   0  0  0  0  0  0  0  0  0  0  0  0
   -5.7179  -31.1245  -15.0230 O   0  0  0  0  0  0  0  0  0  0  0  0
   -5.0708  -29.5778  -16.8042 O   0  0  0  0  0  0  0  0  0  0  0  0
   -6.0534  -33.6983  -16.3831 C   0  0  2  0  0  0  0  0  0  0  0  0
   -6.6872  -34.2448  -17.6126 C   0  0  1  0  0  0  0  0  0  0  0  0
   -6.0611  -35.4907  -18.1452 C   0  0  2  0  0  0  0  0  0  0  0  0
   -5.4939  -36.3792  -17.0586 C   0  0  1  0  0  0  0  0  0  0  0  0
   -6.1620  -35.9275  -15.7756 C   0  0  1  0  0  0  0  0  0  0  0  0
   -5.8286  -36.8411  -14.6208 C   0  0  0  0  0  0  0  0  0  0  0  0
   -8.0586  -34.4383  -17.4959 O   0  0  0  0  0  0  0  0  0  0  0  0
   -5.0889  -35.2262  -19.1197 O   0  0  0  0  0  0  0  0  0  0  0  0
   -5.7295  -37.7256  -17.3165 O   0  0  0  0  0  0  0  0  0  0  0  0
   -5.6344  -34.6789  -15.4820 O   0  0  0  0  0  0  0  0  0  0  0  0
   -4.4421  -36.9448  -14.4603 O   0  0  0  0  0  0  0  0  0  0  0  0
  1  2  1  0
  1  7  1  6
  1 11  1  0
  2  3  1  0
  2  8  1  6
  3  4  1  0
  3  9  1  1
  5  4  1  0
  4 10  1  6
  5  6  1  0
  5 11  1  1
  6 12  1  6
 13  7  1  1
 13 14  1  0
 22 13  1  0
 15 14  1  0
 14 19  1  1
 16 15  1  0
 15 20  1  6
 17 16  1  0
 16 21  1  6
 18 17  1  0
 17 22  1  1
 18 23  1  6
M  END
$$$$
