
     RDKit          3D

 23 24  0  0  0  0  0  0  0  0999 V2000
   -6.4864  -32.2145  -14.9076 C   0  0  1  0  0  0  0  0  0  0  0  0
   -7.1511  -32.3712  -13.5597 C   0  0  1  0  0  0  0  0  0  0  0  0
   -7.1464  -31.1079  -12.7512 C   0  0  2  0  0  0  0  0  0  0  0  0
   -7.5642  -29.8964  -13.5237 C   0  0  1  0  0  0  0  0  0  0  0  0
   -7.5509  -30.2494  -14.9932 C   0  0  1  0  0  0  0  0  0  0  0  0
   -7.7058  -29.0163  -15.8550 C   0  0  0  0  0  0  0  0  0  0  0  0
   -7.2288  -32.7351  -15.9393 O   0  0  0  0  0  0  0  0  0  0  0  0
   -8.4793  -32.7891  -13.6779 O   0  0  0  0  0  0  0  0  0  0  0  0
   -5.9296  -30.8771  -12.1226 O   0  0  0  0  0  0  0  0  0  0  0  0
   -8.7802  -29.3734  -13.1163 O   0  0  0  0  0  0  0  0  0  0  0  0
   -6.2935  -30.8587  -15.2147 O   0  0  0  0  0  0  0  0  0  0  0  0
   -6.6438  -28.1788  -15.6070 O   0  0  0  0  0  0  0  0  0  0  0  0
   -6.4877  -33.3039  -16.9567 C   0  0  2  0  0  0  0  0  0  0  0  0
   -7.3471  -33.9290  -17.9973 C   0  0  1  0  0  0  0  0  0  0  0  0
   -6.6758  -34.9727  -18.8267 C   0  0  2  0  0  0  0  0  0  0  0  0
   -5.6266  -35.7518  -18.0625 C   0  0  1  0  0  0  0  0  0  0  0  0
   -5.9380  -35.5218  -16.5974 C   0  0  1  0  0  0  0  0  0  0  0  0
   -5.0790  -36.3821  -15.7023 C   0  0  0  0  0  0  0  0  0  0  0  0
   -8.5420  -34.4388  -17.5033 O   0  0  0  0  0  0  0  0  0  0  0  0
   -6.1340  -34.4495  -20.0089 O   0  0  0  0  0  0  0  0  0  0  0  0
   -5.6477  -37.1040  -18.3882 O   0  0  0  0  0  0  0  0  0  0  0  0
   -5.6148  -34.1988  -16.3350 O   0  0  0  0  0  0  0  0  0  0  0  0
   -3.7230  -36.0971  -15.9002 O   0  0  0  0  0  0  0  0  0  0  0  0
  1  2  1  0
  1  7  1  6
  1 11  1  0
  2  3  1  0
  2  8  1  6
  3  4  1  0
  3  9  1  6
  5  4  1  0
  4 10  1  1
  5  6  1  0
  5 11  1  6
  6 12  1  6
 13  7  1  1
 13 14  1  0
 22 13  1  0
 15 14  1  0
 14 19  1  1
 16 15  1  0
 15 20  1  6
 17 16  1  0
 16 21  1  6
 18 17  1  0
 17 22  1  1
 18 23  1  6
M  END
$$$$
