
     RDKit          3D

 23 24  0  0  0  0  0  0  0  0999 V2000
   -6.5556  -32.2758  -14.5548 C   0  0  1  0  0  0  0  0  0  0  0  0
   -7.3553  -31.8309  -13.3758 C   0  0  1  0  0  0  0  0  0  0  0  0
   -6.9422  -30.3881  -13.0724 C   0  0  2  0  0  0  0  0  0  0  0  0
   -7.4445  -29.5919  -14.2387 C   0  0  1  0  0  0  0  0  0  0  0  0
   -7.1049  -30.2326  -15.5381 C   0  0  1  0  0  0  0  0  0  0  0  0
   -6.3841  -29.1662  -16.3794 C   0  0  0  0  0  0  0  0  0  0  0  0
   -7.0371  -33.4254  -15.1606 O   0  0  0  0  0  0  0  0  0  0  0  0
   -8.7232  -31.7958  -13.6216 O   0  0  0  0  0  0  0  0  0  0  0  0
   -5.5901  -30.2643  -12.8605 O   0  0  0  0  0  0  0  0  0  0  0  0
   -8.8511  -29.5092  -14.1166 O   0  0  0  0  0  0  0  0  0  0  0  0
   -6.3311  -31.3281  -15.5038 O   0  0  0  0  0  0  0  0  0  0  0  0
   -4.9988  -29.2573  -16.1785 O   0  0  0  0  0  0  0  0  0  0  0  0
   -6.4059  -33.7182  -16.3620 C   0  0  2  0  0  0  0  0  0  0  0  0
   -7.3090  -34.2978  -17.3899 C   0  0  1  0  0  0  0  0  0  0  0  0
   -7.3939  -35.7751  -17.4240 C   0  0  2  0  0  0  0  0  0  0  0  0
   -6.1922  -36.4973  -16.9136 C   0  0  1  0  0  0  0  0  0  0  0  0
   -5.7395  -35.7588  -15.6478 C   0  0  1  0  0  0  0  0  0  0  0  0
   -4.6866  -36.5743  -14.9500 C   0  0  0  0  0  0  0  0  0  0  0  0
   -8.6247  -33.8097  -17.2160 O   0  0  0  0  0  0  0  0  0  0  0  0
   -7.6181  -36.2257  -18.7435 O   0  0  0  0  0  0  0  0  0  0  0  0
   -6.5110  -37.8102  -16.6146 O   0  0  0  0  0  0  0  0  0  0  0  0
   -5.3073  -34.5242  -16.0561 O   0  0  0  0  0  0  0  0  0  0  0  0
   -3.4330  -36.4279  -15.4866 O   0  0  0  0  0  0  0  0  0  0  0  0
  1  2  1  0
  1  7  1  6
  1 11  1  0
  2  3  1  0
  2  8  1  6
  3  4  1  0
  3  9  1  6
  5  4  1  0
  4 10  1  1
  5  6  1  6
 11  5  1  0
  6 12  1  0
 13  7  1  1
 13 14  1  0
 22 13  1  0
 15 14  1  0
 14 19  1  1
 16 15  1  0
 15 20  1  6
 17 16  1  0
 16 21  1  1
 17 18  1  6
 17 22  1  0
 23 18  1  0
M  END
$$$$
