
     RDKit          3D

 23 24  0  0  0  0  0  0  0  0999 V2000
   -6.5568  -32.4406  -14.2584 C   0  0  1  0  0  0  0  0  0  0  0  0
   -7.4339  -31.9331  -13.1626 C   0  0  1  0  0  0  0  0  0  0  0  0
   -6.9467  -30.5239  -12.8146 C   0  0  2  0  0  0  0  0  0  0  0  0
   -7.2707  -29.6969  -14.0220 C   0  0  1  0  0  0  0  0  0  0  0  0
   -6.8528  -30.3659  -15.2838 C   0  0  1  0  0  0  0  0  0  0  0  0
   -5.9751  -29.3592  -16.0457 C   0  0  0  0  0  0  0  0  0  0  0  0
   -7.0601  -33.5535  -14.9129 O   0  0  0  0  0  0  0  0  0  0  0  0
   -8.7644  -31.7974  -13.5423 O   0  0  0  0  0  0  0  0  0  0  0  0
   -5.6168  -30.5001  -12.4696 O   0  0  0  0  0  0  0  0  0  0  0  0
   -8.6724  -29.5095  -14.0392 O   0  0  0  0  0  0  0  0  0  0  0  0
   -6.1698  -31.5158  -15.1771 O   0  0  0  0  0  0  0  0  0  0  0  0
   -5.2396  -30.0240  -17.0380 O   0  0  0  0  0  0  0  0  0  0  0  0
   -6.3614  -33.8725  -16.0696 C   0  0  2  0  0  0  0  0  0  0  0  0
   -7.1967  -34.5113  -17.1195 C   0  0  1  0  0  0  0  0  0  0  0  0
   -7.2445  -35.9905  -17.1035 C   0  0  2  0  0  0  0  0  0  0  0  0
   -6.0536  -36.6630  -16.5071 C   0  0  1  0  0  0  0  0  0  0  0  0
   -5.6840  -35.8687  -15.2482 C   0  0  1  0  0  0  0  0  0  0  0  0
   -4.6490  -36.6316  -14.4688 C   0  0  0  0  0  0  0  0  0  0  0  0
   -8.5309  -34.0513  -17.0300 O   0  0  0  0  0  0  0  0  0  0  0  0
   -7.3901  -36.4933  -18.4151 O   0  0  0  0  0  0  0  0  0  0  0  0
   -6.3559  -37.9722  -16.1764 O   0  0  0  0  0  0  0  0  0  0  0  0
   -5.2610  -34.6387  -15.6793 O   0  0  0  0  0  0  0  0  0  0  0  0
   -3.4328  -36.7071  -15.0979 O   0  0  0  0  0  0  0  0  0  0  0  0
  1  2  1  0
  1  7  1  6
  1 11  1  0
  2  3  1  0
  2  8  1  6
  3  4  1  0
  3  9  1  6
  5  4  1  0
  4 10  1  6
  5  6  1  1
 11  5  1  0
  6 12  1  0
 13  7  1  1
 13 14  1  0
 22 13  1  0
 15 14  1  0
 14 19  1  1
 16 15  1  0
 15 20  1  6
 17 16  1  0
 16 21  1  1
 17 18  1  6
 17 22  1  0
 23 18  1  0
M  END
$$$$
