
     RDKit          3D

 23 24  0  0  0  0  0  0  0  0999 V2000
   -6.6659  -32.5046  -14.3355 C   0  0  1  0  0  0  0  0  0  0  0  0
   -7.1589  -32.1262  -12.9786 C   0  0  1  0  0  0  0  0  0  0  0  0
   -6.6464  -30.7119  -12.6936 C   0  0  2  0  0  0  0  0  0  0  0  0
   -7.3818  -29.8350  -13.6616 C   0  0  1  0  0  0  0  0  0  0  0  0
   -7.3695  -30.3948  -15.0403 C   0  0  1  0  0  0  0  0  0  0  0  0
   -6.8327  -29.2860  -15.9605 C   0  0  0  0  0  0  0  0  0  0  0  0
   -7.3064  -33.6060  -14.8806 O   0  0  0  0  0  0  0  0  0  0  0  0
   -8.5450  -32.0567  -12.8975 O   0  0  0  0  0  0  0  0  0  0  0  0
   -5.2790  -30.6203  -12.7944 O   0  0  0  0  0  0  0  0  0  0  0  0
   -8.7192  -29.7414  -13.2115 O   0  0  0  0  0  0  0  0  0  0  0  0
   -6.6399  -31.5006  -15.2522 O   0  0  0  0  0  0  0  0  0  0  0  0
   -6.5646  -29.8115  -17.2331 O   0  0  0  0  0  0  0  0  0  0  0  0
   -6.7604  -34.0155  -16.0897 C   0  0  2  0  0  0  0  0  0  0  0  0
   -7.5303  -35.0940  -16.7622 C   0  0  1  0  0  0  0  0  0  0  0  0
   -7.1156  -36.4807  -16.4526 C   0  0  2  0  0  0  0  0  0  0  0  0
   -5.6893  -36.6469  -16.0474 C   0  0  1  0  0  0  0  0  0  0  0  0
   -5.3655  -35.4912  -15.0923 C   0  0  1  0  0  0  0  0  0  0  0  0
   -4.0245  -35.7357  -14.4577 C   0  0  0  0  0  0  0  0  0  0  0  0
   -8.9031  -34.9888  -16.4398 O   0  0  0  0  0  0  0  0  0  0  0  0
   -7.3294  -37.3199  -17.5681 O   0  0  0  0  0  0  0  0  0  0  0  0
   -5.5091  -37.8613  -15.4090 O   0  0  0  0  0  0  0  0  0  0  0  0
   -5.4264  -34.3448  -15.8405 O   0  0  0  0  0  0  0  0  0  0  0  0
   -2.9774  -35.6615  -15.3402 O   0  0  0  0  0  0  0  0  0  0  0  0
  1  2  1  0
  1  7  1  6
  1 11  1  0
  2  3  1  0
  2  8  1  6
  3  4  1  0
  3  9  1  6
  5  4  1  0
  4 10  1  1
  5  6  1  6
 11  5  1  0
  6 12  1  0
 13  7  1  1
 13 14  1  0
 22 13  1  0
 15 14  1  0
 14 19  1  1
 16 15  1  0
 15 20  1  6
 17 16  1  0
 16 21  1  1
 17 18  1  6
 17 22  1  0
 23 18  1  0
M  END
$$$$
