
     RDKit          3D

 23 24  0  0  0  0  0  0  0  0999 V2000
   -6.7931  -33.3537  -15.7929 C   0  0  1  0  0  0  0  0  0  0  0  0
   -7.9186  -34.2553  -16.2438 C   0  0  1  0  0  0  0  0  0  0  0  0
   -7.4586  -35.3678  -17.1386 C   0  0  2  0  0  0  0  0  0  0  0  0
   -6.2417  -36.0800  -16.6378 C   0  0  1  0  0  0  0  0  0  0  0  0
   -5.6324  -35.2478  -15.5330 C   0  0  1  0  0  0  0  0  0  0  0  0
   -4.2617  -35.7609  -15.1519 C   0  0  0  0  0  0  0  0  0  0  0  0
   -6.8104  -33.1028  -14.4425 O   0  0  0  0  0  0  0  0  0  0  0  0
   -8.5879  -34.8354  -15.1629 O   0  0  0  0  0  0  0  0  0  0  0  0
   -7.2647  -34.9562  -18.4508 O   0  0  0  0  0  0  0  0  0  0  0  0
   -6.4880  -37.3844  -16.2429 O   0  0  0  0  0  0  0  0  0  0  0  0
   -5.5461  -33.9386  -16.0623 O   0  0  0  0  0  0  0  0  0  0  0  0
   -4.2938  -36.1407  -13.8308 O   0  0  0  0  0  0  0  0  0  0  0  0
   -6.4570  -31.8154  -14.0881 C   0  0  2  0  0  0  0  0  0  0  0  0
   -6.8333  -31.4946  -12.6854 C   0  0  1  0  0  0  0  0  0  0  0  0
   -6.9641  -30.0385  -12.3843 C   0  0  2  0  0  0  0  0  0  0  0  0
   -7.4622  -29.2324  -13.5649 C   0  0  1  0  0  0  0  0  0  0  0  0
   -8.0971  -30.2383  -14.5038 C   0  0  1  0  0  0  0  0  0  0  0  0
   -8.8014  -29.5608  -15.6546 C   0  0  0  0  0  0  0  0  0  0  0  0
   -7.9758  -32.1545  -12.2481 O   0  0  0  0  0  0  0  0  0  0  0  0
   -5.7777  -29.4881  -11.8800 O   0  0  0  0  0  0  0  0  0  0  0  0
   -8.3656  -28.2491  -13.1751 O   0  0  0  0  0  0  0  0  0  0  0  0
   -7.0556  -30.9835  -15.0361 O   0  0  0  0  0  0  0  0  0  0  0  0
   -7.9049  -28.7703  -16.3829 O   0  0  0  0  0  0  0  0  0  0  0  0
  1  2  1  0
  1  7  1  1
  1 11  1  0
  2  3  1  0
  2  8  1  1
  3  4  1  0
  3  9  1  6
  5  4  1  0
  4 10  1  1
  5  6  1  0
  5 11  1  6
  6 12  1  6
 13  7  1  6
 13 14  1  0
 22 13  1  0
 15 14  1  0
 14 19  1  6
 16 15  1  0
 15 20  1  6
 17 16  1  0
 16 21  1  1
 18 17  1  0
 17 22  1  6
 18 23  1  6
M  END
$$$$
