
     RDKit          3D

 23 24  0  0  0  0  0  0  0  0999 V2000
   -6.1917  -33.4357  -16.0161 C   0  0  1  0  0  0  0  0  0  0  0  0
   -7.2200  -33.8938  -17.0240 C   0  0  1  0  0  0  0  0  0  0  0  0
   -6.7729  -35.0828  -17.8215 C   0  0  2  0  0  0  0  0  0  0  0  0
   -6.1730  -36.1739  -16.9919 C   0  0  1  0  0  0  0  0  0  0  0  0
   -5.8888  -35.6153  -15.6166 C   0  0  1  0  0  0  0  0  0  0  0  0
   -5.0465  -36.5699  -14.8001 C   0  0  0  0  0  0  0  0  0  0  0  0
   -6.7206  -33.2142  -14.7680 O   0  0  0  0  0  0  0  0  0  0  0  0
   -8.4336  -34.2277  -16.4169 O   0  0  0  0  0  0  0  0  0  0  0  0
   -5.9122  -34.7421  -18.8569 O   0  0  0  0  0  0  0  0  0  0  0  0
   -6.9456  -37.3225  -16.9470 O   0  0  0  0  0  0  0  0  0  0  0  0
   -5.1919  -34.4059  -15.8466 O   0  0  0  0  0  0  0  0  0  0  0  0
   -5.0087  -36.1132  -13.5037 O   0  0  0  0  0  0  0  0  0  0  0  0
   -6.3334  -32.0271  -14.1772 C   0  0  2  0  0  0  0  0  0  0  0  0
   -7.2402  -31.6288  -13.0677 C   0  0  1  0  0  0  0  0  0  0  0  0
   -7.2183  -30.1761  -12.7253 C   0  0  2  0  0  0  0  0  0  0  0  0
   -6.9623  -29.2890  -13.9251 C   0  0  1  0  0  0  0  0  0  0  0  0
   -7.2753  -30.1446  -15.1361 C   0  0  1  0  0  0  0  0  0  0  0  0
   -7.2363  -29.3403  -16.4132 C   0  0  0  0  0  0  0  0  0  0  0  0
   -8.5572  -32.0341  -13.2490 O   0  0  0  0  0  0  0  0  0  0  0  0
   -6.3127  -29.8828  -11.6964 O   0  0  0  0  0  0  0  0  0  0  0  0
   -7.7417  -28.1374  -13.8920 O   0  0  0  0  0  0  0  0  0  0  0  0
   -6.2660  -31.0929  -15.2125 O   0  0  0  0  0  0  0  0  0  0  0  0
   -5.9232  -29.2292  -16.8844 O   0  0  0  0  0  0  0  0  0  0  0  0
  1  2  1  0
  1  7  1  1
  1 11  1  0
  2  3  1  0
  2  8  1  1
  3  4  1  0
  3  9  1  6
  5  4  1  0
  4 10  1  1
  5  6  1  0
  5 11  1  6
  6 12  1  6
 13  7  1  6
 13 14  1  0
 22 13  1  0
 15 14  1  0
 14 19  1  6
 16 15  1  0
 15 20  1  1
 17 16  1  0
 16 21  1  1
 18 17  1  0
 17 22  1  6
 18 23  1  6
M  END
$$$$
