
     RDKit          3D

 23 24  0  0  0  0  0  0  0  0999 V2000
   -5.9047  -33.4394  -15.3885 C   0  0  1  0  0  0  0  0  0  0  0  0
   -5.2061  -33.5651  -16.7014 C   0  0  1  0  0  0  0  0  0  0  0  0
   -4.8300  -35.0397  -16.8698 C   0  0  2  0  0  0  0  0  0  0  0  0
   -6.1385  -35.7539  -17.0261 C   0  0  1  0  0  0  0  0  0  0  0  0
   -7.1325  -35.3249  -16.0052 C   0  0  1  0  0  0  0  0  0  0  0  0
   -7.6382  -36.6045  -15.3186 C   0  0  0  0  0  0  0  0  0  0  0  0
   -6.5980  -32.2498  -15.2310 O   0  0  0  0  0  0  0  0  0  0  0  0
   -6.0151  -33.2480  -17.7866 O   0  0  0  0  0  0  0  0  0  0  0  0
   -4.0666  -35.5076  -15.8274 O   0  0  0  0  0  0  0  0  0  0  0  0
   -6.6345  -35.4452  -18.3140 O   0  0  0  0  0  0  0  0  0  0  0  0
   -6.7138  -34.4790  -15.0516 O   0  0  0  0  0  0  0  0  0  0  0  0
   -7.3590  -36.5501  -13.9450 O   0  0  0  0  0  0  0  0  0  0  0  0
   -7.1879  -32.1198  -13.9809 C   0  0  2  0  0  0  0  0  0  0  0  0
   -8.3435  -31.1861  -13.9557 C   0  0  1  0  0  0  0  0  0  0  0  0
   -8.0358  -29.7775  -13.6210 C   0  0  2  0  0  0  0  0  0  0  0  0
   -6.8189  -29.5699  -12.7831 C   0  0  1  0  0  0  0  0  0  0  0  0
   -5.7381  -30.5069  -13.3366 C   0  0  1  0  0  0  0  0  0  0  0  0
   -4.4192  -30.1721  -12.6971 C   0  0  0  0  0  0  0  0  0  0  0  0
   -8.9965  -31.1823  -15.2100 O   0  0  0  0  0  0  0  0  0  0  0  0
   -9.1180  -29.1866  -12.9327 O   0  0  0  0  0  0  0  0  0  0  0  0
   -6.3990  -28.2538  -12.8627 O   0  0  0  0  0  0  0  0  0  0  0  0
   -6.1699  -31.7831  -13.0861 O   0  0  0  0  0  0  0  0  0  0  0  0
   -4.3196  -30.5866  -11.3936 O   0  0  0  0  0  0  0  0  0  0  0  0
  1  2  1  0
  1  7  1  6
  1 11  1  0
  2  3  1  0
  2  8  1  6
  3  4  1  0
  3  9  1  1
  5  4  1  0
  4 10  1  6
  5  6  1  1
 11  5  1  0
  6 12  1  0
 13  7  1  6
 13 14  1  0
 22 13  1  0
 15 14  1  0
 14 19  1  6
 16 15  1  0
 15 20  1  1
 17 16  1  0
 16 21  1  6
 17 18  1  1
 17 22  1  0
 23 18  1  0
M  END
$$$$
