
     RDKit          3D

 23 24  0  0  0  0  0  0  0  0999 V2000
   -6.9788  -32.6231  -14.8725 C   0  0  1  0  0  0  0  0  0  0  0  0
   -8.0981  -31.8999  -14.1602 C   0  0  1  0  0  0  0  0  0  0  0  0
   -7.6271  -31.1075  -12.9770 C   0  0  2  0  0  0  0  0  0  0  0  0
   -6.4137  -30.2764  -13.2527 C   0  0  1  0  0  0  0  0  0  0  0  0
   -5.8170  -30.7373  -14.5625 C   0  0  1  0  0  0  0  0  0  0  0  0
   -4.4491  -30.1319  -14.7854 C   0  0  0  0  0  0  0  0  0  0  0  0
   -7.0100  -32.4564  -16.2356 O   0  0  0  0  0  0  0  0  0  0  0  0
   -8.7768  -31.0224  -15.0100 O   0  0  0  0  0  0  0  0  0  0  0  0
   -7.4211  -31.8944  -11.8513 O   0  0  0  0  0  0  0  0  0  0  0  0
   -6.6613  -28.9139  -13.2346 O   0  0  0  0  0  0  0  0  0  0  0  0
   -5.7281  -32.1449  -14.4522 O   0  0  0  0  0  0  0  0  0  0  0  0
   -3.7177  -30.2781  -13.6303 O   0  0  0  0  0  0  0  0  0  0  0  0
   -6.7085  -33.5901  -16.9648 C   0  0  2  0  0  0  0  0  0  0  0  0
   -7.9055  -34.4393  -17.2055 C   0  0  1  0  0  0  0  0  0  0  0  0
   -7.6128  -35.8701  -17.5136 C   0  0  2  0  0  0  0  0  0  0  0  0
   -6.3775  -36.3869  -16.8073 C   0  0  1  0  0  0  0  0  0  0  0  0
   -6.1242  -35.4164  -15.6713 C   0  0  1  0  0  0  0  0  0  0  0  0
   -5.0200  -35.8981  -14.7612 C   0  0  0  0  0  0  0  0  0  0  0  0
   -8.8494  -34.3766  -16.1872 O   0  0  0  0  0  0  0  0  0  0  0  0
   -7.5281  -36.1140  -18.8913 O   0  0  0  0  0  0  0  0  0  0  0  0
   -6.5522  -37.6873  -16.3455 O   0  0  0  0  0  0  0  0  0  0  0  0
   -5.6925  -34.2362  -16.2580 O   0  0  0  0  0  0  0  0  0  0  0  0
   -3.7729  -35.7456  -15.3780 O   0  0  0  0  0  0  0  0  0  0  0  0
  1  2  1  0
  1  7  1  6
  1 11  1  0
  2  3  1  0
  2  8  1  6
  3  4  1  0
  3  9  1  1
  5  4  1  0
  4 10  1  6
  5  6  1  0
  5 11  1  1
  6 12  1  6
 13  7  1  1
 13 14  1  0
 22 13  1  0
 15 14  1  0
 14 19  1  1
 16 15  1  0
 15 20  1  6
 17 16  1  0
 16 21  1  1
 18 17  1  0
 17 22  1  6
 18 23  1  6
M  END
$$$$
