
     RDKit          3D

 23 24  0  0  0  0  0  0  0  0999 V2000
   -6.5162  -34.4579  -14.9192 C   0  0  1  0  0  0  0  0  0  0  0  0
   -5.2622  -35.1372  -14.4790 C   0  0  1  0  0  0  0  0  0  0  0  0
   -5.3679  -36.6007  -14.9163 C   0  0  2  0  0  0  0  0  0  0  0  0
   -5.3133  -36.5587  -16.4136 C   0  0  1  0  0  0  0  0  0  0  0  0
   -6.2195  -35.5203  -16.9750 C   0  0  1  0  0  0  0  0  0  0  0  0
   -7.1124  -36.2276  -18.0080 C   0  0  0  0  0  0  0  0  0  0  0  0
   -6.4437  -33.0741  -14.8997 O   0  0  0  0  0  0  0  0  0  0  0  0
   -4.1206  -34.6339  -15.0923 O   0  0  0  0  0  0  0  0  0  0  0  0
   -6.4933  -37.2149  -14.4218 O   0  0  0  0  0  0  0  0  0  0  0  0
   -3.9806  -36.2560  -16.7773 O   0  0  0  0  0  0  0  0  0  0  0  0
   -7.0156  -34.8649  -16.1166 O   0  0  0  0  0  0  0  0  0  0  0  0
   -8.1104  -36.9625  -17.3511 O   0  0  0  0  0  0  0  0  0  0  0  0
   -7.6043  -32.4575  -15.3476 C   0  0  2  0  0  0  0  0  0  0  0  0
   -7.3611  -31.2962  -16.2422 C   0  0  1  0  0  0  0  0  0  0  0  0
   -7.2744  -29.9735  -15.5836 C   0  0  2  0  0  0  0  0  0  0  0  0
   -8.0144  -29.8508  -14.2938 C   0  0  1  0  0  0  0  0  0  0  0  0
   -7.7528  -31.1440  -13.5116 C   0  0  1  0  0  0  0  0  0  0  0  0
   -8.2660  -30.9843  -12.1073 C   0  0  0  0  0  0  0  0  0  0  0  0
   -6.1603  -31.4797  -16.9661 O   0  0  0  0  0  0  0  0  0  0  0  0
   -7.7649  -28.9633  -16.4398 O   0  0  0  0  0  0  0  0  0  0  0  0
   -7.5575  -28.7575  -13.5793 O   0  0  0  0  0  0  0  0  0  0  0  0
   -8.3618  -32.1497  -14.2155 O   0  0  0  0  0  0  0  0  0  0  0  0
   -7.2819  -31.0366  -11.1535 O   0  0  0  0  0  0  0  0  0  0  0  0
  1  2  1  0
  1  7  1  6
  1 11  1  0
  2  3  1  0
  2  8  1  6
  3  4  1  0
  3  9  1  6
  5  4  1  0
  4 10  1  1
  5  6  1  6
 11  5  1  0
  6 12  1  0
 13  7  1  1
 13 14  1  0
 22 13  1  0
 15 14  1  0
 14 19  1  1
 16 15  1  0
 15 20  1  6
 17 16  1  0
 16 21  1  1
 17 18  1  1
 17 22  1  0
 23 18  1  0
M  END
$$$$
