
     RDKit          3D

 23 24  0  0  0  0  0  0  0  0999 V2000
   -6.4297  -32.4077  -14.0701 C   0  0  1  0  0  0  0  0  0  0  0  0
   -7.3057  -31.9666  -12.9451 C   0  0  1  0  0  0  0  0  0  0  0  0
   -6.9539  -30.5063  -12.6488 C   0  0  2  0  0  0  0  0  0  0  0  0
   -7.4159  -29.7478  -13.8562 C   0  0  1  0  0  0  0  0  0  0  0  0
   -6.9865  -30.4012  -15.1224 C   0  0  1  0  0  0  0  0  0  0  0  0
   -6.2537  -29.3282  -15.9447 C   0  0  0  0  0  0  0  0  0  0  0  0
   -6.8422  -33.5829  -14.6778 O   0  0  0  0  0  0  0  0  0  0  0  0
   -8.6586  -31.9792  -13.2650 O   0  0  0  0  0  0  0  0  0  0  0  0
   -5.6198  -30.3360  -12.3669 O   0  0  0  0  0  0  0  0  0  0  0  0
   -8.8289  -29.7073  -13.8119 O   0  0  0  0  0  0  0  0  0  0  0  0
   -6.1827  -31.4710  -15.0244 O   0  0  0  0  0  0  0  0  0  0  0  0
   -4.8999  -29.6709  -16.0760 O   0  0  0  0  0  0  0  0  0  0  0  0
   -6.2752  -33.7817  -15.9295 C   0  0  2  0  0  0  0  0  0  0  0  0
   -7.2275  -34.3014  -16.9450 C   0  0  1  0  0  0  0  0  0  0  0  0
   -7.2980  -35.7738  -17.0785 C   0  0  2  0  0  0  0  0  0  0  0  0
   -6.0620  -36.5120  -16.6865 C   0  0  1  0  0  0  0  0  0  0  0  0
   -5.5480  -35.8571  -15.3983 C   0  0  1  0  0  0  0  0  0  0  0  0
   -4.4492  -36.7036  -14.8181 C   0  0  0  0  0  0  0  0  0  0  0  0
   -8.5368  -33.8462  -16.6657 O   0  0  0  0  0  0  0  0  0  0  0  0
   -7.5899  -36.1345  -18.4123 O   0  0  0  0  0  0  0  0  0  0  0  0
   -6.3493  -37.8471  -16.4639 O   0  0  0  0  0  0  0  0  0  0  0  0
   -5.1526  -34.5907  -15.7414 O   0  0  0  0  0  0  0  0  0  0  0  0
   -3.2247  -36.4863  -15.3962 O   0  0  0  0  0  0  0  0  0  0  0  0
  1  2  1  0
  1  7  1  6
  1 11  1  0
  2  3  1  0
  2  8  1  6
  3  4  1  0
  3  9  1  6
  5  4  1  0
  4 10  1  6
  5  6  1  6
 11  5  1  0
  6 12  1  0
 13  7  1  1
 13 14  1  0
 22 13  1  0
 15 14  1  0
 14 19  1  1
 16 15  1  0
 15 20  1  6
 17 16  1  0
 16 21  1  1
 17 18  1  6
 17 22  1  0
 23 18  1  0
M  END
$$$$
