
     RDKit          3D

 23 24  0  0  0  0  0  0  0  0999 V2000
   -6.8657  -32.4358  -14.4530 C   0  0  1  0  0  0  0  0  0  0  0  0
   -7.9613  -31.8446  -13.6297 C   0  0  1  0  0  0  0  0  0  0  0  0
   -7.4388  -30.5166  -13.0751 C   0  0  2  0  0  0  0  0  0  0  0  0
   -7.2963  -29.6293  -14.2747 C   0  0  1  0  0  0  0  0  0  0  0  0
   -6.6064  -30.3187  -15.3986 C   0  0  1  0  0  0  0  0  0  0  0  0
   -5.4337  -29.4156  -15.8152 C   0  0  0  0  0  0  0  0  0  0  0  0
   -7.2795  -33.4613  -15.2881 O   0  0  0  0  0  0  0  0  0  0  0  0
   -9.0967  -31.5327  -14.3689 O   0  0  0  0  0  0  0  0  0  0  0  0
   -6.2753  -30.6694  -12.3601 O   0  0  0  0  0  0  0  0  0  0  0  0
   -8.5997  -29.2649  -14.6851 O   0  0  0  0  0  0  0  0  0  0  0  0
   -6.1221  -31.5482  -15.1658 O   0  0  0  0  0  0  0  0  0  0  0  0
   -4.3041  -30.1995  -16.0930 O   0  0  0  0  0  0  0  0  0  0  0  0
   -6.3627  -33.7587  -16.2876 C   0  0  2  0  0  0  0  0  0  0  0  0
   -6.9865  -34.1328  -17.5834 C   0  0  1  0  0  0  0  0  0  0  0  0
   -7.2293  -35.5772  -17.7965 C   0  0  2  0  0  0  0  0  0  0  0  0
   -6.3225  -36.4960  -17.0484 C   0  0  1  0  0  0  0  0  0  0  0  0
   -6.1774  -35.9171  -15.6355 C   0  0  1  0  0  0  0  0  0  0  0  0
   -5.4775  -36.9196  -14.7603 C   0  0  0  0  0  0  0  0  0  0  0  0
   -8.2292  -33.4755  -17.7357 O   0  0  0  0  0  0  0  0  0  0  0  0
   -7.1083  -35.9007  -19.1658 O   0  0  0  0  0  0  0  0  0  0  0  0
   -6.8657  -37.7674  -16.9922 O   0  0  0  0  0  0  0  0  0  0  0  0
   -5.5037  -34.7317  -15.7724 O   0  0  0  0  0  0  0  0  0  0  0  0
   -4.1221  -36.9736  -14.9623 O   0  0  0  0  0  0  0  0  0  0  0  0
  1  2  1  0
  1  7  1  6
  1 11  1  0
  2  3  1  0
  2  8  1  6
  3  4  1  0
  3  9  1  6
  5  4  1  0
  4 10  1  6
  5  6  1  1
 11  5  1  0
  6 12  1  0
 13  7  1  1
 13 14  1  0
 22 13  1  0
 15 14  1  0
 14 19  1  1
 16 15  1  0
 15 20  1  6
 17 16  1  0
 16 21  1  1
 17 18  1  1
 17 22  1  0
 23 18  1  0
M  END
$$$$
