
     RDKit          3D

 23 24  0  0  0  0  0  0  0  0999 V2000
   -6.6094  -32.0994  -14.2724 C   0  0  1  0  0  0  0  0  0  0  0  0
   -6.8632  -31.8380  -12.8060 C   0  0  1  0  0  0  0  0  0  0  0  0
   -6.8234  -30.3808  -12.4529 C   0  0  2  0  0  0  0  0  0  0  0  0
   -7.5988  -29.5116  -13.3921 C   0  0  1  0  0  0  0  0  0  0  0  0
   -7.9261  -30.3258  -14.6227 C   0  0  1  0  0  0  0  0  0  0  0  0
   -8.4776  -29.4526  -15.7275 C   0  0  0  0  0  0  0  0  0  0  0  0
   -7.5174  -32.9653  -14.8313 O   0  0  0  0  0  0  0  0  0  0  0  0
   -8.1019  -32.3363  -12.3935 O   0  0  0  0  0  0  0  0  0  0  0  0
   -5.5289  -29.8972  -12.3135 O   0  0  0  0  0  0  0  0  0  0  0  0
   -8.7244  -28.9444  -12.8184 O   0  0  0  0  0  0  0  0  0  0  0  0
   -6.6994  -30.9115  -15.0144 O   0  0  0  0  0  0  0  0  0  0  0  0
   -7.4263  -28.8061  -16.3337 O   0  0  0  0  0  0  0  0  0  0  0  0
   -7.0116  -33.7647  -15.8379 C   0  0  2  0  0  0  0  0  0  0  0  0
   -7.9320  -34.8796  -16.1872 C   0  0  1  0  0  0  0  0  0  0  0  0
   -7.2852  -36.0449  -16.8593 C   0  0  2  0  0  0  0  0  0  0  0  0
   -5.8621  -36.2786  -16.3990 C   0  0  1  0  0  0  0  0  0  0  0  0
   -5.7352  -35.5394  -15.0822 C   0  0  1  0  0  0  0  0  0  0  0  0
   -4.4158  -35.8251  -14.4063 C   0  0  0  0  0  0  0  0  0  0  0  0
   -8.6902  -35.3353  -15.1152 O   0  0  0  0  0  0  0  0  0  0  0  0
   -7.3400  -35.9541  -18.2570 O   0  0  0  0  0  0  0  0  0  0  0  0
   -5.5801  -37.6335  -16.2591 O   0  0  0  0  0  0  0  0  0  0  0  0
   -5.7581  -34.1878  -15.3921 O   0  0  0  0  0  0  0  0  0  0  0  0
   -3.4362  -36.1420  -15.3543 O   0  0  0  0  0  0  0  0  0  0  0  0
  1  2  1  0
  1  7  1  6
  1 11  1  0
  2  3  1  0
  2  8  1  6
  3  4  1  0
  3  9  1  6
  5  4  1  0
  4 10  1  1
  5  6  1  0
  5 11  1  6
  6 12  1  6
 13  7  1  1
 13 14  1  0
 22 13  1  0
 15 14  1  0
 14 19  1  1
 16 15  1  0
 15 20  1  6
 17 16  1  0
 16 21  1  1
 18 17  1  0
 17 22  1  6
 18 23  1  6
M  END
$$$$
