
     RDKit          3D

 23 24  0  0  0  0  0  0  0  0999 V2000
   -6.4908  -34.8972  -14.8985 C   0  0  1  0  0  0  0  0  0  0  0  0
   -7.0363  -35.3606  -13.5888 C   0  0  1  0  0  0  0  0  0  0  0  0
   -5.9846  -36.2827  -12.9660 C   0  0  2  0  0  0  0  0  0  0  0  0
   -4.8307  -35.3834  -12.6399 C   0  0  1  0  0  0  0  0  0  0  0  0
   -4.4894  -34.4821  -13.7737 C   0  0  1  0  0  0  0  0  0  0  0  0
   -2.9892  -34.6736  -14.0518 C   0  0  0  0  0  0  0  0  0  0  0  0
   -7.1598  -33.8080  -15.4337 O   0  0  0  0  0  0  0  0  0  0  0  0
   -7.2302  -34.3279  -12.6783 O   0  0  0  0  0  0  0  0  0  0  0  0
   -5.6524  -37.3302  -13.7910 O   0  0  0  0  0  0  0  0  0  0  0  0
   -5.2095  -34.6013  -11.5242 O   0  0  0  0  0  0  0  0  0  0  0  0
   -5.1521  -34.6605  -14.9266 O   0  0  0  0  0  0  0  0  0  0  0  0
   -2.8101  -35.6381  -15.0544 O   0  0  0  0  0  0  0  0  0  0  0  0
   -6.4351  -33.1478  -16.4168 C   0  0  2  0  0  0  0  0  0  0  0  0
   -6.5344  -31.6669  -16.3443 C   0  0  1  0  0  0  0  0  0  0  0  0
   -7.6110  -31.0460  -17.1481 C   0  0  2  0  0  0  0  0  0  0  0  0
   -8.0414  -31.8206  -18.3485 C   0  0  1  0  0  0  0  0  0  0  0  0
   -8.1213  -33.2907  -17.9184 C   0  0  1  0  0  0  0  0  0  0  0  0
   -8.7821  -34.0890  -19.0078 C   0  0  0  0  0  0  0  0  0  0  0  0
   -6.7249  -31.2546  -15.0052 O   0  0  0  0  0  0  0  0  0  0  0  0
   -7.2143  -29.7684  -17.6004 O   0  0  0  0  0  0  0  0  0  0  0  0
   -9.2785  -31.3813  -18.7862 O   0  0  0  0  0  0  0  0  0  0  0  0
   -6.8371  -33.6816  -17.6431 O   0  0  0  0  0  0  0  0  0  0  0  0
   -8.1501  -35.2752  -19.2803 O   0  0  0  0  0  0  0  0  0  0  0  0
  1  2  1  0
  1  7  1  1
  1 11  1  0
  2  3  1  0
  2  8  1  1
  3  4  1  0
  3  9  1  6
  5  4  1  0
  4 10  1  1
  5  6  1  6
 11  5  1  0
  6 12  1  0
 13  7  1  1
 13 14  1  0
 22 13  1  0
 15 14  1  0
 14 19  1  1
 16 15  1  0
 15 20  1  6
 17 16  1  0
 16 21  1  1
 17 18  1  6
 17 22  1  0
 23 18  1  0
M  END
$$$$
