
     RDKit          3D

 30 34  0  0  0  0  0  0  0  0999 V2000
  -65.3565   25.1118  -26.7035 S   0  0  1  0  0  6  0  0  0  0  0  0
  -62.3276   35.5588  -27.7916 O   0  0  0  0  0  0  0  0  0  0  0  0
  -61.8081   30.6470  -29.2889 O   0  0  0  0  0  0  0  0  0  0  0  0
  -65.9637   23.8659  -27.2325 O   0  0  0  0  0  0  0  0  0  0  0  0
  -65.7759   25.4769  -25.3253 O   0  0  0  0  0  0  0  0  0  0  0  0
  -63.6106   25.0854  -26.8223 N   0  0  0  0  0  0  0  0  0  0  0  0
  -63.2799   26.4268  -27.1677 C   0  0  0  0  0  0  0  0  0  0  0  0
  -61.9977   26.9834  -27.0030 C   0  0  0  0  0  0  0  0  0  0  0  0
  -65.5887   26.5065  -27.8158 C   0  0  0  0  0  0  0  0  0  0  0  0
  -64.2658   27.1702  -27.6761 C   0  0  0  0  0  0  0  0  0  0  0  0
  -63.9959   28.5066  -28.0378 C   0  0  0  0  0  0  0  0  0  0  0  0
  -62.7442   29.0562  -27.8781 C   0  0  0  0  0  0  0  0  0  0  0  0
  -61.7326   28.3043  -27.3604 C   0  0  0  0  0  0  0  0  0  0  0  0
  -62.5555   30.4319  -28.2714 C   0  0  0  0  0  0  0  0  0  0  0  0
  -63.1736   31.4834  -27.5532 N   0  0  0  0  0  0  0  0  0  0  0  0
  -64.4317   31.2089  -26.9251 C   0  0  0  0  0  0  0  0  0  0  0  0
  -64.5150   31.9480  -25.6128 C   0  0  0  0  0  0  0  0  0  0  0  0
  -62.5396   32.7615  -27.4854 C   0  0  0  0  0  0  0  0  0  0  0  0
  -63.3535   33.7776  -26.7740 C   0  0  0  0  0  0  0  0  0  0  0  0
  -63.1987   35.1469  -26.9724 C   0  0  0  0  0  0  0  0  0  0  0  0
  -63.9479   36.0436  -26.3186 N   0  0  0  0  0  0  0  0  0  0  0  0
  -64.8834   35.6245  -25.4389 C   0  0  0  0  0  0  0  0  0  0  0  0
  -65.0383   34.3035  -25.2426 N   0  0  0  0  0  0  0  0  0  0  0  0
  -64.3101   33.3797  -25.8758 C   0  0  0  0  0  0  0  0  0  0  0  0
  -65.7164   36.5723  -24.7245 C   0  0  0  0  0  0  0  0  0  0  0  0
  -66.5829   36.2449  -23.7280 C   0  0  0  0  0  0  0  0  0  0  0  0
  -67.3502   37.2208  -23.0689 C   0  0  0  0  0  0  0  0  0  0  0  0
  -65.6182   37.9286  -25.0705 C   0  0  0  0  0  0  0  0  0  0  0  0
  -66.3753   38.8886  -24.4191 C   0  0  0  0  0  0  0  0  0  0  0  0
  -67.2498   38.5433  -23.4107 C   0  0  0  0  0  0  0  0  0  0  0  0
  1  4  2  0
  1  5  2  0
  6  1  1  0
  1  9  1  6
 20  2  2  0
 14  3  2  0
  7  6  1  0
  8  7  2  0
 10  7  1  0
 13  8  1  0
 10  9  1  0
 11 10  2  0
 12 11  1  0
 12 13  2  0
 14 12  1  0
 15 14  1  0
 15 16  1  0
 18 15  1  0
 16 17  1  0
 17 24  1  0
 19 18  1  0
 19 20  1  0
 19 24  2  0
 20 21  1  0
 21 22  2  0
 22 23  1  0
 22 25  1  0
 23 24  1  0
 25 26  2  0
 25 28  1  0
 26 27  1  0
 27 30  2  0
 28 29  2  0
 29 30  1  0
M  END
$$$$
