
     RDKit          3D

 30 34  0  0  0  0  0  0  0  0999 V2000
  -68.2084   30.6115  -23.0382 S   0  0  1  0  0  6  0  0  0  0  0  0
  -60.7823   33.0275  -30.3813 O   0  0  0  0  0  0  0  0  0  0  0  0
  -61.9518   30.1426  -26.4744 O   0  0  0  0  0  0  0  0  0  0  0  0
  -68.9674   29.9129  -21.9888 O   0  0  0  0  0  0  0  0  0  0  0  0
  -68.9748   31.6569  -23.7895 O   0  0  0  0  0  0  0  0  0  0  0  0
  -66.7049   31.2829  -22.4503 N   0  0  0  0  0  0  0  0  0  0  0  0
  -65.7859   31.1081  -23.5170 C   0  0  0  0  0  0  0  0  0  0  0  0
  -64.6197   31.8268  -23.7010 C   0  0  0  0  0  0  0  0  0  0  0  0
  -67.4057   29.4599  -24.1738 C   0  0  0  0  0  0  0  0  0  0  0  0
  -66.1105   30.1695  -24.4142 C   0  0  0  0  0  0  0  0  0  0  0  0
  -65.2633   29.9383  -25.5132 C   0  0  0  0  0  0  0  0  0  0  0  0
  -64.0998   30.6198  -25.7454 C   0  0  0  0  0  0  0  0  0  0  0  0
  -63.7985   31.5998  -24.7751 C   0  0  0  0  0  0  0  0  0  0  0  0
  -63.2064   30.4492  -26.8610 C   0  0  0  0  0  0  0  0  0  0  0  0
  -63.3190   30.5348  -28.2368 N   0  0  0  0  0  0  0  0  0  0  0  0
  -64.1485   29.8079  -29.1413 C   0  0  0  0  0  0  0  0  0  0  0  0
  -63.2869   28.9743  -30.1022 C   0  0  0  0  0  0  0  0  0  0  0  0
  -62.4833   31.5740  -28.8742 C   0  0  0  0  0  0  0  0  0  0  0  0
  -61.9946   31.1095  -30.1757 C   0  0  0  0  0  0  0  0  0  0  0  0
  -61.1137   31.9354  -30.9063 C   0  0  0  0  0  0  0  0  0  0  0  0
  -60.6755   31.5351  -32.0949 N   0  0  0  0  0  0  0  0  0  0  0  0
  -61.0199   30.3567  -32.6813 C   0  0  0  0  0  0  0  0  0  0  0  0
  -61.8551   29.5839  -31.9760 N   0  0  0  0  0  0  0  0  0  0  0  0
  -62.3364   29.9216  -30.7758 C   0  0  0  0  0  0  0  0  0  0  0  0
  -60.4959   30.0415  -34.0131 C   0  0  0  0  0  0  0  0  0  0  0  0
  -59.7796   31.0456  -34.6617 C   0  0  0  0  0  0  0  0  0  0  0  0
  -59.2655   30.8738  -35.9225 C   0  0  0  0  0  0  0  0  0  0  0  0
  -60.6854   28.8534  -34.6581 C   0  0  0  0  0  0  0  0  0  0  0  0
  -60.1596   28.6891  -35.9396 C   0  0  0  0  0  0  0  0  0  0  0  0
  -59.4537   29.6716  -36.5905 C   0  0  0  0  0  0  0  0  0  0  0  0
  1  4  2  0
  1  5  2  0
  1  6  1  1
  9  1  1  0
 20  2  2  0
 14  3  2  0
  7  6  1  0
  8  7  2  0
 10  7  1  0
 13  8  1  0
  9 10  1  6
 11 10  2  0
 12 11  1  0
 12 13  2  0
 14 12  1  0
 15 14  1  0
 16 15  1  1
 18 15  1  1
 16 17  1  0
 17 24  1  6
 19 18  1  0
 19 20  1  0
 19 24  2  0
 20 21  1  0
 21 22  2  0
 22 23  1  0
 22 25  1  0
 23 24  1  0
 25 26  2  0
 25 28  1  0
 26 27  1  0
 27 30  2  0
 28 29  2  0
 29 30  1  0
M  END
$$$$
