
     RDKit          3D

 30 34  0  0  0  0  0  0  0  0999 V2000
  -68.0204   27.3426  -25.4476 S   0  0  1  0  0  6  0  0  0  0  0  0
  -63.8060   33.0845  -26.0883 O   0  0  0  0  0  0  0  0  0  0  0  0
  -61.9466   27.9162  -29.1299 O   0  0  0  0  0  0  0  0  0  0  0  0
  -69.2711   26.5452  -25.4730 O   0  0  0  0  0  0  0  0  0  0  0  0
  -68.0459   28.5190  -24.5398 O   0  0  0  0  0  0  0  0  0  0  0  0
  -66.6207   26.3461  -25.1147 N   0  0  0  0  0  0  0  0  0  0  0  0
  -65.6089   26.9042  -25.9470 C   0  0  0  0  0  0  0  0  0  0  0  0
  -64.2311   26.6924  -25.7523 C   0  0  0  0  0  0  0  0  0  0  0  0
  -67.4969   27.8385  -27.0958 C   0  0  0  0  0  0  0  0  0  0  0  0
  -66.0265   27.6650  -26.9619 C   0  0  0  0  0  0  0  0  0  0  0  0
  -65.0684   28.2433  -27.8206 C   0  0  0  0  0  0  0  0  0  0  0  0
  -63.7199   28.0403  -27.6343 C   0  0  0  0  0  0  0  0  0  0  0  0
  -63.2855   27.2649  -26.6014 C   0  0  0  0  0  0  0  0  0  0  0  0
  -62.8080   28.6716  -28.5577 C   0  0  0  0  0  0  0  0  0  0  0  0
  -62.8748   30.0634  -28.8063 N   0  0  0  0  0  0  0  0  0  0  0  0
  -62.2504   30.5559  -29.9981 C   0  0  0  0  0  0  0  0  0  0  0  0
  -63.0689   31.6872  -30.5688 C   0  0  0  0  0  0  0  0  0  0  0  0
  -63.5427   30.9166  -27.8757 C   0  0  0  0  0  0  0  0  0  0  0  0
  -63.4487   32.3535  -28.2327 C   0  0  0  0  0  0  0  0  0  0  0  0
  -63.5877   33.3770  -27.2992 C   0  0  0  0  0  0  0  0  0  0  0  0
  -63.4965   34.6667  -27.6475 N   0  0  0  0  0  0  0  0  0  0  0  0
  -63.2643   35.0005  -28.9357 C   0  0  0  0  0  0  0  0  0  0  0  0
  -63.1290   34.0171  -29.8424 N   0  0  0  0  0  0  0  0  0  0  0  0
  -63.2136   32.7202  -29.5329 C   0  0  0  0  0  0  0  0  0  0  0  0
  -63.1502   36.3882  -29.3400 C   0  0  0  0  0  0  0  0  0  0  0  0
  -63.1911   37.4491  -28.4891 C   0  0  0  0  0  0  0  0  0  0  0  0
  -63.0598   38.7697  -28.9516 C   0  0  0  0  0  0  0  0  0  0  0  0
  -62.9710   36.6653  -30.7039 C   0  0  0  0  0  0  0  0  0  0  0  0
  -62.8414   37.9679  -31.1571 C   0  0  0  0  0  0  0  0  0  0  0  0
  -62.8846   39.0341  -30.2841 C   0  0  0  0  0  0  0  0  0  0  0  0
  1  4  2  0
  1  5  2  0
  6  1  1  0
  1  9  1  6
 20  2  2  0
 14  3  2  0
  7  6  1  0
  8  7  2  0
 10  7  1  0
 13  8  1  0
 10  9  1  0
 11 10  2  0
 12 11  1  0
 12 13  2  0
 14 12  1  0
 15 14  1  0
 15 16  1  0
 18 15  1  0
 16 17  1  0
 17 24  1  0
 19 18  1  0
 19 20  1  0
 19 24  2  0
 20 21  1  0
 21 22  2  0
 22 23  1  0
 22 25  1  0
 23 24  1  0
 25 26  2  0
 25 28  1  0
 26 27  1  0
 27 30  2  0
 28 29  2  0
 29 30  1  0
M  END
$$$$
