
     RDKit          3D

 30 34  0  0  0  0  0  0  0  0999 V2000
  -64.2471   25.2516  -27.0769 S   0  0  1  0  0  6  0  0  0  0  0  0
  -63.6993   30.7447  -31.9408 O   0  0  0  0  0  0  0  0  0  0  0  0
  -62.5660   32.1356  -26.0984 O   0  0  0  0  0  0  0  0  0  0  0  0
  -63.8281   23.8500  -27.2359 O   0  0  0  0  0  0  0  0  0  0  0  0
  -65.7153   25.5001  -27.2429 O   0  0  0  0  0  0  0  0  0  0  0  0
  -63.6898   25.9567  -25.5770 N   0  0  0  0  0  0  0  0  0  0  0  0
  -63.3674   27.2994  -25.9032 C   0  0  0  0  0  0  0  0  0  0  0  0
  -63.2883   28.3488  -25.0072 C   0  0  0  0  0  0  0  0  0  0  0  0
  -63.2824   26.3690  -28.1165 C   0  0  0  0  0  0  0  0  0  0  0  0
  -63.1398   27.5426  -27.1994 C   0  0  0  0  0  0  0  0  0  0  0  0
  -62.8271   28.8498  -27.6151 C   0  0  0  0  0  0  0  0  0  0  0  0
  -62.7371   29.9247  -26.7733 C   0  0  0  0  0  0  0  0  0  0  0  0
  -62.9858   29.6215  -25.4173 C   0  0  0  0  0  0  0  0  0  0  0  0
  -62.4483   31.2866  -27.1390 C   0  0  0  0  0  0  0  0  0  0  0  0
  -62.0897   31.9402  -28.3039 N   0  0  0  0  0  0  0  0  0  0  0  0
  -61.2743   33.0939  -28.5006 C   0  0  0  0  0  0  0  0  0  0  0  0
  -62.1043   34.2367  -29.1052 C   0  0  0  0  0  0  0  0  0  0  0  0
  -62.5898   31.3251  -29.5513 C   0  0  0  0  0  0  0  0  0  0  0  0
  -62.9308   32.3609  -30.5308 C   0  0  0  0  0  0  0  0  0  0  0  0
  -63.4997   31.9720  -31.7625 C   0  0  0  0  0  0  0  0  0  0  0  0
  -63.7987   32.8983  -32.6668 N   0  0  0  0  0  0  0  0  0  0  0  0
  -63.5927   34.2320  -32.4943 C   0  0  0  0  0  0  0  0  0  0  0  0
  -63.0534   34.5854  -31.3211 N   0  0  0  0  0  0  0  0  0  0  0  0
  -62.7268   33.7096  -30.3657 C   0  0  0  0  0  0  0  0  0  0  0  0
  -63.9340   35.1541  -33.5811 C   0  0  0  0  0  0  0  0  0  0  0  0
  -63.5963   36.4938  -33.3994 C   0  0  0  0  0  0  0  0  0  0  0  0
  -63.8910   37.4517  -34.3370 C   0  0  0  0  0  0  0  0  0  0  0  0
  -64.5755   34.7921  -34.7304 C   0  0  0  0  0  0  0  0  0  0  0  0
  -64.8712   35.7734  -35.6767 C   0  0  0  0  0  0  0  0  0  0  0  0
  -64.5456   37.0974  -35.5086 C   0  0  0  0  0  0  0  0  0  0  0  0
  1  4  2  0
  1  5  2  0
  1  6  1  1
  9  1  1  0
 20  2  2  0
 14  3  2  0
  7  6  1  0
  8  7  2  0
 10  7  1  0
 13  8  1  0
  9 10  1  6
 11 10  2  0
 12 11  1  0
 12 13  2  0
 14 12  1  0
 15 14  1  0
 16 15  1  1
 18 15  1  1
 16 17  1  0
 17 24  1  6
 19 18  1  0
 19 20  1  0
 19 24  2  0
 20 21  1  0
 21 22  2  0
 22 23  1  0
 22 25  1  0
 23 24  1  0
 25 26  2  0
 25 28  1  0
 26 27  1  0
 27 30  2  0
 28 29  2  0
 29 30  1  0
M  END
$$$$
