
     RDKit          3D

 30 34  0  0  0  0  0  0  0  0999 V2000
  -66.1354   25.0664  -26.6668 S   0  0  1  0  0  6  0  0  0  0  0  0
  -61.3238   35.0292  -24.7345 O   0  0  0  0  0  0  0  0  0  0  0  0
  -61.7118   30.4719  -25.3423 O   0  0  0  0  0  0  0  0  0  0  0  0
  -67.0112   24.2904  -27.5591 O   0  0  0  0  0  0  0  0  0  0  0  0
  -66.1555   24.6440  -25.2295 O   0  0  0  0  0  0  0  0  0  0  0  0
  -64.4858   25.1450  -27.2412 N   0  0  0  0  0  0  0  0  0  0  0  0
  -64.0465   26.4529  -26.9102 C   0  0  0  0  0  0  0  0  0  0  0  0
  -62.7294   26.8505  -26.7779 C   0  0  0  0  0  0  0  0  0  0  0  0
  -66.4153   26.8435  -26.8206 C   0  0  0  0  0  0  0  0  0  0  0  0
  -65.0138   27.3536  -26.6999 C   0  0  0  0  0  0  0  0  0  0  0  0
  -64.6694   28.6727  -26.3528 C   0  0  0  0  0  0  0  0  0  0  0  0
  -63.3846   29.1200  -26.2066 C   0  0  0  0  0  0  0  0  0  0  0  0
  -62.3987   28.1364  -26.4369 C   0  0  0  0  0  0  0  0  0  0  0  0
  -62.9689   30.4452  -25.8286 C   0  0  0  0  0  0  0  0  0  0  0  0
  -63.5507   31.7000  -25.8319 N   0  0  0  0  0  0  0  0  0  0  0  0
  -64.8478   32.1140  -26.2568 C   0  0  0  0  0  0  0  0  0  0  0  0
  -64.7360   33.0821  -27.4445 C   0  0  0  0  0  0  0  0  0  0  0  0
  -62.7189   32.7819  -25.2644 C   0  0  0  0  0  0  0  0  0  0  0  0
  -62.9346   34.0315  -25.9997 C   0  0  0  0  0  0  0  0  0  0  0  0
  -62.1692   35.1656  -25.6536 C   0  0  0  0  0  0  0  0  0  0  0  0
  -62.3652   36.3097  -26.3000 N   0  0  0  0  0  0  0  0  0  0  0  0
  -63.2735   36.4794  -27.2986 C   0  0  0  0  0  0  0  0  0  0  0  0
  -63.9911   35.3948  -27.6162 N   0  0  0  0  0  0  0  0  0  0  0  0
  -63.8488   34.2125  -27.0093 C   0  0  0  0  0  0  0  0  0  0  0  0
  -63.4203   37.8015  -27.9137 C   0  0  0  0  0  0  0  0  0  0  0  0
  -64.4167   37.9400  -28.8780 C   0  0  0  0  0  0  0  0  0  0  0  0
  -64.6281   39.1232  -29.5405 C   0  0  0  0  0  0  0  0  0  0  0  0
  -62.6367   38.8811  -27.6241 C   0  0  0  0  0  0  0  0  0  0  0  0
  -62.8593   40.0789  -28.3036 C   0  0  0  0  0  0  0  0  0  0  0  0
  -63.8365   40.2277  -29.2575 C   0  0  0  0  0  0  0  0  0  0  0  0
  1  4  2  0
  1  5  2  0
  1  6  1  6
  9  1  1  0
 20  2  2  0
 14  3  2  0
  7  6  1  0
  8  7  2  0
 10  7  1  0
 13  8  1  0
  9 10  1  6
 11 10  2  0
 12 11  1  0
 12 13  2  0
 14 12  1  0
 15 14  1  0
 16 15  1  1
 18 15  1  1
 16 17  1  0
 17 24  1  6
 19 18  1  0
 19 20  1  0
 19 24  2  0
 20 21  1  0
 21 22  2  0
 22 23  1  0
 22 25  1  0
 23 24  1  0
 25 26  2  0
 25 28  1  0
 26 27  1  0
 27 30  2  0
 28 29  2  0
 29 30  1  0
M  END
$$$$
