
     RDKit          3D

 30 34  0  0  0  0  0  0  0  0999 V2000
  -69.0836   30.6860  -22.4225 S   0  0  1  0  0  6  0  0  0  0  0  0
  -61.4514   31.8677  -30.4291 O   0  0  0  0  0  0  0  0  0  0  0  0
  -63.3272   29.9711  -26.3369 O   0  0  0  0  0  0  0  0  0  0  0  0
  -70.3946   31.2466  -22.0585 O   0  0  0  0  0  0  0  0  0  0  0  0
  -68.4103   29.8903  -21.3463 O   0  0  0  0  0  0  0  0  0  0  0  0
  -69.1335   29.7599  -23.9048 N   0  0  0  0  0  0  0  0  0  0  0  0
  -67.9008   30.0380  -24.5499 C   0  0  0  0  0  0  0  0  0  0  0  0
  -67.3001   29.2492  -25.5129 C   0  0  0  0  0  0  0  0  0  0  0  0
  -67.9707   31.9427  -23.0873 C   0  0  0  0  0  0  0  0  0  0  0  0
  -67.2831   31.1599  -24.1613 C   0  0  0  0  0  0  0  0  0  0  0  0
  -66.0479   31.5068  -24.7383 C   0  0  0  0  0  0  0  0  0  0  0  0
  -65.4079   30.7637  -25.6925 C   0  0  0  0  0  0  0  0  0  0  0  0
  -66.0949   29.5900  -26.0704 C   0  0  0  0  0  0  0  0  0  0  0  0
  -64.1350   31.0498  -26.3005 C   0  0  0  0  0  0  0  0  0  0  0  0
  -63.5323   32.1680  -26.8476 N   0  0  0  0  0  0  0  0  0  0  0  0
  -63.5640   33.5310  -26.4285 C   0  0  0  0  0  0  0  0  0  0  0  0
  -64.2386   34.4024  -27.4989 C   0  0  0  0  0  0  0  0  0  0  0  0
  -62.6814   31.9111  -28.0286 C   0  0  0  0  0  0  0  0  0  0  0  0
  -62.7874   33.0168  -28.9850 C   0  0  0  0  0  0  0  0  0  0  0  0
  -62.1044   32.9196  -30.2162 C   0  0  0  0  0  0  0  0  0  0  0  0
  -62.1776   33.9210  -31.0862 N   0  0  0  0  0  0  0  0  0  0  0  0
  -62.8795   35.0676  -30.8771 C   0  0  0  0  0  0  0  0  0  0  0  0
  -63.5226   35.1448  -29.7056 N   0  0  0  0  0  0  0  0  0  0  0  0
  -63.4936   34.1780  -28.7831 C   0  0  0  0  0  0  0  0  0  0  0  0
  -62.8565   36.1160  -31.9009 C   0  0  0  0  0  0  0  0  0  0  0  0
  -63.6604   37.2321  -31.6771 C   0  0  0  0  0  0  0  0  0  0  0  0
  -63.7403   38.2634  -32.5791 C   0  0  0  0  0  0  0  0  0  0  0  0
  -62.1283   36.0560  -33.0540 C   0  0  0  0  0  0  0  0  0  0  0  0
  -62.2172   37.1090  -33.9645 C   0  0  0  0  0  0  0  0  0  0  0  0
  -63.0073   38.2134  -33.7567 C   0  0  0  0  0  0  0  0  0  0  0  0
  1  4  2  0
  1  5  2  0
  1  6  1  6
  9  1  1  0
 20  2  2  0
 14  3  2  0
  7  6  1  0
  8  7  2  0
 10  7  1  0
 13  8  1  0
  9 10  1  6
 11 10  2  0
 12 11  1  0
 12 13  2  0
 14 12  1  0
 15 14  1  0
 16 15  1  1
 18 15  1  1
 16 17  1  0
 17 24  1  6
 19 18  1  0
 19 20  1  0
 19 24  2  0
 20 21  1  0
 21 22  2  0
 22 23  1  0
 22 25  1  0
 23 24  1  0
 25 26  2  0
 25 28  1  0
 26 27  1  0
 27 30  2  0
 28 29  2  0
 29 30  1  0
M  END
$$$$
