
     RDKit          3D

 30 34  0  0  0  0  0  0  0  0999 V2000
  -68.0846   31.6088  -22.7012 S   0  0  1  0  0  6  0  0  0  0  0  0
  -64.6614   31.0695  -31.4211 O   0  0  0  0  0  0  0  0  0  0  0  0
  -62.4485   29.5620  -26.1361 O   0  0  0  0  0  0  0  0  0  0  0  0
  -69.3297   32.3598  -22.4752 O   0  0  0  0  0  0  0  0  0  0  0  0
  -67.4214   31.0878  -21.4629 O   0  0  0  0  0  0  0  0  0  0  0  0
  -68.2777   30.3156  -23.8621 N   0  0  0  0  0  0  0  0  0  0  0  0
  -67.0607   30.2958  -24.5913 C   0  0  0  0  0  0  0  0  0  0  0  0
  -66.5698   29.2217  -25.3094 C   0  0  0  0  0  0  0  0  0  0  0  0
  -66.9136   32.5302  -23.7208 C   0  0  0  0  0  0  0  0  0  0  0  0
  -66.3412   31.4236  -24.5495 C   0  0  0  0  0  0  0  0  0  0  0  0
  -65.1131   31.4882  -25.2327 C   0  0  0  0  0  0  0  0  0  0  0  0
  -64.5792   30.4570  -25.9563 C   0  0  0  0  0  0  0  0  0  0  0  0
  -65.3712   29.2886  -25.9714 C   0  0  0  0  0  0  0  0  0  0  0  0
  -63.3197   30.4516  -26.6531 C   0  0  0  0  0  0  0  0  0  0  0  0
  -62.7797   31.1469  -27.7197 N   0  0  0  0  0  0  0  0  0  0  0  0
  -61.6576   32.0257  -27.7746 C   0  0  0  0  0  0  0  0  0  0  0  0
  -62.1086   33.4428  -28.1608 C   0  0  0  0  0  0  0  0  0  0  0  0
  -63.4365   30.9118  -29.0228 C   0  0  0  0  0  0  0  0  0  0  0  0
  -63.4513   32.1436  -29.8172 C   0  0  0  0  0  0  0  0  0  0  0  0
  -64.1065   32.1395  -31.0672 C   0  0  0  0  0  0  0  0  0  0  0  0
  -64.1140   33.2438  -31.8059 N   0  0  0  0  0  0  0  0  0  0  0  0
  -63.5214   34.4130  -31.4418 C   0  0  0  0  0  0  0  0  0  0  0  0
  -62.9048   34.4016  -30.2535 N   0  0  0  0  0  0  0  0  0  0  0  0
  -62.8561   33.3287  -29.4580 C   0  0  0  0  0  0  0  0  0  0  0  0
  -63.5700   35.5547  -32.3594 C   0  0  0  0  0  0  0  0  0  0  0  0
  -63.0504   36.7604  -31.8922 C   0  0  0  0  0  0  0  0  0  0  0  0
  -63.0669   37.9027  -32.6527 C   0  0  0  0  0  0  0  0  0  0  0  0
  -64.1080   35.5173  -33.6134 C   0  0  0  0  0  0  0  0  0  0  0  0
  -64.1205   36.6840  -34.3780 C   0  0  0  0  0  0  0  0  0  0  0  0
  -63.6136   37.8790  -33.9283 C   0  0  0  0  0  0  0  0  0  0  0  0
  1  4  2  0
  1  5  2  0
  1  6  1  6
  9  1  1  0
 20  2  2  0
 14  3  2  0
  7  6  1  0
  8  7  2  0
 10  7  1  0
 13  8  1  0
  9 10  1  6
 11 10  2  0
 12 11  1  0
 12 13  2  0
 14 12  1  0
 15 14  1  0
 16 15  1  1
 18 15  1  1
 16 17  1  0
 17 24  1  6
 19 18  1  0
 19 20  1  0
 19 24  2  0
 20 21  1  0
 21 22  2  0
 22 23  1  0
 22 25  1  0
 23 24  1  0
 25 26  2  0
 25 28  1  0
 26 27  1  0
 27 30  2  0
 28 29  2  0
 29 30  1  0
M  END
$$$$
