
     RDKit          3D

 30 34  0  0  0  0  0  0  0  0999 V2000
  -63.1613   25.1288  -27.7516 S   0  0  1  0  0  6  0  0  0  0  0  0
  -64.9123   30.6273  -24.8302 O   0  0  0  0  0  0  0  0  0  0  0  0
  -60.8471   31.5337  -29.6132 O   0  0  0  0  0  0  0  0  0  0  0  0
  -64.2455   24.1802  -27.3974 O   0  0  0  0  0  0  0  0  0  0  0  0
  -61.7872   24.6514  -27.4470 O   0  0  0  0  0  0  0  0  0  0  0  0
  -63.2705   25.6475  -29.4195 N   0  0  0  0  0  0  0  0  0  0  0  0
  -62.8962   27.0205  -29.3665 C   0  0  0  0  0  0  0  0  0  0  0  0
  -62.4698   27.7587  -30.4864 C   0  0  0  0  0  0  0  0  0  0  0  0
  -63.4263   26.7600  -27.0409 C   0  0  0  0  0  0  0  0  0  0  0  0
  -62.9677   27.6106  -28.1707 C   0  0  0  0  0  0  0  0  0  0  0  0
  -62.6103   28.9704  -28.0582 C   0  0  0  0  0  0  0  0  0  0  0  0
  -62.1918   29.6968  -29.1498 C   0  0  0  0  0  0  0  0  0  0  0  0
  -62.1164   29.1024  -30.3736 C   0  0  0  0  0  0  0  0  0  0  0  0
  -61.8424   31.0820  -28.9456 C   0  0  0  0  0  0  0  0  0  0  0  0
  -62.5752   31.8900  -28.0435 N   0  0  0  0  0  0  0  0  0  0  0  0
  -62.2484   33.2837  -27.9841 C   0  0  0  0  0  0  0  0  0  0  0  0
  -63.5041   34.0896  -27.7626 C   0  0  0  0  0  0  0  0  0  0  0  0
  -63.5916   31.3001  -27.2316 C   0  0  0  0  0  0  0  0  0  0  0  0
  -64.2040   32.2583  -26.2788 C   0  0  0  0  0  0  0  0  0  0  0  0
  -64.8419   31.8592  -25.1075 C   0  0  0  0  0  0  0  0  0  0  0  0
  -65.3852   32.7450  -24.2630 N   0  0  0  0  0  0  0  0  0  0  0  0
  -65.3215   34.0654  -24.5409 C   0  0  0  0  0  0  0  0  0  0  0  0
  -64.7067   34.4578  -25.6704 N   0  0  0  0  0  0  0  0  0  0  0  0
  -64.1536   33.6042  -26.5365 C   0  0  0  0  0  0  0  0  0  0  0  0
  -65.8915   35.0479  -23.6397 C   0  0  0  0  0  0  0  0  0  0  0  0
  -65.8080   36.3952  -23.8092 C   0  0  0  0  0  0  0  0  0  0  0  0
  -66.3981   37.2900  -22.9001 C   0  0  0  0  0  0  0  0  0  0  0  0
  -66.5931   34.5841  -22.5164 C   0  0  0  0  0  0  0  0  0  0  0  0
  -67.1742   35.4681  -21.6221 C   0  0  0  0  0  0  0  0  0  0  0  0
  -67.0821   36.8314  -21.8056 C   0  0  0  0  0  0  0  0  0  0  0  0
  1  4  2  0
  1  5  2  0
  6  1  1  0
  1  9  1  1
 20  2  2  0
 14  3  2  0
  7  6  1  0
  8  7  2  0
 10  7  1  0
 13  8  1  0
 10  9  1  0
 11 10  2  0
 12 11  1  0
 12 13  2  0
 14 12  1  0
 15 14  1  0
 15 16  1  0
 18 15  1  0
 16 17  1  0
 17 24  1  0
 19 18  1  0
 19 20  1  0
 19 24  2  0
 20 21  1  0
 21 22  2  0
 22 23  1  0
 22 25  1  0
 23 24  1  0
 25 26  2  0
 25 28  1  0
 26 27  1  0
 27 30  2  0
 28 29  2  0
 29 30  1  0
M  END
$$$$
