
     RDKit          3D

 30 34  0  0  0  0  0  0  0  0999 V2000
  -64.3271   34.7455  -33.8876 S   0  0  1  0  0  6  0  0  0  0  0  0
  -63.8600   28.9764  -24.8287 O   0  0  0  0  0  0  0  0  0  0  0  0
  -61.4584   30.0541  -29.3752 O   0  0  0  0  0  0  0  0  0  0  0  0
  -63.8741   35.7449  -34.8859 O   0  0  0  0  0  0  0  0  0  0  0  0
  -65.7641   34.8348  -33.5194 O   0  0  0  0  0  0  0  0  0  0  0  0
  -63.9224   33.1132  -34.3720 N   0  0  0  0  0  0  0  0  0  0  0  0
  -63.5610   32.4823  -33.1475 C   0  0  0  0  0  0  0  0  0  0  0  0
  -63.5266   31.0868  -32.9672 C   0  0  0  0  0  0  0  0  0  0  0  0
  -63.3032   34.7504  -32.4084 C   0  0  0  0  0  0  0  0  0  0  0  0
  -63.2402   33.2906  -32.1342 C   0  0  0  0  0  0  0  0  0  0  0  0
  -62.8725   32.7212  -30.8972 C   0  0  0  0  0  0  0  0  0  0  0  0
  -62.8382   31.3574  -30.7149 C   0  0  0  0  0  0  0  0  0  0  0  0
  -63.1636   30.5257  -31.7439 C   0  0  0  0  0  0  0  0  0  0  0  0
  -62.4537   30.8591  -29.4162 C   0  0  0  0  0  0  0  0  0  0  0  0
  -63.1565   31.2504  -28.2515 N   0  0  0  0  0  0  0  0  0  0  0  0
  -63.3756   32.6514  -28.0473 C   0  0  0  0  0  0  0  0  0  0  0  0
  -64.7282   32.8659  -27.4148 C   0  0  0  0  0  0  0  0  0  0  0  0
  -63.6089   30.2561  -27.3314 C   0  0  0  0  0  0  0  0  0  0  0  0
  -64.2479   30.8305  -26.1219 C   0  0  0  0  0  0  0  0  0  0  0  0
  -64.3381   30.1441  -24.9140 C   0  0  0  0  0  0  0  0  0  0  0  0
  -64.9185   30.6864  -23.8360 N   0  0  0  0  0  0  0  0  0  0  0  0
  -65.4359   31.9322  -23.9062 C   0  0  0  0  0  0  0  0  0  0  0  0
  -65.3521   32.6008  -25.0696 N   0  0  0  0  0  0  0  0  0  0  0  0
  -64.7810   32.0931  -26.1654 C   0  0  0  0  0  0  0  0  0  0  0  0
  -66.0608   32.5489  -22.7522 C   0  0  0  0  0  0  0  0  0  0  0  0
  -66.7578   33.7169  -22.7802 C   0  0  0  0  0  0  0  0  0  0  0  0
  -67.3497   34.2495  -21.6220 C   0  0  0  0  0  0  0  0  0  0  0  0
  -65.9552   31.8934  -21.5159 C   0  0  0  0  0  0  0  0  0  0  0  0
  -66.5398   32.4202  -20.3759 C   0  0  0  0  0  0  0  0  0  0  0  0
  -67.2436   33.6049  -20.4181 C   0  0  0  0  0  0  0  0  0  0  0  0
  1  4  2  0
  1  5  2  0
  6  1  1  0
  1  9  1  1
 20  2  2  0
 14  3  2  0
  7  6  1  0
  8  7  2  0
 10  7  1  0
 13  8  1  0
 10  9  1  0
 11 10  2  0
 12 11  1  0
 12 13  2  0
 14 12  1  0
 15 14  1  0
 15 16  1  0
 18 15  1  0
 16 17  1  0
 17 24  1  0
 19 18  1  0
 19 20  1  0
 19 24  2  0
 20 21  1  0
 21 22  2  0
 22 23  1  0
 22 25  1  0
 23 24  1  0
 25 26  2  0
 25 28  1  0
 26 27  1  0
 27 30  2  0
 28 29  2  0
 29 30  1  0
M  END
$$$$
