
     RDKit          3D

 30 34  0  0  0  0  0  0  0  0999 V2000
  -70.1135   29.1685  -24.0628 S   0  0  1  0  0  6  0  0  0  0  0  0
  -61.0179   34.5700  -27.7019 O   0  0  0  0  0  0  0  0  0  0  0  0
  -63.5799   32.0840  -24.7316 O   0  0  0  0  0  0  0  0  0  0  0  0
  -70.7944   27.9368  -23.6332 O   0  0  0  0  0  0  0  0  0  0  0  0
  -70.9960   30.1910  -24.7111 O   0  0  0  0  0  0  0  0  0  0  0  0
  -69.1864   29.9102  -22.7791 N   0  0  0  0  0  0  0  0  0  0  0  0
  -68.0271   30.4231  -23.4163 C   0  0  0  0  0  0  0  0  0  0  0  0
  -67.2171   31.4296  -22.9251 C   0  0  0  0  0  0  0  0  0  0  0  0
  -68.6683   28.8211  -25.0879 C   0  0  0  0  0  0  0  0  0  0  0  0
  -67.7257   29.8757  -24.5997 C   0  0  0  0  0  0  0  0  0  0  0  0
  -66.6003   30.3335  -25.3090 C   0  0  0  0  0  0  0  0  0  0  0  0
  -65.7660   31.3260  -24.8719 C   0  0  0  0  0  0  0  0  0  0  0  0
  -66.1229   31.8743  -23.6211 C   0  0  0  0  0  0  0  0  0  0  0  0
  -64.6183   31.8557  -25.5605 C   0  0  0  0  0  0  0  0  0  0  0  0
  -64.3242   32.1994  -26.8675 N   0  0  0  0  0  0  0  0  0  0  0  0
  -64.9380   31.7920  -28.0888 C   0  0  0  0  0  0  0  0  0  0  0  0
  -63.9381   31.0080  -28.9526 C   0  0  0  0  0  0  0  0  0  0  0  0
  -63.2301   33.1797  -27.0304 C   0  0  0  0  0  0  0  0  0  0  0  0
  -62.4465   32.8760  -28.2314 C   0  0  0  0  0  0  0  0  0  0  0  0
  -61.3069   33.6583  -28.5164 C   0  0  0  0  0  0  0  0  0  0  0  0
  -60.5963   33.4056  -29.6102 N   0  0  0  0  0  0  0  0  0  0  0  0
  -60.8899   32.4231  -30.5044 C   0  0  0  0  0  0  0  0  0  0  0  0
  -61.9728   31.6892  -30.2201 N   0  0  0  0  0  0  0  0  0  0  0  0
  -62.7348   31.8864  -29.1399 C   0  0  0  0  0  0  0  0  0  0  0  0
  -60.0473   32.2637  -31.6928 C   0  0  0  0  0  0  0  0  0  0  0  0
  -60.5289   31.4278  -32.6984 C   0  0  0  0  0  0  0  0  0  0  0  0
  -59.8142   31.1817  -33.8439 C   0  0  0  0  0  0  0  0  0  0  0  0
  -58.8276   32.8530  -31.8615 C   0  0  0  0  0  0  0  0  0  0  0  0
  -58.1088   32.5957  -33.0289 C   0  0  0  0  0  0  0  0  0  0  0  0
  -58.5715   31.7723  -34.0265 C   0  0  0  0  0  0  0  0  0  0  0  0
  1  4  2  0
  1  5  2  0
  1  6  1  1
  9  1  1  0
 20  2  2  0
 14  3  2  0
  7  6  1  0
  8  7  2  0
 10  7  1  0
 13  8  1  0
  9 10  1  6
 11 10  2  0
 12 11  1  0
 12 13  2  0
 14 12  1  0
 15 14  1  0
 16 15  1  1
 18 15  1  1
 16 17  1  0
 17 24  1  6
 19 18  1  0
 19 20  1  0
 19 24  2  0
 20 21  1  0
 21 22  2  0
 22 23  1  0
 22 25  1  0
 23 24  1  0
 25 26  2  0
 25 28  1  0
 26 27  1  0
 27 30  2  0
 28 29  2  0
 29 30  1  0
M  END
$$$$
