
     RDKit          3D

 30 34  0  0  0  0  0  0  0  0999 V2000
  -64.0293   38.0036  -29.1659 S   0  0  1  0  0  6  0  0  0  0  0  0
  -61.1910   28.4109  -25.0715 O   0  0  0  0  0  0  0  0  0  0  0  0
  -61.4105   33.5304  -24.5100 O   0  0  0  0  0  0  0  0  0  0  0  0
  -65.0348   38.4423  -30.1645 O   0  0  0  0  0  0  0  0  0  0  0  0
  -62.7190   38.7000  -29.2489 O   0  0  0  0  0  0  0  0  0  0  0  0
  -64.6575   38.0795  -27.5342 N   0  0  0  0  0  0  0  0  0  0  0  0
  -64.1009   36.9273  -26.9091 C   0  0  0  0  0  0  0  0  0  0  0  0
  -64.0072   36.7626  -25.5144 C   0  0  0  0  0  0  0  0  0  0  0  0
  -63.7897   36.2207  -29.1809 C   0  0  0  0  0  0  0  0  0  0  0  0
  -63.6541   35.9670  -27.7223 C   0  0  0  0  0  0  0  0  0  0  0  0
  -63.0936   34.8017  -27.1589 C   0  0  0  0  0  0  0  0  0  0  0  0
  -62.9985   34.6358  -25.7959 C   0  0  0  0  0  0  0  0  0  0  0  0
  -63.4525   35.6107  -24.9591 C   0  0  0  0  0  0  0  0  0  0  0  0
  -62.4088   33.4140  -25.3037 C   0  0  0  0  0  0  0  0  0  0  0  0
  -62.9212   32.1530  -25.6922 N   0  0  0  0  0  0  0  0  0  0  0  0
  -64.3104   32.0773  -26.0344 C   0  0  0  0  0  0  0  0  0  0  0  0
  -64.5009   31.0990  -27.1666 C   0  0  0  0  0  0  0  0  0  0  0  0
  -62.0557   31.0172  -25.7225 C   0  0  0  0  0  0  0  0  0  0  0  0
  -62.7612   29.7572  -26.0628 C   0  0  0  0  0  0  0  0  0  0  0  0
  -62.2792   28.4997  -25.7098 C   0  0  0  0  0  0  0  0  0  0  0  0
  -62.9368   27.3774  -26.0277 N   0  0  0  0  0  0  0  0  0  0  0  0
  -64.1005   27.4501  -26.7096 C   0  0  0  0  0  0  0  0  0  0  0  0
  -64.5718   28.6614  -27.0536 N   0  0  0  0  0  0  0  0  0  0  0  0
  -63.9443   29.8023  -26.7544 C   0  0  0  0  0  0  0  0  0  0  0  0
  -64.8395   26.2523  -27.0582 C   0  0  0  0  0  0  0  0  0  0  0  0
  -64.3249   24.9930  -27.0448 C   0  0  0  0  0  0  0  0  0  0  0  0
  -65.1060   23.8744  -27.3823 C   0  0  0  0  0  0  0  0  0  0  0  0
  -66.1871   26.3917  -27.4238 C   0  0  0  0  0  0  0  0  0  0  0  0
  -66.9550   25.2875  -27.7557 C   0  0  0  0  0  0  0  0  0  0  0  0
  -66.4210   24.0165  -27.7380 C   0  0  0  0  0  0  0  0  0  0  0  0
  1  4  2  0
  1  5  2  0
  6  1  1  0
  1  9  1  6
 20  2  2  0
 14  3  2  0
  7  6  1  0
  8  7  2  0
 10  7  1  0
 13  8  1  0
 10  9  1  0
 11 10  2  0
 12 11  1  0
 12 13  2  0
 14 12  1  0
 15 14  1  0
 15 16  1  0
 18 15  1  0
 16 17  1  0
 17 24  1  0
 19 18  1  0
 19 20  1  0
 19 24  2  0
 20 21  1  0
 21 22  2  0
 22 23  1  0
 22 25  1  0
 23 24  1  0
 25 26  2  0
 25 28  1  0
 26 27  1  0
 27 30  2  0
 28 29  2  0
 29 30  1  0
M  END
$$$$
