
     RDKit          3D

 30 34  0  0  0  0  0  0  0  0999 V2000
  -67.6833   35.9986  -21.1729 S   0  0  1  0  0  6  0  0  0  0  0  0
  -62.7161   28.9101  -27.8009 O   0  0  0  0  0  0  0  0  0  0  0  0
  -62.9936   31.2752  -22.9330 O   0  0  0  0  0  0  0  0  0  0  0  0
  -68.6789   37.0594  -21.4630 O   0  0  0  0  0  0  0  0  0  0  0  0
  -67.0908   36.0510  -19.8110 O   0  0  0  0  0  0  0  0  0  0  0  0
  -68.3212   34.4017  -21.4989 N   0  0  0  0  0  0  0  0  0  0  0  0
  -67.2077   33.7040  -22.0481 C   0  0  0  0  0  0  0  0  0  0  0  0
  -67.1182   32.3009  -22.1120 C   0  0  0  0  0  0  0  0  0  0  0  0
  -66.3843   35.9276  -22.4155 C   0  0  0  0  0  0  0  0  0  0  0  0
  -66.2106   34.4550  -22.5224 C   0  0  0  0  0  0  0  0  0  0  0  0
  -65.0821   33.8181  -23.0797 C   0  0  0  0  0  0  0  0  0  0  0  0
  -64.9888   32.4465  -23.1439 C   0  0  0  0  0  0  0  0  0  0  0  0
  -66.0021   31.6729  -22.6626 C   0  0  0  0  0  0  0  0  0  0  0  0
  -63.7980   31.8771  -23.7273 C   0  0  0  0  0  0  0  0  0  0  0  0
  -63.5448   31.9895  -25.1154 N   0  0  0  0  0  0  0  0  0  0  0  0
  -63.9248   33.2097  -25.7632 C   0  0  0  0  0  0  0  0  0  0  0  0
  -62.9123   33.5557  -26.8263 C   0  0  0  0  0  0  0  0  0  0  0  0
  -62.9376   30.9015  -25.8137 C   0  0  0  0  0  0  0  0  0  0  0  0
  -62.8211   31.1397  -27.2734 C   0  0  0  0  0  0  0  0  0  0  0  0
  -62.7157   30.1091  -28.2034 C   0  0  0  0  0  0  0  0  0  0  0  0
  -62.6136   30.3513  -29.5164 N   0  0  0  0  0  0  0  0  0  0  0  0
  -62.6107   31.6247  -29.9669 C   0  0  0  0  0  0  0  0  0  0  0  0
  -62.7123   32.6249  -29.0743 N   0  0  0  0  0  0  0  0  0  0  0  0
  -62.8157   32.4225  -27.7577 C   0  0  0  0  0  0  0  0  0  0  0  0
  -62.5121   31.9167  -31.3838 C   0  0  0  0  0  0  0  0  0  0  0  0
  -61.9637   31.0847  -32.3100 C   0  0  0  0  0  0  0  0  0  0  0  0
  -61.9146   31.4286  -33.6719 C   0  0  0  0  0  0  0  0  0  0  0  0
  -63.0293   33.1376  -31.8432 C   0  0  0  0  0  0  0  0  0  0  0  0
  -62.9800   33.4741  -33.1860 C   0  0  0  0  0  0  0  0  0  0  0  0
  -62.4214   32.6217  -34.1145 C   0  0  0  0  0  0  0  0  0  0  0  0
  1  4  2  0
  1  5  2  0
  6  1  1  0
  1  9  1  6
 20  2  2  0
 14  3  2  0
  7  6  1  0
  8  7  2  0
 10  7  1  0
 13  8  1  0
 10  9  1  0
 11 10  2  0
 12 11  1  0
 12 13  2  0
 14 12  1  0
 15 14  1  0
 15 16  1  0
 18 15  1  0
 16 17  1  0
 17 24  1  0
 19 18  1  0
 19 20  1  0
 19 24  2  0
 20 21  1  0
 21 22  2  0
 22 23  1  0
 22 25  1  0
 23 24  1  0
 25 26  2  0
 25 28  1  0
 26 27  1  0
 27 30  2  0
 28 29  2  0
 29 30  1  0
M  END
$$$$
