
     RDKit          3D

 30 34  0  0  0  0  0  0  0  0999 V2000
  -68.2356   30.6893  -22.7181 S   0  0  1  0  0  6  0  0  0  0  0  0
  -63.3274   29.4663  -27.6308 O   0  0  0  0  0  0  0  0  0  0  0  0
  -63.5969   35.3548  -25.5289 O   0  0  0  0  0  0  0  0  0  0  0  0
  -68.5293   29.6026  -21.7705 O   0  0  0  0  0  0  0  0  0  0  0  0
  -69.3549   31.0419  -23.6495 O   0  0  0  0  0  0  0  0  0  0  0  0
  -67.6418   32.1317  -21.9281 N   0  0  0  0  0  0  0  0  0  0  0  0
  -66.6641   32.6556  -22.8128 C   0  0  0  0  0  0  0  0  0  0  0  0
  -66.2238   33.9655  -22.8417 C   0  0  0  0  0  0  0  0  0  0  0  0
  -66.7053   30.3971  -23.6306 C   0  0  0  0  0  0  0  0  0  0  0  0
  -66.1532   31.7864  -23.6929 C   0  0  0  0  0  0  0  0  0  0  0  0
  -65.1875   32.2231  -24.6181 C   0  0  0  0  0  0  0  0  0  0  0  0
  -64.7172   33.5058  -24.6926 C   0  0  0  0  0  0  0  0  0  0  0  0
  -65.2844   34.3870  -23.7469 C   0  0  0  0  0  0  0  0  0  0  0  0
  -63.7532   34.0195  -25.6300 C   0  0  0  0  0  0  0  0  0  0  0  0
  -62.9542   33.4771  -26.6200 N   0  0  0  0  0  0  0  0  0  0  0  0
  -62.0115   34.1013  -27.4896 C   0  0  0  0  0  0  0  0  0  0  0  0
  -62.4669   33.9713  -28.9511 C   0  0  0  0  0  0  0  0  0  0  0  0
  -63.0538   32.0109  -26.7776 C   0  0  0  0  0  0  0  0  0  0  0  0
  -62.9344   31.6395  -28.1906 C   0  0  0  0  0  0  0  0  0  0  0  0
  -63.0814   30.2834  -28.5527 C   0  0  0  0  0  0  0  0  0  0  0  0
  -62.9592   29.9294  -29.8274 N   0  0  0  0  0  0  0  0  0  0  0  0
  -62.6948   30.7970  -30.8415 C   0  0  0  0  0  0  0  0  0  0  0  0
  -62.5588   32.0795  -30.4826 N   0  0  0  0  0  0  0  0  0  0  0  0
  -62.6678   32.5081  -29.2213 C   0  0  0  0  0  0  0  0  0  0  0  0
  -62.5499   30.2795  -32.2049 C   0  0  0  0  0  0  0  0  0  0  0  0
  -63.1837   29.0717  -32.4905 C   0  0  0  0  0  0  0  0  0  0  0  0
  -63.0950   28.4779  -33.7246 C   0  0  0  0  0  0  0  0  0  0  0  0
  -61.8225   30.8843  -33.1891 C   0  0  0  0  0  0  0  0  0  0  0  0
  -61.7380   30.2722  -34.4396 C   0  0  0  0  0  0  0  0  0  0  0  0
  -62.3562   29.0809  -34.7331 C   0  0  0  0  0  0  0  0  0  0  0  0
  1  4  2  0
  1  5  2  0
  1  6  1  1
  9  1  1  0
 20  2  2  0
 14  3  2  0
  7  6  1  0
  8  7  2  0
 10  7  1  0
 13  8  1  0
  9 10  1  6
 11 10  2  0
 12 11  1  0
 12 13  2  0
 14 12  1  0
 15 14  1  0
 16 15  1  1
 18 15  1  1
 16 17  1  0
 17 24  1  6
 19 18  1  0
 19 20  1  0
 19 24  2  0
 20 21  1  0
 21 22  2  0
 22 23  1  0
 22 25  1  0
 23 24  1  0
 25 26  2  0
 25 28  1  0
 26 27  1  0
 27 30  2  0
 28 29  2  0
 29 30  1  0
M  END
$$$$
