
     RDKit          3D

 30 34  0  0  0  0  0  0  0  0999 V2000
  -65.6801   27.5594  -24.0714 S   0  0  1  0  0  6  0  0  0  0  0  0
  -62.1591   32.8247  -32.9136 O   0  0  0  0  0  0  0  0  0  0  0  0
  -61.7440   28.9489  -29.8295 O   0  0  0  0  0  0  0  0  0  0  0  0
  -66.9317   27.6409  -23.3018 O   0  0  0  0  0  0  0  0  0  0  0  0
  -64.5211   26.9539  -23.3400 O   0  0  0  0  0  0  0  0  0  0  0  0
  -65.8881   26.7680  -25.6166 N   0  0  0  0  0  0  0  0  0  0  0  0
  -65.0340   27.4717  -26.5044 C   0  0  0  0  0  0  0  0  0  0  0  0
  -64.5377   26.9853  -27.6992 C   0  0  0  0  0  0  0  0  0  0  0  0
  -65.2257   29.1496  -24.7957 C   0  0  0  0  0  0  0  0  0  0  0  0
  -64.6845   28.7044  -26.1178 C   0  0  0  0  0  0  0  0  0  0  0  0
  -63.8282   29.4694  -26.9306 C   0  0  0  0  0  0  0  0  0  0  0  0
  -63.3069   29.0383  -28.1199 C   0  0  0  0  0  0  0  0  0  0  0  0
  -63.7014   27.7335  -28.4867 C   0  0  0  0  0  0  0  0  0  0  0  0
  -62.4076   29.7601  -28.9814 C   0  0  0  0  0  0  0  0  0  0  0  0
  -62.0487   31.0859  -29.1438 N   0  0  0  0  0  0  0  0  0  0  0  0
  -61.7030   32.0732  -28.1743 C   0  0  0  0  0  0  0  0  0  0  0  0
  -62.7269   33.2186  -28.1912 C   0  0  0  0  0  0  0  0  0  0  0  0
  -61.9633   31.5486  -30.5450 C   0  0  0  0  0  0  0  0  0  0  0  0
  -62.4185   32.9377  -30.6530 C   0  0  0  0  0  0  0  0  0  0  0  0
  -62.4832   33.5354  -31.9298 C   0  0  0  0  0  0  0  0  0  0  0  0
  -62.8780   34.7990  -32.0418 N   0  0  0  0  0  0  0  0  0  0  0  0
  -63.2348   35.5861  -30.9910 C   0  0  0  0  0  0  0  0  0  0  0  0
  -63.1691   35.0051  -29.7867 N   0  0  0  0  0  0  0  0  0  0  0  0
  -62.7808   33.7402  -29.5981 C   0  0  0  0  0  0  0  0  0  0  0  0
  -63.6216   36.9776  -31.2396 C   0  0  0  0  0  0  0  0  0  0  0  0
  -63.7891   37.3563  -32.5702 C   0  0  0  0  0  0  0  0  0  0  0  0
  -64.1234   38.6394  -32.9246 C   0  0  0  0  0  0  0  0  0  0  0  0
  -63.7994   37.9174  -30.2655 C   0  0  0  0  0  0  0  0  0  0  0  0
  -64.1384   39.2186  -30.6363 C   0  0  0  0  0  0  0  0  0  0  0  0
  -64.3043   39.6050  -31.9441 C   0  0  0  0  0  0  0  0  0  0  0  0
  1  4  2  0
  1  5  2  0
  1  6  1  6
  9  1  1  0
 20  2  2  0
 14  3  2  0
  7  6  1  0
  8  7  2  0
 10  7  1  0
 13  8  1  0
  9 10  1  6
 11 10  2  0
 12 11  1  0
 12 13  2  0
 14 12  1  0
 15 14  1  0
 16 15  1  1
 18 15  1  1
 16 17  1  0
 17 24  1  6
 19 18  1  0
 19 20  1  0
 19 24  2  0
 20 21  1  0
 21 22  2  0
 22 23  1  0
 22 25  1  0
 23 24  1  0
 25 26  2  0
 25 28  1  0
 26 27  1  0
 27 30  2  0
 28 29  2  0
 29 30  1  0
M  END
$$$$
