
     RDKit          3D

 30 34  0  0  0  0  0  0  0  0999 V2000
  -69.2258   30.3865  -22.8762 S   0  0  1  0  0  6  0  0  0  0  0  0
  -59.9795   33.1618  -28.0222 O   0  0  0  0  0  0  0  0  0  0  0  0
  -63.2079   33.9103  -24.4361 O   0  0  0  0  0  0  0  0  0  0  0  0
  -69.9653   29.1229  -22.7284 O   0  0  0  0  0  0  0  0  0  0  0  0
  -70.0458   31.6283  -22.7025 O   0  0  0  0  0  0  0  0  0  0  0  0
  -67.8077   30.4619  -21.8562 N   0  0  0  0  0  0  0  0  0  0  0  0
  -66.8357   31.1436  -22.6332 C   0  0  0  0  0  0  0  0  0  0  0  0
  -65.7268   31.8032  -22.1376 C   0  0  0  0  0  0  0  0  0  0  0  0
  -68.2858   30.4448  -24.4167 C   0  0  0  0  0  0  0  0  0  0  0  0
  -67.0454   31.1428  -23.9551 C   0  0  0  0  0  0  0  0  0  0  0  0
  -66.1390   31.8073  -24.8013 C   0  0  0  0  0  0  0  0  0  0  0  0
  -65.0278   32.4763  -24.3658 C   0  0  0  0  0  0  0  0  0  0  0  0
  -64.8476   32.4515  -22.9660 C   0  0  0  0  0  0  0  0  0  0  0  0
  -64.0797   33.1956  -25.1756 C   0  0  0  0  0  0  0  0  0  0  0  0
  -63.8517   33.3420  -26.5318 N   0  0  0  0  0  0  0  0  0  0  0  0
  -64.7727   33.4668  -27.6137 C   0  0  0  0  0  0  0  0  0  0  0  0
  -64.6365   32.2723  -28.5703 C   0  0  0  0  0  0  0  0  0  0  0  0
  -62.4299   33.4296  -26.9260 C   0  0  0  0  0  0  0  0  0  0  0  0
  -62.2141   32.7606  -28.2123 C   0  0  0  0  0  0  0  0  0  0  0  0
  -60.9008   32.6712  -28.7212 C   0  0  0  0  0  0  0  0  0  0  0  0
  -60.6918   32.0824  -29.8937 N   0  0  0  0  0  0  0  0  0  0  0  0
  -61.6736   31.5434  -30.6660 C   0  0  0  0  0  0  0  0  0  0  0  0
  -62.9135   31.6350  -30.1698 N   0  0  0  0  0  0  0  0  0  0  0  0
  -63.1987   32.2132  -28.9990 C   0  0  0  0  0  0  0  0  0  0  0  0
  -61.3207   30.9492  -31.9584 C   0  0  0  0  0  0  0  0  0  0  0  0
  -59.9897   31.0550  -32.3574 C   0  0  0  0  0  0  0  0  0  0  0  0
  -59.5494   30.5606  -33.5596 C   0  0  0  0  0  0  0  0  0  0  0  0
  -62.2062   30.3319  -32.7940 C   0  0  0  0  0  0  0  0  0  0  0  0
  -61.7488   29.8334  -34.0138 C   0  0  0  0  0  0  0  0  0  0  0  0
  -60.4401   29.9332  -34.4197 C   0  0  0  0  0  0  0  0  0  0  0  0
  1  4  2  0
  1  5  2  0
  1  6  1  1
  9  1  1  0
 20  2  2  0
 14  3  2  0
  7  6  1  0
  8  7  2  0
 10  7  1  0
 13  8  1  0
  9 10  1  6
 11 10  2  0
 12 11  1  0
 12 13  2  0
 14 12  1  0
 15 14  1  0
 16 15  1  1
 18 15  1  1
 16 17  1  0
 17 24  1  6
 19 18  1  0
 19 20  1  0
 19 24  2  0
 20 21  1  0
 21 22  2  0
 22 23  1  0
 22 25  1  0
 23 24  1  0
 25 26  2  0
 25 28  1  0
 26 27  1  0
 27 30  2  0
 28 29  2  0
 29 30  1  0
M  END
$$$$
