
     RDKit          3D

 30 34  0  0  0  0  0  0  0  0999 V2000
  -68.2360   32.3366  -22.1352 S   0  0  1  0  0  6  0  0  0  0  0  0
  -62.9697   28.5929  -27.0939 O   0  0  0  0  0  0  0  0  0  0  0  0
  -61.8194   34.0675  -24.4642 O   0  0  0  0  0  0  0  0  0  0  0  0
  -69.3650   31.3871  -21.9784 O   0  0  0  0  0  0  0  0  0  0  0  0
  -68.5613   33.7532  -21.8249 O   0  0  0  0  0  0  0  0  0  0  0  0
  -66.8256   31.8238  -21.2347 N   0  0  0  0  0  0  0  0  0  0  0  0
  -65.7405   32.1719  -22.0888 C   0  0  0  0  0  0  0  0  0  0  0  0
  -64.4103   32.3049  -21.6486 C   0  0  0  0  0  0  0  0  0  0  0  0
  -67.4654   32.2146  -23.7562 C   0  0  0  0  0  0  0  0  0  0  0  0
  -66.0374   32.3742  -23.3750 C   0  0  0  0  0  0  0  0  0  0  0  0
  -65.0019   32.7202  -24.2681 C   0  0  0  0  0  0  0  0  0  0  0  0
  -63.6996   32.8526  -23.8429 C   0  0  0  0  0  0  0  0  0  0  0  0
  -63.3881   32.6473  -22.5324 C   0  0  0  0  0  0  0  0  0  0  0  0
  -62.7026   33.2121  -24.8225 C   0  0  0  0  0  0  0  0  0  0  0  0
  -62.7160   32.6378  -26.1162 N   0  0  0  0  0  0  0  0  0  0  0  0
  -63.0066   33.5002  -27.2227 C   0  0  0  0  0  0  0  0  0  0  0  0
  -62.1829   33.0874  -28.4170 C   0  0  0  0  0  0  0  0  0  0  0  0
  -62.4522   31.2428  -26.2731 C   0  0  0  0  0  0  0  0  0  0  0  0
  -62.5906   30.7789  -27.6755 C   0  0  0  0  0  0  0  0  0  0  0  0
  -62.8478   29.4529  -28.0131 C   0  0  0  0  0  0  0  0  0  0  0  0
  -62.9703   29.0604  -29.2874 N   0  0  0  0  0  0  0  0  0  0  0  0
  -62.8430   29.9631  -30.2842 C   0  0  0  0  0  0  0  0  0  0  0  0
  -62.5948   31.2454  -29.9653 N   0  0  0  0  0  0  0  0  0  0  0  0
  -62.4661   31.6742  -28.7065 C   0  0  0  0  0  0  0  0  0  0  0  0
  -62.9812   29.5689  -31.6727 C   0  0  0  0  0  0  0  0  0  0  0  0
  -63.1298   28.2868  -32.1030 C   0  0  0  0  0  0  0  0  0  0  0  0
  -63.2724   27.9795  -33.4670 C   0  0  0  0  0  0  0  0  0  0  0  0
  -62.9757   30.5774  -32.6484 C   0  0  0  0  0  0  0  0  0  0  0  0
  -63.1168   30.2718  -33.9922 C   0  0  0  0  0  0  0  0  0  0  0  0
  -63.2667   28.9682  -34.4149 C   0  0  0  0  0  0  0  0  0  0  0  0
  1  4  2  0
  1  5  2  0
  6  1  1  0
  1  9  1  6
 20  2  2  0
 14  3  2  0
  7  6  1  0
  8  7  2  0
 10  7  1  0
 13  8  1  0
 10  9  1  0
 11 10  2  0
 12 11  1  0
 12 13  2  0
 14 12  1  0
 15 14  1  0
 15 16  1  0
 18 15  1  0
 16 17  1  0
 17 24  1  0
 19 18  1  0
 19 20  1  0
 19 24  2  0
 20 21  1  0
 21 22  2  0
 22 23  1  0
 22 25  1  0
 23 24  1  0
 25 26  2  0
 25 28  1  0
 26 27  1  0
 27 30  2  0
 28 29  2  0
 29 30  1  0
M  END
$$$$
