
     RDKit          3D

 30 34  0  0  0  0  0  0  0  0999 V2000
  -68.5212   31.0424  -22.9220 S   0  0  1  0  0  6  0  0  0  0  0  0
  -59.8135   27.5423  -28.5330 O   0  0  0  0  0  0  0  0  0  0  0  0
  -64.4010   27.4199  -27.5204 O   0  0  0  0  0  0  0  0  0  0  0  0
  -69.6214   31.9892  -22.6801 O   0  0  0  0  0  0  0  0  0  0  0  0
  -67.7867   30.5928  -21.6959 O   0  0  0  0  0  0  0  0  0  0  0  0
  -69.0198   29.6536  -23.8600 N   0  0  0  0  0  0  0  0  0  0  0  0
  -67.9128   29.3640  -24.6990 C   0  0  0  0  0  0  0  0  0  0  0  0
  -67.6563   28.1472  -25.3022 C   0  0  0  0  0  0  0  0  0  0  0  0
  -67.3720   31.6459  -24.1770 C   0  0  0  0  0  0  0  0  0  0  0  0
  -67.0529   30.3712  -24.8927 C   0  0  0  0  0  0  0  0  0  0  0  0
  -65.9185   30.1688  -25.6997 C   0  0  0  0  0  0  0  0  0  0  0  0
  -65.6148   28.9870  -26.3188 C   0  0  0  0  0  0  0  0  0  0  0  0
  -66.5480   27.9539  -26.0857 C   0  0  0  0  0  0  0  0  0  0  0  0
  -64.4602   28.7096  -27.1323 C   0  0  0  0  0  0  0  0  0  0  0  0
  -63.3873   29.4434  -27.6049 N   0  0  0  0  0  0  0  0  0  0  0  0
  -63.2928   30.8257  -27.9433 C   0  0  0  0  0  0  0  0  0  0  0  0
  -62.9883   30.9885  -29.4404 C   0  0  0  0  0  0  0  0  0  0  0  0
  -62.1212   28.6928  -27.7404 C   0  0  0  0  0  0  0  0  0  0  0  0
  -61.3749   29.1573  -28.9134 C   0  0  0  0  0  0  0  0  0  0  0  0
  -60.1701   28.5064  -29.2550 C   0  0  0  0  0  0  0  0  0  0  0  0
  -59.4742   28.9269  -30.3058 N   0  0  0  0  0  0  0  0  0  0  0  0
  -59.8421   29.9671  -31.1017 C   0  0  0  0  0  0  0  0  0  0  0  0
  -60.9872   30.5737  -30.7657 N   0  0  0  0  0  0  0  0  0  0  0  0
  -61.7383   30.2062  -29.7231 C   0  0  0  0  0  0  0  0  0  0  0  0
  -58.9717   30.3581  -32.2142 C   0  0  0  0  0  0  0  0  0  0  0  0
  -57.6826   29.8288  -32.2209 C   0  0  0  0  0  0  0  0  0  0  0  0
  -56.7714   30.1458  -33.1970 C   0  0  0  0  0  0  0  0  0  0  0  0
  -59.3312   31.2155  -33.2137 C   0  0  0  0  0  0  0  0  0  0  0  0
  -58.3975   31.5318  -34.2005 C   0  0  0  0  0  0  0  0  0  0  0  0
  -57.1233   31.0186  -34.2173 C   0  0  0  0  0  0  0  0  0  0  0  0
  1  4  2  0
  1  5  2  0
  1  6  1  6
  9  1  1  0
 20  2  2  0
 14  3  2  0
  7  6  1  0
  8  7  2  0
 10  7  1  0
 13  8  1  0
  9 10  1  6
 11 10  2  0
 12 11  1  0
 12 13  2  0
 14 12  1  0
 15 14  1  0
 16 15  1  1
 18 15  1  1
 16 17  1  0
 17 24  1  6
 19 18  1  0
 19 20  1  0
 19 24  2  0
 20 21  1  0
 21 22  2  0
 22 23  1  0
 22 25  1  0
 23 24  1  0
 25 26  2  0
 25 28  1  0
 26 27  1  0
 27 30  2  0
 28 29  2  0
 29 30  1  0
M  END
$$$$
