
     RDKit          3D

 30 34  0  0  0  0  0  0  0  0999 V2000
  -63.5377   24.2269  -27.6476 S   0  0  1  0  0  6  0  0  0  0  0  0
  -65.7633   31.7458  -24.7680 O   0  0  0  0  0  0  0  0  0  0  0  0
  -60.9946   30.6787  -27.9448 O   0  0  0  0  0  0  0  0  0  0  0  0
  -64.5593   23.1741  -27.7629 O   0  0  0  0  0  0  0  0  0  0  0  0
  -62.3365   23.8619  -26.8300 O   0  0  0  0  0  0  0  0  0  0  0  0
  -63.0332   24.8508  -29.2011 N   0  0  0  0  0  0  0  0  0  0  0  0
  -62.8282   26.2384  -28.9875 C   0  0  0  0  0  0  0  0  0  0  0  0
  -62.0468   27.0669  -29.7707 C   0  0  0  0  0  0  0  0  0  0  0  0
  -64.2411   25.7956  -27.0956 C   0  0  0  0  0  0  0  0  0  0  0  0
  -63.4457   26.7582  -27.9199 C   0  0  0  0  0  0  0  0  0  0  0  0
  -63.2865   28.1243  -27.6237 C   0  0  0  0  0  0  0  0  0  0  0  0
  -62.5252   28.9887  -28.3621 C   0  0  0  0  0  0  0  0  0  0  0  0
  -61.8925   28.3969  -29.4766 C   0  0  0  0  0  0  0  0  0  0  0  0
  -62.3017   30.3857  -28.0971 C   0  0  0  0  0  0  0  0  0  0  0  0
  -63.1043   31.5022  -27.9488 N   0  0  0  0  0  0  0  0  0  0  0  0
  -63.1349   32.7211  -28.6890 C   0  0  0  0  0  0  0  0  0  0  0  0
  -62.7591   33.9042  -27.7837 C   0  0  0  0  0  0  0  0  0  0  0  0
  -64.1262   31.4070  -26.8852 C   0  0  0  0  0  0  0  0  0  0  0  0
  -64.3094   32.7078  -26.2347 C   0  0  0  0  0  0  0  0  0  0  0  0
  -65.1925   32.8019  -25.1378 C   0  0  0  0  0  0  0  0  0  0  0  0
  -65.3813   33.9776  -24.5486 N   0  0  0  0  0  0  0  0  0  0  0  0
  -64.7730   35.1327  -24.9312 C   0  0  0  0  0  0  0  0  0  0  0  0
  -63.9378   35.0275  -25.9721 N   0  0  0  0  0  0  0  0  0  0  0  0
  -63.6996   33.8793  -26.6135 C   0  0  0  0  0  0  0  0  0  0  0  0
  -65.0888   36.3755  -24.2216 C   0  0  0  0  0  0  0  0  0  0  0  0
  -64.4417   37.5306  -24.6564 C   0  0  0  0  0  0  0  0  0  0  0  0
  -64.6381   38.7462  -24.0503 C   0  0  0  0  0  0  0  0  0  0  0  0
  -65.9437   36.4655  -23.1612 C   0  0  0  0  0  0  0  0  0  0  0  0
  -66.1358   37.7054  -22.5518 C   0  0  0  0  0  0  0  0  0  0  0  0
  -65.5025   38.8507  -22.9694 C   0  0  0  0  0  0  0  0  0  0  0  0
  1  4  2  0
  1  5  2  0
  1  6  1  6
  9  1  1  0
 20  2  2  0
 14  3  2  0
  7  6  1  0
  8  7  2  0
 10  7  1  0
 13  8  1  0
  9 10  1  6
 11 10  2  0
 12 11  1  0
 12 13  2  0
 14 12  1  0
 15 14  1  0
 16 15  1  1
 18 15  1  1
 16 17  1  0
 17 24  1  6
 19 18  1  0
 19 20  1  0
 19 24  2  0
 20 21  1  0
 21 22  2  0
 22 23  1  0
 22 25  1  0
 23 24  1  0
 25 26  2  0
 25 28  1  0
 26 27  1  0
 27 30  2  0
 28 29  2  0
 29 30  1  0
M  END
$$$$
