
     RDKit          3D

 30 34  0  0  0  0  0  0  0  0999 V2000
  -64.9225   33.1528  -34.5726 S   0  0  1  0  0  6  0  0  0  0  0  0
  -63.6893   28.7649  -24.9362 O   0  0  0  0  0  0  0  0  0  0  0  0
  -61.6993   29.3492  -29.6819 O   0  0  0  0  0  0  0  0  0  0  0  0
  -65.5997   34.3770  -35.0661 O   0  0  0  0  0  0  0  0  0  0  0  0
  -65.1553   31.9348  -35.3918 O   0  0  0  0  0  0  0  0  0  0  0  0
  -63.2076   33.4092  -34.3356 N   0  0  0  0  0  0  0  0  0  0  0  0
  -62.9192   32.6639  -33.1568 C   0  0  0  0  0  0  0  0  0  0  0  0
  -61.6240   32.2558  -32.7869 C   0  0  0  0  0  0  0  0  0  0  0  0
  -65.2928   32.8213  -32.8437 C   0  0  0  0  0  0  0  0  0  0  0  0
  -63.9601   32.3534  -32.3801 C   0  0  0  0  0  0  0  0  0  0  0  0
  -63.7341   31.6171  -31.1984 C   0  0  0  0  0  0  0  0  0  0  0  0
  -62.4698   31.2147  -30.8323 C   0  0  0  0  0  0  0  0  0  0  0  0
  -61.4023   31.5278  -31.6191 C   0  0  0  0  0  0  0  0  0  0  0  0
  -62.3283   30.4624  -29.6089 C   0  0  0  0  0  0  0  0  0  0  0  0
  -62.8679   30.9461  -28.3929 N   0  0  0  0  0  0  0  0  0  0  0  0
  -62.8334   32.3605  -28.1671 C   0  0  0  0  0  0  0  0  0  0  0  0
  -64.0805   32.7873  -27.4337 C   0  0  0  0  0  0  0  0  0  0  0  0
  -63.4119   30.0261  -27.4454 C   0  0  0  0  0  0  0  0  0  0  0  0
  -63.8547   30.6790  -26.1889 C   0  0  0  0  0  0  0  0  0  0  0  0
  -63.9697   29.9973  -24.9805 C   0  0  0  0  0  0  0  0  0  0  0  0
  -64.3700   30.6109  -23.8597 N   0  0  0  0  0  0  0  0  0  0  0  0
  -64.6748   31.9266  -23.8856 C   0  0  0  0  0  0  0  0  0  0  0  0
  -64.5658   32.5911  -25.0493 N   0  0  0  0  0  0  0  0  0  0  0  0
  -64.1702   32.0134  -26.1871 C   0  0  0  0  0  0  0  0  0  0  0  0
  -65.1008   32.6197  -22.6853 C   0  0  0  0  0  0  0  0  0  0  0  0
  -65.7438   33.8185  -22.6697 C   0  0  0  0  0  0  0  0  0  0  0  0
  -66.1402   34.4262  -21.4660 C   0  0  0  0  0  0  0  0  0  0  0  0
  -64.8474   32.0105  -21.4468 C   0  0  0  0  0  0  0  0  0  0  0  0
  -65.2394   32.6114  -20.2618 C   0  0  0  0  0  0  0  0  0  0  0  0
  -65.8905   33.8266  -20.2600 C   0  0  0  0  0  0  0  0  0  0  0  0
  1  4  2  0
  1  5  2  0
  6  1  1  0
  1  9  1  1
 20  2  2  0
 14  3  2  0
  7  6  1  0
  8  7  2  0
 10  7  1  0
 13  8  1  0
 10  9  1  0
 11 10  2  0
 12 11  1  0
 12 13  2  0
 14 12  1  0
 15 14  1  0
 15 16  1  0
 18 15  1  0
 16 17  1  0
 17 24  1  0
 19 18  1  0
 19 20  1  0
 19 24  2  0
 20 21  1  0
 21 22  2  0
 22 23  1  0
 22 25  1  0
 23 24  1  0
 25 26  2  0
 25 28  1  0
 26 27  1  0
 27 30  2  0
 28 29  2  0
 29 30  1  0
M  END
$$$$
