
     RDKit          3D

 30 34  0  0  0  0  0  0  0  0999 V2000
  -67.2198   31.9421  -23.2088 S   0  0  1  0  0  6  0  0  0  0  0  0
  -59.1024   28.2678  -29.4609 O   0  0  0  0  0  0  0  0  0  0  0  0
  -62.8475   27.4052  -26.0294 O   0  0  0  0  0  0  0  0  0  0  0  0
  -68.0249   33.1881  -23.2022 O   0  0  0  0  0  0  0  0  0  0  0  0
  -66.8903   31.4022  -21.8639 O   0  0  0  0  0  0  0  0  0  0  0  0
  -67.9517   30.7004  -24.2014 N   0  0  0  0  0  0  0  0  0  0  0  0
  -66.8359   30.0688  -24.8212 C   0  0  0  0  0  0  0  0  0  0  0  0
  -66.8858   28.7882  -25.4031 C   0  0  0  0  0  0  0  0  0  0  0  0
  -65.7264   32.1031  -24.1988 C   0  0  0  0  0  0  0  0  0  0  0  0
  -65.6935   30.7600  -24.8354 C   0  0  0  0  0  0  0  0  0  0  0  0
  -64.5550   30.1847  -25.4373 C   0  0  0  0  0  0  0  0  0  0  0  0
  -64.5979   28.9324  -26.0069 C   0  0  0  0  0  0  0  0  0  0  0  0
  -65.7598   28.2206  -25.9972 C   0  0  0  0  0  0  0  0  0  0  0  0
  -63.3865   28.4178  -26.5988 C   0  0  0  0  0  0  0  0  0  0  0  0
  -62.8315   29.0181  -27.7544 N   0  0  0  0  0  0  0  0  0  0  0  0
  -63.7242   29.7047  -28.6400 C   0  0  0  0  0  0  0  0  0  0  0  0
  -63.0363   30.9195  -29.2113 C   0  0  0  0  0  0  0  0  0  0  0  0
  -61.4282   28.9154  -27.9997 C   0  0  0  0  0  0  0  0  0  0  0  0
  -61.0179   29.5178  -29.2919 C   0  0  0  0  0  0  0  0  0  0  0  0
  -59.8547   29.1515  -29.9634 C   0  0  0  0  0  0  0  0  0  0  0  0
  -59.5081   29.7097  -31.1301 N   0  0  0  0  0  0  0  0  0  0  0  0
  -60.2975   30.6558  -31.6836 C   0  0  0  0  0  0  0  0  0  0  0  0
  -61.4224   31.0143  -31.0405 N   0  0  0  0  0  0  0  0  0  0  0  0
  -61.8008   30.4803  -29.8758 C   0  0  0  0  0  0  0  0  0  0  0  0
  -59.9529   31.2699  -32.9511 C   0  0  0  0  0  0  0  0  0  0  0  0
  -60.8528   31.7783  -33.8358 C   0  0  0  0  0  0  0  0  0  0  0  0
  -60.4446   32.3729  -35.0421 C   0  0  0  0  0  0  0  0  0  0  0  0
  -58.5947   31.3629  -33.2914 C   0  0  0  0  0  0  0  0  0  0  0  0
  -58.1949   31.9498  -34.4808 C   0  0  0  0  0  0  0  0  0  0  0  0
  -59.1173   32.4612  -35.3688 C   0  0  0  0  0  0  0  0  0  0  0  0
  1  4  2  0
  1  5  2  0
  6  1  1  0
  1  9  1  6
 20  2  2  0
 14  3  2  0
  7  6  1  0
  8  7  2  0
 10  7  1  0
 13  8  1  0
 10  9  1  0
 11 10  2  0
 12 11  1  0
 12 13  2  0
 14 12  1  0
 15 14  1  0
 15 16  1  0
 18 15  1  0
 16 17  1  0
 17 24  1  0
 19 18  1  0
 19 20  1  0
 19 24  2  0
 20 21  1  0
 21 22  2  0
 22 23  1  0
 22 25  1  0
 23 24  1  0
 25 26  2  0
 25 28  1  0
 26 27  1  0
 27 30  2  0
 28 29  2  0
 29 30  1  0
M  END
$$$$
