
     RDKit          3D

 30 34  0  0  0  0  0  0  0  0999 V2000
  -61.9099   24.0778  -28.4226 S   0  0  1  0  0  6  0  0  0  0  0  0
  -65.6487   33.7353  -24.1997 O   0  0  0  0  0  0  0  0  0  0  0  0
  -63.2551   29.8034  -24.4680 O   0  0  0  0  0  0  0  0  0  0  0  0
  -61.2720   23.3851  -29.5534 O   0  0  0  0  0  0  0  0  0  0  0  0
  -62.9134   23.2655  -27.6624 O   0  0  0  0  0  0  0  0  0  0  0  0
  -60.7491   24.7764  -27.3174 N   0  0  0  0  0  0  0  0  0  0  0  0
  -61.3352   25.9985  -26.8977 C   0  0  0  0  0  0  0  0  0  0  0  0
  -61.0167   26.6900  -25.7441 C   0  0  0  0  0  0  0  0  0  0  0  0
  -62.6061   25.6709  -28.9100 C   0  0  0  0  0  0  0  0  0  0  0  0
  -62.2851   26.4921  -27.7012 C   0  0  0  0  0  0  0  0  0  0  0  0
  -62.9304   27.6933  -27.3552 C   0  0  0  0  0  0  0  0  0  0  0  0
  -62.6568   28.4173  -26.2269 C   0  0  0  0  0  0  0  0  0  0  0  0
  -61.6502   27.8589  -25.4099 C   0  0  0  0  0  0  0  0  0  0  0  0
  -63.2980   29.6349  -25.8050 C   0  0  0  0  0  0  0  0  0  0  0  0
  -63.9596   30.6717  -26.4376 N   0  0  0  0  0  0  0  0  0  0  0  0
  -64.1104   30.9581  -27.8267 C   0  0  0  0  0  0  0  0  0  0  0  0
  -63.4321   32.2925  -28.1726 C   0  0  0  0  0  0  0  0  0  0  0  0
  -64.6632   31.6115  -25.5396 C   0  0  0  0  0  0  0  0  0  0  0  0
  -64.5831   32.9774  -26.0653 C   0  0  0  0  0  0  0  0  0  0  0  0
  -65.1324   34.0324  -25.3057 C   0  0  0  0  0  0  0  0  0  0  0  0
  -65.0820   35.2736  -25.7770 N   0  0  0  0  0  0  0  0  0  0  0  0
  -64.5268   35.6179  -26.9703 C   0  0  0  0  0  0  0  0  0  0  0  0
  -64.0093   34.6069  -27.6789 N   0  0  0  0  0  0  0  0  0  0  0  0
  -64.0245   33.3349  -27.2687 C   0  0  0  0  0  0  0  0  0  0  0  0
  -64.5621   37.0196  -27.3967 C   0  0  0  0  0  0  0  0  0  0  0  0
  -64.1617   37.2902  -28.7038 C   0  0  0  0  0  0  0  0  0  0  0  0
  -64.1275   38.5677  -29.2042 C   0  0  0  0  0  0  0  0  0  0  0  0
  -64.9317   38.0627  -26.5975 C   0  0  0  0  0  0  0  0  0  0  0  0
  -64.8927   39.3573  -27.1154 C   0  0  0  0  0  0  0  0  0  0  0  0
  -64.4980   39.6374  -28.4011 C   0  0  0  0  0  0  0  0  0  0  0  0
  1  4  2  0
  1  5  2  0
  1  6  1  1
  9  1  1  0
 20  2  2  0
 14  3  2  0
  7  6  1  0
  8  7  2  0
 10  7  1  0
 13  8  1  0
  9 10  1  6
 11 10  2  0
 12 11  1  0
 12 13  2  0
 14 12  1  0
 15 14  1  0
 16 15  1  1
 18 15  1  1
 16 17  1  0
 17 24  1  6
 19 18  1  0
 19 20  1  0
 19 24  2  0
 20 21  1  0
 21 22  2  0
 22 23  1  0
 22 25  1  0
 23 24  1  0
 25 26  2  0
 25 28  1  0
 26 27  1  0
 27 30  2  0
 28 29  2  0
 29 30  1  0
M  END
$$$$
