
     RDKit          3D

 30 34  0  0  0  0  0  0  0  0999 V2000
  -68.1537   32.9883  -22.5326 S   0  0  1  0  0  6  0  0  0  0  0  0
  -61.9185   29.6669  -30.2786 O   0  0  0  0  0  0  0  0  0  0  0  0
  -62.3773   29.6292  -25.0941 O   0  0  0  0  0  0  0  0  0  0  0  0
  -69.5203   32.6885  -22.0391 O   0  0  0  0  0  0  0  0  0  0  0  0
  -67.8713   34.4298  -22.7578 O   0  0  0  0  0  0  0  0  0  0  0  0
  -66.9233   32.2787  -21.5102 N   0  0  0  0  0  0  0  0  0  0  0  0
  -65.9273   31.8525  -22.4345 C   0  0  0  0  0  0  0  0  0  0  0  0
  -64.5954   31.5730  -22.0755 C   0  0  0  0  0  0  0  0  0  0  0  0
  -67.7366   32.0347  -23.9999 C   0  0  0  0  0  0  0  0  0  0  0  0
  -66.3140   31.7187  -23.7056 C   0  0  0  0  0  0  0  0  0  0  0  0
  -65.3700   31.2979  -24.6655 C   0  0  0  0  0  0  0  0  0  0  0  0
  -64.0661   31.0242  -24.3202 C   0  0  0  0  0  0  0  0  0  0  0  0
  -63.6635   31.1577  -23.0253 C   0  0  0  0  0  0  0  0  0  0  0  0
  -63.1651   30.6018  -25.3654 C   0  0  0  0  0  0  0  0  0  0  0  0
  -63.1635   31.2453  -26.6261 N   0  0  0  0  0  0  0  0  0  0  0  0
  -63.9613   32.4266  -26.7699 C   0  0  0  0  0  0  0  0  0  0  0  0
  -63.2562   33.4076  -27.6731 C   0  0  0  0  0  0  0  0  0  0  0  0
  -62.3880   30.7026  -27.6958 C   0  0  0  0  0  0  0  0  0  0  0  0
  -62.5619   31.4388  -28.9721 C   0  0  0  0  0  0  0  0  0  0  0  0
  -62.3130   30.8669  -30.2168 C   0  0  0  0  0  0  0  0  0  0  0  0
  -62.4798   31.5531  -31.3545 N   0  0  0  0  0  0  0  0  0  0  0  0
  -62.8999   32.8361  -31.3104 C   0  0  0  0  0  0  0  0  0  0  0  0
  -63.1422   33.3946  -30.1117 N   0  0  0  0  0  0  0  0  0  0  0  0
  -62.9872   32.7422  -28.9561 C   0  0  0  0  0  0  0  0  0  0  0  0
  -63.0994   33.6002  -32.5265 C   0  0  0  0  0  0  0  0  0  0  0  0
  -63.1180   34.9589  -32.5936 C   0  0  0  0  0  0  0  0  0  0  0  0
  -63.3031   35.6338  -33.8124 C   0  0  0  0  0  0  0  0  0  0  0  0
  -63.2731   32.8953  -33.7274 C   0  0  0  0  0  0  0  0  0  0  0  0
  -63.4551   33.5629  -34.9274 C   0  0  0  0  0  0  0  0  0  0  0  0
  -63.4718   34.9404  -34.9815 C   0  0  0  0  0  0  0  0  0  0  0  0
  1  4  2  0
  1  5  2  0
  6  1  1  0
  1  9  1  6
 20  2  2  0
 14  3  2  0
  7  6  1  0
  8  7  2  0
 10  7  1  0
 13  8  1  0
 10  9  1  0
 11 10  2  0
 12 11  1  0
 12 13  2  0
 14 12  1  0
 15 14  1  0
 15 16  1  0
 18 15  1  0
 16 17  1  0
 17 24  1  0
 19 18  1  0
 19 20  1  0
 19 24  2  0
 20 21  1  0
 21 22  2  0
 22 23  1  0
 22 25  1  0
 23 24  1  0
 25 26  2  0
 25 28  1  0
 26 27  1  0
 27 30  2  0
 28 29  2  0
 29 30  1  0
M  END
$$$$
