
     RDKit          3D

 30 34  0  0  0  0  0  0  0  0999 V2000
  -61.8291   24.4593  -28.6806 S   0  0  1  0  0  6  0  0  0  0  0  0
  -65.3426   34.0570  -24.2512 O   0  0  0  0  0  0  0  0  0  0  0  0
  -62.7327   30.2445  -24.5300 O   0  0  0  0  0  0  0  0  0  0  0  0
  -60.9873   23.7373  -29.6478 O   0  0  0  0  0  0  0  0  0  0  0  0
  -63.1591   23.8297  -28.3992 O   0  0  0  0  0  0  0  0  0  0  0  0
  -60.9980   24.7917  -27.1786 N   0  0  0  0  0  0  0  0  0  0  0  0
  -61.4576   26.0748  -26.7839 C   0  0  0  0  0  0  0  0  0  0  0  0
  -61.4228   26.5823  -25.4988 C   0  0  0  0  0  0  0  0  0  0  0  0
  -62.0195   26.2011  -29.1163 C   0  0  0  0  0  0  0  0  0  0  0  0
  -61.9773   26.8298  -27.7592 C   0  0  0  0  0  0  0  0  0  0  0  0
  -62.4708   28.1117  -27.4552 C   0  0  0  0  0  0  0  0  0  0  0  0
  -62.4631   28.6628  -26.2029 C   0  0  0  0  0  0  0  0  0  0  0  0
  -61.9073   27.8311  -25.2070 C   0  0  0  0  0  0  0  0  0  0  0  0
  -62.9753   29.9535  -25.8239 C   0  0  0  0  0  0  0  0  0  0  0  0
  -63.6678   30.9662  -26.4624 N   0  0  0  0  0  0  0  0  0  0  0  0
  -63.8586   31.2184  -27.8532 C   0  0  0  0  0  0  0  0  0  0  0  0
  -63.2088   32.5537  -28.2470 C   0  0  0  0  0  0  0  0  0  0  0  0
  -64.3615   31.9166  -25.5679 C   0  0  0  0  0  0  0  0  0  0  0  0
  -64.3147   33.2710  -26.1264 C   0  0  0  0  0  0  0  0  0  0  0  0
  -64.8593   34.3356  -25.3768 C   0  0  0  0  0  0  0  0  0  0  0  0
  -64.8391   35.5661  -25.8773 N   0  0  0  0  0  0  0  0  0  0  0  0
  -64.3199   35.8905  -27.0923 C   0  0  0  0  0  0  0  0  0  0  0  0
  -63.8063   34.8706  -27.7910 N   0  0  0  0  0  0  0  0  0  0  0  0
  -63.7925   33.6084  -27.3518 C   0  0  0  0  0  0  0  0  0  0  0  0
  -64.3863   37.2814  -27.5493 C   0  0  0  0  0  0  0  0  0  0  0  0
  -64.7477   38.2384  -26.6030 C   0  0  0  0  0  0  0  0  0  0  0  0
  -64.8691   39.5675  -26.9226 C   0  0  0  0  0  0  0  0  0  0  0  0
  -64.1457   37.6875  -28.8302 C   0  0  0  0  0  0  0  0  0  0  0  0
  -64.2726   39.0405  -29.1449 C   0  0  0  0  0  0  0  0  0  0  0  0
  -64.6300   39.9932  -28.2220 C   0  0  0  0  0  0  0  0  0  0  0  0
  1  4  2  0
  1  5  2  0
  1  6  1  1
  9  1  1  0
 20  2  2  0
 14  3  2  0
  7  6  1  0
  8  7  2  0
 10  7  1  0
 13  8  1  0
  9 10  1  6
 11 10  2  0
 12 11  1  0
 12 13  2  0
 14 12  1  0
 15 14  1  0
 16 15  1  1
 18 15  1  1
 16 17  1  0
 17 24  1  6
 19 18  1  0
 19 20  1  0
 19 24  2  0
 20 21  1  0
 21 22  2  0
 22 23  1  0
 22 25  1  0
 23 24  1  0
 25 26  2  0
 25 28  1  0
 26 27  1  0
 27 30  2  0
 28 29  2  0
 29 30  1  0
M  END
$$$$
