
     RDKit          3D

 30 34  0  0  0  0  0  0  0  0999 V2000
  -66.0208   24.8959  -29.6310 S   0  0  1  0  0  6  0  0  0  0  0  0
  -61.5276   32.7209  -22.7911 O   0  0  0  0  0  0  0  0  0  0  0  0
  -63.1189   28.1241  -24.5716 O   0  0  0  0  0  0  0  0  0  0  0  0
  -67.1072   24.7490  -30.6305 O   0  0  0  0  0  0  0  0  0  0  0  0
  -65.5028   23.6181  -29.0765 O   0  0  0  0  0  0  0  0  0  0  0  0
  -64.7039   25.8738  -30.2412 N   0  0  0  0  0  0  0  0  0  0  0  0
  -64.2962   26.6298  -29.1052 C   0  0  0  0  0  0  0  0  0  0  0  0
  -63.0461   27.2674  -28.9978 C   0  0  0  0  0  0  0  0  0  0  0  0
  -66.4710   26.0169  -28.2979 C   0  0  0  0  0  0  0  0  0  0  0  0
  -65.1755   26.7200  -28.1043 C   0  0  0  0  0  0  0  0  0  0  0  0
  -64.8265   27.4576  -26.9538 C   0  0  0  0  0  0  0  0  0  0  0  0
  -63.6051   28.0823  -26.8429 C   0  0  0  0  0  0  0  0  0  0  0  0
  -62.7024   27.9956  -27.8599 C   0  0  0  0  0  0  0  0  0  0  0  0
  -63.3284   28.8139  -25.6301 C   0  0  0  0  0  0  0  0  0  0  0  0
  -63.2958   30.2290  -25.6276 N   0  0  0  0  0  0  0  0  0  0  0  0
  -63.5919   30.9024  -26.8570 C   0  0  0  0  0  0  0  0  0  0  0  0
  -64.3554   32.1710  -26.5689 C   0  0  0  0  0  0  0  0  0  0  0  0
  -62.9676   30.9263  -24.4250 C   0  0  0  0  0  0  0  0  0  0  0  0
  -62.8891   32.3965  -24.6082 C   0  0  0  0  0  0  0  0  0  0  0  0
  -62.1576   33.2273  -23.7638 C   0  0  0  0  0  0  0  0  0  0  0  0
  -62.1015   34.5518  -23.9524 N   0  0  0  0  0  0  0  0  0  0  0  0
  -62.7677   35.1127  -24.9850 C   0  0  0  0  0  0  0  0  0  0  0  0
  -63.4760   34.3162  -25.8044 N   0  0  0  0  0  0  0  0  0  0  0  0
  -63.5556   32.9918  -25.6482 C   0  0  0  0  0  0  0  0  0  0  0  0
  -62.7165   36.5426  -25.2200 C   0  0  0  0  0  0  0  0  0  0  0  0
  -62.3883   37.4708  -24.2810 C   0  0  0  0  0  0  0  0  0  0  0  0
  -62.3458   38.8425  -24.5845 C   0  0  0  0  0  0  0  0  0  0  0  0
  -63.0123   37.0102  -26.5095 C   0  0  0  0  0  0  0  0  0  0  0  0
  -62.9693   38.3626  -26.8062 C   0  0  0  0  0  0  0  0  0  0  0  0
  -62.6351   39.2930  -25.8452 C   0  0  0  0  0  0  0  0  0  0  0  0
  1  4  2  0
  1  5  2  0
  6  1  1  0
  1  9  1  1
 20  2  2  0
 14  3  2  0
  7  6  1  0
  8  7  2  0
 10  7  1  0
 13  8  1  0
 10  9  1  0
 11 10  2  0
 12 11  1  0
 12 13  2  0
 14 12  1  0
 15 14  1  0
 15 16  1  0
 18 15  1  0
 16 17  1  0
 17 24  1  0
 19 18  1  0
 19 20  1  0
 19 24  2  0
 20 21  1  0
 21 22  2  0
 22 23  1  0
 22 25  1  0
 23 24  1  0
 25 26  2  0
 25 28  1  0
 26 27  1  0
 27 30  2  0
 28 29  2  0
 29 30  1  0
M  END
$$$$
