
     RDKit          3D

 30 34  0  0  0  0  0  0  0  0999 V2000
  -68.8284   30.3421  -22.8227 S   0  0  1  0  0  6  0  0  0  0  0  0
  -60.8080   36.7472  -25.6417 O   0  0  0  0  0  0  0  0  0  0  0  0
  -62.2829   32.0071  -24.0780 O   0  0  0  0  0  0  0  0  0  0  0  0
  -70.2933   30.4500  -23.0300 O   0  0  0  0  0  0  0  0  0  0  0  0
  -68.4203   29.8439  -21.4833 O   0  0  0  0  0  0  0  0  0  0  0  0
  -68.0611   29.4006  -24.0828 N   0  0  0  0  0  0  0  0  0  0  0  0
  -66.8273   30.0777  -24.3000 C   0  0  0  0  0  0  0  0  0  0  0  0
  -65.7160   29.4935  -24.9362 C   0  0  0  0  0  0  0  0  0  0  0  0
  -67.9731   31.8782  -23.2035 C   0  0  0  0  0  0  0  0  0  0  0  0
  -66.7560   31.3382  -23.8648 C   0  0  0  0  0  0  0  0  0  0  0  0
  -65.5584   32.0589  -24.0540 C   0  0  0  0  0  0  0  0  0  0  0  0
  -64.4683   31.4923  -24.6745 C   0  0  0  0  0  0  0  0  0  0  0  0
  -64.5329   30.2068  -25.1220 C   0  0  0  0  0  0  0  0  0  0  0  0
  -63.2815   32.2995  -24.8246 C   0  0  0  0  0  0  0  0  0  0  0  0
  -63.2405   33.3632  -25.7575 N   0  0  0  0  0  0  0  0  0  0  0  0
  -63.8285   33.1406  -27.0449 C   0  0  0  0  0  0  0  0  0  0  0  0
  -64.4886   34.4084  -27.5268 C   0  0  0  0  0  0  0  0  0  0  0  0
  -62.6198   34.5976  -25.3954 C   0  0  0  0  0  0  0  0  0  0  0  0
  -62.5800   35.5773  -26.5088 C   0  0  0  0  0  0  0  0  0  0  0  0
  -61.6566   36.6174  -26.5704 C   0  0  0  0  0  0  0  0  0  0  0  0
  -61.6409   37.4875  -27.5880 N   0  0  0  0  0  0  0  0  0  0  0  0
  -62.5391   37.3669  -28.5897 C   0  0  0  0  0  0  0  0  0  0  0  0
  -63.4336   36.3646  -28.5366 N   0  0  0  0  0  0  0  0  0  0  0  0
  -63.4801   35.4779  -27.5384 C   0  0  0  0  0  0  0  0  0  0  0  0
  -62.5390   38.2880  -29.7095 C   0  0  0  0  0  0  0  0  0  0  0  0
  -63.3862   38.2165  -30.7716 C   0  0  0  0  0  0  0  0  0  0  0  0
  -63.3376   39.1545  -31.8171 C   0  0  0  0  0  0  0  0  0  0  0  0
  -61.6102   39.3398  -29.6984 C   0  0  0  0  0  0  0  0  0  0  0  0
  -61.5646   40.2633  -30.7299 C   0  0  0  0  0  0  0  0  0  0  0  0
  -62.4291   40.1794  -31.8006 C   0  0  0  0  0  0  0  0  0  0  0  0
  1  4  2  0
  1  5  2  0
  6  1  1  0
  1  9  1  6
 20  2  2  0
 14  3  2  0
  7  6  1  0
  8  7  2  0
 10  7  1  0
 13  8  1  0
 10  9  1  0
 11 10  2  0
 12 11  1  0
 12 13  2  0
 14 12  1  0
 15 14  1  0
 15 16  1  0
 18 15  1  0
 16 17  1  0
 17 24  1  0
 19 18  1  0
 19 20  1  0
 19 24  2  0
 20 21  1  0
 21 22  2  0
 22 23  1  0
 22 25  1  0
 23 24  1  0
 25 26  2  0
 25 28  1  0
 26 27  1  0
 27 30  2  0
 28 29  2  0
 29 30  1  0
M  END
$$$$
