
     RDKit          3D

 30 34  0  0  0  0  0  0  0  0999 V2000
  -63.2633   25.6754  -30.8427 S   0  0  1  0  0  6  0  0  0  0  0  0
  -61.7495   33.8479  -24.1610 O   0  0  0  0  0  0  0  0  0  0  0  0
  -62.3752   28.7341  -24.4509 O   0  0  0  0  0  0  0  0  0  0  0  0
  -62.5231   24.8043  -31.7882 O   0  0  0  0  0  0  0  0  0  0  0  0
  -64.4982   26.2914  -31.3943 O   0  0  0  0  0  0  0  0  0  0  0  0
  -63.6124   24.8525  -29.3381 N   0  0  0  0  0  0  0  0  0  0  0  0
  -63.4430   25.8692  -28.3553 C   0  0  0  0  0  0  0  0  0  0  0  0
  -63.9740   25.7953  -27.0540 C   0  0  0  0  0  0  0  0  0  0  0  0
  -62.2089   26.9377  -30.1139 C   0  0  0  0  0  0  0  0  0  0  0  0
  -62.7327   26.9387  -28.7226 C   0  0  0  0  0  0  0  0  0  0  0  0
  -62.5310   27.9772  -27.7896 C   0  0  0  0  0  0  0  0  0  0  0  0
  -63.0488   27.9107  -26.5161 C   0  0  0  0  0  0  0  0  0  0  0  0
  -63.7743   26.8227  -26.1333 C   0  0  0  0  0  0  0  0  0  0  0  0
  -62.7973   29.0185  -25.6261 C   0  0  0  0  0  0  0  0  0  0  0  0
  -63.0146   30.3521  -26.0479 N   0  0  0  0  0  0  0  0  0  0  0  0
  -63.4090   30.5623  -27.4091 C   0  0  0  0  0  0  0  0  0  0  0  0
  -64.3877   31.7078  -27.4821 C   0  0  0  0  0  0  0  0  0  0  0  0
  -62.8298   31.4250  -25.1232 C   0  0  0  0  0  0  0  0  0  0  0  0
  -63.0092   32.7621  -25.7404 C   0  0  0  0  0  0  0  0  0  0  0  0
  -62.4464   33.9215  -25.2138 C   0  0  0  0  0  0  0  0  0  0  0  0
  -62.6221   35.1165  -25.7917 N   0  0  0  0  0  0  0  0  0  0  0  0
  -63.3634   35.2169  -26.9164 C   0  0  0  0  0  0  0  0  0  0  0  0
  -63.9098   34.1012  -27.4305 N   0  0  0  0  0  0  0  0  0  0  0  0
  -63.7568   32.8925  -26.8825 C   0  0  0  0  0  0  0  0  0  0  0  0
  -63.5620   36.4960  -27.5698 C   0  0  0  0  0  0  0  0  0  0  0  0
  -62.9083   37.6433  -27.2420 C   0  0  0  0  0  0  0  0  0  0  0  0
  -63.1420   38.8465  -27.9297 C   0  0  0  0  0  0  0  0  0  0  0  0
  -64.4832   36.5611  -28.6264 C   0  0  0  0  0  0  0  0  0  0  0  0
  -64.7115   37.7481  -29.3029 C   0  0  0  0  0  0  0  0  0  0  0  0
  -64.0422   38.9038  -28.9605 C   0  0  0  0  0  0  0  0  0  0  0  0
  1  4  2  0
  1  5  2  0
  6  1  1  0
  1  9  1  1
 20  2  2  0
 14  3  2  0
  7  6  1  0
  8  7  2  0
 10  7  1  0
 13  8  1  0
 10  9  1  0
 11 10  2  0
 12 11  1  0
 12 13  2  0
 14 12  1  0
 15 14  1  0
 15 16  1  0
 18 15  1  0
 16 17  1  0
 17 24  1  0
 19 18  1  0
 19 20  1  0
 19 24  2  0
 20 21  1  0
 21 22  2  0
 22 23  1  0
 22 25  1  0
 23 24  1  0
 25 26  2  0
 25 28  1  0
 26 27  1  0
 27 30  2  0
 28 29  2  0
 29 30  1  0
M  END
$$$$
