
     RDKit          3D

 30 34  0  0  0  0  0  0  0  0999 V2000
  -69.6178   28.9685  -24.9566 S   0  0  1  0  0  6  0  0  0  0  0  0
  -63.5251   32.3374  -30.2753 O   0  0  0  0  0  0  0  0  0  0  0  0
  -63.0471   30.6977  -24.3285 O   0  0  0  0  0  0  0  0  0  0  0  0
  -70.9949   29.0669  -25.4658 O   0  0  0  0  0  0  0  0  0  0  0  0
  -69.4866   28.3817  -23.5844 O   0  0  0  0  0  0  0  0  0  0  0  0
  -68.5467   28.1405  -26.0631 N   0  0  0  0  0  0  0  0  0  0  0  0
  -67.3083   28.8239  -25.9516 C   0  0  0  0  0  0  0  0  0  0  0  0
  -66.0714   28.3099  -26.2926 C   0  0  0  0  0  0  0  0  0  0  0  0
  -68.7391   30.5416  -25.0719 C   0  0  0  0  0  0  0  0  0  0  0  0
  -67.3738   30.0658  -25.4569 C   0  0  0  0  0  0  0  0  0  0  0  0
  -66.1919   30.8122  -25.2982 C   0  0  0  0  0  0  0  0  0  0  0  0
  -64.9429   30.3536  -25.6172 C   0  0  0  0  0  0  0  0  0  0  0  0
  -64.9221   29.0401  -26.1338 C   0  0  0  0  0  0  0  0  0  0  0  0
  -63.6969   31.0558  -25.4541 C   0  0  0  0  0  0  0  0  0  0  0  0
  -63.0073   32.0196  -26.1670 N   0  0  0  0  0  0  0  0  0  0  0  0
  -62.1495   33.0649  -25.7132 C   0  0  0  0  0  0  0  0  0  0  0  0
  -62.7505   34.4359  -26.0592 C   0  0  0  0  0  0  0  0  0  0  0  0
  -63.1388   31.9312  -27.6365 C   0  0  0  0  0  0  0  0  0  0  0  0
  -63.1656   33.2717  -28.2288 C   0  0  0  0  0  0  0  0  0  0  0  0
  -63.3635   33.3971  -29.6205 C   0  0  0  0  0  0  0  0  0  0  0  0
  -63.3737   34.6049  -30.1740 N   0  0  0  0  0  0  0  0  0  0  0  0
  -63.2024   35.7651  -29.4843 C   0  0  0  0  0  0  0  0  0  0  0  0
  -63.0167   35.6301  -28.1654 N   0  0  0  0  0  0  0  0  0  0  0  0
  -62.9939   34.4487  -27.5408 C   0  0  0  0  0  0  0  0  0  0  0  0
  -63.2007   37.0362  -30.2137 C   0  0  0  0  0  0  0  0  0  0  0  0
  -63.2085   38.2010  -29.4487 C   0  0  0  0  0  0  0  0  0  0  0  0
  -63.2353   39.4476  -30.0221 C   0  0  0  0  0  0  0  0  0  0  0  0
  -63.2184   37.1480  -31.5741 C   0  0  0  0  0  0  0  0  0  0  0  0
  -63.2463   38.4195  -32.1470 C   0  0  0  0  0  0  0  0  0  0  0  0
  -63.2564   39.5750  -31.4041 C   0  0  0  0  0  0  0  0  0  0  0  0
  1  4  2  0
  1  5  2  0
  1  6  1  6
  9  1  1  0
 20  2  2  0
 14  3  2  0
  7  6  1  0
  8  7  2  0
 10  7  1  0
 13  8  1  0
  9 10  1  6
 11 10  2  0
 12 11  1  0
 12 13  2  0
 14 12  1  0
 15 14  1  0
 16 15  1  1
 18 15  1  1
 16 17  1  0
 17 24  1  6
 19 18  1  0
 19 20  1  0
 19 24  2  0
 20 21  1  0
 21 22  2  0
 22 23  1  0
 22 25  1  0
 23 24  1  0
 25 26  2  0
 25 28  1  0
 26 27  1  0
 27 30  2  0
 28 29  2  0
 29 30  1  0
M  END
$$$$
