
     RDKit          3D

 30 34  0  0  0  0  0  0  0  0999 V2000
  -67.7055   32.7911  -22.0924 S   0  0  1  0  0  6  0  0  0  0  0  0
  -61.8385   31.2006  -30.9053 O   0  0  0  0  0  0  0  0  0  0  0  0
  -62.7123   29.6227  -26.0785 O   0  0  0  0  0  0  0  0  0  0  0  0
  -69.0181   32.4728  -21.4787 O   0  0  0  0  0  0  0  0  0  0  0  0
  -67.3413   34.2318  -22.0804 O   0  0  0  0  0  0  0  0  0  0  0  0
  -66.4153   31.8306  -21.4026 N   0  0  0  0  0  0  0  0  0  0  0  0
  -65.5807   31.5423  -22.5199 C   0  0  0  0  0  0  0  0  0  0  0  0
  -64.2403   31.1278  -22.4085 C   0  0  0  0  0  0  0  0  0  0  0  0
  -67.5533   32.1235  -23.7560 C   0  0  0  0  0  0  0  0  0  0  0  0
  -66.1343   31.6813  -23.7271 C   0  0  0  0  0  0  0  0  0  0  0  0
  -65.3551   31.4080  -24.8707 C   0  0  0  0  0  0  0  0  0  0  0  0
  -64.0437   31.0034  -24.7677 C   0  0  0  0  0  0  0  0  0  0  0  0
  -63.4714   30.8586  -23.5396 C   0  0  0  0  0  0  0  0  0  0  0  0
  -63.3179   30.7476  -25.9886 C   0  0  0  0  0  0  0  0  0  0  0  0
  -63.2853   31.7076  -27.0282 N   0  0  0  0  0  0  0  0  0  0  0  0
  -64.1149   32.8672  -26.8878 C   0  0  0  0  0  0  0  0  0  0  0  0
  -63.4057   34.0700  -27.4584 C   0  0  0  0  0  0  0  0  0  0  0  0
  -62.4486   31.4901  -28.1652 C   0  0  0  0  0  0  0  0  0  0  0  0
  -62.5936   32.5400  -29.2034 C   0  0  0  0  0  0  0  0  0  0  0  0
  -62.2746   32.3309  -30.5424 C   0  0  0  0  0  0  0  0  0  0  0  0
  -62.4166   33.2953  -31.4604 N   0  0  0  0  0  0  0  0  0  0  0  0
  -62.8802   34.5098  -31.0934 C   0  0  0  0  0  0  0  0  0  0  0  0
  -63.1903   34.7186  -29.8020 N   0  0  0  0  0  0  0  0  0  0  0  0
  -63.0620   33.7817  -28.8583 C   0  0  0  0  0  0  0  0  0  0  0  0
  -63.0542   35.5697  -32.0675 C   0  0  0  0  0  0  0  0  0  0  0  0
  -63.0494   35.3910  -33.4162 C   0  0  0  0  0  0  0  0  0  0  0  0
  -63.2383   36.4655  -34.3023 C   0  0  0  0  0  0  0  0  0  0  0  0
  -63.2561   36.8749  -31.5932 C   0  0  0  0  0  0  0  0  0  0  0  0
  -63.4425   37.9321  -32.4686 C   0  0  0  0  0  0  0  0  0  0  0  0
  -63.4353   37.7373  -33.8334 C   0  0  0  0  0  0  0  0  0  0  0  0
  1  4  2  0
  1  5  2  0
  6  1  1  0
  1  9  1  6
 20  2  2  0
 14  3  2  0
  7  6  1  0
  8  7  2  0
 10  7  1  0
 13  8  1  0
 10  9  1  0
 11 10  2  0
 12 11  1  0
 12 13  2  0
 14 12  1  0
 15 14  1  0
 15 16  1  0
 18 15  1  0
 16 17  1  0
 17 24  1  0
 19 18  1  0
 19 20  1  0
 19 24  2  0
 20 21  1  0
 21 22  2  0
 22 23  1  0
 22 25  1  0
 23 24  1  0
 25 26  2  0
 25 28  1  0
 26 27  1  0
 27 30  2  0
 28 29  2  0
 29 30  1  0
M  END
$$$$
