
     RDKit          3D

 30 34  0  0  0  0  0  0  0  0999 V2000
  -68.1861   24.7849  -29.7917 S   0  0  1  0  0  6  0  0  0  0  0  0
  -63.3234   30.5823  -23.7902 O   0  0  0  0  0  0  0  0  0  0  0  0
  -62.0598   26.1808  -26.7260 O   0  0  0  0  0  0  0  0  0  0  0  0
  -69.3248   25.1127  -30.6843 O   0  0  0  0  0  0  0  0  0  0  0  0
  -68.4448   23.6872  -28.8238 O   0  0  0  0  0  0  0  0  0  0  0  0
  -66.7218   24.4675  -30.6961 N   0  0  0  0  0  0  0  0  0  0  0  0
  -65.7008   25.0498  -29.8919 C   0  0  0  0  0  0  0  0  0  0  0  0
  -64.3358   24.7261  -30.0054 C   0  0  0  0  0  0  0  0  0  0  0  0
  -67.5546   26.2353  -28.9351 C   0  0  0  0  0  0  0  0  0  0  0  0
  -66.0962   25.9522  -28.9904 C   0  0  0  0  0  0  0  0  0  0  0  0
  -65.1280   26.5633  -28.1666 C   0  0  0  0  0  0  0  0  0  0  0  0
  -63.7920   26.2498  -28.2726 C   0  0  0  0  0  0  0  0  0  0  0  0
  -63.3802   25.3305  -29.1902 C   0  0  0  0  0  0  0  0  0  0  0  0
  -62.8689   26.9201  -27.3887 C   0  0  0  0  0  0  0  0  0  0  0  0
  -62.8722   28.3306  -27.2698 N   0  0  0  0  0  0  0  0  0  0  0  0
  -62.3440   29.0905  -28.3635 C   0  0  0  0  0  0  0  0  0  0  0  0
  -63.1433   30.3586  -28.5323 C   0  0  0  0  0  0  0  0  0  0  0  0
  -63.3847   28.9388  -26.0835 C   0  0  0  0  0  0  0  0  0  0  0  0
  -63.2367   30.4149  -26.0760 C   0  0  0  0  0  0  0  0  0  0  0  0
  -63.2130   31.1683  -24.9055 C   0  0  0  0  0  0  0  0  0  0  0  0
  -63.0764   32.5002  -24.9264 N   0  0  0  0  0  0  0  0  0  0  0  0
  -62.9576   33.1454  -26.1071 C   0  0  0  0  0  0  0  0  0  0  0  0
  -62.9795   32.4241  -27.2414 N   0  0  0  0  0  0  0  0  0  0  0  0
  -63.1142   31.0950  -27.2604 C   0  0  0  0  0  0  0  0  0  0  0  0
  -62.7976   34.5856  -26.1598 C   0  0  0  0  0  0  0  0  0  0  0  0
  -62.6246   35.3863  -25.0735 C   0  0  0  0  0  0  0  0  0  0  0  0
  -62.4619   36.7764  -25.2014 C   0  0  0  0  0  0  0  0  0  0  0  0
  -62.8073   35.2047  -27.4191 C   0  0  0  0  0  0  0  0  0  0  0  0
  -62.6463   36.5751  -27.5425 C   0  0  0  0  0  0  0  0  0  0  0  0
  -62.4718   37.3751  -26.4333 C   0  0  0  0  0  0  0  0  0  0  0  0
  1  4  2  0
  1  5  2  0
  6  1  1  0
  1  9  1  1
 20  2  2  0
 14  3  2  0
  7  6  1  0
  8  7  2  0
 10  7  1  0
 13  8  1  0
 10  9  1  0
 11 10  2  0
 12 11  1  0
 12 13  2  0
 14 12  1  0
 15 14  1  0
 15 16  1  0
 18 15  1  0
 16 17  1  0
 17 24  1  0
 19 18  1  0
 19 20  1  0
 19 24  2  0
 20 21  1  0
 21 22  2  0
 22 23  1  0
 22 25  1  0
 23 24  1  0
 25 26  2  0
 25 28  1  0
 26 27  1  0
 27 30  2  0
 28 29  2  0
 29 30  1  0
M  END
$$$$
