
     RDKit          3D

 30 34  0  0  0  0  0  0  0  0999 V2000
  -67.5712   32.4385  -20.0725 S   0  0  1  0  0  6  0  0  0  0  0  0
  -62.8905   28.5799  -27.3682 O   0  0  0  0  0  0  0  0  0  0  0  0
  -61.9525   32.8190  -23.5104 O   0  0  0  0  0  0  0  0  0  0  0  0
  -68.1511   33.0974  -18.8765 O   0  0  0  0  0  0  0  0  0  0  0  0
  -67.9689   31.0190  -20.2602 O   0  0  0  0  0  0  0  0  0  0  0  0
  -67.8764   33.3551  -21.5318 N   0  0  0  0  0  0  0  0  0  0  0  0
  -66.6726   33.2045  -22.2777 C   0  0  0  0  0  0  0  0  0  0  0  0
  -66.5764   33.4365  -23.6625 C   0  0  0  0  0  0  0  0  0  0  0  0
  -65.7803   32.5975  -20.1346 C   0  0  0  0  0  0  0  0  0  0  0  0
  -65.5923   32.8222  -21.5921 C   0  0  0  0  0  0  0  0  0  0  0  0
  -64.3711   32.6580  -22.2788 C   0  0  0  0  0  0  0  0  0  0  0  0
  -64.2716   32.8826  -23.6330 C   0  0  0  0  0  0  0  0  0  0  0  0
  -65.3691   33.2733  -24.3398 C   0  0  0  0  0  0  0  0  0  0  0  0
  -62.9849   32.6884  -24.2570 C   0  0  0  0  0  0  0  0  0  0  0  0
  -62.8861   32.3707  -25.6328 N   0  0  0  0  0  0  0  0  0  0  0  0
  -63.1411   33.4183  -26.5763 C   0  0  0  0  0  0  0  0  0  0  0  0
  -62.2218   33.2669  -27.7626 C   0  0  0  0  0  0  0  0  0  0  0  0
  -62.5494   31.0403  -26.0288 C   0  0  0  0  0  0  0  0  0  0  0  0
  -62.5730   30.8476  -27.4996 C   0  0  0  0  0  0  0  0  0  0  0  0
  -62.7467   29.6027  -28.0981 C   0  0  0  0  0  0  0  0  0  0  0  0
  -62.7661   29.4562  -29.4290 N   0  0  0  0  0  0  0  0  0  0  0  0
  -62.6138   30.5357  -30.2264 C   0  0  0  0  0  0  0  0  0  0  0  0
  -62.4457   31.7411  -29.6551 N   0  0  0  0  0  0  0  0  0  0  0  0
  -62.4208   31.9264  -28.3323 C   0  0  0  0  0  0  0  0  0  0  0  0
  -62.6412   30.4088  -31.6706 C   0  0  0  0  0  0  0  0  0  0  0  0
  -62.8601   31.4366  -32.5347 C   0  0  0  0  0  0  0  0  0  0  0  0
  -62.8588   31.2417  -33.9266 C   0  0  0  0  0  0  0  0  0  0  0  0
  -62.4130   29.1404  -32.2258 C   0  0  0  0  0  0  0  0  0  0  0  0
  -62.4119   28.9510  -33.5980 C   0  0  0  0  0  0  0  0  0  0  0  0
  -62.6351   30.0013  -34.4628 C   0  0  0  0  0  0  0  0  0  0  0  0
  1  4  2  0
  1  5  2  0
  6  1  1  0
  1  9  1  1
 20  2  2  0
 14  3  2  0
  7  6  1  0
  8  7  2  0
 10  7  1  0
 13  8  1  0
 10  9  1  0
 11 10  2  0
 12 11  1  0
 12 13  2  0
 14 12  1  0
 15 14  1  0
 15 16  1  0
 18 15  1  0
 16 17  1  0
 17 24  1  0
 19 18  1  0
 19 20  1  0
 19 24  2  0
 20 21  1  0
 21 22  2  0
 22 23  1  0
 22 25  1  0
 23 24  1  0
 25 26  2  0
 25 28  1  0
 26 27  1  0
 27 30  2  0
 28 29  2  0
 29 30  1  0
M  END
$$$$
