
     RDKit          3D

 30 34  0  0  0  0  0  0  0  0999 V2000
  -57.2192   26.5017  -30.4450 S   0  0  1  0  0  6  0  0  0  0  0  0
  -66.1150   29.4421  -24.3413 O   0  0  0  0  0  0  0  0  0  0  0  0
  -62.6674   27.5408  -26.7400 O   0  0  0  0  0  0  0  0  0  0  0  0
  -56.5946   25.4377  -31.2471 O   0  0  0  0  0  0  0  0  0  0  0  0
  -56.2638   27.3717  -29.6868 O   0  0  0  0  0  0  0  0  0  0  0  0
  -58.3163   27.4938  -31.3773 N   0  0  0  0  0  0  0  0  0  0  0  0
  -59.3821   27.7919  -30.4894 C   0  0  0  0  0  0  0  0  0  0  0  0
  -60.2578   28.8544  -30.6105 C   0  0  0  0  0  0  0  0  0  0  0  0
  -58.5099   25.8607  -29.3573 C   0  0  0  0  0  0  0  0  0  0  0  0
  -59.5169   26.9638  -29.4466 C   0  0  0  0  0  0  0  0  0  0  0  0
  -60.5390   27.1924  -28.5073 C   0  0  0  0  0  0  0  0  0  0  0  0
  -61.4313   28.2273  -28.5767 C   0  0  0  0  0  0  0  0  0  0  0  0
  -61.2506   29.0746  -29.6912 C   0  0  0  0  0  0  0  0  0  0  0  0
  -62.4786   28.5296  -27.6367 C   0  0  0  0  0  0  0  0  0  0  0  0
  -63.3490   29.5855  -27.4357 N   0  0  0  0  0  0  0  0  0  0  0  0
  -63.4273   30.8527  -28.0857 C   0  0  0  0  0  0  0  0  0  0  0  0
  -63.1491   31.9838  -27.0839 C   0  0  0  0  0  0  0  0  0  0  0  0
  -64.3961   29.3543  -26.4186 C   0  0  0  0  0  0  0  0  0  0  0  0
  -64.6746   30.5905  -25.6818 C   0  0  0  0  0  0  0  0  0  0  0  0
  -65.5953   30.5530  -24.6128 C   0  0  0  0  0  0  0  0  0  0  0  0
  -65.8703   31.6690  -23.9464 N   0  0  0  0  0  0  0  0  0  0  0  0
  -65.3185   32.8816  -24.2221 C   0  0  0  0  0  0  0  0  0  0  0  0
  -64.4467   32.9011  -25.2379 N   0  0  0  0  0  0  0  0  0  0  0  0
  -64.1224   31.8192  -25.9525 C   0  0  0  0  0  0  0  0  0  0  0  0
  -65.7278   34.0483  -23.4353 C   0  0  0  0  0  0  0  0  0  0  0  0
  -65.0919   35.2549  -23.7211 C   0  0  0  0  0  0  0  0  0  0  0  0
  -65.3738   36.4069  -23.0306 C   0  0  0  0  0  0  0  0  0  0  0  0
  -66.6595   34.0211  -22.4380 C   0  0  0  0  0  0  0  0  0  0  0  0
  -66.9383   35.1972  -21.7418 C   0  0  0  0  0  0  0  0  0  0  0  0
  -66.3170   36.3922  -22.0124 C   0  0  0  0  0  0  0  0  0  0  0  0
  1  4  2  0
  1  5  2  0
  1  6  1  6
  9  1  1  0
 20  2  2  0
 14  3  2  0
  7  6  1  0
  8  7  2  0
 10  7  1  0
 13  8  1  0
  9 10  1  6
 11 10  2  0
 12 11  1  0
 12 13  2  0
 14 12  1  0
 15 14  1  0
 16 15  1  1
 18 15  1  1
 16 17  1  0
 17 24  1  6
 19 18  1  0
 19 20  1  0
 19 24  2  0
 20 21  1  0
 21 22  2  0
 22 23  1  0
 22 25  1  0
 23 24  1  0
 25 26  2  0
 25 28  1  0
 26 27  1  0
 27 30  2  0
 28 29  2  0
 29 30  1  0
M  END
$$$$
