
     RDKit          3D

 30 34  0  0  0  0  0  0  0  0999 V2000
  -60.5103   25.2302  -26.8137 S   0  0  1  0  0  6  0  0  0  0  0  0
  -63.0082   32.7741  -30.1835 O   0  0  0  0  0  0  0  0  0  0  0  0
  -65.2367   29.6859  -25.4344 O   0  0  0  0  0  0  0  0  0  0  0  0
  -59.5981   24.5678  -27.7780 O   0  0  0  0  0  0  0  0  0  0  0  0
  -61.0789   24.3347  -25.7728 O   0  0  0  0  0  0  0  0  0  0  0  0
  -59.7671   26.6308  -26.0728 N   0  0  0  0  0  0  0  0  0  0  0  0
  -60.8386   27.5639  -25.9752 C   0  0  0  0  0  0  0  0  0  0  0  0
  -60.8296   28.6780  -25.1151 C   0  0  0  0  0  0  0  0  0  0  0  0
  -61.8245   26.1417  -27.6373 C   0  0  0  0  0  0  0  0  0  0  0  0
  -61.8953   27.3401  -26.7603 C   0  0  0  0  0  0  0  0  0  0  0  0
  -62.9862   28.2326  -26.7072 C   0  0  0  0  0  0  0  0  0  0  0  0
  -62.9832   29.3231  -25.8673 C   0  0  0  0  0  0  0  0  0  0  0  0
  -61.9086   29.5589  -25.0634 C   0  0  0  0  0  0  0  0  0  0  0  0
  -64.1416   30.1838  -25.8739 C   0  0  0  0  0  0  0  0  0  0  0  0
  -64.0546   31.5141  -26.3496 N   0  0  0  0  0  0  0  0  0  0  0  0
  -64.6959   32.5380  -25.5796 C   0  0  0  0  0  0  0  0  0  0  0  0
  -63.8695   33.7991  -25.6252 C   0  0  0  0  0  0  0  0  0  0  0  0
  -63.3507   31.7866  -27.5622 C   0  0  0  0  0  0  0  0  0  0  0  0
  -63.4261   33.2108  -27.9710 C   0  0  0  0  0  0  0  0  0  0  0  0
  -63.2478   33.6322  -29.2858 C   0  0  0  0  0  0  0  0  0  0  0  0
  -63.3228   34.9244  -29.6288 N   0  0  0  0  0  0  0  0  0  0  0  0
  -63.5771   35.8568  -28.6852 C   0  0  0  0  0  0  0  0  0  0  0  0
  -63.7505   35.4568  -27.4134 N   0  0  0  0  0  0  0  0  0  0  0  0
  -63.6830   34.1777  -27.0334 C   0  0  0  0  0  0  0  0  0  0  0  0
  -63.6745   37.2621  -29.0291 C   0  0  0  0  0  0  0  0  0  0  0  0
  -63.9409   38.2598  -28.1434 C   0  0  0  0  0  0  0  0  0  0  0  0
  -64.0068   39.6046  -28.5467 C   0  0  0  0  0  0  0  0  0  0  0  0
  -63.4670   37.6295  -30.3674 C   0  0  0  0  0  0  0  0  0  0  0  0
  -63.5321   38.9557  -30.7622 C   0  0  0  0  0  0  0  0  0  0  0  0
  -63.8030   39.9574  -29.8544 C   0  0  0  0  0  0  0  0  0  0  0  0
  1  4  2  0
  1  5  2  0
  6  1  1  0
  1  9  1  6
 20  2  2  0
 14  3  2  0
  7  6  1  0
  8  7  2  0
 10  7  1  0
 13  8  1  0
 10  9  1  0
 11 10  2  0
 12 11  1  0
 12 13  2  0
 14 12  1  0
 15 14  1  0
 15 16  1  0
 18 15  1  0
 16 17  1  0
 17 24  1  0
 19 18  1  0
 19 20  1  0
 19 24  2  0
 20 21  1  0
 21 22  2  0
 22 23  1  0
 22 25  1  0
 23 24  1  0
 25 26  2  0
 25 28  1  0
 26 27  1  0
 27 30  2  0
 28 29  2  0
 29 30  1  0
M  END
$$$$
