
     RDKit          3D

112119  0  0  0  0  0  0  0  0999 V2000
   55.3839   16.8748  114.8141 N   0  0  0  0  0  0  0  0  0  0  0  0
   55.7730   17.7707  113.7570 C   0  0  2  0  0  0  0  0  0  0  0  0
   54.9661   17.5976  112.5373 C   0  0  0  0  0  0  0  0  0  0  0  0
   53.8715   18.2026  112.4419 O   0  0  0  0  0  0  0  0  0  0  0  0
   55.3862   16.7605  111.4511 N   0  0  0  0  0  0  0  0  0  0  0  0
   56.7878   16.6686  111.0741 C   0  0  2  0  0  0  0  0  0  0  0  0
   57.3385   17.9810  110.6810 C   0  0  0  0  0  0  0  0  0  0  0  0
   58.4778   18.2908  111.1873 O   0  0  0  0  0  0  0  0  0  0  0  0
   57.0008   15.5799  110.0773 C   0  0  0  0  0  0  0  0  0  0  0  0
   56.4803   14.2834  110.6085 C   0  0  0  0  0  0  0  0  0  0  0  0
   57.3632   13.5819  111.5856 C   0  0  0  0  0  0  0  0  0  0  0  0
   57.4917   12.1990  111.0925 N   0  0  0  0  0  0  0  0  0  0  0  0
   57.6439   11.0963  111.9874 C   0  0  0  0  0  0  0  0  0  0  0  0
   58.0128    9.9576  111.4888 N   0  0  0  0  0  0  0  0  0  0  0  0
   57.4071   11.2193  113.3764 N   0  0  0  0  0  0  0  0  0  0  0  0
   56.7718   18.9331  109.8247 N   0  0  0  0  0  0  0  0  0  0  0  0
   55.7067   18.7292  108.8622 C   0  0  2  0  0  0  0  0  0  0  0  0
   56.1581   18.2011  107.5560 C   0  0  0  0  0  0  0  0  0  0  0  0
   55.4590   17.2107  107.0889 O   0  0  0  0  0  0  0  0  0  0  0  0
   54.8468   19.9746  108.7469 C   0  0  0  0  0  0  0  0  0  0  0  0
   53.1367   19.4944  108.5799 S   0  0  0  0  0  0  0  0  0  0  0  0
   57.2163   18.6092  106.7624 N   0  0  0  0  0  0  0  0  0  0  0  0
   57.4402   19.9125  106.1254 C   0  0  2  0  0  0  0  0  0  0  0  0
   58.0455   19.6747  104.7826 C   0  0  0  0  0  0  0  0  0  0  0  0
   59.1719   19.0511  104.8921 O   0  0  0  0  0  0  0  0  0  0  0  0
   58.4276   20.7479  106.9124 C   0  0  0  0  0  0  0  0  0  0  0  0
   59.1604   21.7544  106.1609 C   0  0  0  0  0  0  0  0  0  0  0  0
   59.3131   23.0400  106.6293 C   0  0  0  0  0  0  0  0  0  0  0  0
   59.7340   21.5231  104.8991 C   0  0  0  0  0  0  0  0  0  0  0  0
   59.9661   24.0401  105.9471 C   0  0  0  0  0  0  0  0  0  0  0  0
   60.3861   22.4994  104.2036 C   0  0  0  0  0  0  0  0  0  0  0  0
   60.5145   23.7761  104.7134 C   0  0  0  0  0  0  0  0  0  0  0  0
   61.1859   24.7783  103.9964 O   0  0  0  0  0  0  0  0  0  0  0  0
   57.5622   20.0286  103.5189 N   0  0  0  0  0  0  0  0  0  0  0  0
   56.3833   19.6350  102.8223 C   0  0  2  0  0  0  0  0  0  0  0  0
   55.3178   20.6972  102.8072 C   0  0  0  0  0  0  0  0  0  0  0  0
   55.0844   21.2674  103.8849 O   0  0  0  0  0  0  0  0  0  0  0  0
   55.7956   18.3169  103.2257 C   0  0  0  0  0  0  0  0  0  0  0  0
   56.7352   17.3391  103.7690 C   0  0  0  0  0  0  0  0  0  0  0  0
   57.8110   16.7317  102.9913 C   0  0  0  0  0  0  0  0  0  0  0  0
   57.6378   15.5237  102.1782 C   0  0  0  0  0  0  0  0  0  0  0  0
   58.5428   14.4337  102.4379 N   0  0  0  0  0  4  0  0  0  0  0  0
   54.5867   21.0701  101.6619 N   0  0  0  0  0  0  0  0  0  0  0  0
   55.1552   21.4131  100.3743 C   0  0  2  0  0  0  0  0  0  0  0  0
   54.4916   22.5770   99.7327 C   0  0  0  0  0  0  0  0  0  0  0  0
   55.1837   23.0883   98.7870 O   0  0  0  0  0  0  0  0  0  0  0  0
   54.9522   20.2485   99.3845 C   0  0  0  0  0  0  0  0  0  0  0  0
   53.6269   19.8255   99.4088 O   0  0  0  0  0  0  0  0  0  0  0  0
   53.2601   23.1499  100.0237 N   0  0  0  0  0  0  0  0  0  0  0  0
   52.7939   23.7725  101.2460 C   0  0  2  0  0  0  0  0  0  0  0  0
   51.3658   23.3849  101.4328 C   0  0  0  0  0  0  0  0  0  0  0  0
   50.9936   22.2957  100.8348 O   0  0  0  0  0  0  0  0  0  0  0  0
   52.9367   25.2654  101.2192 C   0  0  2  0  0  0  0  0  0  0  0  0
   54.1773   25.7894  100.5624 C   0  0  0  0  0  0  0  0  0  0  0  0
   52.7461   25.8621  102.6061 C   0  0  0  0  0  0  0  0  0  0  0  0
   54.2789   27.2511  100.3518 C   0  0  0  0  0  0  0  0  0  0  0  0
   50.3670   24.0412  102.1693 N   0  0  0  0  0  0  0  0  0  0  0  0
   50.4893   24.4841  103.5700 C   0  0  2  0  0  0  0  0  0  0  0  0
   49.7152   23.5082  104.3918 C   0  0  0  0  0  0  0  0  0  0  0  0
   49.8797   22.2706  104.0511 O   0  0  0  0  0  0  0  0  0  0  0  0
   49.8923   25.8405  103.5365 C   0  0  0  0  0  0  0  0  0  0  0  0
   48.9226   25.8305  102.3499 C   0  0  0  0  0  0  0  0  0  0  0  0
   48.9966   24.4180  101.8261 C   0  0  0  0  0  0  0  0  0  0  0  0
   48.8599   23.8396  105.4580 N   0  0  0  0  0  0  0  0  0  0  0  0
   49.1625   24.6749  106.5914 C   0  0  2  0  0  0  0  0  0  0  0  0
   49.4658   23.7870  107.7530 C   0  0  0  0  0  0  0  0  0  0  0  0
   49.8576   22.6091  107.4577 O   0  0  0  0  0  0  0  0  0  0  0  0
   47.8740   25.4333  106.7934 C   0  0  0  0  0  0  0  0  0  0  0  0
   46.8369   24.7983  105.8820 C   0  0  0  0  0  0  0  0  0  0  0  0
   47.4647   23.4132  105.6970 C   0  0  0  0  0  0  0  0  0  0  0  0
   49.3589   24.1284  109.1067 N   0  0  0  0  0  0  0  0  0  0  0  0
   49.9252   25.2943  109.7534 C   0  0  2  0  0  0  0  0  0  0  0  0
   51.1583   25.1052  110.4956 C   0  0  0  0  0  0  0  0  0  0  0  0
   51.7912   26.2291  110.7074 O   0  0  0  0  0  0  0  0  0  0  0  0
   48.8616   25.9336  110.5936 C   0  0  2  0  0  0  0  0  0  0  0  0
   48.1505   27.0887  109.9274 C   0  0  0  0  0  0  0  0  0  0  0  0
   49.2196   26.1507  112.0167 C   0  0  0  0  0  0  0  0  0  0  0  0
   48.9213   27.5184  108.6936 C   0  0  0  0  0  0  0  0  0  0  0  0
   51.7940   23.9851  111.0177 N   0  0  0  0  0  0  0  0  0  0  0  0
   51.3833   22.6032  111.0083 C   0  0  2  0  0  0  0  0  0  0  0  0
   50.4534   22.2175  112.0895 C   0  0  0  0  0  0  0  0  0  0  0  0
   49.4894   21.4400  111.6852 O   0  0  0  0  0  0  0  0  0  0  0  0
   52.5623   21.6426  110.9898 C   0  0  0  0  0  0  0  0  0  0  0  0
   52.0551   20.0376  110.3106 S   0  0  0  0  0  0  0  0  0  0  0  0
   50.4598   22.5583  113.4366 N   0  0  0  0  0  0  0  0  0  0  0  0
   51.3330   22.2645  114.5230 C   0  0  2  0  0  0  0  0  0  0  0  0
   50.5136   22.0089  115.7729 C   0  0  0  0  0  0  0  0  0  0  0  0
   49.2859   22.3938  115.6979 O   0  0  0  0  0  0  0  0  0  0  0  0
   52.3445   23.2905  114.8789 C   0  0  0  0  0  0  0  0  0  0  0  0
   51.9008   24.6990  114.8424 C   0  0  0  0  0  0  0  0  0  0  0  0
   52.7422   25.7357  115.1986 C   0  0  0  0  0  0  0  0  0  0  0  0
   50.6131   25.0066  114.4509 C   0  0  0  0  0  0  0  0  0  0  0  0
   52.2583   27.0281  115.1463 C   0  0  0  0  0  0  0  0  0  0  0  0
   50.1137   26.2961  114.3931 C   0  0  0  0  0  0  0  0  0  0  0  0
   50.9708   27.3171  114.7532 C   0  0  0  0  0  0  0  0  0  0  0  0
   50.9732   21.4150  116.9451 N   0  0  0  0  0  0  0  0  0  0  0  0
   52.0492   20.4955  117.1274 C   0  0  2  0  0  0  0  0  0  0  0  0
   51.6400   19.0865  116.8801 C   0  0  0  0  0  0  0  0  0  0  0  0
   50.4279   18.8654  116.6455 O   0  0  0  0  0  0  0  0  0  0  0  0
   52.4788   20.5619  118.5804 C   0  0  0  0  0  0  0  0  0  0  0  0
   51.6124   21.6076  119.1802 C   0  0  0  0  0  0  0  0  0  0  0  0
   50.4094   21.6321  118.3015 C   0  0  0  0  0  0  0  0  0  0  0  0
   52.5728   18.0539  116.9097 N   0  0  0  0  0  0  0  0  0  0  0  0
   53.9098   18.1178  116.3690 C   0  0  2  0  0  0  0  0  0  0  0  0
   54.1915   16.8848  115.5462 C   0  0  0  0  0  0  0  0  0  0  0  0
   53.3680   15.9481  115.5549 O   0  0  0  0  0  0  0  0  0  0  0  0
   54.9918   18.2110  117.4235 C   0  0  0  0  0  0  0  0  0  0  0  0
   54.7437   19.2592  118.4319 C   0  0  0  0  0  0  0  0  0  0  0  0
   54.3504   18.9100  119.7079 O   0  0  0  0  0  0  0  0  0  0  0  0
   54.8847   20.4641  118.1472 O   0  0  0  0  0  0  0  0  0  0  0  0
   56.6019   16.7535  114.1687 O   0  0  0  0  0  0  0  0  0  0  0  0
   58.3256    9.9026  110.4900 H   0  0  0  0  0  0  0  0  0  0  0  0
  1  2  1  0
  1105  1  0
  1111  1  0
  2  3  1  0
  2111  1  6
  3  4  2  0
  3  5  1  0
  5  6  1  0
  6  7  1  0
  6  9  1  6
  7  8  2  0
  7 16  1  0
  9 10  1  0
 10 11  1  0
 11 12  1  0
 12 13  1  0
 13 14  2  0
 13 15  1  0
 17 16  1  1
 17 18  1  0
 17 20  1  0
 18 19  2  0
 18 22  1  0
 20 21  1  0
 21 84  1  0
 22 23  1  0
 23 24  1  0
 23 26  1  1
 24 25  2  0
 24 34  1  0
 26 27  1  0
 27 28  2  0
 27 29  1  0
 28 30  1  0
 29 31  2  0
 30 32  2  0
 31 32  1  0
 32 33  1  0
 34 35  1  0
 35 36  1  0
 35 38  1  1
 36 37  2  0
 36 43  1  0
 38 39  1  0
 39 40  1  0
 40 41  1  0
 41 42  1  0
 43 44  1  0
 44 45  1  0
 44 47  1  6
 45 46  2  0
 45 49  1  0
 47 48  1  0
 50 49  1  6
 50 51  1  0
 50 53  1  0
 51 52  2  0
 51 57  1  0
 53 54  1  0
 53 55  1  1
 54 56  1  0
 57 58  1  0
 57 63  1  0
 58 59  1  0
 58 61  1  6
 59 60  2  0
 59 64  1  0
 61 62  1  0
 62 63  1  0
 64 65  1  0
 64 70  1  0
 65 66  1  0
 65 68  1  1
 66 67  2  0
 66 71  1  0
 68 69  1  0
 69 70  1  0
 72 71  1  1
 72 73  1  0
 72 75  1  0
 73 74  2  0
 73 79  1  0
 75 76  1  0
 75 77  1  1
 76 78  1  0
 80 79  1  1
 80 81  1  0
 80 83  1  0
 81 82  2  0
 81 85  1  0
 83 84  1  0
 85 86  1  0
 86 87  1  0
 86 89  1  1
 87 88  2  0
 87 96  1  0
 89 90  1  0
 90 91  2  0
 90 92  1  0
 91 93  1  0
 92 94  2  0
 93 95  2  0
 94 95  1  0
 96 97  1  0
 96102  1  0
 97 98  1  0
 97100  1  1
 98 99  2  0
 98103  1  0
100101  1  0
101102  1  0
103104  1  0
104105  1  0
104107  1  1
105106  2  0
107108  1  0
108109  1  0
108110  2  0
 14112  1  0
M  CHG  1  42   1
M  END
$$$$
