
     RDKit          3D

112119  0  0  0  0  0  0  0  0999 V2000
   51.5459   21.2761  115.0391 N   0  0  0  0  0  0  0  0  0  0  0  0
   51.1432   21.4741  113.6716 C   0  0  2  0  0  0  0  0  0  0  0  0
   52.2086   22.0633  112.8433 C   0  0  0  0  0  0  0  0  0  0  0  0
   53.0630   21.3063  112.3234 O   0  0  0  0  0  0  0  0  0  0  0  0
   52.3063   23.4747  112.6079 N   0  0  0  0  0  0  0  0  0  0  0  0
   51.1143   24.2923  112.4473 C   0  0  2  0  0  0  0  0  0  0  0  0
   50.2920   23.8468  111.3046 C   0  0  0  0  0  0  0  0  0  0  0  0
   49.0311   23.7364  111.5243 O   0  0  0  0  0  0  0  0  0  0  0  0
   51.4609   25.7429  112.4373 C   0  0  0  0  0  0  0  0  0  0  0  0
   50.5788   26.4918  113.3833 C   0  0  0  0  0  0  0  0  0  0  0  0
   49.1706   26.6948  112.9338 C   0  0  0  0  0  0  0  0  0  0  0  0
   48.3222   26.2768  114.0642 N   0  0  0  0  0  0  0  0  0  0  0  0
   46.9709   26.7214  114.1904 C   0  0  0  0  0  0  0  0  0  0  0  0
   46.0996   26.2588  113.3488 N   0  0  0  0  0  0  0  0  0  0  0  0
   46.5722   27.6347  115.1942 N   0  0  0  0  0  0  0  0  0  0  0  0
   50.7163   23.5271  110.0090 N   0  0  0  0  0  0  0  0  0  0  0  0
   51.9751   23.8800  109.3820 C   0  0  2  0  0  0  0  0  0  0  0  0
   51.9981   25.2306  108.7785 C   0  0  0  0  0  0  0  0  0  0  0  0
   53.0473   25.9436  109.0593 O   0  0  0  0  0  0  0  0  0  0  0  0
   52.4227   22.7847  108.4313 C   0  0  0  0  0  0  0  0  0  0  0  0
   54.1915   22.5870  108.5537 S   0  0  0  0  0  0  0  0  0  0  0  0
   51.0643   25.8425  107.9601 N   0  0  0  0  0  0  0  0  0  0  0  0
   50.6011   25.4364  106.6280 C   0  0  2  0  0  0  0  0  0  0  0  0
   50.4015   26.6685  105.8106 C   0  0  0  0  0  0  0  0  0  0  0  0
   49.5200   27.4410  106.3546 O   0  0  0  0  0  0  0  0  0  0  0  0
   49.2618   24.7340  106.7008 C   0  0  0  0  0  0  0  0  0  0  0  0
   48.6087   24.4619  105.4303 C   0  0  0  0  0  0  0  0  0  0  0  0
   47.2473   24.5926  105.2726 C   0  0  0  0  0  0  0  0  0  0  0  0
   49.2867   24.0139  104.2838 C   0  0  0  0  0  0  0  0  0  0  0  0
   46.5730   24.3169  104.1057 C   0  0  0  0  0  0  0  0  0  0  0  0
   48.6394   23.7339  103.1156 C   0  0  0  0  0  0  0  0  0  0  0  0
   47.2710   23.8795  103.0039 C   0  0  0  0  0  0  0  0  0  0  0  0
   46.6076   23.5914  101.8013 O   0  0  0  0  0  0  0  0  0  0  0  0
   51.0170   27.0450  104.6126 N   0  0  0  0  0  0  0  0  0  0  0  0
   52.3812   27.3179  104.3051 C   0  0  2  0  0  0  0  0  0  0  0  0
   53.0532   26.2088  103.5423 C   0  0  0  0  0  0  0  0  0  0  0  0
   52.8645   25.0539  103.9567 O   0  0  0  0  0  0  0  0  0  0  0  0
   53.2373   27.7471  105.4577 C   0  0  0  0  0  0  0  0  0  0  0  0
   52.9887   29.0922  105.9705 C   0  0  0  0  0  0  0  0  0  0  0  0
   51.6686   29.7148  106.0031 C   0  0  0  0  0  0  0  0  0  0  0  0
   51.4088   31.0828  105.5431 C   0  0  0  0  0  0  0  0  0  0  0  0
   50.0494   31.5498  105.6373 N   0  0  0  0  0  4  0  0  0  0  0  0
   53.8674   26.4061  102.4095 N   0  0  0  0  0  0  0  0  0  0  0  0
   53.5149   27.1932  101.2453 C   0  0  2  0  0  0  0  0  0  0  0  0
   53.9186   26.5577   99.9648 C   0  0  0  0  0  0  0  0  0  0  0  0
   53.3265   27.0599   98.9490 O   0  0  0  0  0  0  0  0  0  0  0  0
   54.2690   28.5377  101.2734 C   0  0  0  0  0  0  0  0  0  0  0  0
   55.3648   28.4894  100.4174 O   0  0  0  0  0  0  0  0  0  0  0  0
   54.8262   25.5286   99.7486 N   0  0  0  0  0  0  0  0  0  0  0  0
   54.8066   24.1609  100.2261 C   0  0  2  0  0  0  0  0  0  0  0  0
   56.2091   23.7809  100.5627 C   0  0  0  0  0  0  0  0  0  0  0  0
   57.0127   24.7646  100.8256 O   0  0  0  0  0  0  0  0  0  0  0  0
   54.2293   23.2107   99.2192 C   0  0  2  0  0  0  0  0  0  0  0  0
   52.9027   23.6003   98.6417 C   0  0  0  0  0  0  0  0  0  0  0  0
   54.2069   21.7865   99.7553 C   0  0  0  0  0  0  0  0  0  0  0  0
   52.8266   24.8745   97.8923 C   0  0  0  0  0  0  0  0  0  0  0  0
   56.7789   22.4999  100.6330 N   0  0  0  0  0  0  0  0  0  0  0  0
   56.2284   21.3596  101.3880 C   0  0  2  0  0  0  0  0  0  0  0  0
   57.0638   21.2227  102.6170 C   0  0  0  0  0  0  0  0  0  0  0  0
   57.3583   22.3435  103.1930 O   0  0  0  0  0  0  0  0  0  0  0  0
   56.3807   20.2340  100.4355 C   0  0  0  0  0  0  0  0  0  0  0  0
   57.5410   20.6309   99.5165 C   0  0  0  0  0  0  0  0  0  0  0  0
   58.0119   21.9532  100.0686 C   0  0  0  0  0  0  0  0  0  0  0  0
   57.5271   20.0087  103.1552 N   0  0  0  0  0  0  0  0  0  0  0  0
   56.7487   18.8354  103.4575 C   0  0  2  0  0  0  0  0  0  0  0  0
   56.4836   18.8217  104.9269 C   0  0  0  0  0  0  0  0  0  0  0  0
   56.5391   19.9570  105.5068 O   0  0  0  0  0  0  0  0  0  0  0  0
   57.6724   17.7146  103.0492 C   0  0  0  0  0  0  0  0  0  0  0  0
   59.0243   18.3401  102.7481 C   0  0  0  0  0  0  0  0  0  0  0  0
   58.8995   19.6345  103.5580 C   0  0  0  0  0  0  0  0  0  0  0  0
   56.1867   17.6958  105.7046 N   0  0  0  0  0  0  0  0  0  0  0  0
   55.1691   16.7007  105.4353 C   0  0  2  0  0  0  0  0  0  0  0  0
   53.9206   16.8170  106.1666 C   0  0  0  0  0  0  0  0  0  0  0  0
   52.9479   16.1494  105.6038 O   0  0  0  0  0  0  0  0  0  0  0  0
   55.7818   15.3420  105.5915 C   0  0  2  0  0  0  0  0  0  0  0  0
   56.0629   14.9451  107.0224 C   0  0  0  0  0  0  0  0  0  0  0  0
   56.8572   15.0138  104.6240 C   0  0  0  0  0  0  0  0  0  0  0  0
   57.2891   15.6833  107.5246 C   0  0  0  0  0  0  0  0  0  0  0  0
   53.5553   17.4876  107.3277 N   0  0  0  0  0  0  0  0  0  0  0  0
   54.3557   18.2859  108.2224 C   0  0  2  0  0  0  0  0  0  0  0  0
   55.1014   17.5248  109.2457 C   0  0  0  0  0  0  0  0  0  0  0  0
   56.3186   17.9551  109.4206 O   0  0  0  0  0  0  0  0  0  0  0  0
   53.5549   19.3887  108.8975 C   0  0  0  0  0  0  0  0  0  0  0  0
   54.6572   20.7261  109.4370 S   0  0  0  0  0  0  0  0  0  0  0  0
   54.7010   16.4453  110.0236 N   0  0  0  0  0  0  0  0  0  0  0  0
   53.7437   16.2835  111.0660 C   0  0  2  0  0  0  0  0  0  0  0  0
   54.3111   15.3679  112.1332 C   0  0  0  0  0  0  0  0  0  0  0  0
   55.3510   14.6993  111.7693 O   0  0  0  0  0  0  0  0  0  0  0  0
   52.4179   15.7315  110.6917 C   0  0  0  0  0  0  0  0  0  0  0  0
   51.2482   16.6042  110.9207 C   0  0  0  0  0  0  0  0  0  0  0  0
   51.3770   17.8594  111.4843 C   0  0  0  0  0  0  0  0  0  0  0  0
   49.9845   16.1688  110.5749 C   0  0  0  0  0  0  0  0  0  0  0  0
   50.2394   18.6189  111.6747 C   0  0  0  0  0  0  0  0  0  0  0  0
   48.8354   16.9180  110.7591 C   0  0  0  0  0  0  0  0  0  0  0  0
   48.9863   18.1690  111.3237 C   0  0  0  0  0  0  0  0  0  0  0  0
   53.8097   15.2043  113.4216 N   0  0  0  0  0  0  0  0  0  0  0  0
   53.0487   16.1145  114.2146 C   0  0  2  0  0  0  0  0  0  0  0  0
   53.9074   17.0818  114.9501 C   0  0  0  0  0  0  0  0  0  0  0  0
   55.1503   16.9335  114.8709 O   0  0  0  0  0  0  0  0  0  0  0  0
   52.3152   15.3118  115.2719 C   0  0  0  0  0  0  0  0  0  0  0  0
   52.6742   13.8998  114.9869 C   0  0  0  0  0  0  0  0  0  0  0  0
   53.9740   13.9931  114.2646 C   0  0  0  0  0  0  0  0  0  0  0  0
   53.3465   18.1127  115.6983 N   0  0  0  0  0  0  0  0  0  0  0  0
   52.2029   18.9031  115.3093 C   0  0  2  0  0  0  0  0  0  0  0  0
   52.4915   20.3679  115.5278 C   0  0  0  0  0  0  0  0  0  0  0  0
   53.5369   20.6984  116.1225 O   0  0  0  0  0  0  0  0  0  0  0  0
   50.9418   18.5740  116.0793 C   0  0  0  0  0  0  0  0  0  0  0  0
   51.1984   18.0399  117.4306 C   0  0  0  0  0  0  0  0  0  0  0  0
   51.8037   16.8089  117.5826 O   0  0  0  0  0  0  0  0  0  0  0  0
   50.8744   18.6878  118.4444 O   0  0  0  0  0  0  0  0  0  0  0  0
   50.5913   22.2152  114.6902 O   0  0  0  0  0  0  0  0  0  0  0  0
   45.1856   25.8832  113.6982 H   0  0  0  0  0  0  0  0  0  0  0  0
  1  2  1  0
  1105  1  0
  1111  1  0
  2  3  1  0
  2111  1  1
  3  4  2  0
  3  5  1  0
  5  6  1  0
  6  7  1  0
  6  9  1  6
  7  8  2  0
  7 16  1  0
  9 10  1  0
 10 11  1  0
 11 12  1  0
 12 13  1  0
 13 14  2  0
 13 15  1  0
 17 16  1  6
 17 18  1  0
 17 20  1  0
 18 19  2  0
 18 22  1  0
 20 21  1  0
 21 84  1  0
 22 23  1  0
 23 24  1  0
 23 26  1  1
 24 25  2  0
 24 34  1  0
 26 27  1  0
 27 28  2  0
 27 29  1  0
 28 30  1  0
 29 31  2  0
 30 32  2  0
 31 32  1  0
 32 33  1  0
 34 35  1  0
 35 36  1  0
 35 38  1  1
 36 37  2  0
 36 43  1  0
 38 39  1  0
 39 40  1  0
 40 41  1  0
 41 42  1  0
 43 44  1  0
 44 45  1  0
 44 47  1  1
 45 46  2  0
 45 49  1  0
 47 48  1  0
 50 49  1  6
 50 51  1  0
 50 53  1  0
 51 52  2  0
 51 57  1  0
 53 54  1  0
 53 55  1  1
 54 56  1  0
 57 58  1  0
 57 63  1  0
 58 59  1  0
 58 61  1  6
 59 60  2  0
 59 64  1  0
 61 62  1  0
 62 63  1  0
 64 65  1  0
 64 70  1  0
 65 66  1  0
 65 68  1  1
 66 67  2  0
 66 71  1  0
 68 69  1  0
 69 70  1  0
 72 71  1  1
 72 73  1  0
 72 75  1  0
 73 74  2  0
 73 79  1  0
 75 76  1  0
 75 77  1  6
 76 78  1  0
 80 79  1  1
 80 81  1  0
 80 83  1  0
 81 82  2  0
 81 85  1  0
 83 84  1  0
 85 86  1  0
 86 87  1  0
 86 89  1  6
 87 88  2  0
 87 96  1  0
 89 90  1  0
 90 91  2  0
 90 92  1  0
 91 93  1  0
 92 94  2  0
 93 95  2  0
 94 95  1  0
 96 97  1  0
 96102  1  0
 97 98  1  0
 97100  1  1
 98 99  2  0
 98103  1  0
100101  1  0
101102  1  0
103104  1  0
104105  1  0
104107  1  1
105106  2  0
107108  1  0
108109  1  0
108110  2  0
 14112  1  0
M  CHG  1  42   1
M  END
$$$$
