
     RDKit          3D

112119  0  0  0  0  0  0  0  0999 V2000
   54.9479   14.9161  114.0475 N   0  0  0  0  0  0  0  0  0  0  0  0
   55.4651   15.8642  113.0963 C   0  0  2  0  0  0  0  0  0  0  0  0
   54.6173   15.9906  111.8988 C   0  0  0  0  0  0  0  0  0  0  0  0
   53.6417   16.7785  111.9255 O   0  0  0  0  0  0  0  0  0  0  0  0
   54.8660   15.2443  110.6996 N   0  0  0  0  0  0  0  0  0  0  0  0
   56.2233   14.9678  110.2566 C   0  0  2  0  0  0  0  0  0  0  0  0
   56.9843   16.2088  110.0091 C   0  0  0  0  0  0  0  0  0  0  0  0
   58.1694   16.2534  110.5029 O   0  0  0  0  0  0  0  0  0  0  0  0
   56.2264   13.9988  109.1229 C   0  0  0  0  0  0  0  0  0  0  0  0
   56.6234   12.6407  109.6046 C   0  0  0  0  0  0  0  0  0  0  0  0
   58.0149   12.5201  110.1295 C   0  0  0  0  0  0  0  0  0  0  0  0
   58.0828   13.4121  111.3007 N   0  0  0  0  0  0  0  0  0  0  0  0
   58.0731   12.8994  112.6337 C   0  0  0  0  0  0  0  0  0  0  0  0
   59.0255   12.0897  112.9785 N   0  0  0  0  0  0  0  0  0  0  0  0
   57.0685   13.2506  113.5653 N   0  0  0  0  0  0  0  0  0  0  0  0
   56.5738   17.3465  109.3034 N   0  0  0  0  0  0  0  0  0  0  0  0
   55.4712   17.4525  108.3677 C   0  0  2  0  0  0  0  0  0  0  0  0
   55.7998   17.0316  106.9880 C   0  0  0  0  0  0  0  0  0  0  0  0
   54.9317   16.2429  106.4293 O   0  0  0  0  0  0  0  0  0  0  0  0
   54.8367   18.8292  108.4454 C   0  0  0  0  0  0  0  0  0  0  0  0
   53.0666   18.6699  108.2901 S   0  0  0  0  0  0  0  0  0  0  0  0
   56.8971   17.3560  106.2090 N   0  0  0  0  0  0  0  0  0  0  0  0
   57.3299   18.6750  105.7322 C   0  0  2  0  0  0  0  0  0  0  0  0
   57.8594   18.5165  104.3463 C   0  0  0  0  0  0  0  0  0  0  0  0
   58.8634   17.7033  104.3300 O   0  0  0  0  0  0  0  0  0  0  0  0
   58.4614   19.2219  106.5764 C   0  0  0  0  0  0  0  0  0  0  0  0
   58.1587   19.4638  107.9781 C   0  0  0  0  0  0  0  0  0  0  0  0
   56.9262   19.1669  108.5150 C   0  0  0  0  0  0  0  0  0  0  0  0
   59.0628   20.0449  108.8834 C   0  0  0  0  0  0  0  0  0  0  0  0
   56.5739   19.4050  109.8233 C   0  0  0  0  0  0  0  0  0  0  0  0
   58.7360   20.2907  110.1853 C   0  0  0  0  0  0  0  0  0  0  0  0
   57.4860   19.9762  110.6801 C   0  0  0  0  0  0  0  0  0  0  0  0
   57.1524   20.2295  112.0195 O   0  0  0  0  0  0  0  0  0  0  0  0
   57.4201   19.1090  103.1581 N   0  0  0  0  0  0  0  0  0  0  0  0
   56.1779   19.0142  102.4668 C   0  0  2  0  0  0  0  0  0  0  0  0
   55.3113   20.2333  102.6293 C   0  0  0  0  0  0  0  0  0  0  0  0
   55.2003   20.6886  103.7788 O   0  0  0  0  0  0  0  0  0  0  0  0
   55.3797   17.7725  102.7253 C   0  0  0  0  0  0  0  0  0  0  0  0
   56.1437   16.5306  102.8159 C   0  0  0  0  0  0  0  0  0  0  0  0
   57.5446   16.4701  103.2219 C   0  0  0  0  0  0  0  0  0  0  0  0
   58.3526   15.2481  103.1571 C   0  0  0  0  0  0  0  0  0  0  0  0
   59.7825   15.4144  103.2072 N   0  0  0  0  0  4  0  0  0  0  0  0
   54.6336   20.8706  101.5711 N   0  0  0  0  0  0  0  0  0  0  0  0
   55.2278   21.2786  100.3145 C   0  0  2  0  0  0  0  0  0  0  0  0
   54.7626   22.6114   99.8522 C   0  0  0  0  0  0  0  0  0  0  0  0
   55.5142   23.1182   98.9505 O   0  0  0  0  0  0  0  0  0  0  0  0
   54.8083   20.3045   99.1954 C   0  0  0  0  0  0  0  0  0  0  0  0
   54.3850   19.0984   99.7449 O   0  0  0  0  0  0  0  0  0  0  0  0
   53.6540   23.3404  100.2635 N   0  0  0  0  0  0  0  0  0  0  0  0
   53.3255   23.8672  101.5725 C   0  0  2  0  0  0  0  0  0  0  0  0
   51.8558   23.7045  101.7679 C   0  0  0  0  0  0  0  0  0  0  0  0
   51.2902   22.7813  101.0536 O   0  0  0  0  0  0  0  0  0  0  0  0
   53.7228   25.3052  101.7277 C   0  0  2  0  0  0  0  0  0  0  0  0
   55.1529   25.6235  101.4131 C   0  0  0  0  0  0  0  0  0  0  0  0
   53.3194   25.8440  103.0926 C   0  0  0  0  0  0  0  0  0  0  0  0
   55.4486   26.9483  100.8228 C   0  0  0  0  0  0  0  0  0  0  0  0
   50.9994   24.4175  102.6216 N   0  0  0  0  0  0  0  0  0  0  0  0
   51.2230   24.6462  104.0607 C   0  0  2  0  0  0  0  0  0  0  0  0
   50.3082   23.7155  104.7845 C   0  0  0  0  0  0  0  0  0  0  0  0
   50.2504   22.5233  104.2844 O   0  0  0  0  0  0  0  0  0  0  0  0
   50.8680   26.0763  104.2225 C   0  0  0  0  0  0  0  0  0  0  0  0
   49.8885   26.3851  103.0851 C   0  0  0  0  0  0  0  0  0  0  0  0
   49.7080   25.0612  102.3854 C   0  0  0  0  0  0  0  0  0  0  0  0
   49.5433   24.0437  105.9182 N   0  0  0  0  0  0  0  0  0  0  0  0
   50.0070   24.6606  107.1342 C   0  0  2  0  0  0  0  0  0  0  0  0
   50.1750   23.5899  108.1614 C   0  0  0  0  0  0  0  0  0  0  0  0
   50.3523   22.4118  107.7045 O   0  0  0  0  0  0  0  0  0  0  0  0
   48.8726   25.5920  107.4829 C   0  0  0  0  0  0  0  0  0  0  0  0
   47.7242   25.2655  106.5426 C   0  0  0  0  0  0  0  0  0  0  0  0
   48.1003   23.8308  106.1592 C   0  0  0  0  0  0  0  0  0  0  0  0
   50.1545   23.7643  109.5506 N   0  0  0  0  0  0  0  0  0  0  0  0
   50.9254   24.7234  110.3148 C   0  0  2  0  0  0  0  0  0  0  0  0
   52.1215   24.2338  110.9759 C   0  0  0  0  0  0  0  0  0  0  0  0
   52.9425   25.1976  111.3009 O   0  0  0  0  0  0  0  0  0  0  0  0
   50.0042   25.4171  111.2719 C   0  0  2  0  0  0  0  0  0  0  0  0
   50.5954   26.6425  111.9297 C   0  0  0  0  0  0  0  0  0  0  0  0
   49.2363   24.5257  112.1754 C   0  0  0  0  0  0  0  0  0  0  0  0
   52.0802   26.7163  111.6286 C   0  0  0  0  0  0  0  0  0  0  0  0
   52.5646   22.9642  111.3264 N   0  0  0  0  0  0  0  0  0  0  0  0
   51.9219   21.6845  111.1603 C   0  0  2  0  0  0  0  0  0  0  0  0
   50.9602   21.3227  112.2219 C   0  0  0  0  0  0  0  0  0  0  0  0
   49.8692   20.7783  111.7631 O   0  0  0  0  0  0  0  0  0  0  0  0
   52.9171   20.5499  110.9726 C   0  0  0  0  0  0  0  0  0  0  0  0
   52.1281   19.1561  110.1185 S   0  0  0  0  0  0  0  0  0  0  0  0
   51.0511   21.4783  113.5997 N   0  0  0  0  0  0  0  0  0  0  0  0
   51.8813   20.9019  114.6035 C   0  0  2  0  0  0  0  0  0  0  0  0
   51.0542   20.6266  115.8441 C   0  0  0  0  0  0  0  0  0  0  0  0
   49.9100   21.2191  115.8688 O   0  0  0  0  0  0  0  0  0  0  0  0
   53.0611   21.6875  115.0436 C   0  0  0  0  0  0  0  0  0  0  0  0
   54.3252   21.4472  114.3180 C   0  0  0  0  0  0  0  0  0  0  0  0
   55.0447   20.2784  114.4786 C   0  0  0  0  0  0  0  0  0  0  0  0
   54.8197   22.4069  113.4574 C   0  0  0  0  0  0  0  0  0  0  0  0
   56.2216   20.1238  113.7727 C   0  0  0  0  0  0  0  0  0  0  0  0
   55.9968   22.2667  112.7430 C   0  0  0  0  0  0  0  0  0  0  0  0
   56.7003   21.0914  112.9181 C   0  0  0  0  0  0  0  0  0  0  0  0
   51.4270   19.8155  116.9125 N   0  0  0  0  0  0  0  0  0  0  0  0
   52.3318   18.7121  116.9332 C   0  0  2  0  0  0  0  0  0  0  0  0
   51.6812   17.4369  116.5279 C   0  0  0  0  0  0  0  0  0  0  0  0
   50.4449   17.4556  116.3175 O   0  0  0  0  0  0  0  0  0  0  0  0
   52.7942   18.5146  118.3640 C   0  0  0  0  0  0  0  0  0  0  0  0
   52.1326   19.6035  119.1258 C   0  0  0  0  0  0  0  0  0  0  0  0
   50.9351   19.9450  118.3075 C   0  0  0  0  0  0  0  0  0  0  0  0
   52.4226   16.2671  116.3889 N   0  0  0  0  0  0  0  0  0  0  0  0
   53.7400   16.1752  115.8059 C   0  0  2  0  0  0  0  0  0  0  0  0
   53.7893   15.0309  114.8237 C   0  0  0  0  0  0  0  0  0  0  0  0
   52.8170   14.2532  114.7486 O   0  0  0  0  0  0  0  0  0  0  0  0
   54.8419   15.9461  116.8181 C   0  0  0  0  0  0  0  0  0  0  0  0
   56.1138   15.5035  116.2154 C   0  0  0  0  0  0  0  0  0  0  0  0
   56.2647   15.5049  114.8435 O   0  0  0  0  0  0  0  0  0  0  0  0
   57.0611   15.1253  116.9311 O   0  0  0  0  0  0  0  0  0  0  0  0
   56.1142   14.6770  113.3423 O   0  0  0  0  0  0  0  0  0  0  0  0
   59.1487   11.8287  113.9862 H   0  0  0  0  0  0  0  0  0  0  0  0
  1  2  1  0
  1105  1  0
  1111  1  0
  2  3  1  0
  2111  1  6
  3  4  2  0
  3  5  1  0
  5  6  1  0
  6  7  1  0
  6  9  1  6
  7  8  2  0
  7 16  1  0
  9 10  1  0
 10 11  1  0
 11 12  1  0
 12 13  1  0
 13 14  2  0
 13 15  1  0
 17 16  1  1
 17 18  1  0
 17 20  1  0
 18 19  2  0
 18 22  1  0
 20 21  1  0
 21 84  1  0
 22 23  1  0
 23 24  1  0
 23 26  1  1
 24 25  2  0
 24 34  1  0
 26 27  1  0
 27 28  2  0
 27 29  1  0
 28 30  1  0
 29 31  2  0
 30 32  2  0
 31 32  1  0
 32 33  1  0
 34 35  1  0
 35 36  1  0
 35 38  1  1
 36 37  2  0
 36 43  1  0
 38 39  1  0
 39 40  1  0
 40 41  1  0
 41 42  1  0
 43 44  1  0
 44 45  1  0
 44 47  1  6
 45 46  2  0
 45 49  1  0
 47 48  1  0
 50 49  1  6
 50 51  1  0
 50 53  1  0
 51 52  2  0
 51 57  1  0
 53 54  1  0
 53 55  1  1
 54 56  1  0
 57 58  1  0
 57 63  1  0
 58 59  1  0
 58 61  1  6
 59 60  2  0
 59 64  1  0
 61 62  1  0
 62 63  1  0
 64 65  1  0
 64 70  1  0
 65 66  1  0
 65 68  1  1
 66 67  2  0
 66 71  1  0
 68 69  1  0
 69 70  1  0
 72 71  1  1
 72 73  1  0
 72 75  1  0
 73 74  2  0
 73 79  1  0
 75 76  1  0
 75 77  1  1
 76 78  1  0
 80 79  1  1
 80 81  1  0
 80 83  1  0
 81 82  2  0
 81 85  1  0
 83 84  1  0
 85 86  1  0
 86 87  1  0
 86 89  1  1
 87 88  2  0
 87 96  1  0
 89 90  1  0
 90 91  2  0
 90 92  1  0
 91 93  1  0
 92 94  2  0
 93 95  2  0
 94 95  1  0
 96 97  1  0
 96102  1  0
 97 98  1  0
 97100  1  1
 98 99  2  0
 98103  1  0
100101  1  0
101102  1  0
103104  1  0
104105  1  0
104107  1  1
105106  2  0
107108  1  0
108109  1  0
108110  2  0
 14112  1  0
M  CHG  1  42   1
M  END
$$$$
