
     RDKit          3D

112119  0  0  0  0  0  0  0  0999 V2000
   53.5897   15.0450  112.9110 N   0  0  0  0  0  0  0  0  0  0  0  0
   54.2811   15.9840  112.0673 C   0  0  2  0  0  0  0  0  0  0  0  0
   53.5379   16.2980  110.8354 C   0  0  0  0  0  0  0  0  0  0  0  0
   52.6651   17.1984  110.8651 O   0  0  0  0  0  0  0  0  0  0  0  0
   53.7752   15.6108  109.5992 N   0  0  0  0  0  0  0  0  0  0  0  0
   55.1160   15.1973  109.2167 C   0  0  2  0  0  0  0  0  0  0  0  0
   56.0365   16.3470  109.1103 C   0  0  0  0  0  0  0  0  0  0  0  0
   57.1821   16.2083  109.6748 O   0  0  0  0  0  0  0  0  0  0  0  0
   55.0787   14.3160  108.0141 C   0  0  0  0  0  0  0  0  0  0  0  0
   55.7543   13.0149  108.3054 C   0  0  0  0  0  0  0  0  0  0  0  0
   56.9532   13.0908  109.1904 C   0  0  0  0  0  0  0  0  0  0  0  0
   56.6114   12.3204  110.3994 N   0  0  0  0  0  0  0  0  0  0  0  0
   57.5478   12.1424  111.4631 C   0  0  0  0  0  0  0  0  0  0  0  0
   58.1979   11.0217  111.5170 N   0  0  0  0  0  0  0  0  0  0  0  0
   57.7764   13.1427  112.4365 N   0  0  0  0  0  0  0  0  0  0  0  0
   55.8152   17.5731  108.4711 N   0  0  0  0  0  0  0  0  0  0  0  0
   54.7996   17.8810  107.4832 C   0  0  2  0  0  0  0  0  0  0  0  0
   55.1675   17.5182  106.0970 C   0  0  0  0  0  0  0  0  0  0  0  0
   54.2503   16.8851  105.4293 O   0  0  0  0  0  0  0  0  0  0  0  0
   54.3323   19.3178  107.6289 C   0  0  0  0  0  0  0  0  0  0  0  0
   52.5705   19.3930  107.3581 S   0  0  0  0  0  0  0  0  0  0  0  0
   56.3463   17.7552  105.4109 N   0  0  0  0  0  0  0  0  0  0  0  0
   56.9666   19.0391  105.0630 C   0  0  2  0  0  0  0  0  0  0  0  0
   57.5658   18.9113  103.7025 C   0  0  0  0  0  0  0  0  0  0  0  0
   58.4629   17.9816  103.6828 O   0  0  0  0  0  0  0  0  0  0  0  0
   58.0961   19.3802  106.0117 C   0  0  0  0  0  0  0  0  0  0  0  0
   58.9358   18.2715  106.4364 C   0  0  0  0  0  0  0  0  0  0  0  0
   59.5944   17.4723  105.5293 C   0  0  0  0  0  0  0  0  0  0  0  0
   59.1173   17.8988  107.7792 C   0  0  0  0  0  0  0  0  0  0  0  0
   60.3735   16.3916  105.8719 C   0  0  0  0  0  0  0  0  0  0  0  0
   59.8848   16.8309  108.1431 C   0  0  0  0  0  0  0  0  0  0  0  0
   60.5271   16.0568  107.1973 C   0  0  0  0  0  0  0  0  0  0  0  0
   61.3163   14.9593  107.5741 O   0  0  0  0  0  0  0  0  0  0  0  0
   57.2829   19.6348  102.5396 N   0  0  0  0  0  0  0  0  0  0  0  0
   56.0880   19.7444  101.7713 C   0  0  2  0  0  0  0  0  0  0  0  0
   55.3661   21.0486  101.9757 C   0  0  0  0  0  0  0  0  0  0  0  0
   55.2334   21.4339  103.1483 O   0  0  0  0  0  0  0  0  0  0  0  0
   55.1299   18.5980  101.8863 C   0  0  0  0  0  0  0  0  0  0  0  0
   53.8895   18.8733  102.6073 C   0  0  0  0  0  0  0  0  0  0  0  0
   53.5711   20.1663  103.2055 C   0  0  0  0  0  0  0  0  0  0  0  0
   54.5849   21.0807  103.7407 C   0  0  0  0  0  0  0  0  0  0  0  0
   54.1867   21.9119  104.8476 N   0  0  0  0  0  4  0  0  0  0  0  0
   54.8437   21.8373  100.9316 N   0  0  0  0  0  0  0  0  0  0  0  0
   55.5667   22.2531   99.7470 C   0  0  2  0  0  0  0  0  0  0  0  0
   55.2984   23.6624   99.3619 C   0  0  0  0  0  0  0  0  0  0  0  0
   56.1651   24.1318   98.5474 O   0  0  0  0  0  0  0  0  0  0  0  0
   55.1093   21.4188   98.5338 C   0  0  0  0  0  0  0  0  0  0  0  0
   53.8173   21.7797   98.1648 O   0  0  0  0  0  0  0  0  0  0  0  0
   54.2608   24.4947   99.7621 N   0  0  0  0  0  0  0  0  0  0  0  0
   53.9105   24.9671  101.0861 C   0  0  2  0  0  0  0  0  0  0  0  0
   52.4220   24.9771  101.1818 C   0  0  0  0  0  0  0  0  0  0  0  0
   51.7987   24.1837  100.3668 O   0  0  0  0  0  0  0  0  0  0  0  0
   54.4673   26.3298  101.3743 C   0  0  2  0  0  0  0  0  0  0  0  0
   53.5966   27.4851  100.9839 C   0  0  0  0  0  0  0  0  0  0  0  0
   55.8749   26.4792  100.8155 C   0  0  0  0  0  0  0  0  0  0  0  0
   53.9845   28.8309  101.4626 C   0  0  0  0  0  0  0  0  0  0  0  0
   51.6022   25.7314  102.0359 N   0  0  0  0  0  0  0  0  0  0  0  0
   51.7538   25.8306  103.4989 C   0  0  2  0  0  0  0  0  0  0  0  0
   50.6863   24.9744  104.0943 C   0  0  0  0  0  0  0  0  0  0  0  0
   50.5188   23.8362  103.5016 O   0  0  0  0  0  0  0  0  0  0  0  0
   51.5642   27.2794  103.7489 C   0  0  0  0  0  0  0  0  0  0  0  0
   50.7085   27.7863  102.5831 C   0  0  0  0  0  0  0  0  0  0  0  0
   50.4172   26.5469  101.7743 C   0  0  0  0  0  0  0  0  0  0  0  0
   49.8916   25.3172  105.2029 N   0  0  0  0  0  0  0  0  0  0  0  0
   50.3430   25.7856  106.4878 C   0  0  2  0  0  0  0  0  0  0  0  0
   50.3103   24.6341  107.4379 C   0  0  0  0  0  0  0  0  0  0  0  0
   50.3745   23.4774  106.9031 O   0  0  0  0  0  0  0  0  0  0  0  0
   49.3085   26.8258  106.8397 C   0  0  0  0  0  0  0  0  0  0  0  0
   48.1955   26.7117  105.8112 C   0  0  0  0  0  0  0  0  0  0  0  0
   48.4205   25.2709  105.3416 C   0  0  0  0  0  0  0  0  0  0  0  0
   50.2170   24.7135  108.8327 N   0  0  0  0  0  0  0  0  0  0  0  0
   51.0447   25.5133  109.7123 C   0  0  2  0  0  0  0  0  0  0  0  0
   52.1252   24.8331  110.4029 C   0  0  0  0  0  0  0  0  0  0  0  0
   53.0328   25.6615  110.8486 O   0  0  0  0  0  0  0  0  0  0  0  0
   50.1513   26.2496  110.6640 C   0  0  2  0  0  0  0  0  0  0  0  0
   50.0789   25.6442  112.0467 C   0  0  0  0  0  0  0  0  0  0  0  0
   48.8525   26.6948  110.1025 C   0  0  0  0  0  0  0  0  0  0  0  0
   50.9035   24.3717  112.0899 C   0  0  0  0  0  0  0  0  0  0  0  0
   52.3868   23.4968  110.6803 N   0  0  0  0  0  0  0  0  0  0  0  0
   51.6068   22.3224  110.3790 C   0  0  2  0  0  0  0  0  0  0  0  0
   50.5388   22.0119  111.3514 C   0  0  0  0  0  0  0  0  0  0  0  0
   49.4236   21.6417  110.7890 O   0  0  0  0  0  0  0  0  0  0  0  0
   52.4680   21.0875  110.1636 C   0  0  0  0  0  0  0  0  0  0  0  0
   51.5760   19.8660  109.1602 S   0  0  0  0  0  0  0  0  0  0  0  0
   50.5543   22.0595  112.7400 N   0  0  0  0  0  0  0  0  0  0  0  0
   51.2388   21.3158  113.7437 C   0  0  2  0  0  0  0  0  0  0  0  0
   50.3023   21.0616  114.9088 C   0  0  0  0  0  0  0  0  0  0  0  0
   49.2390   21.7900  114.9117 O   0  0  0  0  0  0  0  0  0  0  0  0
   52.4723   21.9148  114.3113 C   0  0  0  0  0  0  0  0  0  0  0  0
   53.0543   23.0555  113.5749 C   0  0  0  0  0  0  0  0  0  0  0  0
   53.9905   23.8920  114.1524 C   0  0  0  0  0  0  0  0  0  0  0  0
   52.6600   23.3120  112.2769 C   0  0  0  0  0  0  0  0  0  0  0  0
   54.4878   24.9428  113.4070 C   0  0  0  0  0  0  0  0  0  0  0  0
   53.1492   24.3604  111.5171 C   0  0  0  0  0  0  0  0  0  0  0  0
   54.0835   25.1841  112.1131 C   0  0  0  0  0  0  0  0  0  0  0  0
   50.5010   20.1384  115.9318 N   0  0  0  0  0  0  0  0  0  0  0  0
   51.2623   18.9314  115.9209 C   0  0  2  0  0  0  0  0  0  0  0  0
   50.4913   17.7789  115.3814 C   0  0  0  0  0  0  0  0  0  0  0  0
   49.2834   17.9671  115.1008 O   0  0  0  0  0  0  0  0  0  0  0  0
   51.5994   18.5793  117.3570 C   0  0  0  0  0  0  0  0  0  0  0  0
   51.0242   19.6876  118.1599 C   0  0  0  0  0  0  0  0  0  0  0  0
   49.9350   20.2322  117.3013 C   0  0  0  0  0  0  0  0  0  0  0  0
   51.0935   16.5377  115.1968 N   0  0  0  0  0  0  0  0  0  0  0  0
   52.4266   16.3215  114.6868 C   0  0  2  0  0  0  0  0  0  0  0  0
   52.4036   15.2505  113.6243 C   0  0  0  0  0  0  0  0  0  0  0  0
   51.3518   14.6081  113.4327 O   0  0  0  0  0  0  0  0  0  0  0  0
   53.4215   15.8867  115.7415 C   0  0  0  0  0  0  0  0  0  0  0  0
   54.6486   15.2870  115.1831 C   0  0  0  0  0  0  0  0  0  0  0  0
   55.6595   14.8725  116.0264 O   0  0  0  0  0  0  0  0  0  0  0  0
   54.7875   15.1480  113.9527 O   0  0  0  0  0  0  0  0  0  0  0  0
   54.7636   14.7105  112.2592 O   0  0  0  0  0  0  0  0  0  0  0  0
   58.8399   10.8296  112.3230 H   0  0  0  0  0  0  0  0  0  0  0  0
  1  2  1  0
  1105  1  0
  1111  1  0
  2  3  1  0
  2111  1  6
  3  4  2  0
  3  5  1  0
  5  6  1  0
  6  7  1  0
  6  9  1  6
  7  8  2  0
  7 16  1  0
  9 10  1  0
 10 11  1  0
 11 12  1  0
 12 13  1  0
 13 14  2  0
 13 15  1  0
 17 16  1  1
 17 18  1  0
 17 20  1  0
 18 19  2  0
 18 22  1  0
 20 21  1  0
 21 84  1  0
 22 23  1  0
 23 24  1  0
 23 26  1  1
 24 25  2  0
 24 34  1  0
 26 27  1  0
 27 28  2  0
 27 29  1  0
 28 30  1  0
 29 31  2  0
 30 32  2  0
 31 32  1  0
 32 33  1  0
 34 35  1  0
 35 36  1  0
 35 38  1  1
 36 37  2  0
 36 43  1  0
 38 39  1  0
 39 40  1  0
 40 41  1  0
 41 42  1  0
 43 44  1  0
 44 45  1  0
 44 47  1  6
 45 46  2  0
 45 49  1  0
 47 48  1  0
 50 49  1  6
 50 51  1  0
 50 53  1  0
 51 52  2  0
 51 57  1  0
 53 54  1  0
 53 55  1  6
 54 56  1  0
 57 58  1  0
 57 63  1  0
 58 59  1  0
 58 61  1  1
 59 60  2  0
 59 64  1  0
 61 62  1  0
 62 63  1  0
 64 65  1  0
 64 70  1  0
 65 66  1  0
 65 68  1  1
 66 67  2  0
 66 71  1  0
 68 69  1  0
 69 70  1  0
 72 71  1  1
 72 73  1  0
 72 75  1  0
 73 74  2  0
 73 79  1  0
 75 76  1  0
 75 77  1  6
 76 78  1  0
 80 79  1  1
 80 81  1  0
 80 83  1  0
 81 82  2  0
 81 85  1  0
 83 84  1  0
 85 86  1  0
 86 87  1  0
 86 89  1  1
 87 88  2  0
 87 96  1  0
 89 90  1  0
 90 91  2  0
 90 92  1  0
 91 93  1  0
 92 94  2  0
 93 95  2  0
 94 95  1  0
 96 97  1  0
 96102  1  0
 97 98  1  0
 97100  1  1
 98 99  2  0
 98103  1  0
100101  1  0
101102  1  0
103104  1  0
104105  1  0
104107  1  1
105106  2  0
107108  1  0
108109  1  0
108110  2  0
 14112  1  0
M  CHG  1  42   1
M  END
$$$$
