
     RDKit          3D

112119  0  0  0  0  0  0  0  0999 V2000
   54.8152   13.9510  109.4265 N   0  0  0  0  0  0  0  0  0  0  0  0
   55.2465   15.2339  108.9372 C   0  0  2  0  0  0  0  0  0  0  0  0
   54.2017   15.9316  108.1689 C   0  0  0  0  0  0  0  0  0  0  0  0
   53.3530   16.6207  108.7840 O   0  0  0  0  0  0  0  0  0  0  0  0
   54.1177   15.8524  106.7394 N   0  0  0  0  0  0  0  0  0  0  0  0
   55.3178   15.8076  105.9192 C   0  0  2  0  0  0  0  0  0  0  0  0
   56.1600   17.0052  106.1113 C   0  0  0  0  0  0  0  0  0  0  0  0
   57.4156   16.7923  106.2807 O   0  0  0  0  0  0  0  0  0  0  0  0
   54.9808   15.5046  104.4983 C   0  0  0  0  0  0  0  0  0  0  0  0
   55.5864   14.2005  104.0900 C   0  0  0  0  0  0  0  0  0  0  0  0
   56.8744   13.8473  104.7553 C   0  0  0  0  0  0  0  0  0  0  0  0
   57.8284   14.9038  104.3738 N   0  0  0  0  0  0  0  0  0  0  0  0
   59.2398   14.6902  104.4201 C   0  0  0  0  0  0  0  0  0  0  0  0
   59.6695   13.4675  104.3761 N   0  0  0  0  0  0  0  0  0  0  0  0
   60.1583   15.7621  104.5094 N   0  0  0  0  0  0  0  0  0  0  0  0
   55.7598   18.3469  106.1339 N   0  0  0  0  0  0  0  0  0  0  0  0
   54.5161   18.9036  105.6384 C   0  0  2  0  0  0  0  0  0  0  0  0
   54.5138   19.1956  104.1881 C   0  0  0  0  0  0  0  0  0  0  0  0
   53.4638   18.7839  103.5431 O   0  0  0  0  0  0  0  0  0  0  0  0
   54.0807   20.0800  106.4931 C   0  0  0  0  0  0  0  0  0  0  0  0
   52.3086   20.0361  106.6941 S   0  0  0  0  0  0  0  0  0  0  0  0
   55.4678   19.8422  103.4212 N   0  0  0  0  0  0  0  0  0  0  0  0
   55.9550   21.2224  103.5295 C   0  0  2  0  0  0  0  0  0  0  0  0
   56.1788   21.7450  102.1499 C   0  0  0  0  0  0  0  0  0  0  0  0
   57.0540   21.0284  101.5254 O   0  0  0  0  0  0  0  0  0  0  0  0
   57.2880   21.2816  104.2449 C   0  0  0  0  0  0  0  0  0  0  0  0
   58.3105   20.3599  103.7761 C   0  0  0  0  0  0  0  0  0  0  0  0
   57.9889   19.1965  103.1138 C   0  0  0  0  0  0  0  0  0  0  0  0
   59.6873   20.5487  103.9850 C   0  0  0  0  0  0  0  0  0  0  0  0
   58.9110   18.2733  102.6784 C   0  0  0  0  0  0  0  0  0  0  0  0
   60.6202   19.6468  103.5626 C   0  0  0  0  0  0  0  0  0  0  0  0
   60.2506   18.4923  102.9019 C   0  0  0  0  0  0  0  0  0  0  0  0
   61.2119   17.5666  102.4680 O   0  0  0  0  0  0  0  0  0  0  0  0
   55.5898   22.8418  101.5129 N   0  0  0  0  0  0  0  0  0  0  0  0
   54.2338   23.1064  101.1646 C   0  0  2  0  0  0  0  0  0  0  0  0
   53.5702   24.1066  102.0717 C   0  0  0  0  0  0  0  0  0  0  0  0
   53.7432   23.9531  103.2914 O   0  0  0  0  0  0  0  0  0  0  0  0
   53.3575   21.9034  100.9901 C   0  0  0  0  0  0  0  0  0  0  0  0
   52.4638   21.5983  102.1047 C   0  0  0  0  0  0  0  0  0  0  0  0
   52.2001   22.5195  103.2060 C   0  0  0  0  0  0  0  0  0  0  0  0
   52.3439   23.9746  103.0945 C   0  0  0  0  0  0  0  0  0  0  0  0
   51.1269   24.7445  103.0625 N   0  0  0  0  0  4  0  0  0  0  0  0
   52.7801   25.1829  101.6215 N   0  0  0  0  0  0  0  0  0  0  0  0
   53.1610   26.1388  100.6016 C   0  0  2  0  0  0  0  0  0  0  0  0
   52.7789   27.5348  100.9357 C   0  0  0  0  0  0  0  0  0  0  0  0
   53.3945   28.4044  100.2288 O   0  0  0  0  0  0  0  0  0  0  0  0
   52.4150   25.8293   99.2882 C   0  0  0  0  0  0  0  0  0  0  0  0
   51.0445   25.9893   99.4674 O   0  0  0  0  0  0  0  0  0  0  0  0
   51.8694   27.9885  101.8824 N   0  0  0  0  0  0  0  0  0  0  0  0
   51.8707   27.8233  103.3218 C   0  0  2  0  0  0  0  0  0  0  0  0
   50.4593   27.6041  103.7515 C   0  0  0  0  0  0  0  0  0  0  0  0
   49.6568   27.1459  102.8412 O   0  0  0  0  0  0  0  0  0  0  0  0
   52.4619   29.0039  104.0335 C   0  0  2  0  0  0  0  0  0  0  0  0
   52.6742   28.8367  105.5074 C   0  0  0  0  0  0  0  0  0  0  0  0
   51.6897   30.2780  103.7229 C   0  0  0  0  0  0  0  0  0  0  0  0
   53.5675   29.8014  106.1872 C   0  0  0  0  0  0  0  0  0  0  0  0
   49.8800   27.8276  105.0105 N   0  0  0  0  0  0  0  0  0  0  0  0
   50.4079   27.3322  106.2947 C   0  0  2  0  0  0  0  0  0  0  0  0
   49.5473   26.1787  106.6895 C   0  0  0  0  0  0  0  0  0  0  0  0
   49.2484   25.3758  105.7197 O   0  0  0  0  0  0  0  0  0  0  0  0
   50.2676   28.5115  107.1817 C   0  0  0  0  0  0  0  0  0  0  0  0
   49.1285   29.3416  106.5802 C   0  0  0  0  0  0  0  0  0  0  0  0
   48.6551   28.5208  105.4066 C   0  0  0  0  0  0  0  0  0  0  0  0
   49.0655   25.9292  107.9871 N   0  0  0  0  0  0  0  0  0  0  0  0
   49.8302   25.8784  109.2064 C   0  0  2  0  0  0  0  0  0  0  0  0
   50.0657   24.4434  109.5455 C   0  0  0  0  0  0  0  0  0  0  0  0
   50.0058   23.6292  108.5650 O   0  0  0  0  0  0  0  0  0  0  0  0
   48.9077   26.5400  110.2001 C   0  0  0  0  0  0  0  0  0  0  0  0
   47.5661   26.7206  109.5094 C   0  0  0  0  0  0  0  0  0  0  0  0
   47.6830   25.6436  108.4261 C   0  0  0  0  0  0  0  0  0  0  0  0
   50.3397   23.9271  110.8179 N   0  0  0  0  0  0  0  0  0  0  0  0
   51.3562   24.3902  111.7403 C   0  0  2  0  0  0  0  0  0  0  0  0
   52.5905   23.6287  111.8008 C   0  0  0  0  0  0  0  0  0  0  0  0
   53.5700   24.3069  112.3387 O   0  0  0  0  0  0  0  0  0  0  0  0
   50.7318   24.5479  113.0935 C   0  0  2  0  0  0  0  0  0  0  0  0
   49.2322   24.7335  113.0708 C   0  0  0  0  0  0  0  0  0  0  0  0
   51.4622   25.4346  114.0320 C   0  0  0  0  0  0  0  0  0  0  0  0
   48.5527   23.3814  112.9654 C   0  0  0  0  0  0  0  0  0  0  0  0
   52.9367   22.3421  111.4058 N   0  0  0  0  0  0  0  0  0  0  0  0
   52.1236   21.3084  110.8152 C   0  0  2  0  0  0  0  0  0  0  0  0
   51.3527   20.4913  111.7747 C   0  0  0  0  0  0  0  0  0  0  0  0
   50.1350   20.2482  111.3804 O   0  0  0  0  0  0  0  0  0  0  0  0
   52.9177   20.3929  109.8963 C   0  0  0  0  0  0  0  0  0  0  0  0
   51.8134   19.5924  108.6986 S   0  0  0  0  0  0  0  0  0  0  0  0
   51.7305   19.9628  113.0029 N   0  0  0  0  0  0  0  0  0  0  0  0
   52.6657   18.9644  113.4001 C   0  0  2  0  0  0  0  0  0  0  0  0
   52.0712   18.1352  114.5218 C   0  0  0  0  0  0  0  0  0  0  0  0
   51.0345   18.6561  115.0830 O   0  0  0  0  0  0  0  0  0  0  0  0
   53.9952   19.4267  113.8704 C   0  0  0  0  0  0  0  0  0  0  0  0
   54.4241   20.7695  113.4287 C   0  0  0  0  0  0  0  0  0  0  0  0
   55.0092   20.9762  112.1939 C   0  0  0  0  0  0  0  0  0  0  0  0
   54.2497   21.8576  114.2604 C   0  0  0  0  0  0  0  0  0  0  0  0
   55.3911   22.2578  111.8491 C   0  0  0  0  0  0  0  0  0  0  0  0
   54.6266   23.1475  113.9292 C   0  0  0  0  0  0  0  0  0  0  0  0
   55.2094   23.3320  112.6911 C   0  0  0  0  0  0  0  0  0  0  0  0
   52.5455   16.9054  114.9699 N   0  0  0  0  0  0  0  0  0  0  0  0
   53.2963   15.9179  114.2644 C   0  0  2  0  0  0  0  0  0  0  0  0
   52.4292   15.0035  113.4734 C   0  0  0  0  0  0  0  0  0  0  0  0
   51.1872   15.1359  113.5874 O   0  0  0  0  0  0  0  0  0  0  0  0
   54.0033   15.0500  115.2877 C   0  0  0  0  0  0  0  0  0  0  0  0
   53.6411   15.6450  116.5986 C   0  0  0  0  0  0  0  0  0  0  0  0
   52.3566   16.3526  116.3350 C   0  0  0  0  0  0  0  0  0  0  0  0
   52.9816   14.0367  112.6382 N   0  0  0  0  0  0  0  0  0  0  0  0
   54.1378   14.2214  111.7938 C   0  0  2  0  0  0  0  0  0  0  0  0
   53.8542   13.6913  110.4099 C   0  0  0  0  0  0  0  0  0  0  0  0
   52.7992   13.0576  110.2071 O   0  0  0  0  0  0  0  0  0  0  0  0
   55.3810   13.5200  112.2975 C   0  0  0  0  0  0  0  0  0  0  0  0
   55.8194   13.9805  113.6290 C   0  0  0  0  0  0  0  0  0  0  0  0
   56.2135   13.0627  114.5814 O   0  0  0  0  0  0  0  0  0  0  0  0
   55.8395   15.1945  113.9091 O   0  0  0  0  0  0  0  0  0  0  0  0
   55.7825   14.0674  108.4439 O   0  0  0  0  0  0  0  0  0  0  0  0
   60.7000   13.2763  104.3871 H   0  0  0  0  0  0  0  0  0  0  0  0
  1  2  1  0
  1105  1  0
  1111  1  0
  2  3  1  0
  2111  1  6
  3  4  2  0
  3  5  1  0
  5  6  1  0
  6  7  1  0
  6  9  1  6
  7  8  2  0
  7 16  1  0
  9 10  1  0
 10 11  1  0
 11 12  1  0
 12 13  1  0
 13 14  2  0
 13 15  1  0
 17 16  1  1
 17 18  1  0
 17 20  1  0
 18 19  2  0
 18 22  1  0
 20 21  1  0
 21 84  1  0
 22 23  1  0
 23 24  1  0
 23 26  1  1
 24 25  2  0
 24 34  1  0
 26 27  1  0
 27 28  2  0
 27 29  1  0
 28 30  1  0
 29 31  2  0
 30 32  2  0
 31 32  1  0
 32 33  1  0
 34 35  1  0
 35 36  1  0
 35 38  1  1
 36 37  2  0
 36 43  1  0
 38 39  1  0
 39 40  1  0
 40 41  1  0
 41 42  1  0
 43 44  1  0
 44 45  1  0
 44 47  1  6
 45 46  2  0
 45 49  1  0
 47 48  1  0
 50 49  1  6
 50 51  1  0
 50 53  1  0
 51 52  2  0
 51 57  1  0
 53 54  1  0
 53 55  1  1
 54 56  1  0
 57 58  1  0
 57 63  1  0
 58 59  1  0
 58 61  1  1
 59 60  2  0
 59 64  1  0
 61 62  1  0
 62 63  1  0
 64 65  1  0
 64 70  1  0
 65 66  1  0
 65 68  1  1
 66 67  2  0
 66 71  1  0
 68 69  1  0
 69 70  1  0
 72 71  1  6
 72 73  1  0
 72 75  1  0
 73 74  2  0
 73 79  1  0
 75 76  1  0
 75 77  1  6
 76 78  1  0
 80 79  1  1
 80 81  1  0
 80 83  1  0
 81 82  2  0
 81 85  1  0
 83 84  1  0
 85 86  1  0
 86 87  1  0
 86 89  1  1
 87 88  2  0
 87 96  1  0
 89 90  1  0
 90 91  2  0
 90 92  1  0
 91 93  1  0
 92 94  2  0
 93 95  2  0
 94 95  1  0
 96 97  1  0
 96102  1  0
 97 98  1  0
 97100  1  1
 98 99  2  0
 98103  1  0
100101  1  0
101102  1  0
103104  1  0
104105  1  0
104107  1  1
105106  2  0
107108  1  0
108109  1  0
108110  2  0
 14112  1  0
M  CHG  1  42   1
M  END
$$$$
