
     RDKit          3D

112119  0  0  0  0  0  0  0  0999 V2000
   52.8159   30.1623  104.9123 N   0  0  0  0  0  0  0  0  0  0  0  0
   52.4870   28.7786  104.6924 C   0  0  2  0  0  0  0  0  0  0  0  0
   53.4849   27.8580  105.2627 C   0  0  0  0  0  0  0  0  0  0  0  0
   53.3904   27.5316  106.4702 O   0  0  0  0  0  0  0  0  0  0  0  0
   54.5640   27.3188  104.4871 N   0  0  0  0  0  0  0  0  0  0  0  0
   54.3778   26.9627  103.0894 C   0  0  2  0  0  0  0  0  0  0  0  0
   53.3331   25.9332  102.9188 C   0  0  0  0  0  0  0  0  0  0  0  0
   52.4700   26.1515  101.9927 O   0  0  0  0  0  0  0  0  0  0  0  0
   55.6828   26.6386  102.4441 C   0  0  0  0  0  0  0  0  0  0  0  0
   55.5451   26.6679  100.9560 C   0  0  0  0  0  0  0  0  0  0  0  0
   54.1523   26.5618  100.4316 C   0  0  0  0  0  0  0  0  0  0  0  0
   53.2729   26.9954  101.5320 N   0  0  0  0  0  0  0  0  0  0  0  0
   51.9371   27.4401  101.2917 C   0  0  0  0  0  0  0  0  0  0  0  0
   51.1330   27.5190  102.3060 N   0  0  0  0  0  0  0  0  0  0  0  0
   51.4842   27.7903   99.9984 N   0  0  0  0  0  0  0  0  0  0  0  0
   53.1642   24.7470  103.6436 N   0  0  0  0  0  0  0  0  0  0  0  0
   54.1425   24.0780  104.4788 C   0  0  2  0  0  0  0  0  0  0  0  0
   55.0698   23.1920  103.7413 C   0  0  0  0  0  0  0  0  0  0  0  0
   56.3247   23.3255  104.0500 O   0  0  0  0  0  0  0  0  0  0  0  0
   53.4644   23.3995  105.6551 C   0  0  0  0  0  0  0  0  0  0  0  0
   54.4802   23.5911  107.1092 S   0  0  0  0  0  0  0  0  0  0  0  0
   54.7932   22.2439  102.7713 N   0  0  0  0  0  0  0  0  0  0  0  0
   53.9800   21.0267  102.8792 C   0  0  2  0  0  0  0  0  0  0  0  0
   54.6413   19.9546  102.0794 C   0  0  0  0  0  0  0  0  0  0  0  0
   54.7336   20.3007  100.8379 O   0  0  0  0  0  0  0  0  0  0  0  0
   52.6014   21.2310  102.2879 C   0  0  0  0  0  0  0  0  0  0  0  0
   52.1393   22.6068  102.1947 C   0  0  0  0  0  0  0  0  0  0  0  0
   50.9537   22.9326  101.5755 C   0  0  0  0  0  0  0  0  0  0  0  0
   52.8624   23.7083  102.6831 C   0  0  0  0  0  0  0  0  0  0  0  0
   50.4844   24.2174  101.4289 C   0  0  0  0  0  0  0  0  0  0  0  0
   52.4173   24.9913  102.5490 C   0  0  0  0  0  0  0  0  0  0  0  0
   51.2207   25.2707  101.9195 C   0  0  0  0  0  0  0  0  0  0  0  0
   50.7648   26.5909  101.7833 O   0  0  0  0  0  0  0  0  0  0  0  0
   55.1309   18.7132  102.4976 N   0  0  0  0  0  0  0  0  0  0  0  0
   56.1682   18.3752  103.4140 C   0  0  2  0  0  0  0  0  0  0  0  0
   55.6546   17.8867  104.7411 C   0  0  0  0  0  0  0  0  0  0  0  0
   54.7363   18.5424  105.2586 O   0  0  0  0  0  0  0  0  0  0  0  0
   57.2243   19.4184  103.6190 C   0  0  0  0  0  0  0  0  0  0  0  0
   58.2633   19.0914  104.5925 C   0  0  0  0  0  0  0  0  0  0  0  0
   59.0145   17.8397  104.5846 C   0  0  0  0  0  0  0  0  0  0  0  0
   58.6287   16.6706  103.7879 C   0  0  0  0  0  0  0  0  0  0  0  0
   59.6351   15.6585  103.5948 N   0  0  0  0  0  4  0  0  0  0  0  0
   56.1495   16.7515  105.4132 N   0  0  0  0  0  0  0  0  0  0  0  0
   56.3248   15.4369  104.8300 C   0  0  2  0  0  0  0  0  0  0  0  0
   55.9094   14.3348  105.7351 C   0  0  0  0  0  0  0  0  0  0  0  0
   55.7407   13.2238  105.1252 O   0  0  0  0  0  0  0  0  0  0  0  0
   57.8202   15.1800  104.5562 C   0  0  0  0  0  0  0  0  0  0  0  0
   58.5972   15.7838  105.5399 O   0  0  0  0  0  0  0  0  0  0  0  0
   55.6942   14.3655  107.1070 N   0  0  0  0  0  0  0  0  0  0  0  0
   54.7364   15.1324  107.8774 C   0  0  2  0  0  0  0  0  0  0  0  0
   55.4131   15.5671  109.1335 C   0  0  0  0  0  0  0  0  0  0  0  0
   56.7083   15.6195  109.0878 O   0  0  0  0  0  0  0  0  0  0  0  0
   53.4949   14.3506  108.1898 C   0  0  2  0  0  0  0  0  0  0  0  0
   53.5770   12.8741  107.9483 C   0  0  0  0  0  0  0  0  0  0  0  0
   52.2757   14.9591  107.5122 C   0  0  0  0  0  0  0  0  0  0  0  0
   53.0416   12.3558  106.6693 C   0  0  0  0  0  0  0  0  0  0  0  0
   54.8368   15.9273  110.3619 N   0  0  0  0  0  0  0  0  0  0  0  0
   53.7493   16.9061  110.5416 C   0  0  2  0  0  0  0  0  0  0  0  0
   54.3815   18.1484  111.0746 C   0  0  0  0  0  0  0  0  0  0  0  0
   55.4993   18.4678  110.5060 O   0  0  0  0  0  0  0  0  0  0  0  0
   52.8573   16.2280  111.5121 C   0  0  0  0  0  0  0  0  0  0  0  0
   53.7586   15.2629  112.2897 C   0  0  0  0  0  0  0  0  0  0  0  0
   55.1371   15.5173  111.7328 C   0  0  0  0  0  0  0  0  0  0  0  0
   53.8604   18.9485  112.1072 N   0  0  0  0  0  0  0  0  0  0  0  0
   52.5291   19.4895  112.2039 C   0  0  2  0  0  0  0  0  0  0  0  0
   52.5797   20.9213  111.7831 C   0  0  0  0  0  0  0  0  0  0  0  0
   53.5544   21.2373  111.0227 O   0  0  0  0  0  0  0  0  0  0  0  0
   52.2257   19.3532  113.6755 C   0  0  0  0  0  0  0  0  0  0  0  0
   53.5192   18.9435  114.3601 C   0  0  0  0  0  0  0  0  0  0  0  0
   54.5323   19.4460  113.3265 C   0  0  0  0  0  0  0  0  0  0  0  0
   51.6705   21.9232  112.1437 N   0  0  0  0  0  0  0  0  0  0  0  0
   50.2273   21.8636  112.0344 C   0  0  2  0  0  0  0  0  0  0  0  0
   49.6222   22.5310  110.8962 C   0  0  0  0  0  0  0  0  0  0  0  0
   48.4061   22.1136  110.6609 O   0  0  0  0  0  0  0  0  0  0  0  0
   49.6343   22.3254  113.3310 C   0  0  2  0  0  0  0  0  0  0  0  0
   49.0764   21.2159  114.1921 C   0  0  0  0  0  0  0  0  0  0  0  0
   48.7907   23.5426  113.2472 C   0  0  0  0  0  0  0  0  0  0  0  0
   48.9318   19.9525  113.3652 C   0  0  0  0  0  0  0  0  0  0  0  0
   50.0698   23.5096  110.0169 N   0  0  0  0  0  0  0  0  0  0  0  0
   51.3245   24.2190  109.9874 C   0  0  2  0  0  0  0  0  0  0  0  0
   51.4006   25.3969  110.8759 C   0  0  0  0  0  0  0  0  0  0  0  0
   52.5364   25.4921  111.5068 O   0  0  0  0  0  0  0  0  0  0  0  0
   51.7362   24.6213  108.5796 C   0  0  0  0  0  0  0  0  0  0  0  0
   53.5323   24.8704  108.4967 S   0  0  0  0  0  0  0  0  0  0  0  0
   50.4590   26.3871  111.1284 N   0  0  0  0  0  0  0  0  0  0  0  0
   49.8839   27.4239  110.3388 C   0  0  2  0  0  0  0  0  0  0  0  0
   49.7363   28.6757  111.1815 C   0  0  0  0  0  0  0  0  0  0  0  0
   49.8524   28.4850  112.4509 O   0  0  0  0  0  0  0  0  0  0  0  0
   48.5554   27.1592  109.7324 C   0  0  0  0  0  0  0  0  0  0  0  0
   48.5076   27.0592  108.2594 C   0  0  0  0  0  0  0  0  0  0  0  0
   47.3939   27.4492  107.5401 C   0  0  0  0  0  0  0  0  0  0  0  0
   49.5920   26.5593  107.5664 C   0  0  0  0  0  0  0  0  0  0  0  0
   47.4167   27.3221  106.1651 C   0  0  0  0  0  0  0  0  0  0  0  0
   49.6302   26.4261  106.1892 C   0  0  0  0  0  0  0  0  0  0  0  0
   48.5072   26.8215  105.4897 C   0  0  0  0  0  0  0  0  0  0  0  0
   49.4935   29.9602  110.7028 N   0  0  0  0  0  0  0  0  0  0  0  0
   49.8059   30.5207  109.4281 C   0  0  2  0  0  0  0  0  0  0  0  0
   51.1992   31.0384  109.3616 C   0  0  0  0  0  0  0  0  0  0  0  0
   51.8798   31.0140  110.4148 O   0  0  0  0  0  0  0  0  0  0  0  0
   48.8996   31.7169  109.2095 C   0  0  0  0  0  0  0  0  0  0  0  0
   48.0331   31.7562  110.4143 C   0  0  0  0  0  0  0  0  0  0  0  0
   48.8292   31.0521  111.4586 C   0  0  0  0  0  0  0  0  0  0  0  0
   51.7239   31.5318  108.1705 N   0  0  0  0  0  0  0  0  0  0  0  0
   51.5127   30.9597  106.8621 C   0  0  2  0  0  0  0  0  0  0  0  0
   52.8269   30.8545  106.1283 C   0  0  0  0  0  0  0  0  0  0  0  0
   53.8435   31.3784  106.6259 O   0  0  0  0  0  0  0  0  0  0  0  0
   50.5733   31.7628  105.9882 C   0  0  0  0  0  0  0  0  0  0  0  0
   51.1289   32.0768  104.6579 C   0  0  0  0  0  0  0  0  0  0  0  0
   50.9462   31.1986  103.6089 O   0  0  0  0  0  0  0  0  0  0  0  0
   51.7657   33.1303  104.4652 O   0  0  0  0  0  0  0  0  0  0  0  0
   52.8441   29.5996  103.6485 O   0  0  0  0  0  0  0  0  0  0  0  0
   50.1519   27.8609  102.1681 H   0  0  0  0  0  0  0  0  0  0  0  0
  1  2  1  0
  1105  1  0
  1111  1  0
  2  3  1  0
  2111  1  6
  3  4  2  0
  3  5  1  0
  5  6  1  0
  6  7  1  0
  6  9  1  1
  7  8  2  0
  7 16  1  0
  9 10  1  0
 10 11  1  0
 11 12  1  0
 12 13  1  0
 13 14  2  0
 13 15  1  0
 17 16  1  6
 17 18  1  0
 17 20  1  0
 18 19  2  0
 18 22  1  0
 20 21  1  0
 21 84  1  0
 22 23  1  0
 23 24  1  0
 23 26  1  6
 24 25  2  0
 24 34  1  0
 26 27  1  0
 27 28  2  0
 27 29  1  0
 28 30  1  0
 29 31  2  0
 30 32  2  0
 31 32  1  0
 32 33  1  0
 34 35  1  0
 35 36  1  0
 35 38  1  1
 36 37  2  0
 36 43  1  0
 38 39  1  0
 39 40  1  0
 40 41  1  0
 41 42  1  0
 43 44  1  0
 44 45  1  0
 44 47  1  1
 45 46  2  0
 45 49  1  0
 47 48  1  0
 50 49  1  1
 50 51  1  0
 50 53  1  0
 51 52  2  0
 51 57  1  0
 53 54  1  0
 53 55  1  6
 54 56  1  0
 57 58  1  0
 57 63  1  0
 58 59  1  0
 58 61  1  1
 59 60  2  0
 59 64  1  0
 61 62  1  0
 62 63  1  0
 64 65  1  0
 64 70  1  0
 65 66  1  0
 65 68  1  1
 66 67  2  0
 66 71  1  0
 68 69  1  0
 69 70  1  0
 72 71  1  1
 72 73  1  0
 72 75  1  0
 73 74  2  0
 73 79  1  0
 75 76  1  0
 75 77  1  6
 76 78  1  0
 80 79  1  6
 80 81  1  0
 80 83  1  0
 81 82  2  0
 81 85  1  0
 83 84  1  0
 85 86  1  0
 86 87  1  0
 86 89  1  1
 87 88  2  0
 87 96  1  0
 89 90  1  0
 90 91  2  0
 90 92  1  0
 91 93  1  0
 92 94  2  0
 93 95  2  0
 94 95  1  0
 96 97  1  0
 96102  1  0
 97 98  1  0
 97100  1  1
 98 99  2  0
 98103  1  0
100101  1  0
101102  1  0
103104  1  0
104105  1  0
104107  1  6
105106  2  0
107108  1  0
108109  1  0
108110  2  0
 14112  1  0
M  CHG  1  42   1
M  END
$$$$
