
     RDKit          3D

112119  0  0  0  0  0  0  0  0999 V2000
   57.2365   16.4667  109.5468 N   0  0  0  0  0  0  0  0  0  0  0  0
   57.0618   17.6872  108.8043 C   0  0  2  0  0  0  0  0  0  0  0  0
   55.6652   17.9096  108.3937 C   0  0  0  0  0  0  0  0  0  0  0  0
   54.8765   18.4631  109.1968 O   0  0  0  0  0  0  0  0  0  0  0  0
   55.1715   17.5159  107.1060 N   0  0  0  0  0  0  0  0  0  0  0  0
   56.0059   17.6193  105.9194 C   0  0  2  0  0  0  0  0  0  0  0  0
   56.4380   19.0092  105.6706 C   0  0  0  0  0  0  0  0  0  0  0  0
   57.6828   19.1745  105.3996 O   0  0  0  0  0  0  0  0  0  0  0  0
   55.3596   16.9498  104.7539 C   0  0  0  0  0  0  0  0  0  0  0  0
   56.3918   16.5494  103.7498 C   0  0  0  0  0  0  0  0  0  0  0  0
   57.0678   15.2431  104.0006 C   0  0  0  0  0  0  0  0  0  0  0  0
   58.4153   15.5751  104.4968 N   0  0  0  0  0  0  0  0  0  0  0  0
   59.4319   14.5801  104.6250 C   0  0  0  0  0  0  0  0  0  0  0  0
   59.3965   13.8082  105.6663 N   0  0  0  0  0  0  0  0  0  0  0  0
   60.4530   14.4222  103.6591 N   0  0  0  0  0  0  0  0  0  0  0  0
   55.6587   20.1724  105.6952 N   0  0  0  0  0  0  0  0  0  0  0  0
   54.2136   20.2664  105.6236 C   0  0  2  0  0  0  0  0  0  0  0  0
   53.6682   20.2395  104.2486 C   0  0  0  0  0  0  0  0  0  0  0  0
   52.6590   19.4411  104.0699 O   0  0  0  0  0  0  0  0  0  0  0  0
   53.7140   21.4375  106.4499 C   0  0  0  0  0  0  0  0  0  0  0  0
   52.2034   20.9713  107.2766 S   0  0  0  0  0  0  0  0  0  0  0  0
   54.0783   20.9405  103.1276 N   0  0  0  0  0  0  0  0  0  0  0  0
   54.1082   22.3916  102.9093 C   0  0  2  0  0  0  0  0  0  0  0  0
   53.7137   22.6562  101.4948 C   0  0  0  0  0  0  0  0  0  0  0  0
   54.5320   22.0819  100.6763 O   0  0  0  0  0  0  0  0  0  0  0  0
   55.5051   22.9470  103.0885 C   0  0  0  0  0  0  0  0  0  0  0  0
   55.6026   24.3794  103.3199 C   0  0  0  0  0  0  0  0  0  0  0  0
   54.5088   25.1301  103.6878 C   0  0  0  0  0  0  0  0  0  0  0  0
   56.7865   25.1183  103.1556 C   0  0  0  0  0  0  0  0  0  0  0  0
   54.5352   26.4910  103.8869 C   0  0  0  0  0  0  0  0  0  0  0  0
   56.8370   26.4685  103.3471 C   0  0  0  0  0  0  0  0  0  0  0  0
   55.7131   27.1807  103.7158 C   0  0  0  0  0  0  0  0  0  0  0  0
   55.7676   28.5690  103.9126 O   0  0  0  0  0  0  0  0  0  0  0  0
   52.6387   23.4019  101.0008 N   0  0  0  0  0  0  0  0  0  0  0  0
   51.2319   23.2217  101.1365 C   0  0  2  0  0  0  0  0  0  0  0  0
   50.6003   24.1777  102.1116 C   0  0  0  0  0  0  0  0  0  0  0  0
   51.1829   24.3320  103.1969 O   0  0  0  0  0  0  0  0  0  0  0  0
   50.7766   21.8214  101.4144 C   0  0  0  0  0  0  0  0  0  0  0  0
   49.8435   21.6632  102.5273 C   0  0  0  0  0  0  0  0  0  0  0  0
   49.5636   22.7115  103.5039 C   0  0  0  0  0  0  0  0  0  0  0  0
   49.3279   24.1125  103.1404 C   0  0  0  0  0  0  0  0  0  0  0  0
   49.1999   25.0501  104.2264 N   0  0  0  0  0  4  0  0  0  0  0  0
   49.4099   24.8899  101.8651 N   0  0  0  0  0  0  0  0  0  0  0  0
   49.1296   25.6788  100.6828 C   0  0  2  0  0  0  0  0  0  0  0  0
   48.4461   26.9628  100.9841 C   0  0  0  0  0  0  0  0  0  0  0  0
   48.5006   27.7972  100.0169 O   0  0  0  0  0  0  0  0  0  0  0  0
   48.1524   24.9179   99.7644 C   0  0  0  0  0  0  0  0  0  0  0  0
   47.1557   24.3126  100.5233 O   0  0  0  0  0  0  0  0  0  0  0  0
   47.7808   27.3474  102.1412 N   0  0  0  0  0  0  0  0  0  0  0  0
   48.2814   27.4912  103.4931 C   0  0  2  0  0  0  0  0  0  0  0  0
   47.2209   27.0022  104.4209 C   0  0  0  0  0  0  0  0  0  0  0  0
   46.3657   26.1701  103.9122 O   0  0  0  0  0  0  0  0  0  0  0  0
   48.6555   28.9070  103.8181 C   0  0  2  0  0  0  0  0  0  0  0  0
   48.9513   29.7886  102.6431 C   0  0  0  0  0  0  0  0  0  0  0  0
   49.7738   28.9586  104.8489 C   0  0  0  0  0  0  0  0  0  0  0  0
   49.2281   31.2183  102.9087 C   0  0  0  0  0  0  0  0  0  0  0  0
   47.0217   27.3219  105.7732 N   0  0  0  0  0  0  0  0  0  0  0  0
   48.0511   27.2610  106.8267 C   0  0  2  0  0  0  0  0  0  0  0  0
   47.7707   26.0298  107.6220 C   0  0  0  0  0  0  0  0  0  0  0  0
   47.4580   24.9931  106.9134 O   0  0  0  0  0  0  0  0  0  0  0  0
   47.8248   28.5193  107.5769 C   0  0  0  0  0  0  0  0  0  0  0  0
   46.3533   28.8763  107.3409 C   0  0  0  0  0  0  0  0  0  0  0  0
   45.8267   27.7345  106.5077 C   0  0  0  0  0  0  0  0  0  0  0  0
   47.8216   25.9374  109.0245 N   0  0  0  0  0  0  0  0  0  0  0  0
   48.9012   26.3443  109.8865 C   0  0  2  0  0  0  0  0  0  0  0  0
   49.6749   25.1250  110.2663 C   0  0  0  0  0  0  0  0  0  0  0  0
   49.5764   24.1384  109.4632 O   0  0  0  0  0  0  0  0  0  0  0  0
   48.1726   26.9311  111.0702 C   0  0  0  0  0  0  0  0  0  0  0  0
   46.6992   26.6044  110.8919 C   0  0  0  0  0  0  0  0  0  0  0  0
   46.8109   25.3955  109.9575 C   0  0  0  0  0  0  0  0  0  0  0  0
   50.4799   24.9752  111.4022 N   0  0  0  0  0  0  0  0  0  0  0  0
   51.5289   25.8708  111.8448 C   0  0  2  0  0  0  0  0  0  0  0  0
   52.8958   25.4910  111.5377 C   0  0  0  0  0  0  0  0  0  0  0  0
   53.7238   26.4996  111.6145 O   0  0  0  0  0  0  0  0  0  0  0  0
   51.3396   26.1361  113.3076 C   0  0  2  0  0  0  0  0  0  0  0  0
   50.5198   25.0921  114.0300 C   0  0  0  0  0  0  0  0  0  0  0  0
   51.0254   27.5413  113.6641 C   0  0  0  0  0  0  0  0  0  0  0  0
   49.0440   25.3448  113.7868 C   0  0  0  0  0  0  0  0  0  0  0  0
   53.4934   24.2881  111.1813 N   0  0  0  0  0  0  0  0  0  0  0  0
   52.9115   22.9775  111.0329 C   0  0  2  0  0  0  0  0  0  0  0  0
   52.7795   22.2040  112.2847 C   0  0  0  0  0  0  0  0  0  0  0  0
   51.6442   21.5724  112.3811 O   0  0  0  0  0  0  0  0  0  0  0  0
   53.6293   22.1332  109.9912 C   0  0  0  0  0  0  0  0  0  0  0  0
   52.5237   20.8394  109.3599 S   0  0  0  0  0  0  0  0  0  0  0  0
   53.6677   22.0609  113.3436 N   0  0  0  0  0  0  0  0  0  0  0  0
   54.9468   21.4491  113.4807 C   0  0  2  0  0  0  0  0  0  0  0  0
   55.0270   20.7445  114.8209 C   0  0  0  0  0  0  0  0  0  0  0  0
   54.1068   21.0787  115.6591 O   0  0  0  0  0  0  0  0  0  0  0  0
   56.1360   22.3325  113.3918 C   0  0  0  0  0  0  0  0  0  0  0  0
   56.5925   22.6945  112.0344 C   0  0  0  0  0  0  0  0  0  0  0  0
   57.4363   23.7663  111.8129 C   0  0  0  0  0  0  0  0  0  0  0  0
   56.1704   21.9582  110.9455 C   0  0  0  0  0  0  0  0  0  0  0  0
   57.8181   24.0507  110.5165 C   0  0  0  0  0  0  0  0  0  0  0  0
   56.5443   22.2304  109.6409 C   0  0  0  0  0  0  0  0  0  0  0  0
   57.3876   23.3055  109.4417 C   0  0  0  0  0  0  0  0  0  0  0  0
   55.9830   19.8040  115.1948 N   0  0  0  0  0  0  0  0  0  0  0  0
   56.7512   18.9249  114.3741 C   0  0  2  0  0  0  0  0  0  0  0  0
   56.0207   17.6707  114.0468 C   0  0  0  0  0  0  0  0  0  0  0  0
   54.9016   17.4920  114.5842 O   0  0  0  0  0  0  0  0  0  0  0  0
   57.9787   18.5061  115.1601 C   0  0  0  0  0  0  0  0  0  0  0  0
   57.8716   19.2436  116.4440 C   0  0  0  0  0  0  0  0  0  0  0  0
   56.4139   19.5172  116.5865 C   0  0  0  0  0  0  0  0  0  0  0  0
   56.5643   16.7318  113.1747 N   0  0  0  0  0  0  0  0  0  0  0  0
   57.2787   17.0349  111.9575 C   0  0  2  0  0  0  0  0  0  0  0  0
   56.7641   16.1733  110.8308 C   0  0  0  0  0  0  0  0  0  0  0  0
   55.9584   15.2563  111.0872 O   0  0  0  0  0  0  0  0  0  0  0  0
   58.7720   16.8062  112.0519 C   0  0  0  0  0  0  0  0  0  0  0  0
   59.2757   15.7985  111.0991 C   0  0  0  0  0  0  0  0  0  0  0  0
   60.6344   15.6436  110.9126 O   0  0  0  0  0  0  0  0  0  0  0  0
   58.4875   15.0797  110.4551 O   0  0  0  0  0  0  0  0  0  0  0  0
   57.7606   16.6269  108.2762 O   0  0  0  0  0  0  0  0  0  0  0  0
   60.0297   12.9746  105.7191 H   0  0  0  0  0  0  0  0  0  0  0  0
  1  2  1  0
  1105  1  0
  1111  1  0
  2  3  1  0
  2111  1  6
  3  4  2  0
  3  5  1  0
  5  6  1  0
  6  7  1  0
  6  9  1  6
  7  8  2  0
  7 16  1  0
  9 10  1  0
 10 11  1  0
 11 12  1  0
 12 13  1  0
 13 14  2  0
 13 15  1  0
 17 16  1  6
 17 18  1  0
 17 20  1  0
 18 19  2  0
 18 22  1  0
 20 21  1  0
 21 84  1  0
 22 23  1  0
 23 24  1  0
 23 26  1  6
 24 25  2  0
 24 34  1  0
 26 27  1  0
 27 28  2  0
 27 29  1  0
 28 30  1  0
 29 31  2  0
 30 32  2  0
 31 32  1  0
 32 33  1  0
 34 35  1  0
 35 36  1  0
 35 38  1  1
 36 37  2  0
 36 43  1  0
 38 39  1  0
 39 40  1  0
 40 41  1  0
 41 42  1  0
 43 44  1  0
 44 45  1  0
 44 47  1  6
 45 46  2  0
 45 49  1  0
 47 48  1  0
 50 49  1  6
 50 51  1  0
 50 53  1  0
 51 52  2  0
 51 57  1  0
 53 54  1  0
 53 55  1  1
 54 56  1  0
 57 58  1  0
 57 63  1  0
 58 59  1  0
 58 61  1  1
 59 60  2  0
 59 64  1  0
 61 62  1  0
 62 63  1  0
 64 65  1  0
 64 70  1  0
 65 66  1  0
 65 68  1  1
 66 67  2  0
 66 71  1  0
 68 69  1  0
 69 70  1  0
 72 71  1  1
 72 73  1  0
 72 75  1  0
 73 74  2  0
 73 79  1  0
 75 76  1  0
 75 77  1  6
 76 78  1  0
 80 79  1  1
 80 81  1  0
 80 83  1  0
 81 82  2  0
 81 85  1  0
 83 84  1  0
 85 86  1  0
 86 87  1  0
 86 89  1  1
 87 88  2  0
 87 96  1  0
 89 90  1  0
 90 91  2  0
 90 92  1  0
 91 93  1  0
 92 94  2  0
 93 95  2  0
 94 95  1  0
 96 97  1  0
 96102  1  0
 97 98  1  0
 97100  1  1
 98 99  2  0
 98103  1  0
100101  1  0
101102  1  0
103104  1  0
104105  1  0
104107  1  1
105106  2  0
107108  1  0
108109  1  0
108110  2  0
 14112  1  0
M  CHG  1  42   1
M  END
$$$$
