
     RDKit          3D

112119  0  0  0  0  0  0  0  0999 V2000
   54.3507   13.7757  110.8931 N   0  0  0  0  0  0  0  0  0  0  0  0
   54.8997   14.9759  110.3193 C   0  0  2  0  0  0  0  0  0  0  0  0
   53.9553   15.6624  109.4220 C   0  0  0  0  0  0  0  0  0  0  0  0
   53.1207   16.4598  109.9131 O   0  0  0  0  0  0  0  0  0  0  0  0
   53.9537   15.4529  108.0031 N   0  0  0  0  0  0  0  0  0  0  0  0
   55.1958   15.2536  107.2734 C   0  0  2  0  0  0  0  0  0  0  0  0
   56.1062   16.4079  107.4122 C   0  0  0  0  0  0  0  0  0  0  0  0
   57.3311   16.1324  107.6846 O   0  0  0  0  0  0  0  0  0  0  0  0
   54.9261   14.8388  105.8665 C   0  0  0  0  0  0  0  0  0  0  0  0
   54.5918   13.3830  105.8117 C   0  0  0  0  0  0  0  0  0  0  0  0
   55.5803   12.4663  106.4511 C   0  0  0  0  0  0  0  0  0  0  0  0
   56.4731   13.3276  107.2468 N   0  0  0  0  0  0  0  0  0  0  0  0
   57.6972   12.8349  107.7931 C   0  0  0  0  0  0  0  0  0  0  0  0
   57.6262   11.9638  108.7511 N   0  0  0  0  0  0  0  0  0  0  0  0
   58.9579   13.2672  107.3194 N   0  0  0  0  0  0  0  0  0  0  0  0
   55.8000   17.7684  107.2855 N   0  0  0  0  0  0  0  0  0  0  0  0
   54.6310   18.3537  106.6586 C   0  0  2  0  0  0  0  0  0  0  0  0
   54.7379   18.5056  105.1909 C   0  0  0  0  0  0  0  0  0  0  0  0
   53.7033   18.1022  104.5166 O   0  0  0  0  0  0  0  0  0  0  0  0
   54.2272   19.6315  107.3714 C   0  0  0  0  0  0  0  0  0  0  0  0
   52.4474   19.7202  107.4554 S   0  0  0  0  0  0  0  0  0  0  0  0
   55.7799   19.0140  104.4346 N   0  0  0  0  0  0  0  0  0  0  0  0
   56.3548   20.3644  104.4494 C   0  0  2  0  0  0  0  0  0  0  0  0
   56.6987   20.7377  103.0464 C   0  0  0  0  0  0  0  0  0  0  0  0
   57.5584   19.9105  102.5501 O   0  0  0  0  0  0  0  0  0  0  0  0
   57.6424   20.4062  105.2448 C   0  0  0  0  0  0  0  0  0  0  0  0
   58.6589   19.4347  104.8739 C   0  0  0  0  0  0  0  0  0  0  0  0
   58.3353   18.2459  104.2595 C   0  0  0  0  0  0  0  0  0  0  0  0
   60.0295   19.5991  105.1373 C   0  0  0  0  0  0  0  0  0  0  0  0
   59.2500   17.2772  103.9172 C   0  0  0  0  0  0  0  0  0  0  0  0
   60.9550   18.6522  104.8073 C   0  0  0  0  0  0  0  0  0  0  0  0
   60.5836   17.4735  104.1917 C   0  0  0  0  0  0  0  0  0  0  0  0
   61.5374   16.5015  103.8529 O   0  0  0  0  0  0  0  0  0  0  0  0
   56.2279   21.8042  102.2738 N   0  0  0  0  0  0  0  0  0  0  0  0
   54.9176   22.1204  101.8122 C   0  0  2  0  0  0  0  0  0  0  0  0
   54.2711   23.2428  102.5776 C   0  0  0  0  0  0  0  0  0  0  0  0
   54.3579   23.1955  103.8151 O   0  0  0  0  0  0  0  0  0  0  0  0
   53.9718   20.9646  101.6890 C   0  0  0  0  0  0  0  0  0  0  0  0
   52.9078   20.9020  102.6881 C   0  0  0  0  0  0  0  0  0  0  0  0
   51.8255   21.8775  102.7800 C   0  0  0  0  0  0  0  0  0  0  0  0
   51.7057   23.0376  101.8910 C   0  0  0  0  0  0  0  0  0  0  0  0
   51.4106   22.7650  100.5077 N   0  0  0  0  0  4  0  0  0  0  0  0
   53.5872   24.3195  101.9790 N   0  0  0  0  0  0  0  0  0  0  0  0
   54.0957   25.1475  100.9045 C   0  0  2  0  0  0  0  0  0  0  0  0
   53.7923   26.5906  101.0836 C   0  0  0  0  0  0  0  0  0  0  0  0
   54.5093   27.3478  100.3437 O   0  0  0  0  0  0  0  0  0  0  0  0
   53.4118   24.7626   99.5773 C   0  0  0  0  0  0  0  0  0  0  0  0
   52.0426   24.9957   99.6596 O   0  0  0  0  0  0  0  0  0  0  0  0
   52.8604   27.1896  101.9216 N   0  0  0  0  0  0  0  0  0  0  0  0
   52.7619   27.1626  103.3667 C   0  0  2  0  0  0  0  0  0  0  0  0
   51.3150   27.0758  103.7184 C   0  0  0  0  0  0  0  0  0  0  0  0
   50.5398   26.5851  102.8014 O   0  0  0  0  0  0  0  0  0  0  0  0
   53.3895   28.3655  104.0064 C   0  0  2  0  0  0  0  0  0  0  0  0
   54.7954   28.6680  103.5855 C   0  0  0  0  0  0  0  0  0  0  0  0
   53.2605   28.3139  105.5219 C   0  0  0  0  0  0  0  0  0  0  0  0
   55.4294   27.7604  102.6030 C   0  0  0  0  0  0  0  0  0  0  0  0
   50.6767   27.4548  104.9098 N   0  0  0  0  0  0  0  0  0  0  0  0
   51.0891   27.0513  106.2664 C   0  0  2  0  0  0  0  0  0  0  0  0
   50.1274   25.9980  106.7055 C   0  0  0  0  0  0  0  0  0  0  0  0
   49.8332   25.1270  105.7948 O   0  0  0  0  0  0  0  0  0  0  0  0
   50.9773   28.3163  107.0310 C   0  0  0  0  0  0  0  0  0  0  0  0
   49.9380   29.1563  106.2809 C   0  0  0  0  0  0  0  0  0  0  0  0
   49.4812   28.2593  105.1576 C   0  0  0  0  0  0  0  0  0  0  0  0
   49.5507   25.9046  107.9849 N   0  0  0  0  0  0  0  0  0  0  0  0
   50.2339   25.9215  109.2527 C   0  0  2  0  0  0  0  0  0  0  0  0
   50.3474   24.5132  109.7361 C   0  0  0  0  0  0  0  0  0  0  0  0
   50.2909   23.6148  108.8318 O   0  0  0  0  0  0  0  0  0  0  0  0
   49.3007   26.7323  110.1174 C   0  0  0  0  0  0  0  0  0  0  0  0
   48.0198   26.9315  109.3242 C   0  0  0  0  0  0  0  0  0  0  0  0
   48.1274   25.7509  108.3537 C   0  0  0  0  0  0  0  0  0  0  0  0
   50.5062   24.1042  111.0657 N   0  0  0  0  0  0  0  0  0  0  0  0
   51.4941   24.5872  112.0086 C   0  0  2  0  0  0  0  0  0  0  0  0
   52.6661   23.7577  112.2214 C   0  0  0  0  0  0  0  0  0  0  0  0
   53.6558   24.4201  112.7603 O   0  0  0  0  0  0  0  0  0  0  0  0
   50.8005   24.9127  113.2966 C   0  0  2  0  0  0  0  0  0  0  0  0
   49.9375   23.7972  113.8396 C   0  0  0  0  0  0  0  0  0  0  0  0
   50.2001   26.2670  113.3716 C   0  0  0  0  0  0  0  0  0  0  0  0
   49.7264   22.7471  112.7656 C   0  0  0  0  0  0  0  0  0  0  0  0
   52.9451   22.4199  111.9694 N   0  0  0  0  0  0  0  0  0  0  0  0
   52.0996   21.3886  111.4217 C   0  0  2  0  0  0  0  0  0  0  0  0
   51.2161   20.7175  112.3973 C   0  0  0  0  0  0  0  0  0  0  0  0
   50.0109   20.5162  111.9455 O   0  0  0  0  0  0  0  0  0  0  0  0
   52.8827   20.3409  110.6457 C   0  0  0  0  0  0  0  0  0  0  0  0
   51.8005   19.5020  109.4539 S   0  0  0  0  0  0  0  0  0  0  0  0
   51.4802   20.2854  113.6912 N   0  0  0  0  0  0  0  0  0  0  0  0
   52.3172   19.2718  114.2398 C   0  0  2  0  0  0  0  0  0  0  0  0
   51.5987   18.5929  115.3895 C   0  0  0  0  0  0  0  0  0  0  0  0
   50.5685   19.2300  115.8298 O   0  0  0  0  0  0  0  0  0  0  0  0
   53.6445   19.6910  114.7548 C   0  0  0  0  0  0  0  0  0  0  0  0
   54.6318   20.1418  113.7527 C   0  0  0  0  0  0  0  0  0  0  0  0
   55.4073   21.2681  113.9518 C   0  0  0  0  0  0  0  0  0  0  0  0
   54.7934   19.4355  112.5775 C   0  0  0  0  0  0  0  0  0  0  0  0
   56.3062   21.6344  112.9694 C   0  0  0  0  0  0  0  0  0  0  0  0
   55.6898   19.7896  111.5840 C   0  0  0  0  0  0  0  0  0  0  0  0
   56.4547   20.9182  111.8029 C   0  0  0  0  0  0  0  0  0  0  0  0
   51.9576   17.3837  115.9787 N   0  0  0  0  0  0  0  0  0  0  0  0
   52.6794   16.2875  115.4183 C   0  0  2  0  0  0  0  0  0  0  0  0
   51.8006   15.3591  114.6570 C   0  0  0  0  0  0  0  0  0  0  0  0
   50.5663   15.5807  114.6744 O   0  0  0  0  0  0  0  0  0  0  0  0
   53.2600   15.4778  116.5617 C   0  0  0  0  0  0  0  0  0  0  0  0
   52.8606   16.2169  117.7856 C   0  0  0  0  0  0  0  0  0  0  0  0
   51.6473   16.9767  117.3726 C   0  0  0  0  0  0  0  0  0  0  0  0
   52.3343   14.2838  113.9525 N   0  0  0  0  0  0  0  0  0  0  0  0
   53.5501   14.3131  113.1748 C   0  0  2  0  0  0  0  0  0  0  0  0
   53.3155   13.6728  111.8289 C   0  0  0  0  0  0  0  0  0  0  0  0
   52.2333   13.0912  111.6137 O   0  0  0  0  0  0  0  0  0  0  0  0
   54.7081   13.5849  113.8230 C   0  0  0  0  0  0  0  0  0  0  0  0
   55.0769   14.1235  115.1462 C   0  0  0  0  0  0  0  0  0  0  0  0
   56.3388   13.8957  115.6567 O   0  0  0  0  0  0  0  0  0  0  0  0
   54.2606   14.7858  115.8153 O   0  0  0  0  0  0  0  0  0  0  0  0
   55.3822   13.7359  109.9715 O   0  0  0  0  0  0  0  0  0  0  0  0
   58.2177   12.0821  109.6082 H   0  0  0  0  0  0  0  0  0  0  0  0
  1  2  1  0
  1105  1  0
  1111  1  0
  2  3  1  0
  2111  1  6
  3  4  2  0
  3  5  1  0
  5  6  1  0
  6  7  1  0
  6  9  1  6
  7  8  2  0
  7 16  1  0
  9 10  1  0
 10 11  1  0
 11 12  1  0
 12 13  1  0
 13 14  2  0
 13 15  1  0
 17 16  1  1
 17 18  1  0
 17 20  1  0
 18 19  2  0
 18 22  1  0
 20 21  1  0
 21 84  1  0
 22 23  1  0
 23 24  1  0
 23 26  1  1
 24 25  2  0
 24 34  1  0
 26 27  1  0
 27 28  2  0
 27 29  1  0
 28 30  1  0
 29 31  2  0
 30 32  2  0
 31 32  1  0
 32 33  1  0
 34 35  1  0
 35 36  1  0
 35 38  1  1
 36 37  2  0
 36 43  1  0
 38 39  1  0
 39 40  1  0
 40 41  1  0
 41 42  1  0
 43 44  1  0
 44 45  1  0
 44 47  1  6
 45 46  2  0
 45 49  1  0
 47 48  1  0
 50 49  1  6
 50 51  1  0
 50 53  1  0
 51 52  2  0
 51 57  1  0
 53 54  1  0
 53 55  1  1
 54 56  1  0
 57 58  1  0
 57 63  1  0
 58 59  1  0
 58 61  1  1
 59 60  2  0
 59 64  1  0
 61 62  1  0
 62 63  1  0
 64 65  1  0
 64 70  1  0
 65 66  1  0
 65 68  1  1
 66 67  2  0
 66 71  1  0
 68 69  1  0
 69 70  1  0
 72 71  1  6
 72 73  1  0
 72 75  1  0
 73 74  2  0
 73 79  1  0
 75 76  1  0
 75 77  1  6
 76 78  1  0
 80 79  1  1
 80 81  1  0
 80 83  1  0
 81 82  2  0
 81 85  1  0
 83 84  1  0
 85 86  1  0
 86 87  1  0
 86 89  1  1
 87 88  2  0
 87 96  1  0
 89 90  1  0
 90 91  2  0
 90 92  1  0
 91 93  1  0
 92 94  2  0
 93 95  2  0
 94 95  1  0
 96 97  1  0
 96102  1  0
 97 98  1  0
 97100  1  1
 98 99  2  0
 98103  1  0
100101  1  0
101102  1  0
103104  1  0
104105  1  0
104107  1  1
105106  2  0
107108  1  0
108109  1  0
108110  2  0
 14112  1  0
M  CHG  1  42   1
M  END
$$$$
