
     RDKit          3D

112119  0  0  0  0  0  0  0  0999 V2000
   56.4746   15.7795  110.8737 N   0  0  0  0  0  0  0  0  0  0  0  0
   56.6019   17.0033  110.1271 C   0  0  2  0  0  0  0  0  0  0  0  0
   55.4364   17.2703  109.2674 C   0  0  0  0  0  0  0  0  0  0  0  0
   54.4392   17.8512  109.7589 O   0  0  0  0  0  0  0  0  0  0  0  0
   55.3986   16.8900  107.8851 N   0  0  0  0  0  0  0  0  0  0  0  0
   56.5901   16.9633  107.0545 C   0  0  2  0  0  0  0  0  0  0  0  0
   57.1247   18.3377  106.9801 C   0  0  0  0  0  0  0  0  0  0  0  0
   58.3920   18.4616  107.1506 O   0  0  0  0  0  0  0  0  0  0  0  0
   56.3586   16.3127  105.7326 C   0  0  0  0  0  0  0  0  0  0  0  0
   57.0041   14.9649  105.6995 C   0  0  0  0  0  0  0  0  0  0  0  0
   58.1533   14.7734  106.6317 C   0  0  0  0  0  0  0  0  0  0  0  0
   58.8241   13.5356  106.1959 N   0  0  0  0  0  0  0  0  0  0  0  0
   59.0861   13.2719  104.8169 C   0  0  0  0  0  0  0  0  0  0  0  0
   58.6967   12.1336  104.3330 N   0  0  0  0  0  0  0  0  0  0  0  0
   59.7456   14.2076  103.9862 N   0  0  0  0  0  0  0  0  0  0  0  0
   56.4208   19.5259  106.7483 N   0  0  0  0  0  0  0  0  0  0  0  0
   55.0903   19.6670  106.1898 C   0  0  2  0  0  0  0  0  0  0  0  0
   55.0452   19.6547  104.7111 C   0  0  0  0  0  0  0  0  0  0  0  0
   54.1326   18.8894  104.1923 O   0  0  0  0  0  0  0  0  0  0  0  0
   54.3763   20.8557  106.8071 C   0  0  0  0  0  0  0  0  0  0  0  0
   52.6605   20.4411  107.0658 S   0  0  0  0  0  0  0  0  0  0  0  0
   55.8345   20.3393  103.8031 N   0  0  0  0  0  0  0  0  0  0  0  0
   55.9828   21.7881  103.6210 C   0  0  2  0  0  0  0  0  0  0  0  0
   56.1022   22.0622  102.1592 C   0  0  0  0  0  0  0  0  0  0  0  0
   57.1319   21.4595  101.6630 O   0  0  0  0  0  0  0  0  0  0  0  0
   57.2520   22.2980  104.2701 C   0  0  0  0  0  0  0  0  0  0  0  0
   57.0895   23.3508  105.2600 C   0  0  0  0  0  0  0  0  0  0  0  0
   57.0106   23.0739  106.6063 C   0  0  0  0  0  0  0  0  0  0  0  0
   56.9625   24.7128  104.9379 C   0  0  0  0  0  0  0  0  0  0  0  0
   56.8238   24.0247  107.5827 C   0  0  0  0  0  0  0  0  0  0  0  0
   56.7762   25.6736  105.8889 C   0  0  0  0  0  0  0  0  0  0  0  0
   56.7029   25.3485  107.2287 C   0  0  0  0  0  0  0  0  0  0  0  0
   56.5118   26.3384  108.2049 O   0  0  0  0  0  0  0  0  0  0  0  0
   55.2840   22.8416  101.3353 N   0  0  0  0  0  0  0  0  0  0  0  0
   53.9101   22.7078  100.9823 C   0  0  2  0  0  0  0  0  0  0  0  0
   53.0146   23.6862  101.6926 C   0  0  0  0  0  0  0  0  0  0  0  0
   53.1972   23.8239  102.9127 O   0  0  0  0  0  0  0  0  0  0  0  0
   53.3434   21.3238  101.0760 C   0  0  0  0  0  0  0  0  0  0  0  0
   53.3573   20.5439   99.8408 C   0  0  0  0  0  0  0  0  0  0  0  0
   53.6943   21.1025   98.5348 C   0  0  0  0  0  0  0  0  0  0  0  0
   54.0772   20.2837   97.3801 C   0  0  0  0  0  0  0  0  0  0  0  0
   54.5688   20.9866   96.2229 N   0  0  0  0  0  4  0  0  0  0  0  0
   52.0025   24.4365  101.0619 N   0  0  0  0  0  0  0  0  0  0  0  0
   52.1667   25.2314   99.8618 C   0  0  2  0  0  0  0  0  0  0  0  0
   51.4623   26.5377   99.9239 C   0  0  0  0  0  0  0  0  0  0  0  0
   51.8694   27.3676   99.0406 O   0  0  0  0  0  0  0  0  0  0  0  0
   51.5373   24.5007   98.6588 C   0  0  0  0  0  0  0  0  0  0  0  0
   51.5039   23.1301   98.8957 O   0  0  0  0  0  0  0  0  0  0  0  0
   50.4551   26.9465  100.7888 N   0  0  0  0  0  0  0  0  0  0  0  0
   50.4697   27.0770  102.2316 C   0  0  2  0  0  0  0  0  0  0  0  0
   49.1416   26.6252  102.7384 C   0  0  0  0  0  0  0  0  0  0  0  0
   48.4851   25.8204  101.9614 O   0  0  0  0  0  0  0  0  0  0  0  0
   50.7552   28.4806  102.6772 C   0  0  2  0  0  0  0  0  0  0  0  0
   51.1861   29.4305  101.6015 C   0  0  0  0  0  0  0  0  0  0  0  0
   51.7179   28.4994  103.8556 C   0  0  0  0  0  0  0  0  0  0  0  0
   51.4615   28.8703  100.2593 C   0  0  0  0  0  0  0  0  0  0  0  0
   48.5039   26.9543  103.9449 N   0  0  0  0  0  0  0  0  0  0  0  0
   49.1105   26.8622  105.2853 C   0  0  2  0  0  0  0  0  0  0  0  0
   48.5372   25.6427  105.9266 C   0  0  0  0  0  0  0  0  0  0  0  0
   48.4521   24.6152  105.1445 O   0  0  0  0  0  0  0  0  0  0  0  0
   48.6821   28.1290  105.9249 C   0  0  0  0  0  0  0  0  0  0  0  0
   47.3910   28.5335  105.2051 C   0  0  0  0  0  0  0  0  0  0  0  0
   47.1439   27.4076  104.2323 C   0  0  0  0  0  0  0  0  0  0  0  0
   48.1045   25.5520  107.2617 N   0  0  0  0  0  0  0  0  0  0  0  0
   48.8382   25.9253  108.4434 C   0  0  2  0  0  0  0  0  0  0  0  0
   49.3974   24.6822  109.0530 C   0  0  0  0  0  0  0  0  0  0  0  0
   49.5472   23.6975  108.2556 O   0  0  0  0  0  0  0  0  0  0  0  0
   47.7689   26.5384  109.3134 C   0  0  0  0  0  0  0  0  0  0  0  0
   46.4348   26.2597  108.6412 C   0  0  0  0  0  0  0  0  0  0  0  0
   46.8199   25.0456  107.7898 C   0  0  0  0  0  0  0  0  0  0  0  0
   49.7622   24.5088  110.3937 N   0  0  0  0  0  0  0  0  0  0  0  0
   50.6254   25.3706  111.1751 C   0  0  2  0  0  0  0  0  0  0  0  0
   52.0025   24.9456  111.3483 C   0  0  0  0  0  0  0  0  0  0  0  0
   52.7861   25.9268  111.7116 O   0  0  0  0  0  0  0  0  0  0  0  0
   49.9576   25.6454  112.4883 C   0  0  2  0  0  0  0  0  0  0  0  0
   50.5025   26.8465  113.2260 C   0  0  0  0  0  0  0  0  0  0  0  0
   49.6971   24.4531  113.3315 C   0  0  0  0  0  0  0  0  0  0  0  0
   51.7031   27.4000  112.4823 C   0  0  0  0  0  0  0  0  0  0  0  0
   52.6475   23.7229  111.2060 N   0  0  0  0  0  0  0  0  0  0  0  0
   52.1099   22.4317  110.8566 C   0  0  2  0  0  0  0  0  0  0  0  0
   51.5350   21.6659  111.9817 C   0  0  0  0  0  0  0  0  0  0  0  0
   50.4154   21.0720  111.6801 O   0  0  0  0  0  0  0  0  0  0  0  0
   53.1125   21.5620  110.1140 C   0  0  0  0  0  0  0  0  0  0  0  0
   52.2478   20.3036  109.1324 S   0  0  0  0  0  0  0  0  0  0  0  0
   52.0044   21.4962  113.2784 N   0  0  0  0  0  0  0  0  0  0  0  0
   53.1404   20.8433  113.8374 C   0  0  2  0  0  0  0  0  0  0  0  0
   52.7370   20.1395  115.1184 C   0  0  0  0  0  0  0  0  0  0  0  0
   51.5974   20.5057  115.5961 O   0  0  0  0  0  0  0  0  0  0  0  0
   54.3160   21.6871  114.1666 C   0  0  0  0  0  0  0  0  0  0  0  0
   54.0424   22.9644  114.8564 C   0  0  0  0  0  0  0  0  0  0  0  0
   53.8621   23.0273  116.2251 C   0  0  0  0  0  0  0  0  0  0  0  0
   53.9546   24.1354  114.1304 C   0  0  0  0  0  0  0  0  0  0  0  0
   53.6037   24.2550  116.8025 C   0  0  0  0  0  0  0  0  0  0  0  0
   53.6966   25.3728  114.6943 C   0  0  0  0  0  0  0  0  0  0  0  0
   53.5196   25.4134  116.0631 C   0  0  0  0  0  0  0  0  0  0  0  0
   53.4783   19.1691  115.7870 N   0  0  0  0  0  0  0  0  0  0  0  0
   54.4519   18.2634  115.2691 C   0  0  2  0  0  0  0  0  0  0  0  0
   53.8374   17.0330  114.7013 C   0  0  0  0  0  0  0  0  0  0  0  0
   52.5971   16.8923  114.8240 O   0  0  0  0  0  0  0  0  0  0  0  0
   55.3244   17.8065  116.4223 C   0  0  0  0  0  0  0  0  0  0  0  0
   54.8097   18.5501  117.5996 C   0  0  0  0  0  0  0  0  0  0  0  0
   53.4001   18.8716  117.2396 C   0  0  0  0  0  0  0  0  0  0  0  0
   54.6156   16.0749  114.0581 N   0  0  0  0  0  0  0  0  0  0  0  0
   55.7110   16.3516  113.1596 C   0  0  2  0  0  0  0  0  0  0  0  0
   55.5840   15.5047  111.9174 C   0  0  0  0  0  0  0  0  0  0  0  0
   54.7107   14.6152  111.8759 O   0  0  0  0  0  0  0  0  0  0  0  0
   57.0749   16.0744  113.7548 C   0  0  0  0  0  0  0  0  0  0  0  0
   58.0469   15.5434  112.7800 C   0  0  0  0  0  0  0  0  0  0  0  0
   57.7635   15.5855  111.4299 O   0  0  0  0  0  0  0  0  0  0  0  0
   59.1280   15.0537  113.1596 O   0  0  0  0  0  0  0  0  0  0  0  0
   57.4049   15.9195  109.8589 O   0  0  0  0  0  0  0  0  0  0  0  0
   58.7496   11.9605  103.3006 H   0  0  0  0  0  0  0  0  0  0  0  0
  1  2  1  0
  1105  1  0
  1111  1  0
  2  3  1  0
  2111  1  6
  3  4  2  0
  3  5  1  0
  5  6  1  0
  6  7  1  0
  6  9  1  6
  7  8  2  0
  7 16  1  0
  9 10  1  0
 10 11  1  0
 11 12  1  0
 12 13  1  0
 13 14  2  0
 13 15  1  0
 17 16  1  6
 17 18  1  0
 17 20  1  0
 18 19  2  0
 18 22  1  0
 20 21  1  0
 21 84  1  0
 22 23  1  0
 23 24  1  0
 23 26  1  1
 24 25  2  0
 24 34  1  0
 26 27  1  0
 27 28  2  0
 27 29  1  0
 28 30  1  0
 29 31  2  0
 30 32  2  0
 31 32  1  0
 32 33  1  0
 34 35  1  0
 35 36  1  0
 35 38  1  1
 36 37  2  0
 36 43  1  0
 38 39  1  0
 39 40  1  0
 40 41  1  0
 41 42  1  0
 43 44  1  0
 44 45  1  0
 44 47  1  6
 45 46  2  0
 45 49  1  0
 47 48  1  0
 50 49  1  6
 50 51  1  0
 50 53  1  0
 51 52  2  0
 51 57  1  0
 53 54  1  0
 53 55  1  1
 54 56  1  0
 57 58  1  0
 57 63  1  0
 58 59  1  0
 58 61  1  1
 59 60  2  0
 59 64  1  0
 61 62  1  0
 62 63  1  0
 64 65  1  0
 64 70  1  0
 65 66  1  0
 65 68  1  1
 66 67  2  0
 66 71  1  0
 68 69  1  0
 69 70  1  0
 72 71  1  1
 72 73  1  0
 72 75  1  0
 73 74  2  0
 73 79  1  0
 75 76  1  0
 75 77  1  1
 76 78  1  0
 80 79  1  1
 80 81  1  0
 80 83  1  0
 81 82  2  0
 81 85  1  0
 83 84  1  0
 85 86  1  0
 86 87  1  0
 86 89  1  1
 87 88  2  0
 87 96  1  0
 89 90  1  0
 90 91  2  0
 90 92  1  0
 91 93  1  0
 92 94  2  0
 93 95  2  0
 94 95  1  0
 96 97  1  0
 96102  1  0
 97 98  1  0
 97100  1  1
 98 99  2  0
 98103  1  0
100101  1  0
101102  1  0
103104  1  0
104105  1  0
104107  1  1
105106  2  0
107108  1  0
108109  1  0
108110  2  0
 14112  1  0
M  CHG  1  42   1
M  END
$$$$
