
     RDKit          3D

112119  0  0  0  0  0  0  0  0999 V2000
   53.2789   14.8772  113.0009 N   0  0  0  0  0  0  0  0  0  0  0  0
   53.9995   15.8505  112.2231 C   0  0  2  0  0  0  0  0  0  0  0  0
   53.3421   16.1556  110.9412 C   0  0  0  0  0  0  0  0  0  0  0  0
   52.4386   17.0253  110.9134 O   0  0  0  0  0  0  0  0  0  0  0  0
   53.6972   15.4937  109.7194 N   0  0  0  0  0  0  0  0  0  0  0  0
   55.0770   15.1313  109.4367 C   0  0  2  0  0  0  0  0  0  0  0  0
   55.9621   16.3131  109.4140 C   0  0  0  0  0  0  0  0  0  0  0  0
   57.0653   16.2059  110.0634 O   0  0  0  0  0  0  0  0  0  0  0  0
   55.1628   14.2656  108.2253 C   0  0  0  0  0  0  0  0  0  0  0  0
   56.5777   14.1775  107.7518 C   0  0  0  0  0  0  0  0  0  0  0  0
   57.4568   13.2377  108.5070 C   0  0  0  0  0  0  0  0  0  0  0  0
   56.5574   12.4448  109.3640 N   0  0  0  0  0  0  0  0  0  0  0  0
   57.0065   11.2639  110.0300 C   0  0  0  0  0  0  0  0  0  0  0  0
   58.2804   11.1289  110.2312 N   0  0  0  0  0  0  0  0  0  0  0  0
   56.1092   10.2616  110.4666 N   0  0  0  0  0  0  0  0  0  0  0  0
   55.7476   17.5395  108.7730 N   0  0  0  0  0  0  0  0  0  0  0  0
   54.8004   17.8258  107.7133 C   0  0  2  0  0  0  0  0  0  0  0  0
   55.2858   17.4946  106.3556 C   0  0  0  0  0  0  0  0  0  0  0  0
   54.4450   16.8396  105.6126 O   0  0  0  0  0  0  0  0  0  0  0  0
   54.2733   19.2438  107.8382 C   0  0  0  0  0  0  0  0  0  0  0  0
   52.5359   19.2625  107.4336 S   0  0  0  0  0  0  0  0  0  0  0  0
   56.5045   17.7809  105.7649 N   0  0  0  0  0  0  0  0  0  0  0  0
   57.1044   19.0897  105.4796 C   0  0  2  0  0  0  0  0  0  0  0  0
   57.8099   19.0008  104.1679 C   0  0  0  0  0  0  0  0  0  0  0  0
   58.7379   18.1026  104.2073 O   0  0  0  0  0  0  0  0  0  0  0  0
   58.1453   19.4563  106.5161 C   0  0  0  0  0  0  0  0  0  0  0  0
   58.1230   18.6865  107.7497 C   0  0  0  0  0  0  0  0  0  0  0  0
   57.0837   17.8368  108.0549 C   0  0  0  0  0  0  0  0  0  0  0  0
   59.1184   18.7666  108.7384 C   0  0  0  0  0  0  0  0  0  0  0  0
   56.9937   17.1109  109.2200 C   0  0  0  0  0  0  0  0  0  0  0  0
   59.0506   18.0566  109.9018 C   0  0  0  0  0  0  0  0  0  0  0  0
   57.9876   17.2158  110.1652 C   0  0  0  0  0  0  0  0  0  0  0  0
   57.9205   16.4863  111.3621 O   0  0  0  0  0  0  0  0  0  0  0  0
   57.5917   19.7298  102.9946 N   0  0  0  0  0  0  0  0  0  0  0  0
   56.4560   19.8091  102.1380 C   0  0  2  0  0  0  0  0  0  0  0  0
   55.6753   21.0850  102.3004 C   0  0  0  0  0  0  0  0  0  0  0  0
   55.4399   21.4497  103.4634 O   0  0  0  0  0  0  0  0  0  0  0  0
   55.5326   18.6292  102.1665 C   0  0  0  0  0  0  0  0  0  0  0  0
   56.0868   17.3991  102.7268 C   0  0  0  0  0  0  0  0  0  0  0  0
   57.4310   17.2990  103.2874 C   0  0  0  0  0  0  0  0  0  0  0  0
   57.8878   16.1622  104.0933 C   0  0  0  0  0  0  0  0  0  0  0  0
   58.9715   16.4119  105.0087 N   0  0  0  0  0  4  0  0  0  0  0  0
   55.2070   21.8695  101.2278 N   0  0  0  0  0  0  0  0  0  0  0  0
   56.0035   22.3257  100.1069 C   0  0  2  0  0  0  0  0  0  0  0  0
   55.7163   23.7301   99.7176 C   0  0  0  0  0  0  0  0  0  0  0  0
   56.6258   24.2397   98.9774 O   0  0  0  0  0  0  0  0  0  0  0  0
   55.6698   21.4927   98.8531 C   0  0  0  0  0  0  0  0  0  0  0  0
   54.3586   21.7328   98.4545 O   0  0  0  0  0  0  0  0  0  0  0  0
   54.6226   24.5211  100.0458 N   0  0  0  0  0  0  0  0  0  0  0  0
   54.1557   24.9633  101.3440 C   0  0  2  0  0  0  0  0  0  0  0  0
   52.6649   24.9213  101.3251 C   0  0  0  0  0  0  0  0  0  0  0  0
   52.1338   24.1182  100.4560 O   0  0  0  0  0  0  0  0  0  0  0  0
   54.6408   26.3402  101.6890 C   0  0  2  0  0  0  0  0  0  0  0  0
   54.2622   26.8424  103.0490 C   0  0  0  0  0  0  0  0  0  0  0  0
   54.2741   27.3416  100.6033 C   0  0  0  0  0  0  0  0  0  0  0  0
   54.6368   26.0136  104.2168 C   0  0  0  0  0  0  0  0  0  0  0  0
   51.7562   25.6357  102.1218 N   0  0  0  0  0  0  0  0  0  0  0  0
   51.7919   25.7202  103.5931 C   0  0  2  0  0  0  0  0  0  0  0  0
   50.7126   24.8201  104.0952 C   0  0  0  0  0  0  0  0  0  0  0  0
   50.6309   23.6850  103.4791 O   0  0  0  0  0  0  0  0  0  0  0  0
   51.5331   27.1581  103.8435 C   0  0  0  0  0  0  0  0  0  0  0  0
   50.7519   27.6513  102.6208 C   0  0  0  0  0  0  0  0  0  0  0  0
   50.5668   26.4137  101.7787 C   0  0  0  0  0  0  0  0  0  0  0  0
   49.8239   25.1206  105.1431 N   0  0  0  0  0  0  0  0  0  0  0  0
   50.1591   25.5868  106.4639 C   0  0  2  0  0  0  0  0  0  0  0  0
   50.0941   24.4221  107.3961 C   0  0  0  0  0  0  0  0  0  0  0  0
   50.2394   23.2756  106.8553 O   0  0  0  0  0  0  0  0  0  0  0  0
   49.0649   26.5863  106.7465 C   0  0  0  0  0  0  0  0  0  0  0  0
   48.0385   26.4482  105.6343 C   0  0  0  0  0  0  0  0  0  0  0  0
   48.3490   25.0224  105.1678 C   0  0  0  0  0  0  0  0  0  0  0  0
   49.8916   24.4794  108.7804 N   0  0  0  0  0  0  0  0  0  0  0  0
   50.6211   25.2950  109.7297 C   0  0  2  0  0  0  0  0  0  0  0  0
   51.6688   24.6428  110.4939 C   0  0  0  0  0  0  0  0  0  0  0  0
   52.5101   25.4955  111.0171 O   0  0  0  0  0  0  0  0  0  0  0  0
   49.6323   25.9875  110.6178 C   0  0  2  0  0  0  0  0  0  0  0  0
   48.1865   25.7323  110.2597 C   0  0  0  0  0  0  0  0  0  0  0  0
   49.9583   27.3940  110.9579 C   0  0  0  0  0  0  0  0  0  0  0  0
   48.1128   24.9606  108.9559 C   0  0  0  0  0  0  0  0  0  0  0  0
   51.9550   23.3125  110.7761 N   0  0  0  0  0  0  0  0  0  0  0  0
   51.2420   22.1164  110.4030 C   0  0  2  0  0  0  0  0  0  0  0  0
   50.1142   21.7565  111.2870 C   0  0  0  0  0  0  0  0  0  0  0  0
   49.0589   21.3562  110.6364 O   0  0  0  0  0  0  0  0  0  0  0  0
   52.1598   20.9146  110.2410 C   0  0  0  0  0  0  0  0  0  0  0  0
   51.3904   19.6770  109.1588 S   0  0  0  0  0  0  0  0  0  0  0  0
   50.0217   21.7859  112.6731 N   0  0  0  0  0  0  0  0  0  0  0  0
   50.6531   21.0524  113.7183 C   0  0  2  0  0  0  0  0  0  0  0  0
   49.6396   20.7507  114.8051 C   0  0  0  0  0  0  0  0  0  0  0  0
   48.5545   21.4424  114.7341 O   0  0  0  0  0  0  0  0  0  0  0  0
   51.8178   21.6854  114.3855 C   0  0  0  0  0  0  0  0  0  0  0  0
   53.1407   21.4524  113.7709 C   0  0  0  0  0  0  0  0  0  0  0  0
   54.2856   21.3283  114.5349 C   0  0  0  0  0  0  0  0  0  0  0  0
   53.2569   21.3599  112.3983 C   0  0  0  0  0  0  0  0  0  0  0  0
   55.4898   21.1174  113.8925 C   0  0  0  0  0  0  0  0  0  0  0  0
   54.4560   21.1486  111.7401 C   0  0  0  0  0  0  0  0  0  0  0  0
   55.5876   21.0274  112.5221 C   0  0  0  0  0  0  0  0  0  0  0  0
   49.7918   19.8212  115.8302 N   0  0  0  0  0  0  0  0  0  0  0  0
   50.5934   18.6411  115.8648 C   0  0  2  0  0  0  0  0  0  0  0  0
   49.9068   17.4703  115.2551 C   0  0  0  0  0  0  0  0  0  0  0  0
   48.7180   17.6211  114.8846 O   0  0  0  0  0  0  0  0  0  0  0  0
   50.8318   18.2812  117.3187 C   0  0  0  0  0  0  0  0  0  0  0  0
   50.1584   19.3583  118.0869 C   0  0  0  0  0  0  0  0  0  0  0  0
   49.1197   19.8771  117.1531 C   0  0  0  0  0  0  0  0  0  0  0  0
   50.5645   16.2530  115.1040 N   0  0  0  0  0  0  0  0  0  0  0  0
   51.9394   16.0893  114.6957 C   0  0  2  0  0  0  0  0  0  0  0  0
   52.0352   15.0325  113.6230 C   0  0  0  0  0  0  0  0  0  0  0  0
   51.0243   14.3573  113.3441 O   0  0  0  0  0  0  0  0  0  0  0  0
   52.8653   15.6744  115.8190 C   0  0  0  0  0  0  0  0  0  0  0  0
   53.4704   16.8135  116.5356 C   0  0  0  0  0  0  0  0  0  0  0  0
   53.9577   17.8937  115.8281 O   0  0  0  0  0  0  0  0  0  0  0  0
   53.5491   16.8153  117.7791 O   0  0  0  0  0  0  0  0  0  0  0  0
   54.5102   14.5918  112.4377 O   0  0  0  0  0  0  0  0  0  0  0  0
   58.9474   11.8396  109.8457 H   0  0  0  0  0  0  0  0  0  0  0  0
  1  2  1  0
  1105  1  0
  1111  1  0
  2  3  1  0
  2111  1  6
  3  4  2  0
  3  5  1  0
  5  6  1  0
  6  7  1  0
  6  9  1  6
  7  8  2  0
  7 16  1  0
  9 10  1  0
 10 11  1  0
 11 12  1  0
 12 13  1  0
 13 14  2  0
 13 15  1  0
 17 16  1  1
 17 18  1  0
 17 20  1  0
 18 19  2  0
 18 22  1  0
 20 21  1  0
 21 84  1  0
 22 23  1  0
 23 24  1  0
 23 26  1  1
 24 25  2  0
 24 34  1  0
 26 27  1  0
 27 28  2  0
 27 29  1  0
 28 30  1  0
 29 31  2  0
 30 32  2  0
 31 32  1  0
 32 33  1  0
 34 35  1  0
 35 36  1  0
 35 38  1  1
 36 37  2  0
 36 43  1  0
 38 39  1  0
 39 40  1  0
 40 41  1  0
 41 42  1  0
 43 44  1  0
 44 45  1  0
 44 47  1  6
 45 46  2  0
 45 49  1  0
 47 48  1  0
 50 49  1  6
 50 51  1  0
 50 53  1  0
 51 52  2  0
 51 57  1  0
 53 54  1  0
 53 55  1  6
 54 56  1  0
 57 58  1  0
 57 63  1  0
 58 59  1  0
 58 61  1  6
 59 60  2  0
 59 64  1  0
 61 62  1  0
 62 63  1  0
 64 65  1  0
 64 70  1  0
 65 66  1  0
 65 68  1  1
 66 67  2  0
 66 71  1  0
 68 69  1  0
 69 70  1  0
 72 71  1  1
 72 73  1  0
 72 75  1  0
 73 74  2  0
 73 79  1  0
 75 76  1  0
 75 77  1  6
 76 78  1  0
 80 79  1  1
 80 81  1  0
 80 83  1  0
 81 82  2  0
 81 85  1  0
 83 84  1  0
 85 86  1  0
 86 87  1  0
 86 89  1  1
 87 88  2  0
 87 96  1  0
 89 90  1  0
 90 91  2  0
 90 92  1  0
 91 93  1  0
 92 94  2  0
 93 95  2  0
 94 95  1  0
 96 97  1  0
 96102  1  0
 97 98  1  0
 97100  1  1
 98 99  2  0
 98103  1  0
100101  1  0
101102  1  0
103104  1  0
104105  1  0
104107  1  1
105106  2  0
107108  1  0
108109  1  0
108110  2  0
 14112  1  0
M  CHG  1  42   1
M  END
$$$$
