
     RDKit          3D

112119  0  0  0  0  0  0  0  0999 V2000
   55.5763   28.9651  104.9716 N   0  0  0  0  0  0  0  0  0  0  0  0
   54.9720   27.6887  104.6943 C   0  0  2  0  0  0  0  0  0  0  0  0
   55.3075   26.6683  105.7016 C   0  0  0  0  0  0  0  0  0  0  0  0
   54.6186   26.5972  106.7474 O   0  0  0  0  0  0  0  0  0  0  0  0
   56.3959   25.7499  105.5314 N   0  0  0  0  0  0  0  0  0  0  0  0
   56.7202   25.2060  104.2222 C   0  0  2  0  0  0  0  0  0  0  0  0
   55.5894   24.4523  103.6446 C   0  0  0  0  0  0  0  0  0  0  0  0
   55.3083   24.7067  102.4172 O   0  0  0  0  0  0  0  0  0  0  0  0
   58.0112   24.4602  104.2602 C   0  0  0  0  0  0  0  0  0  0  0  0
   59.0430   25.1709  103.4451 C   0  0  0  0  0  0  0  0  0  0  0  0
   58.9680   26.6610  103.4605 C   0  0  0  0  0  0  0  0  0  0  0  0
   58.0501   27.0300  102.3681 N   0  0  0  0  0  0  0  0  0  0  0  0
   57.7828   28.3950  102.0440 C   0  0  0  0  0  0  0  0  0  0  0  0
   57.6212   28.7007  100.7942 N   0  0  0  0  0  0  0  0  0  0  0  0
   57.6910   29.3978  103.0372 N   0  0  0  0  0  0  0  0  0  0  0  0
   54.7822   23.4939  104.2699 N   0  0  0  0  0  0  0  0  0  0  0  0
   55.0648   22.7654  105.4912 C   0  0  2  0  0  0  0  0  0  0  0  0
   55.9029   21.5610  105.3027 C   0  0  0  0  0  0  0  0  0  0  0  0
   56.8856   21.4344  106.1430 O   0  0  0  0  0  0  0  0  0  0  0  0
   53.7840   22.4971  106.2603 C   0  0  0  0  0  0  0  0  0  0  0  0
   54.0958   22.6900  108.0063 S   0  0  0  0  0  0  0  0  0  0  0  0
   55.7911   20.5522  104.3613 N   0  0  0  0  0  0  0  0  0  0  0  0
   54.6843   19.6125  104.1460 C   0  0  2  0  0  0  0  0  0  0  0  0
   55.2653   18.2852  103.7899 C   0  0  0  0  0  0  0  0  0  0  0  0
   55.9728   18.3695  102.7120 O   0  0  0  0  0  0  0  0  0  0  0  0
   53.8167   20.0407  102.9815 C   0  0  0  0  0  0  0  0  0  0  0  0
   54.3349   21.1205  102.1568 C   0  0  0  0  0  0  0  0  0  0  0  0
   53.7636   22.3731  102.1600 C   0  0  0  0  0  0  0  0  0  0  0  0
   55.4176   20.9774  101.2724 C   0  0  0  0  0  0  0  0  0  0  0  0
   54.1901   23.4207  101.3771 C   0  0  0  0  0  0  0  0  0  0  0  0
   55.8581   22.0018  100.4859 C   0  0  0  0  0  0  0  0  0  0  0  0
   55.2532   23.2423  100.5225 C   0  0  0  0  0  0  0  0  0  0  0  0
   55.7084   24.2943   99.7130 O   0  0  0  0  0  0  0  0  0  0  0  0
   55.1341   17.0571  104.4460 N   0  0  0  0  0  0  0  0  0  0  0  0
   55.5323   16.6439  105.7501 C   0  0  2  0  0  0  0  0  0  0  0  0
   54.3856   16.5430  106.7189 C   0  0  0  0  0  0  0  0  0  0  0  0
   53.5789   17.4865  106.7274 O   0  0  0  0  0  0  0  0  0  0  0  0
   56.6624   17.4142  106.3627 C   0  0  0  0  0  0  0  0  0  0  0  0
   57.9660   16.7552  106.3465 C   0  0  0  0  0  0  0  0  0  0  0  0
   58.5835   16.2125  105.1401 C   0  0  0  0  0  0  0  0  0  0  0  0
   60.0330   16.0743  104.9663 C   0  0  0  0  0  0  0  0  0  0  0  0
   60.6807   17.0528  104.1309 N   0  0  0  0  0  4  0  0  0  0  0  0
   54.1836   15.4603  107.5977 N   0  0  0  0  0  0  0  0  0  0  0  0
   54.1847   14.0605  107.2242 C   0  0  2  0  0  0  0  0  0  0  0  0
   53.1158   13.2753  107.8930 C   0  0  0  0  0  0  0  0  0  0  0  0
   52.8952   12.1493  107.3288 O   0  0  0  0  0  0  0  0  0  0  0  0
   55.5018   13.3985  107.6759 C   0  0  0  0  0  0  0  0  0  0  0  0
   55.3913   12.9633  108.9928 O   0  0  0  0  0  0  0  0  0  0  0  0
   52.3614   13.6035  109.0123 N   0  0  0  0  0  0  0  0  0  0  0  0
   51.4475   14.7079  109.2219 C   0  0  2  0  0  0  0  0  0  0  0  0
   51.6261   15.1805  110.6253 C   0  0  0  0  0  0  0  0  0  0  0  0
   52.7687   14.9031  111.1732 O   0  0  0  0  0  0  0  0  0  0  0  0
   50.0190   14.3251  108.9715 C   0  0  2  0  0  0  0  0  0  0  0  0
   49.7366   13.6976  107.6404 C   0  0  0  0  0  0  0  0  0  0  0  0
   49.0797   15.4899  109.2489 C   0  0  0  0  0  0  0  0  0  0  0  0
   50.2938   12.3506  107.3831 C   0  0  0  0  0  0  0  0  0  0  0  0
   50.7227   15.8857  111.4360 N   0  0  0  0  0  0  0  0  0  0  0  0
   50.0111   17.1181  111.0513 C   0  0  2  0  0  0  0  0  0  0  0  0
   50.7000   18.2411  111.7522 C   0  0  0  0  0  0  0  0  0  0  0  0
   51.9920   18.1681  111.7414 O   0  0  0  0  0  0  0  0  0  0  0  0
   48.6345   16.8657  111.5400 C   0  0  0  0  0  0  0  0  0  0  0  0
   48.7866   15.8639  112.6896 C   0  0  0  0  0  0  0  0  0  0  0  0
   50.2771   15.6669  112.8112 C   0  0  0  0  0  0  0  0  0  0  0  0
   50.0586   19.3166  112.3925 N   0  0  0  0  0  0  0  0  0  0  0  0
   49.0421   20.1771  111.8444 C   0  0  2  0  0  0  0  0  0  0  0  0
   49.6936   21.4529  111.4231 C   0  0  0  0  0  0  0  0  0  0  0  0
   50.9432   21.3776  111.1767 O   0  0  0  0  0  0  0  0  0  0  0  0
   48.1200   20.3858  113.0201 C   0  0  0  0  0  0  0  0  0  0  0  0
   48.8136   19.7997  114.2387 C   0  0  0  0  0  0  0  0  0  0  0  0
   50.2676   19.8435  113.7579 C   0  0  0  0  0  0  0  0  0  0  0  0
   49.0650   22.6959  111.2794 N   0  0  0  0  0  0  0  0  0  0  0  0
   47.8592   22.9749  110.5267 C   0  0  2  0  0  0  0  0  0  0  0  0
   48.0233   23.5556  109.2065 C   0  0  0  0  0  0  0  0  0  0  0  0
   46.9574   23.4155  108.4630 O   0  0  0  0  0  0  0  0  0  0  0  0
   46.9432   23.7932  111.3854 C   0  0  2  0  0  0  0  0  0  0  0  0
   46.7417   25.2124  110.9067 C   0  0  0  0  0  0  0  0  0  0  0  0
   47.1397   23.6437  112.8481 C   0  0  0  0  0  0  0  0  0  0  0  0
   47.2620   25.3508  109.4886 C   0  0  0  0  0  0  0  0  0  0  0  0
   49.0717   24.2199  108.5813 N   0  0  0  0  0  0  0  0  0  0  0  0
   50.3703   24.5812  109.0927 C   0  0  2  0  0  0  0  0  0  0  0  0
   50.4140   25.8437  109.8589 C   0  0  0  0  0  0  0  0  0  0  0  0
   51.1474   25.7677  110.9329 O   0  0  0  0  0  0  0  0  0  0  0  0
   51.4380   24.6106  108.0100 C   0  0  0  0  0  0  0  0  0  0  0  0
   53.0837   24.3907  108.7436 S   0  0  0  0  0  0  0  0  0  0  0  0
   49.8000   27.0640  109.6048 N   0  0  0  0  0  0  0  0  0  0  0  0
   49.9534   28.0516  108.5899 C   0  0  2  0  0  0  0  0  0  0  0  0
   49.8475   29.4314  109.2097 C   0  0  0  0  0  0  0  0  0  0  0  0
   49.3532   29.4487  110.3998 O   0  0  0  0  0  0  0  0  0  0  0  0
   48.9942   28.0180  107.4580 C   0  0  0  0  0  0  0  0  0  0  0  0
   48.7541   26.7019  106.8317 C   0  0  0  0  0  0  0  0  0  0  0  0
   49.5577   25.6106  107.1024 C   0  0  0  0  0  0  0  0  0  0  0  0
   47.7083   26.5403  105.9451 C   0  0  0  0  0  0  0  0  0  0  0  0
   49.2783   24.4119  106.4762 C   0  0  0  0  0  0  0  0  0  0  0  0
   47.4154   25.3459  105.3100 C   0  0  0  0  0  0  0  0  0  0  0  0
   48.2306   24.2683  105.5945 C   0  0  0  0  0  0  0  0  0  0  0  0
   50.2284   30.6288  108.6104 N   0  0  0  0  0  0  0  0  0  0  0  0
   51.2025   30.8572  107.5927 C   0  0  2  0  0  0  0  0  0  0  0  0
   52.5776   30.9953  108.1439 C   0  0  0  0  0  0  0  0  0  0  0  0
   52.7073   30.9931  109.3914 O   0  0  0  0  0  0  0  0  0  0  0  0
   50.8795   32.1806  106.9261 C   0  0  0  0  0  0  0  0  0  0  0  0
   49.6414   32.6474  107.5993 C   0  0  0  0  0  0  0  0  0  0  0  0
   49.6693   31.9679  108.9250 C   0  0  0  0  0  0  0  0  0  0  0  0
   53.6778   31.1225  107.3009 N   0  0  0  0  0  0  0  0  0  0  0  0
   53.8780   30.3951  106.0701 C   0  0  2  0  0  0  0  0  0  0  0  0
   55.2800   29.8396  106.0230 C   0  0  0  0  0  0  0  0  0  0  0  0
   56.0966   30.1774  106.9032 O   0  0  0  0  0  0  0  0  0  0  0  0
   53.6853   31.2347  104.8255 C   0  0  0  0  0  0  0  0  0  0  0  0
   53.8620   32.6813  105.0568 C   0  0  0  0  0  0  0  0  0  0  0  0
   54.1614   33.1464  106.3213 O   0  0  0  0  0  0  0  0  0  0  0  0
   53.7441   33.4957  104.1212 O   0  0  0  0  0  0  0  0  0  0  0  0
   55.9653   28.1956  103.8894 O   0  0  0  0  0  0  0  0  0  0  0  0
   58.4563   28.7899  100.1671 H   0  0  0  0  0  0  0  0  0  0  0  0
  1  2  1  0
  1105  1  0
  1111  1  0
  2  3  1  0
  2111  1  6
  3  4  2  0
  3  5  1  0
  5  6  1  0
  6  7  1  0
  6  9  1  1
  7  8  2  0
  7 16  1  0
  9 10  1  0
 10 11  1  0
 11 12  1  0
 12 13  1  0
 13 14  2  0
 13 15  1  0
 17 16  1  6
 17 18  1  0
 17 20  1  0
 18 19  2  0
 18 22  1  0
 20 21  1  0
 21 84  1  0
 22 23  1  0
 23 24  1  0
 23 26  1  6
 24 25  2  0
 24 34  1  0
 26 27  1  0
 27 28  2  0
 27 29  1  0
 28 30  1  0
 29 31  2  0
 30 32  2  0
 31 32  1  0
 32 33  1  0
 34 35  1  0
 35 36  1  0
 35 38  1  1
 36 37  2  0
 36 43  1  0
 38 39  1  0
 39 40  1  0
 40 41  1  0
 41 42  1  0
 43 44  1  0
 44 45  1  0
 44 47  1  1
 45 46  2  0
 45 49  1  0
 47 48  1  0
 50 49  1  1
 50 51  1  0
 50 53  1  0
 51 52  2  0
 51 57  1  0
 53 54  1  0
 53 55  1  6
 54 56  1  0
 57 58  1  0
 57 63  1  0
 58 59  1  0
 58 61  1  1
 59 60  2  0
 59 64  1  0
 61 62  1  0
 62 63  1  0
 64 65  1  0
 64 70  1  0
 65 66  1  0
 65 68  1  1
 66 67  2  0
 66 71  1  0
 68 69  1  0
 69 70  1  0
 72 71  1  1
 72 73  1  0
 72 75  1  0
 73 74  2  0
 73 79  1  0
 75 76  1  0
 75 77  1  1
 76 78  1  0
 80 79  1  6
 80 81  1  0
 80 83  1  0
 81 82  2  0
 81 85  1  0
 83 84  1  0
 85 86  1  0
 86 87  1  0
 86 89  1  6
 87 88  2  0
 87 96  1  0
 89 90  1  0
 90 91  2  0
 90 92  1  0
 91 93  1  0
 92 94  2  0
 93 95  2  0
 94 95  1  0
 96 97  1  0
 96102  1  0
 97 98  1  0
 97100  1  1
 98 99  2  0
 98103  1  0
100101  1  0
101102  1  0
103104  1  0
104105  1  0
104107  1  6
105106  2  0
107108  1  0
108109  1  0
108110  2  0
 14112  1  0
M  CHG  1  42   1
M  END
$$$$
