
     RDKit          3D

112119  0  0  0  0  0  0  0  0999 V2000
   53.0171   15.4800  113.7482 N   0  0  0  0  0  0  0  0  0  0  0  0
   53.7150   16.4125  112.9028 C   0  0  2  0  0  0  0  0  0  0  0  0
   53.1115   16.5309  111.5648 C   0  0  0  0  0  0  0  0  0  0  0  0
   52.1563   17.3265  111.3971 O   0  0  0  0  0  0  0  0  0  0  0  0
   53.5762   15.7682  110.4426 N   0  0  0  0  0  0  0  0  0  0  0  0
   54.9903   15.4760  110.2686 C   0  0  2  0  0  0  0  0  0  0  0  0
   55.7966   16.7081  110.1575 C   0  0  0  0  0  0  0  0  0  0  0  0
   56.8666   16.7495  110.8671 O   0  0  0  0  0  0  0  0  0  0  0  0
   55.1993   14.4933  109.1664 C   0  0  0  0  0  0  0  0  0  0  0  0
   56.6227   14.5219  108.7113 C   0  0  0  0  0  0  0  0  0  0  0  0
   57.3277   13.2069  108.7047 C   0  0  0  0  0  0  0  0  0  0  0  0
   57.4208   12.7922  110.1159 N   0  0  0  0  0  0  0  0  0  0  0  0
   58.5410   12.0549  110.6071 C   0  0  0  0  0  0  0  0  0  0  0  0
   58.3080   10.9411  111.2290 N   0  0  0  0  0  0  0  0  0  0  0  0
   59.8705   12.5045  110.4312 N   0  0  0  0  0  0  0  0  0  0  0  0
   55.5388   17.8402  109.3747 N   0  0  0  0  0  0  0  0  0  0  0  0
   54.6353   17.9434  108.2454 C   0  0  2  0  0  0  0  0  0  0  0  0
   55.2160   17.5033  106.9578 C   0  0  0  0  0  0  0  0  0  0  0  0
   54.4622   16.7145  106.2525 O   0  0  0  0  0  0  0  0  0  0  0  0
   54.0111   19.3257  108.1866 C   0  0  0  0  0  0  0  0  0  0  0  0
   52.3013   19.1780  107.6992 S   0  0  0  0  0  0  0  0  0  0  0  0
   56.4445   17.8098  106.3983 N   0  0  0  0  0  0  0  0  0  0  0  0
   56.9729   19.1195  105.9988 C   0  0  2  0  0  0  0  0  0  0  0  0
   57.7546   18.9403  104.7406 C   0  0  0  0  0  0  0  0  0  0  0  0
   58.7354   18.1193  104.9240 O   0  0  0  0  0  0  0  0  0  0  0  0
   57.9286   19.6680  107.0371 C   0  0  0  0  0  0  0  0  0  0  0  0
   58.5243   18.6958  107.9397 C   0  0  0  0  0  0  0  0  0  0  0  0
   59.4643   19.0587  108.8778 C   0  0  0  0  0  0  0  0  0  0  0  0
   58.2303   17.3219  107.9122 C   0  0  0  0  0  0  0  0  0  0  0  0
   60.0846   18.1779  109.7332 C   0  0  0  0  0  0  0  0  0  0  0  0
   58.8328   16.4295  108.7504 C   0  0  0  0  0  0  0  0  0  0  0  0
   59.7713   16.8397  109.6763 C   0  0  0  0  0  0  0  0  0  0  0  0
   60.3892   15.9201  110.5376 O   0  0  0  0  0  0  0  0  0  0  0  0
   57.5550   19.5217  103.4845 N   0  0  0  0  0  0  0  0  0  0  0  0
   56.4659   19.4280  102.5706 C   0  0  2  0  0  0  0  0  0  0  0  0
   55.5962   20.6556  102.5526 C   0  0  0  0  0  0  0  0  0  0  0  0
   55.2733   21.1256  103.6552 O   0  0  0  0  0  0  0  0  0  0  0  0
   55.6210   18.1957  102.6855 C   0  0  0  0  0  0  0  0  0  0  0  0
   56.3302   16.9661  103.0307 C   0  0  0  0  0  0  0  0  0  0  0  0
   57.7321   16.7217  102.7047 C   0  0  0  0  0  0  0  0  0  0  0  0
   58.2605   15.4009  102.3486 C   0  0  0  0  0  0  0  0  0  0  0  0
   59.6321   15.3490  101.9117 N   0  0  0  0  0  4  0  0  0  0  0  0
   55.1383   21.2852  101.3783 N   0  0  0  0  0  0  0  0  0  0  0  0
   55.9645   21.6734  100.2533 C   0  0  2  0  0  0  0  0  0  0  0  0
   55.6087   23.0040   99.6971 C   0  0  0  0  0  0  0  0  0  0  0  0
   56.5229   23.4941   98.9496 O   0  0  0  0  0  0  0  0  0  0  0  0
   55.7558   20.6890   99.0851 C   0  0  0  0  0  0  0  0  0  0  0  0
   54.4091   20.6349   98.7400 O   0  0  0  0  0  0  0  0  0  0  0  0
   54.4494   23.7464   99.8825 N   0  0  0  0  0  0  0  0  0  0  0  0
   53.8833   24.2915  101.0995 C   0  0  2  0  0  0  0  0  0  0  0  0
   52.4017   24.1424  101.0136 C   0  0  0  0  0  0  0  0  0  0  0  0
   51.9731   23.2150  100.2145 O   0  0  0  0  0  0  0  0  0  0  0  0
   54.2579   25.7282  101.3125 C   0  0  2  0  0  0  0  0  0  0  0  0
   55.6984   25.9847  101.6356 C   0  0  0  0  0  0  0  0  0  0  0  0
   53.3335   26.3950  102.3208 C   0  0  0  0  0  0  0  0  0  0  0  0
   56.3245   25.1562  102.6905 C   0  0  0  0  0  0  0  0  0  0  0  0
   51.4056   24.8722  101.6814 N   0  0  0  0  0  0  0  0  0  0  0  0
   51.3539   25.1167  103.1342 C   0  0  2  0  0  0  0  0  0  0  0  0
   50.3091   24.2018  103.6806 C   0  0  0  0  0  0  0  0  0  0  0  0
   50.3358   23.0041  103.1911 O   0  0  0  0  0  0  0  0  0  0  0  0
   50.9887   26.5513  103.2107 C   0  0  0  0  0  0  0  0  0  0  0  0
   50.2463   26.8538  101.9046 C   0  0  0  0  0  0  0  0  0  0  0  0
   50.1891   25.5229  101.1972 C   0  0  0  0  0  0  0  0  0  0  0  0
   49.3459   24.5496  104.6447 N   0  0  0  0  0  0  0  0  0  0  0  0
   49.5761   25.1775  105.9202 C   0  0  2  0  0  0  0  0  0  0  0  0
   49.5352   24.1181  106.9717 C   0  0  0  0  0  0  0  0  0  0  0  0
   49.7846   22.9333  106.5691 O   0  0  0  0  0  0  0  0  0  0  0  0
   48.4052   26.1217  106.0370 C   0  0  0  0  0  0  0  0  0  0  0  0
   47.4534   25.7927  104.8989 C   0  0  0  0  0  0  0  0  0  0  0  0
   47.8815   24.3506  104.6090 C   0  0  0  0  0  0  0  0  0  0  0  0
   49.2528   24.3094  108.3297 N   0  0  0  0  0  0  0  0  0  0  0  0
   49.8738   25.2718  109.2165 C   0  0  2  0  0  0  0  0  0  0  0  0
   50.9176   24.7812  110.0980 C   0  0  0  0  0  0  0  0  0  0  0  0
   51.6713   25.7425  110.5632 O   0  0  0  0  0  0  0  0  0  0  0  0
   48.7943   25.9841  109.9737 C   0  0  2  0  0  0  0  0  0  0  0  0
   49.2259   27.2938  110.5918 C   0  0  0  0  0  0  0  0  0  0  0  0
   47.9528   25.1247  110.8419 C   0  0  0  0  0  0  0  0  0  0  0  0
   50.7403   27.3803  110.5974 C   0  0  0  0  0  0  0  0  0  0  0  0
   51.2735   23.5125  110.5396 N   0  0  0  0  0  0  0  0  0  0  0  0
   50.6615   22.2358  110.2677 C   0  0  2  0  0  0  0  0  0  0  0  0
   49.5122   21.8943  111.1308 C   0  0  0  0  0  0  0  0  0  0  0  0
   48.5229   21.3527  110.4787 O   0  0  0  0  0  0  0  0  0  0  0  0
   51.6632   21.0915  110.2845 C   0  0  0  0  0  0  0  0  0  0  0  0
   51.0372   19.6935  109.3106 S   0  0  0  0  0  0  0  0  0  0  0  0
   49.3410   22.0658  112.4990 N   0  0  0  0  0  0  0  0  0  0  0  0
   49.9596   21.4954  113.6484 C   0  0  2  0  0  0  0  0  0  0  0  0
   48.9091   21.2414  114.7119 C   0  0  0  0  0  0  0  0  0  0  0  0
   47.7869   21.8429  114.5124 O   0  0  0  0  0  0  0  0  0  0  0  0
   51.0419   22.2772  114.2965 C   0  0  0  0  0  0  0  0  0  0  0  0
   51.1215   23.7112  113.9509 C   0  0  0  0  0  0  0  0  0  0  0  0
   50.2518   24.2903  113.0465 C   0  0  0  0  0  0  0  0  0  0  0  0
   52.0878   24.5080  114.5318 C   0  0  0  0  0  0  0  0  0  0  0  0
   50.3881   25.6358  112.7664 C   0  0  0  0  0  0  0  0  0  0  0  0
   52.2369   25.8573  114.2617 C   0  0  0  0  0  0  0  0  0  0  0  0
   51.3577   26.4161  113.3552 C   0  0  0  0  0  0  0  0  0  0  0  0
   49.0641   20.4405  115.8400 N   0  0  0  0  0  0  0  0  0  0  0  0
   49.9376   19.3306  116.0440 C   0  0  2  0  0  0  0  0  0  0  0  0
   49.3634   18.0555  115.5357 C   0  0  0  0  0  0  0  0  0  0  0  0
   48.1899   18.0811  115.0938 O   0  0  0  0  0  0  0  0  0  0  0  0
   50.1176   19.1468  117.5386 C   0  0  0  0  0  0  0  0  0  0  0  0
   49.3340   20.2499  118.1492 C   0  0  0  0  0  0  0  0  0  0  0  0
   48.3173   20.5906  117.1146 C   0  0  0  0  0  0  0  0  0  0  0  0
   50.1062   16.8785  115.5524 N   0  0  0  0  0  0  0  0  0  0  0  0
   51.5095   16.7694  115.2315 C   0  0  2  0  0  0  0  0  0  0  0  0
   51.7333   15.6130  114.2886 C   0  0  0  0  0  0  0  0  0  0  0  0
   50.7855   14.8419  114.0381 O   0  0  0  0  0  0  0  0  0  0  0  0
   52.3965   16.5442  116.4372 C   0  0  0  0  0  0  0  0  0  0  0  0
   53.7560   16.0864  116.0918 C   0  0  0  0  0  0  0  0  0  0  0  0
   54.7285   16.0135  117.0685 O   0  0  0  0  0  0  0  0  0  0  0  0
   54.0421   15.7624  114.9232 O   0  0  0  0  0  0  0  0  0  0  0  0
   54.2938   15.2234  113.2801 O   0  0  0  0  0  0  0  0  0  0  0  0
   57.3655   10.7685  111.6539 H   0  0  0  0  0  0  0  0  0  0  0  0
  1  2  1  0
  1105  1  0
  1111  1  0
  2  3  1  0
  2111  1  6
  3  4  2  0
  3  5  1  0
  5  6  1  0
  6  7  1  0
  6  9  1  6
  7  8  2  0
  7 16  1  0
  9 10  1  0
 10 11  1  0
 11 12  1  0
 12 13  1  0
 13 14  2  0
 13 15  1  0
 17 16  1  1
 17 18  1  0
 17 20  1  0
 18 19  2  0
 18 22  1  0
 20 21  1  0
 21 84  1  0
 22 23  1  0
 23 24  1  0
 23 26  1  1
 24 25  2  0
 24 34  1  0
 26 27  1  0
 27 28  2  0
 27 29  1  0
 28 30  1  0
 29 31  2  0
 30 32  2  0
 31 32  1  0
 32 33  1  0
 34 35  1  0
 35 36  1  0
 35 38  1  1
 36 37  2  0
 36 43  1  0
 38 39  1  0
 39 40  1  0
 40 41  1  0
 41 42  1  0
 43 44  1  0
 44 45  1  0
 44 47  1  6
 45 46  2  0
 45 49  1  0
 47 48  1  0
 50 49  1  6
 50 51  1  0
 50 53  1  0
 51 52  2  0
 51 57  1  0
 53 54  1  0
 53 55  1  1
 54 56  1  0
 57 58  1  0
 57 63  1  0
 58 59  1  0
 58 61  1  6
 59 60  2  0
 59 64  1  0
 61 62  1  0
 62 63  1  0
 64 65  1  0
 64 70  1  0
 65 66  1  0
 65 68  1  1
 66 67  2  0
 66 71  1  0
 68 69  1  0
 69 70  1  0
 72 71  1  1
 72 73  1  0
 72 75  1  0
 73 74  2  0
 73 79  1  0
 75 76  1  0
 75 77  1  1
 76 78  1  0
 80 79  1  1
 80 81  1  0
 80 83  1  0
 81 82  2  0
 81 85  1  0
 83 84  1  0
 85 86  1  0
 86 87  1  0
 86 89  1  1
 87 88  2  0
 87 96  1  0
 89 90  1  0
 90 91  2  0
 90 92  1  0
 91 93  1  0
 92 94  2  0
 93 95  2  0
 94 95  1  0
 96 97  1  0
 96102  1  0
 97 98  1  0
 97100  1  1
 98 99  2  0
 98103  1  0
100101  1  0
101102  1  0
103104  1  0
104105  1  0
104107  1  1
105106  2  0
107108  1  0
108109  1  0
108110  2  0
 14112  1  0
M  CHG  1  42   1
M  END
$$$$
