
     RDKit          3D

 41 44  0  0  0  0  0  0  0  0999 V2000
   65.5326   51.2997   12.8415 C   0  0  0  0  0  0  0  0  0  0  0  0
   66.1369   50.9887   11.6099 O   0  0  0  0  0  0  0  0  0  0  0  0
   66.4255   52.2759   13.5391 C   0  0  0  0  0  0  0  0  0  0  0  0
   67.3417   51.7968   14.4447 C   0  0  0  0  0  0  0  0  0  0  0  0
   68.1815   52.6844   15.1046 C   0  0  0  0  0  0  0  0  0  0  0  0
   68.1201   54.0378   14.8745 C   0  0  0  0  0  0  0  0  0  0  0  0
   67.2010   54.5057   13.9676 C   0  0  0  0  0  0  0  0  0  0  0  0
   66.3460   53.6281   13.2924 C   0  0  0  0  0  0  0  0  0  0  0  0
   73.7658   63.1251   19.9641 O   0  0  0  0  0  0  0  0  0  0  0  0
   69.1836   55.1105   15.7157 S   0  0  1  0  0  6  0  0  0  0  0  0
   68.6196   56.5170   15.7702 O   0  0  0  0  0  0  0  0  0  0  0  0
   69.3270   54.7042   17.1766 O   0  0  0  0  0  0  0  0  0  0  0  0
   70.7612   55.2004   15.0506 N   0  0  0  0  0  0  0  0  0  0  0  0
   71.3702   53.9020   14.9433 C   0  0  0  0  0  0  0  0  0  0  0  0
   72.7149   53.9189   14.2573 C   0  0  2  0  0  0  0  0  0  0  0  0
   73.3613   52.5604   14.3925 C   0  0  0  0  0  0  0  0  0  0  0  0
   73.6061   54.9312   14.9375 C   0  0  0  0  0  0  0  0  0  0  0  0
   71.5864   56.0668   15.8274 C   0  0  0  0  0  0  0  0  0  0  0  0
   71.2215   57.5224   15.7801 C   0  0  1  0  0  0  0  0  0  0  0  0
   74.9206   55.0860   14.2611 C   0  0  0  0  0  0  0  0  0  0  0  0
   70.6049   57.9297   14.6264 O   0  0  0  0  0  0  0  0  0  0  0  0
   70.4143   57.8853   16.9990 C   0  0  1  0  0  0  0  0  0  0  0  0
   72.5219   51.5042   13.6987 C   0  0  0  0  0  0  0  0  0  0  0  0
   71.2489   57.7782   18.2076 N   0  0  0  0  0  0  0  0  0  0  0  0
   72.5492   58.3440   18.2549 C   0  0  0  0  0  0  0  0  0  0  0  0
   73.1651   58.5875   17.1676 O   0  0  0  0  0  0  0  0  0  0  0  0
   73.2078   58.6562   19.4356 O   0  0  0  0  0  0  0  0  0  0  0  0
   74.1233   59.7060   19.4718 C   0  0  1  0  0  0  0  0  0  0  0  0
   74.3722   60.3399   18.1200 C   0  0  0  0  0  0  0  0  0  0  0  0
   74.3947   61.6979   18.2821 O   0  0  0  0  0  0  0  0  0  0  0  0
   74.4816   62.0086   19.6133 C   0  0  2  0  0  0  0  0  0  0  0  0
   72.4278   62.8526   19.8815 C   0  0  0  0  0  0  0  0  0  0  0  0
   72.2669   61.3402   19.8925 C   0  0  0  0  0  0  0  0  0  0  0  0
   73.6538   60.8975   20.2743 C   0  0  1  0  0  0  0  0  0  0  0  0
   69.8469   59.2578   16.9947 C   0  0  0  0  0  0  0  0  0  0  0  0
   69.3150   61.1484   18.5003 C   0  0  0  0  0  0  0  0  0  0  0  0
   68.8709   61.6221   19.7128 C   0  0  0  0  0  0  0  0  0  0  0  0
   68.4950   60.7522   20.7171 C   0  0  0  0  0  0  0  0  0  0  0  0
   68.5634   59.3890   20.5077 C   0  0  0  0  0  0  0  0  0  0  0  0
   69.0081   58.9193   19.2934 C   0  0  0  0  0  0  0  0  0  0  0  0
   69.3865   59.7771   18.2823 C   0  0  0  0  0  0  0  0  0  0  0  0
  1  2  1  0
  3  1  1  0
  4  3  2  0
  8  3  1  0
  5  4  1  0
  6  5  2  0
  6  7  1  0
 10  6  1  0
  7  8  2  0
 31  9  1  6
 32  9  1  0
 10 11  2  0
 10 12  2  0
 10 13  1  6
 13 14  1  0
 18 13  1  0
 15 14  1  1
 15 16  1  0
 15 17  1  0
 16 23  1  0
 17 20  1  0
 19 18  1  0
 19 21  1  6
 22 19  1  0
 22 24  1  0
 22 35  1  6
 24 25  1  0
 25 26  2  0
 25 27  1  0
 28 27  1  6
 28 29  1  0
 28 34  1  0
 29 30  1  0
 31 30  1  0
 34 31  1  0
 33 32  1  0
 34 33  1  6
 41 35  1  0
 36 37  2  0
 36 41  1  0
 37 38  1  0
 38 39  2  0
 39 40  1  0
 40 41  2  0
M  END
$$$$
