
     RDKit          3D

 41 44  0  0  0  0  0  0  0  0999 V2000
   64.8782   51.6174   13.4275 C   0  0  0  0  0  0  0  0  0  0  0  0
   65.1615   50.2719   13.7239 O   0  0  0  0  0  0  0  0  0  0  0  0
   65.9549   52.4452   14.0540 C   0  0  0  0  0  0  0  0  0  0  0  0
   65.7881   53.8085   14.1067 C   0  0  0  0  0  0  0  0  0  0  0  0
   66.7744   54.5976   14.6840 C   0  0  0  0  0  0  0  0  0  0  0  0
   67.9199   54.0477   15.2072 C   0  0  0  0  0  0  0  0  0  0  0  0
   68.0762   52.6846   15.1492 C   0  0  0  0  0  0  0  0  0  0  0  0
   67.0945   51.8721   14.5719 C   0  0  0  0  0  0  0  0  0  0  0  0
   72.7025   62.2206   21.3209 O   0  0  0  0  0  0  0  0  0  0  0  0
   69.1244   55.0642   15.9182 S   0  0  1  0  0  6  0  0  0  0  0  0
   68.5236   56.3613   16.4242 O   0  0  0  0  0  0  0  0  0  0  0  0
   69.7237   54.4161   17.1594 O   0  0  0  0  0  0  0  0  0  0  0  0
   70.4208   55.4579   14.8677 N   0  0  0  0  0  0  0  0  0  0  0  0
   71.6433   55.6851   15.5903 C   0  0  0  0  0  0  0  0  0  0  0  0
   72.6583   54.5798   15.4256 C   0  0  2  0  0  0  0  0  0  0  0  0
   74.0161   55.0803   15.8586 C   0  0  0  0  0  0  0  0  0  0  0  0
   72.7434   54.1977   13.9667 C   0  0  0  0  0  0  0  0  0  0  0  0
   70.0986   56.6004   14.0768 C   0  0  0  0  0  0  0  0  0  0  0  0
   70.6521   57.9060   14.5700 C   0  0  1  0  0  0  0  0  0  0  0  0
   73.6445   53.0401   13.7273 C   0  0  0  0  0  0  0  0  0  0  0  0
   70.0985   59.0234   14.0025 O   0  0  0  0  0  0  0  0  0  0  0  0
   70.5814   57.9539   16.0739 C   0  0  1  0  0  0  0  0  0  0  0  0
   74.0913   55.1629   17.3715 C   0  0  0  0  0  0  0  0  0  0  0  0
   71.9374   57.8956   16.6453 N   0  0  0  0  0  0  0  0  0  0  0  0
   72.2268   58.4695   17.9103 C   0  0  0  0  0  0  0  0  0  0  0  0
   71.3073   58.5452   18.7876 O   0  0  0  0  0  0  0  0  0  0  0  0
   73.4747   58.9645   18.2610 O   0  0  0  0  0  0  0  0  0  0  0  0
   73.7153   59.4029   19.5616 C   0  0  1  0  0  0  0  0  0  0  0  0
   74.9508   60.2678   19.6907 C   0  0  0  0  0  0  0  0  0  0  0  0
   74.6503   61.3235   20.5069 O   0  0  0  0  0  0  0  0  0  0  0  0
   73.4648   61.0925   21.1531 C   0  0  2  0  0  0  0  0  0  0  0  0
   72.2231   62.6308   20.1071 C   0  0  0  0  0  0  0  0  0  0  0  0
   72.3276   61.4523   19.1514 C   0  0  0  0  0  0  0  0  0  0  0  0
   72.6493   60.3290   20.1001 C   0  0  1  0  0  0  0  0  0  0  0  0
   69.9348   59.1666   16.6371 C   0  0  0  0  0  0  0  0  0  0  0  0
   69.1843   60.2804   18.7156 C   0  0  0  0  0  0  0  0  0  0  0  0
   68.8684   60.2265   20.0532 C   0  0  0  0  0  0  0  0  0  0  0  0
   68.9641   59.0413   20.7552 C   0  0  0  0  0  0  0  0  0  0  0  0
   69.3812   57.8927   20.1122 C   0  0  0  0  0  0  0  0  0  0  0  0
   69.6963   57.9509   18.7741 C   0  0  0  0  0  0  0  0  0  0  0  0
   69.6051   59.1279   18.0617 C   0  0  0  0  0  0  0  0  0  0  0  0
  1  2  1  0
  3  1  1  0
  4  3  2  0
  8  3  1  0
  5  4  1  0
  6  5  2  0
  6  7  1  0
 10  6  1  0
  7  8  2  0
 31  9  1  6
 32  9  1  0
 10 11  2  0
 10 12  2  0
 10 13  1  6
 13 14  1  0
 18 13  1  0
 15 14  1  6
 15 16  1  0
 15 17  1  0
 16 23  1  0
 17 20  1  0
 19 18  1  0
 19 21  1  6
 22 19  1  0
 22 24  1  0
 22 35  1  6
 24 25  1  0
 25 26  2  0
 25 27  1  0
 28 27  1  6
 28 29  1  0
 28 34  1  0
 29 30  1  0
 31 30  1  0
 34 31  1  0
 33 32  1  0
 34 33  1  6
 41 35  1  0
 36 37  2  0
 36 41  1  0
 37 38  1  0
 38 39  2  0
 39 40  1  0
 40 41  2  0
M  END
$$$$
