
     RDKit          3D

 41 44  0  0  0  0  0  0  0  0999 V2000
   64.8055   52.0900   15.0847 C   0  0  0  0  0  0  0  0  0  0  0  0
   65.2398   51.2027   14.0834 O   0  0  0  0  0  0  0  0  0  0  0  0
   65.8942   53.0950   15.2887 C   0  0  0  0  0  0  0  0  0  0  0  0
   67.1442   52.8197   14.7877 C   0  0  0  0  0  0  0  0  0  0  0  0
   68.1708   53.7381   14.9648 C   0  0  0  0  0  0  0  0  0  0  0  0
   67.9684   54.9223   15.6318 C   0  0  0  0  0  0  0  0  0  0  0  0
   66.7156   55.1872   16.1282 C   0  0  0  0  0  0  0  0  0  0  0  0
   65.6681   54.2752   15.9605 C   0  0  0  0  0  0  0  0  0  0  0  0
   72.6718   61.8548   20.9762 O   0  0  0  0  0  0  0  0  0  0  0  0
   69.2723   56.0403   15.8309 S   0  0  1  0  0  6  0  0  0  0  0  0
   68.8212   57.4655   15.5767 O   0  0  0  0  0  0  0  0  0  0  0  0
   69.7675   56.0521   17.2711 O   0  0  0  0  0  0  0  0  0  0  0  0
   70.6252   55.7280   14.8253 N   0  0  0  0  0  0  0  0  0  0  0  0
   71.7307   55.1882   15.5701 C   0  0  0  0  0  0  0  0  0  0  0  0
   72.9213   54.8314   14.7132 C   0  0  2  0  0  0  0  0  0  0  0  0
   73.8502   53.9350   15.4976 C   0  0  0  0  0  0  0  0  0  0  0  0
   73.6745   56.0924   14.3606 C   0  0  0  0  0  0  0  0  0  0  0  0
   71.0271   56.9126   14.1398 C   0  0  0  0  0  0  0  0  0  0  0  0
   71.4724   58.0478   15.0158 C   0  0  1  0  0  0  0  0  0  0  0  0
   74.5717   56.5505   15.4535 C   0  0  0  0  0  0  0  0  0  0  0  0
   71.3623   59.2927   14.4544 O   0  0  0  0  0  0  0  0  0  0  0  0
   70.7665   57.9734   16.3445 C   0  0  1  0  0  0  0  0  0  0  0  0
   73.3084   52.5186   15.5386 C   0  0  0  0  0  0  0  0  0  0  0  0
   71.5624   58.6568   17.3780 N   0  0  0  0  0  0  0  0  0  0  0  0
   72.0816   57.9490   18.4929 C   0  0  0  0  0  0  0  0  0  0  0  0
   71.2890   57.2869   19.2374 O   0  0  0  0  0  0  0  0  0  0  0  0
   73.4269   57.9314   18.8319 O   0  0  0  0  0  0  0  0  0  0  0  0
   73.9394   58.8762   19.7186 C   0  0  1  0  0  0  0  0  0  0  0  0
   74.7332   59.9737   19.0428 C   0  0  0  0  0  0  0  0  0  0  0  0
   74.3823   61.1673   19.6113 O   0  0  0  0  0  0  0  0  0  0  0  0
   73.6781   60.9466   20.7653 C   0  0  2  0  0  0  0  0  0  0  0  0
   71.6761   61.6519   20.0604 C   0  0  0  0  0  0  0  0  0  0  0  0
   71.8532   60.2515   19.4941 C   0  0  0  0  0  0  0  0  0  0  0  0
   72.8781   59.6785   20.4356 C   0  0  1  0  0  0  0  0  0  0  0  0
   69.4139   58.5860   16.3758 C   0  0  0  0  0  0  0  0  0  0  0  0
   68.8283   60.3076   18.0543 C   0  0  0  0  0  0  0  0  0  0  0  0
   68.3349   60.6515   19.2912 C   0  0  0  0  0  0  0  0  0  0  0  0
   67.9106   59.6818   20.1780 C   0  0  0  0  0  0  0  0  0  0  0  0
   67.9800   58.3488   19.8245 C   0  0  0  0  0  0  0  0  0  0  0  0
   68.4742   58.0089   18.5862 C   0  0  0  0  0  0  0  0  0  0  0  0
   68.9011   58.9674   17.6916 C   0  0  0  0  0  0  0  0  0  0  0  0
  1  2  1  0
  3  1  1  0
  4  3  2  0
  8  3  1  0
  5  4  1  0
  6  5  2  0
  6  7  1  0
 10  6  1  0
  7  8  2  0
 31  9  1  6
 32  9  1  0
 10 11  2  0
 10 12  2  0
 10 13  1  6
 13 14  1  0
 18 13  1  0
 15 14  1  1
 15 16  1  0
 15 17  1  0
 16 23  1  0
 17 20  1  0
 19 18  1  0
 19 21  1  6
 22 19  1  0
 22 24  1  0
 22 35  1  6
 24 25  1  0
 25 26  2  0
 25 27  1  0
 28 27  1  6
 28 29  1  0
 28 34  1  0
 29 30  1  0
 31 30  1  0
 34 31  1  0
 33 32  1  0
 34 33  1  6
 41 35  1  0
 36 37  2  0
 36 41  1  0
 37 38  1  0
 38 39  2  0
 39 40  1  0
 40 41  2  0
M  END
$$$$
