
     RDKit          3D

 41 44  0  0  0  0  0  0  0  0999 V2000
   65.1848   51.2206   12.9398 C   0  0  0  0  0  0  0  0  0  0  0  0
   65.9168   50.4558   12.0137 O   0  0  0  0  0  0  0  0  0  0  0  0
   66.1636   52.0750   13.6807 C   0  0  0  0  0  0  0  0  0  0  0  0
   66.3652   53.3652   13.2519 C   0  0  0  0  0  0  0  0  0  0  0  0
   67.2691   54.1773   13.9243 C   0  0  0  0  0  0  0  0  0  0  0  0
   67.9716   53.7220   15.0140 C   0  0  0  0  0  0  0  0  0  0  0  0
   67.7624   52.4313   15.4339 C   0  0  0  0  0  0  0  0  0  0  0  0
   66.8563   51.5971   14.7703 C   0  0  0  0  0  0  0  0  0  0  0  0
   73.4036   62.5844   20.4477 O   0  0  0  0  0  0  0  0  0  0  0  0
   69.0877   54.7644   15.8247 S   0  0  1  0  0  6  0  0  0  0  0  0
   68.4368   56.0794   16.2074 O   0  0  0  0  0  0  0  0  0  0  0  0
   69.5329   54.1631   17.1513 O   0  0  0  0  0  0  0  0  0  0  0  0
   70.5011   55.1187   14.9215 N   0  0  0  0  0  0  0  0  0  0  0  0
   71.3043   53.9456   14.7047 C   0  0  0  0  0  0  0  0  0  0  0  0
   72.7114   54.2507   14.2508 C   0  0  2  0  0  0  0  0  0  0  0  0
   73.2235   53.1060   13.4087 C   0  0  0  0  0  0  0  0  0  0  0  0
   73.6063   54.3787   15.4610 C   0  0  0  0  0  0  0  0  0  0  0  0
   71.2726   56.1287   15.5694 C   0  0  0  0  0  0  0  0  0  0  0  0
   70.7841   57.5360   15.3823 C   0  0  1  0  0  0  0  0  0  0  0  0
   75.0115   54.7069   15.1045 C   0  0  0  0  0  0  0  0  0  0  0  0
   69.7344   57.6760   14.5130 O   0  0  0  0  0  0  0  0  0  0  0  0
   70.4812   58.1529   16.7227 C   0  0  1  0  0  0  0  0  0  0  0  0
   73.4872   51.8890   14.2751 C   0  0  0  0  0  0  0  0  0  0  0  0
   71.6333   58.9443   17.1863 N   0  0  0  0  0  0  0  0  0  0  0  0
   72.4437   58.5006   18.2632 C   0  0  0  0  0  0  0  0  0  0  0  0
   71.8953   57.9587   19.2764 O   0  0  0  0  0  0  0  0  0  0  0  0
   73.8257   58.6218   18.2842 O   0  0  0  0  0  0  0  0  0  0  0  0
   74.4367   59.5390   19.1369 C   0  0  1  0  0  0  0  0  0  0  0  0
   75.2504   60.5904   18.4132 C   0  0  0  0  0  0  0  0  0  0  0  0
   74.9966   61.8024   18.9943 O   0  0  0  0  0  0  0  0  0  0  0  0
   74.3460   61.6224   20.1863 C   0  0  2  0  0  0  0  0  0  0  0  0
   72.3494   62.4343   19.5889 C   0  0  0  0  0  0  0  0  0  0  0  0
   72.4189   61.0252   19.0205 C   0  0  0  0  0  0  0  0  0  0  0  0
   73.4616   60.3991   19.9072 C   0  0  1  0  0  0  0  0  0  0  0  0
   69.3049   59.0593   16.7490 C   0  0  0  0  0  0  0  0  0  0  0  0
   68.9608   60.9191   18.3448 C   0  0  0  0  0  0  0  0  0  0  0  0
   68.5642   61.3760   19.5801 C   0  0  0  0  0  0  0  0  0  0  0  0
   68.1027   60.5006   20.5430 C   0  0  0  0  0  0  0  0  0  0  0  0
   68.0360   59.1489   20.2686 C   0  0  0  0  0  0  0  0  0  0  0  0
   68.4337   58.6960   19.0317 C   0  0  0  0  0  0  0  0  0  0  0  0
   68.8965   59.5595   18.0615 C   0  0  0  0  0  0  0  0  0  0  0  0
  1  2  1  0
  3  1  1  0
  4  3  2  0
  8  3  1  0
  5  4  1  0
  6  5  2  0
  6  7  1  0
 10  6  1  0
  7  8  2  0
 31  9  1  6
 32  9  1  0
 10 11  2  0
 10 12  2  0
 10 13  1  6
 13 14  1  0
 18 13  1  0
 15 14  1  1
 15 16  1  0
 15 17  1  0
 16 23  1  0
 17 20  1  0
 19 18  1  0
 19 21  1  6
 22 19  1  0
 22 24  1  0
 22 35  1  6
 24 25  1  0
 25 26  2  0
 25 27  1  0
 28 27  1  6
 28 29  1  0
 28 34  1  0
 29 30  1  0
 31 30  1  0
 34 31  1  0
 33 32  1  0
 34 33  1  6
 41 35  1  0
 36 37  2  0
 36 41  1  0
 37 38  1  0
 38 39  2  0
 39 40  1  0
 40 41  2  0
M  END
$$$$
