
     RDKit          3D

 41 44  0  0  0  0  0  0  0  0999 V2000
   74.0617   50.6543   12.5619 C   0  0  0  0  0  0  0  0  0  0  0  0
   73.4622   49.3966   12.7550 O   0  0  0  0  0  0  0  0  0  0  0  0
   73.3965   51.6108   13.4998 C   0  0  0  0  0  0  0  0  0  0  0  0
   73.7862   52.9287   13.4791 C   0  0  0  0  0  0  0  0  0  0  0  0
   73.1826   53.8352   14.3408 C   0  0  0  0  0  0  0  0  0  0  0  0
   72.1998   53.4468   15.2192 C   0  0  0  0  0  0  0  0  0  0  0  0
   71.8182   52.1276   15.2314 C   0  0  0  0  0  0  0  0  0  0  0  0
   72.4137   51.1987   14.3715 C   0  0  0  0  0  0  0  0  0  0  0  0
   73.7125   62.7885   20.0127 O   0  0  0  0  0  0  0  0  0  0  0  0
   71.4721   54.6059   16.2757 S   0  0  1  0  0  6  0  0  0  0  0  0
   71.1672   54.0015   17.6326 O   0  0  0  0  0  0  0  0  0  0  0  0
   72.4324   55.7487   16.5784 O   0  0  0  0  0  0  0  0  0  0  0  0
   70.0254   55.2980   15.6696 N   0  0  0  0  0  0  0  0  0  0  0  0
   69.1245   54.2964   15.1660 C   0  0  0  0  0  0  0  0  0  0  0  0
   67.6872   54.7534   15.0993 C   0  0  2  0  0  0  0  0  0  0  0  0
   66.9563   54.2839   16.3350 C   0  0  0  0  0  0  0  0  0  0  0  0
   67.0229   54.1271   13.8959 C   0  0  0  0  0  0  0  0  0  0  0  0
   70.3130   56.2554   14.6521 C   0  0  0  0  0  0  0  0  0  0  0  0
   71.0325   57.4909   15.1106 C   0  0  1  0  0  0  0  0  0  0  0  0
   65.5996   54.5302   13.7505 C   0  0  0  0  0  0  0  0  0  0  0  0
   70.9351   58.5666   14.2677 O   0  0  0  0  0  0  0  0  0  0  0  0
   70.6014   57.8417   16.5107 C   0  0  1  0  0  0  0  0  0  0  0  0
   67.1741   52.7974   16.5452 C   0  0  0  0  0  0  0  0  0  0  0  0
   71.6606   58.6084   17.1880 N   0  0  0  0  0  0  0  0  0  0  0  0
   72.5882   57.9732   18.0536 C   0  0  0  0  0  0  0  0  0  0  0  0
   73.2436   56.9647   17.6362 O   0  0  0  0  0  0  0  0  0  0  0  0
   72.8328   58.3891   19.3546 O   0  0  0  0  0  0  0  0  0  0  0  0
   73.8176   59.3404   19.6135 C   0  0  1  0  0  0  0  0  0  0  0  0
   74.4495   59.9141   18.3634 C   0  0  0  0  0  0  0  0  0  0  0  0
   74.5745   61.2660   18.5293 O   0  0  0  0  0  0  0  0  0  0  0  0
   74.3706   61.5969   19.8428 C   0  0  2  0  0  0  0  0  0  0  0  0
   72.4127   62.6524   19.6086 C   0  0  0  0  0  0  0  0  0  0  0  0
   72.0963   61.1651   19.5768 C   0  0  0  0  0  0  0  0  0  0  0  0
   73.2963   60.5918   20.2815 C   0  0  1  0  0  0  0  0  0  0  0  0
   69.3621   58.6549   16.6044 C   0  0  0  0  0  0  0  0  0  0  0  0
   68.6948   60.3794   18.2491 C   0  0  0  0  0  0  0  0  0  0  0  0
   68.2867   60.7288   19.5152 C   0  0  0  0  0  0  0  0  0  0  0  0
   68.1149   59.7690   20.4929 C   0  0  0  0  0  0  0  0  0  0  0  0
   68.3540   58.4404   20.2022 C   0  0  0  0  0  0  0  0  0  0  0  0
   68.7621   58.0951   18.9344 C   0  0  0  0  0  0  0  0  0  0  0  0
   68.9375   59.0436   17.9491 C   0  0  0  0  0  0  0  0  0  0  0  0
  1  2  1  0
  3  1  1  0
  4  3  2  0
  8  3  1  0
  5  4  1  0
  6  5  2  0
  6  7  1  0
 10  6  1  0
  7  8  2  0
 31  9  1  6
 32  9  1  0
 10 11  2  0
 10 12  2  0
 10 13  1  6
 13 14  1  0
 18 13  1  0
 15 14  1  1
 15 16  1  0
 15 17  1  0
 16 23  1  0
 17 20  1  0
 19 18  1  0
 19 21  1  6
 22 19  1  0
 22 24  1  0
 22 35  1  6
 24 25  1  0
 25 26  2  0
 25 27  1  0
 28 27  1  6
 28 29  1  0
 28 34  1  0
 29 30  1  0
 31 30  1  0
 34 31  1  0
 33 32  1  0
 34 33  1  6
 41 35  1  0
 36 37  2  0
 36 41  1  0
 37 38  1  0
 38 39  2  0
 39 40  1  0
 40 41  2  0
M  END
$$$$
