
     RDKit          3D

 41 44  0  0  0  0  0  0  0  0999 V2000
   65.4826   50.8730   13.4056 C   0  0  0  0  0  0  0  0  0  0  0  0
   64.7227   51.4913   12.3963 O   0  0  0  0  0  0  0  0  0  0  0  0
   66.3549   51.9261   14.0114 C   0  0  0  0  0  0  0  0  0  0  0  0
   67.3492   51.5371   14.8770 C   0  0  0  0  0  0  0  0  0  0  0  0
   68.1718   52.4972   15.4516 C   0  0  0  0  0  0  0  0  0  0  0  0
   68.0167   53.8345   15.1758 C   0  0  0  0  0  0  0  0  0  0  0  0
   67.0201   54.2120   14.3096 C   0  0  0  0  0  0  0  0  0  0  0  0
   66.1809   53.2604   13.7202 C   0  0  0  0  0  0  0  0  0  0  0  0
   73.7299   62.9451   20.1847 O   0  0  0  0  0  0  0  0  0  0  0  0
   69.0617   54.9993   15.9110 S   0  0  1  0  0  6  0  0  0  0  0  0
   68.2769   56.1705   16.4695 O   0  0  0  0  0  0  0  0  0  0  0  0
   69.7725   54.4092   17.1219 O   0  0  0  0  0  0  0  0  0  0  0  0
   70.2659   55.6235   14.8625 N   0  0  0  0  0  0  0  0  0  0  0  0
   70.8967   54.5837   14.0949 C   0  0  0  0  0  0  0  0  0  0  0  0
   72.0909   53.9647   14.7805 C   0  0  2  0  0  0  0  0  0  0  0  0
   72.5289   54.8544   15.9199 C   0  0  0  0  0  0  0  0  0  0  0  0
   73.2327   53.8679   13.7963 C   0  0  0  0  0  0  0  0  0  0  0  0
   71.2459   56.3529   15.5990 C   0  0  0  0  0  0  0  0  0  0  0  0
   71.0425   57.8396   15.6509 C   0  0  1  0  0  0  0  0  0  0  0  0
   74.3764   53.0753   14.3191 C   0  0  0  0  0  0  0  0  0  0  0  0
   70.2066   58.3456   14.6905 O   0  0  0  0  0  0  0  0  0  0  0  0
   70.6090   58.2467   17.0349 C   0  0  1  0  0  0  0  0  0  0  0  0
   73.7537   54.2752   16.6021 C   0  0  0  0  0  0  0  0  0  0  0  0
   71.6736   59.0264   17.6887 N   0  0  0  0  0  0  0  0  0  0  0  0
   72.8478   58.3990   18.1796 C   0  0  0  0  0  0  0  0  0  0  0  0
   73.5689   57.7131   17.3856 O   0  0  0  0  0  0  0  0  0  0  0  0
   73.2705   58.4865   19.4983 O   0  0  0  0  0  0  0  0  0  0  0  0
   74.1322   59.5081   19.8924 C   0  0  1  0  0  0  0  0  0  0  0  0
   74.9225   60.1089   18.7497 C   0  0  0  0  0  0  0  0  0  0  0  0
   74.9267   61.4683   18.9009 O   0  0  0  0  0  0  0  0  0  0  0  0
   74.4859   61.8008   20.1545 C   0  0  2  0  0  0  0  0  0  0  0  0
   72.5273   62.7125   19.5756 C   0  0  0  0  0  0  0  0  0  0  0  0
   72.3217   61.2062   19.5285 C   0  0  0  0  0  0  0  0  0  0  0  0
   73.4241   60.7281   20.4348 C   0  0  1  0  0  0  0  0  0  0  0  0
   69.3784   59.0763   17.0924 C   0  0  0  0  0  0  0  0  0  0  0  0
   67.8838   60.4013   18.5533 C   0  0  0  0  0  0  0  0  0  0  0  0
   67.4975   60.8155   19.8067 C   0  0  0  0  0  0  0  0  0  0  0  0
   68.1675   60.3804   20.9330 C   0  0  0  0  0  0  0  0  0  0  0  0
   69.2391   59.5188   20.8059 C   0  0  0  0  0  0  0  0  0  0  0  0
   69.6223   59.1069   19.5503 C   0  0  0  0  0  0  0  0  0  0  0  0
   68.9618   59.5339   18.4178 C   0  0  0  0  0  0  0  0  0  0  0  0
  1  2  1  0
  3  1  1  0
  4  3  2  0
  8  3  1  0
  5  4  1  0
  6  5  2  0
  6  7  1  0
 10  6  1  0
  7  8  2  0
 31  9  1  6
 32  9  1  0
 10 11  2  0
 10 12  2  0
 10 13  1  6
 13 14  1  0
 18 13  1  0
 15 14  1  6
 15 16  1  0
 15 17  1  0
 16 23  1  0
 17 20  1  0
 19 18  1  0
 19 21  1  6
 22 19  1  0
 22 24  1  0
 22 35  1  6
 24 25  1  0
 25 26  2  0
 25 27  1  0
 28 27  1  6
 28 29  1  0
 28 34  1  0
 29 30  1  0
 31 30  1  0
 34 31  1  0
 33 32  1  0
 34 33  1  6
 41 35  1  0
 36 37  2  0
 36 41  1  0
 37 38  1  0
 38 39  2  0
 39 40  1  0
 40 41  2  0
M  END
$$$$
