
     RDKit          3D

 41 44  0  0  0  0  0  0  0  0999 V2000
   73.8515   50.4046   12.8655 C   0  0  0  0  0  0  0  0  0  0  0  0
   73.5401   50.5116   11.4980 O   0  0  0  0  0  0  0  0  0  0  0  0
   73.1577   51.5285   13.5672 C   0  0  0  0  0  0  0  0  0  0  0  0
   73.2078   51.5761   14.9399 C   0  0  0  0  0  0  0  0  0  0  0  0
   72.5711   52.6104   15.6133 C   0  0  0  0  0  0  0  0  0  0  0  0
   71.8880   53.5938   14.9389 C   0  0  0  0  0  0  0  0  0  0  0  0
   71.8444   53.5365   13.5675 C   0  0  0  0  0  0  0  0  0  0  0  0
   72.4792   52.5029   12.8704 C   0  0  0  0  0  0  0  0  0  0  0  0
   73.3636   62.5090   20.2367 O   0  0  0  0  0  0  0  0  0  0  0  0
   71.1088   54.8654   15.8137 S   0  0  1  0  0  6  0  0  0  0  0  0
   70.8623   54.4721   17.2573 O   0  0  0  0  0  0  0  0  0  0  0  0
   72.0034   56.0947   15.9046 O   0  0  0  0  0  0  0  0  0  0  0  0
   69.6137   55.3671   15.1412 N   0  0  0  0  0  0  0  0  0  0  0  0
   69.1755   54.4830   14.0949 C   0  0  0  0  0  0  0  0  0  0  0  0
   68.1798   53.4461   14.5560 C   0  0  2  0  0  0  0  0  0  0  0  0
   68.7766   52.0694   14.3827 C   0  0  0  0  0  0  0  0  0  0  0  0
   66.9408   53.5311   13.6962 C   0  0  0  0  0  0  0  0  0  0  0  0
   69.7062   56.7026   14.6485 C   0  0  0  0  0  0  0  0  0  0  0  0
   70.9004   57.4836   15.1156 C   0  0  1  0  0  0  0  0  0  0  0  0
   66.1300   54.7453   13.9750 C   0  0  0  0  0  0  0  0  0  0  0  0
   71.3137   58.4765   14.2667 O   0  0  0  0  0  0  0  0  0  0  0  0
   70.6541   58.0085   16.5058 C   0  0  1  0  0  0  0  0  0  0  0  0
   68.7154   51.6460   12.9272 C   0  0  0  0  0  0  0  0  0  0  0  0
   71.8525   58.7058   17.0020 N   0  0  0  0  0  0  0  0  0  0  0  0
   72.4032   58.4053   18.2747 C   0  0  0  0  0  0  0  0  0  0  0  0
   71.6239   58.1890   19.2578 O   0  0  0  0  0  0  0  0  0  0  0  0
   73.7663   58.3303   18.5227 O   0  0  0  0  0  0  0  0  0  0  0  0
   74.4228   59.3827   19.1575 C   0  0  1  0  0  0  0  0  0  0  0  0
   75.0438   60.3759   18.1989 C   0  0  0  0  0  0  0  0  0  0  0  0
   74.7861   61.6366   18.6629 O   0  0  0  0  0  0  0  0  0  0  0  0
   74.3281   61.5757   19.9524 C   0  0  2  0  0  0  0  0  0  0  0  0
   72.2115   62.1903   19.5714 C   0  0  0  0  0  0  0  0  0  0  0  0
   72.3039   60.7258   19.1713 C   0  0  0  0  0  0  0  0  0  0  0  0
   73.5065   60.2789   19.9583 C   0  0  1  0  0  0  0  0  0  0  0  0
   69.5247   58.9652   16.6284 C   0  0  0  0  0  0  0  0  0  0  0  0
   68.8159   58.4176   18.9354 C   0  0  0  0  0  0  0  0  0  0  0  0
   68.4841   58.8150   20.2096 C   0  0  0  0  0  0  0  0  0  0  0  0
   68.4879   60.1513   20.5572 C   0  0  0  0  0  0  0  0  0  0  0  0
   68.8281   61.1052   19.6186 C   0  0  0  0  0  0  0  0  0  0  0  0
   69.1594   60.7035   18.3450 C   0  0  0  0  0  0  0  0  0  0  0  0
   69.1595   59.3725   17.9850 C   0  0  0  0  0  0  0  0  0  0  0  0
  1  2  1  0
  3  1  1  0
  4  3  2  0
  8  3  1  0
  5  4  1  0
  6  5  2  0
  6  7  1  0
 10  6  1  0
  7  8  2  0
 31  9  1  6
 32  9  1  0
 10 11  2  0
 10 12  2  0
 10 13  1  6
 13 14  1  0
 18 13  1  0
 15 14  1  6
 15 16  1  0
 15 17  1  0
 16 23  1  0
 17 20  1  0
 19 18  1  0
 19 21  1  6
 22 19  1  0
 22 24  1  0
 22 35  1  6
 24 25  1  0
 25 26  2  0
 25 27  1  0
 28 27  1  6
 28 29  1  0
 28 34  1  0
 29 30  1  0
 31 30  1  0
 34 31  1  0
 33 32  1  0
 34 33  1  6
 41 35  1  0
 36 37  2  0
 36 41  1  0
 37 38  1  0
 38 39  2  0
 39 40  1  0
 40 41  2  0
M  END
$$$$
