
     RDKit          3D

 41 44  0  0  0  0  0  0  0  0999 V2000
   65.4145   51.3536   12.6978 C   0  0  0  0  0  0  0  0  0  0  0  0
   64.8024   50.5387   13.6672 O   0  0  0  0  0  0  0  0  0  0  0  0
   66.3734   52.2503   13.4142 C   0  0  0  0  0  0  0  0  0  0  0  0
   66.1213   53.6013   13.4314 C   0  0  0  0  0  0  0  0  0  0  0  0
   66.9976   54.4535   14.0905 C   0  0  0  0  0  0  0  0  0  0  0  0
   68.1173   53.9785   14.7301 C   0  0  0  0  0  0  0  0  0  0  0  0
   68.3595   52.6269   14.7067 C   0  0  0  0  0  0  0  0  0  0  0  0
   67.4891   51.7516   14.0482 C   0  0  0  0  0  0  0  0  0  0  0  0
   73.1741   62.7570   20.8074 O   0  0  0  0  0  0  0  0  0  0  0  0
   69.1837   55.0720   15.5403 S   0  0  1  0  0  6  0  0  0  0  0  0
   68.4445   56.3009   16.0330 O   0  0  0  0  0  0  0  0  0  0  0  0
   69.7552   54.4429   16.8042 O   0  0  0  0  0  0  0  0  0  0  0  0
   70.5067   55.5997   14.5861 N   0  0  0  0  0  0  0  0  0  0  0  0
   71.3622   54.5069   14.2087 C   0  0  0  0  0  0  0  0  0  0  0  0
   72.8333   54.8086   14.3631 C   0  0  2  0  0  0  0  0  0  0  0  0
   73.6388   53.7251   13.6858 C   0  0  0  0  0  0  0  0  0  0  0  0
   73.1884   54.8076   15.8313 C   0  0  0  0  0  0  0  0  0  0  0  0
   71.2590   56.5963   15.2758 C   0  0  0  0  0  0  0  0  0  0  0  0
   70.6313   57.9591   15.3299 C   0  0  1  0  0  0  0  0  0  0  0  0
   74.3556   53.9404   16.1397 C   0  0  0  0  0  0  0  0  0  0  0  0
   69.5380   58.1277   14.5215 O   0  0  0  0  0  0  0  0  0  0  0  0
   70.3265   58.3234   16.7593 C   0  0  1  0  0  0  0  0  0  0  0  0
   73.3747   52.3824   14.3406 C   0  0  0  0  0  0  0  0  0  0  0  0
   71.3909   59.1866   17.2984 N   0  0  0  0  0  0  0  0  0  0  0  0
   72.4201   58.6578   18.1196 C   0  0  0  0  0  0  0  0  0  0  0  0
   72.1599   57.6869   18.9010 O   0  0  0  0  0  0  0  0  0  0  0  0
   73.7208   59.1410   18.1265 O   0  0  0  0  0  0  0  0  0  0  0  0
   74.2041   59.8388   19.2315 C   0  0  1  0  0  0  0  0  0  0  0  0
   75.2466   60.8793   18.8827 C   0  0  0  0  0  0  0  0  0  0  0  0
   74.9763   62.0126   19.5994 O   0  0  0  0  0  0  0  0  0  0  0  0
   74.0638   61.7372   20.5831 C   0  0  2  0  0  0  0  0  0  0  0  0
   72.3284   62.8669   19.7378 C   0  0  0  0  0  0  0  0  0  0  0  0
   72.3998   61.5609   18.9615 C   0  0  0  0  0  0  0  0  0  0  0  0
   73.1606   60.6866   19.9218 C   0  0  1  0  0  0  0  0  0  0  0  0
   69.0465   59.0474   16.9670 C   0  0  0  0  0  0  0  0  0  0  0  0
   68.7878   60.8681   18.6230 C   0  0  0  0  0  0  0  0  0  0  0  0
   68.5184   61.2885   19.9046 C   0  0  0  0  0  0  0  0  0  0  0  0
   68.2322   60.3776   20.9021 C   0  0  0  0  0  0  0  0  0  0  0  0
   68.2146   59.0269   20.6158 C   0  0  0  0  0  0  0  0  0  0  0  0
   68.4847   58.6106   19.3325 C   0  0  0  0  0  0  0  0  0  0  0  0
   68.7720   59.5097   18.3274 C   0  0  0  0  0  0  0  0  0  0  0  0
  1  2  1  0
  3  1  1  0
  4  3  2  0
  8  3  1  0
  5  4  1  0
  6  5  2  0
  6  7  1  0
 10  6  1  0
  7  8  2  0
 31  9  1  6
 32  9  1  0
 10 11  2  0
 10 12  2  0
 10 13  1  6
 13 14  1  0
 18 13  1  0
 15 14  1  1
 15 16  1  0
 15 17  1  0
 16 23  1  0
 17 20  1  0
 19 18  1  0
 19 21  1  6
 22 19  1  0
 22 24  1  0
 22 35  1  6
 24 25  1  0
 25 26  2  0
 25 27  1  0
 28 27  1  6
 28 29  1  0
 28 34  1  0
 29 30  1  0
 31 30  1  0
 34 31  1  0
 33 32  1  0
 34 33  1  6
 41 35  1  0
 36 37  2  0
 36 41  1  0
 37 38  1  0
 38 39  2  0
 39 40  1  0
 40 41  2  0
M  END
$$$$
