
     RDKit          3D

 41 44  0  0  0  0  0  0  0  0999 V2000
   65.4884   51.0419   12.8522 C   0  0  0  0  0  0  0  0  0  0  0  0
   64.9648   51.7268   11.7408 O   0  0  0  0  0  0  0  0  0  0  0  0
   66.3768   51.9975   13.5832 C   0  0  0  0  0  0  0  0  0  0  0  0
   66.1527   53.3457   13.4367 C   0  0  0  0  0  0  0  0  0  0  0  0
   66.9648   54.2520   14.1058 C   0  0  0  0  0  0  0  0  0  0  0  0
   67.9931   53.8337   14.9157 C   0  0  0  0  0  0  0  0  0  0  0  0
   68.2081   52.4845   15.0551 C   0  0  0  0  0  0  0  0  0  0  0  0
   67.4013   51.5552   14.3896 C   0  0  0  0  0  0  0  0  0  0  0  0
   73.4227   62.6674   20.5854 O   0  0  0  0  0  0  0  0  0  0  0  0
   68.9815   54.9935   15.7325 S   0  0  1  0  0  6  0  0  0  0  0  0
   68.2225   56.2802   15.9929 O   0  0  0  0  0  0  0  0  0  0  0  0
   69.3731   54.4989   17.1188 O   0  0  0  0  0  0  0  0  0  0  0  0
   70.4275   55.3930   14.9025 N   0  0  0  0  0  0  0  0  0  0  0  0
   71.1228   54.2197   14.4464 C   0  0  0  0  0  0  0  0  0  0  0  0
   72.6261   54.3502   14.4938 C   0  0  2  0  0  0  0  0  0  0  0  0
   73.2357   52.9981   14.7801 C   0  0  0  0  0  0  0  0  0  0  0  0
   73.0078   55.2836   15.6184 C   0  0  0  0  0  0  0  0  0  0  0  0
   71.2825   56.1793   15.7305 C   0  0  0  0  0  0  0  0  0  0  0  0
   71.0261   57.6584   15.7057 C   0  0  1  0  0  0  0  0  0  0  0  0
   74.4730   55.3157   15.8664 C   0  0  0  0  0  0  0  0  0  0  0  0
   70.1828   58.0854   14.7139 O   0  0  0  0  0  0  0  0  0  0  0  0
   70.5640   58.1184   17.0637 C   0  0  1  0  0  0  0  0  0  0  0  0
   72.7914   51.9869   13.7402 C   0  0  0  0  0  0  0  0  0  0  0  0
   71.6003   58.9541   17.6933 N   0  0  0  0  0  0  0  0  0  0  0  0
   72.6154   58.3806   18.5019 C   0  0  0  0  0  0  0  0  0  0  0  0
   72.3031   57.4999   19.3665 O   0  0  0  0  0  0  0  0  0  0  0  0
   73.9564   58.7251   18.4093 O   0  0  0  0  0  0  0  0  0  0  0  0
   74.5137   59.6247   19.3157 C   0  0  1  0  0  0  0  0  0  0  0  0
   75.3903   60.6743   18.6666 C   0  0  0  0  0  0  0  0  0  0  0  0
   75.1087   61.8825   19.2427 O   0  0  0  0  0  0  0  0  0  0  0  0
   74.3705   61.6969   20.3816 C   0  0  2  0  0  0  0  0  0  0  0  0
   72.4325   62.5403   19.6500 C   0  0  0  0  0  0  0  0  0  0  0  0
   72.5272   61.1372   19.0707 C   0  0  0  0  0  0  0  0  0  0  0  0
   73.4948   60.4879   20.0233 C   0  0  1  0  0  0  0  0  0  0  0  0
   69.3129   58.9187   17.0670 C   0  0  0  0  0  0  0  0  0  0  0  0
   69.0669   60.8404   18.6067 C   0  0  0  0  0  0  0  0  0  0  0  0
   68.6683   61.3588   19.8167 C   0  0  0  0  0  0  0  0  0  0  0  0
   68.1074   60.5477   20.7832 C   0  0  0  0  0  0  0  0  0  0  0  0
   67.9418   59.1989   20.5380 C   0  0  0  0  0  0  0  0  0  0  0  0
   68.3419   58.6843   19.3263 C   0  0  0  0  0  0  0  0  0  0  0  0
   68.9034   59.4832   18.3528 C   0  0  0  0  0  0  0  0  0  0  0  0
  1  2  1  0
  3  1  1  0
  4  3  2  0
  8  3  1  0
  5  4  1  0
  6  5  2  0
  6  7  1  0
 10  6  1  0
  7  8  2  0
 31  9  1  6
 32  9  1  0
 10 11  2  0
 10 12  2  0
 10 13  1  6
 13 14  1  0
 18 13  1  0
 15 14  1  1
 15 16  1  0
 15 17  1  0
 16 23  1  0
 17 20  1  0
 19 18  1  0
 19 21  1  6
 22 19  1  0
 22 24  1  0
 22 35  1  6
 24 25  1  0
 25 26  2  0
 25 27  1  0
 28 27  1  6
 28 29  1  0
 28 34  1  0
 29 30  1  0
 31 30  1  0
 34 31  1  0
 33 32  1  0
 34 33  1  6
 41 35  1  0
 36 37  2  0
 36 41  1  0
 37 38  1  0
 38 39  2  0
 39 40  1  0
 40 41  2  0
M  END
$$$$
