
     RDKit          3D

 41 44  0  0  0  0  0  0  0  0999 V2000
   65.6455   50.6335   13.0374 C   0  0  0  0  0  0  0  0  0  0  0  0
   64.6921   51.2919   12.2400 O   0  0  0  0  0  0  0  0  0  0  0  0
   66.4348   51.6880   13.7460 C   0  0  0  0  0  0  0  0  0  0  0  0
   67.5203   51.3028   14.4960 C   0  0  0  0  0  0  0  0  0  0  0  0
   68.2683   52.2643   15.1627 C   0  0  0  0  0  0  0  0  0  0  0  0
   67.9498   53.5992   15.0919 C   0  0  0  0  0  0  0  0  0  0  0  0
   66.8633   53.9729   14.3396 C   0  0  0  0  0  0  0  0  0  0  0  0
   66.0968   53.0198   13.6604 C   0  0  0  0  0  0  0  0  0  0  0  0
   76.2184   60.6976   20.8403 O   0  0  0  0  0  0  0  0  0  0  0  0
   68.9065   54.7660   15.9361 S   0  0  1  0  0  6  0  0  0  0  0  0
   68.0419   55.8533   16.5441 O   0  0  0  0  0  0  0  0  0  0  0  0
   69.6132   54.1344   17.1283 O   0  0  0  0  0  0  0  0  0  0  0  0
   70.1045   55.5228   14.9711 N   0  0  0  0  0  0  0  0  0  0  0  0
   70.9300   54.5603   14.2924 C   0  0  0  0  0  0  0  0  0  0  0  0
   72.4099   54.8061   14.4609 C   0  0  2  0  0  0  0  0  0  0  0  0
   73.1802   53.7822   13.6609 C   0  0  0  0  0  0  0  0  0  0  0  0
   72.7784   54.6373   15.9160 C   0  0  0  0  0  0  0  0  0  0  0  0
   70.9133   56.3917   15.7622 C   0  0  0  0  0  0  0  0  0  0  0  0
   70.5724   57.8512   15.6746 C   0  0  1  0  0  0  0  0  0  0  0  0
   74.1634   55.0871   16.2141 C   0  0  0  0  0  0  0  0  0  0  0  0
   69.6728   58.1801   14.6949 O   0  0  0  0  0  0  0  0  0  0  0  0
   70.1315   58.3535   17.0245 C   0  0  1  0  0  0  0  0  0  0  0  0
   73.0815   52.4170   14.3150 C   0  0  0  0  0  0  0  0  0  0  0  0
   70.7546   59.6578   17.3063 N   0  0  0  0  0  0  0  0  0  0  0  0
   71.8917   59.7620   18.1484 C   0  0  0  0  0  0  0  0  0  0  0  0
   72.8827   58.9854   17.9599 O   0  0  0  0  0  0  0  0  0  0  0  0
   71.9960   60.6759   19.1873 O   0  0  0  0  0  0  0  0  0  0  0  0
   73.1635   61.4180   19.3542 C   0  0  1  0  0  0  0  0  0  0  0  0
   73.1921   62.2225   20.6361 C   0  0  0  0  0  0  0  0  0  0  0  0
   74.4358   62.0977   21.1916 O   0  0  0  0  0  0  0  0  0  0  0  0
   75.3018   61.5517   20.2815 C   0  0  2  0  0  0  0  0  0  0  0  0
   75.5842   59.5606   21.2604 C   0  0  0  0  0  0  0  0  0  0  0  0
   74.2448   59.4916   20.5430 C   0  0  0  0  0  0  0  0  0  0  0  0
   74.4068   60.5728   19.5086 C   0  0  1  0  0  0  0  0  0  0  0  0
   68.6663   58.5400   17.1810 C   0  0  0  0  0  0  0  0  0  0  0  0
   68.0303   60.4015   18.6825 C   0  0  0  0  0  0  0  0  0  0  0  0
   67.5887   60.8540   19.9039 C   0  0  0  0  0  0  0  0  0  0  0  0
   67.3186   59.9703   20.9299 C   0  0  0  0  0  0  0  0  0  0  0  0
   67.4918   58.6146   20.7335 C   0  0  0  0  0  0  0  0  0  0  0  0
   67.9337   58.1660   19.5102 C   0  0  0  0  0  0  0  0  0  0  0  0
   68.2071   59.0378   18.4775 C   0  0  0  0  0  0  0  0  0  0  0  0
  1  2  1  0
  3  1  1  0
  4  3  2  0
  8  3  1  0
  5  4  1  0
  6  5  2  0
  6  7  1  0
 10  6  1  0
  7  8  2  0
 31  9  1  1
 32  9  1  0
 10 11  2  0
 10 12  2  0
 10 13  1  6
 13 14  1  0
 18 13  1  0
 15 14  1  1
 15 16  1  0
 15 17  1  0
 16 23  1  0
 17 20  1  0
 19 18  1  0
 19 21  1  6
 22 19  1  0
 22 24  1  0
 22 35  1  6
 24 25  1  0
 25 26  2  0
 25 27  1  0
 28 27  1  1
 28 29  1  0
 28 34  1  0
 29 30  1  0
 31 30  1  0
 34 31  1  0
 33 32  1  0
 34 33  1  1
 41 35  1  0
 36 37  2  0
 36 41  1  0
 37 38  1  0
 38 39  2  0
 39 40  1  0
 40 41  2  0
M  END
$$$$
