
     RDKit          3D

 41 44  0  0  0  0  0  0  0  0999 V2000
   70.8725   62.5399   22.8064 C   0  0  0  0  0  0  0  0  0  0  0  0
   72.2576   62.5879   23.0467 O   0  0  0  0  0  0  0  0  0  0  0  0
   70.6651   61.7208   21.5723 C   0  0  0  0  0  0  0  0  0  0  0  0
   70.2675   60.4124   21.7118 C   0  0  0  0  0  0  0  0  0  0  0  0
   70.0685   59.6325   20.5801 C   0  0  0  0  0  0  0  0  0  0  0  0
   70.2599   60.1375   19.3165 C   0  0  0  0  0  0  0  0  0  0  0  0
   70.6571   61.4459   19.1888 C   0  0  0  0  0  0  0  0  0  0  0  0
   70.8630   62.2483   20.3162 C   0  0  0  0  0  0  0  0  0  0  0  0
   73.1122   50.4766   12.4173 O   0  0  0  0  0  0  0  0  0  0  0  0
   70.0010   59.1343   17.9323 S   0  0  1  0  0  6  0  0  0  0  0  0
   68.7380   58.3079   18.0778 O   0  0  0  0  0  0  0  0  0  0  0  0
   69.7608   59.9748   16.6850 O   0  0  0  0  0  0  0  0  0  0  0  0
   71.2951   58.0637   17.5887 N   0  0  0  0  0  0  0  0  0  0  0  0
   72.5330   58.7686   17.3910 C   0  0  0  0  0  0  0  0  0  0  0  0
   73.7408   58.0295   17.9147 C   0  0  2  0  0  0  0  0  0  0  0  0
   74.9839   58.8380   17.6276 C   0  0  0  0  0  0  0  0  0  0  0  0
   73.8648   56.7080   17.1936 C   0  0  0  0  0  0  0  0  0  0  0  0
   70.9974   57.2647   16.4450 C   0  0  0  0  0  0  0  0  0  0  0  0
   70.2908   55.9701   16.7261 C   0  0  1  0  0  0  0  0  0  0  0  0
   75.2490   56.4367   16.7249 C   0  0  0  0  0  0  0  0  0  0  0  0
   69.5738   55.9410   17.8932 O   0  0  0  0  0  0  0  0  0  0  0  0
   69.4416   55.5856   15.5429 C   0  0  1  0  0  0  0  0  0  0  0  0
   74.8384   60.2445   18.1770 C   0  0  0  0  0  0  0  0  0  0  0  0
   70.0975   54.5113   14.7785 N   0  0  0  0  0  0  0  0  0  0  0  0
   70.0301   53.1597   15.2050 C   0  0  0  0  0  0  0  0  0  0  0  0
   70.5416   52.8307   16.3235 O   0  0  0  0  0  0  0  0  0  0  0  0
   69.4294   52.1507   14.4657 O   0  0  0  0  0  0  0  0  0  0  0  0
   70.1431   50.9988   14.1413 C   0  0  1  0  0  0  0  0  0  0  0  0
   69.7416   50.3906   12.8146 C   0  0  0  0  0  0  0  0  0  0  0  0
   70.8797   50.0220   12.1513 O   0  0  0  0  0  0  0  0  0  0  0  0
   71.9493   50.0498   13.0066 C   0  0  2  0  0  0  0  0  0  0  0  0
   73.0149   51.8110   12.1321 C   0  0  0  0  0  0  0  0  0  0  0  0
   71.8853   52.3788   12.9776 C   0  0  0  0  0  0  0  0  0  0  0  0
   71.6193   51.2373   13.9218 C   0  0  1  0  0  0  0  0  0  0  0  0
   68.0785   55.0989   15.8759 C   0  0  0  0  0  0  0  0  0  0  0  0
   67.1132   52.9548   15.1045 C   0  0  0  0  0  0  0  0  0  0  0  0
   66.4736   52.2100   14.1411 C   0  0  0  0  0  0  0  0  0  0  0  0
   66.1201   52.7731   12.9309 C   0  0  0  0  0  0  0  0  0  0  0  0
   66.4095   54.0996   12.6788 C   0  0  0  0  0  0  0  0  0  0  0  0
   67.0494   54.8410   13.6451 C   0  0  0  0  0  0  0  0  0  0  0  0
   67.4078   54.2909   14.8576 C   0  0  0  0  0  0  0  0  0  0  0  0
  1  2  1  0
  3  1  1  0
  4  3  2  0
  8  3  1  0
  5  4  1  0
  6  5  2  0
  6  7  1  0
 10  6  1  0
  7  8  2  0
 31  9  1  6
 32  9  1  0
 10 11  2  0
 10 12  2  0
 10 13  1  6
 13 14  1  0
 18 13  1  0
 15 14  1  6
 15 16  1  0
 15 17  1  0
 16 23  1  0
 17 20  1  0
 19 18  1  0
 19 21  1  1
 22 19  1  0
 22 24  1  0
 22 35  1  1
 24 25  1  0
 25 26  2  0
 25 27  1  0
 28 27  1  6
 28 29  1  0
 28 34  1  0
 29 30  1  0
 31 30  1  0
 34 31  1  0
 33 32  1  0
 34 33  1  6
 41 35  1  0
 36 37  2  0
 36 41  1  0
 37 38  1  0
 38 39  2  0
 39 40  1  0
 40 41  2  0
M  END
$$$$
