
     RDKit          3D

 41 44  0  0  0  0  0  0  0  0999 V2000
   65.6062   51.8290   13.8167 C   0  0  0  0  0  0  0  0  0  0  0  0
   64.3342   52.3555   14.1054 O   0  0  0  0  0  0  0  0  0  0  0  0
   66.6076   52.6612   14.5526 C   0  0  0  0  0  0  0  0  0  0  0  0
   66.4737   54.0289   14.5226 C   0  0  0  0  0  0  0  0  0  0  0  0
   67.3914   54.8222   15.1986 C   0  0  0  0  0  0  0  0  0  0  0  0
   68.4366   54.2723   15.9011 C   0  0  0  0  0  0  0  0  0  0  0  0
   68.5609   52.9048   15.9244 C   0  0  0  0  0  0  0  0  0  0  0  0
   67.6470   52.0880   15.2500 C   0  0  0  0  0  0  0  0  0  0  0  0
   76.1296   61.0511   21.1862 O   0  0  0  0  0  0  0  0  0  0  0  0
   69.5581   55.2941   16.7305 S   0  0  1  0  0  6  0  0  0  0  0  0
   68.8435   56.3882   17.4997 O   0  0  0  0  0  0  0  0  0  0  0  0
   70.3196   54.5181   17.7970 O   0  0  0  0  0  0  0  0  0  0  0  0
   70.7179   56.0379   15.7103 N   0  0  0  0  0  0  0  0  0  0  0  0
   70.4795   55.7388   14.3239 C   0  0  0  0  0  0  0  0  0  0  0  0
   71.4811   54.7773   13.7311 C   0  0  2  0  0  0  0  0  0  0  0  0
   71.5226   54.9609   12.2324 C   0  0  0  0  0  0  0  0  0  0  0  0
   71.0394   53.3615   14.0175 C   0  0  0  0  0  0  0  0  0  0  0  0
   72.0385   55.6427   16.0775 C   0  0  0  0  0  0  0  0  0  0  0  0
   72.5994   56.3145   17.2974 C   0  0  1  0  0  0  0  0  0  0  0  0
   70.2770   52.7588   12.8928 C   0  0  0  0  0  0  0  0  0  0  0  0
   73.8371   56.8788   17.1327 O   0  0  0  0  0  0  0  0  0  0  0  0
   71.6033   57.3081   17.8355 C   0  0  1  0  0  0  0  0  0  0  0  0
   72.6120   54.0980   11.6241 C   0  0  0  0  0  0  0  0  0  0  0  0
   72.0980   58.6801   17.6314 N   0  0  0  0  0  0  0  0  0  0  0  0
   72.1272   59.6166   18.6969 C   0  0  0  0  0  0  0  0  0  0  0  0
   71.8422   59.2310   19.8763 O   0  0  0  0  0  0  0  0  0  0  0  0
   72.4534   60.9553   18.5333 O   0  0  0  0  0  0  0  0  0  0  0  0
   73.1288   61.6410   19.5409 C   0  0  1  0  0  0  0  0  0  0  0  0
   72.7470   61.1972   20.9368 C   0  0  0  0  0  0  0  0  0  0  0  0
   73.8903   61.0956   21.6808 O   0  0  0  0  0  0  0  0  0  0  0  0
   74.9307   61.6978   21.0242 C   0  0  2  0  0  0  0  0  0  0  0  0
   76.0980   59.8588   20.5161 C   0  0  0  0  0  0  0  0  0  0  0  0
   74.9654   59.9324   19.5036 C   0  0  0  0  0  0  0  0  0  0  0  0
   74.6201   61.3966   19.5512 C   0  0  1  0  0  0  0  0  0  0  0  0
   70.2540   57.2467   17.2180 C   0  0  0  0  0  0  0  0  0  0  0  0
   68.6561   57.4021   19.1013 C   0  0  0  0  0  0  0  0  0  0  0  0
   67.6522   58.0682   19.7649 C   0  0  0  0  0  0  0  0  0  0  0  0
   67.1568   59.2632   19.2817 C   0  0  0  0  0  0  0  0  0  0  0  0
   67.6715   59.8012   18.1188 C   0  0  0  0  0  0  0  0  0  0  0  0
   68.6757   59.1317   17.4581 C   0  0  0  0  0  0  0  0  0  0  0  0
   69.1791   57.9379   17.9298 C   0  0  0  0  0  0  0  0  0  0  0  0
  1  2  1  0
  3  1  1  0
  4  3  2  0
  8  3  1  0
  5  4  1  0
  6  5  2  0
  6  7  1  0
 10  6  1  0
  7  8  2  0
 31  9  1  1
 32  9  1  0
 10 11  2  0
 10 12  2  0
 10 13  1  6
 13 14  1  0
 18 13  1  0
 15 14  1  1
 15 16  1  0
 15 17  1  0
 16 23  1  0
 17 20  1  0
 19 18  1  0
 19 21  1  6
 22 19  1  0
 22 24  1  0
 22 35  1  6
 24 25  1  0
 25 26  2  0
 25 27  1  0
 28 27  1  6
 28 29  1  0
 28 34  1  0
 29 30  1  0
 31 30  1  0
 34 31  1  0
 33 32  1  0
 34 33  1  1
 41 35  1  0
 36 37  2  0
 36 41  1  0
 37 38  1  0
 38 39  2  0
 39 40  1  0
 40 41  2  0
M  END
$$$$
