
     RDKit          3D

 41 44  0  0  0  0  0  0  0  0999 V2000
   65.8761   50.8800   12.5538 C   0  0  0  0  0  0  0  0  0  0  0  0
   64.5595   51.3751   12.5483 O   0  0  0  0  0  0  0  0  0  0  0  0
   66.7072   51.8401   13.3440 C   0  0  0  0  0  0  0  0  0  0  0  0
   67.6607   51.3362   14.1962 C   0  0  0  0  0  0  0  0  0  0  0  0
   68.4444   52.2085   14.9401 C   0  0  0  0  0  0  0  0  0  0  0  0
   68.2908   53.5708   14.8461 C   0  0  0  0  0  0  0  0  0  0  0  0
   67.3351   54.0634   13.9916 C   0  0  0  0  0  0  0  0  0  0  0  0
   66.5354   53.2016   13.2335 C   0  0  0  0  0  0  0  0  0  0  0  0
   73.3487   62.7094   20.9274 O   0  0  0  0  0  0  0  0  0  0  0  0
   69.2868   54.6239   15.7887 S   0  0  1  0  0  6  0  0  0  0  0  0
   68.5816   55.9335   16.0837 O   0  0  0  0  0  0  0  0  0  0  0  0
   69.5666   54.0279   17.1621 O   0  0  0  0  0  0  0  0  0  0  0  0
   70.7996   54.9898   15.0699 N   0  0  0  0  0  0  0  0  0  0  0  0
   71.6797   53.8523   15.0697 C   0  0  0  0  0  0  0  0  0  0  0  0
   72.8441   53.9880   14.1184 C   0  0  2  0  0  0  0  0  0  0  0  0
   72.9772   52.7200   13.3084 C   0  0  0  0  0  0  0  0  0  0  0  0
   74.1153   54.1715   14.9133 C   0  0  0  0  0  0  0  0  0  0  0  0
   71.4196   56.0897   15.7338 C   0  0  0  0  0  0  0  0  0  0  0  0
   70.7365   57.4160   15.5649 C   0  0  1  0  0  0  0  0  0  0  0  0
   74.2000   53.2560   16.0813 C   0  0  0  0  0  0  0  0  0  0  0  0
   69.6772   57.4176   14.6959 O   0  0  0  0  0  0  0  0  0  0  0  0
   70.3497   57.9654   16.9130 C   0  0  1  0  0  0  0  0  0  0  0  0
   73.8801   52.9498   12.1112 C   0  0  0  0  0  0  0  0  0  0  0  0
   71.3197   58.9884   17.3387 N   0  0  0  0  0  0  0  0  0  0  0  0
   72.6091   58.6278   17.8086 C   0  0  0  0  0  0  0  0  0  0  0  0
   72.7940   57.4675   18.2987 O   0  0  0  0  0  0  0  0  0  0  0  0
   73.7059   59.4767   17.7677 O   0  0  0  0  0  0  0  0  0  0  0  0
   74.2343   59.9975   18.9471 C   0  0  1  0  0  0  0  0  0  0  0  0
   75.3128   61.0353   18.7216 C   0  0  0  0  0  0  0  0  0  0  0  0
   75.1001   62.0691   19.5916 O   0  0  0  0  0  0  0  0  0  0  0  0
   74.1925   61.6966   20.5476 C   0  0  2  0  0  0  0  0  0  0  0  0
   72.4916   62.9970   19.9007 C   0  0  0  0  0  0  0  0  0  0  0  0
   72.4977   61.8080   18.9522 C   0  0  0  0  0  0  0  0  0  0  0  0
   73.2371   60.7819   19.7682 C   0  0  1  0  0  0  0  0  0  0  0  0
   69.0083   58.6001   16.9747 C   0  0  0  0  0  0  0  0  0  0  0  0
   68.7742   60.5197   18.5189 C   0  0  0  0  0  0  0  0  0  0  0  0
   68.3877   61.0359   19.7338 C   0  0  0  0  0  0  0  0  0  0  0  0
   67.8401   60.2223   20.7058 C   0  0  0  0  0  0  0  0  0  0  0  0
   67.6757   58.8732   20.4612 C   0  0  0  0  0  0  0  0  0  0  0  0
   68.0635   58.3609   19.2446 C   0  0  0  0  0  0  0  0  0  0  0  0
   68.6117   59.1624   18.2656 C   0  0  0  0  0  0  0  0  0  0  0  0
  1  2  1  0
  3  1  1  0
  4  3  2  0
  8  3  1  0
  5  4  1  0
  6  5  2  0
  6  7  1  0
 10  6  1  0
  7  8  2  0
 31  9  1  6
 32  9  1  0
 10 11  2  0
 10 12  2  0
 10 13  1  6
 13 14  1  0
 18 13  1  0
 15 14  1  1
 15 16  1  0
 15 17  1  0
 16 23  1  0
 17 20  1  0
 19 18  1  0
 19 21  1  6
 22 19  1  0
 22 24  1  0
 22 35  1  6
 24 25  1  0
 25 26  2  0
 25 27  1  0
 28 27  1  6
 28 29  1  0
 28 34  1  0
 29 30  1  0
 31 30  1  0
 34 31  1  0
 33 32  1  0
 34 33  1  6
 41 35  1  0
 36 37  2  0
 36 41  1  0
 37 38  1  0
 38 39  2  0
 39 40  1  0
 40 41  2  0
M  END
$$$$
