
     RDKit          3D

 41 44  0  0  0  0  0  0  0  0999 V2000
   64.9317   50.9462   13.1403 C   0  0  0  0  0  0  0  0  0  0  0  0
   64.9111   51.2554   11.7683 O   0  0  0  0  0  0  0  0  0  0  0  0
   65.9342   51.8510   13.7832 C   0  0  0  0  0  0  0  0  0  0  0  0
   66.1780   51.7102   15.1286 C   0  0  0  0  0  0  0  0  0  0  0  0
   67.1048   52.5390   15.7474 C   0  0  0  0  0  0  0  0  0  0  0  0
   67.7889   53.5022   15.0455 C   0  0  0  0  0  0  0  0  0  0  0  0
   67.5376   53.6341   13.7018 C   0  0  0  0  0  0  0  0  0  0  0  0
   66.6078   52.8092   13.0597 C   0  0  0  0  0  0  0  0  0  0  0  0
   74.6757   62.5241   21.9193 O   0  0  0  0  0  0  0  0  0  0  0  0
   68.9355   54.5140   15.8522 S   0  0  1  0  0  6  0  0  0  0  0  0
   68.2453   55.5987   16.6563 O   0  0  0  0  0  0  0  0  0  0  0  0
   69.7295   53.7253   16.8852 O   0  0  0  0  0  0  0  0  0  0  0  0
   70.0635   55.2703   14.8058 N   0  0  0  0  0  0  0  0  0  0  0  0
   71.4036   55.1971   15.3227 C   0  0  0  0  0  0  0  0  0  0  0  0
   72.3953   54.6033   14.3516 C   0  0  2  0  0  0  0  0  0  0  0  0
   72.0562   53.1501   14.1178 C   0  0  0  0  0  0  0  0  0  0  0  0
   73.7794   54.6703   14.9530 C   0  0  0  0  0  0  0  0  0  0  0  0
   69.7010   56.6303   14.5731 C   0  0  0  0  0  0  0  0  0  0  0  0
   70.7589   57.6461   14.8943 C   0  0  1  0  0  0  0  0  0  0  0  0
   73.8273   54.1492   16.3442 C   0  0  0  0  0  0  0  0  0  0  0  0
   70.7966   58.7302   14.0574 O   0  0  0  0  0  0  0  0  0  0  0  0
   70.6443   58.0624   16.3374 C   0  0  1  0  0  0  0  0  0  0  0  0
   72.9581   52.5620   13.0491 C   0  0  0  0  0  0  0  0  0  0  0  0
   71.8392   58.8233   16.7399 N   0  0  0  0  0  0  0  0  0  0  0  0
   72.2250   58.9187   18.1020 C   0  0  0  0  0  0  0  0  0  0  0  0
   72.3023   57.8605   18.8056 O   0  0  0  0  0  0  0  0  0  0  0  0
   72.5304   60.1173   18.7309 O   0  0  0  0  0  0  0  0  0  0  0  0
   73.6770   60.2257   19.5151 C   0  0  1  0  0  0  0  0  0  0  0  0
   74.7788   61.0378   18.8688 C   0  0  0  0  0  0  0  0  0  0  0  0
   75.3172   61.8610   19.8193 O   0  0  0  0  0  0  0  0  0  0  0  0
   74.8978   61.4743   21.0647 C   0  0  2  0  0  0  0  0  0  0  0  0
   73.5684   63.2165   21.5119 C   0  0  0  0  0  0  0  0  0  0  0  0
   72.7751   62.3076   20.5857 C   0  0  0  0  0  0  0  0  0  0  0  0
   73.4654   60.9879   20.8029 C   0  0  1  0  0  0  0  0  0  0  0  0
   69.4705   58.9142   16.6574 C   0  0  0  0  0  0  0  0  0  0  0  0
   69.5652   60.6950   18.3731 C   0  0  0  0  0  0  0  0  0  0  0  0
   69.4372   61.1030   19.6804 C   0  0  0  0  0  0  0  0  0  0  0  0
   69.0957   60.2042   20.6715 C   0  0  0  0  0  0  0  0  0  0  0  0
   68.8786   58.8783   20.3526 C   0  0  0  0  0  0  0  0  0  0  0  0
   69.0077   58.4743   19.0437 C   0  0  0  0  0  0  0  0  0  0  0  0
   69.3482   59.3616   18.0447 C   0  0  0  0  0  0  0  0  0  0  0  0
  1  2  1  0
  3  1  1  0
  4  3  2  0
  8  3  1  0
  5  4  1  0
  6  5  2  0
  6  7  1  0
 10  6  1  0
  7  8  2  0
 31  9  1  1
 32  9  1  0
 10 11  2  0
 10 12  2  0
 10 13  1  6
 13 14  1  0
 18 13  1  0
 15 14  1  1
 15 16  1  0
 15 17  1  0
 16 23  1  0
 17 20  1  0
 19 18  1  0
 19 21  1  6
 22 19  1  0
 22 24  1  0
 22 35  1  6
 24 25  1  0
 25 26  2  0
 25 27  1  0
 28 27  1  6
 28 29  1  0
 28 34  1  0
 29 30  1  0
 31 30  1  0
 34 31  1  0
 33 32  1  0
 34 33  1  6
 41 35  1  0
 36 37  2  0
 36 41  1  0
 37 38  1  0
 38 39  2  0
 39 40  1  0
 40 41  2  0
M  END
$$$$
