
     RDKit          3D

 41 44  0  0  0  0  0  0  0  0999 V2000
   65.6807   50.8469   12.4705 C   0  0  0  0  0  0  0  0  0  0  0  0
   64.5518   51.5227   11.9733 O   0  0  0  0  0  0  0  0  0  0  0  0
   66.4679   51.8317   13.2752 C   0  0  0  0  0  0  0  0  0  0  0  0
   67.5529   51.3795   13.9876 C   0  0  0  0  0  0  0  0  0  0  0  0
   68.2990   52.2755   14.7419 C   0  0  0  0  0  0  0  0  0  0  0  0
   67.9790   53.6109   14.7951 C   0  0  0  0  0  0  0  0  0  0  0  0
   66.8930   54.0519   14.0795 C   0  0  0  0  0  0  0  0  0  0  0  0
   66.1284   53.1654   13.3135 C   0  0  0  0  0  0  0  0  0  0  0  0
   73.0383   62.2733   21.0233 O   0  0  0  0  0  0  0  0  0  0  0  0
   68.9334   54.6950   15.7455 S   0  0  1  0  0  6  0  0  0  0  0  0
   68.0983   55.8425   16.2797 O   0  0  0  0  0  0  0  0  0  0  0  0
   69.4673   54.0036   16.9931 O   0  0  0  0  0  0  0  0  0  0  0  0
   70.2760   55.3624   14.9141 N   0  0  0  0  0  0  0  0  0  0  0  0
   71.4964   55.2066   15.6588 C   0  0  0  0  0  0  0  0  0  0  0  0
   72.6732   54.7865   14.8116 C   0  0  2  0  0  0  0  0  0  0  0  0
   72.2627   53.6366   13.9223 C   0  0  0  0  0  0  0  0  0  0  0  0
   73.7870   54.3074   15.7124 C   0  0  0  0  0  0  0  0  0  0  0  0
   70.0524   56.7404   14.6210 C   0  0  0  0  0  0  0  0  0  0  0  0
   71.0025   57.7031   15.2728 C   0  0  1  0  0  0  0  0  0  0  0  0
   74.8618   55.3195   15.8856 C   0  0  0  0  0  0  0  0  0  0  0  0
   71.2425   58.8515   14.5652 O   0  0  0  0  0  0  0  0  0  0  0  0
   70.5431   58.0013   16.6760 C   0  0  1  0  0  0  0  0  0  0  0  0
   72.6614   52.3144   14.5500 C   0  0  0  0  0  0  0  0  0  0  0  0
   71.5186   58.8731   17.3522 N   0  0  0  0  0  0  0  0  0  0  0  0
   72.3532   58.3774   18.3871 C   0  0  0  0  0  0  0  0  0  0  0  0
   71.8422   57.6828   19.3237 O   0  0  0  0  0  0  0  0  0  0  0  0
   73.7206   58.6056   18.4457 O   0  0  0  0  0  0  0  0  0  0  0  0
   74.2516   59.4356   19.4309 C   0  0  1  0  0  0  0  0  0  0  0  0
   75.0616   60.5893   18.8794 C   0  0  0  0  0  0  0  0  0  0  0  0
   74.7327   61.7166   19.5808 O   0  0  0  0  0  0  0  0  0  0  0  0
   74.0285   61.3784   20.7061 C   0  0  2  0  0  0  0  0  0  0  0  0
   72.0364   62.1914   20.0955 C   0  0  0  0  0  0  0  0  0  0  0  0
   72.1881   60.8613   19.3737 C   0  0  0  0  0  0  0  0  0  0  0  0
   73.2063   60.1689   20.2393 C   0  0  1  0  0  0  0  0  0  0  0  0
   69.2254   58.6789   16.7782 C   0  0  0  0  0  0  0  0  0  0  0  0
   68.3237   58.2718   19.0466 C   0  0  0  0  0  0  0  0  0  0  0  0
   67.9736   58.7335   20.2940 C   0  0  0  0  0  0  0  0  0  0  0  0
   68.1275   60.0655   20.6239 C   0  0  0  0  0  0  0  0  0  0  0  0
   68.6386   60.9497   19.6946 C   0  0  0  0  0  0  0  0  0  0  0  0
   68.9875   60.4838   18.4478 C   0  0  0  0  0  0  0  0  0  0  0  0
   68.8389   59.1564   18.1057 C   0  0  0  0  0  0  0  0  0  0  0  0
  1  2  1  0
  3  1  1  0
  4  3  2  0
  8  3  1  0
  5  4  1  0
  6  5  2  0
  6  7  1  0
 10  6  1  0
  7  8  2  0
 31  9  1  6
 32  9  1  0
 10 11  2  0
 10 12  2  0
 10 13  1  6
 13 14  1  0
 18 13  1  0
 15 14  1  1
 15 16  1  0
 15 17  1  0
 16 23  1  0
 17 20  1  0
 19 18  1  0
 19 21  1  6
 22 19  1  0
 22 24  1  0
 22 35  1  6
 24 25  1  0
 25 26  2  0
 25 27  1  0
 28 27  1  6
 28 29  1  0
 28 34  1  0
 29 30  1  0
 31 30  1  0
 34 31  1  0
 33 32  1  0
 34 33  1  6
 41 35  1  0
 36 37  2  0
 36 41  1  0
 37 38  1  0
 38 39  2  0
 39 40  1  0
 40 41  2  0
M  END
$$$$
