
     RDKit          3D

 55 55  0  0  0  0  0  0  0  0999 V2000
    2.5385    0.1149   26.8166 N   0  0  0  0  0  4  0  0  0  0  0  0
    1.1220    0.1575   27.2297 C   0  0  2  0  0  0  0  0  0  0  0  0
    0.2955   -0.0818   26.0310 C   0  0  0  0  0  0  0  0  0  0  0  0
    0.7900    0.2292   24.8939 O   0  0  0  0  0  0  0  0  0  0  0  0
    0.8606    1.5615   27.7690 C   0  0  0  0  0  0  0  0  0  0  0  0
    0.3050    1.5223   29.1580 C   0  0  0  0  0  0  0  0  0  0  0  0
    0.0870    2.8836   29.6947 C   0  0  0  0  0  0  0  0  0  0  0  0
    0.7206    3.8430   29.2039 O   0  0  0  0  0  0  0  0  0  0  0  0
   -0.8192    3.0502   30.7313 O   0  0  0  0  0  0  0  0  0  0  0  0
   -1.0274   -0.6422   26.0650 N   0  0  0  0  0  0  0  0  0  0  0  0
   -1.3122   -1.7375   25.1373 C   0  0  2  0  0  0  0  0  0  0  0  0
   -2.6860   -2.2321   25.4163 C   0  0  0  0  0  0  0  0  0  0  0  0
   -2.9556   -2.6942   26.5812 O   0  0  0  0  0  0  0  0  0  0  0  0
   -0.2725   -2.7986   25.4612 C   0  0  0  0  0  0  0  0  0  0  0  0
    0.6922   -3.0541   24.4047 C   0  0  0  0  0  0  0  0  0  0  0  0
    1.8233   -3.8430   24.6988 O   0  0  0  0  0  0  0  0  0  0  0  0
    0.5642   -2.6094   23.2629 O   0  0  0  0  0  0  0  0  0  0  0  0
   -3.6984   -2.2043   24.4546 N   0  0  0  0  0  0  0  0  0  0  0  0
   -4.9869   -1.5111   24.5827 C   0  0  2  0  0  0  0  0  0  0  0  0
   -5.2904   -1.4471   26.0246 C   0  0  0  0  0  0  0  0  0  0  0  0
   -4.6255   -2.2084   26.8077 O   0  0  0  0  0  0  0  0  0  0  0  0
   -6.0898   -2.2770   23.8609 C   0  0  0  0  0  0  0  0  0  0  0  0
   -5.6538   -2.5807   22.4629 C   0  0  0  0  0  0  0  0  0  0  0  0
   -4.6233   -3.6322   22.3879 C   0  0  0  0  0  0  0  0  0  0  0  0
   -3.6543   -3.6178   21.5769 O   0  0  0  0  0  0  0  0  0  0  0  0
   -4.7166   -4.7523   23.2883 N   0  0  0  0  0  0  0  0  0  0  0  0
   -6.2879   -0.5835   26.5882 N   0  0  0  0  0  0  0  0  0  0  0  0
   -5.9525    0.8295   26.6700 C   0  0  2  0  0  0  0  0  0  0  0  0
   -6.9575    1.6127   27.3713 C   0  0  0  0  0  0  0  0  0  0  0  0
   -7.8157    2.3219   26.7499 O   0  0  0  0  0  0  0  0  0  0  0  0
   -5.7834    1.3458   25.2364 C   0  0  0  0  0  0  0  0  0  0  0  0
   -5.3844    2.7695   25.1430 C   0  0  0  0  0  0  0  0  0  0  0  0
   -5.4111    3.4300   23.4795 S   0  0  0  0  0  0  0  0  0  0  0  0
   -6.8759    4.4616   23.2073 C   0  0  0  0  0  0  0  0  0  0  0  0
   -7.0176    1.6125   28.8041 N   0  0  0  0  0  0  0  0  0  0  0  0
   -8.2302    1.8752   29.5659 C   0  0  2  0  0  0  0  0  0  0  0  0
   -8.2431    3.2721   29.9630 C   0  0  0  0  0  0  0  0  0  0  0  0
   -7.0849    3.8494   30.1303 O   0  0  0  0  0  0  0  0  0  0  0  0
   -8.1816    0.9487   30.7964 C   0  0  1  0  0  0  0  0  0  0  0  0
   -9.2565    1.2007   31.7840 C   0  0  0  0  0  0  0  0  0  0  0  0
   -7.9782   -0.4910   30.4227 C   0  0  0  0  0  0  0  0  0  0  0  0
   -9.3297    4.1300   30.2014 N   0  0  0  0  0  0  0  0  0  0  0  0
   -9.4311    5.5033   30.6644 C   0  0  2  0  0  0  0  0  0  0  0  0
  -10.1314    5.5193   31.9949 C   0  0  0  0  0  0  0  0  0  0  0  0
  -11.1908    4.8414   32.2056 O   0  0  0  0  0  0  0  0  0  0  0  0
  -10.3990    6.1100   29.6794 C   0  0  0  0  0  0  0  0  0  0  0  0
  -11.4818    5.0219   29.6636 C   0  0  0  0  0  0  0  0  0  0  0  0
  -10.7372    3.7553   29.9648 C   0  0  0  0  0  0  0  0  0  0  0  0
   -9.6564    6.2783   33.0735 N   0  0  0  0  0  0  0  0  0  0  0  0
   -9.0404    7.6074   32.8509 C   0  0  2  0  0  0  0  0  0  0  0  0
   -8.5310    8.1535   34.1236 C   0  0  0  0  0  0  0  0  0  0  0  0
   -9.4281    8.7940   34.9789 O   0  0  0  0  0  0  0  0  0  0  0  0
  -10.0319    8.5773   32.2536 C   0  0  0  0  0  0  0  0  0  0  0  0
  -11.2869    8.4950   32.8131 O   0  0  0  0  0  0  0  0  0  0  0  0
   -7.3410    8.0601   34.4501 O   0  0  0  0  0  0  0  0  0  0  0  0
  2  1  1  6
  2  3  1  0
  2  5  1  0
  3  4  2  0
  3 10  1  0
  5  6  1  0
  6  7  1  0
  7  8  2  0
  7  9  1  0
 10 11  1  0
 11 12  1  0
 11 14  1  1
 12 13  2  0
 12 18  1  0
 14 15  1  0
 15 16  1  0
 15 17  2  0
 18 19  1  0
 19 20  1  0
 19 22  1  6
 20 21  2  0
 20 27  1  0
 22 23  1  0
 23 24  1  0
 24 25  2  0
 24 26  1  0
 27 28  1  0
 28 29  1  0
 28 31  1  6
 29 30  2  0
 29 35  1  0
 31 32  1  0
 32 33  1  0
 33 34  1  0
 36 35  1  6
 36 37  1  0
 36 39  1  0
 37 38  2  0
 37 42  1  0
 39 40  1  6
 39 41  1  0
 42 43  1  0
 42 48  1  0
 43 44  1  1
 43 46  1  0
 44 45  2  0
 44 49  1  0
 46 47  1  0
 47 48  1  0
 49 50  1  0
 50 51  1  0
 50 53  1  1
 51 52  1  0
 51 55  2  0
 53 54  1  0
M  CHG  1   1   1
M  END
$$$$
