
     RDKit          3D

 55 55  0  0  0  0  0  0  0  0999 V2000
    2.2721   -4.9739   28.1457 N   0  0  0  0  0  4  0  0  0  0  0  0
    0.8357   -5.1061   27.8322 C   0  0  2  0  0  0  0  0  0  0  0  0
    0.5386   -4.2142   26.6948 C   0  0  0  0  0  0  0  0  0  0  0  0
   -0.0139   -4.7279   25.6627 O   0  0  0  0  0  0  0  0  0  0  0  0
    0.0688   -4.6442   29.0686 C   0  0  0  0  0  0  0  0  0  0  0  0
   -1.3994   -4.5395   28.7977 C   0  0  0  0  0  0  0  0  0  0  0  0
   -2.0386   -5.8727   28.7446 C   0  0  0  0  0  0  0  0  0  0  0  0
   -3.2622   -5.9547   28.5027 O   0  0  0  0  0  0  0  0  0  0  0  0
   -1.2528   -6.9938   28.9664 O   0  0  0  0  0  0  0  0  0  0  0  0
    0.8316   -2.8074   26.6780 N   0  0  0  0  0  0  0  0  0  0  0  0
    0.4968   -2.0706   25.4588 C   0  0  2  0  0  0  0  0  0  0  0  0
   -0.7655   -2.6340   24.9121 C   0  0  0  0  0  0  0  0  0  0  0  0
   -0.7170   -3.3559   23.8540 O   0  0  0  0  0  0  0  0  0  0  0  0
    1.6635   -2.3288   24.5185 C   0  0  0  0  0  0  0  0  0  0  0  0
    2.9097   -1.6838   24.8966 C   0  0  0  0  0  0  0  0  0  0  0  0
    4.1002   -2.4383   24.8568 O   0  0  0  0  0  0  0  0  0  0  0  0
    2.9699   -0.5055   25.2518 O   0  0  0  0  0  0  0  0  0  0  0  0
   -2.0050   -2.4107   25.5159 N   0  0  0  0  0  0  0  0  0  0  0  0
   -3.1594   -1.7521   24.8908 C   0  0  2  0  0  0  0  0  0  0  0  0
   -4.2288   -1.7215   25.9061 C   0  0  0  0  0  0  0  0  0  0  0  0
   -5.4226   -1.9708   25.5216 O   0  0  0  0  0  0  0  0  0  0  0  0
   -3.6346   -2.5322   23.6703 C   0  0  0  0  0  0  0  0  0  0  0  0
   -4.8823   -1.9065   23.1329 C   0  0  0  0  0  0  0  0  0  0  0  0
   -4.6242   -0.7600   22.2429 C   0  0  0  0  0  0  0  0  0  0  0  0
   -5.3323    0.2861   22.2120 O   0  0  0  0  0  0  0  0  0  0  0  0
   -3.4991   -0.8248   21.3464 N   0  0  0  0  0  0  0  0  0  0  0  0
   -4.0002   -1.4253   27.2911 N   0  0  0  0  0  0  0  0  0  0  0  0
   -4.2203   -0.0486   27.7059 C   0  0  2  0  0  0  0  0  0  0  0  0
   -5.4261    0.5311   27.1358 C   0  0  0  0  0  0  0  0  0  0  0  0
   -5.4622    0.9757   25.9413 O   0  0  0  0  0  0  0  0  0  0  0  0
   -2.9903    0.7620   27.2808 C   0  0  0  0  0  0  0  0  0  0  0  0
   -3.0391    2.1922   27.6642 C   0  0  0  0  0  0  0  0  0  0  0  0
   -1.9203    2.6335   28.9900 S   0  0  0  0  0  0  0  0  0  0  0  0
   -2.7778    3.5600   30.2901 C   0  0  0  0  0  0  0  0  0  0  0  0
   -6.6308    0.6223   27.9084 N   0  0  0  0  0  0  0  0  0  0  0  0
   -7.8155    1.3535   27.4822 C   0  0  2  0  0  0  0  0  0  0  0  0
   -7.6518    2.7553   27.8250 C   0  0  0  0  0  0  0  0  0  0  0  0
   -6.5900    3.0752   28.5127 O   0  0  0  0  0  0  0  0  0  0  0  0
   -9.0065    0.7327   28.2375 C   0  0  1  0  0  0  0  0  0  0  0  0
  -10.2239    1.5768   28.2424 C   0  0  0  0  0  0  0  0  0  0  0  0
   -9.2263   -0.7080   27.8770 C   0  0  0  0  0  0  0  0  0  0  0  0
   -8.4719    3.8563   27.5273 N   0  0  0  0  0  0  0  0  0  0  0  0
   -8.3601    5.2808   27.7894 C   0  0  2  0  0  0  0  0  0  0  0  0
   -9.4705    5.6956   28.7145 C   0  0  0  0  0  0  0  0  0  0  0  0
  -10.6513    5.9215   28.2891 O   0  0  0  0  0  0  0  0  0  0  0  0
   -8.6899    5.8872   26.4482 C   0  0  0  0  0  0  0  0  0  0  0  0
   -9.9417    5.0747   26.0879 C   0  0  0  0  0  0  0  0  0  0  0  0
   -9.7363    3.7564   26.7731 C   0  0  0  0  0  0  0  0  0  0  0  0
   -9.2672    5.8542   30.0923 N   0  0  0  0  0  0  0  0  0  0  0  0
   -9.5466    7.1499   30.7546 C   0  0  2  0  0  0  0  0  0  0  0  0
   -8.3709    7.5909   31.5298 C   0  0  0  0  0  0  0  0  0  0  0  0
   -8.4616    8.7774   32.2582 O   0  0  0  0  0  0  0  0  0  0  0  0
  -10.7405    7.0489   31.6739 C   0  0  0  0  0  0  0  0  0  0  0  0
  -11.1221    8.2561   32.2141 O   0  0  0  0  0  0  0  0  0  0  0  0
   -7.3165    6.9436   31.5512 O   0  0  0  0  0  0  0  0  0  0  0  0
  2  1  1  1
  2  3  1  0
  2  5  1  0
  3  4  2  0
  3 10  1  0
  5  6  1  0
  6  7  1  0
  7  8  2  0
  7  9  1  0
 10 11  1  0
 11 12  1  0
 11 14  1  6
 12 13  2  0
 12 18  1  0
 14 15  1  0
 15 16  1  0
 15 17  2  0
 18 19  1  0
 19 20  1  0
 19 22  1  6
 20 21  2  0
 20 27  1  0
 22 23  1  0
 23 24  1  0
 24 25  2  0
 24 26  1  0
 27 28  1  0
 28 29  1  0
 28 31  1  6
 29 30  2  0
 29 35  1  0
 31 32  1  0
 32 33  1  0
 33 34  1  0
 36 35  1  1
 36 37  1  0
 36 39  1  0
 37 38  2  0
 37 42  1  0
 39 40  1  6
 39 41  1  0
 42 43  1  0
 42 48  1  0
 43 44  1  1
 43 46  1  0
 44 45  2  0
 44 49  1  0
 46 47  1  0
 47 48  1  0
 49 50  1  0
 50 51  1  0
 50 53  1  1
 51 52  1  0
 51 55  2  0
 53 54  1  0
M  CHG  1   1   1
M  END
$$$$
