
     RDKit          3D

 55 55  0  0  0  0  0  0  0  0999 V2000
    0.5221   -1.0678   25.6565 N   0  0  0  0  0  4  0  0  0  0  0  0
    0.6628   -2.4581   25.1809 C   0  0  2  0  0  0  0  0  0  0  0  0
    0.3719   -3.3545   26.3163 C   0  0  0  0  0  0  0  0  0  0  0  0
    1.2744   -4.1915   26.6617 O   0  0  0  0  0  0  0  0  0  0  0  0
    2.1146   -2.6305   24.7418 C   0  0  0  0  0  0  0  0  0  0  0  0
    2.4650   -4.0735   24.5553 C   0  0  0  0  0  0  0  0  0  0  0  0
    2.5968   -4.4201   23.1232 C   0  0  0  0  0  0  0  0  0  0  0  0
    2.3544   -3.5501   22.2588 O   0  0  0  0  0  0  0  0  0  0  0  0
    2.9876   -5.7074   22.7859 O   0  0  0  0  0  0  0  0  0  0  0  0
   -0.8608   -3.3428   27.0550 N   0  0  0  0  0  0  0  0  0  0  0  0
   -2.0990   -3.2190   26.2850 C   0  0  2  0  0  0  0  0  0  0  0  0
   -2.2344   -1.8024   25.8551 C   0  0  0  0  0  0  0  0  0  0  0  0
   -1.1858   -1.0674   25.7973 O   0  0  0  0  0  0  0  0  0  0  0  0
   -3.2007   -3.6022   27.2605 C   0  0  0  0  0  0  0  0  0  0  0  0
   -4.5470   -3.5503   26.7157 C   0  0  0  0  0  0  0  0  0  0  0  0
   -4.7331   -3.8310   25.3465 O   0  0  0  0  0  0  0  0  0  0  0  0
   -5.5328   -3.2699   27.3995 O   0  0  0  0  0  0  0  0  0  0  0  0
   -3.4655   -1.2440   25.5036 N   0  0  0  0  0  0  0  0  0  0  0  0
   -3.7806    0.1900   25.4696 C   0  0  2  0  0  0  0  0  0  0  0  0
   -4.8595    0.4087   26.4511 C   0  0  0  0  0  0  0  0  0  0  0  0
   -5.4569   -0.6206   26.9189 O   0  0  0  0  0  0  0  0  0  0  0  0
   -4.2571    0.6087   24.0834 C   0  0  0  0  0  0  0  0  0  0  0  0
   -4.8835   -0.5627   23.3961 C   0  0  0  0  0  0  0  0  0  0  0  0
   -5.5646   -0.2062   22.1382 C   0  0  0  0  0  0  0  0  0  0  0  0
   -6.1903   -1.0307   21.4133 O   0  0  0  0  0  0  0  0  0  0  0  0
   -5.5198    1.1635   21.6959 N   0  0  0  0  0  0  0  0  0  0  0  0
   -5.2718    1.7069   26.9016 N   0  0  0  0  0  0  0  0  0  0  0  0
   -6.2698    1.7408   27.9592 C   0  0  2  0  0  0  0  0  0  0  0  0
   -6.9261    3.0329   28.0805 C   0  0  0  0  0  0  0  0  0  0  0  0
   -6.3155    4.1259   27.8389 O   0  0  0  0  0  0  0  0  0  0  0  0
   -5.5623    1.3804   29.2708 C   0  0  0  0  0  0  0  0  0  0  0  0
   -5.0847   -0.0202   29.3423 C   0  0  0  0  0  0  0  0  0  0  0  0
   -5.5491   -0.8765   30.8441 S   0  0  0  0  0  0  0  0  0  0  0  0
   -4.8750   -0.0464   32.3071 C   0  0  0  0  0  0  0  0  0  0  0  0
   -8.3004    3.1215   28.4803 N   0  0  0  0  0  0  0  0  0  0  0  0
   -9.0034    4.3778   28.6979 C   0  0  2  0  0  0  0  0  0  0  0  0
   -8.6824    4.8729   30.0250 C   0  0  0  0  0  0  0  0  0  0  0  0
   -8.3675    3.9840   30.9269 O   0  0  0  0  0  0  0  0  0  0  0  0
  -10.5068    4.0641   28.5710 C   0  0  1  0  0  0  0  0  0  0  0  0
  -11.3921    5.1419   29.0700 C   0  0  0  0  0  0  0  0  0  0  0  0
  -10.8656    3.5121   27.2218 C   0  0  0  0  0  0  0  0  0  0  0  0
   -8.6521    6.1905   30.5110 N   0  0  0  0  0  0  0  0  0  0  0  0
   -8.0744    6.8018   31.6956 C   0  0  2  0  0  0  0  0  0  0  0  0
   -9.1831    7.3377   32.5584 C   0  0  0  0  0  0  0  0  0  0  0  0
   -8.9561    7.8496   33.7042 O   0  0  0  0  0  0  0  0  0  0  0  0
   -7.3692    8.0093   31.1298 C   0  0  0  0  0  0  0  0  0  0  0  0
   -8.4703    8.5555   30.2100 C   0  0  0  0  0  0  0  0  0  0  0  0
   -9.2480    7.3395   29.8024 C   0  0  0  0  0  0  0  0  0  0  0  0
  -10.5233    7.3043   32.1490 N   0  0  0  0  0  0  0  0  0  0  0  0
  -11.5872    7.9002   32.9907 C   0  0  2  0  0  0  0  0  0  0  0  0
  -11.5821    7.2844   34.3316 C   0  0  0  0  0  0  0  0  0  0  0  0
  -10.9279    7.9520   35.3675 O   0  0  0  0  0  0  0  0  0  0  0  0
  -12.9486    7.7173   32.3633 C   0  0  0  0  0  0  0  0  0  0  0  0
  -13.9596    8.3523   33.0487 O   0  0  0  0  0  0  0  0  0  0  0  0
  -12.1367    6.2021   34.5606 O   0  0  0  0  0  0  0  0  0  0  0  0
  2  1  1  1
  2  3  1  0
  2  5  1  0
  3  4  2  0
  3 10  1  0
  5  6  1  0
  6  7  1  0
  7  8  2  0
  7  9  1  0
 10 11  1  0
 11 12  1  0
 11 14  1  1
 12 13  2  0
 12 18  1  0
 14 15  1  0
 15 16  1  0
 15 17  2  0
 18 19  1  0
 19 20  1  0
 19 22  1  6
 20 21  2  0
 20 27  1  0
 22 23  1  0
 23 24  1  0
 24 25  2  0
 24 26  1  0
 27 28  1  0
 28 29  1  0
 28 31  1  1
 29 30  2  0
 29 35  1  0
 31 32  1  0
 32 33  1  0
 33 34  1  0
 36 35  1  1
 36 37  1  0
 36 39  1  0
 37 38  2  0
 37 42  1  0
 39 40  1  6
 39 41  1  0
 42 43  1  0
 42 48  1  0
 43 44  1  1
 43 46  1  0
 44 45  2  0
 44 49  1  0
 46 47  1  0
 47 48  1  0
 49 50  1  0
 50 51  1  0
 50 53  1  6
 51 52  1  0
 51 55  2  0
 53 54  1  0
M  CHG  1   1   1
M  END
$$$$
