
     RDKit          3D

 55 55  0  0  0  0  0  0  0  0999 V2000
    1.6155   -2.5529   24.9648 N   0  0  0  0  0  4  0  0  0  0  0  0
    0.8653   -3.1603   26.0816 C   0  0  2  0  0  0  0  0  0  0  0  0
   -0.5047   -3.4351   25.6075 C   0  0  0  0  0  0  0  0  0  0  0  0
   -0.7020   -4.5103   24.9445 O   0  0  0  0  0  0  0  0  0  0  0  0
    0.8289   -2.1265   27.2041 C   0  0  0  0  0  0  0  0  0  0  0  0
    2.0177   -2.2507   28.1047 C   0  0  0  0  0  0  0  0  0  0  0  0
    2.4092   -3.6645   28.2960 C   0  0  0  0  0  0  0  0  0  0  0  0
    3.5751   -4.0190   28.0174 O   0  0  0  0  0  0  0  0  0  0  0  0
    1.4627   -4.5546   28.7813 O   0  0  0  0  0  0  0  0  0  0  0  0
   -1.6271   -2.5697   25.8459 N   0  0  0  0  0  0  0  0  0  0  0  0
   -2.8886   -2.9171   25.1906 C   0  0  2  0  0  0  0  0  0  0  0  0
   -3.7884   -1.7363   25.2683 C   0  0  0  0  0  0  0  0  0  0  0  0
   -4.2209   -1.3587   26.4144 O   0  0  0  0  0  0  0  0  0  0  0  0
   -3.4390   -4.0786   26.0030 C   0  0  0  0  0  0  0  0  0  0  0  0
   -2.4350   -4.9845   26.5350 C   0  0  0  0  0  0  0  0  0  0  0  0
   -2.7899   -6.3308   26.7579 O   0  0  0  0  0  0  0  0  0  0  0  0
   -1.2867   -4.6256   26.8010 O   0  0  0  0  0  0  0  0  0  0  0  0
   -4.1744   -1.0169   24.1351 N   0  0  0  0  0  0  0  0  0  0  0  0
   -5.0702    0.1468   24.1195 C   0  0  2  0  0  0  0  0  0  0  0  0
   -5.6261    0.2700   25.4800 C   0  0  0  0  0  0  0  0  0  0  0  0
   -5.5623   -0.7530   26.2445 O   0  0  0  0  0  0  0  0  0  0  0  0
   -6.2034   -0.0534   23.1197 C   0  0  0  0  0  0  0  0  0  0  0  0
   -5.7831    0.4606   21.7795 C   0  0  0  0  0  0  0  0  0  0  0  0
   -4.8843   -0.4580   21.0573 C   0  0  0  0  0  0  0  0  0  0  0  0
   -4.4656   -0.2605   19.8815 O   0  0  0  0  0  0  0  0  0  0  0  0
   -4.4507   -1.6600   21.7214 N   0  0  0  0  0  0  0  0  0  0  0  0
   -6.2327    1.4684   25.9842 N   0  0  0  0  0  0  0  0  0  0  0  0
   -6.4144    1.5478   27.4252 C   0  0  2  0  0  0  0  0  0  0  0  0
   -6.9902    2.8116   27.8569 C   0  0  0  0  0  0  0  0  0  0  0  0
   -6.2776    3.7417   28.3596 O   0  0  0  0  0  0  0  0  0  0  0  0
   -5.0407    1.3420   28.0740 C   0  0  0  0  0  0  0  0  0  0  0  0
   -5.0545    1.3699   29.5552 C   0  0  0  0  0  0  0  0  0  0  0  0
   -3.8103    0.3340   30.3188 S   0  0  0  0  0  0  0  0  0  0  0  0
   -4.5542   -1.1363   31.0728 C   0  0  0  0  0  0  0  0  0  0  0  0
   -8.3974    3.0569   27.7289 N   0  0  0  0  0  0  0  0  0  0  0  0
   -9.1283    4.0287   28.5296 C   0  0  2  0  0  0  0  0  0  0  0  0
   -8.8243    3.8066   29.9323 C   0  0  0  0  0  0  0  0  0  0  0  0
   -8.5140    2.5889   30.2838 O   0  0  0  0  0  0  0  0  0  0  0  0
  -10.6239    3.7944   28.2418 C   0  0  1  0  0  0  0  0  0  0  0  0
  -11.5303    4.7008   28.9844 C   0  0  0  0  0  0  0  0  0  0  0  0
  -10.9115    3.6604   26.7745 C   0  0  0  0  0  0  0  0  0  0  0  0
   -8.8068    4.7145   31.0041 N   0  0  0  0  0  0  0  0  0  0  0  0
   -9.4247    6.0114   31.2205 C   0  0  2  0  0  0  0  0  0  0  0  0
   -8.3460    7.0522   31.3400 C   0  0  0  0  0  0  0  0  0  0  0  0
   -7.1102    6.7391   31.3746 O   0  0  0  0  0  0  0  0  0  0  0  0
  -10.0152    5.8662   32.6009 C   0  0  0  0  0  0  0  0  0  0  0  0
   -8.8233    5.2380   33.3369 C   0  0  0  0  0  0  0  0  0  0  0  0
   -8.0955    4.4704   32.2737 C   0  0  0  0  0  0  0  0  0  0  0  0
   -8.6413    8.4202   31.4181 N   0  0  0  0  0  0  0  0  0  0  0  0
   -8.1650    9.3584   30.3748 C   0  0  2  0  0  0  0  0  0  0  0  0
   -8.6370   10.7261   30.6642 C   0  0  0  0  0  0  0  0  0  0  0  0
   -9.5545   10.9079   31.6996 O   0  0  0  0  0  0  0  0  0  0  0  0
   -8.6467    8.9442   29.0047 C   0  0  0  0  0  0  0  0  0  0  0  0
   -8.2112    9.7726   27.9952 O   0  0  0  0  0  0  0  0  0  0  0  0
   -8.2455   11.7074   30.0198 O   0  0  0  0  0  0  0  0  0  0  0  0
  2  1  1  6
  2  3  1  0
  2  5  1  0
  3  4  2  0
  3 10  1  0
  5  6  1  0
  6  7  1  0
  7  8  2  0
  7  9  1  0
 10 11  1  0
 11 12  1  0
 11 14  1  1
 12 13  2  0
 12 18  1  0
 14 15  1  0
 15 16  1  0
 15 17  2  0
 18 19  1  0
 19 20  1  0
 19 22  1  6
 20 21  2  0
 20 27  1  0
 22 23  1  0
 23 24  1  0
 24 25  2  0
 24 26  1  0
 27 28  1  0
 28 29  1  0
 28 31  1  1
 29 30  2  0
 29 35  1  0
 31 32  1  0
 32 33  1  0
 33 34  1  0
 36 35  1  6
 36 37  1  0
 36 39  1  0
 37 38  2  0
 37 42  1  0
 39 40  1  6
 39 41  1  0
 42 43  1  0
 42 48  1  0
 43 44  1  1
 43 46  1  0
 44 45  2  0
 44 49  1  0
 46 47  1  0
 47 48  1  0
 49 50  1  0
 50 51  1  0
 50 53  1  6
 51 52  1  0
 51 55  2  0
 53 54  1  0
M  CHG  1   1   1
M  END
$$$$
