
     RDKit          3D

 55 55  0  0  0  0  0  0  0  0999 V2000
   -0.7912    3.6715   29.7473 N   0  0  0  0  0  4  0  0  0  0  0  0
   -0.4342    3.6339   28.3155 C   0  0  2  0  0  0  0  0  0  0  0  0
   -0.6720    2.2619   27.8275 C   0  0  0  0  0  0  0  0  0  0  0  0
   -0.2847    1.9744   26.6435 O   0  0  0  0  0  0  0  0  0  0  0  0
    1.0523    3.9683   28.2213 C   0  0  0  0  0  0  0  0  0  0  0  0
    1.9043    2.7729   28.5126 C   0  0  0  0  0  0  0  0  0  0  0  0
    3.0086    3.1054   29.4392 C   0  0  0  0  0  0  0  0  0  0  0  0
    2.7414    3.5943   30.5582 O   0  0  0  0  0  0  0  0  0  0  0  0
    4.3117    2.8614   29.0319 O   0  0  0  0  0  0  0  0  0  0  0  0
   -1.3103    1.2324   28.6010 N   0  0  0  0  0  0  0  0  0  0  0  0
   -1.8433    0.0822   27.8701 C   0  0  2  0  0  0  0  0  0  0  0  0
   -2.9282    0.5666   26.9766 C   0  0  0  0  0  0  0  0  0  0  0  0
   -3.3195    1.7831   27.0771 O   0  0  0  0  0  0  0  0  0  0  0  0
   -2.3927   -0.8395   28.9475 C   0  0  0  0  0  0  0  0  0  0  0  0
   -1.4161   -1.7354   29.5439 C   0  0  0  0  0  0  0  0  0  0  0  0
   -0.0813   -1.6764   29.0933 O   0  0  0  0  0  0  0  0  0  0  0  0
   -1.7055   -2.5457   30.4258 O   0  0  0  0  0  0  0  0  0  0  0  0
   -3.5329   -0.2563   26.0238 N   0  0  0  0  0  0  0  0  0  0  0  0
   -4.9772   -0.4697   25.8647 C   0  0  2  0  0  0  0  0  0  0  0  0
   -5.5323    0.7848   25.3229 C   0  0  0  0  0  0  0  0  0  0  0  0
   -6.1060    0.7383   24.1811 O   0  0  0  0  0  0  0  0  0  0  0  0
   -5.6313   -0.7817   27.2059 C   0  0  0  0  0  0  0  0  0  0  0  0
   -6.5608   -1.9429   27.0496 C   0  0  0  0  0  0  0  0  0  0  0  0
   -7.1953   -2.0084   25.7206 C   0  0  0  0  0  0  0  0  0  0  0  0
   -7.0408   -1.1374   24.8182 O   0  0  0  0  0  0  0  0  0  0  0  0
   -8.0485   -3.1290   25.4201 N   0  0  0  0  0  0  0  0  0  0  0  0
   -5.4588    2.0450   26.0048 N   0  0  0  0  0  0  0  0  0  0  0  0
   -6.7005    2.7936   26.1216 C   0  0  2  0  0  0  0  0  0  0  0  0
   -7.0808    3.0522   27.5013 C   0  0  0  0  0  0  0  0  0  0  0  0
   -7.4225    2.1144   28.2948 O   0  0  0  0  0  0  0  0  0  0  0  0
   -7.7935    1.9849   25.4131 C   0  0  0  0  0  0  0  0  0  0  0  0
   -9.1742    2.4319   25.7111 C   0  0  0  0  0  0  0  0  0  0  0  0
   -9.6978    3.8653   24.7754 S   0  0  0  0  0  0  0  0  0  0  0  0
  -10.8706    3.4050   23.4729 C   0  0  0  0  0  0  0  0  0  0  0  0
   -7.0833    4.3883   28.0221 N   0  0  0  0  0  0  0  0  0  0  0  0
   -7.1511    4.7066   29.4412 C   0  0  2  0  0  0  0  0  0  0  0  0
   -8.5454    4.7797   29.8409 C   0  0  0  0  0  0  0  0  0  0  0  0
   -9.4381    4.5972   28.9068 O   0  0  0  0  0  0  0  0  0  0  0  0
   -6.4510    6.0681   29.6169 C   0  0  1  0  0  0  0  0  0  0  0  0
   -6.4000    6.5437   31.0189 C   0  0  0  0  0  0  0  0  0  0  0  0
   -5.1542    6.1475   28.8649 C   0  0  0  0  0  0  0  0  0  0  0  0
   -9.1077    5.0195   31.1058 N   0  0  0  0  0  0  0  0  0  0  0  0
  -10.4583    5.3080   31.5565 C   0  0  2  0  0  0  0  0  0  0  0  0
  -10.4922    6.6924   32.1422 C   0  0  0  0  0  0  0  0  0  0  0  0
   -9.4844    7.4719   32.0849 O   0  0  0  0  0  0  0  0  0  0  0  0
  -10.6241    4.3619   32.7195 C   0  0  0  0  0  0  0  0  0  0  0  0
   -9.2972    4.6041   33.4527 C   0  0  0  0  0  0  0  0  0  0  0  0
   -8.3383    4.9861   32.3645 C   0  0  0  0  0  0  0  0  0  0  0  0
  -11.6326    7.1997   32.7802 N   0  0  0  0  0  0  0  0  0  0  0  0
  -11.8760    8.6597   32.8478 C   0  0  2  0  0  0  0  0  0  0  0  0
  -12.9971    8.9485   33.7628 C   0  0  0  0  0  0  0  0  0  0  0  0
  -12.7284    9.6333   34.9483 O   0  0  0  0  0  0  0  0  0  0  0  0
  -12.1876    9.2267   31.4832 C   0  0  0  0  0  0  0  0  0  0  0  0
  -12.2800   10.6000   31.4666 O   0  0  0  0  0  0  0  0  0  0  0  0
  -14.1582    8.6029   33.5102 O   0  0  0  0  0  0  0  0  0  0  0  0
  2  1  1  1
  2  3  1  0
  2  5  1  0
  3  4  2  0
  3 10  1  0
  5  6  1  0
  6  7  1  0
  7  8  2  0
  7  9  1  0
 10 11  1  0
 11 12  1  0
 11 14  1  1
 12 13  2  0
 12 18  1  0
 14 15  1  0
 15 16  1  0
 15 17  2  0
 18 19  1  0
 19 20  1  0
 19 22  1  1
 20 21  2  0
 20 27  1  0
 22 23  1  0
 23 24  1  0
 24 25  2  0
 24 26  1  0
 27 28  1  0
 28 29  1  0
 28 31  1  1
 29 30  2  0
 29 35  1  0
 31 32  1  0
 32 33  1  0
 33 34  1  0
 36 35  1  6
 36 37  1  0
 36 39  1  0
 37 38  2  0
 37 42  1  0
 39 40  1  1
 39 41  1  0
 42 43  1  0
 42 48  1  0
 43 44  1  1
 43 46  1  0
 44 45  2  0
 44 49  1  0
 46 47  1  0
 47 48  1  0
 49 50  1  0
 50 51  1  0
 50 53  1  6
 51 52  1  0
 51 55  2  0
 53 54  1  0
M  CHG  1   1   1
M  END
$$$$
