
     RDKit          3D

 55 55  0  0  0  0  0  0  0  0999 V2000
    0.9422   -0.9012   29.3286 N   0  0  0  0  0  4  0  0  0  0  0  0
    0.1853   -2.1520   29.1237 C   0  0  2  0  0  0  0  0  0  0  0  0
   -0.5877   -2.0116   27.8748 C   0  0  0  0  0  0  0  0  0  0  0  0
   -0.1887   -1.1484   27.0202 O   0  0  0  0  0  0  0  0  0  0  0  0
   -0.7652   -2.2930   30.3099 C   0  0  0  0  0  0  0  0  0  0  0  0
   -0.0439   -2.7409   31.5423 C   0  0  0  0  0  0  0  0  0  0  0  0
   -0.9732   -2.9286   32.6779 C   0  0  0  0  0  0  0  0  0  0  0  0
   -0.9732   -4.0160   33.2945 O   0  0  0  0  0  0  0  0  0  0  0  0
   -1.8185   -1.8844   33.0223 O   0  0  0  0  0  0  0  0  0  0  0  0
   -1.7582   -2.7846   27.5621 N   0  0  0  0  0  0  0  0  0  0  0  0
   -2.4013   -2.5298   26.2725 C   0  0  2  0  0  0  0  0  0  0  0  0
   -3.2146   -1.2920   26.3999 C   0  0  0  0  0  0  0  0  0  0  0  0
   -3.6017   -0.9196   27.5638 O   0  0  0  0  0  0  0  0  0  0  0  0
   -3.2859   -3.7436   26.0354 C   0  0  0  0  0  0  0  0  0  0  0  0
   -2.6386   -4.8490   25.3491 C   0  0  0  0  0  0  0  0  0  0  0  0
   -3.3895   -6.0128   25.0845 O   0  0  0  0  0  0  0  0  0  0  0  0
   -1.4606   -4.8129   24.9898 O   0  0  0  0  0  0  0  0  0  0  0  0
   -3.5667   -0.5139   25.2948 N   0  0  0  0  0  0  0  0  0  0  0  0
   -4.4232    0.6788   25.3211 C   0  0  2  0  0  0  0  0  0  0  0  0
   -5.7624    0.2278   25.7435 C   0  0  0  0  0  0  0  0  0  0  0  0
   -6.4770   -0.3993   24.8884 O   0  0  0  0  0  0  0  0  0  0  0  0
   -4.5100    1.3158   23.9388 C   0  0  0  0  0  0  0  0  0  0  0  0
   -5.5179    2.4207   23.9609 C   0  0  0  0  0  0  0  0  0  0  0  0
   -5.4429    3.3033   22.7825 C   0  0  0  0  0  0  0  0  0  0  0  0
   -5.2896    2.8915   21.5977 O   0  0  0  0  0  0  0  0  0  0  0  0
   -5.5476    4.7258   22.9807 N   0  0  0  0  0  0  0  0  0  0  0  0
   -6.3010    0.4580   27.0532 N   0  0  0  0  0  0  0  0  0  0  0  0
   -7.4873    1.2962   27.1295 C   0  0  2  0  0  0  0  0  0  0  0  0
   -7.3257    2.4299   28.0260 C   0  0  0  0  0  0  0  0  0  0  0  0
   -6.6212    2.3574   29.0862 O   0  0  0  0  0  0  0  0  0  0  0  0
   -8.6471    0.4102   27.5991 C   0  0  0  0  0  0  0  0  0  0  0  0
   -8.9246   -0.7494   26.7198 C   0  0  0  0  0  0  0  0  0  0  0  0
  -10.5571   -1.4532   26.9292 S   0  0  0  0  0  0  0  0  0  0  0  0
  -11.8475   -0.2495   26.5173 C   0  0  0  0  0  0  0  0  0  0  0  0
   -7.9613    3.6839   27.7428 N   0  0  0  0  0  0  0  0  0  0  0  0
   -7.8219    4.8709   28.5742 C   0  0  2  0  0  0  0  0  0  0  0  0
   -8.5432    4.6621   29.8173 C   0  0  0  0  0  0  0  0  0  0  0  0
   -9.6180    3.9244   29.7599 O   0  0  0  0  0  0  0  0  0  0  0  0
   -8.4260    6.0392   27.7713 C   0  0  1  0  0  0  0  0  0  0  0  0
   -8.5793    7.2904   28.5494 C   0  0  0  0  0  0  0  0  0  0  0  0
   -7.7889    6.1973   26.4211 C   0  0  0  0  0  0  0  0  0  0  0  0
   -8.2646    5.1361   31.1100 N   0  0  0  0  0  0  0  0  0  0  0  0
   -8.2145    6.4655   31.6937 C   0  0  2  0  0  0  0  0  0  0  0  0
   -6.8045    6.7551   32.1283 C   0  0  0  0  0  0  0  0  0  0  0  0
   -5.9025    5.8536   32.1294 O   0  0  0  0  0  0  0  0  0  0  0  0
   -9.0126    6.2961   32.9625 C   0  0  0  0  0  0  0  0  0  0  0  0
   -8.3981    4.9931   33.4929 C   0  0  0  0  0  0  0  0  0  0  0  0
   -7.9668    4.2587   32.2584 C   0  0  0  0  0  0  0  0  0  0  0  0
   -6.4069    8.0303   32.5533 N   0  0  0  0  0  0  0  0  0  0  0  0
   -6.3301    9.1579   31.5952 C   0  0  2  0  0  0  0  0  0  0  0  0
   -5.9050   10.3890   32.2887 C   0  0  0  0  0  0  0  0  0  0  0  0
   -5.3894   11.4376   31.5263 O   0  0  0  0  0  0  0  0  0  0  0  0
   -7.6616    9.3982   30.9244 C   0  0  0  0  0  0  0  0  0  0  0  0
   -7.6190   10.3696   29.9500 O   0  0  0  0  0  0  0  0  0  0  0  0
   -5.9920   10.5159   33.5166 O   0  0  0  0  0  0  0  0  0  0  0  0
  2  1  1  1
  2  3  1  0
  2  5  1  0
  3  4  2  0
  3 10  1  0
  5  6  1  0
  6  7  1  0
  7  8  2  0
  7  9  1  0
 10 11  1  0
 11 12  1  0
 11 14  1  1
 12 13  2  0
 12 18  1  0
 14 15  1  0
 15 16  1  0
 15 17  2  0
 18 19  1  0
 19 20  1  0
 19 22  1  6
 20 21  2  0
 20 27  1  0
 22 23  1  0
 23 24  1  0
 24 25  2  0
 24 26  1  0
 27 28  1  0
 28 29  1  0
 28 31  1  1
 29 30  2  0
 29 35  1  0
 31 32  1  0
 32 33  1  0
 33 34  1  0
 36 35  1  6
 36 37  1  0
 36 39  1  0
 37 38  2  0
 37 42  1  0
 39 40  1  1
 39 41  1  0
 42 43  1  0
 42 48  1  0
 43 44  1  1
 43 46  1  0
 44 45  2  0
 44 49  1  0
 46 47  1  0
 47 48  1  0
 49 50  1  0
 50 51  1  0
 50 53  1  1
 51 52  1  0
 51 55  2  0
 53 54  1  0
M  CHG  1   1   1
M  END
$$$$
