
     RDKit          3D

 55 55  0  0  0  0  0  0  0  0999 V2000
    1.4467   -6.7420   28.1643 N   0  0  0  0  0  4  0  0  0  0  0  0
    1.1612   -5.4160   27.5818 C   0  0  2  0  0  0  0  0  0  0  0  0
   -0.2829   -5.3556   27.2849 C   0  0  0  0  0  0  0  0  0  0  0  0
   -0.8358   -6.4005   26.7981 O   0  0  0  0  0  0  0  0  0  0  0  0
    1.9623   -5.3204   26.2859 C   0  0  0  0  0  0  0  0  0  0  0  0
    3.4189   -5.1062   26.5545 C   0  0  0  0  0  0  0  0  0  0  0  0
    4.2298   -5.2886   25.3306 C   0  0  0  0  0  0  0  0  0  0  0  0
    5.4365   -4.9624   25.3425 O   0  0  0  0  0  0  0  0  0  0  0  0
    3.6193   -5.8190   24.2039 O   0  0  0  0  0  0  0  0  0  0  0  0
   -1.1026   -4.1968   27.5099 N   0  0  0  0  0  0  0  0  0  0  0  0
   -2.5344   -4.3293   27.2384 C   0  0  2  0  0  0  0  0  0  0  0  0
   -3.1451   -2.9762   27.3159 C   0  0  0  0  0  0  0  0  0  0  0  0
   -3.0292   -2.3032   28.4007 O   0  0  0  0  0  0  0  0  0  0  0  0
   -3.0564   -5.2294   28.3471 C   0  0  0  0  0  0  0  0  0  0  0  0
   -4.4981   -5.4118   28.3608 C   0  0  0  0  0  0  0  0  0  0  0  0
   -5.0789   -6.1249   29.4295 O   0  0  0  0  0  0  0  0  0  0  0  0
   -5.2346   -4.9706   27.4770 O   0  0  0  0  0  0  0  0  0  0  0  0
   -3.8361   -2.4072   26.2438 N   0  0  0  0  0  0  0  0  0  0  0  0
   -3.7542   -1.0048   25.8155 C   0  0  2  0  0  0  0  0  0  0  0  0
   -5.0895   -0.4178   26.0341 C   0  0  0  0  0  0  0  0  0  0  0  0
   -5.2527    0.8164   25.7424 O   0  0  0  0  0  0  0  0  0  0  0  0
   -3.3882   -0.9083   24.3388 C   0  0  0  0  0  0  0  0  0  0  0  0
   -1.9086   -1.0589   24.1807 C   0  0  0  0  0  0  0  0  0  0  0  0
   -1.2282    0.1993   23.8238 C   0  0  0  0  0  0  0  0  0  0  0  0
   -0.8064    0.4724   22.6644 O   0  0  0  0  0  0  0  0  0  0  0  0
   -1.0236    1.1864   24.8524 N   0  0  0  0  0  0  0  0  0  0  0  0
   -6.2046   -1.1543   26.5562 N   0  0  0  0  0  0  0  0  0  0  0  0
   -7.1895   -0.3941   27.3097 C   0  0  2  0  0  0  0  0  0  0  0  0
   -7.3801    0.9539   26.7982 C   0  0  0  0  0  0  0  0  0  0  0  0
   -7.0650    1.2743   25.6051 O   0  0  0  0  0  0  0  0  0  0  0  0
   -6.7165   -0.3460   28.7673 C   0  0  0  0  0  0  0  0  0  0  0  0
   -5.7966    0.7741   29.0742 C   0  0  0  0  0  0  0  0  0  0  0  0
   -5.2287    0.8113   30.7714 S   0  0  0  0  0  0  0  0  0  0  0  0
   -3.8025   -0.2810   31.0093 C   0  0  0  0  0  0  0  0  0  0  0  0
   -7.9372    1.9808   27.6299 N   0  0  0  0  0  0  0  0  0  0  0  0
   -8.6818    3.1235   27.1204 C   0  0  2  0  0  0  0  0  0  0  0  0
   -9.0753    3.9645   28.2372 C   0  0  0  0  0  0  0  0  0  0  0  0
   -9.8725    3.4344   29.1238 O   0  0  0  0  0  0  0  0  0  0  0  0
   -9.9149    2.5520   26.3942 C   0  0  1  0  0  0  0  0  0  0  0  0
  -10.9261    3.5713   26.0291 C   0  0  0  0  0  0  0  0  0  0  0  0
   -9.5431    1.5957   25.2984 C   0  0  0  0  0  0  0  0  0  0  0  0
   -8.7266    5.2936   28.5295 N   0  0  0  0  0  0  0  0  0  0  0  0
   -8.4460    6.0000   29.7676 C   0  0  2  0  0  0  0  0  0  0  0  0
   -9.4998    7.0515   29.9793 C   0  0  0  0  0  0  0  0  0  0  0  0
  -10.2219    7.4827   29.0206 O   0  0  0  0  0  0  0  0  0  0  0  0
   -7.1768    6.7458   29.4383 C   0  0  0  0  0  0  0  0  0  0  0  0
   -7.5556    7.3265   28.0686 C   0  0  0  0  0  0  0  0  0  0  0  0
   -8.5264    6.3335   27.5020 C   0  0  0  0  0  0  0  0  0  0  0  0
   -9.7451    7.6116   31.2406 N   0  0  0  0  0  0  0  0  0  0  0  0
  -10.5149    6.8657   32.2636 C   0  0  2  0  0  0  0  0  0  0  0  0
  -10.7174    7.7033   33.4614 C   0  0  0  0  0  0  0  0  0  0  0  0
  -11.6473    7.2869   34.4146 O   0  0  0  0  0  0  0  0  0  0  0  0
   -9.8077    5.5916   32.6600 C   0  0  0  0  0  0  0  0  0  0  0  0
  -10.4141    4.9276   33.7023 O   0  0  0  0  0  0  0  0  0  0  0  0
  -10.0913    8.7553   33.6420 O   0  0  0  0  0  0  0  0  0  0  0  0
  2  1  1  6
  2  3  1  0
  2  5  1  0
  3  4  2  0
  3 10  1  0
  5  6  1  0
  6  7  1  0
  7  8  2  0
  7  9  1  0
 10 11  1  0
 11 12  1  0
 11 14  1  1
 12 13  2  0
 12 18  1  0
 14 15  1  0
 15 16  1  0
 15 17  2  0
 18 19  1  0
 19 20  1  0
 19 22  1  6
 20 21  2  0
 20 27  1  0
 22 23  1  0
 23 24  1  0
 24 25  2  0
 24 26  1  0
 27 28  1  0
 28 29  1  0
 28 31  1  1
 29 30  2  0
 29 35  1  0
 31 32  1  0
 32 33  1  0
 33 34  1  0
 36 35  1  1
 36 37  1  0
 36 39  1  0
 37 38  2  0
 37 42  1  0
 39 40  1  6
 39 41  1  0
 42 43  1  0
 42 48  1  0
 43 44  1  6
 43 46  1  0
 44 45  2  0
 44 49  1  0
 46 47  1  0
 47 48  1  0
 49 50  1  0
 50 51  1  0
 50 53  1  1
 51 52  1  0
 51 55  2  0
 53 54  1  0
M  CHG  1   1   1
M  END
$$$$
