
     RDKit          3D

 55 55  0  0  0  0  0  0  0  0999 V2000
    2.5802   -1.9884   26.6163 N   0  0  0  0  0  4  0  0  0  0  0  0
    2.0937   -2.6915   25.4130 C   0  0  2  0  0  0  0  0  0  0  0  0
    0.7681   -2.1395   25.0735 C   0  0  0  0  0  0  0  0  0  0  0  0
    0.7185   -0.9480   24.6128 O   0  0  0  0  0  0  0  0  0  0  0  0
    1.9624   -4.1662   25.7853 C   0  0  0  0  0  0  0  0  0  0  0  0
    2.3207   -5.0570   24.6374 C   0  0  0  0  0  0  0  0  0  0  0  0
    3.1127   -6.2247   25.0823 C   0  0  0  0  0  0  0  0  0  0  0  0
    4.3581   -6.1328   25.1391 O   0  0  0  0  0  0  0  0  0  0  0  0
    2.4418   -7.3896   25.4235 O   0  0  0  0  0  0  0  0  0  0  0  0
   -0.4665   -2.8586   25.2288 N   0  0  0  0  0  0  0  0  0  0  0  0
   -1.6932   -2.1748   24.8178 C   0  0  2  0  0  0  0  0  0  0  0  0
   -2.2587   -1.4878   26.0087 C   0  0  0  0  0  0  0  0  0  0  0  0
   -3.5122   -1.2210   26.0355 O   0  0  0  0  0  0  0  0  0  0  0  0
   -2.6136   -3.2865   24.3393 C   0  0  0  0  0  0  0  0  0  0  0  0
   -2.8440   -3.3166   22.9047 C   0  0  0  0  0  0  0  0  0  0  0  0
   -2.2693   -2.3060   22.1068 O   0  0  0  0  0  0  0  0  0  0  0  0
   -3.5215   -4.1873   22.3561 O   0  0  0  0  0  0  0  0  0  0  0  0
   -1.4725   -1.1283   27.1056 N   0  0  0  0  0  0  0  0  0  0  0  0
   -1.7115    0.0141   27.9971 C   0  0  2  0  0  0  0  0  0  0  0  0
   -3.0364    0.5566   27.6423 C   0  0  0  0  0  0  0  0  0  0  0  0
   -3.3178    0.6771   26.4008 O   0  0  0  0  0  0  0  0  0  0  0  0
   -0.6487    1.0890   27.7994 C   0  0  0  0  0  0  0  0  0  0  0  0
    0.0170    1.3788   29.1070 C   0  0  0  0  0  0  0  0  0  0  0  0
    1.2010    0.5373   29.3588 C   0  0  0  0  0  0  0  0  0  0  0  0
    1.9157    0.6131   30.3982 O   0  0  0  0  0  0  0  0  0  0  0  0
    1.5783   -0.4343   28.3651 N   0  0  0  0  0  0  0  0  0  0  0  0
   -4.0162    0.9557   28.6113 N   0  0  0  0  0  0  0  0  0  0  0  0
   -4.8598    2.0856   28.2546 C   0  0  2  0  0  0  0  0  0  0  0  0
   -5.6425    1.8531   27.0511 C   0  0  0  0  0  0  0  0  0  0  0  0
   -5.1102    1.8325   25.8927 O   0  0  0  0  0  0  0  0  0  0  0  0
   -3.9448    3.3011   28.0652 C   0  0  0  0  0  0  0  0  0  0  0  0
   -3.3814    3.8434   29.3235 C   0  0  0  0  0  0  0  0  0  0  0  0
   -4.4717    4.9689   30.1888 S   0  0  0  0  0  0  0  0  0  0  0  0
   -4.8162    4.3855   31.8695 C   0  0  0  0  0  0  0  0  0  0  0  0
   -7.0579    1.6356   27.1286 N   0  0  0  0  0  0  0  0  0  0  0  0
   -8.0465    2.7039   27.0968 C   0  0  2  0  0  0  0  0  0  0  0  0
   -8.0904    3.3433   28.4001 C   0  0  0  0  0  0  0  0  0  0  0  0
   -7.4521    2.7499   29.3711 O   0  0  0  0  0  0  0  0  0  0  0  0
   -9.3954    2.0401   26.7584 C   0  0  1  0  0  0  0  0  0  0  0  0
   -9.7039    0.8473   27.5809 C   0  0  0  0  0  0  0  0  0  0  0  0
  -10.5099    3.0378   26.6318 C   0  0  0  0  0  0  0  0  0  0  0  0
   -8.7242    4.5321   28.7984 N   0  0  0  0  0  0  0  0  0  0  0  0
   -8.2895    5.6799   29.5757 C   0  0  2  0  0  0  0  0  0  0  0  0
   -9.0951    5.7442   30.8437 C   0  0  0  0  0  0  0  0  0  0  0  0
   -9.1446    6.8006   31.5563 O   0  0  0  0  0  0  0  0  0  0  0  0
   -8.7524    6.8411   28.7314 C   0  0  0  0  0  0  0  0  0  0  0  0
  -10.1836    6.3862   28.4127 C   0  0  0  0  0  0  0  0  0  0  0  0
  -10.1068    4.8884   28.4262 C   0  0  0  0  0  0  0  0  0  0  0  0
   -9.8349    4.6479   31.3082 N   0  0  0  0  0  0  0  0  0  0  0  0
  -11.3140    4.6405   31.2197 C   0  0  2  0  0  0  0  0  0  0  0  0
  -11.8984    5.3384   32.3811 C   0  0  0  0  0  0  0  0  0  0  0  0
  -11.0706    6.1557   33.1514 O   0  0  0  0  0  0  0  0  0  0  0  0
  -11.8521    3.2306   31.1629 C   0  0  0  0  0  0  0  0  0  0  0  0
  -10.9096    2.2967   30.7959 O   0  0  0  0  0  0  0  0  0  0  0  0
  -13.0913    5.2196   32.6881 O   0  0  0  0  0  0  0  0  0  0  0  0
  2  1  1  1
  2  3  1  0
  2  5  1  0
  3  4  2  0
  3 10  1  0
  5  6  1  0
  6  7  1  0
  7  8  2  0
  7  9  1  0
 10 11  1  0
 11 12  1  0
 11 14  1  1
 12 13  2  0
 12 18  1  0
 14 15  1  0
 15 16  1  0
 15 17  2  0
 18 19  1  0
 19 20  1  0
 19 22  1  6
 20 21  2  0
 20 27  1  0
 22 23  1  0
 23 24  1  0
 24 25  2  0
 24 26  1  0
 27 28  1  0
 28 29  1  0
 28 31  1  6
 29 30  2  0
 29 35  1  0
 31 32  1  0
 32 33  1  0
 33 34  1  0
 36 35  1  1
 36 37  1  0
 36 39  1  0
 37 38  2  0
 37 42  1  0
 39 40  1  1
 39 41  1  0
 42 43  1  0
 42 48  1  0
 43 44  1  1
 43 46  1  0
 44 45  2  0
 44 49  1  0
 46 47  1  0
 47 48  1  0
 49 50  1  0
 50 51  1  0
 50 53  1  1
 51 52  1  0
 51 55  2  0
 53 54  1  0
M  CHG  1   1   1
M  END
$$$$
