
     RDKit          3D

 55 55  0  0  0  0  0  0  0  0999 V2000
    0.7500   -3.6192   22.8128 N   0  0  0  0  0  4  0  0  0  0  0  0
    0.2368   -4.3793   23.9696 C   0  0  2  0  0  0  0  0  0  0  0  0
   -0.3718   -3.4164   24.9074 C   0  0  0  0  0  0  0  0  0  0  0  0
    0.2112   -2.2899   25.0675 O   0  0  0  0  0  0  0  0  0  0  0  0
    1.4398   -5.0531   24.6249 C   0  0  0  0  0  0  0  0  0  0  0  0
    1.0324   -5.8783   25.8050 C   0  0  0  0  0  0  0  0  0  0  0  0
    2.1603   -6.6862   26.3186 C   0  0  0  0  0  0  0  0  0  0  0  0
    1.9361   -7.8277   26.7763 O   0  0  0  0  0  0  0  0  0  0  0  0
    3.4369   -6.1459   26.2743 O   0  0  0  0  0  0  0  0  0  0  0  0
   -1.5769   -3.6678   25.6489 N   0  0  0  0  0  0  0  0  0  0  0  0
   -2.0874   -2.5784   26.4820 C   0  0  2  0  0  0  0  0  0  0  0  0
   -2.3729   -1.4176   25.5983 C   0  0  0  0  0  0  0  0  0  0  0  0
   -1.7214   -1.2967   24.5010 O   0  0  0  0  0  0  0  0  0  0  0  0
   -0.9542   -2.2658   27.4465 C   0  0  0  0  0  0  0  0  0  0  0  0
   -1.2133   -1.1661   28.3605 C   0  0  0  0  0  0  0  0  0  0  0  0
   -0.2035   -0.7919   29.2708 O   0  0  0  0  0  0  0  0  0  0  0  0
   -2.2787   -0.5475   28.3747 O   0  0  0  0  0  0  0  0  0  0  0  0
   -3.3337   -0.4556   25.9178 N   0  0  0  0  0  0  0  0  0  0  0  0
   -4.4680   -0.0598   25.0729 C   0  0  2  0  0  0  0  0  0  0  0  0
   -5.5974    0.2110   25.9820 C   0  0  0  0  0  0  0  0  0  0  0  0
   -6.4504   -0.7235   26.1670 O   0  0  0  0  0  0  0  0  0  0  0  0
   -4.8438   -1.1793   24.1089 C   0  0  0  0  0  0  0  0  0  0  0  0
   -5.3581   -0.5889   22.8346 C   0  0  0  0  0  0  0  0  0  0  0  0
   -6.7652   -0.9310   22.5584 C   0  0  0  0  0  0  0  0  0  0  0  0
   -7.3568   -1.9385   23.0399 O   0  0  0  0  0  0  0  0  0  0  0  0
   -7.5233   -0.0727   21.6852 N   0  0  0  0  0  0  0  0  0  0  0  0
   -5.7879    1.4603   26.6611 N   0  0  0  0  0  0  0  0  0  0  0  0
   -6.8635    1.5106   27.6390 C   0  0  2  0  0  0  0  0  0  0  0  0
   -7.1892    2.8650   28.0568 C   0  0  0  0  0  0  0  0  0  0  0  0
   -6.2975    3.7691   28.1721 O   0  0  0  0  0  0  0  0  0  0  0  0
   -6.4263    0.6739   28.8470 C   0  0  0  0  0  0  0  0  0  0  0  0
   -6.7315   -0.7713   28.7317 C   0  0  0  0  0  0  0  0  0  0  0  0
   -6.3309   -1.7233   30.1936 S   0  0  0  0  0  0  0  0  0  0  0  0
   -5.0530   -0.9014   31.1812 C   0  0  0  0  0  0  0  0  0  0  0  0
   -8.5424    3.2336   28.3562 N   0  0  0  0  0  0  0  0  0  0  0  0
   -8.9864    4.6068   28.5482 C   0  0  2  0  0  0  0  0  0  0  0  0
   -8.8545    4.9519   29.9528 C   0  0  0  0  0  0  0  0  0  0  0  0
   -9.2390    4.0559   30.8199 O   0  0  0  0  0  0  0  0  0  0  0  0
  -10.4601    4.6553   28.1006 C   0  0  1  0  0  0  0  0  0  0  0  0
  -11.1950    5.8516   28.5733 C   0  0  0  0  0  0  0  0  0  0  0  0
  -10.6281    4.3332   26.6440 C   0  0  0  0  0  0  0  0  0  0  0  0
   -8.3644    6.1258   30.5488 N   0  0  0  0  0  0  0  0  0  0  0  0
   -7.7465    6.4071   31.8332 C   0  0  2  0  0  0  0  0  0  0  0  0
   -8.6502    7.3143   32.6214 C   0  0  0  0  0  0  0  0  0  0  0  0
   -9.8483    7.5532   32.2559 O   0  0  0  0  0  0  0  0  0  0  0  0
   -6.5537    7.2452   31.4458 C   0  0  0  0  0  0  0  0  0  0  0  0
   -7.2204    8.2237   30.4685 C   0  0  0  0  0  0  0  0  0  0  0  0
   -8.3590    7.4426   29.8830 C   0  0  0  0  0  0  0  0  0  0  0  0
   -8.2244    7.9434   33.7995 N   0  0  0  0  0  0  0  0  0  0  0  0
   -9.2031    8.3642   34.8293 C   0  0  2  0  0  0  0  0  0  0  0  0
   -8.5117    9.0373   35.9458 C   0  0  0  0  0  0  0  0  0  0  0  0
   -9.2196    9.9756   36.6975 O   0  0  0  0  0  0  0  0  0  0  0  0
   -9.9786    7.1833   35.3627 C   0  0  0  0  0  0  0  0  0  0  0  0
  -10.7538    6.5596   34.4114 O   0  0  0  0  0  0  0  0  0  0  0  0
   -7.3321    8.7949   36.2309 O   0  0  0  0  0  0  0  0  0  0  0  0
  2  1  1  6
  2  3  1  0
  2  5  1  0
  3  4  2  0
  3 10  1  0
  5  6  1  0
  6  7  1  0
  7  8  2  0
  7  9  1  0
 10 11  1  0
 11 12  1  0
 11 14  1  1
 12 13  2  0
 12 18  1  0
 14 15  1  0
 15 16  1  0
 15 17  2  0
 18 19  1  0
 19 20  1  0
 19 22  1  6
 20 21  2  0
 20 27  1  0
 22 23  1  0
 23 24  1  0
 24 25  2  0
 24 26  1  0
 27 28  1  0
 28 29  1  0
 28 31  1  1
 29 30  2  0
 29 35  1  0
 31 32  1  0
 32 33  1  0
 33 34  1  0
 36 35  1  1
 36 37  1  0
 36 39  1  0
 37 38  2  0
 37 42  1  0
 39 40  1  6
 39 41  1  0
 42 43  1  0
 42 48  1  0
 43 44  1  1
 43 46  1  0
 44 45  2  0
 44 49  1  0
 46 47  1  0
 47 48  1  0
 49 50  1  0
 50 51  1  0
 50 53  1  1
 51 52  1  0
 51 55  2  0
 53 54  1  0
M  CHG  1   1   1
M  END
$$$$
