
     RDKit          3D

 55 55  0  0  0  0  0  0  0  0999 V2000
   -0.5321   -4.0738   27.5383 N   0  0  0  0  0  4  0  0  0  0  0  0
   -0.7982   -2.9566   26.6109 C   0  0  2  0  0  0  0  0  0  0  0  0
   -2.2613   -2.7968   26.5058 C   0  0  0  0  0  0  0  0  0  0  0  0
   -2.9651   -3.8497   26.3311 O   0  0  0  0  0  0  0  0  0  0  0  0
   -0.2210   -3.3592   25.2563 C   0  0  0  0  0  0  0  0  0  0  0  0
    1.2713   -3.4628   25.3033 C   0  0  0  0  0  0  0  0  0  0  0  0
    1.8337   -3.8131   23.9806 C   0  0  0  0  0  0  0  0  0  0  0  0
    2.8544   -3.2175   23.5731 O   0  0  0  0  0  0  0  0  0  0  0  0
    1.2048   -4.7972   23.2325 O   0  0  0  0  0  0  0  0  0  0  0  0
   -2.9404   -1.5330   26.5883 N   0  0  0  0  0  0  0  0  0  0  0  0
   -4.3858   -1.5656   26.8144 C   0  0  2  0  0  0  0  0  0  0  0  0
   -4.8950   -0.1708   26.7414 C   0  0  0  0  0  0  0  0  0  0  0  0
   -5.2296    0.4262   27.8253 O   0  0  0  0  0  0  0  0  0  0  0  0
   -4.5450   -2.1334   28.2159 C   0  0  0  0  0  0  0  0  0  0  0  0
   -5.4497   -1.3919   29.0783 C   0  0  0  0  0  0  0  0  0  0  0  0
   -5.6996   -1.8825   30.3764 O   0  0  0  0  0  0  0  0  0  0  0  0
   -6.0087   -0.3531   28.7227 O   0  0  0  0  0  0  0  0  0  0  0  0
   -5.0152    0.5170   25.5318 N   0  0  0  0  0  0  0  0  0  0  0  0
   -6.2121    0.5582   24.6816 C   0  0  2  0  0  0  0  0  0  0  0  0
   -7.2008    1.3968   25.3848 C   0  0  0  0  0  0  0  0  0  0  0  0
   -8.4329    1.0661   25.2962 O   0  0  0  0  0  0  0  0  0  0  0  0
   -6.7812   -0.8411   24.4766 C   0  0  0  0  0  0  0  0  0  0  0  0
   -6.1298   -1.4757   23.2892 C   0  0  0  0  0  0  0  0  0  0  0  0
   -5.7657   -0.5095   22.2369 C   0  0  0  0  0  0  0  0  0  0  0  0
   -4.6988    0.1676   22.2355 O   0  0  0  0  0  0  0  0  0  0  0  0
   -6.6753   -0.3144   21.1376 N   0  0  0  0  0  0  0  0  0  0  0  0
   -6.8539    2.5570   26.1541 N   0  0  0  0  0  0  0  0  0  0  0  0
   -7.6921    2.8464   27.3071 C   0  0  2  0  0  0  0  0  0  0  0  0
   -7.2507    4.0148   28.0521 C   0  0  0  0  0  0  0  0  0  0  0  0
   -6.4022    3.9304   29.0000 O   0  0  0  0  0  0  0  0  0  0  0  0
   -7.6781    1.6064   28.2087 C   0  0  0  0  0  0  0  0  0  0  0  0
   -8.8707    1.4690   29.0768 C   0  0  0  0  0  0  0  0  0  0  0  0
  -10.2539    2.4951   28.5888 S   0  0  0  0  0  0  0  0  0  0  0  0
  -11.5733    1.5039   27.8402 C   0  0  0  0  0  0  0  0  0  0  0  0
   -7.7614    5.3181   27.7402 N   0  0  0  0  0  0  0  0  0  0  0  0
   -7.5343    6.4974   28.5632 C   0  0  2  0  0  0  0  0  0  0  0  0
   -7.5597    6.1072   29.9619 C   0  0  0  0  0  0  0  0  0  0  0  0
   -8.4000    5.1673   30.2978 O   0  0  0  0  0  0  0  0  0  0  0  0
   -8.6758    7.4810   28.2403 C   0  0  1  0  0  0  0  0  0  0  0  0
   -9.8722    7.3194   29.0989 C   0  0  0  0  0  0  0  0  0  0  0  0
   -8.1887    8.8916   28.0776 C   0  0  0  0  0  0  0  0  0  0  0  0
   -6.8043    6.5882   31.0442 N   0  0  0  0  0  0  0  0  0  0  0  0
   -6.0473    5.9352   32.0983 C   0  0  2  0  0  0  0  0  0  0  0  0
   -6.6921    6.2389   33.4223 C   0  0  0  0  0  0  0  0  0  0  0  0
   -6.2275    5.7799   34.5177 O   0  0  0  0  0  0  0  0  0  0  0  0
   -4.7457    6.6975   32.0868 C   0  0  0  0  0  0  0  0  0  0  0  0
   -5.2790    8.1364   32.0407 C   0  0  0  0  0  0  0  0  0  0  0  0
   -6.5903    8.0216   31.3218 C   0  0  0  0  0  0  0  0  0  0  0  0
   -7.8359    7.0429   33.5226 N   0  0  0  0  0  0  0  0  0  0  0  0
   -9.1734    6.4359   33.7181 C   0  0  2  0  0  0  0  0  0  0  0  0
  -10.1939    7.4897   33.8778 C   0  0  0  0  0  0  0  0  0  0  0  0
   -9.7866    8.8231   33.8261 O   0  0  0  0  0  0  0  0  0  0  0  0
   -9.1939    5.5344   34.9295 C   0  0  0  0  0  0  0  0  0  0  0  0
  -10.4102    4.9255   35.1412 O   0  0  0  0  0  0  0  0  0  0  0  0
  -11.3899    7.2258   34.0549 O   0  0  0  0  0  0  0  0  0  0  0  0
  2  1  1  1
  2  3  1  0
  2  5  1  0
  3  4  2  0
  3 10  1  0
  5  6  1  0
  6  7  1  0
  7  8  2  0
  7  9  1  0
 10 11  1  0
 11 12  1  0
 11 14  1  1
 12 13  2  0
 12 18  1  0
 14 15  1  0
 15 16  1  0
 15 17  2  0
 18 19  1  0
 19 20  1  0
 19 22  1  1
 20 21  2  0
 20 27  1  0
 22 23  1  0
 23 24  1  0
 24 25  2  0
 24 26  1  0
 27 28  1  0
 28 29  1  0
 28 31  1  1
 29 30  2  0
 29 35  1  0
 31 32  1  0
 32 33  1  0
 33 34  1  0
 36 35  1  6
 36 37  1  0
 36 39  1  0
 37 38  2  0
 37 42  1  0
 39 40  1  1
 39 41  1  0
 42 43  1  0
 42 48  1  0
 43 44  1  1
 43 46  1  0
 44 45  2  0
 44 49  1  0
 46 47  1  0
 47 48  1  0
 49 50  1  0
 50 51  1  0
 50 53  1  1
 51 52  1  0
 51 55  2  0
 53 54  1  0
M  CHG  1   1   1
M  END
$$$$
