
     RDKit          3D

 55 55  0  0  0  0  0  0  0  0999 V2000
  -10.7496   10.2579   33.8962 N   0  0  0  0  0  4  0  0  0  0  0  0
   -9.2928   10.0970   33.7210 C   0  0  2  0  0  0  0  0  0  0  0  0
   -9.0683    9.3706   32.4564 C   0  0  0  0  0  0  0  0  0  0  0  0
   -9.0307   10.0524   31.3756 O   0  0  0  0  0  0  0  0  0  0  0  0
   -8.7959    9.2593   34.8965 C   0  0  0  0  0  0  0  0  0  0  0  0
   -9.3872    7.8846   34.8807 C   0  0  0  0  0  0  0  0  0  0  0  0
  -10.8659    7.9292   34.8679 C   0  0  0  0  0  0  0  0  0  0  0  0
  -11.4435    9.0347   34.7854 O   0  0  0  0  0  0  0  0  0  0  0  0
  -11.5658    6.7345   34.9482 O   0  0  0  0  0  0  0  0  0  0  0  0
   -8.8896    7.9474   32.3671 N   0  0  0  0  0  0  0  0  0  0  0  0
   -8.6798    7.3836   31.0331 C   0  0  2  0  0  0  0  0  0  0  0  0
   -8.6901    5.9019   31.1524 C   0  0  0  0  0  0  0  0  0  0  0  0
   -7.6093    5.2974   31.4835 O   0  0  0  0  0  0  0  0  0  0  0  0
   -7.3092    7.8889   30.6112 C   0  0  0  0  0  0  0  0  0  0  0  0
   -7.2832    9.2594   30.1285 C   0  0  0  0  0  0  0  0  0  0  0  0
   -6.0730    9.7736   29.6192 O   0  0  0  0  0  0  0  0  0  0  0  0
   -8.2738    9.9919   30.1467 O   0  0  0  0  0  0  0  0  0  0  0  0
   -9.8402    5.1432   30.9236 N   0  0  0  0  0  0  0  0  0  0  0  0
   -9.9516    4.0092   29.9970 C   0  0  2  0  0  0  0  0  0  0  0  0
   -8.6254    3.3652   29.9563 C   0  0  0  0  0  0  0  0  0  0  0  0
   -7.6153    4.0986   29.6793 O   0  0  0  0  0  0  0  0  0  0  0  0
  -10.3327    4.4850   28.5997 C   0  0  0  0  0  0  0  0  0  0  0  0
  -10.5881    3.3013   27.7219 C   0  0  0  0  0  0  0  0  0  0  0  0
  -11.1096    3.6626   26.3912 C   0  0  0  0  0  0  0  0  0  0  0  0
  -12.2516    3.3306   25.9639 O   0  0  0  0  0  0  0  0  0  0  0  0
  -10.2745    4.4406   25.5130 N   0  0  0  0  0  0  0  0  0  0  0  0
   -8.4132    1.9685   30.2064 N   0  0  0  0  0  0  0  0  0  0  0  0
   -7.1389    1.4173   29.7728 C   0  0  2  0  0  0  0  0  0  0  0  0
   -7.2312    0.6926   28.5153 C   0  0  0  0  0  0  0  0  0  0  0  0
   -8.0243   -0.2937   28.3609 O   0  0  0  0  0  0  0  0  0  0  0  0
   -6.6375    0.4881   30.8845 C   0  0  0  0  0  0  0  0  0  0  0  0
   -5.5574   -0.4360   30.4673 C   0  0  0  0  0  0  0  0  0  0  0  0
   -5.0366   -1.5777   31.7438 S   0  0  0  0  0  0  0  0  0  0  0  0
   -5.3083   -3.2961   31.2368 C   0  0  0  0  0  0  0  0  0  0  0  0
   -6.4230    1.0692   27.3920 N   0  0  0  0  0  0  0  0  0  0  0  0
   -6.1637    0.2023   26.2514 C   0  0  2  0  0  0  0  0  0  0  0  0
   -4.8913   -0.4690   26.4503 C   0  0  0  0  0  0  0  0  0  0  0  0
   -4.0623    0.0755   27.2982 O   0  0  0  0  0  0  0  0  0  0  0  0
   -6.1219    1.1150   25.0105 C   0  0  1  0  0  0  0  0  0  0  0  0
   -5.7857    0.4082   23.7528 C   0  0  0  0  0  0  0  0  0  0  0  0
   -7.3073    2.0330   24.9334 C   0  0  0  0  0  0  0  0  0  0  0  0
   -4.3924   -1.6441   25.8640 N   0  0  0  0  0  0  0  0  0  0  0  0
   -3.2285   -2.4722   26.1286 C   0  0  2  0  0  0  0  0  0  0  0  0
   -2.3103   -2.4182   24.9391 C   0  0  0  0  0  0  0  0  0  0  0  0
   -2.5131   -3.1292   23.9001 O   0  0  0  0  0  0  0  0  0  0  0  0
   -3.8120   -3.8631   26.1388 C   0  0  0  0  0  0  0  0  0  0  0  0
   -4.6749   -3.8004   24.8705 C   0  0  0  0  0  0  0  0  0  0  0  0
   -5.0604   -2.3554   24.7571 C   0  0  0  0  0  0  0  0  0  0  0  0
   -1.1848   -1.5832   24.9088 N   0  0  0  0  0  0  0  0  0  0  0  0
    0.0087   -1.9499   24.1110 C   0  0  2  0  0  0  0  0  0  0  0  0
    1.0449   -2.5362   24.9827 C   0  0  0  0  0  0  0  0  0  0  0  0
    0.7872   -2.6316   26.3506 O   0  0  0  0  0  0  0  0  0  0  0  0
    0.5799   -0.7485   23.3962 C   0  0  0  0  0  0  0  0  0  0  0  0
    1.4905   -1.0734   22.4162 O   0  0  0  0  0  0  0  0  0  0  0  0
    2.1264   -2.9415   24.5382 O   0  0  0  0  0  0  0  0  0  0  0  0
  2  1  1  1
  2  3  1  0
  2  5  1  0
  3  4  2  0
  3 10  1  0
  5  6  1  0
  6  7  1  0
  7  8  2  0
  7  9  1  0
 10 11  1  0
 11 12  1  0
 11 14  1  1
 12 13  2  0
 12 18  1  0
 14 15  1  0
 15 16  1  0
 15 17  2  0
 18 19  1  0
 19 20  1  0
 19 22  1  6
 20 21  2  0
 20 27  1  0
 22 23  1  0
 23 24  1  0
 24 25  2  0
 24 26  1  0
 27 28  1  0
 28 29  1  0
 28 31  1  1
 29 30  2  0
 29 35  1  0
 31 32  1  0
 32 33  1  0
 33 34  1  0
 36 35  1  1
 36 37  1  0
 36 39  1  0
 37 38  2  0
 37 42  1  0
 39 40  1  6
 39 41  1  0
 42 43  1  0
 42 48  1  0
 43 44  1  6
 43 46  1  0
 44 45  2  0
 44 49  1  0
 46 47  1  0
 47 48  1  0
 49 50  1  0
 50 51  1  0
 50 53  1  1
 51 52  1  0
 51 55  2  0
 53 54  1  0
M  CHG  1   1   1
M  END
$$$$
