
     RDKit          3D

 55 55  0  0  0  0  0  0  0  0999 V2000
   -2.3235    8.2310   32.8969 N   0  0  0  0  0  4  0  0  0  0  0  0
   -2.3699    6.8391   32.4072 C   0  0  2  0  0  0  0  0  0  0  0  0
   -3.5458    6.1867   33.0146 C   0  0  0  0  0  0  0  0  0  0  0  0
   -3.3379    5.2508   33.8603 O   0  0  0  0  0  0  0  0  0  0  0  0
   -1.0915    6.1580   32.8887 C   0  0  0  0  0  0  0  0  0  0  0  0
   -1.0029    4.7464   32.3996 C   0  0  0  0  0  0  0  0  0  0  0  0
   -0.1257    3.9260   33.2634 C   0  0  0  0  0  0  0  0  0  0  0  0
    0.4279    4.4556   34.2512 O   0  0  0  0  0  0  0  0  0  0  0  0
    0.0537    2.5879   32.9457 O   0  0  0  0  0  0  0  0  0  0  0  0
   -4.9061    6.5394   32.7140 N   0  0  0  0  0  0  0  0  0  0  0  0
   -5.6641    7.2270   33.7600 C   0  0  2  0  0  0  0  0  0  0  0  0
   -7.1112    7.0769   33.4545 C   0  0  0  0  0  0  0  0  0  0  0  0
   -7.8854    8.0880   33.6002 O   0  0  0  0  0  0  0  0  0  0  0  0
   -5.2315    8.6811   33.6581 C   0  0  0  0  0  0  0  0  0  0  0  0
   -5.8290    9.5685   34.6418 C   0  0  0  0  0  0  0  0  0  0  0  0
   -5.5613   10.9503   34.5561 O   0  0  0  0  0  0  0  0  0  0  0  0
   -6.5587    9.1643   35.5486 O   0  0  0  0  0  0  0  0  0  0  0  0
   -7.6577    5.8724   33.0059 N   0  0  0  0  0  0  0  0  0  0  0  0
   -8.4128    5.6821   31.7606 C   0  0  2  0  0  0  0  0  0  0  0  0
   -7.6103    4.7797   30.9139 C   0  0  0  0  0  0  0  0  0  0  0  0
   -6.6482    5.2903   30.2438 O   0  0  0  0  0  0  0  0  0  0  0  0
   -8.6183    7.0105   31.0416 C   0  0  0  0  0  0  0  0  0  0  0  0
   -9.4543    6.7930   29.8206 C   0  0  0  0  0  0  0  0  0  0  0  0
  -10.8701    6.5163   30.1238 C   0  0  0  0  0  0  0  0  0  0  0  0
  -11.3327    5.3633   30.3551 O   0  0  0  0  0  0  0  0  0  0  0  0
  -11.7944    7.6201   30.1596 N   0  0  0  0  0  0  0  0  0  0  0  0
   -7.8541    3.3703   30.8020 N   0  0  0  0  0  0  0  0  0  0  0  0
   -6.9894    2.6315   29.8953 C   0  0  2  0  0  0  0  0  0  0  0  0
   -7.3186    2.8455   28.4949 C   0  0  0  0  0  0  0  0  0  0  0  0
   -7.9364    3.8879   28.0981 O   0  0  0  0  0  0  0  0  0  0  0  0
   -7.1158    1.1449   30.2483 C   0  0  0  0  0  0  0  0  0  0  0  0
   -6.2495    0.2507   29.4453 C   0  0  0  0  0  0  0  0  0  0  0  0
   -6.3883   -1.4818   29.8737 S   0  0  0  0  0  0  0  0  0  0  0  0
   -7.6517   -1.7431   31.1462 C   0  0  0  0  0  0  0  0  0  0  0  0
   -6.9535    1.8786   27.5008 N   0  0  0  0  0  0  0  0  0  0  0  0
   -6.8859    2.1657   26.0751 C   0  0  2  0  0  0  0  0  0  0  0  0
   -6.4376    0.9743   25.3759 C   0  0  0  0  0  0  0  0  0  0  0  0
   -5.6599    0.1600   26.0351 O   0  0  0  0  0  0  0  0  0  0  0  0
   -5.8774    3.3190   25.9097 C   0  0  1  0  0  0  0  0  0  0  0  0
   -6.3328    4.6058   26.4852 C   0  0  0  0  0  0  0  0  0  0  0  0
   -4.4780    2.9137   26.2718 C   0  0  0  0  0  0  0  0  0  0  0  0
   -6.7137    0.5406   24.0685 N   0  0  0  0  0  0  0  0  0  0  0  0
   -6.3683   -0.6577   23.3233 C   0  0  2  0  0  0  0  0  0  0  0  0
   -5.4768   -0.2775   22.1737 C   0  0  0  0  0  0  0  0  0  0  0  0
   -5.3244    0.9363   21.8135 O   0  0  0  0  0  0  0  0  0  0  0  0
   -7.6885   -1.0537   22.7105 C   0  0  0  0  0  0  0  0  0  0  0  0
   -8.1534    0.3075   22.1739 C   0  0  0  0  0  0  0  0  0  0  0  0
   -7.5328    1.3040   23.1074 C   0  0  0  0  0  0  0  0  0  0  0  0
   -4.7654   -1.2361   21.4389 N   0  0  0  0  0  0  0  0  0  0  0  0
   -3.4782   -1.7722   21.9400 C   0  0  2  0  0  0  0  0  0  0  0  0
   -2.9436   -2.7771   21.0010 C   0  0  0  0  0  0  0  0  0  0  0  0
   -1.5595   -2.9168   20.8935 O   0  0  0  0  0  0  0  0  0  0  0  0
   -3.6405   -2.4008   23.3035 C   0  0  0  0  0  0  0  0  0  0  0  0
   -2.4676   -2.9025   23.8207 O   0  0  0  0  0  0  0  0  0  0  0  0
   -3.6821   -3.4925   20.3122 O   0  0  0  0  0  0  0  0  0  0  0  0
  2  1  1  1
  2  3  1  0
  2  5  1  0
  3  4  2  0
  3 10  1  0
  5  6  1  0
  6  7  1  0
  7  8  2  0
  7  9  1  0
 10 11  1  0
 11 12  1  0
 11 14  1  6
 12 13  2  0
 12 18  1  0
 14 15  1  0
 15 16  1  0
 15 17  2  0
 18 19  1  0
 19 20  1  0
 19 22  1  6
 20 21  2  0
 20 27  1  0
 22 23  1  0
 23 24  1  0
 24 25  2  0
 24 26  1  0
 27 28  1  0
 28 29  1  0
 28 31  1  1
 29 30  2  0
 29 35  1  0
 31 32  1  0
 32 33  1  0
 33 34  1  0
 36 35  1  1
 36 37  1  0
 36 39  1  0
 37 38  2  0
 37 42  1  0
 39 40  1  1
 39 41  1  0
 42 43  1  0
 42 48  1  0
 43 44  1  6
 43 46  1  0
 44 45  2  0
 44 49  1  0
 46 47  1  0
 47 48  1  0
 49 50  1  0
 50 51  1  0
 50 53  1  1
 51 52  1  0
 51 55  2  0
 53 54  1  0
M  CHG  1   1   1
M  END
$$$$
