
     RDKit          3D

 55 55  0  0  0  0  0  0  0  0999 V2000
    3.5760    6.4115   30.2113 N   0  0  0  0  0  4  0  0  0  0  0  0
    3.2992    6.2055   28.7760 C   0  0  2  0  0  0  0  0  0  0  0  0
    2.6230    4.9022   28.6300 C   0  0  0  0  0  0  0  0  0  0  0  0
    3.2148    3.8680   29.0934 O   0  0  0  0  0  0  0  0  0  0  0  0
    4.6499    6.1723   28.0654 C   0  0  0  0  0  0  0  0  0  0  0  0
    4.4990    5.8461   26.6126 C   0  0  0  0  0  0  0  0  0  0  0  0
    5.0279    6.9291   25.7547 C   0  0  0  0  0  0  0  0  0  0  0  0
    5.5680    7.9226   26.2876 O   0  0  0  0  0  0  0  0  0  0  0  0
    4.9056    6.8044   24.3788 O   0  0  0  0  0  0  0  0  0  0  0  0
    1.3431    4.7262   28.0005 N   0  0  0  0  0  0  0  0  0  0  0  0
    0.5372    3.5846   28.4349 C   0  0  2  0  0  0  0  0  0  0  0  0
   -0.6411    3.4831   27.5342 C   0  0  0  0  0  0  0  0  0  0  0  0
   -1.3855    4.5130   27.3661 O   0  0  0  0  0  0  0  0  0  0  0  0
    0.1128    3.9287   29.8539 C   0  0  0  0  0  0  0  0  0  0  0  0
    0.7051    3.0983   30.8891 C   0  0  0  0  0  0  0  0  0  0  0  0
    1.5064    2.0046   30.5018 O   0  0  0  0  0  0  0  0  0  0  0  0
    0.5356    3.3087   32.0912 O   0  0  0  0  0  0  0  0  0  0  0  0
   -0.9625    2.3049   26.8566 N   0  0  0  0  0  0  0  0  0  0  0  0
   -2.2636    1.9877   26.2535 C   0  0  2  0  0  0  0  0  0  0  0  0
   -3.2851    2.2755   27.2777 C   0  0  0  0  0  0  0  0  0  0  0  0
   -2.9177    2.2737   28.5025 O   0  0  0  0  0  0  0  0  0  0  0  0
   -2.3351    0.5171   25.8583 C   0  0  0  0  0  0  0  0  0  0  0  0
   -3.4727   -0.1376   26.5755 C   0  0  0  0  0  0  0  0  0  0  0  0
   -4.3385   -0.9374   25.6901 C   0  0  0  0  0  0  0  0  0  0  0  0
   -4.1417   -1.0837   24.4505 O   0  0  0  0  0  0  0  0  0  0  0  0
   -5.4845   -1.5966   26.2609 N   0  0  0  0  0  0  0  0  0  0  0  0
   -4.6594    2.5519   26.9725 N   0  0  0  0  0  0  0  0  0  0  0  0
   -5.2449    1.7991   25.8741 C   0  0  2  0  0  0  0  0  0  0  0  0
   -6.2088    0.8041   26.3168 C   0  0  0  0  0  0  0  0  0  0  0  0
   -6.0288   -0.4433   26.1237 O   0  0  0  0  0  0  0  0  0  0  0  0
   -4.0963    1.1238   25.1157 C   0  0  0  0  0  0  0  0  0  0  0  0
   -4.5145   -0.0067   24.2544 C   0  0  0  0  0  0  0  0  0  0  0  0
   -3.9076    0.0899   22.5731 S   0  0  0  0  0  0  0  0  0  0  0  0
   -4.0760    1.7683   21.9110 C   0  0  0  0  0  0  0  0  0  0  0  0
   -7.4092    1.1984   26.9951 N   0  0  0  0  0  0  0  0  0  0  0  0
   -8.0006    2.5249   26.8942 C   0  0  2  0  0  0  0  0  0  0  0  0
   -8.0154    3.1351   28.2120 C   0  0  0  0  0  0  0  0  0  0  0  0
   -7.7235    4.4051   28.2783 O   0  0  0  0  0  0  0  0  0  0  0  0
   -9.4317    2.3249   26.3589 C   0  0  1  0  0  0  0  0  0  0  0  0
  -10.2674    3.5474   26.3999 C   0  0  0  0  0  0  0  0  0  0  0  0
   -9.4583    1.5728   25.0599 C   0  0  0  0  0  0  0  0  0  0  0  0
   -8.3029    2.5663   29.4639 N   0  0  0  0  0  0  0  0  0  0  0  0
   -7.8375    1.3701   30.1446 C   0  0  2  0  0  0  0  0  0  0  0  0
   -8.9958    0.4280   30.3227 C   0  0  0  0  0  0  0  0  0  0  0  0
  -10.1889    0.7649   30.0238 O   0  0  0  0  0  0  0  0  0  0  0  0
   -7.5070    1.8857   31.5231 C   0  0  0  0  0  0  0  0  0  0  0  0
   -8.7642    2.7206   31.8049 C   0  0  0  0  0  0  0  0  0  0  0  0
   -9.2188    3.1729   30.4490 C   0  0  0  0  0  0  0  0  0  0  0  0
   -8.8254   -0.8696   30.8248 N   0  0  0  0  0  0  0  0  0  0  0  0
   -8.8286   -2.0396   29.9157 C   0  0  2  0  0  0  0  0  0  0  0  0
   -9.8074   -3.0425   30.3778 C   0  0  0  0  0  0  0  0  0  0  0  0
  -10.6682   -3.6131   29.4397 O   0  0  0  0  0  0  0  0  0  0  0  0
   -7.4614   -2.6764   29.8379 C   0  0  0  0  0  0  0  0  0  0  0  0
   -7.3847   -3.7042   28.9254 O   0  0  0  0  0  0  0  0  0  0  0  0
   -9.8854   -3.3880   31.5636 O   0  0  0  0  0  0  0  0  0  0  0  0
  2  1  1  1
  2  3  1  0
  2  5  1  0
  3  4  2  0
  3 10  1  0
  5  6  1  0
  6  7  1  0
  7  8  2  0
  7  9  1  0
 10 11  1  0
 11 12  1  0
 11 14  1  1
 12 13  2  0
 12 18  1  0
 14 15  1  0
 15 16  1  0
 15 17  2  0
 18 19  1  0
 19 20  1  0
 19 22  1  1
 20 21  2  0
 20 27  1  0
 22 23  1  0
 23 24  1  0
 24 25  2  0
 24 26  1  0
 27 28  1  0
 28 29  1  0
 28 31  1  1
 29 30  2  0
 29 35  1  0
 31 32  1  0
 32 33  1  0
 33 34  1  0
 36 35  1  1
 36 37  1  0
 36 39  1  0
 37 38  2  0
 37 42  1  0
 39 40  1  6
 39 41  1  0
 42 43  1  0
 42 48  1  0
 43 44  1  1
 43 46  1  0
 44 45  2  0
 44 49  1  0
 46 47  1  0
 47 48  1  0
 49 50  1  0
 50 51  1  0
 50 53  1  1
 51 52  1  0
 51 55  2  0
 53 54  1  0
M  CHG  1   1   1
M  END
$$$$
