
     RDKit          3D

 55 55  0  0  0  0  0  0  0  0999 V2000
   -4.4809    6.9643   28.0964 N   0  0  0  0  0  4  0  0  0  0  0  0
   -3.7177    5.7156   27.9034 C   0  0  2  0  0  0  0  0  0  0  0  0
   -3.9350    4.8665   29.0904 C   0  0  0  0  0  0  0  0  0  0  0  0
   -3.4791    5.2799   30.2109 O   0  0  0  0  0  0  0  0  0  0  0  0
   -2.2454    6.1075   27.8076 C   0  0  0  0  0  0  0  0  0  0  0  0
   -1.4133    4.9897   27.2617 C   0  0  0  0  0  0  0  0  0  0  0  0
    0.0078    5.3812   27.1363 C   0  0  0  0  0  0  0  0  0  0  0  0
    0.8836    4.4915   27.0715 O   0  0  0  0  0  0  0  0  0  0  0  0
    0.3222    6.7314   27.0945 O   0  0  0  0  0  0  0  0  0  0  0  0
   -4.6267    3.6071   29.0626 N   0  0  0  0  0  0  0  0  0  0  0  0
   -4.2219    2.6459   28.0361 C   0  0  2  0  0  0  0  0  0  0  0  0
   -5.4527    2.0666   27.4365 C   0  0  0  0  0  0  0  0  0  0  0  0
   -5.4193    1.6574   26.2222 O   0  0  0  0  0  0  0  0  0  0  0  0
   -3.4297    1.5880   28.7880 C   0  0  0  0  0  0  0  0  0  0  0  0
   -2.3110    1.0223   28.0528 C   0  0  0  0  0  0  0  0  0  0  0  0
   -1.4627    0.1085   28.7111 O   0  0  0  0  0  0  0  0  0  0  0  0
   -2.0716    1.3085   26.8785 O   0  0  0  0  0  0  0  0  0  0  0  0
   -6.6453    1.9450   28.1531 N   0  0  0  0  0  0  0  0  0  0  0  0
   -7.8985    1.3715   27.6454 C   0  0  2  0  0  0  0  0  0  0  0  0
   -7.6428    0.9661   26.2505 C   0  0  0  0  0  0  0  0  0  0  0  0
   -7.4644    1.8901   25.3848 O   0  0  0  0  0  0  0  0  0  0  0  0
   -9.0213    2.4020   27.6813 C   0  0  0  0  0  0  0  0  0  0  0  0
   -9.2836    2.9027   26.2966 C   0  0  0  0  0  0  0  0  0  0  0  0
   -9.6380    1.8331   25.3461 C   0  0  0  0  0  0  0  0  0  0  0  0
   -9.6770    0.6055   25.6435 O   0  0  0  0  0  0  0  0  0  0  0  0
   -9.9599    2.1964   23.9903 N   0  0  0  0  0  0  0  0  0  0  0  0
   -7.5878   -0.4009   25.8185 N   0  0  0  0  0  0  0  0  0  0  0  0
   -6.5472   -0.7376   24.8596 C   0  0  2  0  0  0  0  0  0  0  0  0
   -5.3332   -1.2331   25.4886 C   0  0  0  0  0  0  0  0  0  0  0  0
   -4.9739   -2.4530   25.3958 O   0  0  0  0  0  0  0  0  0  0  0  0
   -6.2449    0.5263   24.0462 C   0  0  0  0  0  0  0  0  0  0  0  0
   -6.2502    0.3239   22.5786 C   0  0  0  0  0  0  0  0  0  0  0  0
   -5.9748    1.8182   21.6322 S   0  0  0  0  0  0  0  0  0  0  0  0
   -6.6229    3.2717   22.4989 C   0  0  0  0  0  0  0  0  0  0  0  0
   -4.4882   -0.3540   26.2434 N   0  0  0  0  0  0  0  0  0  0  0  0
   -3.3216   -0.7955   26.9944 C   0  0  2  0  0  0  0  0  0  0  0  0
   -3.6406   -2.0407   27.6702 C   0  0  0  0  0  0  0  0  0  0  0  0
   -4.8771   -2.2050   28.0532 O   0  0  0  0  0  0  0  0  0  0  0  0
   -3.0070    0.3217   28.0081 C   0  0  1  0  0  0  0  0  0  0  0  0
   -1.9921   -0.0510   29.0208 C   0  0  0  0  0  0  0  0  0  0  0  0
   -2.7952    1.6529   27.3472 C   0  0  0  0  0  0  0  0  0  0  0  0
   -2.8127   -3.1306   27.9869 N   0  0  0  0  0  0  0  0  0  0  0  0
   -3.0169   -4.3452   28.7573 C   0  0  2  0  0  0  0  0  0  0  0  0
   -2.1194   -4.3149   29.9634 C   0  0  0  0  0  0  0  0  0  0  0  0
   -1.3981   -3.3001   30.2397 O   0  0  0  0  0  0  0  0  0  0  0  0
   -2.4531   -5.4082   27.8478 C   0  0  0  0  0  0  0  0  0  0  0  0
   -1.1308   -4.7408   27.4439 C   0  0  0  0  0  0  0  0  0  0  0  0
   -1.4241   -3.2713   27.5083 C   0  0  0  0  0  0  0  0  0  0  0  0
   -2.0293   -5.3987   30.8477 N   0  0  0  0  0  0  0  0  0  0  0  0
   -1.4333   -5.2301   32.1937 C   0  0  2  0  0  0  0  0  0  0  0  0
   -1.4609   -6.5097   32.9282 C   0  0  0  0  0  0  0  0  0  0  0  0
   -2.5362   -7.3736   32.7188 O   0  0  0  0  0  0  0  0  0  0  0  0
   -2.1708   -4.1813   32.9917 C   0  0  0  0  0  0  0  0  0  0  0  0
   -1.6130   -3.9366   34.2262 O   0  0  0  0  0  0  0  0  0  0  0  0
   -0.5649   -6.8345   33.7176 O   0  0  0  0  0  0  0  0  0  0  0  0
  2  1  1  1
  2  3  1  0
  2  5  1  0
  3  4  2  0
  3 10  1  0
  5  6  1  0
  6  7  1  0
  7  8  2  0
  7  9  1  0
 10 11  1  0
 11 12  1  0
 11 14  1  1
 12 13  2  0
 12 18  1  0
 14 15  1  0
 15 16  1  0
 15 17  2  0
 18 19  1  0
 19 20  1  0
 19 22  1  6
 20 21  2  0
 20 27  1  0
 22 23  1  0
 23 24  1  0
 24 25  2  0
 24 26  1  0
 27 28  1  0
 28 29  1  0
 28 31  1  1
 29 30  2  0
 29 35  1  0
 31 32  1  0
 32 33  1  0
 33 34  1  0
 36 35  1  1
 36 37  1  0
 36 39  1  0
 37 38  2  0
 37 42  1  0
 39 40  1  6
 39 41  1  0
 42 43  1  0
 42 48  1  0
 43 44  1  1
 43 46  1  0
 44 45  2  0
 44 49  1  0
 46 47  1  0
 47 48  1  0
 49 50  1  0
 50 51  1  0
 50 53  1  1
 51 52  1  0
 51 55  2  0
 53 54  1  0
M  CHG  1   1   1
M  END
$$$$
