
     RDKit          3D

 55 55  0  0  0  0  0  0  0  0999 V2000
    0.8732   -1.0043   25.7467 N   0  0  0  0  0  4  0  0  0  0  0  0
    0.0138   -0.7719   26.9241 C   0  0  2  0  0  0  0  0  0  0  0  0
   -1.3882   -0.9543   26.5019 C   0  0  0  0  0  0  0  0  0  0  0  0
   -1.8665   -0.1300   25.6498 O   0  0  0  0  0  0  0  0  0  0  0  0
    0.2413    0.6736   27.3593 C   0  0  0  0  0  0  0  0  0  0  0  0
   -0.9350    1.2131   28.1110 C   0  0  0  0  0  0  0  0  0  0  0  0
   -0.6958    2.5979   28.5733 C   0  0  0  0  0  0  0  0  0  0  0  0
    0.2888    3.2285   28.1311 O   0  0  0  0  0  0  0  0  0  0  0  0
   -1.5784    3.1531   29.4879 O   0  0  0  0  0  0  0  0  0  0  0  0
   -2.2454   -1.9999   26.9891 N   0  0  0  0  0  0  0  0  0  0  0  0
   -3.6644   -1.9156   26.6417 C   0  0  2  0  0  0  0  0  0  0  0  0
   -3.9527   -0.5205   26.2170 C   0  0  0  0  0  0  0  0  0  0  0  0
   -3.1299    0.0735   25.4339 O   0  0  0  0  0  0  0  0  0  0  0  0
   -4.3984   -2.2584   27.9284 C   0  0  0  0  0  0  0  0  0  0  0  0
   -5.8430   -2.3549   27.8029 C   0  0  0  0  0  0  0  0  0  0  0  0
   -6.4134   -2.3152   26.5139 O   0  0  0  0  0  0  0  0  0  0  0  0
   -6.5909   -2.4686   28.7754 O   0  0  0  0  0  0  0  0  0  0  0  0
   -5.0949    0.1657   26.6357 N   0  0  0  0  0  0  0  0  0  0  0  0
   -5.8406    1.1552   25.8472 C   0  0  2  0  0  0  0  0  0  0  0  0
   -7.0325    1.5141   26.6383 C   0  0  0  0  0  0  0  0  0  0  0  0
   -7.7685    0.5625   27.0718 O   0  0  0  0  0  0  0  0  0  0  0  0
   -6.2726    0.5686   24.5080 C   0  0  0  0  0  0  0  0  0  0  0  0
   -5.5125    1.2324   23.4041 C   0  0  0  0  0  0  0  0  0  0  0  0
   -6.0044    0.8773   22.0606 C   0  0  0  0  0  0  0  0  0  0  0  0
   -7.0076    1.4125   21.5092 O   0  0  0  0  0  0  0  0  0  0  0  0
   -5.3082   -0.1433   21.3206 N   0  0  0  0  0  0  0  0  0  0  0  0
   -7.4070    2.8655   26.9409 N   0  0  0  0  0  0  0  0  0  0  0  0
   -8.2247    3.0627   28.1276 C   0  0  2  0  0  0  0  0  0  0  0  0
   -8.6073    4.4511   28.3301 C   0  0  0  0  0  0  0  0  0  0  0  0
   -7.8308    5.4165   28.0289 O   0  0  0  0  0  0  0  0  0  0  0  0
   -7.4209    2.5536   29.3297 C   0  0  0  0  0  0  0  0  0  0  0  0
   -7.2969    1.0790   29.4012 C   0  0  0  0  0  0  0  0  0  0  0  0
   -6.4284    0.4865   30.8499 S   0  0  0  0  0  0  0  0  0  0  0  0
   -7.0238   -1.1513   31.3469 C   0  0  0  0  0  0  0  0  0  0  0  0
   -9.8882    4.7847   28.8821 N   0  0  0  0  0  0  0  0  0  0  0  0
  -10.2516    6.1170   29.3433 C   0  0  2  0  0  0  0  0  0  0  0  0
   -9.3655    6.4968   30.4295 C   0  0  0  0  0  0  0  0  0  0  0  0
   -8.9253    5.5370   31.1960 O   0  0  0  0  0  0  0  0  0  0  0  0
  -11.7130    6.0286   29.8242 C   0  0  1  0  0  0  0  0  0  0  0  0
  -12.1789    7.2260   30.5614 C   0  0  0  0  0  0  0  0  0  0  0  0
  -12.6405    5.5337   28.7525 C   0  0  0  0  0  0  0  0  0  0  0  0
   -8.8885    7.7651   30.8001 N   0  0  0  0  0  0  0  0  0  0  0  0
   -7.9705    8.2219   31.8292 C   0  0  2  0  0  0  0  0  0  0  0  0
   -8.7228    9.0796   32.8087 C   0  0  0  0  0  0  0  0  0  0  0  0
   -9.3062   10.1557   32.4509 O   0  0  0  0  0  0  0  0  0  0  0  0
   -7.0655    9.1585   31.0682 C   0  0  0  0  0  0  0  0  0  0  0  0
   -8.1123    9.9683   30.2900 C   0  0  0  0  0  0  0  0  0  0  0  0
   -9.2543    9.0140   30.1044 C   0  0  0  0  0  0  0  0  0  0  0  0
   -8.8239    8.7412   34.1653 N   0  0  0  0  0  0  0  0  0  0  0  0
   -7.7009    9.0016   35.0962 C   0  0  2  0  0  0  0  0  0  0  0  0
   -7.9367    8.3201   36.3836 C   0  0  0  0  0  0  0  0  0  0  0  0
   -6.9674    8.4295   37.3812 O   0  0  0  0  0  0  0  0  0  0  0  0
   -7.5241   10.4814   35.3406 C   0  0  0  0  0  0  0  0  0  0  0  0
   -6.4898   10.7771   36.1995 O   0  0  0  0  0  0  0  0  0  0  0  0
   -8.9607    7.6602   36.6008 O   0  0  0  0  0  0  0  0  0  0  0  0
  2  1  1  6
  2  3  1  0
  2  5  1  0
  3  4  2  0
  3 10  1  0
  5  6  1  0
  6  7  1  0
  7  8  2  0
  7  9  1  0
 10 11  1  0
 11 12  1  0
 11 14  1  1
 12 13  2  0
 12 18  1  0
 14 15  1  0
 15 16  1  0
 15 17  2  0
 18 19  1  0
 19 20  1  0
 19 22  1  6
 20 21  2  0
 20 27  1  0
 22 23  1  0
 23 24  1  0
 24 25  2  0
 24 26  1  0
 27 28  1  0
 28 29  1  0
 28 31  1  1
 29 30  2  0
 29 35  1  0
 31 32  1  0
 32 33  1  0
 33 34  1  0
 36 35  1  1
 36 37  1  0
 36 39  1  0
 37 38  2  0
 37 42  1  0
 39 40  1  6
 39 41  1  0
 42 43  1  0
 42 48  1  0
 43 44  1  1
 43 46  1  0
 44 45  2  0
 44 49  1  0
 46 47  1  0
 47 48  1  0
 49 50  1  0
 50 51  1  0
 50 53  1  1
 51 52  1  0
 51 55  2  0
 53 54  1  0
M  CHG  1   1   1
M  END
$$$$
