
     RDKit          3D

 55 55  0  0  0  0  0  0  0  0999 V2000
   -1.3033   -4.0293   22.3073 N   0  0  0  0  0  4  0  0  0  0  0  0
   -0.6080   -3.9270   23.6054 C   0  0  2  0  0  0  0  0  0  0  0  0
   -1.6115   -4.1167   24.6704 C   0  0  0  0  0  0  0  0  0  0  0  0
   -1.6739   -5.2626   25.2337 O   0  0  0  0  0  0  0  0  0  0  0  0
   -0.0256   -2.5182   23.6854 C   0  0  0  0  0  0  0  0  0  0  0  0
    0.9082   -2.3743   24.8460 C   0  0  0  0  0  0  0  0  0  0  0  0
    0.6923   -1.0979   25.5622 C   0  0  0  0  0  0  0  0  0  0  0  0
    1.6649   -0.5280   26.1025 O   0  0  0  0  0  0  0  0  0  0  0  0
   -0.5908   -0.5735   25.6100 O   0  0  0  0  0  0  0  0  0  0  0  0
   -2.5195   -3.0937   25.1114 N   0  0  0  0  0  0  0  0  0  0  0  0
   -3.1628   -3.2877   26.4114 C   0  0  2  0  0  0  0  0  0  0  0  0
   -4.0504   -2.1223   26.6645 C   0  0  0  0  0  0  0  0  0  0  0  0
   -3.5227   -0.9740   26.8791 O   0  0  0  0  0  0  0  0  0  0  0  0
   -2.0153   -3.3279   27.4083 C   0  0  0  0  0  0  0  0  0  0  0  0
   -1.4889   -4.6542   27.6834 C   0  0  0  0  0  0  0  0  0  0  0  0
   -0.6663   -5.2686   26.7170 O   0  0  0  0  0  0  0  0  0  0  0  0
   -1.7320   -5.2654   28.7253 O   0  0  0  0  0  0  0  0  0  0  0  0
   -5.4427   -2.2325   26.6694 N   0  0  0  0  0  0  0  0  0  0  0  0
   -6.3833   -1.2204   27.1673 C   0  0  2  0  0  0  0  0  0  0  0  0
   -5.6006    0.0093   27.3920 C   0  0  0  0  0  0  0  0  0  0  0  0
   -4.3256   -0.0813   27.3565 O   0  0  0  0  0  0  0  0  0  0  0  0
   -7.0199   -1.6686   28.4780 C   0  0  0  0  0  0  0  0  0  0  0  0
   -7.1229   -0.5015   29.4075 C   0  0  0  0  0  0  0  0  0  0  0  0
   -8.5114   -0.1647   29.7706 C   0  0  0  0  0  0  0  0  0  0  0  0
   -8.9464   -0.1366   30.9567 O   0  0  0  0  0  0  0  0  0  0  0  0
   -9.4405    0.1520   28.7169 N   0  0  0  0  0  0  0  0  0  0  0  0
   -6.1920    1.2908   27.6494 N   0  0  0  0  0  0  0  0  0  0  0  0
   -5.7176    2.4001   26.8369 C   0  0  2  0  0  0  0  0  0  0  0  0
   -6.6412    3.5233   26.8134 C   0  0  0  0  0  0  0  0  0  0  0  0
   -6.3019    4.6673   26.3639 O   0  0  0  0  0  0  0  0  0  0  0  0
   -5.4946    1.8674   25.4167 C   0  0  0  0  0  0  0  0  0  0  0  0
   -5.0408    2.8898   24.4452 C   0  0  0  0  0  0  0  0  0  0  0  0
   -3.4046    2.5947   23.7821 S   0  0  0  0  0  0  0  0  0  0  0  0
   -3.4497    1.3714   22.4460 C   0  0  0  0  0  0  0  0  0  0  0  0
   -7.9821    3.3792   27.3008 N   0  0  0  0  0  0  0  0  0  0  0  0
   -8.8097    4.4926   27.7426 C   0  0  2  0  0  0  0  0  0  0  0  0
   -8.2939    4.9901   29.0058 C   0  0  0  0  0  0  0  0  0  0  0  0
   -7.7419    4.1172   29.8033 O   0  0  0  0  0  0  0  0  0  0  0  0
  -10.2376    3.9368   27.9062 C   0  0  1  0  0  0  0  0  0  0  0  0
  -11.0898    4.7248   28.8267 C   0  0  0  0  0  0  0  0  0  0  0  0
  -10.8696    3.5833   26.5912 C   0  0  0  0  0  0  0  0  0  0  0  0
   -8.2894    6.2956   29.5246 N   0  0  0  0  0  0  0  0  0  0  0  0
   -7.7366    6.8854   30.7317 C   0  0  2  0  0  0  0  0  0  0  0  0
   -8.8645    7.3836   31.5922 C   0  0  0  0  0  0  0  0  0  0  0  0
   -9.9958    7.7046   31.0988 O   0  0  0  0  0  0  0  0  0  0  0  0
   -7.0417    8.1165   30.2056 C   0  0  0  0  0  0  0  0  0  0  0  0
   -8.1383    8.6696   29.2845 C   0  0  0  0  0  0  0  0  0  0  0  0
   -8.8926    7.4531   28.8364 C   0  0  0  0  0  0  0  0  0  0  0  0
   -8.7327    7.5201   32.9811 N   0  0  0  0  0  0  0  0  0  0  0  0
   -8.2012    6.4084   33.8040 C   0  0  2  0  0  0  0  0  0  0  0  0
   -8.1445    6.8063   35.2239 C   0  0  0  0  0  0  0  0  0  0  0  0
   -8.5151    8.1073   35.5653 O   0  0  0  0  0  0  0  0  0  0  0  0
   -6.8219    5.9987   33.3457 C   0  0  0  0  0  0  0  0  0  0  0  0
   -6.3167    4.9132   34.0249 O   0  0  0  0  0  0  0  0  0  0  0  0
   -7.7804    6.0251   36.1119 O   0  0  0  0  0  0  0  0  0  0  0  0
  2  1  1  6
  2  3  1  0
  2  5  1  0
  3  4  2  0
  3 10  1  0
  5  6  1  0
  6  7  1  0
  7  8  2  0
  7  9  1  0
 10 11  1  0
 11 12  1  0
 11 14  1  1
 12 13  2  0
 12 18  1  0
 14 15  1  0
 15 16  1  0
 15 17  2  0
 18 19  1  0
 19 20  1  0
 19 22  1  1
 20 21  2  0
 20 27  1  0
 22 23  1  0
 23 24  1  0
 24 25  2  0
 24 26  1  0
 27 28  1  0
 28 29  1  0
 28 31  1  6
 29 30  2  0
 29 35  1  0
 31 32  1  0
 32 33  1  0
 33 34  1  0
 36 35  1  1
 36 37  1  0
 36 39  1  0
 37 38  2  0
 37 42  1  0
 39 40  1  6
 39 41  1  0
 42 43  1  0
 42 48  1  0
 43 44  1  1
 43 46  1  0
 44 45  2  0
 44 49  1  0
 46 47  1  0
 47 48  1  0
 49 50  1  0
 50 51  1  0
 50 53  1  6
 51 52  1  0
 51 55  2  0
 53 54  1  0
M  CHG  1   1   1
M  END
$$$$
