
     RDKit          3D

 45 50  0  0  0  0  0  0  0  0999 V2000
   36.2967   -7.6104   11.0963 C   0  0  0  0  0  0  0  0  0  0  0  0
   35.3567   -6.7116   10.6720 C   0  0  0  0  0  0  0  0  0  0  0  0
   35.4670   -5.3381   10.8365 C   0  0  0  0  0  0  0  0  0  0  0  0
   38.5699   -5.1731   17.7430 C   0  0  0  0  0  0  0  0  0  0  0  0
   37.4357   -4.7290   18.6131 C   0  0  0  0  0  0  0  0  0  0  0  0
   36.2465   -3.9365   16.7520 C   0  0  0  0  0  0  0  0  0  0  0  0
   37.2395   -4.4807   15.7268 C   0  0  0  0  0  0  0  0  0  0  0  0
   36.2934   -2.5929   13.3119 C   0  0  0  0  0  0  0  0  0  0  0  0
   35.1584   -9.8015   10.3268 C   0  0  1  0  0  0  0  0  0  0  0  0
   33.9064  -10.0673   11.0633 C   0  0  0  0  0  0  0  0  0  0  0  0
   32.7127  -10.4710   10.5089 C   0  0  0  0  0  0  0  0  0  0  0  0
   31.5676  -10.7006   11.2407 C   0  0  0  0  0  0  0  0  0  0  0  0
   31.6037  -10.5204   12.5990 C   0  0  0  0  0  0  0  0  0  0  0  0
   32.7884  -10.1145   13.1891 C   0  0  0  0  0  0  0  0  0  0  0  0
   33.9178   -9.8902   12.4536 C   0  0  0  0  0  0  0  0  0  0  0  0
   34.9669   -9.7867    8.8602 C   0  0  0  0  0  0  0  0  0  0  0  0
   34.9154  -10.8929    8.0716 C   0  0  0  0  0  0  0  0  0  0  0  0
   34.6427  -10.7604    6.6985 C   0  0  0  0  0  0  0  0  0  0  0  0
   34.4263   -9.5230    6.1252 C   0  0  0  0  0  0  0  0  0  0  0  0
   34.4902   -8.4247    6.9599 C   0  0  0  0  0  0  0  0  0  0  0  0
   31.1691  -11.5027    9.1385 C   0  0  1  0  0  0  0  0  0  0  0  0
   36.5775   -4.8230   11.4597 C   0  0  0  0  0  0  0  0  0  0  0  0
   37.5302   -5.6832   11.8937 C   0  0  0  0  0  0  0  0  0  0  0  0
   37.4161   -7.0697   11.7264 C   0  0  0  0  0  0  0  0  0  0  0  0
   38.4531   -7.8706   12.2451 N   0  0  0  0  0  0  0  0  0  0  0  0
   36.6875   -3.0711   11.6555 S   0  0  1  0  0  6  0  0  0  0  0  0
   35.6981   -2.4109   10.7388 O   0  0  0  0  0  0  0  0  0  0  0  0
   38.0481   -2.5922   11.2408 O   0  0  0  0  0  0  0  0  0  0  0  0
   34.7473   -8.5863    8.2456 N   0  0  0  0  0  0  0  0  0  0  0  0
   35.2498  -12.5297    8.6056 Cl  0  0  0  0  0  0  0  0  0  0  0  0
   36.1479   -8.9859   10.8724 N   0  0  0  0  0  0  0  0  0  0  0  0
   32.3571  -10.7338    9.1815 O   0  0  0  0  0  0  0  0  0  0  0  0
   30.5642  -11.0930   10.3594 O   0  0  0  0  0  0  0  0  0  0  0  0
   30.4193  -11.2467    8.0347 F   0  0  0  0  0  0  0  0  0  0  0  0
   31.4832  -12.8450    9.2999 F   0  0  0  0  0  0  0  0  0  0  0  0
   38.9134   -7.6594   13.5811 C   0  0  0  0  0  0  0  0  0  0  0  0
   38.3812   -6.6727   14.3255 N   0  0  0  0  0  0  0  0  0  0  0  0
   38.7537   -6.4270   15.5948 C   0  0  0  0  0  0  0  0  0  0  0  0
   39.6874   -7.1811   16.1582 N   0  0  0  0  0  0  0  0  0  0  0  0
   40.2446   -8.1789   15.4449 C   0  0  0  0  0  0  0  0  0  0  0  0
   39.8630   -8.4164   14.1702 N   0  0  0  0  0  0  0  0  0  0  0  0
   41.2172   -8.9394   16.0824 O   0  0  0  0  0  0  0  0  0  0  0  0
   41.9707   -9.8744   15.3315 C   0  0  0  0  0  0  0  0  0  0  0  0
   38.1834   -5.3614   16.3452 N   0  0  0  0  0  0  0  0  0  0  0  0
   36.1922   -4.8358   17.8974 N   0  0  0  0  0  4  0  0  0  0  0  0
  1  2  2  0
 24  1  1  0
  1 31  1  0
  2  3  1  0
 22  3  2  0
  4  5  1  0
 44  4  1  0
  5 45  1  0
  7  6  1  0
  6 45  1  0
 44  7  1  0
 26  8  1  1
  9 10  1  0
  9 16  1  0
  9 31  1  1
 10 11  2  0
 10 15  1  0
 11 12  1  0
 11 32  1  0
 12 13  2  0
 12 33  1  0
 14 13  1  0
 15 14  2  0
 16 17  2  0
 16 29  1  0
 17 18  1  0
 17 30  1  0
 18 19  2  0
 20 19  1  0
 29 20  2  0
 32 21  1  0
 21 33  1  0
 21 34  1  6
 21 35  1  0
 23 22  1  0
 22 26  1  0
 24 23  2  0
 25 24  1  0
 36 25  1  0
 26 27  2  0
 26 28  2  0
 37 36  2  0
 36 41  1  0
 38 37  1  0
 38 39  2  0
 38 44  1  0
 39 40  1  0
 40 41  2  0
 40 42  1  0
 42 43  1  0
M  CHG  1  45   1
M  END
$$$$
