
     RDKit          3D

 45 50  0  0  0  0  0  0  0  0999 V2000
   34.9569   -8.5876   13.3659 C   0  0  0  0  0  0  0  0  0  0  0  0
   33.6325   -8.7256   13.6799 C   0  0  0  0  0  0  0  0  0  0  0  0
   33.1534   -8.8710   14.9740 C   0  0  0  0  0  0  0  0  0  0  0  0
   36.1377   -6.8979   18.8961 C   0  0  0  0  0  0  0  0  0  0  0  0
   35.3783   -5.8455   19.6420 C   0  0  0  0  0  0  0  0  0  0  0  0
   37.3676   -4.9311   20.4863 C   0  0  0  0  0  0  0  0  0  0  0  0
   38.2818   -5.8312   19.6574 C   0  0  0  0  0  0  0  0  0  0  0  0
   32.6413   -7.5722   18.2166 C   0  0  0  0  0  0  0  0  0  0  0  0
   34.8020   -8.5704   10.7843 C   0  0  1  0  0  0  0  0  0  0  0  0
   35.0656   -7.6017    9.7013 C   0  0  0  0  0  0  0  0  0  0  0  0
   34.2092   -7.2902    8.6695 C   0  0  0  0  0  0  0  0  0  0  0  0
   34.5053   -6.3810    7.6769 C   0  0  0  0  0  0  0  0  0  0  0  0
   35.7181   -5.7429    7.7050 C   0  0  0  0  0  0  0  0  0  0  0  0
   36.6035   -6.0331    8.7290 C   0  0  0  0  0  0  0  0  0  0  0  0
   36.2991   -6.9362    9.7080 C   0  0  0  0  0  0  0  0  0  0  0  0
   34.5855   -9.9447   10.2821 C   0  0  0  0  0  0  0  0  0  0  0  0
   33.3794  -10.4621    9.9277 C   0  0  0  0  0  0  0  0  0  0  0  0
   33.3069  -11.7557    9.3813 C   0  0  0  0  0  0  0  0  0  0  0  0
   34.4406  -12.5218    9.1962 C   0  0  0  0  0  0  0  0  0  0  0  0
   35.6454  -11.9610    9.5716 C   0  0  0  0  0  0  0  0  0  0  0  0
   32.2838   -6.8735    7.4677 C   0  0  1  0  0  0  0  0  0  0  0  0
   34.0411   -8.8800   16.0222 C   0  0  0  0  0  0  0  0  0  0  0  0
   35.3615   -8.7457   15.7498 C   0  0  0  0  0  0  0  0  0  0  0  0
   35.8427   -8.5992   14.4418 C   0  0  0  0  0  0  0  0  0  0  0  0
   37.2382   -8.4989   14.2742 N   0  0  0  0  0  0  0  0  0  0  0  0
   33.4002   -9.0686   17.6573 S   0  0  1  0  0  6  0  0  0  0  0  0
   34.5295   -9.3891   18.5939 O   0  0  0  0  0  0  0  0  0  0  0  0
   32.4532  -10.2318   17.7070 O   0  0  0  0  0  0  0  0  0  0  0  0
   35.6766  -10.7423   10.0804 N   0  0  0  0  0  0  0  0  0  0  0  0
   31.8319   -9.6730   10.1706 Cl  0  0  0  0  0  0  0  0  0  0  0  0
   35.3806   -8.4098   12.0418 N   0  0  0  0  0  0  0  0  0  0  0  0
   32.9275   -7.7606    8.3638 O   0  0  0  0  0  0  0  0  0  0  0  0
   33.4174   -6.3187    6.8108 O   0  0  0  0  0  0  0  0  0  0  0  0
   31.4161   -7.5073    6.6362 F   0  0  0  0  0  0  0  0  0  0  0  0
   31.7100   -5.8319    8.1835 F   0  0  0  0  0  0  0  0  0  0  0  0
   38.0286   -7.8484   15.2710 C   0  0  0  0  0  0  0  0  0  0  0  0
   37.4741   -7.5064   16.4485 N   0  0  0  0  0  0  0  0  0  0  0  0
   38.1613   -6.9074   17.4380 C   0  0  0  0  0  0  0  0  0  0  0  0
   39.4469   -6.6325   17.2658 N   0  0  0  0  0  0  0  0  0  0  0  0
   40.0379   -6.9591   16.1001 C   0  0  0  0  0  0  0  0  0  0  0  0
   39.3377   -7.5603   15.1126 N   0  0  0  0  0  0  0  0  0  0  0  0
   41.3865   -6.6499   15.9715 O   0  0  0  0  0  0  0  0  0  0  0  0
   41.9819   -6.6597   14.6866 C   0  0  0  0  0  0  0  0  0  0  0  0
   37.5368   -6.5415   18.6627 N   0  0  0  0  0  0  0  0  0  0  0  0
   36.1583   -4.6396   19.7271 N   0  0  0  0  0  4  0  0  0  0  0  0
  1  2  2  0
 24  1  1  0
  1 31  1  0
  2  3  1  0
 22  3  2  0
  4  5  1  0
 44  4  1  0
  5 45  1  0
  7  6  1  0
  6 45  1  0
 44  7  1  0
 26  8  1  1
  9 10  1  0
  9 16  1  0
  9 31  1  1
 10 11  2  0
 10 15  1  0
 11 12  1  0
 11 32  1  0
 12 13  2  0
 12 33  1  0
 14 13  1  0
 15 14  2  0
 16 17  2  0
 16 29  1  0
 17 18  1  0
 17 30  1  0
 18 19  2  0
 20 19  1  0
 29 20  2  0
 32 21  1  0
 21 33  1  0
 21 34  1  6
 21 35  1  0
 23 22  1  0
 22 26  1  0
 24 23  2  0
 25 24  1  0
 36 25  1  0
 26 27  2  0
 26 28  2  0
 37 36  2  0
 36 41  1  0
 38 37  1  0
 38 39  2  0
 38 44  1  0
 39 40  1  0
 40 41  2  0
 40 42  1  0
 42 43  1  0
M  CHG  1  45   1
M  END
$$$$
