
     RDKit          3D

 45 50  0  0  0  0  0  0  0  0999 V2000
   35.4689   -8.0841   13.5208 C   0  0  0  0  0  0  0  0  0  0  0  0
   34.2885   -8.6840   13.8647 C   0  0  0  0  0  0  0  0  0  0  0  0
   33.8627   -8.8649   15.1730 C   0  0  0  0  0  0  0  0  0  0  0  0
   38.1133   -4.8133   20.0623 C   0  0  0  0  0  0  0  0  0  0  0  0
   37.5656   -5.3083   21.3644 C   0  0  0  0  0  0  0  0  0  0  0  0
   35.5302   -5.8876   20.3505 C   0  0  0  0  0  0  0  0  0  0  0  0
   36.0041   -5.5793   18.9314 C   0  0  0  0  0  0  0  0  0  0  0  0
   34.0821   -7.1493   18.7603 C   0  0  0  0  0  0  0  0  0  0  0  0
   35.2596   -8.1986   10.9455 C   0  0  1  0  0  0  0  0  0  0  0  0
   35.1589   -7.1724    9.8885 C   0  0  0  0  0  0  0  0  0  0  0  0
   34.3128   -7.2103    8.8033 C   0  0  0  0  0  0  0  0  0  0  0  0
   34.2609   -6.2276    7.8382 C   0  0  0  0  0  0  0  0  0  0  0  0
   35.0937   -5.1450    7.9517 C   0  0  0  0  0  0  0  0  0  0  0  0
   35.9579   -5.0753    9.0311 C   0  0  0  0  0  0  0  0  0  0  0  0
   36.0004   -6.0554    9.9821 C   0  0  0  0  0  0  0  0  0  0  0  0
   35.4394   -9.5628   10.4028 C   0  0  0  0  0  0  0  0  0  0  0  0
   34.4271  -10.3998   10.0523 C   0  0  0  0  0  0  0  0  0  0  0  0
   34.7199  -11.6437    9.4656 C   0  0  0  0  0  0  0  0  0  0  0  0
   36.0223  -12.0411    9.2366 C   0  0  0  0  0  0  0  0  0  0  0  0
   37.0211  -11.1635    9.6096 C   0  0  0  0  0  0  0  0  0  0  0  0
   32.4628   -7.5908    7.4772 C   0  0  1  0  0  0  0  0  0  0  0  0
   34.6553   -8.4240   16.2046 C   0  0  0  0  0  0  0  0  0  0  0  0
   35.8323   -7.8248   15.9024 C   0  0  0  0  0  0  0  0  0  0  0  0
   36.2599   -7.6435   14.5803 C   0  0  0  0  0  0  0  0  0  0  0  0
   37.5162   -7.0357   14.3851 N   0  0  0  0  0  0  0  0  0  0  0  0
   34.0865   -8.6706   17.8585 S   0  0  1  0  0  6  0  0  0  0  0  0
   35.0149   -9.6188   18.5614 O   0  0  0  0  0  0  0  0  0  0  0  0
   32.7334   -9.3200   17.8451 O   0  0  0  0  0  0  0  0  0  0  0  0
   36.7096  -10.0023   10.1570 N   0  0  0  0  0  0  0  0  0  0  0  0
   32.7238  -10.1025   10.3468 Cl  0  0  0  0  0  0  0  0  0  0  0  0
   35.8319   -7.8978   12.1800 N   0  0  0  0  0  0  0  0  0  0  0  0
   33.3638   -8.1599    8.4093 O   0  0  0  0  0  0  0  0  0  0  0  0
   33.2988   -6.5938    6.9014 O   0  0  0  0  0  0  0  0  0  0  0  0
   31.9884   -8.4995    6.5855 F   0  0  0  0  0  0  0  0  0  0  0  0
   31.4665   -6.9060    8.1589 F   0  0  0  0  0  0  0  0  0  0  0  0
   38.2203   -6.4859   15.5001 C   0  0  0  0  0  0  0  0  0  0  0  0
   37.5563   -6.1893   16.6323 N   0  0  0  0  0  0  0  0  0  0  0  0
   38.1567   -5.6852   17.7258 C   0  0  0  0  0  0  0  0  0  0  0  0
   39.4637   -5.4630   17.7085 N   0  0  0  0  0  0  0  0  0  0  0  0
   40.1634   -5.7469   16.5928 C   0  0  0  0  0  0  0  0  0  0  0  0
   39.5498   -6.2525   15.4998 N   0  0  0  0  0  0  0  0  0  0  0  0
   41.5297   -5.4962   16.6277 O   0  0  0  0  0  0  0  0  0  0  0  0
   42.3616   -6.0400   15.6188 C   0  0  0  0  0  0  0  0  0  0  0  0
   37.4189   -5.3642   18.8991 N   0  0  0  0  0  0  0  0  0  0  0  0
   36.6494   -6.3936   21.1348 N   0  0  0  0  0  4  0  0  0  0  0  0
  1  2  2  0
 24  1  1  0
  1 31  1  0
  2  3  1  0
 22  3  2  0
  4  5  1  0
 44  4  1  0
  5 45  1  0
  7  6  1  0
  6 45  1  0
 44  7  1  0
 26  8  1  1
  9 10  1  0
  9 16  1  0
  9 31  1  1
 10 11  2  0
 10 15  1  0
 11 12  1  0
 11 32  1  0
 12 13  2  0
 12 33  1  0
 14 13  1  0
 15 14  2  0
 16 17  2  0
 16 29  1  0
 17 18  1  0
 17 30  1  0
 18 19  2  0
 20 19  1  0
 29 20  2  0
 32 21  1  0
 21 33  1  0
 21 34  1  6
 21 35  1  0
 23 22  1  0
 22 26  1  0
 24 23  2  0
 25 24  1  0
 36 25  1  0
 26 27  2  0
 26 28  2  0
 37 36  2  0
 36 41  1  0
 38 37  1  0
 38 39  2  0
 38 44  1  0
 39 40  1  0
 40 41  2  0
 40 42  1  0
 42 43  1  0
M  CHG  1  45   1
M  END
$$$$
