
     RDKit          3D

 45 50  0  0  0  0  0  0  0  0999 V2000
   37.7060   -7.2147   12.6641 C   0  0  0  0  0  0  0  0  0  0  0  0
   38.5384   -8.1834   12.0989 C   0  0  0  0  0  0  0  0  0  0  0  0
   39.6330   -8.6886   12.7544 C   0  0  0  0  0  0  0  0  0  0  0  0
   35.1754   -2.6129   19.3426 C   0  0  0  0  0  0  0  0  0  0  0  0
   35.5843   -1.1488   19.4535 C   0  0  0  0  0  0  0  0  0  0  0  0
   33.8959   -1.1031   17.7305 C   0  0  0  0  0  0  0  0  0  0  0  0
   34.5971   -2.2364   16.9736 C   0  0  0  0  0  0  0  0  0  0  0  0
   42.4907   -7.5246   15.0949 C   0  0  0  0  0  0  0  0  0  0  0  0
   36.3031   -7.2629   10.6375 C   0  0  1  0  0  0  0  0  0  0  0  0
   34.8738   -7.6165   10.4629 C   0  0  0  0  0  0  0  0  0  0  0  0
   34.5545   -8.9594   10.3535 C   0  0  0  0  0  0  0  0  0  0  0  0
   33.2484   -9.3947   10.1964 C   0  0  0  0  0  0  0  0  0  0  0  0
   32.2169   -8.4822   10.1444 C   0  0  0  0  0  0  0  0  0  0  0  0
   32.5256   -7.1412   10.2527 C   0  0  0  0  0  0  0  0  0  0  0  0
   33.8490   -6.7038   10.4119 C   0  0  0  0  0  0  0  0  0  0  0  0
   36.8428   -6.4434    9.5327 C   0  0  0  0  0  0  0  0  0  0  0  0
   37.1550   -7.0200    8.3334 C   0  0  0  0  0  0  0  0  0  0  0  0
   37.6712   -6.2807    7.2653 C   0  0  0  0  0  0  0  0  0  0  0  0
   37.8737   -4.9306    7.4192 C   0  0  0  0  0  0  0  0  0  0  0  0
   37.5504   -4.3727    8.6398 C   0  0  0  0  0  0  0  0  0  0  0  0
   34.5216  -11.2621   10.1979 C   0  0  1  0  0  0  0  0  0  0  0  0
   39.9433   -8.2491   14.0001 C   0  0  0  0  0  0  0  0  0  0  0  0
   39.1327   -7.2886   14.5810 C   0  0  0  0  0  0  0  0  0  0  0  0
   38.0118   -6.7439   13.9599 C   0  0  0  0  0  0  0  0  0  0  0  0
   37.2102   -5.7716   14.5780 N   0  0  0  0  0  0  0  0  0  0  0  0
   41.3222   -8.8597   14.8736 S   0  0  1  0  0  6  0  0  0  0  0  0
   42.0209   -9.9404   14.0958 O   0  0  0  0  0  0  0  0  0  0  0  0
   40.9387   -9.4445   16.2035 O   0  0  0  0  0  0  0  0  0  0  0  0
   37.0489   -5.1217    9.6609 N   0  0  0  0  0  0  0  0  0  0  0  0
   36.9092   -8.7136    8.1021 Cl  0  0  0  0  0  0  0  0  0  0  0  0
   36.6033   -6.7313   11.9366 N   0  0  0  0  0  0  0  0  0  0  0  0
   35.3293  -10.1045   10.3662 O   0  0  0  0  0  0  0  0  0  0  0  0
   33.1936  -10.7781   10.1114 O   0  0  0  0  0  0  0  0  0  0  0  0
   34.9022  -11.9167    9.0338 F   0  0  0  0  0  0  0  0  0  0  0  0
   34.6355  -12.0828   11.3096 F   0  0  0  0  0  0  0  0  0  0  0  0
   37.1420   -5.4668   15.9340 C   0  0  0  0  0  0  0  0  0  0  0  0
   36.3331   -4.4392   16.3490 N   0  0  0  0  0  0  0  0  0  0  0  0
   36.1851   -4.0551   17.6153 C   0  0  0  0  0  0  0  0  0  0  0  0
   36.8922   -4.7385   18.5574 N   0  0  0  0  0  0  0  0  0  0  0  0
   37.6906   -5.7491   18.1710 C   0  0  0  0  0  0  0  0  0  0  0  0
   37.8009   -6.0902   16.8935 N   0  0  0  0  0  0  0  0  0  0  0  0
   38.4452   -6.4909   19.1008 O   0  0  0  0  0  0  0  0  0  0  0  0
   38.9582   -7.7312   18.6804 C   0  0  0  0  0  0  0  0  0  0  0  0
   35.3298   -2.9832   17.9606 N   0  0  0  0  0  0  0  0  0  0  0  0
   34.8648   -0.3475   18.5064 N   0  0  0  0  0  4  0  0  0  0  0  0
  1  2  2  0
 24  1  1  0
  1 31  1  0
  2  3  1  0
 22  3  2  0
  5  4  1  1
  4 44  1  6
 45  5  1  1
  6  7  1  1
  6 45  1  0
  7 44  1  6
  8 26  1  6
  9 10  1  0
  9 16  1  0
  9 31  1  1
 10 11  2  0
 10 15  1  0
 11 12  1  0
 11 32  1  0
 12 13  2  0
 12 33  1  0
 14 13  1  0
 15 14  2  0
 16 17  2  0
 16 29  1  0
 17 18  1  0
 17 30  1  0
 18 19  2  0
 20 19  1  0
 29 20  2  0
 32 21  1  0
 21 33  1  0
 21 34  1  6
 21 35  1  0
 23 22  1  0
 26 22  1  6
 24 23  2  0
 25 24  1  0
 36 25  1  0
 26 27  2  0
 26 28  2  0
 37 36  2  0
 36 41  1  0
 38 37  1  0
 38 39  2  0
 38 44  1  0
 39 40  1  0
 40 41  2  0
 40 42  1  0
 43 42  1  6
M  CHG  1  45   1
M  END
$$$$
