
     RDKit          3D

 45 50  0  0  0  0  0  0  0  0999 V2000
   35.4183   -8.3380   14.0370 C   0  0  0  0  0  0  0  0  0  0  0  0
   34.0734   -8.5879   14.0524 C   0  0  0  0  0  0  0  0  0  0  0  0
   33.3373   -8.8012   15.2092 C   0  0  0  0  0  0  0  0  0  0  0  0
   35.0756   -5.6879   19.1476 C   0  0  0  0  0  0  0  0  0  0  0  0
   34.1739   -4.5163   19.3817 C   0  0  0  0  0  0  0  0  0  0  0  0
   35.8569   -3.3878   20.5649 C   0  0  0  0  0  0  0  0  0  0  0  0
   36.9376   -4.4255   20.2672 C   0  0  0  0  0  0  0  0  0  0  0  0
   32.8688  -10.7700   18.2274 C   0  0  0  0  0  0  0  0  0  0  0  0
   35.8276   -8.2693   11.4842 C   0  0  1  0  0  0  0  0  0  0  0  0
   35.8804   -7.1273   10.5496 C   0  0  0  0  0  0  0  0  0  0  0  0
   35.0141   -6.8974    9.5047 C   0  0  0  0  0  0  0  0  0  0  0  0
   35.1097   -5.8167    8.6546 C   0  0  0  0  0  0  0  0  0  0  0  0
   36.1200   -4.9109    8.8478 C   0  0  0  0  0  0  0  0  0  0  0  0
   37.0093   -5.1120    9.8896 C   0  0  0  0  0  0  0  0  0  0  0  0
   36.9046   -6.1870   10.7264 C   0  0  0  0  0  0  0  0  0  0  0  0
   36.2128   -9.5476   10.8475 C   0  0  0  0  0  0  0  0  0  0  0  0
   35.3625  -10.3697   10.1772 C   0  0  0  0  0  0  0  0  0  0  0  0
   35.8600  -11.5192    9.5381 C   0  0  0  0  0  0  0  0  0  0  0  0
   37.2029  -11.8381    9.5765 C   0  0  0  0  0  0  0  0  0  0  0  0
   38.0325  -10.9790   10.2699 C   0  0  0  0  0  0  0  0  0  0  0  0
   33.0944   -6.8053    8.2274 C   0  0  1  0  0  0  0  0  0  0  0  0
   33.9728   -8.7644   16.4264 C   0  0  0  0  0  0  0  0  0  0  0  0
   35.3052   -8.5195   16.4507 C   0  0  0  0  0  0  0  0  0  0  0  0
   36.0461   -8.3047   15.2808 C   0  0  0  0  0  0  0  0  0  0  0  0
   37.4316   -8.0902   15.4237 N   0  0  0  0  0  0  0  0  0  0  0  0
   33.0088   -9.0415   17.8802 S   0  0  1  0  0  6  0  0  0  0  0  0
   31.6241   -8.5030   17.6619 O   0  0  0  0  0  0  0  0  0  0  0  0
   33.5915   -8.2815   19.0358 O   0  0  0  0  0  0  0  0  0  0  0  0
   37.5311   -9.9072   10.8573 N   0  0  0  0  0  0  0  0  0  0  0  0
   33.6216  -10.1726   10.0969 Cl  0  0  0  0  0  0  0  0  0  0  0  0
   36.1043   -8.0962   12.8390 N   0  0  0  0  0  0  0  0  0  0  0  0
   33.9056   -7.6213    9.0523 O   0  0  0  0  0  0  0  0  0  0  0  0
   34.0760   -5.9054    7.7266 O   0  0  0  0  0  0  0  0  0  0  0  0
   32.4479   -7.5130    7.2644 F   0  0  0  0  0  0  0  0  0  0  0  0
   32.2487   -6.0439    9.0220 F   0  0  0  0  0  0  0  0  0  0  0  0
   37.9194   -7.2935   16.5047 C   0  0  0  0  0  0  0  0  0  0  0  0
   37.0523   -6.7168   17.3571 N   0  0  0  0  0  0  0  0  0  0  0  0
   37.4403   -5.9682   18.4056 C   0  0  0  0  0  0  0  0  0  0  0  0
   38.7334   -5.7773   18.6279 N   0  0  0  0  0  0  0  0  0  0  0  0
   39.6326   -6.3381   17.7961 C   0  0  0  0  0  0  0  0  0  0  0  0
   39.2314   -7.0879   16.7455 N   0  0  0  0  0  0  0  0  0  0  0  0
   40.9744   -6.1077   18.0743 O   0  0  0  0  0  0  0  0  0  0  0  0
   41.3827   -5.9177   19.4170 C   0  0  0  0  0  0  0  0  0  0  0  0
   36.4944   -5.3566   19.2745 N   0  0  0  0  0  0  0  0  0  0  0  0
   34.9438   -3.3021   19.4324 N   0  0  0  0  0  4  0  0  0  0  0  0
  1  2  2  0
 24  1  1  0
  1 31  1  0
  2  3  1  0
 22  3  2  0
  4  5  1  0
 44  4  1  0
  5 45  1  0
  7  6  1  0
  6 45  1  0
 44  7  1  0
 26  8  1  1
  9 10  1  0
  9 16  1  0
  9 31  1  1
 10 11  2  0
 10 15  1  0
 11 12  1  0
 11 32  1  0
 12 13  2  0
 12 33  1  0
 14 13  1  0
 15 14  2  0
 16 17  2  0
 16 29  1  0
 17 18  1  0
 17 30  1  0
 18 19  2  0
 20 19  1  0
 29 20  2  0
 32 21  1  0
 21 33  1  0
 21 34  1  6
 21 35  1  0
 23 22  1  0
 22 26  1  0
 24 23  2  0
 25 24  1  0
 36 25  1  0
 26 27  2  0
 26 28  2  0
 37 36  2  0
 36 41  1  0
 38 37  1  0
 38 39  2  0
 38 44  1  0
 39 40  1  0
 40 41  2  0
 40 42  1  0
 42 43  1  0
M  CHG  1  45   1
M  END
$$$$
