
     RDKit          3D

 45 50  0  0  0  0  0  0  0  0999 V2000
   35.4581   -7.5139   14.4659 C   0  0  0  0  0  0  0  0  0  0  0  0
   34.7530   -8.6401   14.0355 C   0  0  0  0  0  0  0  0  0  0  0  0
   33.7839   -9.2401   14.7996 C   0  0  0  0  0  0  0  0  0  0  0  0
   36.7617   -1.3560   20.1819 C   0  0  0  0  0  0  0  0  0  0  0  0
   37.6905   -1.5454   21.3755 C   0  0  0  0  0  0  0  0  0  0  0  0
   39.2292   -1.3373   19.5287 C   0  0  0  0  0  0  0  0  0  0  0  0
   38.4644   -2.4021   18.7346 C   0  0  0  0  0  0  0  0  0  0  0  0
   30.6504   -8.9372   16.4497 C   0  0  0  0  0  0  0  0  0  0  0  0
   36.7787   -7.5660   12.3848 C   0  0  1  0  0  0  0  0  0  0  0  0
   36.5744   -6.6733   11.2188 C   0  0  0  0  0  0  0  0  0  0  0  0
   35.6675   -7.0772   10.2535 C   0  0  0  0  0  0  0  0  0  0  0  0
   35.3984   -6.3113    9.1304 C   0  0  0  0  0  0  0  0  0  0  0  0
   36.0404   -5.1060    8.9452 C   0  0  0  0  0  0  0  0  0  0  0  0
   36.9462   -4.6951    9.9025 C   0  0  0  0  0  0  0  0  0  0  0  0
   37.2162   -5.4727   11.0384 C   0  0  0  0  0  0  0  0  0  0  0  0
   38.1003   -8.2268   12.3920 C   0  0  0  0  0  0  0  0  0  0  0  0
   38.2691   -9.4408   11.7869 C   0  0  0  0  0  0  0  0  0  0  0  0
   39.5014  -10.1004   11.7750 C   0  0  0  0  0  0  0  0  0  0  0  0
   40.5819   -9.5151   12.3894 C   0  0  0  0  0  0  0  0  0  0  0  0
   40.3852   -8.2893   12.9929 C   0  0  0  0  0  0  0  0  0  0  0  0
   34.1158   -8.1617    8.9331 C   0  0  1  0  0  0  0  0  0  0  0  0
   33.4777   -8.7426   16.0243 C   0  0  0  0  0  0  0  0  0  0  0  0
   34.1638   -7.6266   16.4727 C   0  0  0  0  0  0  0  0  0  0  0  0
   35.1545   -6.9807   15.7378 C   0  0  0  0  0  0  0  0  0  0  0  0
   35.8304   -5.8499   16.2220 N   0  0  0  0  0  0  0  0  0  0  0  0
   32.2551   -9.4683   17.0322 S   0  0  1  0  0  6  0  0  0  0  0  0
   32.3866   -9.0101   18.4583 O   0  0  0  0  0  0  0  0  0  0  0  0
   32.3394  -10.9685   17.0365 O   0  0  0  0  0  0  0  0  0  0  0  0
   39.1706   -7.6730   12.9866 N   0  0  0  0  0  0  0  0  0  0  0  0
   36.9344  -10.2041   11.0007 Cl  0  0  0  0  0  0  0  0  0  0  0  0
   36.4460   -6.9503   13.6381 N   0  0  0  0  0  0  0  0  0  0  0  0
   34.8725   -8.2023   10.1358 O   0  0  0  0  0  0  0  0  0  0  0  0
   34.4585   -6.9318    8.3207 O   0  0  0  0  0  0  0  0  0  0  0  0
   34.4691   -9.2433    8.1370 F   0  0  0  0  0  0  0  0  0  0  0  0
   32.7609   -8.1615    9.2278 F   0  0  0  0  0  0  0  0  0  0  0  0
   35.4643   -5.0369   17.2903 C   0  0  0  0  0  0  0  0  0  0  0  0
   36.3630   -4.1181   17.7707 N   0  0  0  0  0  0  0  0  0  0  0  0
   36.1288   -3.2873   18.7844 C   0  0  0  0  0  0  0  0  0  0  0  0
   34.9063   -3.3639   19.3796 N   0  0  0  0  0  0  0  0  0  0  0  0
   34.0114   -4.2580   18.9235 C   0  0  0  0  0  0  0  0  0  0  0  0
   34.2978   -5.0629   17.9084 N   0  0  0  0  0  0  0  0  0  0  0  0
   32.7321   -4.3819   19.4998 O   0  0  0  0  0  0  0  0  0  0  0  0
   31.7869   -5.1723   18.8215 C   0  0  0  0  0  0  0  0  0  0  0  0
   37.1109   -2.3677   19.2200 N   0  0  0  0  0  0  0  0  0  0  0  0
   39.0614   -1.5625   20.9545 N   0  0  0  0  0  4  0  0  0  0  0  0
  1  2  2  0
 24  1  1  0
  1 31  1  0
  2  3  1  0
 22  3  2  0
  5  4  1  1
  4 44  1  6
 45  5  1  1
  6  7  1  1
  6 45  1  0
  7 44  1  6
  8 26  1  6
  9 10  1  0
  9 16  1  0
  9 31  1  1
 10 11  2  0
 10 15  1  0
 11 12  1  0
 11 32  1  0
 12 13  2  0
 12 33  1  0
 14 13  1  0
 15 14  2  0
 16 17  2  0
 16 29  1  0
 17 18  1  0
 17 30  1  0
 18 19  2  0
 20 19  1  0
 29 20  2  0
 32 21  1  0
 21 33  1  0
 21 34  1  6
 21 35  1  0
 23 22  1  0
 26 22  1  6
 24 23  2  0
 25 24  1  0
 36 25  1  0
 26 27  2  0
 26 28  2  0
 37 36  2  0
 36 41  1  0
 38 37  1  0
 38 39  2  0
 38 44  1  0
 39 40  1  0
 40 41  2  0
 40 42  1  0
 43 42  1  6
M  CHG  1  45   1
M  END
$$$$
