
     RDKit          3D

 45 50  0  0  0  0  0  0  0  0999 V2000
   34.9580   -8.3597   13.0235 C   0  0  0  0  0  0  0  0  0  0  0  0
   33.6691   -8.6935   13.3384 C   0  0  0  0  0  0  0  0  0  0  0  0
   33.1460   -8.6413   14.6226 C   0  0  0  0  0  0  0  0  0  0  0  0
   37.3901   -3.9768   18.8546 C   0  0  0  0  0  0  0  0  0  0  0  0
   36.8949   -4.2105   20.2476 C   0  0  0  0  0  0  0  0  0  0  0  0
   34.9460   -5.2388   19.4407 C   0  0  0  0  0  0  0  0  0  0  0  0
   35.3902   -5.2211   17.9793 C   0  0  0  0  0  0  0  0  0  0  0  0
   34.5160   -8.3056   18.5156 C   0  0  0  0  0  0  0  0  0  0  0  0
   34.8406   -8.5942   10.4506 C   0  0  1  0  0  0  0  0  0  0  0  0
   34.3082   -7.4538    9.6781 C   0  0  0  0  0  0  0  0  0  0  0  0
   34.6608   -7.1142    8.3915 C   0  0  0  0  0  0  0  0  0  0  0  0
   34.1382   -6.0334    7.7144 C   0  0  0  0  0  0  0  0  0  0  0  0
   33.2140   -5.2419    8.3453 C   0  0  0  0  0  0  0  0  0  0  0  0
   32.8369   -5.5550    9.6401 C   0  0  0  0  0  0  0  0  0  0  0  0
   33.3616   -6.6293   10.3015 C   0  0  0  0  0  0  0  0  0  0  0  0
   35.3772   -9.6688    9.5874 C   0  0  0  0  0  0  0  0  0  0  0  0
   34.6216  -10.5105    8.8333 C   0  0  0  0  0  0  0  0  0  0  0  0
   35.2473  -11.4400    7.9837 C   0  0  0  0  0  0  0  0  0  0  0  0
   36.6229  -11.5216    7.8972 C   0  0  0  0  0  0  0  0  0  0  0  0
   37.3539  -10.6512    8.6813 C   0  0  0  0  0  0  0  0  0  0  0  0
   35.2919   -7.2693    6.1772 C   0  0  1  0  0  0  0  0  0  0  0  0
   33.9494   -8.2329   15.6593 C   0  0  0  0  0  0  0  0  0  0  0  0
   35.2325   -7.8943   15.3857 C   0  0  0  0  0  0  0  0  0  0  0  0
   35.7581   -7.9481   14.0878 C   0  0  0  0  0  0  0  0  0  0  0  0
   37.1147   -7.6029   13.9253 N   0  0  0  0  0  0  0  0  0  0  0  0
   33.2548   -8.1789   17.2823 S   0  0  1  0  0  6  0  0  0  0  0  0
   32.3226   -9.3432   17.4571 O   0  0  0  0  0  0  0  0  0  0  0  0
   32.4302   -6.9357   17.4473 O   0  0  0  0  0  0  0  0  0  0  0  0
   36.7329   -9.7897    9.4672 N   0  0  0  0  0  0  0  0  0  0  0  0
   32.8711  -10.6102    8.8789 Cl  0  0  0  0  0  0  0  0  0  0  0  0
   35.4223   -8.3991   11.7018 N   0  0  0  0  0  0  0  0  0  0  0  0
   35.5593   -7.7061    7.4971 O   0  0  0  0  0  0  0  0  0  0  0  0
   34.7168   -5.9966    6.4490 O   0  0  0  0  0  0  0  0  0  0  0  0
   36.4091   -7.2197    5.4056 F   0  0  0  0  0  0  0  0  0  0  0  0
   34.2733   -8.0402    5.6344 F   0  0  0  0  0  0  0  0  0  0  0  0
   37.7296   -6.6902   14.8365 C   0  0  0  0  0  0  0  0  0  0  0  0
   37.0290   -6.2114   15.8809 N   0  0  0  0  0  0  0  0  0  0  0  0
   37.5481   -5.3628   16.7870 C   0  0  0  0  0  0  0  0  0  0  0  0
   38.8077   -4.9675   16.6639 N   0  0  0  0  0  0  0  0  0  0  0  0
   39.5416   -5.4248   15.6309 C   0  0  0  0  0  0  0  0  0  0  0  0
   39.0096   -6.2766   14.7263 N   0  0  0  0  0  0  0  0  0  0  0  0
   40.8555   -4.9804   15.5488 O   0  0  0  0  0  0  0  0  0  0  0  0
   41.8404   -5.8251   14.9812 C   0  0  0  0  0  0  0  0  0  0  0  0
   36.7710   -4.8608   17.8676 N   0  0  0  0  0  0  0  0  0  0  0  0
   36.1111   -5.4160   20.2980 N   0  0  0  0  0  4  0  0  0  0  0  0
  1  2  2  0
 24  1  1  0
  1 31  1  0
  2  3  1  0
 22  3  2  0
  4  5  1  0
 44  4  1  0
  5 45  1  0
  7  6  1  0
  6 45  1  0
 44  7  1  0
 26  8  1  1
  9 10  1  0
  9 16  1  0
  9 31  1  1
 10 11  2  0
 10 15  1  0
 11 12  1  0
 11 32  1  0
 12 13  2  0
 12 33  1  0
 14 13  1  0
 15 14  2  0
 16 17  2  0
 16 29  1  0
 17 18  1  0
 17 30  1  0
 18 19  2  0
 20 19  1  0
 29 20  2  0
 32 21  1  0
 21 33  1  0
 21 34  1  6
 21 35  1  0
 23 22  1  0
 22 26  1  0
 24 23  2  0
 25 24  1  0
 36 25  1  0
 26 27  2  0
 26 28  2  0
 37 36  2  0
 36 41  1  0
 38 37  1  0
 38 39  2  0
 38 44  1  0
 39 40  1  0
 40 41  2  0
 40 42  1  0
 42 43  1  0
M  CHG  1  45   1
M  END
$$$$
