
     RDKit          3D

 45 50  0  0  0  0  0  0  0  0999 V2000
   34.8942   -8.1498   13.4787 C   0  0  0  0  0  0  0  0  0  0  0  0
   33.5960   -8.6306   13.2937 C   0  0  0  0  0  0  0  0  0  0  0  0
   32.8105   -9.0532   14.3365 C   0  0  0  0  0  0  0  0  0  0  0  0
   34.5471   -7.1322   19.4585 C   0  0  0  0  0  0  0  0  0  0  0  0
   34.3986   -8.2799   20.4504 C   0  0  0  0  0  0  0  0  0  0  0  0
   35.0815   -6.4425   21.8573 C   0  0  0  0  0  0  0  0  0  0  0  0
   36.2585   -6.1302   20.9265 C   0  0  0  0  0  0  0  0  0  0  0  0
   33.3127  -10.6531   17.9574 C   0  0  0  0  0  0  0  0  0  0  0  0
   35.3329   -8.2245   11.0539 C   0  0  1  0  0  0  0  0  0  0  0  0
   35.1077   -7.1424   10.0656 C   0  0  0  0  0  0  0  0  0  0  0  0
   34.0575   -7.2952    9.1762 C   0  0  0  0  0  0  0  0  0  0  0  0
   33.7580   -6.3380    8.2200 C   0  0  0  0  0  0  0  0  0  0  0  0
   34.5141   -5.1892    8.1309 C   0  0  0  0  0  0  0  0  0  0  0  0
   35.5632   -5.0282    9.0137 C   0  0  0  0  0  0  0  0  0  0  0  0
   35.8636   -5.9991    9.9807 C   0  0  0  0  0  0  0  0  0  0  0  0
   36.2625   -9.2693   10.5767 C   0  0  0  0  0  0  0  0  0  0  0  0
   35.7830  -10.3931    9.9638 C   0  0  0  0  0  0  0  0  0  0  0  0
   36.6284  -11.4059    9.5020 C   0  0  0  0  0  0  0  0  0  0  0  0
   37.9860  -11.2738    9.6661 C   0  0  0  0  0  0  0  0  0  0  0  0
   38.4446  -10.1298   10.2877 C   0  0  0  0  0  0  0  0  0  0  0  0
   32.2506   -7.9955    7.9223 C   0  0  1  0  0  0  0  0  0  0  0  0
   33.2865   -9.0143   15.6066 C   0  0  0  0  0  0  0  0  0  0  0  0
   34.5711   -8.5416   15.8148 C   0  0  0  0  0  0  0  0  0  0  0  0
   35.4083   -8.1013   14.7930 C   0  0  0  0  0  0  0  0  0  0  0  0
   36.7061   -7.6267   15.0391 N   0  0  0  0  0  0  0  0  0  0  0  0
   32.3280   -9.5393   16.9642 S   0  0  1  0  0  6  0  0  0  0  0  0
   31.1148  -10.3017   16.5082 O   0  0  0  0  0  0  0  0  0  0  0  0
   31.8430   -8.3865   17.7969 O   0  0  0  0  0  0  0  0  0  0  0  0
   37.5935   -9.1612   10.7265 N   0  0  0  0  0  0  0  0  0  0  0  0
   34.0827  -10.5910    9.7362 Cl  0  0  0  0  0  0  0  0  0  0  0  0
   35.6515   -7.7391   12.3667 N   0  0  0  0  0  0  0  0  0  0  0  0
   33.1263   -8.3018    8.9993 O   0  0  0  0  0  0  0  0  0  0  0  0
   32.6668   -6.7248    7.4560 O   0  0  0  0  0  0  0  0  0  0  0  0
   32.3820   -8.9672    6.9390 F   0  0  0  0  0  0  0  0  0  0  0  0
   30.9466   -7.9058    8.3850 F   0  0  0  0  0  0  0  0  0  0  0  0
   37.1994   -7.0826   16.2209 C   0  0  0  0  0  0  0  0  0  0  0  0
   36.4017   -7.0728   17.3372 N   0  0  0  0  0  0  0  0  0  0  0  0
   36.7612   -6.5817   18.5214 C   0  0  0  0  0  0  0  0  0  0  0  0
   38.0126   -6.0537   18.6199 N   0  0  0  0  0  0  0  0  0  0  0  0
   38.8100   -6.0538   17.5371 C   0  0  0  0  0  0  0  0  0  0  0  0
   38.4002   -6.5570   16.3799 N   0  0  0  0  0  0  0  0  0  0  0  0
   40.1134   -5.5214   17.5800 O   0  0  0  0  0  0  0  0  0  0  0  0
   40.5422   -4.9475   18.7903 C   0  0  0  0  0  0  0  0  0  0  0  0
   35.8774   -6.6095   19.6251 N   0  0  0  0  0  0  0  0  0  0  0  0
   34.7422   -7.8531   21.7758 N   0  0  0  0  0  4  0  0  0  0  0  0
  1  2  2  0
 24  1  1  0
  1 31  1  0
  2  3  1  0
 22  3  2  0
  5  4  1  1
  4 44  1  6
 45  5  1  1
  6  7  1  1
  6 45  1  0
  7 44  1  6
  8 26  1  6
  9 10  1  0
  9 16  1  0
  9 31  1  1
 10 11  2  0
 10 15  1  0
 11 12  1  0
 11 32  1  0
 12 13  2  0
 12 33  1  0
 14 13  1  0
 15 14  2  0
 16 17  2  0
 16 29  1  0
 17 18  1  0
 17 30  1  0
 18 19  2  0
 20 19  1  0
 29 20  2  0
 32 21  1  0
 21 33  1  0
 21 34  1  6
 21 35  1  0
 23 22  1  0
 26 22  1  6
 24 23  2  0
 25 24  1  0
 36 25  1  0
 26 27  2  0
 26 28  2  0
 37 36  2  0
 36 41  1  0
 38 37  1  0
 38 39  2  0
 38 44  1  0
 39 40  1  0
 40 41  2  0
 40 42  1  0
 43 42  1  6
M  CHG  1  45   1
M  END
$$$$
