
     RDKit          3D

 45 50  0  0  0  0  0  0  0  0999 V2000
   37.2555   -6.8890   13.0159 C   0  0  0  0  0  0  0  0  0  0  0  0
   38.1838   -7.8878   12.9053 C   0  0  0  0  0  0  0  0  0  0  0  0
   39.1448   -8.1635   13.8675 C   0  0  0  0  0  0  0  0  0  0  0  0
   39.1328   -5.8503   18.5784 C   0  0  0  0  0  0  0  0  0  0  0  0
   39.2703   -6.7081   19.7974 C   0  0  0  0  0  0  0  0  0  0  0  0
   38.8277   -4.8801   21.2005 C   0  0  0  0  0  0  0  0  0  0  0  0
   38.4950   -3.9221   20.0581 C   0  0  0  0  0  0  0  0  0  0  0  0
   41.8575   -6.7653   15.9890 C   0  0  0  0  0  0  0  0  0  0  0  0
   35.8976   -7.3355   10.8605 C   0  0  1  0  0  0  0  0  0  0  0  0
   34.7073   -6.8961   10.1051 C   0  0  0  0  0  0  0  0  0  0  0  0
   33.6711   -7.7015    9.6895 C   0  0  0  0  0  0  0  0  0  0  0  0
   32.5823   -7.2429    8.9796 C   0  0  0  0  0  0  0  0  0  0  0  0
   32.5135   -5.9115    8.6614 C   0  0  0  0  0  0  0  0  0  0  0  0
   33.5392   -5.0732    9.0639 C   0  0  0  0  0  0  0  0  0  0  0  0
   34.6138   -5.5389    9.7676 C   0  0  0  0  0  0  0  0  0  0  0  0
   36.9515   -7.8998    9.9895 C   0  0  0  0  0  0  0  0  0  0  0  0
   36.9734   -9.1764    9.5227 C   0  0  0  0  0  0  0  0  0  0  0  0
   37.9832   -9.5771    8.6300 C   0  0  0  0  0  0  0  0  0  0  0  0
   38.9638   -8.6988    8.2136 C   0  0  0  0  0  0  0  0  0  0  0  0
   38.9077   -7.4126    8.7129 C   0  0  0  0  0  0  0  0  0  0  0  0
   32.0869   -9.3783    9.6251 C   0  0  1  0  0  0  0  0  0  0  0  0
   39.1890   -7.4028   15.0104 C   0  0  0  0  0  0  0  0  0  0  0  0
   38.2850   -6.4039   15.1552 C   0  0  0  0  0  0  0  0  0  0  0  0
   37.3157   -6.1276   14.1817 C   0  0  0  0  0  0  0  0  0  0  0  0
   36.4468   -5.0450   14.4242 N   0  0  0  0  0  0  0  0  0  0  0  0
   40.4249   -7.7774   16.2153 S   0  0  1  0  0  6  0  0  0  0  0  0
   40.8455   -9.2106   16.0590 O   0  0  0  0  0  0  0  0  0  0  0  0
   39.8537   -7.6422   17.5966 O   0  0  0  0  0  0  0  0  0  0  0  0
   37.9438   -7.0701    9.5489 N   0  0  0  0  0  0  0  0  0  0  0  0
   35.8670  -10.4478   10.0083 Cl  0  0  0  0  0  0  0  0  0  0  0  0
   36.2857   -6.6781   12.0264 N   0  0  0  0  0  0  0  0  0  0  0  0
   33.4512   -9.0739    9.8501 O   0  0  0  0  0  0  0  0  0  0  0  0
   31.7416   -8.3246    8.7335 O   0  0  0  0  0  0  0  0  0  0  0  0
   31.9061  -10.6224    9.1100 F   0  0  0  0  0  0  0  0  0  0  0  0
   31.3655   -9.1461   10.7878 F   0  0  0  0  0  0  0  0  0  0  0  0
   36.5258   -4.3337   15.6607 C   0  0  0  0  0  0  0  0  0  0  0  0
   37.3568   -4.7621   16.6287 N   0  0  0  0  0  0  0  0  0  0  0  0
   37.4948   -4.1334   17.8102 C   0  0  0  0  0  0  0  0  0  0  0  0
   36.7885   -3.0378   18.0526 N   0  0  0  0  0  0  0  0  0  0  0  0
   35.9452   -2.5777   17.1082 C   0  0  0  0  0  0  0  0  0  0  0  0
   35.8140   -3.2177   15.9249 N   0  0  0  0  0  0  0  0  0  0  0  0
   35.2296   -1.4261   17.4124 O   0  0  0  0  0  0  0  0  0  0  0  0
   33.8141   -1.4596   17.3825 C   0  0  0  0  0  0  0  0  0  0  0  0
   38.3683   -4.6270   18.8187 N   0  0  0  0  0  0  0  0  0  0  0  0
   38.4041   -6.2273   20.8406 N   0  0  0  0  0  4  0  0  0  0  0  0
  1  2  2  0
 24  1  1  0
  1 31  1  0
  2  3  1  0
 22  3  2  0
  4  5  1  0
 44  4  1  0
  5 45  1  0
  7  6  1  0
  6 45  1  0
 44  7  1  0
 26  8  1  1
  9 10  1  0
  9 16  1  0
  9 31  1  6
 10 11  2  0
 10 15  1  0
 11 12  1  0
 11 32  1  0
 12 13  2  0
 12 33  1  0
 14 13  1  0
 15 14  2  0
 16 17  2  0
 16 29  1  0
 17 18  1  0
 17 30  1  0
 18 19  2  0
 20 19  1  0
 29 20  2  0
 32 21  1  0
 21 33  1  0
 21 34  1  6
 21 35  1  0
 23 22  1  0
 22 26  1  0
 24 23  2  0
 25 24  1  0
 36 25  1  0
 26 27  2  0
 26 28  2  0
 37 36  2  0
 36 41  1  0
 38 37  1  0
 38 39  2  0
 38 44  1  0
 39 40  1  0
 40 41  2  0
 40 42  1  0
 42 43  1  0
M  CHG  1  45   1
M  END
$$$$
