
     RDKit          3D

 45 50  0  0  0  0  0  0  0  0999 V2000
   32.5297   -9.8502   11.4707 C   0  0  0  0  0  0  0  0  0  0  0  0
   31.6232  -10.5609   10.6808 C   0  0  0  0  0  0  0  0  0  0  0  0
   30.5225  -11.1899   11.2058 C   0  0  0  0  0  0  0  0  0  0  0  0
   36.4167   -7.0867   16.8556 C   0  0  0  0  0  0  0  0  0  0  0  0
   36.4739   -5.5922   17.1497 C   0  0  0  0  0  0  0  0  0  0  0  0
   36.7049   -6.5773   19.3401 C   0  0  0  0  0  0  0  0  0  0  0  0
   35.4731   -7.4584   19.1050 C   0  0  0  0  0  0  0  0  0  0  0  0
   27.4147  -11.1703   12.5892 C   0  0  0  0  0  0  0  0  0  0  0  0
   33.9210   -9.4352    9.4783 C   0  0  1  0  0  0  0  0  0  0  0  0
   34.2957   -8.1891    8.7676 C   0  0  0  0  0  0  0  0  0  0  0  0
   33.9267   -8.0739    7.4379 C   0  0  0  0  0  0  0  0  0  0  0  0
   34.2214   -6.9468    6.6876 C   0  0  0  0  0  0  0  0  0  0  0  0
   34.9021   -5.8937    7.2595 C   0  0  0  0  0  0  0  0  0  0  0  0
   35.2738   -5.9996    8.5847 C   0  0  0  0  0  0  0  0  0  0  0  0
   34.9738   -7.1420    9.3416 C   0  0  0  0  0  0  0  0  0  0  0  0
   34.8495  -10.5562    9.2239 C   0  0  0  0  0  0  0  0  0  0  0  0
   34.5475  -11.5044    8.2869 C   0  0  0  0  0  0  0  0  0  0  0  0
   35.3968  -12.5819    8.0195 C   0  0  0  0  0  0  0  0  0  0  0  0
   36.5745  -12.6975    8.7173 C   0  0  0  0  0  0  0  0  0  0  0  0
   36.8561  -11.7271    9.6577 C   0  0  0  0  0  0  0  0  0  0  0  0
   33.1346   -8.3492    5.2875 C   0  0  1  0  0  0  0  0  0  0  0  0
   30.2799  -11.1368   12.5398 C   0  0  0  0  0  0  0  0  0  0  0  0
   31.1649  -10.4381   13.3433 C   0  0  0  0  0  0  0  0  0  0  0  0
   32.2951   -9.7830   12.8616 C   0  0  0  0  0  0  0  0  0  0  0  0
   33.1719   -9.0822   13.7044 N   0  0  0  0  0  0  0  0  0  0  0  0
   28.8959  -11.9187   13.2545 S   0  0  1  0  0  6  0  0  0  0  0  0
   28.8684  -11.7156   14.7441 O   0  0  0  0  0  0  0  0  0  0  0  0
   28.8896  -13.4006   13.0064 O   0  0  0  0  0  0  0  0  0  0  0  0
   36.0065  -10.6891    9.8944 N   0  0  0  0  0  0  0  0  0  0  0  0
   33.0781  -11.3889    7.3872 Cl  0  0  0  0  0  0  0  0  0  0  0  0
   33.6437   -9.2340   10.8722 N   0  0  0  0  0  0  0  0  0  0  0  0
   33.2515   -8.9245    6.5822 O   0  0  0  0  0  0  0  0  0  0  0  0
   33.7469   -7.0765    5.3906 O   0  0  0  0  0  0  0  0  0  0  0  0
   33.7916   -9.1580    4.3696 F   0  0  0  0  0  0  0  0  0  0  0  0
   31.7966   -8.1856    4.9628 F   0  0  0  0  0  0  0  0  0  0  0  0
   33.1674   -9.0526   15.0955 C   0  0  0  0  0  0  0  0  0  0  0  0
   34.1846   -8.4094   15.7545 N   0  0  0  0  0  0  0  0  0  0  0  0
   34.2888   -8.3139   17.0784 C   0  0  0  0  0  0  0  0  0  0  0  0
   33.3100   -8.9003   17.8216 N   0  0  0  0  0  0  0  0  0  0  0  0
   32.3042   -9.5356   17.1947 C   0  0  0  0  0  0  0  0  0  0  0  0
   32.2496   -9.6006   15.8706 N   0  0  0  0  0  0  0  0  0  0  0  0
   31.2647  -10.1601   17.9114 O   0  0  0  0  0  0  0  0  0  0  0  0
   30.2129  -10.7275   17.1699 C   0  0  0  0  0  0  0  0  0  0  0  0
   35.3715   -7.6322   17.6808 N   0  0  0  0  0  0  0  0  0  0  0  0
   36.6012   -5.3565   18.5587 N   0  0  0  0  0  4  0  0  0  0  0  0
  1  2  2  0
 24  1  1  0
  1 31  1  0
  2  3  1  0
 22  3  2  0
  5  4  1  1
  4 44  1  6
 45  5  1  1
  6  7  1  1
  6 45  1  0
  7 44  1  6
  8 26  1  6
  9 10  1  0
  9 16  1  0
  9 31  1  1
 10 11  2  0
 10 15  1  0
 11 12  1  0
 11 32  1  0
 12 13  2  0
 12 33  1  0
 14 13  1  0
 15 14  2  0
 16 17  2  0
 16 29  1  0
 17 18  1  0
 17 30  1  0
 18 19  2  0
 20 19  1  0
 29 20  2  0
 32 21  1  0
 21 33  1  0
 21 34  1  6
 21 35  1  0
 23 22  1  0
 26 22  1  6
 24 23  2  0
 25 24  1  0
 36 25  1  0
 26 27  2  0
 26 28  2  0
 37 36  2  0
 36 41  1  0
 38 37  1  0
 38 39  2  0
 38 44  1  0
 39 40  1  0
 40 41  2  0
 40 42  1  0
 43 42  1  6
M  CHG  1  45   1
M  END
$$$$
