
     RDKit          3D

 45 50  0  0  0  0  0  0  0  0999 V2000
   35.5798   -9.0306   11.5460 C   0  0  0  0  0  0  0  0  0  0  0  0
   35.5878  -10.2357   10.8984 C   0  0  0  0  0  0  0  0  0  0  0  0
   35.7536  -11.4573   11.5353 C   0  0  0  0  0  0  0  0  0  0  0  0
   35.7563   -5.0277   17.8199 C   0  0  0  0  0  0  0  0  0  0  0  0
   36.0432   -3.6557   18.3451 C   0  0  0  0  0  0  0  0  0  0  0  0
   37.7559   -4.4810   19.7206 C   0  0  0  0  0  0  0  0  0  0  0  0
   37.6937   -5.9009   19.1608 C   0  0  0  0  0  0  0  0  0  0  0  0
   37.7254  -13.1794   14.4371 C   0  0  0  0  0  0  0  0  0  0  0  0
   35.2003   -7.4696    9.5192 C   0  0  1  0  0  0  0  0  0  0  0  0
   33.9008   -6.9613    9.0358 C   0  0  0  0  0  0  0  0  0  0  0  0
   33.7104   -6.1223    7.9611 C   0  0  0  0  0  0  0  0  0  0  0  0
   32.4742   -5.6699    7.5526 C   0  0  0  0  0  0  0  0  0  0  0  0
   31.3617   -6.0693    8.2464 C   0  0  0  0  0  0  0  0  0  0  0  0
   31.5174   -6.9130    9.3330 C   0  0  0  0  0  0  0  0  0  0  0  0
   32.7481   -7.3554    9.7287 C   0  0  0  0  0  0  0  0  0  0  0  0
   36.3489   -6.8820    8.7959 C   0  0  0  0  0  0  0  0  0  0  0  0
   36.8056   -7.3050    7.5873 C   0  0  0  0  0  0  0  0  0  0  0  0
   37.8539   -6.6132    6.9550 C   0  0  0  0  0  0  0  0  0  0  0  0
   38.4382   -5.5061    7.5375 C   0  0  0  0  0  0  0  0  0  0  0  0
   37.9475   -5.1107    8.7662 C   0  0  0  0  0  0  0  0  0  0  0  0
   33.9524   -5.1029    5.9049 C   0  0  1  0  0  0  0  0  0  0  0  0
   35.9217  -11.4872   12.8982 C   0  0  0  0  0  0  0  0  0  0  0  0
   35.9194  -10.3127   13.5739 C   0  0  0  0  0  0  0  0  0  0  0  0
   35.7519   -9.0804   12.9281 C   0  0  0  0  0  0  0  0  0  0  0  0
   35.7977   -7.9207   13.7273 N   0  0  0  0  0  0  0  0  0  0  0  0
   36.1321  -13.0574   13.6791 S   0  0  1  0  0  6  0  0  0  0  0  0
   36.0324  -14.1393   12.6425 O   0  0  0  0  0  0  0  0  0  0  0  0
   35.0227  -13.2956   14.6614 O   0  0  0  0  0  0  0  0  0  0  0  0
   36.9605   -5.7833    9.3308 N   0  0  0  0  0  0  0  0  0  0  0  0
   36.2470   -8.7366    6.7420 Cl  0  0  0  0  0  0  0  0  0  0  0  0
   35.3739   -7.8292   10.8542 N   0  0  0  0  0  0  0  0  0  0  0  0
   34.6229   -5.5466    7.0703 O   0  0  0  0  0  0  0  0  0  0  0  0
   32.6602   -4.8495    6.4436 O   0  0  0  0  0  0  0  0  0  0  0  0
   34.5423   -4.0154    5.3434 F   0  0  0  0  0  0  0  0  0  0  0  0
   33.7983   -6.1682    5.0286 F   0  0  0  0  0  0  0  0  0  0  0  0
   36.6465   -7.8825   14.8759 C   0  0  0  0  0  0  0  0  0  0  0  0
   36.4034   -6.9975   15.8601 N   0  0  0  0  0  0  0  0  0  0  0  0
   37.1500   -6.9164   16.9765 C   0  0  0  0  0  0  0  0  0  0  0  0
   38.1782   -7.7384   17.1348 N   0  0  0  0  0  0  0  0  0  0  0  0
   38.4540   -8.6384   16.1711 C   0  0  0  0  0  0  0  0  0  0  0  0
   37.6975   -8.7106   15.0533 N   0  0  0  0  0  0  0  0  0  0  0  0
   39.5413   -9.4762   16.3868 O   0  0  0  0  0  0  0  0  0  0  0  0
   39.5190  -10.7920   15.8636 C   0  0  0  0  0  0  0  0  0  0  0  0
   36.8756   -5.9539   17.9874 N   0  0  0  0  0  0  0  0  0  0  0  0
   37.4408   -3.5299   18.6623 N   0  0  0  0  0  4  0  0  0  0  0  0
  1  2  2  0
 24  1  1  0
  1 31  1  0
  2  3  1  0
 22  3  2  0
  4  5  1  0
 44  4  1  0
  5 45  1  0
  7  6  1  0
  6 45  1  0
 44  7  1  0
 26  8  1  1
  9 10  1  0
  9 16  1  0
  9 31  1  1
 10 11  2  0
 10 15  1  0
 11 12  1  0
 11 32  1  0
 12 13  2  0
 12 33  1  0
 14 13  1  0
 15 14  2  0
 16 17  2  0
 16 29  1  0
 17 18  1  0
 17 30  1  0
 18 19  2  0
 20 19  1  0
 29 20  2  0
 32 21  1  0
 21 33  1  0
 21 34  1  6
 21 35  1  0
 23 22  1  0
 22 26  1  0
 24 23  2  0
 25 24  1  0
 36 25  1  0
 26 27  2  0
 26 28  2  0
 37 36  2  0
 36 41  1  0
 38 37  1  0
 38 39  2  0
 38 44  1  0
 39 40  1  0
 40 41  2  0
 40 42  1  0
 42 43  1  0
M  CHG  1  45   1
M  END
$$$$
