
     RDKit          3D

 45 50  0  0  0  0  0  0  0  0999 V2000
   35.0468   -7.9214   12.1921 C   0  0  0  0  0  0  0  0  0  0  0  0
   33.7700   -7.4484   12.5030 C   0  0  0  0  0  0  0  0  0  0  0  0
   33.5423   -6.5514   13.5162 C   0  0  0  0  0  0  0  0  0  0  0  0
   38.0236   -5.8687   17.1870 C   0  0  0  0  0  0  0  0  0  0  0  0
   37.1697   -6.4398   18.3129 C   0  0  0  0  0  0  0  0  0  0  0  0
   39.3560   -6.2917   19.3227 C   0  0  0  0  0  0  0  0  0  0  0  0
   39.9859   -7.0265   18.1342 C   0  0  0  0  0  0  0  0  0  0  0  0
   34.8866   -3.3390   15.0062 C   0  0  0  0  0  0  0  0  0  0  0  0
   34.0680   -9.4448   10.5191 C   0  0  1  0  0  0  0  0  0  0  0  0
   33.7851   -8.8998    9.1696 C   0  0  0  0  0  0  0  0  0  0  0  0
   34.8295   -8.8639    8.2610 C   0  0  0  0  0  0  0  0  0  0  0  0
   34.6671   -8.3816    6.9721 C   0  0  0  0  0  0  0  0  0  0  0  0
   33.4376   -7.9175    6.5571 C   0  0  0  0  0  0  0  0  0  0  0  0
   32.3904   -7.9496    7.4560 C   0  0  0  0  0  0  0  0  0  0  0  0
   32.5581   -8.4386    8.7601 C   0  0  0  0  0  0  0  0  0  0  0  0
   34.0836  -10.9217   10.5628 C   0  0  0  0  0  0  0  0  0  0  0  0
   32.9234  -11.6198   10.7497 C   0  0  0  0  0  0  0  0  0  0  0  0
   32.8963  -13.0164   10.8010 C   0  0  0  0  0  0  0  0  0  0  0  0
   34.0702  -13.7160   10.6596 C   0  0  0  0  0  0  0  0  0  0  0  0
   35.2277  -12.9878   10.4718 C   0  0  0  0  0  0  0  0  0  0  0  0
   36.8394   -8.9845    7.1328 C   0  0  1  0  0  0  0  0  0  0  0  0
   34.5777   -6.0891   14.2615 C   0  0  0  0  0  0  0  0  0  0  0  0
   35.8530   -6.5440   13.9720 C   0  0  0  0  0  0  0  0  0  0  0  0
   36.1380   -7.4525   12.9560 C   0  0  0  0  0  0  0  0  0  0  0  0
   37.4436   -7.8927   12.6881 N   0  0  0  0  0  0  0  0  0  0  0  0
   34.3403   -4.9494   15.5585 S   0  0  1  0  0  6  0  0  0  0  0  0
   35.1689   -5.3146   16.7589 O   0  0  0  0  0  0  0  0  0  0  0  0
   32.9076   -4.8899   16.0072 O   0  0  0  0  0  0  0  0  0  0  0  0
   35.2197  -11.6265   10.4268 N   0  0  0  0  0  0  0  0  0  0  0  0
   31.4284  -10.7739   10.9265 Cl  0  0  0  0  0  0  0  0  0  0  0  0
   35.2127   -8.8470   11.1458 N   0  0  0  0  0  0  0  0  0  0  0  0
   36.1560   -9.2430    8.3521 O   0  0  0  0  0  0  0  0  0  0  0  0
   35.8571   -8.4519    6.2629 O   0  0  0  0  0  0  0  0  0  0  0  0
   37.8601   -8.0728    7.3681 F   0  0  0  0  0  0  0  0  0  0  0  0
   37.3225  -10.1708    6.6018 F   0  0  0  0  0  0  0  0  0  0  0  0
   38.5173   -7.9469   13.5715 C   0  0  0  0  0  0  0  0  0  0  0  0
   38.3888   -7.3845   14.8164 N   0  0  0  0  0  0  0  0  0  0  0  0
   39.3427   -7.3736   15.7453 C   0  0  0  0  0  0  0  0  0  0  0  0
   40.5265   -7.9662   15.4258 N   0  0  0  0  0  0  0  0  0  0  0  0
   40.6724   -8.5233   14.2106 C   0  0  0  0  0  0  0  0  0  0  0  0
   39.6875   -8.5055   13.3218 N   0  0  0  0  0  0  0  0  0  0  0  0
   41.8736   -9.1498   13.8251 O   0  0  0  0  0  0  0  0  0  0  0  0
   42.8874   -9.2642   14.7931 C   0  0  0  0  0  0  0  0  0  0  0  0
   39.1300   -6.7711   17.0068 N   0  0  0  0  0  0  0  0  0  0  0  0
   37.9678   -6.6923   19.4775 N   0  0  0  0  0  4  0  0  0  0  0  0
  1  2  2  0
 24  1  1  0
  1 31  1  0
  2  3  1  0
 22  3  2  0
  5  4  1  1
  4 44  1  6
 45  5  1  1
  6  7  1  1
  6 45  1  0
  7 44  1  6
  8 26  1  6
  9 10  1  0
  9 16  1  0
  9 31  1  6
 10 11  2  0
 10 15  1  0
 11 12  1  0
 11 32  1  0
 12 13  2  0
 12 33  1  0
 14 13  1  0
 15 14  2  0
 16 17  2  0
 16 29  1  0
 17 18  1  0
 17 30  1  0
 18 19  2  0
 20 19  1  0
 29 20  2  0
 32 21  1  0
 21 33  1  0
 21 34  1  1
 21 35  1  0
 23 22  1  0
 26 22  1  6
 24 23  2  0
 25 24  1  0
 36 25  1  0
 26 27  2  0
 26 28  2  0
 37 36  2  0
 36 41  1  0
 38 37  1  0
 38 39  2  0
 38 44  1  0
 39 40  1  0
 40 41  2  0
 40 42  1  0
 43 42  1  6
M  CHG  1  45   1
M  END
$$$$
