
     RDKit          3D

 45 50  0  0  0  0  0  0  0  0999 V2000
   36.9436   -7.4899   12.7317 C   0  0  0  0  0  0  0  0  0  0  0  0
   37.9390   -8.3968   12.4903 C   0  0  0  0  0  0  0  0  0  0  0  0
   39.0799   -8.5221   13.2701 C   0  0  0  0  0  0  0  0  0  0  0  0
   37.0307   -6.2273   20.2268 C   0  0  0  0  0  0  0  0  0  0  0  0
   38.2345   -6.2800   21.1148 C   0  0  0  0  0  0  0  0  0  0  0  0
   39.4574   -7.4367   19.4799 C   0  0  0  0  0  0  0  0  0  0  0  0
   38.3771   -7.3175   18.4066 C   0  0  0  0  0  0  0  0  0  0  0  0
   40.4303   -8.9694   16.6942 C   0  0  0  0  0  0  0  0  0  0  0  0
   35.3723   -8.0531   10.7562 C   0  0  1  0  0  0  0  0  0  0  0  0
   34.2997   -9.0677   10.7832 C   0  0  0  0  0  0  0  0  0  0  0  0
   34.3672  -10.3298   10.2376 C   0  0  0  0  0  0  0  0  0  0  0  0
   33.3334  -11.2402   10.2841 C   0  0  0  0  0  0  0  0  0  0  0  0
   32.1650  -10.8827   10.9052 C   0  0  0  0  0  0  0  0  0  0  0  0
   32.0632   -9.6204   11.4645 C   0  0  0  0  0  0  0  0  0  0  0  0
   33.0949   -8.7261   11.4127 C   0  0  0  0  0  0  0  0  0  0  0  0
   35.3862   -7.2690    9.5021 C   0  0  0  0  0  0  0  0  0  0  0  0
   35.6604   -7.7762    8.2710 C   0  0  0  0  0  0  0  0  0  0  0  0
   35.5596   -6.9511    7.1367 C   0  0  0  0  0  0  0  0  0  0  0  0
   35.1880   -5.6256    7.2434 C   0  0  0  0  0  0  0  0  0  0  0  0
   34.9210   -5.1486    8.5115 C   0  0  0  0  0  0  0  0  0  0  0  0
   35.1709  -12.3783    9.5425 C   0  0  1  0  0  0  0  0  0  0  0  0
   39.2450   -7.6981   14.3567 C   0  0  0  0  0  0  0  0  0  0  0  0
   38.2795   -6.7868   14.6272 C   0  0  0  0  0  0  0  0  0  0  0  0
   37.1284   -6.6623   13.8378 C   0  0  0  0  0  0  0  0  0  0  0  0
   36.2056   -5.6589   14.1947 N   0  0  0  0  0  0  0  0  0  0  0  0
   40.7087   -7.8810   15.3283 S   0  0  1  0  0  6  0  0  0  0  0  0
   41.1024   -6.5414   15.8809 O   0  0  0  0  0  0  0  0  0  0  0  0
   41.8449   -8.3435   14.4636 O   0  0  0  0  0  0  0  0  0  0  0  0
   35.0243   -5.9524    9.5548 N   0  0  0  0  0  0  0  0  0  0  0  0
   36.2298   -9.4045    7.9541 Cl  0  0  0  0  0  0  0  0  0  0  0  0
   35.7962   -7.4313   11.9291 N   0  0  0  0  0  0  0  0  0  0  0  0
   35.3967  -10.9807    9.5491 O   0  0  0  0  0  0  0  0  0  0  0  0
   33.7516  -12.4006    9.6390 O   0  0  0  0  0  0  0  0  0  0  0  0
   35.6607  -12.9826    8.4286 F   0  0  0  0  0  0  0  0  0  0  0  0
   35.6425  -12.9265   10.7272 F   0  0  0  0  0  0  0  0  0  0  0  0
   36.0460   -5.2962   15.5674 C   0  0  0  0  0  0  0  0  0  0  0  0
   36.7239   -5.9623   16.5201 N   0  0  0  0  0  0  0  0  0  0  0  0
   36.6354   -5.6648   17.8293 C   0  0  0  0  0  0  0  0  0  0  0  0
   35.8490   -4.6716   18.2208 N   0  0  0  0  0  0  0  0  0  0  0  0
   35.1535   -3.9811   17.2965 C   0  0  0  0  0  0  0  0  0  0  0  0
   35.2498   -4.2891   15.9839 N   0  0  0  0  0  0  0  0  0  0  0  0
   34.3453   -2.9501   17.7597 O   0  0  0  0  0  0  0  0  0  0  0  0
   34.3543   -2.6263   19.1384 C   0  0  0  0  0  0  0  0  0  0  0  0
   37.3515   -6.4044   18.8110 N   0  0  0  0  0  0  0  0  0  0  0  0
   39.4351   -6.2479   20.3226 N   0  0  0  0  0  4  0  0  0  0  0  0
  1  2  2  0
 24  1  1  0
  1 31  1  0
  2  3  1  0
 22  3  2  0
  4  5  1  0
 44  4  1  0
  5 45  1  0
  7  6  1  0
  6 45  1  0
 44  7  1  0
 26  8  1  1
  9 10  1  0
  9 16  1  0
  9 31  1  1
 10 11  2  0
 10 15  1  0
 11 12  1  0
 11 32  1  0
 12 13  2  0
 12 33  1  0
 14 13  1  0
 15 14  2  0
 16 17  2  0
 16 29  1  0
 17 18  1  0
 17 30  1  0
 18 19  2  0
 20 19  1  0
 29 20  2  0
 32 21  1  0
 21 33  1  0
 21 34  1  6
 21 35  1  0
 23 22  1  0
 22 26  1  0
 24 23  2  0
 25 24  1  0
 36 25  1  0
 26 27  2  0
 26 28  2  0
 37 36  2  0
 36 41  1  0
 38 37  1  0
 38 39  2  0
 38 44  1  0
 39 40  1  0
 40 41  2  0
 40 42  1  0
 42 43  1  0
M  CHG  1  45   1
M  END
$$$$
