
     RDKit          3D

 45 50  0  0  0  0  0  0  0  0999 V2000
   36.3825   -6.8611   14.8383 C   0  0  0  0  0  0  0  0  0  0  0  0
   35.5391   -7.9680   14.7192 C   0  0  0  0  0  0  0  0  0  0  0  0
   34.6810   -8.3522   15.7187 C   0  0  0  0  0  0  0  0  0  0  0  0
   34.1279   -4.6802   20.1065 C   0  0  0  0  0  0  0  0  0  0  0  0
   34.2411   -5.6760   21.2549 C   0  0  0  0  0  0  0  0  0  0  0  0
   33.9860   -3.5672   22.3992 C   0  0  0  0  0  0  0  0  0  0  0  0
   35.1075   -2.9441   21.5606 C   0  0  0  0  0  0  0  0  0  0  0  0
   34.5379   -8.4594   19.6256 C   0  0  0  0  0  0  0  0  0  0  0  0
   37.2432   -7.2955   12.5694 C   0  0  1  0  0  0  0  0  0  0  0  0
   36.7454   -6.5422   11.3932 C   0  0  0  0  0  0  0  0  0  0  0  0
   35.7377   -7.1217   10.6407 C   0  0  0  0  0  0  0  0  0  0  0  0
   35.1978   -6.4962    9.5283 C   0  0  0  0  0  0  0  0  0  0  0  0
   35.6611   -5.2584    9.1379 C   0  0  0  0  0  0  0  0  0  0  0  0
   36.6655   -4.6729    9.8822 C   0  0  0  0  0  0  0  0  0  0  0  0
   37.2098   -5.3087   11.0080 C   0  0  0  0  0  0  0  0  0  0  0  0
   38.5215   -7.9933   12.3197 C   0  0  0  0  0  0  0  0  0  0  0  0
   38.5282   -9.2612   11.8089 C   0  0  0  0  0  0  0  0  0  0  0  0
   39.7153   -9.9567   11.5622 C   0  0  0  0  0  0  0  0  0  0  0  0
   40.9174   -9.3523   11.8397 C   0  0  0  0  0  0  0  0  0  0  0  0
   40.8833   -8.0719   12.3545 C   0  0  0  0  0  0  0  0  0  0  0  0
   34.1137   -8.4712    9.7086 C   0  0  1  0  0  0  0  0  0  0  0  0
   34.6281   -7.6493   16.8781 C   0  0  0  0  0  0  0  0  0  0  0  0
   35.4552   -6.5479   17.0194 C   0  0  0  0  0  0  0  0  0  0  0  0
   36.3428   -6.1161   16.0374 C   0  0  0  0  0  0  0  0  0  0  0  0
   37.1673   -4.9938   16.2127 N   0  0  0  0  0  0  0  0  0  0  0  0
   33.5552   -8.0967   18.1765 S   0  0  1  0  0  6  0  0  0  0  0  0
   32.7839   -9.3421   17.8370 O   0  0  0  0  0  0  0  0  0  0  0  0
   32.5522   -7.0203   18.4812 O   0  0  0  0  0  0  0  0  0  0  0  0
   39.7087   -7.4216   12.5834 N   0  0  0  0  0  0  0  0  0  0  0  0
   37.0364  -10.0504   11.4437 Cl  0  0  0  0  0  0  0  0  0  0  0  0
   37.2456   -6.5240   13.7799 N   0  0  0  0  0  0  0  0  0  0  0  0
   35.0641   -8.3237   10.7553 O   0  0  0  0  0  0  0  0  0  0  0  0
   34.2083   -7.2785    8.9511 O   0  0  0  0  0  0  0  0  0  0  0  0
   34.4439   -9.5853    8.9483 F   0  0  0  0  0  0  0  0  0  0  0  0
   32.8373   -8.5722   10.2408 F   0  0  0  0  0  0  0  0  0  0  0  0
   37.1532   -4.0891   17.2699 C   0  0  0  0  0  0  0  0  0  0  0  0
   36.2302   -4.2463   18.2729 N   0  0  0  0  0  0  0  0  0  0  0  0
   36.1193   -3.4480   19.3327 C   0  0  0  0  0  0  0  0  0  0  0  0
   36.9897   -2.4039   19.4167 N   0  0  0  0  0  0  0  0  0  0  0  0
   37.9020   -2.2327   18.4437 C   0  0  0  0  0  0  0  0  0  0  0  0
   37.9683   -3.0596   17.4082 N   0  0  0  0  0  0  0  0  0  0  0  0
   38.8271   -1.1711   18.4776 O   0  0  0  0  0  0  0  0  0  0  0  0
   40.1933   -1.4960   18.3986 C   0  0  0  0  0  0  0  0  0  0  0  0
   35.1381   -3.6790   20.3245 N   0  0  0  0  0  0  0  0  0  0  0  0
   34.1909   -5.0008   22.5192 N   0  0  0  0  0  4  0  0  0  0  0  0
  1  2  2  0
 24  1  1  0
  1 31  1  0
  2  3  1  0
 22  3  2  0
  5  4  1  1
  4 44  1  6
 45  5  1  1
  6  7  1  1
  6 45  1  0
  7 44  1  6
  8 26  1  6
  9 10  1  0
  9 16  1  0
  9 31  1  1
 10 11  2  0
 10 15  1  0
 11 12  1  0
 11 32  1  0
 12 13  2  0
 12 33  1  0
 14 13  1  0
 15 14  2  0
 16 17  2  0
 16 29  1  0
 17 18  1  0
 17 30  1  0
 18 19  2  0
 20 19  1  0
 29 20  2  0
 32 21  1  0
 21 33  1  0
 21 34  1  6
 21 35  1  0
 23 22  1  0
 26 22  1  6
 24 23  2  0
 25 24  1  0
 36 25  1  0
 26 27  2  0
 26 28  2  0
 37 36  2  0
 36 41  1  0
 38 37  1  0
 38 39  2  0
 38 44  1  0
 39 40  1  0
 40 41  2  0
 40 42  1  0
 43 42  1  6
M  CHG  1  45   1
M  END
$$$$
