
     RDKit          3D

 45 50  0  0  0  0  0  0  0  0999 V2000
   35.8851   -8.2442   10.8434 C   0  0  0  0  0  0  0  0  0  0  0  0
   35.1088   -7.2895   10.2454 C   0  0  0  0  0  0  0  0  0  0  0  0
   35.4567   -5.9490   10.1594 C   0  0  0  0  0  0  0  0  0  0  0  0
   36.4626   -5.1455   15.3128 C   0  0  0  0  0  0  0  0  0  0  0  0
   36.5124   -3.7287   15.7929 C   0  0  0  0  0  0  0  0  0  0  0  0
   37.3902   -4.4031   17.8619 C   0  0  0  0  0  0  0  0  0  0  0  0
   37.5549   -5.8669   17.4578 C   0  0  0  0  0  0  0  0  0  0  0  0
   35.6297   -2.8004   10.7970 C   0  0  0  0  0  0  0  0  0  0  0  0
   34.3754  -10.3096   10.4644 C   0  0  1  0  0  0  0  0  0  0  0  0
   34.4083  -11.7839   10.3876 C   0  0  0  0  0  0  0  0  0  0  0  0
   33.3736  -12.5953    9.9800 C   0  0  0  0  0  0  0  0  0  0  0  0
   33.4524  -13.9705    9.9317 C   0  0  0  0  0  0  0  0  0  0  0  0
   34.6211  -14.5794   10.3085 C   0  0  0  0  0  0  0  0  0  0  0  0
   35.6819  -13.7929   10.7243 C   0  0  0  0  0  0  0  0  0  0  0  0
   35.5925  -12.4302   10.7678 C   0  0  0  0  0  0  0  0  0  0  0  0
   33.0395   -9.7854   10.8228 C   0  0  0  0  0  0  0  0  0  0  0  0
   32.0812   -9.4229    9.9293 C   0  0  0  0  0  0  0  0  0  0  0  0
   30.8150   -9.0181   10.3879 C   0  0  0  0  0  0  0  0  0  0  0  0
   30.5187   -8.9769   11.7359 C   0  0  0  0  0  0  0  0  0  0  0  0
   31.5202   -9.3501   12.6104 C   0  0  0  0  0  0  0  0  0  0  0  0
   31.5234  -13.3902    8.8528 C   0  0  1  0  0  0  0  0  0  0  0  0
   36.6477   -5.5279   10.6991 C   0  0  0  0  0  0  0  0  0  0  0  0
   37.4433   -6.4455   11.2999 C   0  0  0  0  0  0  0  0  0  0  0  0
   37.0893   -7.7986   11.3854 C   0  0  0  0  0  0  0  0  0  0  0  0
   37.9793   -8.6578   12.0603 N   0  0  0  0  0  0  0  0  0  0  0  0
   37.0611   -3.8152   10.5751 S   0  0  1  0  0  6  0  0  0  0  0  0
   37.6115   -3.5402    9.2052 O   0  0  0  0  0  0  0  0  0  0  0  0
   38.1473   -3.4766   11.5539 O   0  0  0  0  0  0  0  0  0  0  0  0
   32.6977   -9.7263   12.1444 N   0  0  0  0  0  0  0  0  0  0  0  0
   32.3045   -9.3288    8.1922 Cl  0  0  0  0  0  0  0  0  0  0  0  0
   35.4981   -9.5909   10.8706 N   0  0  0  0  0  0  0  0  0  0  0  0
   32.0796  -12.2878    9.5456 O   0  0  0  0  0  0  0  0  0  0  0  0
   32.2306  -14.4565    9.4751 O   0  0  0  0  0  0  0  0  0  0  0  0
   30.1737  -13.4665    8.9878 F   0  0  0  0  0  0  0  0  0  0  0  0
   31.9513  -13.3677    7.5326 F   0  0  0  0  0  0  0  0  0  0  0  0
   38.3720   -8.3625   13.4019 C   0  0  0  0  0  0  0  0  0  0  0  0
   37.7356   -7.3966   14.0896 N   0  0  0  0  0  0  0  0  0  0  0  0
   38.0406   -7.0765   15.3603 C   0  0  0  0  0  0  0  0  0  0  0  0
   39.0104   -7.7317   15.9833 N   0  0  0  0  0  0  0  0  0  0  0  0
   39.6714   -8.7055   15.3279 C   0  0  0  0  0  0  0  0  0  0  0  0
   39.3569   -9.0184   14.0512 N   0  0  0  0  0  0  0  0  0  0  0  0
   40.6778   -9.3612   16.0265 O   0  0  0  0  0  0  0  0  0  0  0  0
   40.3418  -10.1424   17.1590 C   0  0  0  0  0  0  0  0  0  0  0  0
   37.3598   -6.0348   16.0497 N   0  0  0  0  0  0  0  0  0  0  0  0
   37.6150   -3.5524   16.7002 N   0  0  0  0  0  4  0  0  0  0  0  0
  1  2  2  0
 24  1  1  0
  1 31  1  0
  2  3  1  0
 22  3  2  0
  4  5  1  0
 44  4  1  0
  5 45  1  0
  7  6  1  0
  6 45  1  0
 44  7  1  0
 26  8  1  1
  9 10  1  0
  9 16  1  0
  9 31  1  1
 10 11  2  0
 10 15  1  0
 11 12  1  0
 11 32  1  0
 12 13  2  0
 12 33  1  0
 14 13  1  0
 15 14  2  0
 16 17  2  0
 16 29  1  0
 17 18  1  0
 17 30  1  0
 18 19  2  0
 20 19  1  0
 29 20  2  0
 32 21  1  0
 21 33  1  0
 21 34  1  6
 21 35  1  0
 23 22  1  0
 22 26  1  0
 24 23  2  0
 25 24  1  0
 36 25  1  0
 26 27  2  0
 26 28  2  0
 37 36  2  0
 36 41  1  0
 38 37  1  0
 38 39  2  0
 38 44  1  0
 39 40  1  0
 40 41  2  0
 40 42  1  0
 42 43  1  0
M  CHG  1  45   1
M  END
$$$$
