
     RDKit          3D

 45 50  0  0  0  0  0  0  0  0999 V2000
   35.4309   -7.5681   14.6160 C   0  0  0  0  0  0  0  0  0  0  0  0
   34.7067   -8.7250   14.5220 C   0  0  0  0  0  0  0  0  0  0  0  0
   34.1517   -9.3832   15.6103 C   0  0  0  0  0  0  0  0  0  0  0  0
   37.9688   -1.8974   20.5110 C   0  0  0  0  0  0  0  0  0  0  0  0
   38.0017   -0.4012   20.5371 C   0  0  0  0  0  0  0  0  0  0  0  0
   38.7108   -0.3233   18.3016 C   0  0  0  0  0  0  0  0  0  0  0  0
   38.5669   -1.8266   18.0714 C   0  0  0  0  0  0  0  0  0  0  0  0
   32.1424   -8.9110   18.7988 C   0  0  0  0  0  0  0  0  0  0  0  0
   35.9354   -7.1870   12.1083 C   0  0  1  0  0  0  0  0  0  0  0  0
   35.9279   -6.0811   11.1297 C   0  0  0  0  0  0  0  0  0  0  0  0
   35.3396   -6.1070    9.8854 C   0  0  0  0  0  0  0  0  0  0  0  0
   35.3658   -5.0476    9.0040 C   0  0  0  0  0  0  0  0  0  0  0  0
   36.0112   -3.8962    9.3732 C   0  0  0  0  0  0  0  0  0  0  0  0
   36.6140   -3.8364   10.6181 C   0  0  0  0  0  0  0  0  0  0  0  0
   36.5813   -4.8928   11.4839 C   0  0  0  0  0  0  0  0  0  0  0  0
   36.6596   -8.3797   11.6177 C   0  0  0  0  0  0  0  0  0  0  0  0
   36.0875   -9.4171   10.9508 C   0  0  0  0  0  0  0  0  0  0  0  0
   36.8919  -10.4590   10.4563 C   0  0  0  0  0  0  0  0  0  0  0  0
   38.2611  -10.4561   10.6349 C   0  0  0  0  0  0  0  0  0  0  0  0
   38.8025   -9.3862   11.3198 C   0  0  0  0  0  0  0  0  0  0  0  0
   33.8725   -6.5586    8.1623 C   0  0  1  0  0  0  0  0  0  0  0  0
   34.3246   -8.8631   16.8698 C   0  0  0  0  0  0  0  0  0  0  0  0
   35.0366   -7.7180   17.0022 C   0  0  0  0  0  0  0  0  0  0  0  0
   35.5961   -7.0554   15.9015 C   0  0  0  0  0  0  0  0  0  0  0  0
   36.3434   -5.8892   16.1607 N   0  0  0  0  0  0  0  0  0  0  0  0
   33.6075   -9.7251   18.2345 S   0  0  1  0  0  6  0  0  0  0  0  0
   34.5879   -9.7473   19.3719 O   0  0  0  0  0  0  0  0  0  0  0  0
   33.3471  -11.1549   17.8596 O   0  0  0  0  0  0  0  0  0  0  0  0
   38.0169   -8.4239   11.7693 N   0  0  0  0  0  0  0  0  0  0  0  0
   34.3640   -9.6328   10.7074 Cl  0  0  0  0  0  0  0  0  0  0  0  0
   35.9394   -6.9282   13.4776 N   0  0  0  0  0  0  0  0  0  0  0  0
   34.6235   -7.1126    9.2270 O   0  0  0  0  0  0  0  0  0  0  0  0
   34.6761   -5.4253    7.8555 O   0  0  0  0  0  0  0  0  0  0  0  0
   33.7153   -7.4238    7.1267 F   0  0  0  0  0  0  0  0  0  0  0  0
   32.6763   -6.0560    8.6553 F   0  0  0  0  0  0  0  0  0  0  0  0
   36.3420   -5.3213   17.4718 C   0  0  0  0  0  0  0  0  0  0  0  0
   37.0576   -4.2093   17.7216 N   0  0  0  0  0  0  0  0  0  0  0  0
   37.0896   -3.6112   18.9263 C   0  0  0  0  0  0  0  0  0  0  0  0
   36.3898   -4.1248   19.9285 N   0  0  0  0  0  0  0  0  0  0  0  0
   35.6609   -5.2380   19.7179 C   0  0  0  0  0  0  0  0  0  0  0  0
   35.6366   -5.8310   18.5035 N   0  0  0  0  0  0  0  0  0  0  0  0
   34.9458   -5.7346   20.8008 O   0  0  0  0  0  0  0  0  0  0  0  0
   34.5182   -7.0847   20.7906 C   0  0  0  0  0  0  0  0  0  0  0  0
   37.8742   -2.4476   19.1593 N   0  0  0  0  0  0  0  0  0  0  0  0
   37.6848    0.1232   19.2354 N   0  0  0  0  0  4  0  0  0  0  0  0
  1  2  2  0
 24  1  1  0
  1 31  1  0
  2  3  1  0
 22  3  2  0
  4  5  1  0
 44  4  1  0
  5 45  1  0
  7  6  1  0
  6 45  1  0
 44  7  1  0
 26  8  1  1
  9 10  1  0
  9 16  1  0
  9 31  1  1
 10 11  2  0
 10 15  1  0
 11 12  1  0
 11 32  1  0
 12 13  2  0
 12 33  1  0
 14 13  1  0
 15 14  2  0
 16 17  2  0
 16 29  1  0
 17 18  1  0
 17 30  1  0
 18 19  2  0
 20 19  1  0
 29 20  2  0
 32 21  1  0
 21 33  1  0
 21 34  1  6
 21 35  1  0
 23 22  1  0
 22 26  1  0
 24 23  2  0
 25 24  1  0
 36 25  1  0
 26 27  2  0
 26 28  2  0
 37 36  2  0
 36 41  1  0
 38 37  1  0
 38 39  2  0
 38 44  1  0
 39 40  1  0
 40 41  2  0
 40 42  1  0
 42 43  1  0
M  CHG  1  45   1
M  END
$$$$
