
     RDKit          3D

 45 50  0  0  0  0  0  0  0  0999 V2000
   35.2635   -8.1458   13.0330 C   0  0  0  0  0  0  0  0  0  0  0  0
   33.9659   -8.6537   13.1288 C   0  0  0  0  0  0  0  0  0  0  0  0
   33.3124   -8.7857   14.3282 C   0  0  0  0  0  0  0  0  0  0  0  0
   35.9443   -5.6932   18.7161 C   0  0  0  0  0  0  0  0  0  0  0  0
   35.3689   -6.6971   19.7083 C   0  0  0  0  0  0  0  0  0  0  0  0
   36.9475   -5.4623   21.0519 C   0  0  0  0  0  0  0  0  0  0  0  0
   38.0475   -5.6755   20.0062 C   0  0  0  0  0  0  0  0  0  0  0  0
   34.0271   -9.7692   18.0062 C   0  0  0  0  0  0  0  0  0  0  0  0
   35.1898   -8.4692   10.5901 C   0  0  1  0  0  0  0  0  0  0  0  0
   35.3744   -7.5525    9.4393 C   0  0  0  0  0  0  0  0  0  0  0  0
   34.3130   -7.4025    8.5628 C   0  0  0  0  0  0  0  0  0  0  0  0
   34.3809   -6.5637    7.4619 C   0  0  0  0  0  0  0  0  0  0  0  0
   35.5296   -5.8455    7.2094 C   0  0  0  0  0  0  0  0  0  0  0  0
   36.5930   -5.9886    8.0780 C   0  0  0  0  0  0  0  0  0  0  0  0
   36.5210   -6.8384    9.1918 C   0  0  0  0  0  0  0  0  0  0  0  0
   35.4290   -9.8878   10.2529 C   0  0  0  0  0  0  0  0  0  0  0  0
   34.3787  -10.7222    9.9906 C   0  0  0  0  0  0  0  0  0  0  0  0
   34.5624  -12.0707    9.6719 C   0  0  0  0  0  0  0  0  0  0  0  0
   35.8372  -12.5802    9.6188 C   0  0  0  0  0  0  0  0  0  0  0  0
   36.8803  -11.7170    9.8875 C   0  0  0  0  0  0  0  0  0  0  0  0
   32.3235   -7.4971    7.3964 C   0  0  1  0  0  0  0  0  0  0  0  0
   33.9251   -8.4172   15.4814 C   0  0  0  0  0  0  0  0  0  0  0  0
   35.2120   -7.9111   15.4115 C   0  0  0  0  0  0  0  0  0  0  0  0
   35.9187   -7.7567   14.2218 C   0  0  0  0  0  0  0  0  0  0  0  0
   37.2228   -7.2389   14.1861 N   0  0  0  0  0  0  0  0  0  0  0  0
   33.1374   -8.5649   17.0290 S   0  0  1  0  0  6  0  0  0  0  0  0
   31.7289   -9.0683   16.8740 O   0  0  0  0  0  0  0  0  0  0  0  0
   33.0640   -7.2525   17.7568 O   0  0  0  0  0  0  0  0  0  0  0  0
   36.6670  -10.4074   10.1952 N   0  0  0  0  0  0  0  0  0  0  0  0
   32.7628  -10.1155   10.0435 Cl  0  0  0  0  0  0  0  0  0  0  0  0
   35.8817   -8.0434   11.7735 N   0  0  0  0  0  0  0  0  0  0  0  0
   33.0493   -7.9624    8.5266 O   0  0  0  0  0  0  0  0  0  0  0  0
   33.1935   -6.5893    6.7451 O   0  0  0  0  0  0  0  0  0  0  0  0
   32.0104   -8.5768    6.5811 F   0  0  0  0  0  0  0  0  0  0  0  0
   31.1869   -6.8200    7.8114 F   0  0  0  0  0  0  0  0  0  0  0  0
   38.0168   -6.8674   15.2667 C   0  0  0  0  0  0  0  0  0  0  0  0
   37.4170   -6.5417   16.4571 N   0  0  0  0  0  0  0  0  0  0  0  0
   38.0685   -6.1725   17.5580 C   0  0  0  0  0  0  0  0  0  0  0  0
   39.4273   -6.1176   17.4857 N   0  0  0  0  0  0  0  0  0  0  0  0
   40.0343   -6.4331   16.3279 C   0  0  0  0  0  0  0  0  0  0  0  0
   39.3352   -6.7951   15.2599 N   0  0  0  0  0  0  0  0  0  0  0  0
   41.4360   -6.3943   16.1946 O   0  0  0  0  0  0  0  0  0  0  0  0
   41.9722   -6.5756   14.9071 C   0  0  0  0  0  0  0  0  0  0  0  0
   37.3742   -5.8519   18.7475 N   0  0  0  0  0  0  0  0  0  0  0  0
   35.9870   -6.5513   20.9942 N   0  0  0  0  0  4  0  0  0  0  0  0
  1  2  2  0
 24  1  1  0
  1 31  1  0
  2  3  1  0
 22  3  2  0
  5  4  1  1
  4 44  1  6
 45  5  1  1
  6  7  1  1
  6 45  1  0
  7 44  1  6
  8 26  1  6
  9 10  1  0
  9 16  1  0
  9 31  1  1
 10 11  2  0
 10 15  1  0
 11 12  1  0
 11 32  1  0
 12 13  2  0
 12 33  1  0
 14 13  1  0
 15 14  2  0
 16 17  2  0
 16 29  1  0
 17 18  1  0
 17 30  1  0
 18 19  2  0
 20 19  1  0
 29 20  2  0
 32 21  1  0
 21 33  1  0
 21 34  1  6
 21 35  1  0
 23 22  1  0
 26 22  1  6
 24 23  2  0
 25 24  1  0
 36 25  1  0
 26 27  2  0
 26 28  2  0
 37 36  2  0
 36 41  1  0
 38 37  1  0
 38 39  2  0
 38 44  1  0
 39 40  1  0
 40 41  2  0
 40 42  1  0
 43 42  1  6
M  CHG  1  45   1
M  END
$$$$
