
     RDKit          3D

 45 50  0  0  0  0  0  0  0  0999 V2000
   36.3863   -6.6957   11.7215 C   0  0  0  0  0  0  0  0  0  0  0  0
   35.3783   -5.7769   11.6151 C   0  0  0  0  0  0  0  0  0  0  0  0
   35.4329   -4.4997   12.1548 C   0  0  0  0  0  0  0  0  0  0  0  0
   36.8604   -5.6645   17.1007 C   0  0  0  0  0  0  0  0  0  0  0  0
   36.7068   -4.5079   18.0385 C   0  0  0  0  0  0  0  0  0  0  0  0
   38.0803   -5.5471   19.6321 C   0  0  0  0  0  0  0  0  0  0  0  0
   38.4640   -6.7149   18.7253 C   0  0  0  0  0  0  0  0  0  0  0  0
   37.8733   -1.5112   12.7719 C   0  0  0  0  0  0  0  0  0  0  0  0
   35.4373   -8.5597   10.2005 C   0  0  1  0  0  0  0  0  0  0  0  0
   34.7491   -7.7524    9.1733 C   0  0  0  0  0  0  0  0  0  0  0  0
   33.5363   -8.0471    8.5924 C   0  0  0  0  0  0  0  0  0  0  0  0
   32.9372   -7.2622    7.6308 C   0  0  0  0  0  0  0  0  0  0  0  0
   33.5734   -6.1203    7.2187 C   0  0  0  0  0  0  0  0  0  0  0  0
   34.7952   -5.7942    7.7823 C   0  0  0  0  0  0  0  0  0  0  0  0
   35.3796   -6.5798    8.7353 C   0  0  0  0  0  0  0  0  0  0  0  0
   35.7578   -9.9262    9.7338 C   0  0  0  0  0  0  0  0  0  0  0  0
   34.9033  -10.9828    9.7765 C   0  0  0  0  0  0  0  0  0  0  0  0
   35.2895  -12.2169    9.2241 C   0  0  0  0  0  0  0  0  0  0  0  0
   36.5275  -12.3848    8.6361 C   0  0  0  0  0  0  0  0  0  0  0  0
   37.3666  -11.2883    8.6157 C   0  0  0  0  0  0  0  0  0  0  0  0
   31.3737   -8.7932    8.2890 C   0  0  1  0  0  0  0  0  0  0  0  0
   36.5557   -4.1081   12.8424 C   0  0  0  0  0  0  0  0  0  0  0  0
   37.5751   -4.9917   12.9685 C   0  0  0  0  0  0  0  0  0  0  0  0
   37.5173   -6.2810   12.4226 C   0  0  0  0  0  0  0  0  0  0  0  0
   38.6234   -7.1260   12.6424 N   0  0  0  0  0  0  0  0  0  0  0  0
   36.5939   -2.4771   13.5190 S   0  0  1  0  0  6  0  0  0  0  0  0
   36.8817   -2.5618   14.9904 O   0  0  0  0  0  0  0  0  0  0  0  0
   35.2467   -1.8307   13.3780 O   0  0  0  0  0  0  0  0  0  0  0  0
   36.9705  -10.1435    9.1428 N   0  0  0  0  0  0  0  0  0  0  0  0
   33.3330  -10.9800   10.5577 Cl  0  0  0  0  0  0  0  0  0  0  0  0
   36.2896   -7.9607   11.1262 N   0  0  0  0  0  0  0  0  0  0  0  0
   32.6576   -9.1178    8.7899 O   0  0  0  0  0  0  0  0  0  0  0  0
   31.7313   -7.8603    7.2761 O   0  0  0  0  0  0  0  0  0  0  0  0
   30.7008   -9.8803    7.8293 F   0  0  0  0  0  0  0  0  0  0  0  0
   30.6759   -8.0691    9.2456 F   0  0  0  0  0  0  0  0  0  0  0  0
   39.0936   -7.3492   13.9729 C   0  0  0  0  0  0  0  0  0  0  0  0
   38.4085   -6.8510   15.0186 N   0  0  0  0  0  0  0  0  0  0  0  0
   38.7828   -7.0357   16.2976 C   0  0  0  0  0  0  0  0  0  0  0  0
   39.8750   -7.7392   16.5626 N   0  0  0  0  0  0  0  0  0  0  0  0
   40.5882   -8.2540   15.5423 C   0  0  0  0  0  0  0  0  0  0  0  0
   40.2032   -8.0617   14.2610 N   0  0  0  0  0  0  0  0  0  0  0  0
   41.7233   -8.9834   15.8747 O   0  0  0  0  0  0  0  0  0  0  0  0
   42.5182   -9.5397   14.8431 C   0  0  0  0  0  0  0  0  0  0  0  0
   38.0448   -6.4765   17.3776 N   0  0  0  0  0  0  0  0  0  0  0  0
   37.9006   -4.3470   18.8250 N   0  0  0  0  0  4  0  0  0  0  0  0
  1  2  2  0
 24  1  1  0
  1 31  1  0
  2  3  1  0
 22  3  2  0
  4  5  1  0
 44  4  1  0
  5 45  1  0
  7  6  1  0
  6 45  1  0
 44  7  1  0
 26  8  1  6
  9 10  1  0
  9 16  1  0
  9 31  1  6
 10 11  2  0
 10 15  1  0
 11 12  1  0
 11 32  1  0
 12 13  2  0
 12 33  1  0
 14 13  1  0
 15 14  2  0
 16 17  2  0
 16 29  1  0
 17 18  1  0
 17 30  1  0
 18 19  2  0
 20 19  1  0
 29 20  2  0
 32 21  1  0
 21 33  1  0
 21 34  1  6
 21 35  1  0
 23 22  1  0
 22 26  1  0
 24 23  2  0
 25 24  1  0
 36 25  1  0
 26 27  2  0
 26 28  2  0
 37 36  2  0
 36 41  1  0
 38 37  1  0
 38 39  2  0
 38 44  1  0
 39 40  1  0
 40 41  2  0
 40 42  1  0
 42 43  1  0
M  CHG  1  45   1
M  END
$$$$
