
     RDKit          3D

 45 50  0  0  0  0  0  0  0  0999 V2000
   34.7659   -9.1972   12.5753 C   0  0  0  0  0  0  0  0  0  0  0  0
   33.3998   -9.4537   12.7115 C   0  0  0  0  0  0  0  0  0  0  0  0
   32.7401   -9.3209   13.9074 C   0  0  0  0  0  0  0  0  0  0  0  0
   37.9299   -7.2113   19.3902 C   0  0  0  0  0  0  0  0  0  0  0  0
   37.9229   -5.8665   20.1074 C   0  0  0  0  0  0  0  0  0  0  0  0
   35.5771   -6.2779   19.7201 C   0  0  0  0  0  0  0  0  0  0  0  0
   35.8437   -6.5697   18.2393 C   0  0  0  0  0  0  0  0  0  0  0  0
   31.9814   -7.0782   16.6721 C   0  0  0  0  0  0  0  0  0  0  0  0
   34.6102   -9.7373   10.1749 C   0  0  1  0  0  0  0  0  0  0  0  0
   35.1414   -9.1929    8.9022 C   0  0  0  0  0  0  0  0  0  0  0  0
   34.2964   -8.4030    8.1408 C   0  0  0  0  0  0  0  0  0  0  0  0
   34.6989   -7.8397    6.9404 C   0  0  0  0  0  0  0  0  0  0  0  0
   35.9751   -8.0573    6.4678 C   0  0  0  0  0  0  0  0  0  0  0  0
   36.8246   -8.8433    7.2203 C   0  0  0  0  0  0  0  0  0  0  0  0
   36.4140   -9.4120    8.4352 C   0  0  0  0  0  0  0  0  0  0  0  0
   34.3204  -11.1851   10.1169 C   0  0  0  0  0  0  0  0  0  0  0  0
   33.0487  -11.6261    9.8788 C   0  0  0  0  0  0  0  0  0  0  0  0
   32.7326  -12.9864    9.8202 C   0  0  0  0  0  0  0  0  0  0  0  0
   33.7275  -13.9153   10.0069 C   0  0  0  0  0  0  0  0  0  0  0  0
   35.0029  -13.4441   10.2455 C   0  0  0  0  0  0  0  0  0  0  0  0
   32.5522   -7.1955    7.2315 C   0  0  1  0  0  0  0  0  0  0  0  0
   33.4148   -8.9271   15.0169 C   0  0  0  0  0  0  0  0  0  0  0  0
   34.7703   -8.6672   14.9064 C   0  0  0  0  0  0  0  0  0  0  0  0
   35.4863   -8.7863   13.7182 C   0  0  0  0  0  0  0  0  0  0  0  0
   36.8610   -8.5138   13.6406 N   0  0  0  0  0  0  0  0  0  0  0  0
   32.6223   -8.7435   16.5582 S   0  0  1  0  0  6  0  0  0  0  0  0
   33.5932   -8.9268   17.6917 O   0  0  0  0  0  0  0  0  0  0  0  0
   31.5174   -9.7431   16.7515 O   0  0  0  0  0  0  0  0  0  0  0  0
   35.2776  -12.1111   10.2964 N   0  0  0  0  0  0  0  0  0  0  0  0
   31.7738  -10.4873    9.6347 Cl  0  0  0  0  0  0  0  0  0  0  0  0
   35.3853   -9.3600   11.3228 N   0  0  0  0  0  0  0  0  0  0  0  0
   32.9871   -7.9972    8.3218 O   0  0  0  0  0  0  0  0  0  0  0  0
   33.6743   -7.0962    6.3735 O   0  0  0  0  0  0  0  0  0  0  0  0
   31.4844   -7.8229    6.6034 F   0  0  0  0  0  0  0  0  0  0  0  0
   32.2110   -5.9297    7.6830 F   0  0  0  0  0  0  0  0  0  0  0  0
   37.6904   -8.0452   14.6548 C   0  0  0  0  0  0  0  0  0  0  0  0
   37.1492   -7.7566   15.8822 N   0  0  0  0  0  0  0  0  0  0  0  0
   37.8389   -7.3038   16.9272 C   0  0  0  0  0  0  0  0  0  0  0  0
   39.1767   -7.1174   16.7538 N   0  0  0  0  0  0  0  0  0  0  0  0
   39.7264   -7.3944   15.5582 C   0  0  0  0  0  0  0  0  0  0  0  0
   38.9912   -7.8441   14.5495 N   0  0  0  0  0  0  0  0  0  0  0  0
   41.1040   -7.2209   15.3210 O   0  0  0  0  0  0  0  0  0  0  0  0
   41.9066   -6.8274   16.4068 C   0  0  0  0  0  0  0  0  0  0  0  0
   37.2043   -7.0296   18.1608 N   0  0  0  0  0  0  0  0  0  0  0  0
   36.5846   -5.3676   20.2381 N   0  0  0  0  0  4  0  0  0  0  0  0
  1  2  2  0
 24  1  1  0
  1 31  1  0
  2  3  1  0
 22  3  2  0
  5  4  1  1
  4 44  1  6
 45  5  1  1
  6  7  1  1
  6 45  1  0
  7 44  1  6
  8 26  1  6
  9 10  1  0
  9 16  1  0
  9 31  1  1
 10 11  2  0
 10 15  1  0
 11 12  1  0
 11 32  1  0
 12 13  2  0
 12 33  1  0
 14 13  1  0
 15 14  2  0
 16 17  2  0
 16 29  1  0
 17 18  1  0
 17 30  1  0
 18 19  2  0
 20 19  1  0
 29 20  2  0
 32 21  1  0
 21 33  1  0
 21 34  1  6
 21 35  1  0
 23 22  1  0
 26 22  1  6
 24 23  2  0
 25 24  1  0
 36 25  1  0
 26 27  2  0
 26 28  2  0
 37 36  2  0
 36 41  1  0
 38 37  1  0
 38 39  2  0
 38 44  1  0
 39 40  1  0
 40 41  2  0
 40 42  1  0
 43 42  1  6
M  CHG  1  45   1
M  END
$$$$
