
     RDKit          3D

 45 50  0  0  0  0  0  0  0  0999 V2000
   32.0554  -11.6798   10.3033 C   0  0  0  0  0  0  0  0  0  0  0  0
   33.1534  -12.4856   10.6128 C   0  0  0  0  0  0  0  0  0  0  0  0
   33.0181  -13.7597   11.1039 C   0  0  0  0  0  0  0  0  0  0  0  0
   27.7608  -15.0103   13.0856 C   0  0  0  0  0  0  0  0  0  0  0  0
   28.0267  -15.0935   14.5841 C   0  0  0  0  0  0  0  0  0  0  0  0
   25.6677  -15.5771   14.4323 C   0  0  0  0  0  0  0  0  0  0  0  0
   25.4388  -14.3307   13.5701 C   0  0  0  0  0  0  0  0  0  0  0  0
   30.9011  -16.9221   10.6201 C   0  0  0  0  0  0  0  0  0  0  0  0
   33.5649   -9.9680    9.3713 C   0  0  1  0  0  0  0  0  0  0  0  0
   33.5297   -8.8967    8.3467 C   0  0  0  0  0  0  0  0  0  0  0  0
   34.0046   -9.2031    7.0826 C   0  0  0  0  0  0  0  0  0  0  0  0
   34.0074   -8.2756    6.0530 C   0  0  0  0  0  0  0  0  0  0  0  0
   33.5278   -7.0017    6.2684 C   0  0  0  0  0  0  0  0  0  0  0  0
   33.0522   -6.6873    7.5256 C   0  0  0  0  0  0  0  0  0  0  0  0
   33.0506   -7.6285    8.5658 C   0  0  0  0  0  0  0  0  0  0  0  0
   34.4929   -9.6827   10.4852 C   0  0  0  0  0  0  0  0  0  0  0  0
   35.8136  -10.0212   10.3881 C   0  0  0  0  0  0  0  0  0  0  0  0
   36.7225   -9.7722   11.4204 C   0  0  0  0  0  0  0  0  0  0  0  0
   36.2806   -9.1680   12.5725 C   0  0  0  0  0  0  0  0  0  0  0  0
   34.9427   -8.8361   12.6454 C   0  0  0  0  0  0  0  0  0  0  0  0
   34.9021  -10.1603    5.1837 C   0  0  1  0  0  0  0  0  0  0  0  0
   31.7828  -14.2833   11.3071 C   0  0  0  0  0  0  0  0  0  0  0  0
   30.6789  -13.5030   11.0077 C   0  0  0  0  0  0  0  0  0  0  0  0
   30.7610  -12.2061   10.5077 C   0  0  0  0  0  0  0  0  0  0  0  0
   29.6209  -11.4422   10.2136 N   0  0  0  0  0  0  0  0  0  0  0  0
   31.5586  -15.8960   11.9284 S   0  0  1  0  0  6  0  0  0  0  0  0
   30.5589  -15.9096   13.0516 O   0  0  0  0  0  0  0  0  0  0  0  0
   32.8354  -16.4823   12.4610 O   0  0  0  0  0  0  0  0  0  0  0  0
   34.0828   -9.0927   11.6208 N   0  0  0  0  0  0  0  0  0  0  0  0
   36.4055  -10.7778    8.9531 Cl  0  0  0  0  0  0  0  0  0  0  0  0
   32.2614  -10.3784    9.8104 N   0  0  0  0  0  0  0  0  0  0  0  0
   34.5411  -10.3581    6.5444 O   0  0  0  0  0  0  0  0  0  0  0  0
   34.5311   -8.8253    4.8920 O   0  0  0  0  0  0  0  0  0  0  0  0
   36.2704  -10.3511    5.0440 F   0  0  0  0  0  0  0  0  0  0  0  0
   34.1778  -11.0214    4.3734 F   0  0  0  0  0  0  0  0  0  0  0  0
   28.3411  -11.5936   10.7384 C   0  0  0  0  0  0  0  0  0  0  0  0
   28.0688  -12.6759   11.5365 N   0  0  0  0  0  0  0  0  0  0  0  0
   26.8866  -12.9276   12.0949 C   0  0  0  0  0  0  0  0  0  0  0  0
   25.8831  -12.0404   11.8492 N   0  0  0  0  0  0  0  0  0  0  0  0
   26.1297  -10.9730   11.0694 C   0  0  0  0  0  0  0  0  0  0  0  0
   27.3283  -10.7705   10.5378 N   0  0  0  0  0  0  0  0  0  0  0  0
   25.1308  -10.0227   10.7811 O   0  0  0  0  0  0  0  0  0  0  0  0
   24.3316  -10.2434    9.6450 C   0  0  0  0  0  0  0  0  0  0  0  0
   26.6875  -14.0686   12.9064 N   0  0  0  0  0  0  0  0  0  0  0  0
   26.8169  -15.3792   15.2994 N   0  0  0  0  0  4  0  0  0  0  0  0
  1  2  2  0
 24  1  1  0
  1 31  1  0
  2  3  1  0
 22  3  2  0
  5  4  1  1
  4 44  1  6
 45  5  1  1
  6  7  1  1
  6 45  1  0
  7 44  1  6
  8 26  1  6
  9 10  1  0
  9 16  1  0
  9 31  1  1
 10 11  2  0
 10 15  1  0
 11 12  1  0
 11 32  1  0
 12 13  2  0
 12 33  1  0
 14 13  1  0
 15 14  2  0
 16 17  2  0
 16 29  1  0
 17 18  1  0
 17 30  1  0
 18 19  2  0
 20 19  1  0
 29 20  2  0
 32 21  1  0
 21 33  1  0
 21 34  1  1
 21 35  1  0
 23 22  1  0
 26 22  1  6
 24 23  2  0
 25 24  1  0
 36 25  1  0
 26 27  2  0
 26 28  2  0
 37 36  2  0
 36 41  1  0
 38 37  1  0
 38 39  2  0
 38 44  1  0
 39 40  1  0
 40 41  2  0
 40 42  1  0
 43 42  1  6
M  CHG  1  45   1
M  END
$$$$
