
     RDKit          3D

 45 50  0  0  0  0  0  0  0  0999 V2000
   32.8926   -9.6157   12.6127 C   0  0  0  0  0  0  0  0  0  0  0  0
   31.5651   -9.8997   12.4426 C   0  0  0  0  0  0  0  0  0  0  0  0
   30.7226  -10.3107   13.4657 C   0  0  0  0  0  0  0  0  0  0  0  0
   38.5066   -7.1145   18.4012 C   0  0  0  0  0  0  0  0  0  0  0  0
   39.5243   -6.0179   18.3528 C   0  0  0  0  0  0  0  0  0  0  0  0
   40.1391   -6.6108   16.1672 C   0  0  0  0  0  0  0  0  0  0  0  0
   39.0369   -7.6559   16.0054 C   0  0  0  0  0  0  0  0  0  0  0  0
   30.4496  -10.1059   17.5227 C   0  0  0  0  0  0  0  0  0  0  0  0
   33.5504   -9.1127   10.1626 C   0  0  1  0  0  0  0  0  0  0  0  0
   33.7951   -7.8536    9.4309 C   0  0  0  0  0  0  0  0  0  0  0  0
   33.2495   -7.5058    8.2157 C   0  0  0  0  0  0  0  0  0  0  0  0
   33.5150   -6.3179    7.5692 C   0  0  0  0  0  0  0  0  0  0  0  0
   34.3694   -5.4218    8.1570 C   0  0  0  0  0  0  0  0  0  0  0  0
   34.9362   -5.7401    9.3794 C   0  0  0  0  0  0  0  0  0  0  0  0
   34.6654   -6.9208   10.0114 C   0  0  0  0  0  0  0  0  0  0  0  0
   33.9027  -10.3116    9.3713 C   0  0  0  0  0  0  0  0  0  0  0  0
   33.0319  -11.0219    8.6063 C   0  0  0  0  0  0  0  0  0  0  0  0
   33.4998  -12.0957    7.8284 C   0  0  0  0  0  0  0  0  0  0  0  0
   34.8338  -12.4518    7.8238 C   0  0  0  0  0  0  0  0  0  0  0  0
   35.6849  -11.7072    8.6164 C   0  0  0  0  0  0  0  0  0  0  0  0
   31.7710   -7.2893    6.4572 C   0  0  1  0  0  0  0  0  0  0  0  0
   31.2262  -10.4488   14.7363 C   0  0  0  0  0  0  0  0  0  0  0  0
   32.5372  -10.1764   14.9431 C   0  0  0  0  0  0  0  0  0  0  0  0
   33.3858   -9.7616   13.9080 C   0  0  0  0  0  0  0  0  0  0  0  0
   34.7385   -9.5363   14.2325 N   0  0  0  0  0  0  0  0  0  0  0  0
   30.1290  -10.9754   16.0164 S   0  0  1  0  0  6  0  0  0  0  0  0
   30.3430  -12.4389   16.2760 O   0  0  0  0  0  0  0  0  0  0  0  0
   28.7049  -10.8189   15.5692 O   0  0  0  0  0  0  0  0  0  0  0  0
   35.2111  -10.7039    9.3334 N   0  0  0  0  0  0  0  0  0  0  0  0
   31.2967  -10.7711    8.5551 Cl  0  0  0  0  0  0  0  0  0  0  0  0
   33.6883   -9.1712   11.5481 N   0  0  0  0  0  0  0  0  0  0  0  0
   32.3635   -8.1891    7.3757 O   0  0  0  0  0  0  0  0  0  0  0  0
   32.7960   -6.3058    6.3773 O   0  0  0  0  0  0  0  0  0  0  0  0
   31.4713   -7.8758    5.2688 F   0  0  0  0  0  0  0  0  0  0  0  0
   30.6879   -6.6637    7.0589 F   0  0  0  0  0  0  0  0  0  0  0  0
   35.0777   -8.9200   15.4761 C   0  0  0  0  0  0  0  0  0  0  0  0
   36.3471   -8.5412   15.7124 N   0  0  0  0  0  0  0  0  0  0  0  0
   36.7348   -7.9410   16.8524 C   0  0  0  0  0  0  0  0  0  0  0  0
   35.8396   -7.7017   17.8008 N   0  0  0  0  0  0  0  0  0  0  0  0
   34.5583   -8.0667   17.6016 C   0  0  0  0  0  0  0  0  0  0  0  0
   34.1800   -8.6696   16.4525 N   0  0  0  0  0  0  0  0  0  0  0  0
   33.6607   -7.7924   18.6261 O   0  0  0  0  0  0  0  0  0  0  0  0
   32.2908   -8.1071   18.4524 C   0  0  0  0  0  0  0  0  0  0  0  0
   38.0905   -7.5726   17.0761 N   0  0  0  0  0  0  0  0  0  0  0  0
   39.6548   -5.5235   17.0080 N   0  0  0  0  0  4  0  0  0  0  0  0
  1  2  2  0
 24  1  1  0
  1 31  1  0
  2  3  1  0
 22  3  2  0
  4  5  1  0
 44  4  1  0
  5 45  1  0
  7  6  1  0
  6 45  1  0
 44  7  1  0
 26  8  1  1
  9 10  1  0
  9 16  1  0
  9 31  1  1
 10 11  2  0
 10 15  1  0
 11 12  1  0
 11 32  1  0
 12 13  2  0
 12 33  1  0
 14 13  1  0
 15 14  2  0
 16 17  2  0
 16 29  1  0
 17 18  1  0
 17 30  1  0
 18 19  2  0
 20 19  1  0
 29 20  2  0
 32 21  1  0
 21 33  1  0
 21 34  1  6
 21 35  1  0
 23 22  1  0
 22 26  1  0
 24 23  2  0
 25 24  1  0
 36 25  1  0
 26 27  2  0
 26 28  2  0
 37 36  2  0
 36 41  1  0
 38 37  1  0
 38 39  2  0
 38 44  1  0
 39 40  1  0
 40 41  2  0
 40 42  1  0
 42 43  1  0
M  CHG  1  45   1
M  END
$$$$
