
     RDKit          3D

 45 50  0  0  0  0  0  0  0  0999 V2000
   35.0247   -7.8253   13.4895 C   0  0  0  0  0  0  0  0  0  0  0  0
   34.0583   -8.8065   13.2576 C   0  0  0  0  0  0  0  0  0  0  0  0
   33.2202   -9.2637   14.2432 C   0  0  0  0  0  0  0  0  0  0  0  0
   36.0818   -6.4178   21.1428 C   0  0  0  0  0  0  0  0  0  0  0  0
   34.8845   -5.9090   21.9370 C   0  0  0  0  0  0  0  0  0  0  0  0
   34.0970   -8.0215   21.0775 C   0  0  0  0  0  0  0  0  0  0  0  0
   34.5348   -7.6399   19.6591 C   0  0  0  0  0  0  0  0  0  0  0  0
   32.7085  -10.9942   17.1942 C   0  0  0  0  0  0  0  0  0  0  0  0
   35.7568   -8.0164   11.1432 C   0  0  1  0  0  0  0  0  0  0  0  0
   35.0777   -7.1604   10.1409 C   0  0  0  0  0  0  0  0  0  0  0  0
   34.0791   -7.7388    9.3754 C   0  0  0  0  0  0  0  0  0  0  0  0
   33.3782   -7.0230    8.4181 C   0  0  0  0  0  0  0  0  0  0  0  0
   33.6649   -5.6925    8.2019 C   0  0  0  0  0  0  0  0  0  0  0  0
   34.6587   -5.1074    8.9605 C   0  0  0  0  0  0  0  0  0  0  0  0
   35.3664   -5.8347    9.9290 C   0  0  0  0  0  0  0  0  0  0  0  0
   37.0347   -8.5807   10.6617 C   0  0  0  0  0  0  0  0  0  0  0  0
   37.0495   -9.7432    9.9428 C   0  0  0  0  0  0  0  0  0  0  0  0
   38.2369  -10.3115    9.4730 C   0  0  0  0  0  0  0  0  0  0  0  0
   39.4312   -9.6865    9.7387 C   0  0  0  0  0  0  0  0  0  0  0  0
   39.3891   -8.5141   10.4662 C   0  0  0  0  0  0  0  0  0  0  0  0
   32.5407   -9.1212    8.3509 C   0  0  1  0  0  0  0  0  0  0  0  0
   33.3109   -8.7621   15.5007 C   0  0  0  0  0  0  0  0  0  0  0  0
   34.2619   -7.7884   15.7548 C   0  0  0  0  0  0  0  0  0  0  0  0
   35.1354   -7.2904   14.7917 C   0  0  0  0  0  0  0  0  0  0  0  0
   36.0880   -6.3014   15.0829 N   0  0  0  0  0  0  0  0  0  0  0  0
   32.2695   -9.3096   16.7864 S   0  0  1  0  0  6  0  0  0  0  0  0
   30.8300   -9.3160   16.3519 O   0  0  0  0  0  0  0  0  0  0  0  0
   32.3634   -8.4354   18.0049 O   0  0  0  0  0  0  0  0  0  0  0  0
   38.2143   -7.9866   10.9097 N   0  0  0  0  0  0  0  0  0  0  0  0
   35.5671  -10.5538    9.5858 Cl  0  0  0  0  0  0  0  0  0  0  0  0
   35.8592   -7.4050   12.4378 N   0  0  0  0  0  0  0  0  0  0  0  0
   33.5563   -9.0183    9.3402 O   0  0  0  0  0  0  0  0  0  0  0  0
   32.4356   -7.8247    7.7912 O   0  0  0  0  0  0  0  0  0  0  0  0
   32.9256  -10.0572    7.4000 F   0  0  0  0  0  0  0  0  0  0  0  0
   31.3348   -9.4593    8.9459 F   0  0  0  0  0  0  0  0  0  0  0  0
   36.4603   -5.8268   16.3368 C   0  0  0  0  0  0  0  0  0  0  0  0
   35.9258   -6.4088   17.4584 N   0  0  0  0  0  0  0  0  0  0  0  0
   36.2045   -6.0434   18.7080 C   0  0  0  0  0  0  0  0  0  0  0  0
   37.0845   -5.0172   18.8726 N   0  0  0  0  0  0  0  0  0  0  0  0
   37.6196   -4.4335   17.7858 C   0  0  0  0  0  0  0  0  0  0  0  0
   37.3062   -4.8382   16.5617 N   0  0  0  0  0  0  0  0  0  0  0  0
   38.5349   -3.3684   17.8950 O   0  0  0  0  0  0  0  0  0  0  0  0
   38.7870   -2.8566   19.1805 C   0  0  0  0  0  0  0  0  0  0  0  0
   35.6091   -6.6959   19.8124 N   0  0  0  0  0  0  0  0  0  0  0  0
   33.7855   -6.8255   21.8418 N   0  0  0  0  0  4  0  0  0  0  0  0
  1  2  2  0
 24  1  1  0
  1 31  1  0
  2  3  1  0
 22  3  2  0
  5  4  1  1
  4 44  1  6
 45  5  1  1
  6  7  1  1
  6 45  1  0
  7 44  1  6
  8 26  1  6
  9 10  1  0
  9 16  1  0
  9 31  1  1
 10 11  2  0
 10 15  1  0
 11 12  1  0
 11 32  1  0
 12 13  2  0
 12 33  1  0
 14 13  1  0
 15 14  2  0
 16 17  2  0
 16 29  1  0
 17 18  1  0
 17 30  1  0
 18 19  2  0
 20 19  1  0
 29 20  2  0
 32 21  1  0
 21 33  1  0
 21 34  1  6
 21 35  1  0
 23 22  1  0
 26 22  1  6
 24 23  2  0
 25 24  1  0
 36 25  1  0
 26 27  2  0
 26 28  2  0
 37 36  2  0
 36 41  1  0
 38 37  1  0
 38 39  2  0
 38 44  1  0
 39 40  1  0
 40 41  2  0
 40 42  1  0
 43 42  1  6
M  CHG  1  45   1
M  END
$$$$
