
     RDKit          3D

 45 50  0  0  0  0  0  0  0  0999 V2000
   36.0145   -3.4119   16.0692 C   0  0  0  0  0  0  0  0  0  0  0  0
   34.8265   -3.2630   15.4073 C   0  0  0  0  0  0  0  0  0  0  0  0
   33.9010   -2.2683   15.6891 C   0  0  0  0  0  0  0  0  0  0  0  0
   33.9685    0.1369   20.3331 C   0  0  0  0  0  0  0  0  0  0  0  0
   33.2657    1.4568   20.2657 C   0  0  0  0  0  0  0  0  0  0  0  0
   34.3135    2.1771   22.2378 C   0  0  0  0  0  0  0  0  0  0  0  0
   35.2223    0.9546   22.3514 C   0  0  0  0  0  0  0  0  0  0  0  0
   31.8242   -0.6466   18.2606 C   0  0  0  0  0  0  0  0  0  0  0  0
   36.9008   -5.5361   14.8899 C   0  0  1  0  0  0  0  0  0  0  0  0
   37.4673   -5.4824   13.5272 C   0  0  0  0  0  0  0  0  0  0  0  0
   36.7602   -5.6065   12.3526 C   0  0  0  0  0  0  0  0  0  0  0  0
   37.3379   -5.5553   11.1022 C   0  0  0  0  0  0  0  0  0  0  0  0
   38.6927   -5.3713   11.0069 C   0  0  0  0  0  0  0  0  0  0  0  0
   39.4343   -5.2430   12.1690 C   0  0  0  0  0  0  0  0  0  0  0  0
   38.8507   -5.2951   13.4033 C   0  0  0  0  0  0  0  0  0  0  0  0
   37.0327   -6.8717   15.5117 C   0  0  0  0  0  0  0  0  0  0  0  0
   36.2439   -7.9423   15.2291 C   0  0  0  0  0  0  0  0  0  0  0  0
   36.5181   -9.1881   15.8208 C   0  0  0  0  0  0  0  0  0  0  0  0
   37.5768   -9.3523   16.6917 C   0  0  0  0  0  0  0  0  0  0  0  0
   38.3517   -8.2399   16.9545 C   0  0  0  0  0  0  0  0  0  0  0  0
   35.0776   -5.4608   10.7800 C   0  0  1  0  0  0  0  0  0  0  0  0
   34.1689   -1.3648   16.6885 C   0  0  0  0  0  0  0  0  0  0  0  0
   35.3362   -1.4809   17.3665 C   0  0  0  0  0  0  0  0  0  0  0  0
   36.2690   -2.4866   17.0799 C   0  0  0  0  0  0  0  0  0  0  0  0
   37.4349   -2.5306   17.8701 N   0  0  0  0  0  0  0  0  0  0  0  0
   32.9702   -0.1118   17.0243 S   0  0  1  0  0  6  0  0  0  0  0  0
   32.1938    0.1744   15.7711 O   0  0  0  0  0  0  0  0  0  0  0  0
   33.6567    1.1661   17.4094 O   0  0  0  0  0  0  0  0  0  0  0  0
   38.0661   -7.0852   16.3798 N   0  0  0  0  0  0  0  0  0  0  0  0
   34.8097   -7.9011   14.2203 Cl  0  0  0  0  0  0  0  0  0  0  0  0
   36.9272   -4.4159   15.7184 N   0  0  0  0  0  0  0  0  0  0  0  0
   35.3951   -5.8024   12.1168 O   0  0  0  0  0  0  0  0  0  0  0  0
   36.3304   -5.7144   10.1551 O   0  0  0  0  0  0  0  0  0  0  0  0
   34.0500   -6.1966   10.2814 F   0  0  0  0  0  0  0  0  0  0  0  0
   34.8769   -4.0903   10.6901 F   0  0  0  0  0  0  0  0  0  0  0  0
   37.4486   -1.8999   19.1520 C   0  0  0  0  0  0  0  0  0  0  0  0
   36.3799   -1.1928   19.5628 N   0  0  0  0  0  0  0  0  0  0  0  0
   36.3164   -0.5869   20.7624 C   0  0  0  0  0  0  0  0  0  0  0  0
   37.3444   -0.6787   21.5948 N   0  0  0  0  0  0  0  0  0  0  0  0
   38.4330   -1.3778   21.2194 C   0  0  0  0  0  0  0  0  0  0  0  0
   38.4860   -1.9821   20.0115 N   0  0  0  0  0  0  0  0  0  0  0  0
   39.4815   -1.4435   22.1289 O   0  0  0  0  0  0  0  0  0  0  0  0
   40.6753   -2.1131   21.7655 C   0  0  0  0  0  0  0  0  0  0  0  0
   35.1776    0.1700   21.1550 N   0  0  0  0  0  0  0  0  0  0  0  0
   34.0947    2.4879   20.8310 N   0  0  0  0  0  4  0  0  0  0  0  0
  1  2  2  0
 24  1  1  0
  1 31  1  0
  2  3  1  0
 22  3  2  0
  4  5  1  0
 44  4  1  0
  5 45  1  0
  7  6  1  0
  6 45  1  0
 44  7  1  0
 26  8  1  1
  9 10  1  0
  9 16  1  0
  9 31  1  1
 10 11  2  0
 10 15  1  0
 11 12  1  0
 11 32  1  0
 12 13  2  0
 12 33  1  0
 14 13  1  0
 15 14  2  0
 16 17  2  0
 16 29  1  0
 17 18  1  0
 17 30  1  0
 18 19  2  0
 20 19  1  0
 29 20  2  0
 32 21  1  0
 21 33  1  0
 21 34  1  6
 21 35  1  0
 23 22  1  0
 22 26  1  0
 24 23  2  0
 25 24  1  0
 36 25  1  0
 26 27  2  0
 26 28  2  0
 37 36  2  0
 36 41  1  0
 38 37  1  0
 38 39  2  0
 38 44  1  0
 39 40  1  0
 40 41  2  0
 40 42  1  0
 42 43  1  0
M  CHG  1  45   1
M  END
$$$$
