
     RDKit          3D

 45 50  0  0  0  0  0  0  0  0999 V2000
   33.0013  -10.1061   10.3382 C   0  0  0  0  0  0  0  0  0  0  0  0
   32.2995  -10.2625    9.1409 C   0  0  0  0  0  0  0  0  0  0  0  0
   32.6646   -9.6229    7.9830 C   0  0  0  0  0  0  0  0  0  0  0  0
   37.1844   -7.9773   15.7531 C   0  0  0  0  0  0  0  0  0  0  0  0
   38.5390   -8.5337   16.1759 C   0  0  0  0  0  0  0  0  0  0  0  0
   38.7028   -6.2056   16.7880 C   0  0  0  0  0  0  0  0  0  0  0  0
   38.2397   -5.7765   15.3914 C   0  0  0  0  0  0  0  0  0  0  0  0
   35.4930   -8.9532    5.7057 C   0  0  0  0  0  0  0  0  0  0  0  0
   31.5264  -11.7650   11.4108 C   0  0  1  0  0  0  0  0  0  0  0  0
   31.5938  -12.7870   12.4829 C   0  0  0  0  0  0  0  0  0  0  0  0
   31.2039  -14.0769   12.1641 C   0  0  0  0  0  0  0  0  0  0  0  0
   31.2377  -15.1061   13.0914 C   0  0  0  0  0  0  0  0  0  0  0  0
   31.6689  -14.8640   14.3778 C   0  0  0  0  0  0  0  0  0  0  0  0
   32.0597  -13.5811   14.7047 C   0  0  0  0  0  0  0  0  0  0  0  0
   32.0245  -12.5414   13.7635 C   0  0  0  0  0  0  0  0  0  0  0  0
   30.1819  -11.1737   11.2491 C   0  0  0  0  0  0  0  0  0  0  0  0
   29.3196  -11.6650   10.3091 C   0  0  0  0  0  0  0  0  0  0  0  0
   28.0413  -11.1313   10.1221 C   0  0  0  0  0  0  0  0  0  0  0  0
   27.6322  -10.0791   10.9050 C   0  0  0  0  0  0  0  0  0  0  0  0
   28.5215   -9.6016   11.8467 C   0  0  0  0  0  0  0  0  0  0  0  0
   30.4481  -16.0248   11.1834 C   0  0  1  0  0  0  0  0  0  0  0  0
   33.7440   -8.8008    7.9708 C   0  0  0  0  0  0  0  0  0  0  0  0
   34.4556   -8.6298    9.1462 C   0  0  0  0  0  0  0  0  0  0  0  0
   34.1279   -9.2546   10.3466 C   0  0  0  0  0  0  0  0  0  0  0  0
   34.8718   -9.0600   11.5208 N   0  0  0  0  0  0  0  0  0  0  0  0
   34.2480   -7.9665    6.5261 S   0  0  1  0  0  6  0  0  0  0  0  0
   34.8756   -6.6408    6.8573 O   0  0  0  0  0  0  0  0  0  0  0  0
   33.0991   -7.6958    5.5963 O   0  0  0  0  0  0  0  0  0  0  0  0
   29.7607  -10.1445   12.0035 N   0  0  0  0  0  0  0  0  0  0  0  0
   29.7980  -12.9900    9.3104 Cl  0  0  0  0  0  0  0  0  0  0  0  0
   32.5709  -10.7838   11.4934 N   0  0  0  0  0  0  0  0  0  0  0  0
   30.7321  -14.6447   10.9951 O   0  0  0  0  0  0  0  0  0  0  0  0
   30.7996  -16.2955   12.5281 O   0  0  0  0  0  0  0  0  0  0  0  0
   29.0962  -16.2459   10.9556 F   0  0  0  0  0  0  0  0  0  0  0  0
   31.2426  -16.7892   10.3425 F   0  0  0  0  0  0  0  0  0  0  0  0
   35.6389   -7.9509   11.8637 C   0  0  0  0  0  0  0  0  0  0  0  0
   36.1788   -7.8740   13.1228 N   0  0  0  0  0  0  0  0  0  0  0  0
   36.9279   -6.8665   13.5660 C   0  0  0  0  0  0  0  0  0  0  0  0
   37.1689   -5.8445   12.6988 N   0  0  0  0  0  0  0  0  0  0  0  0
   36.6488   -5.9010   11.4600 C   0  0  0  0  0  0  0  0  0  0  0  0
   35.9082   -6.9305   11.0702 N   0  0  0  0  0  0  0  0  0  0  0  0
   36.8647   -4.8735   10.5210 O   0  0  0  0  0  0  0  0  0  0  0  0
   35.7384   -4.3432    9.8665 C   0  0  0  0  0  0  0  0  0  0  0  0
   37.4474   -6.8631   14.8812 N   0  0  0  0  0  0  0  0  0  0  0  0
   39.3673   -7.4961   16.7183 N   0  0  0  0  0  4  0  0  0  0  0  0
  1  2  2  0
 24  1  1  0
  1 31  1  0
  2  3  1  0
 22  3  2  0
  5  4  1  1
  4 44  1  6
 45  5  1  1
  6  7  1  1
  6 45  1  0
  7 44  1  6
  8 26  1  6
  9 10  1  0
  9 16  1  0
  9 31  1  1
 10 11  2  0
 10 15  1  0
 11 12  1  0
 11 32  1  0
 12 13  2  0
 12 33  1  0
 14 13  1  0
 15 14  2  0
 16 17  2  0
 16 29  1  0
 17 18  1  0
 17 30  1  0
 18 19  2  0
 20 19  1  0
 29 20  2  0
 32 21  1  0
 21 33  1  0
 21 34  1  1
 21 35  1  0
 23 22  1  0
 26 22  1  1
 24 23  2  0
 25 24  1  0
 36 25  1  0
 26 27  2  0
 26 28  2  0
 37 36  2  0
 36 41  1  0
 38 37  1  0
 38 39  2  0
 38 44  1  0
 39 40  1  0
 40 41  2  0
 40 42  1  0
 43 42  1  6
M  CHG  1  45   1
M  END
$$$$
