
     RDKit          3D

 45 50  0  0  0  0  0  0  0  0999 V2000
   34.7893   -8.0041   13.4800 C   0  0  0  0  0  0  0  0  0  0  0  0
   34.1096   -8.8902   12.6413 C   0  0  0  0  0  0  0  0  0  0  0  0
   32.9887   -9.5726   13.0425 C   0  0  0  0  0  0  0  0  0  0  0  0
   37.4072   -4.7587   19.3820 C   0  0  0  0  0  0  0  0  0  0  0  0
   37.8201   -3.2990   19.2335 C   0  0  0  0  0  0  0  0  0  0  0  0
   36.9475   -3.3815   21.4815 C   0  0  0  0  0  0  0  0  0  0  0  0
   35.6680   -4.0674   20.9900 C   0  0  0  0  0  0  0  0  0  0  0  0
   29.6372   -9.4475   14.1569 C   0  0  0  0  0  0  0  0  0  0  0  0
   36.5764   -7.7678   11.7983 C   0  0  1  0  0  0  0  0  0  0  0  0
   36.1861   -6.9650   10.6145 C   0  0  0  0  0  0  0  0  0  0  0  0
   35.6418   -7.6389    9.5341 C   0  0  0  0  0  0  0  0  0  0  0  0
   35.2370   -6.9803    8.3842 C   0  0  0  0  0  0  0  0  0  0  0  0
   35.3697   -5.6119    8.2878 C   0  0  0  0  0  0  0  0  0  0  0  0
   35.9111   -4.9315    9.3600 C   0  0  0  0  0  0  0  0  0  0  0  0
   36.3198   -5.6013   10.5229 C   0  0  0  0  0  0  0  0  0  0  0  0
   38.0380   -7.9354   11.9361 C   0  0  0  0  0  0  0  0  0  0  0  0
   38.6703   -8.9956   11.3492 C   0  0  0  0  0  0  0  0  0  0  0  0
   40.0499   -9.1919   11.4592 C   0  0  0  0  0  0  0  0  0  0  0  0
   40.8003   -8.2939   12.1788 C   0  0  0  0  0  0  0  0  0  0  0  0
   40.1380   -7.2321   12.7614 C   0  0  0  0  0  0  0  0  0  0  0  0
   34.8240   -9.1713    8.0142 C   0  0  1  0  0  0  0  0  0  0  0  0
   32.4992   -9.4002   14.2963 C   0  0  0  0  0  0  0  0  0  0  0  0
   33.1565   -8.5268   15.1461 C   0  0  0  0  0  0  0  0  0  0  0  0
   34.2960   -7.8107   14.7890 C   0  0  0  0  0  0  0  0  0  0  0  0
   34.9378   -6.9318   15.6754 N   0  0  0  0  0  0  0  0  0  0  0  0
   31.0791  -10.2433   14.8529 S   0  0  1  0  0  6  0  0  0  0  0  0
   30.9540  -10.1644   16.3493 O   0  0  0  0  0  0  0  0  0  0  0  0
   31.1018  -11.6996   14.4837 O   0  0  0  0  0  0  0  0  0  0  0  0
   38.7917   -7.0697   12.6351 N   0  0  0  0  0  0  0  0  0  0  0  0
   37.7598  -10.1417   10.4331 Cl  0  0  0  0  0  0  0  0  0  0  0  0
   35.9380   -7.3410   13.0111 N   0  0  0  0  0  0  0  0  0  0  0  0
   35.3767   -8.9772    9.3094 O   0  0  0  0  0  0  0  0  0  0  0  0
   34.7285   -7.8745    7.4536 O   0  0  0  0  0  0  0  0  0  0  0  0
   35.6727   -9.9848    7.2750 F   0  0  0  0  0  0  0  0  0  0  0  0
   33.5533   -9.7161    8.1201 F   0  0  0  0  0  0  0  0  0  0  0  0
   34.4999   -6.5269   16.9325 C   0  0  0  0  0  0  0  0  0  0  0  0
   35.3699   -5.8677   17.7639 N   0  0  0  0  0  0  0  0  0  0  0  0
   35.0679   -5.4322   18.9854 C   0  0  0  0  0  0  0  0  0  0  0  0
   33.8020   -5.6632   19.4310 N   0  0  0  0  0  0  0  0  0  0  0  0
   32.9341   -6.3077   18.6311 C   0  0  0  0  0  0  0  0  0  0  0  0
   33.2886   -6.7205   17.4210 N   0  0  0  0  0  0  0  0  0  0  0  0
   31.6124   -6.5742   19.0387 O   0  0  0  0  0  0  0  0  0  0  0  0
   30.7983   -7.3143   18.1626 C   0  0  0  0  0  0  0  0  0  0  0  0
   36.0246   -4.7601   19.7809 N   0  0  0  0  0  0  0  0  0  0  0  0
   37.5109   -2.5603   20.4233 N   0  0  0  0  0  4  0  0  0  0  0  0
  1  2  2  0
 24  1  1  0
  1 31  1  0
  2  3  1  0
 22  3  2  0
  5  4  1  1
  4 44  1  6
 45  5  1  1
  6  7  1  1
  6 45  1  0
  7 44  1  6
  8 26  1  6
  9 10  1  0
  9 16  1  0
  9 31  1  1
 10 11  2  0
 10 15  1  0
 11 12  1  0
 11 32  1  0
 12 13  2  0
 12 33  1  0
 14 13  1  0
 15 14  2  0
 16 17  2  0
 16 29  1  0
 17 18  1  0
 17 30  1  0
 18 19  2  0
 20 19  1  0
 29 20  2  0
 32 21  1  0
 21 33  1  0
 21 34  1  6
 21 35  1  0
 23 22  1  0
 26 22  1  6
 24 23  2  0
 25 24  1  0
 36 25  1  0
 26 27  2  0
 26 28  2  0
 37 36  2  0
 36 41  1  0
 38 37  1  0
 38 39  2  0
 38 44  1  0
 39 40  1  0
 40 41  2  0
 40 42  1  0
 43 42  1  6
M  CHG  1  45   1
M  END
$$$$
