
     RDKit          3D

 45 50  0  0  0  0  0  0  0  0999 V2000
   35.0127   -7.9616   13.1456 C   0  0  0  0  0  0  0  0  0  0  0  0
   33.6833   -8.3619   13.2981 C   0  0  0  0  0  0  0  0  0  0  0  0
   33.0769   -8.4535   14.5256 C   0  0  0  0  0  0  0  0  0  0  0  0
   38.5966   -6.2154   20.0021 C   0  0  0  0  0  0  0  0  0  0  0  0
   38.2031   -4.8603   20.5784 C   0  0  0  0  0  0  0  0  0  0  0  0
   36.1117   -6.0635   20.5656 C   0  0  0  0  0  0  0  0  0  0  0  0
   36.3135   -6.4555   19.0977 C   0  0  0  0  0  0  0  0  0  0  0  0
   31.8068   -6.9683   17.3724 C   0  0  0  0  0  0  0  0  0  0  0  0
   34.7700   -8.1382   10.6987 C   0  0  1  0  0  0  0  0  0  0  0  0
   34.9376   -7.1129    9.6408 C   0  0  0  0  0  0  0  0  0  0  0  0
   33.9713   -7.0492    8.6510 C   0  0  0  0  0  0  0  0  0  0  0  0
   34.0311   -6.1220    7.6230 C   0  0  0  0  0  0  0  0  0  0  0  0
   35.0747   -5.2241    7.5613 C   0  0  0  0  0  0  0  0  0  0  0  0
   36.0428   -5.2800    8.5439 C   0  0  0  0  0  0  0  0  0  0  0  0
   35.9792   -6.2198    9.5834 C   0  0  0  0  0  0  0  0  0  0  0  0
   34.8742   -9.5229   10.1938 C   0  0  0  0  0  0  0  0  0  0  0  0
   33.7480  -10.2698    9.9878 C   0  0  0  0  0  0  0  0  0  0  0  0
   33.8040  -11.5841    9.5153 C   0  0  0  0  0  0  0  0  0  0  0  0
   35.0271  -12.1494    9.2473 C   0  0  0  0  0  0  0  0  0  0  0  0
   36.1487  -11.3744    9.4635 C   0  0  0  0  0  0  0  0  0  0  0  0
   32.1651   -7.3396    7.2437 C   0  0  1  0  0  0  0  0  0  0  0  0
   33.7703   -8.1503   15.6518 C   0  0  0  0  0  0  0  0  0  0  0  0
   35.0901   -7.7512   15.5257 C   0  0  0  0  0  0  0  0  0  0  0  0
   35.7519   -7.6417   14.3056 C   0  0  0  0  0  0  0  0  0  0  0  0
   37.0914   -7.2328   14.2130 N   0  0  0  0  0  0  0  0  0  0  0  0
   33.0449   -8.2507   17.2333 S   0  0  1  0  0  6  0  0  0  0  0  0
   34.0632   -8.0073   18.3126 O   0  0  0  0  0  0  0  0  0  0  0  0
   32.4333   -9.5983   17.4932 O   0  0  0  0  0  0  0  0  0  0  0  0
   36.0596  -10.0960    9.9250 N   0  0  0  0  0  0  0  0  0  0  0  0
   32.1933   -9.5904   10.3093 Cl  0  0  0  0  0  0  0  0  0  0  0  0
   35.5788   -7.8957   11.8595 N   0  0  0  0  0  0  0  0  0  0  0  0
   32.8227   -7.7843    8.4229 O   0  0  0  0  0  0  0  0  0  0  0  0
   32.9506   -6.2631    6.7647 O   0  0  0  0  0  0  0  0  0  0  0  0
   32.1181   -8.3829    6.3284 F   0  0  0  0  0  0  0  0  0  0  0  0
   30.8974   -6.8737    7.5573 F   0  0  0  0  0  0  0  0  0  0  0  0
   38.0001   -7.0660   15.2535 C   0  0  0  0  0  0  0  0  0  0  0  0
   37.5301   -6.8474   16.5239 N   0  0  0  0  0  0  0  0  0  0  0  0
   38.2988   -6.6741   17.5971 C   0  0  0  0  0  0  0  0  0  0  0  0
   39.6468   -6.7189   17.4083 N   0  0  0  0  0  0  0  0  0  0  0  0
   40.1275   -6.9321   16.1707 C   0  0  0  0  0  0  0  0  0  0  0  0
   39.3148   -7.0986   15.1352 N   0  0  0  0  0  0  0  0  0  0  0  0
   41.5117   -6.9884   15.9158 O   0  0  0  0  0  0  0  0  0  0  0  0
   42.3756   -6.4732   16.8988 C   0  0  0  0  0  0  0  0  0  0  0  0
   37.7344   -6.4530   18.8747 N   0  0  0  0  0  0  0  0  0  0  0  0
   36.7949   -4.8119   20.8458 N   0  0  0  0  0  4  0  0  0  0  0  0
  1  2  2  0
 24  1  1  0
  1 31  1  0
  2  3  1  0
 22  3  2  0
  5  4  1  1
  4 44  1  6
 45  5  1  1
  6  7  1  1
  6 45  1  0
  7 44  1  6
  8 26  1  6
  9 10  1  0
  9 16  1  0
  9 31  1  1
 10 11  2  0
 10 15  1  0
 11 12  1  0
 11 32  1  0
 12 13  2  0
 12 33  1  0
 14 13  1  0
 15 14  2  0
 16 17  2  0
 16 29  1  0
 17 18  1  0
 17 30  1  0
 18 19  2  0
 20 19  1  0
 29 20  2  0
 32 21  1  0
 21 33  1  0
 21 34  1  6
 21 35  1  0
 23 22  1  0
 26 22  1  6
 24 23  2  0
 25 24  1  0
 36 25  1  0
 26 27  2  0
 26 28  2  0
 37 36  2  0
 36 41  1  0
 38 37  1  0
 38 39  2  0
 38 44  1  0
 39 40  1  0
 40 41  2  0
 40 42  1  0
 43 42  1  6
M  CHG  1  45   1
M  END
$$$$
