
     RDKit          3D

 45 50  0  0  0  0  0  0  0  0999 V2000
   32.1301  -10.4946   11.2351 C   0  0  0  0  0  0  0  0  0  0  0  0
   32.7582  -11.1932   12.2686 C   0  0  0  0  0  0  0  0  0  0  0  0
   32.1270  -12.1820   12.9805 C   0  0  0  0  0  0  0  0  0  0  0  0
   24.3647  -11.5967   11.1785 C   0  0  0  0  0  0  0  0  0  0  0  0
   23.8634  -13.0181   10.9513 C   0  0  0  0  0  0  0  0  0  0  0  0
   25.2122  -13.2384   12.9398 C   0  0  0  0  0  0  0  0  0  0  0  0
   26.3819  -12.5177   12.2606 C   0  0  0  0  0  0  0  0  0  0  0  0
   29.3547  -14.9450   12.3894 C   0  0  0  0  0  0  0  0  0  0  0  0
   34.2630   -9.4307   10.6054 C   0  0  1  0  0  0  0  0  0  0  0  0
   34.8867   -9.0197    9.3246 C   0  0  0  0  0  0  0  0  0  0  0  0
   34.8689   -9.9305    8.2817 C   0  0  0  0  0  0  0  0  0  0  0  0
   35.4170   -9.6408    7.0424 C   0  0  0  0  0  0  0  0  0  0  0  0
   36.0042   -8.4148    6.8154 C   0  0  0  0  0  0  0  0  0  0  0  0
   36.0265   -7.5003    7.8492 C   0  0  0  0  0  0  0  0  0  0  0  0
   35.4705   -7.7967    9.1027 C   0  0  0  0  0  0  0  0  0  0  0  0
   34.7724   -8.6806   11.7721 C   0  0  0  0  0  0  0  0  0  0  0  0
   35.9526   -9.0381   12.3617 C   0  0  0  0  0  0  0  0  0  0  0  0
   36.4666   -8.3570   13.4688 C   0  0  0  0  0  0  0  0  0  0  0  0
   35.7680   -7.2931   13.9860 C   0  0  0  0  0  0  0  0  0  0  0  0
   34.5794   -6.9522   13.3725 C   0  0  0  0  0  0  0  0  0  0  0  0
   34.6197  -11.7496    6.8831 C   0  0  1  0  0  0  0  0  0  0  0  0
   30.8436  -12.5152   12.6919 C   0  0  0  0  0  0  0  0  0  0  0  0
   30.2000  -11.8360   11.6714 C   0  0  0  0  0  0  0  0  0  0  0  0
   30.7942  -10.8261   10.9193 C   0  0  0  0  0  0  0  0  0  0  0  0
   30.1130  -10.1579    9.8899 N   0  0  0  0  0  0  0  0  0  0  0  0
   29.9989  -13.7636   13.5666 S   0  0  1  0  0  6  0  0  0  0  0  0
   28.8262  -13.1987   14.3195 O   0  0  0  0  0  0  0  0  0  0  0  0
   30.8819  -14.4522   14.5684 O   0  0  0  0  0  0  0  0  0  0  0  0
   34.1061   -7.6370   12.2944 N   0  0  0  0  0  0  0  0  0  0  0  0
   36.8600  -10.3673   11.7357 Cl  0  0  0  0  0  0  0  0  0  0  0  0
   32.8297   -9.4855   10.5486 N   0  0  0  0  0  0  0  0  0  0  0  0
   34.3714  -11.2163    8.1772 O   0  0  0  0  0  0  0  0  0  0  0  0
   35.2724  -10.7124    6.1736 O   0  0  0  0  0  0  0  0  0  0  0  0
   35.4277  -12.8727    7.0016 F   0  0  0  0  0  0  0  0  0  0  0  0
   33.4189  -12.0445    6.2557 F   0  0  0  0  0  0  0  0  0  0  0  0
   28.7427  -10.1476    9.6483 C   0  0  0  0  0  0  0  0  0  0  0  0
   27.9110  -10.8530   10.4809 N   0  0  0  0  0  0  0  0  0  0  0  0
   26.5874  -10.9187   10.3521 C   0  0  0  0  0  0  0  0  0  0  0  0
   26.0302  -10.2326    9.3161 N   0  0  0  0  0  0  0  0  0  0  0  0
   26.8283   -9.5349    8.4887 C   0  0  0  0  0  0  0  0  0  0  0  0
   28.1431   -9.5038    8.6636 N   0  0  0  0  0  0  0  0  0  0  0  0
   26.3081   -8.8067    7.4010 O   0  0  0  0  0  0  0  0  0  0  0  0
   26.0674   -7.4343    7.5925 C   0  0  0  0  0  0  0  0  0  0  0  0
   25.7998  -11.6702   11.2548 N   0  0  0  0  0  0  0  0  0  0  0  0
   24.3931  -13.9080   11.9436 N   0  0  0  0  0  4  0  0  0  0  0  0
  1  2  2  0
 24  1  1  0
  1 31  1  0
  2  3  1  0
 22  3  2  0
  5  4  1  1
  4 44  1  6
 45  5  1  1
  6  7  1  1
  6 45  1  0
  7 44  1  6
  8 26  1  6
  9 10  1  0
  9 16  1  0
  9 31  1  6
 10 11  2  0
 10 15  1  0
 11 12  1  0
 11 32  1  0
 12 13  2  0
 12 33  1  0
 14 13  1  0
 15 14  2  0
 16 17  2  0
 16 29  1  0
 17 18  1  0
 17 30  1  0
 18 19  2  0
 20 19  1  0
 29 20  2  0
 32 21  1  0
 21 33  1  0
 21 34  1  1
 21 35  1  0
 23 22  1  0
 26 22  1  6
 24 23  2  0
 25 24  1  0
 36 25  1  0
 26 27  2  0
 26 28  2  0
 37 36  2  0
 36 41  1  0
 38 37  1  0
 38 39  2  0
 38 44  1  0
 39 40  1  0
 40 41  2  0
 40 42  1  0
 43 42  1  6
M  CHG  1  45   1
M  END
$$$$
