
     RDKit          3D

 45 50  0  0  0  0  0  0  0  0999 V2000
   36.2087   -5.9391   12.5672 C   0  0  0  0  0  0  0  0  0  0  0  0
   35.4376   -6.2273   11.4745 C   0  0  0  0  0  0  0  0  0  0  0  0
   34.4356   -5.3975   10.9917 C   0  0  0  0  0  0  0  0  0  0  0  0
   35.8483   -2.9372   20.2773 C   0  0  0  0  0  0  0  0  0  0  0  0
   36.7226   -2.1506   21.2032 C   0  0  0  0  0  0  0  0  0  0  0  0
   38.6548   -3.1186   20.2890 C   0  0  0  0  0  0  0  0  0  0  0  0
   37.9118   -3.8572   19.1773 C   0  0  0  0  0  0  0  0  0  0  0  0
   31.3112   -3.7209   11.5485 C   0  0  0  0  0  0  0  0  0  0  0  0
   37.8072   -7.9711   12.5015 C   0  0  1  0  0  0  0  0  0  0  0  0
   37.8412   -8.2499   11.0517 C   0  0  0  0  0  0  0  0  0  0  0  0
   37.2907   -9.3459   10.4265 C   0  0  0  0  0  0  0  0  0  0  0  0
   37.3549   -9.5642    9.0671 C   0  0  0  0  0  0  0  0  0  0  0  0
   38.0007   -8.6467    8.2799 C   0  0  0  0  0  0  0  0  0  0  0  0
   38.5661   -7.5327    8.8766 C   0  0  0  0  0  0  0  0  0  0  0  0
   38.4960   -7.3265   10.2254 C   0  0  0  0  0  0  0  0  0  0  0  0
   38.9735   -8.5306   13.2188 C   0  0  0  0  0  0  0  0  0  0  0  0
   39.2075   -9.8564   13.4075 C   0  0  0  0  0  0  0  0  0  0  0  0
   40.3962  -10.2745   14.0316 C   0  0  0  0  0  0  0  0  0  0  0  0
   41.3395   -9.3636   14.4637 C   0  0  0  0  0  0  0  0  0  0  0  0
   41.0626   -8.0268   14.2559 C   0  0  0  0  0  0  0  0  0  0  0  0
   35.8719  -11.0889    9.9024 C   0  0  1  0  0  0  0  0  0  0  0  0
   34.1819   -4.2083   11.6307 C   0  0  0  0  0  0  0  0  0  0  0  0
   34.9258   -3.8889   12.7171 C   0  0  0  0  0  0  0  0  0  0  0  0
   35.9369   -4.7288   13.2027 C   0  0  0  0  0  0  0  0  0  0  0  0
   36.6257   -4.3095   14.3583 N   0  0  0  0  0  0  0  0  0  0  0  0
   32.8991   -3.1751   10.9930 S   0  0  1  0  0  6  0  0  0  0  0  0
   32.9106   -3.2462    9.4930 O   0  0  0  0  0  0  0  0  0  0  0  0
   33.1617   -1.7438   11.3605 O   0  0  0  0  0  0  0  0  0  0  0  0
   39.9363   -7.6697   13.6649 N   0  0  0  0  0  0  0  0  0  0  0  0
   38.0888  -11.1460   13.0056 Cl  0  0  0  0  0  0  0  0  0  0  0  0
   37.2306   -6.8002   12.9896 N   0  0  0  0  0  0  0  0  0  0  0  0
   36.5844  -10.4394   10.9393 O   0  0  0  0  0  0  0  0  0  0  0  0
   36.6964  -10.7590    8.7908 O   0  0  0  0  0  0  0  0  0  0  0  0
   35.7372  -12.4238   10.1162 F   0  0  0  0  0  0  0  0  0  0  0  0
   34.6667  -10.4337    9.6914 F   0  0  0  0  0  0  0  0  0  0  0  0
   35.8916   -3.8992   15.5133 C   0  0  0  0  0  0  0  0  0  0  0  0
   36.5033   -3.8401   16.7105 N   0  0  0  0  0  0  0  0  0  0  0  0
   35.8794   -3.4471   17.8359 C   0  0  0  0  0  0  0  0  0  0  0  0
   34.6016   -3.0968   17.7852 N   0  0  0  0  0  0  0  0  0  0  0  0
   33.9543   -3.1432   16.6047 C   0  0  0  0  0  0  0  0  0  0  0  0
   34.5909   -3.5401   15.4803 N   0  0  0  0  0  0  0  0  0  0  0  0
   32.6172   -2.7652   16.6064 O   0  0  0  0  0  0  0  0  0  0  0  0
   31.8074   -3.0711   15.4856 C   0  0  0  0  0  0  0  0  0  0  0  0
   36.5528   -3.4164   19.0887 N   0  0  0  0  0  0  0  0  0  0  0  0
   37.9793   -1.8576   20.5670 N   0  0  0  0  0  4  0  0  0  0  0  0
  1  2  2  0
 24  1  1  0
  1 31  1  0
  2  3  1  0
 22  3  2  0
  4  5  1  0
 44  4  1  0
  5 45  1  0
  7  6  1  0
  6 45  1  0
 44  7  1  0
 26  8  1  1
  9 10  1  0
  9 16  1  0
  9 31  1  6
 10 11  2  0
 10 15  1  0
 11 12  1  0
 11 32  1  0
 12 13  2  0
 12 33  1  0
 14 13  1  0
 15 14  2  0
 16 17  2  0
 16 29  1  0
 17 18  1  0
 17 30  1  0
 18 19  2  0
 20 19  1  0
 29 20  2  0
 32 21  1  0
 21 33  1  0
 21 34  1  1
 21 35  1  0
 23 22  1  0
 22 26  1  0
 24 23  2  0
 25 24  1  0
 36 25  1  0
 26 27  2  0
 26 28  2  0
 37 36  2  0
 36 41  1  0
 38 37  1  0
 38 39  2  0
 38 44  1  0
 39 40  1  0
 40 41  2  0
 40 42  1  0
 42 43  1  0
M  CHG  1  45   1
M  END
$$$$
