
     RDKit          3D

 45 50  0  0  0  0  0  0  0  0999 V2000
   35.4248   -8.3085   13.2979 C   0  0  0  0  0  0  0  0  0  0  0  0
   34.0907   -8.7192   13.3448 C   0  0  0  0  0  0  0  0  0  0  0  0
   33.3661   -8.7404   14.5100 C   0  0  0  0  0  0  0  0  0  0  0  0
   37.9482   -5.4947   20.2191 C   0  0  0  0  0  0  0  0  0  0  0  0
   37.1813   -4.2230   20.5625 C   0  0  0  0  0  0  0  0  0  0  0  0
   35.4511   -5.9047   20.5535 C   0  0  0  0  0  0  0  0  0  0  0  0
   35.9049   -6.4048   19.1776 C   0  0  0  0  0  0  0  0  0  0  0  0
   32.8988   -6.6760   17.7529 C   0  0  0  0  0  0  0  0  0  0  0  0
   35.4272   -8.6440   10.8555 C   0  0  1  0  0  0  0  0  0  0  0  0
   35.4630   -7.5553    9.8496 C   0  0  0  0  0  0  0  0  0  0  0  0
   34.3012   -7.2990    9.1410 C   0  0  0  0  0  0  0  0  0  0  0  0
   34.2279   -6.2981    8.1855 C   0  0  0  0  0  0  0  0  0  0  0  0
   35.3320   -5.5194    7.9136 C   0  0  0  0  0  0  0  0  0  0  0  0
   36.4946   -5.7675    8.6153 C   0  0  0  0  0  0  0  0  0  0  0  0
   36.5654   -6.7816    9.5820 C   0  0  0  0  0  0  0  0  0  0  0  0
   35.8073   -9.9619   10.3059 C   0  0  0  0  0  0  0  0  0  0  0  0
   34.8457  -10.8476    9.9070 C   0  0  0  0  0  0  0  0  0  0  0  0
   35.1636  -12.1050    9.3858 C   0  0  0  0  0  0  0  0  0  0  0  0
   36.4832  -12.4686    9.2680 C   0  0  0  0  0  0  0  0  0  0  0  0
   37.4348  -11.5564    9.6777 C   0  0  0  0  0  0  0  0  0  0  0  0
   32.1848   -7.2638    8.2207 C   0  0  1  0  0  0  0  0  0  0  0  0
   33.9414   -8.3535   15.6764 C   0  0  0  0  0  0  0  0  0  0  0  0
   35.2633   -7.9424   15.6548 C   0  0  0  0  0  0  0  0  0  0  0  0
   36.0420   -7.9020   14.5012 C   0  0  0  0  0  0  0  0  0  0  0  0
   37.3802   -7.4787   14.5141 N   0  0  0  0  0  0  0  0  0  0  0  0
   33.0634   -8.3623   17.1819 S   0  0  1  0  0  6  0  0  0  0  0  0
   33.8130   -9.1214   18.2416 O   0  0  0  0  0  0  0  0  0  0  0  0
   31.7110   -9.0029   17.0471 O   0  0  0  0  0  0  0  0  0  0  0  0
   37.0913  -10.3385   10.1815 N   0  0  0  0  0  0  0  0  0  0  0  0
   33.1768  -10.4228   10.0360 Cl  0  0  0  0  0  0  0  0  0  0  0  0
   36.1152   -8.3175   12.0723 N   0  0  0  0  0  0  0  0  0  0  0  0
   33.0467   -7.8796    9.1686 O   0  0  0  0  0  0  0  0  0  0  0  0
   32.9620   -6.2433    7.6210 O   0  0  0  0  0  0  0  0  0  0  0  0
   31.7821   -8.2117    7.2892 F   0  0  0  0  0  0  0  0  0  0  0  0
   31.1026   -6.6895    8.8701 F   0  0  0  0  0  0  0  0  0  0  0  0
   38.1057   -6.9962   15.5990 C   0  0  0  0  0  0  0  0  0  0  0  0
   37.4571   -6.7554   16.7839 N   0  0  0  0  0  0  0  0  0  0  0  0
   38.0418   -6.2952   17.8881 C   0  0  0  0  0  0  0  0  0  0  0  0
   39.3798   -6.0495   17.8252 N   0  0  0  0  0  0  0  0  0  0  0  0
   40.0338   -6.2792   16.6729 C   0  0  0  0  0  0  0  0  0  0  0  0
   39.4007   -6.7388   15.6013 N   0  0  0  0  0  0  0  0  0  0  0  0
   41.4170   -6.0435   16.5494 O   0  0  0  0  0  0  0  0  0  0  0  0
   42.0505   -6.4893   15.3755 C   0  0  0  0  0  0  0  0  0  0  0  0
   37.3003   -6.0727   19.0715 N   0  0  0  0  0  0  0  0  0  0  0  0
   35.7810   -4.4977   20.7063 N   0  0  0  0  0  4  0  0  0  0  0  0
  1  2  2  0
 24  1  1  0
  1 31  1  0
  2  3  1  0
 22  3  2  0
  5  4  1  1
  4 44  1  6
 45  5  1  1
  6  7  1  1
  6 45  1  0
  7 44  1  6
  8 26  1  6
  9 10  1  0
  9 16  1  0
  9 31  1  1
 10 11  2  0
 10 15  1  0
 11 12  1  0
 11 32  1  0
 12 13  2  0
 12 33  1  0
 14 13  1  0
 15 14  2  0
 16 17  2  0
 16 29  1  0
 17 18  1  0
 17 30  1  0
 18 19  2  0
 20 19  1  0
 29 20  2  0
 32 21  1  0
 21 33  1  0
 21 34  1  6
 21 35  1  0
 23 22  1  0
 26 22  1  6
 24 23  2  0
 25 24  1  0
 36 25  1  0
 26 27  2  0
 26 28  2  0
 37 36  2  0
 36 41  1  0
 38 37  1  0
 38 39  2  0
 38 44  1  0
 39 40  1  0
 40 41  2  0
 40 42  1  0
 43 42  1  6
M  CHG  1  45   1
M  END
$$$$
