
     RDKit          3D

 45 50  0  0  0  0  0  0  0  0999 V2000
   36.1377   -5.5719   14.3647 C   0  0  0  0  0  0  0  0  0  0  0  0
   35.0303   -4.9212   13.8159 C   0  0  0  0  0  0  0  0  0  0  0  0
   34.5275   -3.7552   14.3361 C   0  0  0  0  0  0  0  0  0  0  0  0
   36.5782   -2.4350   19.6871 C   0  0  0  0  0  0  0  0  0  0  0  0
   35.1411   -2.5152   20.1885 C   0  0  0  0  0  0  0  0  0  0  0  0
   36.4145   -2.3872   22.2339 C   0  0  0  0  0  0  0  0  0  0  0  0
   37.3293   -3.5257   21.7690 C   0  0  0  0  0  0  0  0  0  0  0  0
   32.9559   -2.0573   16.9418 C   0  0  0  0  0  0  0  0  0  0  0  0
   35.8193   -7.4407   12.7887 C   0  0  1  0  0  0  0  0  0  0  0  0
   36.6353   -8.0015   11.6850 C   0  0  0  0  0  0  0  0  0  0  0  0
   36.2450   -7.7119   10.3883 C   0  0  0  0  0  0  0  0  0  0  0  0
   36.9444   -8.1802    9.2875 C   0  0  0  0  0  0  0  0  0  0  0  0
   38.0668   -8.9606    9.4621 C   0  0  0  0  0  0  0  0  0  0  0  0
   38.4635   -9.2543   10.7512 C   0  0  0  0  0  0  0  0  0  0  0  0
   37.7534   -8.7785   11.8635 C   0  0  0  0  0  0  0  0  0  0  0  0
   34.8541   -8.4069   13.3528 C   0  0  0  0  0  0  0  0  0  0  0  0
   33.6351   -8.5906   12.7623 C   0  0  0  0  0  0  0  0  0  0  0  0
   32.6931   -9.4915   13.2669 C   0  0  0  0  0  0  0  0  0  0  0  0
   32.9959  -10.2192   14.3922 C   0  0  0  0  0  0  0  0  0  0  0  0
   34.2332  -10.0154   14.9692 C   0  0  0  0  0  0  0  0  0  0  0  0
   35.2120   -6.9918    8.4539 C   0  0  1  0  0  0  0  0  0  0  0  0
   35.1074   -3.1897   15.4247 C   0  0  0  0  0  0  0  0  0  0  0  0
   36.2065   -3.8168   15.9865 C   0  0  0  0  0  0  0  0  0  0  0  0
   36.7555   -4.9996   15.4982 C   0  0  0  0  0  0  0  0  0  0  0  0
   37.8721   -5.6090   16.0915 N   0  0  0  0  0  0  0  0  0  0  0  0
   34.5064   -1.7099   16.1221 S   0  0  1  0  0  6  0  0  0  0  0  0
   34.2292   -0.6834   15.0588 O   0  0  0  0  0  0  0  0  0  0  0  0
   35.4826   -1.0993   17.0874 O   0  0  0  0  0  0  0  0  0  0  0  0
   35.1290   -9.1292   14.4522 N   0  0  0  0  0  0  0  0  0  0  0  0
   33.2219   -7.6967   11.3438 Cl  0  0  0  0  0  0  0  0  0  0  0  0
   36.5997   -6.7694   13.7891 N   0  0  0  0  0  0  0  0  0  0  0  0
   35.1933   -6.9755    9.8752 O   0  0  0  0  0  0  0  0  0  0  0  0
   36.3541   -7.7537    8.1070 O   0  0  0  0  0  0  0  0  0  0  0  0
   34.0444   -7.5839    7.9906 F   0  0  0  0  0  0  0  0  0  0  0  0
   35.3612   -5.7014    7.9690 F   0  0  0  0  0  0  0  0  0  0  0  0
   38.2611   -5.5483   17.4261 C   0  0  0  0  0  0  0  0  0  0  0  0
   37.6705   -4.6273   18.2541 N   0  0  0  0  0  0  0  0  0  0  0  0
   37.9578   -4.4746   19.5451 C   0  0  0  0  0  0  0  0  0  0  0  0
   38.9076   -5.2969   20.0708 N   0  0  0  0  0  0  0  0  0  0  0  0
   39.4983   -6.2064   19.2757 C   0  0  0  0  0  0  0  0  0  0  0  0
   39.1732   -6.3158   17.9940 N   0  0  0  0  0  0  0  0  0  0  0  0
   40.4867   -7.0831   19.7642 O   0  0  0  0  0  0  0  0  0  0  0  0
   40.6253   -8.3282   19.1250 C   0  0  0  0  0  0  0  0  0  0  0  0
   37.3023   -3.4988   20.3312 N   0  0  0  0  0  0  0  0  0  0  0  0
   35.1030   -2.5201   21.6222 N   0  0  0  0  0  4  0  0  0  0  0  0
  1  2  2  0
 24  1  1  0
  1 31  1  0
  2  3  1  0
 22  3  2  0
  5  4  1  1
  4 44  1  6
 45  5  1  1
  6  7  1  1
  6 45  1  0
  7 44  1  6
  8 26  1  6
  9 10  1  0
  9 16  1  0
  9 31  1  1
 10 11  2  0
 10 15  1  0
 11 12  1  0
 11 32  1  0
 12 13  2  0
 12 33  1  0
 14 13  1  0
 15 14  2  0
 16 17  2  0
 16 29  1  0
 17 18  1  0
 17 30  1  0
 18 19  2  0
 20 19  1  0
 29 20  2  0
 32 21  1  0
 21 33  1  0
 21 34  1  6
 21 35  1  0
 23 22  1  0
 26 22  1  6
 24 23  2  0
 25 24  1  0
 36 25  1  0
 26 27  2  0
 26 28  2  0
 37 36  2  0
 36 41  1  0
 38 37  1  0
 38 39  2  0
 38 44  1  0
 39 40  1  0
 40 41  2  0
 40 42  1  0
 43 42  1  6
M  CHG  1  45   1
M  END
$$$$
