
     RDKit          3D

 45 50  0  0  0  0  0  0  0  0999 V2000
   36.7239   -7.4768   12.5450 C   0  0  0  0  0  0  0  0  0  0  0  0
   37.8714   -7.9868   12.0021 C   0  0  0  0  0  0  0  0  0  0  0  0
   39.0987   -7.9952   12.6496 C   0  0  0  0  0  0  0  0  0  0  0  0
   39.4541   -6.7720   17.9171 C   0  0  0  0  0  0  0  0  0  0  0  0
   40.3589   -7.5276   18.8396 C   0  0  0  0  0  0  0  0  0  0  0  0
   39.4993   -6.3896   20.7031 C   0  0  0  0  0  0  0  0  0  0  0  0
   38.4085   -5.6655   19.9163 C   0  0  0  0  0  0  0  0  0  0  0  0
   41.4665   -5.8652   14.7878 C   0  0  0  0  0  0  0  0  0  0  0  0
   35.0870   -7.9768   10.6060 C   0  0  1  0  0  0  0  0  0  0  0  0
   34.9199   -9.4195   10.3390 C   0  0  0  0  0  0  0  0  0  0  0  0
   35.0547  -10.0358    9.1154 C   0  0  0  0  0  0  0  0  0  0  0  0
   34.8820  -11.3887    8.9165 C   0  0  0  0  0  0  0  0  0  0  0  0
   34.5567  -12.1784    9.9885 C   0  0  0  0  0  0  0  0  0  0  0  0
   34.4130  -11.5906   11.2338 C   0  0  0  0  0  0  0  0  0  0  0  0
   34.5870  -10.2482   11.4192 C   0  0  0  0  0  0  0  0  0  0  0  0
   34.1389   -7.1398    9.8391 C   0  0  0  0  0  0  0  0  0  0  0  0
   34.4033   -6.5715    8.6328 C   0  0  0  0  0  0  0  0  0  0  0  0
   33.3929   -5.8655    7.9561 C   0  0  0  0  0  0  0  0  0  0  0  0
   32.1277   -5.7316    8.4923 C   0  0  0  0  0  0  0  0  0  0  0  0
   31.9008   -6.3209    9.7204 C   0  0  0  0  0  0  0  0  0  0  0  0
   35.7948  -10.5588    6.9931 C   0  0  1  0  0  0  0  0  0  0  0  0
   39.1953   -7.4657   13.9134 C   0  0  0  0  0  0  0  0  0  0  0  0
   38.0791   -6.9510   14.4837 C   0  0  0  0  0  0  0  0  0  0  0  0
   36.8410   -6.9437   13.8274 C   0  0  0  0  0  0  0  0  0  0  0  0
   35.7545   -6.3543   14.5040 N   0  0  0  0  0  0  0  0  0  0  0  0
   40.7714   -7.4896   14.7103 S   0  0  1  0  0  6  0  0  0  0  0  0
   41.7098   -8.3537   13.9179 O   0  0  0  0  0  0  0  0  0  0  0  0
   40.6506   -8.1148   16.0694 O   0  0  0  0  0  0  0  0  0  0  0  0
   32.8730   -6.9780   10.3274 N   0  0  0  0  0  0  0  0  0  0  0  0
   35.9692   -6.5630    7.8426 Cl  0  0  0  0  0  0  0  0  0  0  0  0
   35.5038   -7.5263   11.8571 N   0  0  0  0  0  0  0  0  0  0  0  0
   35.3704   -9.5184    7.8544 O   0  0  0  0  0  0  0  0  0  0  0  0
   35.0958  -11.6569    7.5675 O   0  0  0  0  0  0  0  0  0  0  0  0
   35.4826  -10.3218    5.6922 F   0  0  0  0  0  0  0  0  0  0  0  0
   37.1429  -10.8114    7.2057 F   0  0  0  0  0  0  0  0  0  0  0  0
   35.7698   -6.2643   15.9298 C   0  0  0  0  0  0  0  0  0  0  0  0
   36.9428   -6.2687   16.5894 N   0  0  0  0  0  0  0  0  0  0  0  0
   37.0335   -6.1705   17.9282 C   0  0  0  0  0  0  0  0  0  0  0  0
   35.9271   -6.0629   18.6509 N   0  0  0  0  0  0  0  0  0  0  0  0
   34.7333   -6.0552   18.0268 C   0  0  0  0  0  0  0  0  0  0  0  0
   34.6539   -6.1550   16.6812 N   0  0  0  0  0  0  0  0  0  0  0  0
   33.6055   -5.9395   18.8303 O   0  0  0  0  0  0  0  0  0  0  0  0
   32.8187   -4.7642   18.7580 C   0  0  0  0  0  0  0  0  0  0  0  0
   38.2907   -6.1993   18.5934 N   0  0  0  0  0  0  0  0  0  0  0  0
   39.7245   -7.7055   20.1186 N   0  0  0  0  0  4  0  0  0  0  0  0
  1  2  2  0
 24  1  1  0
  1 31  1  0
  2  3  1  0
 22  3  2  0
  4  5  1  0
 44  4  1  0
  5 45  1  0
  7  6  1  0
  6 45  1  0
 44  7  1  0
 26  8  1  1
  9 10  1  0
  9 16  1  0
  9 31  1  1
 10 11  2  0
 10 15  1  0
 11 12  1  0
 11 32  1  0
 12 13  2  0
 12 33  1  0
 14 13  1  0
 15 14  2  0
 16 17  2  0
 16 29  1  0
 17 18  1  0
 17 30  1  0
 18 19  2  0
 20 19  1  0
 29 20  2  0
 32 21  1  0
 21 33  1  0
 21 34  1  6
 21 35  1  0
 23 22  1  0
 22 26  1  0
 24 23  2  0
 25 24  1  0
 36 25  1  0
 26 27  2  0
 26 28  2  0
 37 36  2  0
 36 41  1  0
 38 37  1  0
 38 39  2  0
 38 44  1  0
 39 40  1  0
 40 41  2  0
 40 42  1  0
 42 43  1  0
M  CHG  1  45   1
M  END
$$$$
