
     RDKit          3D

 45 50  0  0  0  0  0  0  0  0999 V2000
   35.8275   -5.5450   15.3217 C   0  0  0  0  0  0  0  0  0  0  0  0
   34.6323   -5.7152   14.6780 C   0  0  0  0  0  0  0  0  0  0  0  0
   33.4346   -5.1610   15.1068 C   0  0  0  0  0  0  0  0  0  0  0  0
   39.0012   -3.9620   22.9898 C   0  0  0  0  0  0  0  0  0  0  0  0
   39.7999   -2.9215   23.7108 C   0  0  0  0  0  0  0  0  0  0  0  0
   41.0586   -2.4727   21.7819 C   0  0  0  0  0  0  0  0  0  0  0  0
   40.2265   -3.3776   20.8752 C   0  0  0  0  0  0  0  0  0  0  0  0
   31.0436   -4.7880   17.8807 C   0  0  0  0  0  0  0  0  0  0  0  0
   37.3730   -6.8089   13.6777 C   0  0  1  0  0  0  0  0  0  0  0  0
   37.1590   -6.2331   12.3348 C   0  0  0  0  0  0  0  0  0  0  0  0
   36.8275   -6.9352   11.1979 C   0  0  0  0  0  0  0  0  0  0  0  0
   36.6442   -6.3505    9.9633 C   0  0  0  0  0  0  0  0  0  0  0  0
   36.7978   -4.9937    9.8450 C   0  0  0  0  0  0  0  0  0  0  0  0
   37.1314   -4.2571   10.9688 C   0  0  0  0  0  0  0  0  0  0  0  0
   37.3103   -4.8475   12.1879 C   0  0  0  0  0  0  0  0  0  0  0  0
   38.5610   -7.6878   13.7404 C   0  0  0  0  0  0  0  0  0  0  0  0
   39.8497   -7.2576   13.6937 C   0  0  0  0  0  0  0  0  0  0  0  0
   40.9004   -8.1793   13.8485 C   0  0  0  0  0  0  0  0  0  0  0  0
   40.6536   -9.5233   14.0461 C   0  0  0  0  0  0  0  0  0  0  0  0
   39.3314   -9.9198   14.0844 C   0  0  0  0  0  0  0  0  0  0  0  0
   35.9017   -8.5039    9.7811 C   0  0  1  0  0  0  0  0  0  0  0  0
   33.4198   -4.3901   16.2436 C   0  0  0  0  0  0  0  0  0  0  0  0
   34.5850   -4.1993   16.9082 C   0  0  0  0  0  0  0  0  0  0  0  0
   35.7931   -4.7603   16.4730 C   0  0  0  0  0  0  0  0  0  0  0  0
   36.9372   -4.5210   17.2601 N   0  0  0  0  0  0  0  0  0  0  0  0
   31.8795   -3.7004   16.7645 S   0  0  1  0  0  6  0  0  0  0  0  0
   30.9971   -3.5061   15.5649 O   0  0  0  0  0  0  0  0  0  0  0  0
   32.1010   -2.3421   17.3633 O   0  0  0  0  0  0  0  0  0  0  0  0
   38.3694   -9.0264   13.9367 N   0  0  0  0  0  0  0  0  0  0  0  0
   40.3525   -5.6099   13.3645 Cl  0  0  0  0  0  0  0  0  0  0  0  0
   37.0132   -6.1014   14.8231 N   0  0  0  0  0  0  0  0  0  0  0  0
   36.6073   -8.3014   10.9917 O   0  0  0  0  0  0  0  0  0  0  0  0
   36.3201   -7.3541    9.0549 O   0  0  0  0  0  0  0  0  0  0  0  0
   36.2159   -9.6825    9.1827 F   0  0  0  0  0  0  0  0  0  0  0  0
   34.5423   -8.3385   10.0073 F   0  0  0  0  0  0  0  0  0  0  0  0
   36.8204   -4.4576   18.6826 C   0  0  0  0  0  0  0  0  0  0  0  0
   37.9020   -4.1765   19.4323 N   0  0  0  0  0  0  0  0  0  0  0  0
   37.8625   -4.0844   20.7740 C   0  0  0  0  0  0  0  0  0  0  0  0
   36.7135   -4.2755   21.4075 N   0  0  0  0  0  0  0  0  0  0  0  0
   35.6082   -4.5594   20.6916 C   0  0  0  0  0  0  0  0  0  0  0  0
   35.6597   -4.6501   19.3439 N   0  0  0  0  0  0  0  0  0  0  0  0
   34.4304   -4.7498   21.4038 O   0  0  0  0  0  0  0  0  0  0  0  0
   33.1970   -4.7895   20.7089 C   0  0  0  0  0  0  0  0  0  0  0  0
   39.0310   -3.8055   21.5360 N   0  0  0  0  0  0  0  0  0  0  0  0
   40.1969   -1.8825   22.7982 N   0  0  0  0  0  4  0  0  0  0  0  0
  1  2  2  0
 24  1  1  0
  1 31  1  0
  2  3  1  0
 22  3  2  0
  4  5  1  0
 44  4  1  0
  5 45  1  0
  7  6  1  0
  6 45  1  0
 44  7  1  0
 26  8  1  1
  9 10  1  0
  9 16  1  0
  9 31  1  1
 10 11  2  0
 10 15  1  0
 11 12  1  0
 11 32  1  0
 12 13  2  0
 12 33  1  0
 14 13  1  0
 15 14  2  0
 16 17  2  0
 16 29  1  0
 17 18  1  0
 17 30  1  0
 18 19  2  0
 20 19  1  0
 29 20  2  0
 32 21  1  0
 21 33  1  0
 21 34  1  6
 21 35  1  0
 23 22  1  0
 22 26  1  0
 24 23  2  0
 25 24  1  0
 36 25  1  0
 26 27  2  0
 26 28  2  0
 37 36  2  0
 36 41  1  0
 38 37  1  0
 38 39  2  0
 38 44  1  0
 39 40  1  0
 40 41  2  0
 40 42  1  0
 42 43  1  0
M  CHG  1  45   1
M  END
$$$$
