
     RDKit          3D

 45 50  0  0  0  0  0  0  0  0999 V2000
   35.6471   -7.5137   14.7541 C   0  0  0  0  0  0  0  0  0  0  0  0
   34.8445   -8.5520   14.3676 C   0  0  0  0  0  0  0  0  0  0  0  0
   33.8969   -9.1470   15.1883 C   0  0  0  0  0  0  0  0  0  0  0  0
   36.2704   -1.4384   20.6638 C   0  0  0  0  0  0  0  0  0  0  0  0
   36.9663   -0.1191   20.5391 C   0  0  0  0  0  0  0  0  0  0  0  0
   38.8981   -1.1553   19.7022 C   0  0  0  0  0  0  0  0  0  0  0  0
   38.2684   -2.5442   19.6152 C   0  0  0  0  0  0  0  0  0  0  0  0
   30.9225   -8.7551   17.2297 C   0  0  0  0  0  0  0  0  0  0  0  0
   37.0787   -7.2523   12.6162 C   0  0  1  0  0  0  0  0  0  0  0  0
   36.6410   -6.5239   11.4085 C   0  0  0  0  0  0  0  0  0  0  0  0
   36.1071   -7.0895   10.2727 C   0  0  0  0  0  0  0  0  0  0  0  0
   35.7187   -6.3647    9.1665 C   0  0  0  0  0  0  0  0  0  0  0  0
   35.8669   -5.0022    9.1834 C   0  0  0  0  0  0  0  0  0  0  0  0
   36.4010   -4.4008   10.3102 C   0  0  0  0  0  0  0  0  0  0  0  0
   36.7824   -5.1295   11.4013 C   0  0  0  0  0  0  0  0  0  0  0  0
   38.4828   -7.7095   12.5307 C   0  0  0  0  0  0  0  0  0  0  0  0
   38.9002   -8.8186   11.8645 C   0  0  0  0  0  0  0  0  0  0  0  0
   40.2737   -9.1078   11.7799 C   0  0  0  0  0  0  0  0  0  0  0  0
   41.2178   -8.2870   12.3640 C   0  0  0  0  0  0  0  0  0  0  0  0
   40.7526   -7.1725   13.0336 C   0  0  0  0  0  0  0  0  0  0  0  0
   34.9279   -8.4873    8.8652 C   0  0  1  0  0  0  0  0  0  0  0  0
   33.7341   -8.6849   16.4715 C   0  0  0  0  0  0  0  0  0  0  0  0
   34.5118   -7.6573   16.8901 C   0  0  0  0  0  0  0  0  0  0  0  0
   35.4681   -7.0583   16.0591 C   0  0  0  0  0  0  0  0  0  0  0  0
   36.2421   -6.0178   16.6103 N   0  0  0  0  0  0  0  0  0  0  0  0
   32.5213   -9.4643   17.4920 S   0  0  1  0  0  6  0  0  0  0  0  0
   32.8853   -9.2566   18.9340 O   0  0  0  0  0  0  0  0  0  0  0  0
   32.5249  -10.9461   17.2537 O   0  0  0  0  0  0  0  0  0  0  0  0
   39.4552   -6.9308   13.0921 N   0  0  0  0  0  0  0  0  0  0  0  0
   37.8449  -10.0175   11.1396 Cl  0  0  0  0  0  0  0  0  0  0  0  0
   36.5642   -6.9290   13.8702 N   0  0  0  0  0  0  0  0  0  0  0  0
   35.8366   -8.4235    9.9490 O   0  0  0  0  0  0  0  0  0  0  0  0
   35.2280   -7.2567    8.2173 O   0  0  0  0  0  0  0  0  0  0  0  0
   35.1174   -9.5846    8.0869 F   0  0  0  0  0  0  0  0  0  0  0  0
   33.6311   -8.3604    9.3436 F   0  0  0  0  0  0  0  0  0  0  0  0
   35.6906   -5.1878   17.6342 C   0  0  0  0  0  0  0  0  0  0  0  0
   36.4604   -4.2603   18.2326 N   0  0  0  0  0  0  0  0  0  0  0  0
   36.0041   -3.4339   19.1913 C   0  0  0  0  0  0  0  0  0  0  0  0
   34.7392   -3.5202   19.5793 N   0  0  0  0  0  0  0  0  0  0  0  0
   33.9369   -4.4367   19.0039 C   0  0  0  0  0  0  0  0  0  0  0  0
   34.4061   -5.2623   18.0420 N   0  0  0  0  0  0  0  0  0  0  0  0
   32.6205   -4.4849   19.4461 O   0  0  0  0  0  0  0  0  0  0  0  0
   31.6776   -5.2680   18.7366 C   0  0  0  0  0  0  0  0  0  0  0  0
   36.8528   -2.4786   19.8167 N   0  0  0  0  0  0  0  0  0  0  0  0
   37.8826   -0.1461   19.4302 N   0  0  0  0  0  4  0  0  0  0  0  0
  1  2  2  0
 24  1  1  0
  1 31  1  0
  2  3  1  0
 22  3  2  0
  4  5  1  0
 44  4  1  0
  5 45  1  0
  7  6  1  0
  6 45  1  0
 44  7  1  0
 26  8  1  1
  9 10  1  0
  9 16  1  0
  9 31  1  1
 10 11  2  0
 10 15  1  0
 11 12  1  0
 11 32  1  0
 12 13  2  0
 12 33  1  0
 14 13  1  0
 15 14  2  0
 16 17  2  0
 16 29  1  0
 17 18  1  0
 17 30  1  0
 18 19  2  0
 20 19  1  0
 29 20  2  0
 32 21  1  0
 21 33  1  0
 21 34  1  6
 21 35  1  0
 23 22  1  0
 22 26  1  0
 24 23  2  0
 25 24  1  0
 36 25  1  0
 26 27  2  0
 26 28  2  0
 37 36  2  0
 36 41  1  0
 38 37  1  0
 38 39  2  0
 38 44  1  0
 39 40  1  0
 40 41  2  0
 40 42  1  0
 42 43  1  0
M  CHG  1  45   1
M  END
$$$$
