
     RDKit          3D

 25 28  0  0  0  0  0  0  0  0999 V2000
  -12.2958    8.4674  -27.6277 C   0  0  0  0  0  0  0  0  0  0  0  0
  -12.7193    9.8541  -24.1681 C   0  0  0  0  0  0  0  0  0  0  0  0
  -15.1146    9.6827  -23.4263 C   0  0  0  0  0  0  0  0  0  0  0  0
  -13.1398   10.0963  -21.9621 C   0  0  0  0  0  0  0  0  0  0  0  0
  -13.7362   10.3862  -26.3778 C   0  0  0  0  0  0  0  0  0  0  0  0
  -13.8969   10.1951  -27.7335 C   0  0  0  0  0  0  0  0  0  0  0  0
  -13.1363    8.8103  -29.7132 C   0  0  0  0  0  0  0  0  0  0  0  0
  -12.3956    2.4509  -27.6356 C   0  0  0  0  0  0  0  0  0  0  0  0
  -12.3583    3.3115  -28.7771 N   0  0  1  0  0  4  0  0  0  0  0  0
  -12.2765    4.7066  -28.4324 C   0  0  0  0  0  0  0  0  0  0  0  0
  -11.3351    2.9217  -29.7315 C   0  0  0  0  0  0  0  0  0  0  0  0
   -9.9475    3.0958  -29.2094 C   0  0  0  0  0  0  0  0  0  0  0  0
   -9.7993    4.3839  -28.4183 C   0  0  0  0  0  0  0  0  0  0  0  0
  -10.9293    5.3074  -28.7610 C   0  0  2  0  0  0  0  0  0  0  0  0
  -10.7190    6.6351  -28.1037 C   0  0  0  0  0  0  0  0  0  0  0  0
  -11.7224    7.5892  -28.5019 N   0  0  0  0  0  0  0  0  0  0  0  0
  -12.1402    8.6693  -26.2522 C   0  0  0  0  0  0  0  0  0  0  0  0
  -12.8677    9.6431  -25.6019 C   0  0  0  0  0  0  0  0  0  0  0  0
  -13.6867    9.8652  -23.2142 C   0  0  0  0  0  0  0  0  0  0  0  0
  -16.2166    9.5612  -23.5913 N   0  0  0  0  0  0  0  0  0  0  0  0
  -13.8131   10.1749  -20.7123 N   0  0  0  0  0  0  0  0  0  0  0  0
  -11.8155   10.2243  -22.1935 N   0  0  0  0  0  0  0  0  0  0  0  0
  -11.5583   10.0842  -23.4826 N   0  0  0  0  0  0  0  0  0  0  0  0
  -13.1640    9.2137  -28.3868 C   0  0  0  0  0  0  0  0  0  0  0  0
  -12.2146    7.7848  -29.7367 C   0  0  0  0  0  0  0  0  0  0  0  0
 16  1  1  0
  1 17  1  0
  1 24  2  0
 18  2  1  0
  2 19  1  0
  2 23  2  0
 19  3  1  0
  3 20  3  0
 19  4  2  0
  4 21  1  0
  4 22  1  0
  6  5  2  0
  5 18  1  0
 24  6  1  0
 24  7  1  0
  7 25  2  0
  9  8  1  1
 10  9  1  0
  9 11  1  0
 14 10  1  0
 12 11  1  0
 13 12  1  0
 14 13  1  0
 14 15  1  1
 15 16  1  0
 16 25  1  0
 17 18  2  0
 22 23  1  0
M  CHG  1   9   1
M  END
$$$$
