
     RDKit          3D

 25 28  0  0  0  0  0  0  0  0999 V2000
  -13.0534    7.4863  -28.1348 C   0  0  0  0  0  0  0  0  0  0  0  0
  -13.1749    8.9913  -24.7009 C   0  0  0  0  0  0  0  0  0  0  0  0
  -12.1947   11.2818  -24.3696 C   0  0  0  0  0  0  0  0  0  0  0  0
  -13.1264    9.8017  -22.5931 C   0  0  0  0  0  0  0  0  0  0  0  0
  -12.7484    9.9113  -26.9751 C   0  0  0  0  0  0  0  0  0  0  0  0
  -12.6179    9.7943  -28.3424 C   0  0  0  0  0  0  0  0  0  0  0  0
  -12.7047    8.1630  -30.2781 C   0  0  0  0  0  0  0  0  0  0  0  0
  -11.3862    1.1274  -27.6308 C   0  0  0  0  0  0  0  0  0  0  0  0
  -11.6666    1.7687  -28.8779 N   0  0  1  0  0  4  0  0  0  0  0  0
  -12.7761    2.6829  -28.8081 C   0  0  0  0  0  0  0  0  0  0  0  0
  -10.4870    2.3819  -29.4630 C   0  0  0  0  0  0  0  0  0  0  0  0
   -9.9696    3.5358  -28.6697 C   0  0  0  0  0  0  0  0  0  0  0  0
  -11.0957    4.4058  -28.1385 C   0  0  0  0  0  0  0  0  0  0  0  0
  -12.3455    4.1273  -28.9178 C   0  0  2  0  0  0  0  0  0  0  0  0
  -13.4245    5.0791  -28.5068 C   0  0  0  0  0  0  0  0  0  0  0  0
  -13.1600    6.4156  -28.9754 N   0  0  0  0  0  0  0  0  0  0  0  0
  -13.1839    7.6158  -26.7480 C   0  0  0  0  0  0  0  0  0  0  0  0
  -13.0314    8.8452  -26.1433 C   0  0  0  0  0  0  0  0  0  0  0  0
  -12.8225   10.0477  -23.9226 C   0  0  0  0  0  0  0  0  0  0  0  0
  -11.7061   12.2364  -24.6959 N   0  0  0  0  0  0  0  0  0  0  0  0
  -12.9210   10.6549  -21.4745 N   0  0  0  0  0  0  0  0  0  0  0  0
  -13.6707    8.5659  -22.5971 N   0  0  0  0  0  0  0  0  0  0  0  0
  -13.7038    8.0820  -23.8269 N   0  0  0  0  0  0  0  0  0  0  0  0
  -12.7723    8.5556  -28.9499 C   0  0  0  0  0  0  0  0  0  0  0  0
  -12.9561    6.8075  -30.2443 C   0  0  0  0  0  0  0  0  0  0  0  0
 16  1  1  0
  1 17  1  0
  1 24  2  0
 18  2  1  0
  2 19  1  0
  2 23  2  0
 19  3  1  0
  3 20  3  0
 19  4  2  0
  4 21  1  0
  4 22  1  0
  6  5  2  0
  5 18  1  0
 24  6  1  0
 24  7  1  0
  7 25  2  0
  9  8  1  1
 10  9  1  0
  9 11  1  0
 14 10  1  0
 12 11  1  0
 13 12  1  0
 14 13  1  0
 14 15  1  1
 15 16  1  0
 16 25  1  0
 17 18  2  0
 22 23  1  0
M  CHG  1   9   1
M  END
$$$$
