
     RDKit          3D

 25 28  0  0  0  0  0  0  0  0999 V2000
  -22.2535   21.1872  -10.6336 C   0  0  0  0  0  0  0  0  0  0  0  0
  -20.0779   18.5381  -12.1569 C   0  0  0  0  0  0  0  0  0  0  0  0
  -20.9169   16.1690  -12.1357 C   0  0  0  0  0  0  0  0  0  0  0  0
  -18.6709   16.9349  -12.8998 C   0  0  0  0  0  0  0  0  0  0  0  0
  -22.5022   18.6747  -11.6052 C   0  0  0  0  0  0  0  0  0  0  0  0
  -23.6159   19.3248  -11.1180 C   0  0  0  0  0  0  0  0  0  0  0  0
  -24.4406   21.4853  -10.0849 C   0  0  0  0  0  0  0  0  0  0  0  0
  -22.1909   26.4780   -6.7399 C   0  0  0  0  0  0  0  0  0  0  0  0
  -22.1537   25.0512   -6.6503 N   0  0  1  0  0  4  0  0  0  0  0  0
  -22.4074   24.3978   -7.9075 C   0  0  0  0  0  0  0  0  0  0  0  0
  -20.9397   24.5674   -6.0162 C   0  0  0  0  0  0  0  0  0  0  0  0
  -19.7115   24.8252   -6.8246 C   0  0  0  0  0  0  0  0  0  0  0  0
  -19.9476   24.5782   -8.3046 C   0  0  0  0  0  0  0  0  0  0  0  0
  -21.1744   23.7338   -8.4754 C   0  0  2  0  0  0  0  0  0  0  0  0
  -21.3378   23.3587   -9.9148 C   0  0  0  0  0  0  0  0  0  0  0  0
  -22.4258   22.4329  -10.1016 N   0  0  0  0  0  0  0  0  0  0  0  0
  -21.1294   20.5188  -11.1303 C   0  0  0  0  0  0  0  0  0  0  0  0
  -21.2411   19.2383  -11.6288 C   0  0  0  0  0  0  0  0  0  0  0  0
  -19.9297   17.2075  -12.3884 C   0  0  0  0  0  0  0  0  0  0  0  0
  -21.6681   15.3573  -11.9531 N   0  0  0  0  0  0  0  0  0  0  0  0
  -18.1320   15.6743  -13.2767 N   0  0  0  0  0  0  0  0  0  0  0  0
  -18.0683   18.1414  -12.9674 N   0  0  0  0  0  0  0  0  0  0  0  0
  -18.8838   19.0876  -12.5346 N   0  0  0  0  0  0  0  0  0  0  0  0
  -23.5019   20.6143  -10.6169 C   0  0  0  0  0  0  0  0  0  0  0  0
  -23.7161   22.6172   -9.7756 C   0  0  0  0  0  0  0  0  0  0  0  0
 16  1  1  0
  1 17  1  0
  1 24  2  0
 18  2  1  0
  2 19  1  0
  2 23  2  0
 19  3  1  0
  3 20  3  0
 19  4  2  0
  4 21  1  0
  4 22  1  0
  6  5  2  0
  5 18  1  0
 24  6  1  0
 24  7  1  0
  7 25  2  0
  9  8  1  6
 10  9  1  0
  9 11  1  0
 14 10  1  0
 12 11  1  0
 13 12  1  0
 14 13  1  0
 14 15  1  6
 15 16  1  0
 16 25  1  0
 17 18  2  0
 22 23  1  0
M  CHG  1   9   1
M  END
$$$$
