
     RDKit          3D

 25 28  0  0  0  0  0  0  0  0999 V2000
  -12.1312    8.7388  -27.6295 C   0  0  0  0  0  0  0  0  0  0  0  0
  -12.5586   10.0226  -24.1308 C   0  0  0  0  0  0  0  0  0  0  0  0
  -14.7401    9.2177  -23.1768 C   0  0  0  0  0  0  0  0  0  0  0  0
  -12.8209   10.1552  -21.8913 C   0  0  0  0  0  0  0  0  0  0  0  0
  -13.8558   10.2917  -26.2392 C   0  0  0  0  0  0  0  0  0  0  0  0
  -14.0850   10.0578  -27.5782 C   0  0  0  0  0  0  0  0  0  0  0  0
  -13.2036    8.8647  -29.6313 C   0  0  0  0  0  0  0  0  0  0  0  0
  -11.0310    3.0184  -27.0364 C   0  0  0  0  0  0  0  0  0  0  0  0
  -11.3097    3.6998  -28.2625 N   0  0  1  0  0  4  0  0  0  0  0  0
  -11.4369    5.1246  -28.1026 C   0  0  0  0  0  0  0  0  0  0  0  0
  -10.3746    3.3478  -29.3168 C   0  0  0  0  0  0  0  0  0  0  0  0
   -8.9834    3.8185  -29.0497 C   0  0  0  0  0  0  0  0  0  0  0  0
   -8.9648    5.2142  -28.4504 C   0  0  0  0  0  0  0  0  0  0  0  0
  -10.2806    5.8825  -28.7128 C   0  0  2  0  0  0  0  0  0  0  0  0
  -10.2272    7.3075  -28.2594 C   0  0  0  0  0  0  0  0  0  0  0  0
  -11.4511    8.0061  -28.5595 N   0  0  0  0  0  0  0  0  0  0  0  0
  -11.9077    8.9822  -26.2701 C   0  0  0  0  0  0  0  0  0  0  0  0
  -12.7781    9.7713  -25.5489 C   0  0  0  0  0  0  0  0  0  0  0  0
  -13.4002    9.7786  -23.0925 C   0  0  0  0  0  0  0  0  0  0  0  0
  -15.7715    8.7812  -23.2231 N   0  0  0  0  0  0  0  0  0  0  0  0
  -13.3710   10.0570  -20.5839 N   0  0  0  0  0  0  0  0  0  0  0  0
  -11.6071   10.6333  -22.2402 N   0  0  0  0  0  0  0  0  0  0  0  0
  -11.4432   10.5602  -23.5499 N   0  0  0  0  0  0  0  0  0  0  0  0
  -13.2078    9.2625  -28.3029 C   0  0  0  0  0  0  0  0  0  0  0  0
  -12.0791    8.0746  -29.7452 C   0  0  0  0  0  0  0  0  0  0  0  0
 16  1  1  0
  1 17  1  0
  1 24  2  0
 18  2  1  0
  2 19  1  0
  2 23  2  0
 19  3  1  0
  3 20  3  0
 19  4  2  0
  4 21  1  0
  4 22  1  0
  6  5  2  0
  5 18  1  0
 24  6  1  0
 24  7  1  0
  7 25  2  0
  9  8  1  1
 10  9  1  0
  9 11  1  0
 14 10  1  0
 12 11  1  0
 13 12  1  0
 14 13  1  0
 14 15  1  1
 15 16  1  0
 16 25  1  0
 17 18  2  0
 22 23  1  0
M  CHG  1   9   1
M  END
$$$$
