
     RDKit          3D

 25 28  0  0  0  0  0  0  0  0999 V2000
  -22.3386   19.5455  -11.3717 C   0  0  0  0  0  0  0  0  0  0  0  0
  -19.3287   17.3699  -11.8998 C   0  0  0  0  0  0  0  0  0  0  0  0
  -18.5152   16.9965  -14.2483 C   0  0  0  0  0  0  0  0  0  0  0  0
  -17.4390   16.1605  -12.1608 C   0  0  0  0  0  0  0  0  0  0  0  0
  -21.0262   18.3683  -13.4236 C   0  0  0  0  0  0  0  0  0  0  0  0
  -22.1472   19.1271  -13.6842 C   0  0  0  0  0  0  0  0  0  0  0  0
  -23.9560   20.5450  -12.6199 C   0  0  0  0  0  0  0  0  0  0  0  0
  -23.2874   22.8551   -5.4010 C   0  0  0  0  0  0  0  0  0  0  0  0
  -22.6542   23.1071   -6.6583 N   0  0  1  0  0  4  0  0  0  0  0  0
  -22.2967   21.9045   -7.3638 C   0  0  0  0  0  0  0  0  0  0  0  0
  -23.4160   24.0238   -7.4884 C   0  0  0  0  0  0  0  0  0  0  0  0
  -24.7199   23.4580   -7.9448 C   0  0  0  0  0  0  0  0  0  0  0  0
  -24.5936   21.9973   -8.3418 C   0  0  0  0  0  0  0  0  0  0  0  0
  -23.1506   21.6753   -8.5893 C   0  0  2  0  0  0  0  0  0  0  0  0
  -23.0241   20.2830   -9.1230 C   0  0  0  0  0  0  0  0  0  0  0  0
  -23.1779   20.2476  -10.5551 N   0  0  0  0  0  0  0  0  0  0  0  0
  -21.1999   18.7735  -11.1179 C   0  0  0  0  0  0  0  0  0  0  0  0
  -20.5208   18.1679  -12.1535 C   0  0  0  0  0  0  0  0  0  0  0  0
  -18.4471   16.8635  -12.8010 C   0  0  0  0  0  0  0  0  0  0  0  0
  -18.5829   17.0873  -15.3635 N   0  0  0  0  0  0  0  0  0  0  0  0
  -16.3297   15.4905  -12.7457 N   0  0  0  0  0  0  0  0  0  0  0  0
  -17.7427   16.2597  -10.8488 N   0  0  0  0  0  0  0  0  0  0  0  0
  -18.8479   16.9662  -10.6847 N   0  0  0  0  0  0  0  0  0  0  0  0
  -22.8295   19.7367  -12.6403 C   0  0  0  0  0  0  0  0  0  0  0  0
  -24.1362   20.8422  -11.2854 C   0  0  0  0  0  0  0  0  0  0  0  0
 16  1  1  0
  1 17  1  0
  1 24  2  0
 18  2  1  0
  2 19  1  0
  2 23  2  0
 19  3  1  0
  3 20  3  0
 19  4  2  0
  4 21  1  0
  4 22  1  0
  6  5  2  0
  5 18  1  0
 24  6  1  0
 24  7  1  0
  7 25  2  0
  9  8  1  1
 10  9  1  0
  9 11  1  0
 14 10  1  0
 12 11  1  0
 13 12  1  0
 14 13  1  0
 14 15  1  1
 15 16  1  0
 16 25  1  0
 17 18  2  0
 22 23  1  0
M  CHG  1   9   1
M  END
$$$$
