
     RDKit          3D

 25 28  0  0  0  0  0  0  0  0999 V2000
  -22.5764   19.3005  -12.2314 C   0  0  0  0  0  0  0  0  0  0  0  0
  -19.1432   17.8873  -12.7675 C   0  0  0  0  0  0  0  0  0  0  0  0
  -19.6174   16.1125  -11.0523 C   0  0  0  0  0  0  0  0  0  0  0  0
  -17.3812   16.7193  -11.9720 C   0  0  0  0  0  0  0  0  0  0  0  0
  -21.0325   18.4564  -14.2864 C   0  0  0  0  0  0  0  0  0  0  0  0
  -22.3008   18.9313  -14.5439 C   0  0  0  0  0  0  0  0  0  0  0  0
  -24.3872   19.8903  -13.4750 C   0  0  0  0  0  0  0  0  0  0  0  0
  -23.6257   22.7716   -6.5119 C   0  0  0  0  0  0  0  0  0  0  0  0
  -22.6592   22.6497   -7.5589 N   0  0  1  0  0  4  0  0  0  0  0  0
  -22.5973   21.3262   -8.1215 C   0  0  0  0  0  0  0  0  0  0  0  0
  -22.8152   23.6722   -8.5786 C   0  0  0  0  0  0  0  0  0  0  0  0
  -24.0824   23.5382   -9.3562 C   0  0  0  0  0  0  0  0  0  0  0  0
  -24.3963   22.0874   -9.6787 C   0  0  0  0  0  0  0  0  0  0  0  0
  -23.1513   21.2665   -9.5262 C   0  0  2  0  0  0  0  0  0  0  0  0
  -23.4073   19.8642   -9.9815 C   0  0  0  0  0  0  0  0  0  0  0  0
  -23.5537   19.7894  -11.4128 N   0  0  0  0  0  0  0  0  0  0  0  0
  -21.2879   18.8169  -11.9808 C   0  0  0  0  0  0  0  0  0  0  0  0
  -20.4898   18.3836  -13.0180 C   0  0  0  0  0  0  0  0  0  0  0  0
  -18.7546   16.8968  -11.9226 C   0  0  0  0  0  0  0  0  0  0  0  0
  -20.2688   15.5095  -10.3678 N   0  0  0  0  0  0  0  0  0  0  0  0
  -16.5915   15.7842  -11.2485 N   0  0  0  0  0  0  0  0  0  0  0  0
  -16.9575   17.6334  -12.8711 N   0  0  0  0  0  0  0  0  0  0  0  0
  -17.9816   18.3231  -13.3433 N   0  0  0  0  0  0  0  0  0  0  0  0
  -23.1030   19.3677  -13.4984 C   0  0  0  0  0  0  0  0  0  0  0  0
  -24.6271   20.1412  -12.1404 C   0  0  0  0  0  0  0  0  0  0  0  0
 16  1  1  0
  1 17  1  0
  1 24  2  0
 18  2  1  0
  2 19  1  0
  2 23  2  0
 19  3  1  0
  3 20  3  0
 19  4  2  0
  4 21  1  0
  4 22  1  0
  6  5  2  0
  5 18  1  0
 24  6  1  0
 24  7  1  0
  7 25  2  0
  9  8  1  1
 10  9  1  0
  9 11  1  0
 14 10  1  0
 12 11  1  0
 13 12  1  0
 14 13  1  0
 14 15  1  1
 15 16  1  0
 16 25  1  0
 17 18  2  0
 22 23  1  0
M  CHG  1   9   1
M  END
$$$$
