
     RDKit          3D

 25 28  0  0  0  0  0  0  0  0999 V2000
  -12.5343    7.0614  -27.6861 C   0  0  0  0  0  0  0  0  0  0  0  0
  -12.8578    8.9414  -24.4562 C   0  0  0  0  0  0  0  0  0  0  0  0
  -12.1523   11.3531  -24.4014 C   0  0  0  0  0  0  0  0  0  0  0  0
  -12.9401    9.9990  -22.4621 C   0  0  0  0  0  0  0  0  0  0  0  0
  -12.4681    9.6232  -26.8192 C   0  0  0  0  0  0  0  0  0  0  0  0
  -12.3000    9.3589  -28.1616 C   0  0  0  0  0  0  0  0  0  0  0  0
  -12.2032    7.5109  -29.8910 C   0  0  0  0  0  0  0  0  0  0  0  0
  -10.9272    1.1957  -30.1900 C   0  0  0  0  0  0  0  0  0  0  0  0
  -10.3105    2.3763  -29.6694 N   0  0  1  0  0  4  0  0  0  0  0  0
  -11.2393    3.4562  -29.4618 C   0  0  0  0  0  0  0  0  0  0  0  0
   -9.5092    2.1078  -28.4881 C   0  0  0  0  0  0  0  0  0  0  0  0
  -10.3219    1.6794  -27.3115 C   0  0  0  0  0  0  0  0  0  0  0  0
  -11.6085    2.4780  -27.1931 C   0  0  0  0  0  0  0  0  0  0  0  0
  -11.4849    3.7369  -27.9973 C   0  0  2  0  0  0  0  0  0  0  0  0
  -12.6840    4.6037  -27.7738 C   0  0  0  0  0  0  0  0  0  0  0  0
  -12.5289    5.8944  -28.3949 N   0  0  0  0  0  0  0  0  0  0  0  0
  -12.7039    7.3402  -26.3258 C   0  0  0  0  0  0  0  0  0  0  0  0
  -12.6727    8.6408  -25.8696 C   0  0  0  0  0  0  0  0  0  0  0  0
  -12.6427   10.1172  -23.8104 C   0  0  0  0  0  0  0  0  0  0  0  0
  -11.7819   12.3149  -24.8419 N   0  0  0  0  0  0  0  0  0  0  0  0
  -12.8538   10.9984  -21.4545 N   0  0  0  0  0  0  0  0  0  0  0  0
  -13.3393    8.7170  -22.3183 N   0  0  0  0  0  0  0  0  0  0  0  0
  -13.2948    8.0885  -23.4804 N   0  0  0  0  0  0  0  0  0  0  0  0
  -12.3322    8.0488  -28.6195 C   0  0  0  0  0  0  0  0  0  0  0  0
  -12.3347    6.1516  -29.6993 C   0  0  0  0  0  0  0  0  0  0  0  0
 16  1  1  0
  1 17  1  0
  1 24  2  0
 18  2  1  0
  2 19  1  0
  2 23  2  0
 19  3  1  0
  3 20  3  0
 19  4  2  0
  4 21  1  0
  4 22  1  0
  6  5  2  0
  5 18  1  0
 24  6  1  0
 24  7  1  0
  7 25  2  0
  9  8  1  1
 10  9  1  0
  9 11  1  0
 14 10  1  0
 12 11  1  0
 13 12  1  0
 14 13  1  0
 14 15  1  6
 15 16  1  0
 16 25  1  0
 17 18  2  0
 22 23  1  0
M  CHG  1   9   1
M  END
$$$$
