
     RDKit          3D

 25 28  0  0  0  0  0  0  0  0999 V2000
  -23.0097   19.5717  -10.9011 C   0  0  0  0  0  0  0  0  0  0  0  0
  -20.1523   17.2636  -11.6620 C   0  0  0  0  0  0  0  0  0  0  0  0
  -18.6083   18.2837  -13.3627 C   0  0  0  0  0  0  0  0  0  0  0  0
  -18.0999   16.3459  -11.8791 C   0  0  0  0  0  0  0  0  0  0  0  0
  -21.9229   18.3341  -13.0473 C   0  0  0  0  0  0  0  0  0  0  0  0
  -23.0268   19.1416  -13.2194 C   0  0  0  0  0  0  0  0  0  0  0  0
  -24.6781   20.6403  -12.0182 C   0  0  0  0  0  0  0  0  0  0  0  0
  -22.0177   23.2401   -5.4429 C   0  0  0  0  0  0  0  0  0  0  0  0
  -21.2865   22.4669   -6.3982 N   0  0  1  0  0  4  0  0  0  0  0  0
  -21.9909   21.2890   -6.8322 C   0  0  0  0  0  0  0  0  0  0  0  0
  -20.8164   23.2672   -7.5155 C   0  0  0  0  0  0  0  0  0  0  0  0
  -21.9226   23.7888   -8.3714 C   0  0  0  0  0  0  0  0  0  0  0  0
  -23.0101   22.7498   -8.5837 C   0  0  0  0  0  0  0  0  0  0  0  0
  -22.4647   21.3907   -8.2636 C   0  0  2  0  0  0  0  0  0  0  0  0
  -23.4756   20.3425   -8.6078 C   0  0  0  0  0  0  0  0  0  0  0  0
  -23.7476   20.3118  -10.0223 N   0  0  0  0  0  0  0  0  0  0  0  0
  -21.8894   18.7502  -10.7371 C   0  0  0  0  0  0  0  0  0  0  0  0
  -21.3247   18.1134  -11.8216 C   0  0  0  0  0  0  0  0  0  0  0  0
  -18.9656   17.3340  -12.3199 C   0  0  0  0  0  0  0  0  0  0  0  0
  -18.3489   19.0104  -14.1757 N   0  0  0  0  0  0  0  0  0  0  0  0
  -16.7695   16.0897  -12.3104 N   0  0  0  0  0  0  0  0  0  0  0  0
  -18.8029   15.6802  -10.9377 N   0  0  0  0  0  0  0  0  0  0  0  0
  -20.0066   16.2096  -10.8026 N   0  0  0  0  0  0  0  0  0  0  0  0
  -23.5939   19.7826  -12.1263 C   0  0  0  0  0  0  0  0  0  0  0  0
  -24.7352   20.9472  -10.6750 C   0  0  0  0  0  0  0  0  0  0  0  0
 16  1  1  0
  1 17  1  0
  1 24  2  0
 18  2  1  0
  2 19  1  0
  2 23  2  0
 19  3  1  0
  3 20  3  0
 19  4  2  0
  4 21  1  0
  4 22  1  0
  6  5  2  0
  5 18  1  0
 24  6  1  0
 24  7  1  0
  7 25  2  0
  9  8  1  1
 10  9  1  0
  9 11  1  0
 14 10  1  0
 12 11  1  0
 13 12  1  0
 14 13  1  0
 14 15  1  1
 15 16  1  0
 16 25  1  0
 17 18  2  0
 22 23  1  0
M  CHG  1   9   1
M  END
$$$$
