
     RDKit          3D

 25 28  0  0  0  0  0  0  0  0999 V2000
  -12.4731    9.2307  -27.6918 C   0  0  0  0  0  0  0  0  0  0  0  0
  -12.7037   10.2313  -24.0839 C   0  0  0  0  0  0  0  0  0  0  0  0
  -13.4739    7.8874  -23.6043 C   0  0  0  0  0  0  0  0  0  0  0  0
  -12.7452    9.5771  -21.9224 C   0  0  0  0  0  0  0  0  0  0  0  0
  -13.3770   11.3146  -26.2224 C   0  0  0  0  0  0  0  0  0  0  0  0
  -13.4969   11.3525  -27.5952 C   0  0  0  0  0  0  0  0  0  0  0  0
  -13.0406   10.0670  -29.7294 C   0  0  0  0  0  0  0  0  0  0  0  0
  -12.0687    2.6599  -29.1163 C   0  0  0  0  0  0  0  0  0  0  0  0
  -12.6219    3.5160  -28.1131 N   0  0  1  0  0  4  0  0  0  0  0  0
  -11.8081    4.6723  -27.8435 C   0  0  0  0  0  0  0  0  0  0  0  0
  -14.0036    3.8700  -28.3874 C   0  0  0  0  0  0  0  0  0  0  0  0
  -14.1613    4.7274  -29.5992 C   0  0  0  0  0  0  0  0  0  0  0  0
  -13.0728    5.7829  -29.6895 C   0  0  0  0  0  0  0  0  0  0  0  0
  -12.4359    5.9529  -28.3432 C   0  0  2  0  0  0  0  0  0  0  0  0
  -11.4645    7.0905  -28.3795 C   0  0  0  0  0  0  0  0  0  0  0  0
  -12.1216    8.3404  -28.6655 N   0  0  0  0  0  0  0  0  0  0  0  0
  -12.3562    9.2020  -26.2980 C   0  0  0  0  0  0  0  0  0  0  0  0
  -12.8125   10.2566  -25.5364 C   0  0  0  0  0  0  0  0  0  0  0  0
  -12.9804    9.2059  -23.2366 C   0  0  0  0  0  0  0  0  0  0  0  0
  -13.8681    6.8736  -23.8746 N   0  0  0  0  0  0  0  0  0  0  0  0
  -12.9061    8.7925  -20.7476 N   0  0  0  0  0  0  0  0  0  0  0  0
  -12.3201   10.8561  -22.0066 N   0  0  0  0  0  0  0  0  0  0  0  0
  -12.2920   11.2492  -23.2683 N   0  0  0  0  0  0  0  0  0  0  0  0
  -13.0374   10.2895  -28.3606 C   0  0  0  0  0  0  0  0  0  0  0  0
  -12.4546    8.8270  -29.8728 C   0  0  0  0  0  0  0  0  0  0  0  0
 16  1  1  0
  1 17  1  0
  1 24  2  0
 18  2  1  0
  2 19  1  0
  2 23  2  0
 19  3  1  0
  3 20  3  0
 19  4  2  0
  4 21  1  0
  4 22  1  0
  6  5  2  0
  5 18  1  0
 24  6  1  0
 24  7  1  0
  7 25  2  0
  9  8  1  6
 10  9  1  0
  9 11  1  0
 14 10  1  0
 12 11  1  0
 13 12  1  0
 14 13  1  0
 14 15  1  6
 15 16  1  0
 16 25  1  0
 17 18  2  0
 22 23  1  0
M  CHG  1   9   1
M  END
$$$$
