
     RDKit          3D

 25 28  0  0  0  0  0  0  0  0999 V2000
  -22.2613   20.4379  -10.7210 C   0  0  0  0  0  0  0  0  0  0  0  0
  -19.5643   18.2190  -12.0902 C   0  0  0  0  0  0  0  0  0  0  0  0
  -20.1881   15.9258  -12.9080 C   0  0  0  0  0  0  0  0  0  0  0  0
  -17.8932   16.8971  -12.8394 C   0  0  0  0  0  0  0  0  0  0  0  0
  -22.0469   18.0563  -11.9862 C   0  0  0  0  0  0  0  0  0  0  0  0
  -23.2955   18.5320  -11.6470 C   0  0  0  0  0  0  0  0  0  0  0  0
  -24.5299   20.4573  -10.5587 C   0  0  0  0  0  0  0  0  0  0  0  0
  -22.9300   26.8962   -8.9300 C   0  0  0  0  0  0  0  0  0  0  0  0
  -23.6028   25.6834   -8.5812 N   0  0  1  0  0  4  0  0  0  0  0  0
  -23.2363   24.5713   -9.4182 C   0  0  0  0  0  0  0  0  0  0  0  0
  -23.4817   25.3694   -7.1682 C   0  0  0  0  0  0  0  0  0  0  0  0
  -22.0854   25.0381   -6.7573 C   0  0  0  0  0  0  0  0  0  0  0  0
  -21.3819   24.1763   -7.7916 C   0  0  0  0  0  0  0  0  0  0  0  0
  -22.4048   23.5435   -8.6861 C   0  0  2  0  0  0  0  0  0  0  0  0
  -21.7402   22.5774   -9.6157 C   0  0  0  0  0  0  0  0  0  0  0  0
  -22.6654   21.5845  -10.0995 N   0  0  0  0  0  0  0  0  0  0  0  0
  -20.9988   19.9463  -11.0696 C   0  0  0  0  0  0  0  0  0  0  0  0
  -20.8742   18.7344  -11.7148 C   0  0  0  0  0  0  0  0  0  0  0  0
  -19.2566   17.0048  -12.6163 C   0  0  0  0  0  0  0  0  0  0  0  0
  -20.9001   15.0948  -13.1510 N   0  0  0  0  0  0  0  0  0  0  0  0
  -17.1781   15.7944  -13.3819 N   0  0  0  0  0  0  0  0  0  0  0  0
  -17.3922   18.0826  -12.4306 N   0  0  0  0  0  0  0  0  0  0  0  0
  -18.3627   18.8645  -11.9898 N   0  0  0  0  0  0  0  0  0  0  0  0
  -23.4192   19.7527  -10.9978 C   0  0  0  0  0  0  0  0  0  0  0  0
  -24.0052   21.6040  -10.0005 C   0  0  0  0  0  0  0  0  0  0  0  0
 16  1  1  0
  1 17  1  0
  1 24  2  0
 18  2  1  0
  2 19  1  0
  2 23  2  0
 19  3  1  0
  3 20  3  0
 19  4  2  0
  4 21  1  0
  4 22  1  0
  6  5  2  0
  5 18  1  0
 24  6  1  0
 24  7  1  0
  7 25  2  0
  9  8  1  6
 10  9  1  0
  9 11  1  0
 14 10  1  0
 12 11  1  0
 13 12  1  0
 14 13  1  0
 14 15  1  6
 15 16  1  0
 16 25  1  0
 17 18  2  0
 22 23  1  0
M  CHG  1   9   1
M  END
$$$$
