
     RDKit          3D

 25 28  0  0  0  0  0  0  0  0999 V2000
  -22.5685   21.0514  -10.7223 C   0  0  0  0  0  0  0  0  0  0  0  0
  -20.1917   18.4874  -12.0816 C   0  0  0  0  0  0  0  0  0  0  0  0
  -20.8484   16.0671  -11.9156 C   0  0  0  0  0  0  0  0  0  0  0  0
  -18.6640   16.9536  -12.7261 C   0  0  0  0  0  0  0  0  0  0  0  0
  -22.6213   18.4722  -11.5368 C   0  0  0  0  0  0  0  0  0  0  0  0
  -23.7832   19.0641  -11.0896 C   0  0  0  0  0  0  0  0  0  0  0  0
  -24.7740   21.2149  -10.1909 C   0  0  0  0  0  0  0  0  0  0  0  0
  -22.5417   26.0920   -6.6219 C   0  0  0  0  0  0  0  0  0  0  0  0
  -22.3541   24.6749   -6.6630 N   0  0  1  0  0  4  0  0  0  0  0  0
  -22.7097   24.0927   -7.9304 C   0  0  0  0  0  0  0  0  0  0  0  0
  -21.0246   24.2794   -6.2318 C   0  0  0  0  0  0  0  0  0  0  0  0
  -19.9473   24.7273   -7.1630 C   0  0  0  0  0  0  0  0  0  0  0  0
  -20.3551   24.5666   -8.6173 C   0  0  0  0  0  0  0  0  0  0  0  0
  -21.5056   23.6096   -8.7053 C   0  0  2  0  0  0  0  0  0  0  0  0
  -21.8238   23.3266  -10.1398 C   0  0  0  0  0  0  0  0  0  0  0  0
  -22.8373   22.3107  -10.2680 N   0  0  0  0  0  0  0  0  0  0  0  0
  -21.3950   20.4415  -11.1780 C   0  0  0  0  0  0  0  0  0  0  0  0
  -21.4068   19.1280  -11.5964 C   0  0  0  0  0  0  0  0  0  0  0  0
  -19.9419   17.1604  -12.2316 C   0  0  0  0  0  0  0  0  0  0  0  0
  -21.5531   15.2346  -11.6569 N   0  0  0  0  0  0  0  0  0  0  0  0
  -18.0294   15.7171  -13.0258 N   0  0  0  0  0  0  0  0  0  0  0  0
  -18.1544   18.1962  -12.8674 N   0  0  0  0  0  0  0  0  0  0  0  0
  -19.0411   19.1021  -12.4926 N   0  0  0  0  0  0  0  0  0  0  0  0
  -23.7696   20.3870  -10.6691 C   0  0  0  0  0  0  0  0  0  0  0  0
  -24.1391   22.4157   -9.9527 C   0  0  0  0  0  0  0  0  0  0  0  0
 16  1  1  0
  1 17  1  0
  1 24  2  0
 18  2  1  0
  2 19  1  0
  2 23  2  0
 19  3  1  0
  3 20  3  0
 19  4  2  0
  4 21  1  0
  4 22  1  0
  6  5  2  0
  5 18  1  0
 24  6  1  0
 24  7  1  0
  7 25  2  0
  9  8  1  6
 10  9  1  0
  9 11  1  0
 14 10  1  0
 12 11  1  0
 13 12  1  0
 14 13  1  0
 14 15  1  6
 15 16  1  0
 16 25  1  0
 17 18  2  0
 22 23  1  0
M  CHG  1   9   1
M  END
$$$$
