
     RDKit          3D

 25 28  0  0  0  0  0  0  0  0999 V2000
  -12.4339    7.5634  -28.0951 C   0  0  0  0  0  0  0  0  0  0  0  0
  -12.9010    8.7465  -24.5661 C   0  0  0  0  0  0  0  0  0  0  0  0
  -12.9641   11.2228  -24.1411 C   0  0  0  0  0  0  0  0  0  0  0  0
  -13.0216    9.4249  -22.4151 C   0  0  0  0  0  0  0  0  0  0  0  0
  -13.1139    9.8362  -26.7949 C   0  0  0  0  0  0  0  0  0  0  0  0
  -13.0637    9.8343  -28.1725 C   0  0  0  0  0  0  0  0  0  0  0  0
  -12.5996    8.3961  -30.2051 C   0  0  0  0  0  0  0  0  0  0  0  0
  -15.4327    2.6057  -28.6244 C   0  0  0  0  0  0  0  0  0  0  0  0
  -14.7664    3.2735  -29.6993 N   0  0  1  0  0  4  0  0  0  0  0  0
  -14.0176    4.4264  -29.2727 C   0  0  0  0  0  0  0  0  0  0  0  0
  -13.9660    2.3667  -30.5035 C   0  0  0  0  0  0  0  0  0  0  0  0
  -12.7989    1.8004  -29.7649 C   0  0  0  0  0  0  0  0  0  0  0  0
  -12.1220    2.8442  -28.8932 C   0  0  0  0  0  0  0  0  0  0  0  0
  -12.5240    4.2117  -29.3569 C   0  0  2  0  0  0  0  0  0  0  0  0
  -11.7531    5.2512  -28.6056 C   0  0  0  0  0  0  0  0  0  0  0  0
  -12.1367    6.5833  -28.9981 N   0  0  0  0  0  0  0  0  0  0  0  0
  -12.4878    7.5758  -26.6972 C   0  0  0  0  0  0  0  0  0  0  0  0
  -12.8330    8.7266  -26.0212 C   0  0  0  0  0  0  0  0  0  0  0  0
  -12.9664    9.8239  -23.7410 C   0  0  0  0  0  0  0  0  0  0  0  0
  -12.9779   12.2973  -24.4600 N   0  0  0  0  0  0  0  0  0  0  0  0
  -13.1039   10.2440  -21.2559 N   0  0  0  0  0  0  0  0  0  0  0  0
  -12.9866    8.0761  -22.4695 N   0  0  0  0  0  0  0  0  0  0  0  0
  -12.9158    7.6681  -23.7249 N   0  0  0  0  0  0  0  0  0  0  0  0
  -12.7164    8.6745  -28.8517 C   0  0  0  0  0  0  0  0  0  0  0  0
  -12.2333    7.0673  -30.2478 C   0  0  0  0  0  0  0  0  0  0  0  0
 16  1  1  0
  1 17  1  0
  1 24  2  0
 18  2  1  0
  2 19  1  0
  2 23  2  0
 19  3  1  0
  3 20  3  0
 19  4  2  0
  4 21  1  0
  4 22  1  0
  6  5  2  0
  5 18  1  0
 24  6  1  0
 24  7  1  0
  7 25  2  0
  9  8  1  1
 10  9  1  0
  9 11  1  0
 14 10  1  0
 12 11  1  0
 13 12  1  0
 14 13  1  0
 14 15  1  1
 15 16  1  0
 16 25  1  0
 17 18  2  0
 22 23  1  0
M  CHG  1   9   1
M  END
$$$$
