
     RDKit          3D

 25 28  0  0  0  0  0  0  0  0999 V2000
  -12.3660    7.9862  -28.0542 C   0  0  0  0  0  0  0  0  0  0  0  0
  -12.7169    9.2378  -24.5354 C   0  0  0  0  0  0  0  0  0  0  0  0
  -12.0403   11.6255  -24.1379 C   0  0  0  0  0  0  0  0  0  0  0  0
  -12.5843    9.9328  -22.3904 C   0  0  0  0  0  0  0  0  0  0  0  0
  -12.9788   10.2907  -26.7766 C   0  0  0  0  0  0  0  0  0  0  0  0
  -12.9679   10.2637  -28.1548 C   0  0  0  0  0  0  0  0  0  0  0  0
  -12.5808    8.7837  -30.1734 C   0  0  0  0  0  0  0  0  0  0  0  0
  -13.2760    1.4236  -29.0265 C   0  0  0  0  0  0  0  0  0  0  0  0
  -13.6138    2.4290  -28.0671 N   0  0  1  0  0  4  0  0  0  0  0  0
  -12.5678    3.3979  -27.8697 C   0  0  0  0  0  0  0  0  0  0  0  0
  -14.8945    3.0543  -28.3476 C   0  0  0  0  0  0  0  0  0  0  0  0
  -14.8921    3.8612  -29.6035 C   0  0  0  0  0  0  0  0  0  0  0  0
  -13.6066    4.6546  -29.7624 C   0  0  0  0  0  0  0  0  0  0  0  0
  -12.9201    4.7550  -28.4336 C   0  0  2  0  0  0  0  0  0  0  0  0
  -11.7305    5.6562  -28.5419 C   0  0  0  0  0  0  0  0  0  0  0  0
  -12.1076    6.9863  -28.9474 N   0  0  0  0  0  0  0  0  0  0  0  0
  -12.3799    8.0241  -26.6559 C   0  0  0  0  0  0  0  0  0  0  0  0
  -12.6906    9.1913  -25.9912 C   0  0  0  0  0  0  0  0  0  0  0  0
  -12.4443   10.2911  -23.7217 C   0  0  0  0  0  0  0  0  0  0  0  0
  -11.7182   12.6549  -24.4429 N   0  0  0  0  0  0  0  0  0  0  0  0
  -12.3962   10.7459  -21.2393 N   0  0  0  0  0  0  0  0  0  0  0  0
  -12.9481    8.6330  -22.4298 N   0  0  0  0  0  0  0  0  0  0  0  0
  -13.0287    8.2158  -23.6816 N   0  0  0  0  0  0  0  0  0  0  0  0
  -12.6554    9.0875  -28.8225 C   0  0  0  0  0  0  0  0  0  0  0  0
  -12.2334    7.4494  -30.2024 C   0  0  0  0  0  0  0  0  0  0  0  0
 16  1  1  0
  1 17  1  0
  1 24  2  0
 18  2  1  0
  2 19  1  0
  2 23  2  0
 19  3  1  0
  3 20  3  0
 19  4  2  0
  4 21  1  0
  4 22  1  0
  6  5  2  0
  5 18  1  0
 24  6  1  0
 24  7  1  0
  7 25  2  0
  9  8  1  6
 10  9  1  0
  9 11  1  0
 14 10  1  0
 12 11  1  0
 13 12  1  0
 14 13  1  0
 14 15  1  6
 15 16  1  0
 16 25  1  0
 17 18  2  0
 22 23  1  0
M  CHG  1   9   1
M  END
$$$$
