
     RDKit          3D

 25 28  0  0  0  0  0  0  0  0999 V2000
  -13.4902    9.2084  -27.5224 C   0  0  0  0  0  0  0  0  0  0  0  0
  -12.4838    9.3096  -23.9102 C   0  0  0  0  0  0  0  0  0  0  0  0
  -13.7666   11.4221  -23.4536 C   0  0  0  0  0  0  0  0  0  0  0  0
  -12.9154    9.8125  -21.7509 C   0  0  0  0  0  0  0  0  0  0  0  0
  -11.2450    9.5622  -26.0554 C   0  0  0  0  0  0  0  0  0  0  0  0
  -11.1681    9.6069  -27.4310 C   0  0  0  0  0  0  0  0  0  0  0  0
  -12.5185    9.4322  -29.5667 C   0  0  0  0  0  0  0  0  0  0  0  0
  -19.9582   10.6229  -28.5615 C   0  0  0  0  0  0  0  0  0  0  0  0
  -18.6841   11.1331  -28.9633 N   0  0  1  0  0  4  0  0  0  0  0  0
  -17.5885   10.5743  -28.2153 C   0  0  0  0  0  0  0  0  0  0  0  0
  -18.4753   11.0350  -30.3973 C   0  0  0  0  0  0  0  0  0  0  0  0
  -18.3735    9.6265  -30.8815 C   0  0  0  0  0  0  0  0  0  0  0  0
  -17.5621    8.7608  -29.9331 C   0  0  0  0  0  0  0  0  0  0  0  0
  -16.7365    9.6410  -29.0440 C   0  0  2  0  0  0  0  0  0  0  0  0
  -15.8227    8.8038  -28.2054 C   0  0  0  0  0  0  0  0  0  0  0  0
  -14.4380    9.0754  -28.4963 N   0  0  0  0  0  0  0  0  0  0  0  0
  -13.5576    9.1649  -26.1258 C   0  0  0  0  0  0  0  0  0  0  0  0
  -12.4217    9.3437  -25.3653 C   0  0  0  0  0  0  0  0  0  0  0  0
  -13.0719   10.2022  -23.0715 C   0  0  0  0  0  0  0  0  0  0  0  0
  -14.2849   12.3700  -23.7524 N   0  0  0  0  0  0  0  0  0  0  0  0
  -13.3883   10.4684  -20.5814 N   0  0  0  0  0  0  0  0  0  0  0  0
  -12.2153    8.6600  -21.8225 N   0  0  0  0  0  0  0  0  0  0  0  0
  -11.9572    8.3562  -23.0829 N   0  0  0  0  0  0  0  0  0  0  0  0
  -12.3129    9.4272  -28.1954 C   0  0  0  0  0  0  0  0  0  0  0  0
  -13.8718    9.2074  -29.7076 C   0  0  0  0  0  0  0  0  0  0  0  0
 16  1  1  0
  1 17  1  0
  1 24  2  0
 18  2  1  0
  2 19  1  0
  2 23  2  0
 19  3  1  0
  3 20  3  0
 19  4  2  0
  4 21  1  0
  4 22  1  0
  6  5  2  0
  5 18  1  0
 24  6  1  0
 24  7  1  0
  7 25  2  0
  9  8  1  6
 10  9  1  0
  9 11  1  0
 14 10  1  0
 12 11  1  0
 13 12  1  0
 14 13  1  0
 14 15  1  1
 15 16  1  0
 16 25  1  0
 17 18  2  0
 22 23  1  0
M  CHG  1   9   1
M  END
$$$$
