
     RDKit          3D

 25 28  0  0  0  0  0  0  0  0999 V2000
  -12.2079    8.0525  -26.9959 C   0  0  0  0  0  0  0  0  0  0  0  0
  -12.7576    9.7781  -23.7108 C   0  0  0  0  0  0  0  0  0  0  0  0
  -14.8786   11.1217  -23.5954 C   0  0  0  0  0  0  0  0  0  0  0  0
  -13.4253   10.4856  -21.6723 C   0  0  0  0  0  0  0  0  0  0  0  0
  -13.0231   10.4673  -26.0888 C   0  0  0  0  0  0  0  0  0  0  0  0
  -12.9669   10.2388  -27.4471 C   0  0  0  0  0  0  0  0  0  0  0  0
  -12.4120    8.5112  -29.2142 C   0  0  0  0  0  0  0  0  0  0  0  0
  -12.3648    2.0774  -29.6176 C   0  0  0  0  0  0  0  0  0  0  0  0
  -11.5811    3.2321  -29.9302 N   0  0  1  0  0  4  0  0  0  0  0  0
  -11.9437    4.3897  -29.1555 C   0  0  0  0  0  0  0  0  0  0  0  0
  -10.1545    2.9635  -29.8798 C   0  0  0  0  0  0  0  0  0  0  0  0
   -9.6618    2.6602  -28.5036 C   0  0  0  0  0  0  0  0  0  0  0  0
  -10.3042    3.5608  -27.4627 C   0  0  0  0  0  0  0  0  0  0  0  0
  -10.8873    4.7634  -28.1415 C   0  0  2  0  0  0  0  0  0  0  0  0
  -11.3932    5.7305  -27.1178 C   0  0  0  0  0  0  0  0  0  0  0  0
  -11.8510    6.9544  -27.7246 N   0  0  0  0  0  0  0  0  0  0  0  0
  -12.2685    8.2945  -25.6194 C   0  0  0  0  0  0  0  0  0  0  0  0
  -12.6823    9.5201  -25.1426 C   0  0  0  0  0  0  0  0  0  0  0  0
  -13.7106   10.4650  -23.0282 C   0  0  0  0  0  0  0  0  0  0  0  0
  -15.7897   11.6152  -24.0230 N   0  0  0  0  0  0  0  0  0  0  0  0
  -14.1754   11.0919  -20.6277 N   0  0  0  0  0  0  0  0  0  0  0  0
  -12.2723    9.7913  -21.5621 N   0  0  0  0  0  0  0  0  0  0  0  0
  -11.8724    9.3723  -22.7504 N   0  0  0  0  0  0  0  0  0  0  0  0
  -12.5506    9.0039  -27.9255 C   0  0  0  0  0  0  0  0  0  0  0  0
  -11.9699    7.2171  -29.0369 C   0  0  0  0  0  0  0  0  0  0  0  0
 16  1  1  0
  1 17  1  0
  1 24  2  0
 18  2  1  0
  2 19  1  0
  2 23  2  0
 19  3  1  0
  3 20  3  0
 19  4  2  0
  4 21  1  0
  4 22  1  0
  6  5  2  0
  5 18  1  0
 24  6  1  0
 24  7  1  0
  7 25  2  0
  9  8  1  1
 10  9  1  0
  9 11  1  0
 14 10  1  0
 12 11  1  0
 13 12  1  0
 14 13  1  0
 14 15  1  1
 15 16  1  0
 16 25  1  0
 17 18  2  0
 22 23  1  0
M  CHG  1   9   1
M  END
$$$$
