
     RDKit          3D

 25 28  0  0  0  0  0  0  0  0999 V2000
  -12.1566    8.2760  -27.7860 C   0  0  0  0  0  0  0  0  0  0  0  0
  -13.3144    8.9561  -24.2834 C   0  0  0  0  0  0  0  0  0  0  0  0
  -11.7622   10.4568  -22.9969 C   0  0  0  0  0  0  0  0  0  0  0  0
  -14.0930    9.8448  -22.3583 C   0  0  0  0  0  0  0  0  0  0  0  0
  -11.1355    8.2795  -25.2808 C   0  0  0  0  0  0  0  0  0  0  0  0
  -10.3189    7.9567  -26.3435 C   0  0  0  0  0  0  0  0  0  0  0  0
  -10.2424    7.6795  -28.8600 C   0  0  0  0  0  0  0  0  0  0  0  0
  -13.8538    4.8706  -32.4898 C   0  0  0  0  0  0  0  0  0  0  0  0
  -14.1135    4.9664  -31.0867 N   0  0  1  0  0  4  0  0  0  0  0  0
  -13.4399    6.0734  -30.4601 C   0  0  0  0  0  0  0  0  0  0  0  0
  -15.5339    4.9464  -30.7836 C   0  0  0  0  0  0  0  0  0  0  0  0
  -16.2581    6.1532  -31.2811 C   0  0  0  0  0  0  0  0  0  0  0  0
  -15.4522    7.4230  -31.0683 C   0  0  0  0  0  0  0  0  0  0  0  0
  -14.3920    7.1690  -30.0395 C   0  0  2  0  0  0  0  0  0  0  0  0
  -13.6853    8.4464  -29.7107 C   0  0  0  0  0  0  0  0  0  0  0  0
  -12.3900    8.2018  -29.1293 N   0  0  0  0  0  0  0  0  0  0  0  0
  -12.9768    8.6022  -26.7007 C   0  0  0  0  0  0  0  0  0  0  0  0
  -12.4702    8.6084  -25.4186 C   0  0  0  0  0  0  0  0  0  0  0  0
  -13.0198    9.7637  -23.2313 C   0  0  0  0  0  0  0  0  0  0  0  0
  -10.7999   11.0058  -22.8263 N   0  0  0  0  0  0  0  0  0  0  0  0
  -14.1857   10.5880  -21.1499 N   0  0  0  0  0  0  0  0  0  0  0  0
  -15.0397    9.0611  -22.9177 N   0  0  0  0  0  0  0  0  0  0  0  0
  -14.5940    8.5355  -24.0459 N   0  0  0  0  0  0  0  0  0  0  0  0
  -10.8305    7.9515  -27.6340 C   0  0  0  0  0  0  0  0  0  0  0  0
  -11.2631    7.8506  -29.7712 C   0  0  0  0  0  0  0  0  0  0  0  0
 16  1  1  0
  1 17  1  0
  1 24  2  0
 18  2  1  0
  2 19  1  0
  2 23  2  0
 19  3  1  0
  3 20  3  0
 19  4  2  0
  4 21  1  0
  4 22  1  0
  6  5  2  0
  5 18  1  0
 24  6  1  0
 24  7  1  0
  7 25  2  0
  9  8  1  6
 10  9  1  0
  9 11  1  0
 14 10  1  0
 12 11  1  0
 13 12  1  0
 14 13  1  0
 14 15  1  6
 15 16  1  0
 16 25  1  0
 17 18  2  0
 22 23  1  0
M  CHG  1   9   1
M  END
$$$$
