
     RDKit          3D

 25 28  0  0  0  0  0  0  0  0999 V2000
  -12.3582    6.1096  -28.8357 C   0  0  0  0  0  0  0  0  0  0  0  0
   -9.9253    5.6269  -26.0216 C   0  0  0  0  0  0  0  0  0  0  0  0
  -11.9193    5.7456  -24.4963 C   0  0  0  0  0  0  0  0  0  0  0  0
   -9.6166    5.0285  -23.8656 C   0  0  0  0  0  0  0  0  0  0  0  0
   -9.8641    6.9074  -28.1563 C   0  0  0  0  0  0  0  0  0  0  0  0
  -10.4145    7.3446  -29.3421 C   0  0  0  0  0  0  0  0  0  0  0  0
  -12.4759    7.2333  -30.8097 C   0  0  0  0  0  0  0  0  0  0  0  0
  -16.1522    0.7832  -29.0690 C   0  0  0  0  0  0  0  0  0  0  0  0
  -16.3268    1.8876  -29.9607 N   0  0  1  0  0  4  0  0  0  0  0  0
  -16.1728    3.1656  -29.3167 C   0  0  0  0  0  0  0  0  0  0  0  0
  -15.5054    1.7720  -31.1531 C   0  0  0  0  0  0  0  0  0  0  0  0
  -14.0430    1.8735  -30.8714 C   0  0  0  0  0  0  0  0  0  0  0  0
  -13.7399    2.9459  -29.8393 C   0  0  0  0  0  0  0  0  0  0  0  0
  -14.9088    3.8788  -29.7377 C   0  0  2  0  0  0  0  0  0  0  0  0
  -14.5697    5.0234  -28.8354 C   0  0  0  0  0  0  0  0  0  0  0  0
  -13.5712    5.8821  -29.4199 N   0  0  0  0  0  0  0  0  0  0  0  0
  -11.7906    5.6717  -27.6344 C   0  0  0  0  0  0  0  0  0  0  0  0
  -10.5208    6.0702  -27.2750 C   0  0  0  0  0  0  0  0  0  0  0  0
  -10.5251    5.4748  -24.8120 C   0  0  0  0  0  0  0  0  0  0  0  0
  -12.9879    5.9643  -24.2377 N   0  0  0  0  0  0  0  0  0  0  0  0
   -9.8502    4.7426  -22.4926 N   0  0  0  0  0  0  0  0  0  0  0  0
   -8.4538    4.9182  -24.5434 N   0  0  0  0  0  0  0  0  0  0  0  0
   -8.6235    5.2664  -25.8073 N   0  0  0  0  0  0  0  0  0  0  0  0
  -11.6935    6.9428  -29.7023 C   0  0  0  0  0  0  0  0  0  0  0  0
  -13.6490    6.5436  -30.5867 C   0  0  0  0  0  0  0  0  0  0  0  0
 16  1  1  0
  1 17  1  0
  1 24  2  0
 18  2  1  0
  2 19  1  0
  2 23  2  0
 19  3  1  0
  3 20  3  0
 19  4  2  0
  4 21  1  0
  4 22  1  0
  6  5  2  0
  5 18  1  0
 24  6  1  0
 24  7  1  0
  7 25  2  0
  9  8  1  1
 10  9  1  0
  9 11  1  0
 14 10  1  0
 12 11  1  0
 13 12  1  0
 14 13  1  0
 14 15  1  1
 15 16  1  0
 16 25  1  0
 17 18  2  0
 22 23  1  0
M  CHG  1   9   1
M  END
$$$$
