
     RDKit          3D

 35 38  0  0  0  0  0  0  0  0999 V2000
  -16.7633  -37.0603   -9.5355 C   0  0  0  0  0  0  0  0  0  0  0  0
  -16.7978  -38.5125   -9.2202 C   0  0  1  0  0  0  0  0  0  0  0  0
  -15.4824  -39.8809   -7.4709 C   0  0  0  0  0  0  0  0  0  0  0  0
  -16.9254  -40.8415   -9.7162 C   0  0  0  0  0  0  0  0  0  0  0  0
  -16.3540  -39.5002  -10.2059 C   0  0  2  0  0  0  0  0  0  0  0  0
  -14.8530  -39.7757  -10.2176 C   0  0  0  0  0  0  0  0  0  0  0  0
  -13.9906  -38.6113  -10.5168 C   0  0  0  0  0  0  0  0  0  0  0  0
  -15.9117  -38.6753   -8.0470 N   0  0  0  0  0  0  0  0  0  0  0  0
  -14.7311  -39.9351   -6.4409 N   0  0  0  0  0  0  0  0  0  0  0  0
  -14.3734  -36.3706  -11.9947 O   0  0  0  0  0  0  0  0  0  0  0  0
  -16.1593  -38.3282  -12.4444 C   0  0  0  0  0  0  0  0  0  0  0  0
  -13.5343  -38.3197  -13.1118 O   0  0  0  0  0  0  0  0  0  0  0  0
  -19.9903  -40.4967   -6.0047 N   0  0  0  0  0  0  0  0  0  0  0  0
  -16.7200  -39.4481  -11.6378 C   0  0  0  0  0  0  0  0  0  0  0  0
  -18.2217  -38.7700   -8.7640 C   0  0  0  0  0  0  0  0  0  0  0  0
  -18.4225  -39.4859   -7.5796 C   0  0  0  0  0  0  0  0  0  0  0  0
  -19.6966  -39.7770   -7.1841 C   0  0  0  0  0  0  0  0  0  0  0  0
  -21.2189  -40.6294   -5.3428 C   0  0  0  0  0  0  0  0  0  0  0  0
  -21.2758  -41.1292   -3.9451 C   0  0  0  0  0  0  0  0  0  0  0  0
  -20.5139  -41.1988   -1.7240 C   0  0  0  0  0  0  0  0  0  0  0  0
  -19.1000  -37.5754  -10.6591 F   0  0  0  0  0  0  0  0  0  0  0  0
  -19.2676  -38.3437   -9.5445 C   0  0  0  0  0  0  0  0  0  0  0  0
  -14.5075  -37.8909  -12.0189 S   0  0  2  0  0  6  0  0  0  0  0  0
  -16.0302  -41.3980   -8.2380 S   0  0  0  0  0  0  0  0  0  0  0  0
  -20.5587  -38.6512   -9.1246 C   0  0  0  0  0  0  0  0  0  0  0  0
  -20.7810  -39.3530   -7.9701 C   0  0  0  0  0  0  0  0  0  0  0  0
  -22.2710  -40.3238   -5.9371 O   0  0  0  0  0  0  0  0  0  0  0  0
  -22.2352  -42.0518   -3.6204 C   0  0  0  0  0  0  0  0  0  0  0  0
  -22.3182  -42.5337   -2.3504 N   0  0  0  0  0  0  0  0  0  0  0  0
  -21.4736  -42.1223   -1.3977 C   0  0  0  0  0  0  0  0  0  0  0  0
  -20.4406  -40.7260   -2.9917 N   0  0  0  0  0  0  0  0  0  0  0  0
  -21.5800  -42.6314   -0.1061 O   0  0  0  0  0  0  0  0  0  0  0  0
  -21.6357  -44.0206    0.1128 C   0  0  0  0  0  0  0  0  0  0  0  0
  -20.3680  -44.4995    0.3735 F   0  0  0  0  0  0  0  0  0  0  0  0
  -15.0061  -39.6594   -5.4838 H   0  0  0  0  0  0  0  0  0  0  0  0
  1  2  1  6
  2  5  1  0
  2  8  1  0
  2 15  1  1
  8  3  1  0
  3  9  2  0
  3 24  1  0
  5  4  1  1
  4 24  1  6
  6  5  1  1
 14  5  1  1
  7  6  1  1
 23  7  1  1
 23 10  2  0
 11 14  1  1
 11 23  1  0
 23 12  2  0
 13 17  1  0
 18 13  1  0
 16 15  2  0
 15 22  1  0
 17 16  1  0
 17 26  2  0
 19 18  1  0
 18 27  2  0
 19 28  1  0
 31 19  2  0
 20 30  2  0
 20 31  1  0
 22 21  1  0
 22 25  2  0
 25 26  1  0
 28 29  2  0
 29 30  1  0
 30 32  1  0
 32 33  1  0
 33 34  1  6
  9 35  1  0
M  END
$$$$
