
     RDKit          3D

 35 38  0  0  0  0  0  0  0  0999 V2000
  -16.8058  -37.6728  -10.3713 C   0  0  0  0  0  0  0  0  0  0  0  0
  -16.9768  -38.8310   -9.4554 C   0  0  1  0  0  0  0  0  0  0  0  0
  -15.6983  -39.4738   -7.3071 C   0  0  0  0  0  0  0  0  0  0  0  0
  -17.3939  -41.1092   -8.8874 C   0  0  0  0  0  0  0  0  0  0  0  0
  -16.7152  -40.1945   -9.9209 C   0  0  2  0  0  0  0  0  0  0  0  0
  -15.2581  -40.6403   -9.8364 C   0  0  0  0  0  0  0  0  0  0  0  0
  -14.2967  -39.8397  -10.6263 C   0  0  0  0  0  0  0  0  0  0  0  0
  -16.0328  -38.5878   -8.3430 N   0  0  0  0  0  0  0  0  0  0  0  0
  -14.8861  -39.1774   -6.3686 N   0  0  0  0  0  0  0  0  0  0  0  0
  -14.5357  -38.4216  -12.9249 O   0  0  0  0  0  0  0  0  0  0  0  0
  -16.5529  -40.1330  -12.4491 C   0  0  0  0  0  0  0  0  0  0  0  0
  -13.9970  -40.7520  -13.0972 O   0  0  0  0  0  0  0  0  0  0  0  0
  -20.3942  -39.8682   -6.0329 N   0  0  0  0  0  0  0  0  0  0  0  0
  -17.1742  -40.7151  -11.2268 C   0  0  0  0  0  0  0  0  0  0  0  0
  -18.3843  -38.6808   -8.9092 C   0  0  0  0  0  0  0  0  0  0  0  0
  -18.7055  -39.3241   -7.7097 C   0  0  0  0  0  0  0  0  0  0  0  0
  -19.9828  -39.2477   -7.2332 C   0  0  0  0  0  0  0  0  0  0  0  0
  -21.5465  -40.6289   -5.7905 C   0  0  0  0  0  0  0  0  0  0  0  0
  -21.7237  -41.3452   -4.5013 C   0  0  0  0  0  0  0  0  0  0  0  0
  -22.7396  -42.9699   -3.1422 C   0  0  0  0  0  0  0  0  0  0  0  0
  -19.0048  -37.2657  -10.7537 F   0  0  0  0  0  0  0  0  0  0  0  0
  -19.3133  -37.9676   -9.6255 C   0  0  0  0  0  0  0  0  0  0  0  0
  -14.8370  -39.7735  -12.2835 S   0  0  2  0  0  6  0  0  0  0  0  0
  -16.4622  -41.0882   -7.3292 S   0  0  0  0  0  0  0  0  0  0  0  0
  -20.6101  -37.9026   -9.1235 C   0  0  0  0  0  0  0  0  0  0  0  0
  -20.9497  -38.5259   -7.9526 C   0  0  0  0  0  0  0  0  0  0  0  0
  -22.4282  -40.7019   -6.6686 O   0  0  0  0  0  0  0  0  0  0  0  0
  -20.9497  -40.9704   -3.4347 C   0  0  0  0  0  0  0  0  0  0  0  0
  -21.0838  -41.6027   -2.2371 N   0  0  0  0  0  0  0  0  0  0  0  0
  -21.9657  -42.5956   -2.0739 C   0  0  0  0  0  0  0  0  0  0  0  0
  -22.5975  -42.3332   -4.3299 N   0  0  0  0  0  0  0  0  0  0  0  0
  -22.0832  -43.2258   -0.8379 O   0  0  0  0  0  0  0  0  0  0  0  0
  -20.9888  -43.2776    0.0456 C   0  0  0  0  0  0  0  0  0  0  0  0
  -20.2013  -44.3699   -0.2562 F   0  0  0  0  0  0  0  0  0  0  0  0
  -13.9907  -39.6565   -6.1780 H   0  0  0  0  0  0  0  0  0  0  0  0
  1  2  1  6
  2  5  1  0
  2  8  1  0
  2 15  1  1
  8  3  1  0
  3  9  2  0
  3 24  1  0
  5  4  1  1
  4 24  1  6
  6  5  1  1
 14  5  1  1
  7  6  1  1
 23  7  1  1
 23 10  2  0
 11 14  1  1
 11 23  1  0
 23 12  2  0
 13 17  1  0
 18 13  1  0
 16 15  2  0
 15 22  1  0
 17 16  1  0
 17 26  2  0
 19 18  1  0
 18 27  2  0
 19 28  1  0
 31 19  2  0
 20 30  2  0
 20 31  1  0
 22 21  1  0
 22 25  2  0
 25 26  1  0
 28 29  2  0
 29 30  1  0
 30 32  1  0
 32 33  1  0
 33 34  1  6
  9 35  1  0
M  END
$$$$
