
     RDKit          3D

 35 38  0  0  0  0  0  0  0  0999 V2000
  -16.8358  -37.2301  -10.0195 C   0  0  0  0  0  0  0  0  0  0  0  0
  -16.9781  -38.5695   -9.3908 C   0  0  1  0  0  0  0  0  0  0  0  0
  -15.6630  -39.6633   -7.4576 C   0  0  0  0  0  0  0  0  0  0  0  0
  -17.3542  -40.9240   -9.3542 C   0  0  0  0  0  0  0  0  0  0  0  0
  -16.7023  -39.7861  -10.1576 C   0  0  2  0  0  0  0  0  0  0  0  0
  -15.2378  -40.2142  -10.1902 C   0  0  0  0  0  0  0  0  0  0  0  0
  -14.2984  -39.2380  -10.7850 C   0  0  0  0  0  0  0  0  0  0  0  0
  -16.0237  -38.5702   -8.2607 N   0  0  0  0  0  0  0  0  0  0  0  0
  -14.8435  -39.5749   -6.4835 N   0  0  0  0  0  0  0  0  0  0  0  0
  -14.5875  -37.3372  -12.6969 O   0  0  0  0  0  0  0  0  0  0  0  0
  -16.5730  -39.1465  -12.6064 C   0  0  0  0  0  0  0  0  0  0  0  0
  -14.0167  -39.5573  -13.4015 O   0  0  0  0  0  0  0  0  0  0  0  0
  -20.1762  -39.9408   -5.8751 N   0  0  0  0  0  0  0  0  0  0  0  0
  -17.1701  -40.0028  -11.5437 C   0  0  0  0  0  0  0  0  0  0  0  0
  -18.3805  -38.5722   -8.8120 C   0  0  0  0  0  0  0  0  0  0  0  0
  -18.5990  -39.2315   -7.5983 C   0  0  0  0  0  0  0  0  0  0  0  0
  -19.8655  -39.2937   -7.0916 C   0  0  0  0  0  0  0  0  0  0  0  0
  -21.3557  -40.6066   -5.5136 C   0  0  0  0  0  0  0  0  0  0  0  0
  -21.4406  -41.3552   -4.2334 C   0  0  0  0  0  0  0  0  0  0  0  0
  -20.5498  -42.0986   -2.1907 C   0  0  0  0  0  0  0  0  0  0  0  0
  -19.1998  -37.2611  -10.6559 F   0  0  0  0  0  0  0  0  0  0  0  0
  -19.4007  -37.9783   -9.5131 C   0  0  0  0  0  0  0  0  0  0  0  0
  -14.8606  -38.8048  -12.3784 S   0  0  2  0  0  6  0  0  0  0  0  0
  -16.4033  -41.2430   -7.8408 S   0  0  0  0  0  0  0  0  0  0  0  0
  -20.6846  -38.0537   -8.9804 C   0  0  0  0  0  0  0  0  0  0  0  0
  -20.9243  -38.6956   -7.7950 C   0  0  0  0  0  0  0  0  0  0  0  0
  -22.3399  -40.5672   -6.2773 O   0  0  0  0  0  0  0  0  0  0  0  0
  -22.5998  -42.0265   -3.9456 C   0  0  0  0  0  0  0  0  0  0  0  0
  -22.7150  -42.7241   -2.7828 N   0  0  0  0  0  0  0  0  0  0  0  0
  -21.7093  -42.7709   -1.9014 C   0  0  0  0  0  0  0  0  0  0  0  0
  -20.4463  -41.4072   -3.3515 N   0  0  0  0  0  0  0  0  0  0  0  0
  -21.8531  -43.4923   -0.7192 O   0  0  0  0  0  0  0  0  0  0  0  0
  -20.9824  -43.2710    0.3642 C   0  0  0  0  0  0  0  0  0  0  0  0
  -21.3167  -42.0889    0.9930 F   0  0  0  0  0  0  0  0  0  0  0  0
  -14.3737  -38.7087   -6.1729 H   0  0  0  0  0  0  0  0  0  0  0  0
  1  2  1  6
  2  5  1  0
  2  8  1  0
  2 15  1  1
  8  3  1  0
  3  9  2  0
  3 24  1  0
  5  4  1  1
  4 24  1  6
  6  5  1  1
 14  5  1  1
  7  6  1  1
 23  7  1  1
 23 10  2  0
 11 14  1  1
 11 23  1  0
 23 12  2  0
 13 17  1  0
 18 13  1  0
 16 15  2  0
 15 22  1  0
 17 16  1  0
 17 26  2  0
 19 18  1  0
 18 27  2  0
 19 28  1  0
 31 19  2  0
 20 30  2  0
 20 31  1  0
 22 21  1  0
 22 25  2  0
 25 26  1  0
 28 29  2  0
 29 30  1  0
 30 32  1  0
 32 33  1  0
 33 34  1  6
  9 35  1  0
M  END
$$$$
