
     RDKit          3D

 35 38  0  0  0  0  0  0  0  0999 V2000
  -16.8012  -37.5931  -10.3372 C   0  0  0  0  0  0  0  0  0  0  0  0
  -17.0685  -38.7219   -9.4078 C   0  0  1  0  0  0  0  0  0  0  0  0
  -15.8705  -39.4224   -7.2313 C   0  0  0  0  0  0  0  0  0  0  0  0
  -17.6571  -40.9552   -8.8141 C   0  0  0  0  0  0  0  0  0  0  0  0
  -16.8995  -40.1076   -9.8499 C   0  0  2  0  0  0  0  0  0  0  0  0
  -15.4797  -40.6559   -9.7368 C   0  0  0  0  0  0  0  0  0  0  0  0
  -14.4518  -39.9387  -10.5231 C   0  0  0  0  0  0  0  0  0  0  0  0
  -16.1253  -38.5305   -8.2845 N   0  0  0  0  0  0  0  0  0  0  0  0
  -15.0524  -39.1711   -6.2847 N   0  0  0  0  0  0  0  0  0  0  0  0
  -14.5550  -38.5421  -12.8449 O   0  0  0  0  0  0  0  0  0  0  0  0
  -16.6971  -40.0963  -12.3760 C   0  0  0  0  0  0  0  0  0  0  0  0
  -14.1836  -40.9077  -12.9760 O   0  0  0  0  0  0  0  0  0  0  0  0
  -20.5606  -39.3643   -5.9638 N   0  0  0  0  0  0  0  0  0  0  0  0
  -17.3762  -40.6135  -11.1552 C   0  0  0  0  0  0  0  0  0  0  0  0
  -18.4690  -38.4625   -8.8853 C   0  0  0  0  0  0  0  0  0  0  0  0
  -18.8333  -39.0145   -7.6532 C   0  0  0  0  0  0  0  0  0  0  0  0
  -20.1075  -38.8399   -7.1946 C   0  0  0  0  0  0  0  0  0  0  0  0
  -21.5482  -40.3325   -5.7349 C   0  0  0  0  0  0  0  0  0  0  0  0
  -21.5431  -41.1389   -4.4874 C   0  0  0  0  0  0  0  0  0  0  0  0
  -20.5751  -41.8472   -2.4675 C   0  0  0  0  0  0  0  0  0  0  0  0
  -18.9981  -37.1278  -10.8163 F   0  0  0  0  0  0  0  0  0  0  0  0
  -19.3524  -37.7433   -9.6517 C   0  0  0  0  0  0  0  0  0  0  0  0
  -14.9623  -39.8589  -12.1891 S   0  0  2  0  0  6  0  0  0  0  0  0
  -16.7487  -40.9777   -7.2423 S   0  0  0  0  0  0  0  0  0  0  0  0
  -20.6469  -37.5774   -9.1673 C   0  0  0  0  0  0  0  0  0  0  0  0
  -21.0282  -38.1102   -7.9650 C   0  0  0  0  0  0  0  0  0  0  0  0
  -22.4370  -40.5148   -6.5895 O   0  0  0  0  0  0  0  0  0  0  0  0
  -22.6081  -41.9646   -4.2397 C   0  0  0  0  0  0  0  0  0  0  0  0
  -22.6389  -42.7194   -3.1077 N   0  0  0  0  0  0  0  0  0  0  0  0
  -21.6402  -42.6741   -2.2183 C   0  0  0  0  0  0  0  0  0  0  0  0
  -20.5550  -41.1002   -3.5978 N   0  0  0  0  0  0  0  0  0  0  0  0
  -21.6965  -43.4569   -1.0683 O   0  0  0  0  0  0  0  0  0  0  0  0
  -20.8055  -43.2283   -0.0031 C   0  0  0  0  0  0  0  0  0  0  0  0
  -21.3694  -42.3400    0.8899 F   0  0  0  0  0  0  0  0  0  0  0  0
  -14.6692  -39.8668   -5.6239 H   0  0  0  0  0  0  0  0  0  0  0  0
  1  2  1  6
  2  5  1  0
  2  8  1  0
  2 15  1  1
  8  3  1  0
  3  9  2  0
  3 24  1  0
  5  4  1  1
  4 24  1  6
  6  5  1  1
 14  5  1  1
  7  6  1  1
 23  7  1  1
 23 10  2  0
 11 14  1  1
 11 23  1  0
 23 12  2  0
 13 17  1  0
 18 13  1  0
 16 15  2  0
 15 22  1  0
 17 16  1  0
 17 26  2  0
 19 18  1  0
 18 27  2  0
 19 28  1  0
 31 19  2  0
 20 30  2  0
 20 31  1  0
 22 21  1  0
 22 25  2  0
 25 26  1  0
 28 29  2  0
 29 30  1  0
 30 32  1  0
 32 33  1  0
 33 34  1  6
  9 35  1  0
M  END
$$$$
