
     RDKit          3D

 35 38  0  0  0  0  0  0  0  0999 V2000
  -16.6877  -38.0800  -10.4952 C   0  0  0  0  0  0  0  0  0  0  0  0
  -16.7169  -38.9749   -9.3087 C   0  0  1  0  0  0  0  0  0  0  0  0
  -15.1922  -39.0510   -7.2272 C   0  0  0  0  0  0  0  0  0  0  0  0
  -16.9871  -41.0431   -8.1528 C   0  0  0  0  0  0  0  0  0  0  0  0
  -16.4573  -40.4090   -9.4500 C   0  0  2  0  0  0  0  0  0  0  0  0
  -14.9843  -40.8072   -9.4237 C   0  0  0  0  0  0  0  0  0  0  0  0
  -14.1432  -40.2205  -10.4903 C   0  0  0  0  0  0  0  0  0  0  0  0
  -15.6682  -38.4540   -8.4049 N   0  0  0  0  0  0  0  0  0  0  0  0
  -14.2951  -38.5232   -6.4890 N   0  0  0  0  0  0  0  0  0  0  0  0
  -14.6796  -39.4220  -13.0253 O   0  0  0  0  0  0  0  0  0  0  0  0
  -16.5702  -40.9781  -11.9169 C   0  0  0  0  0  0  0  0  0  0  0  0
  -14.0779  -41.7172  -12.6773 O   0  0  0  0  0  0  0  0  0  0  0  0
  -20.1947  -40.1222   -5.9835 N   0  0  0  0  0  0  0  0  0  0  0  0
  -17.0348  -41.2425  -10.5265 C   0  0  0  0  0  0  0  0  0  0  0  0
  -18.0620  -38.7053   -8.6606 C   0  0  0  0  0  0  0  0  0  0  0  0
  -18.4700  -39.5280   -7.6059 C   0  0  0  0  0  0  0  0  0  0  0  0
  -19.7020  -39.3367   -7.0491 C   0  0  0  0  0  0  0  0  0  0  0  0
  -21.5215  -40.4666   -5.6898 C   0  0  0  0  0  0  0  0  0  0  0  0
  -21.8503  -41.2346   -4.4616 C   0  0  0  0  0  0  0  0  0  0  0  0
  -23.2558  -42.6119   -3.1786 C   0  0  0  0  0  0  0  0  0  0  0  0
  -18.4526  -36.8380  -10.1271 F   0  0  0  0  0  0  0  0  0  0  0  0
  -18.8604  -37.7038   -9.1550 C   0  0  0  0  0  0  0  0  0  0  0  0
  -14.8607  -40.5740  -12.0404 S   0  0  2  0  0  6  0  0  0  0  0  0
  -15.8947  -40.6264   -6.7638 S   0  0  0  0  0  0  0  0  0  0  0  0
  -20.1130  -37.5256   -8.5746 C   0  0  0  0  0  0  0  0  0  0  0  0
  -20.5361  -38.3197   -7.5425 C   0  0  0  0  0  0  0  0  0  0  0  0
  -22.4306  -40.1227   -6.4701 O   0  0  0  0  0  0  0  0  0  0  0  0
  -20.9461  -41.2379   -3.4322 C   0  0  0  0  0  0  0  0  0  0  0  0
  -21.2123  -41.9294   -2.2908 N   0  0  0  0  0  0  0  0  0  0  0  0
  -22.3518  -42.6160   -2.1475 C   0  0  0  0  0  0  0  0  0  0  0  0
  -22.9802  -41.9199   -4.3105 N   0  0  0  0  0  0  0  0  0  0  0  0
  -22.5997  -43.3150   -0.9691 O   0  0  0  0  0  0  0  0  0  0  0  0
  -21.5588  -43.9924   -0.3069 C   0  0  0  0  0  0  0  0  0  0  0  0
  -20.6121  -43.0832    0.1193 F   0  0  0  0  0  0  0  0  0  0  0  0
  -13.5527  -39.0382   -5.9878 H   0  0  0  0  0  0  0  0  0  0  0  0
  1  2  1  6
  2  5  1  0
  2  8  1  0
  2 15  1  1
  8  3  1  0
  3  9  2  0
  3 24  1  0
  5  4  1  1
  4 24  1  6
  6  5  1  1
 14  5  1  1
  7  6  1  1
 23  7  1  1
 23 10  2  0
 11 14  1  1
 11 23  1  0
 23 12  2  0
 13 17  1  0
 18 13  1  0
 16 15  2  0
 15 22  1  0
 17 16  1  0
 17 26  2  0
 19 18  1  0
 18 27  2  0
 19 28  1  0
 31 19  2  0
 20 30  2  0
 20 31  1  0
 22 21  1  0
 22 25  2  0
 25 26  1  0
 28 29  2  0
 29 30  1  0
 30 32  1  0
 32 33  1  0
 33 34  1  6
  9 35  1  0
M  END
$$$$
