
     RDKit          3D

 35 38  0  0  0  0  0  0  0  0999 V2000
  -17.1550  -37.3069   -9.6256 C   0  0  0  0  0  0  0  0  0  0  0  0
  -17.2582  -38.6801   -9.0660 C   0  0  1  0  0  0  0  0  0  0  0  0
  -16.0345  -39.7764   -7.0751 C   0  0  0  0  0  0  0  0  0  0  0  0
  -17.4783  -41.0528   -9.1567 C   0  0  0  0  0  0  0  0  0  0  0  0
  -16.8406  -39.8403   -9.8557 C   0  0  2  0  0  0  0  0  0  0  0  0
  -15.3530  -40.1732   -9.7825 C   0  0  0  0  0  0  0  0  0  0  0  0
  -14.4356  -39.1134  -10.2562 C   0  0  0  0  0  0  0  0  0  0  0  0
  -16.4008  -38.6725   -7.8607 N   0  0  0  0  0  0  0  0  0  0  0  0
  -15.3045  -39.6814   -6.0329 N   0  0  0  0  0  0  0  0  0  0  0  0
  -14.6946  -37.1488  -12.1069 O   0  0  0  0  0  0  0  0  0  0  0  0
  -16.5559  -39.0820  -12.2570 C   0  0  0  0  0  0  0  0  0  0  0  0
  -13.9217  -39.2937  -12.8506 O   0  0  0  0  0  0  0  0  0  0  0  0
  -20.7399  -40.9190   -6.3579 N   0  0  0  0  0  0  0  0  0  0  0  0
  -17.1788  -40.0222  -11.2838 C   0  0  0  0  0  0  0  0  0  0  0  0
  -18.6998  -38.7978   -8.6077 C   0  0  0  0  0  0  0  0  0  0  0  0
  -19.0230  -39.7867   -7.6732 C   0  0  0  0  0  0  0  0  0  0  0  0
  -20.3248  -39.9450   -7.2930 C   0  0  0  0  0  0  0  0  0  0  0  0
  -21.5718  -40.7619   -5.2406 C   0  0  0  0  0  0  0  0  0  0  0  0
  -21.3192  -41.5301   -3.9946 C   0  0  0  0  0  0  0  0  0  0  0  0
  -19.9251  -42.3020   -2.2684 C   0  0  0  0  0  0  0  0  0  0  0  0
  -19.3496  -36.9504  -10.0059 F   0  0  0  0  0  0  0  0  0  0  0  0
  -19.6512  -37.9734   -9.1554 C   0  0  0  0  0  0  0  0  0  0  0  0
  -14.8943  -38.6438  -11.8723 S   0  0  2  0  0  6  0  0  0  0  0  0
  -16.6343  -41.3804   -7.5830 S   0  0  0  0  0  0  0  0  0  0  0  0
  -20.9727  -38.1514   -8.7556 C   0  0  0  0  0  0  0  0  0  0  0  0
  -21.3146  -39.1142   -7.8440 C   0  0  0  0  0  0  0  0  0  0  0  0
  -22.5315  -39.9686   -5.2982 O   0  0  0  0  0  0  0  0  0  0  0  0
  -22.3633  -42.2090   -3.4234 C   0  0  0  0  0  0  0  0  0  0  0  0
  -22.1706  -42.9246   -2.2820 N   0  0  0  0  0  0  0  0  0  0  0  0
  -20.9692  -42.9819   -1.6958 C   0  0  0  0  0  0  0  0  0  0  0  0
  -20.1286  -41.5927   -3.4050 N   0  0  0  0  0  0  0  0  0  0  0  0
  -20.7990  -43.7216   -0.5285 O   0  0  0  0  0  0  0  0  0  0  0  0
  -21.7978  -43.7332    0.4630 C   0  0  0  0  0  0  0  0  0  0  0  0
  -21.5954  -42.6842    1.3366 F   0  0  0  0  0  0  0  0  0  0  0  0
  -15.0633  -40.4597   -5.3976 H   0  0  0  0  0  0  0  0  0  0  0  0
  1  2  1  6
  2  5  1  0
  2  8  1  0
  2 15  1  1
  8  3  1  0
  3  9  2  0
  3 24  1  0
  5  4  1  1
  4 24  1  6
  6  5  1  1
 14  5  1  1
  7  6  1  1
 23  7  1  1
 23 10  2  0
 11 14  1  1
 11 23  1  0
 23 12  2  0
 13 17  1  0
 18 13  1  0
 16 15  2  0
 15 22  1  0
 17 16  1  0
 17 26  2  0
 19 18  1  0
 18 27  2  0
 19 28  1  0
 31 19  2  0
 20 30  2  0
 20 31  1  0
 22 21  1  0
 22 25  2  0
 25 26  1  0
 28 29  2  0
 29 30  1  0
 30 32  1  0
 32 33  1  0
 33 34  1  6
  9 35  1  0
M  END
$$$$
