
     RDKit          3D

 35 38  0  0  0  0  0  0  0  0999 V2000
  -16.4453  -37.2932   -9.8998 C   0  0  0  0  0  0  0  0  0  0  0  0
  -16.7434  -38.6145   -9.2877 C   0  0  1  0  0  0  0  0  0  0  0  0
  -15.7651  -39.7482   -7.1851 C   0  0  0  0  0  0  0  0  0  0  0  0
  -17.2462  -40.9456   -9.2873 C   0  0  0  0  0  0  0  0  0  0  0  0
  -16.4308  -39.8543  -10.0013 C   0  0  2  0  0  0  0  0  0  0  0  0
  -15.0005  -40.3584   -9.8299 C   0  0  0  0  0  0  0  0  0  0  0  0
  -13.9379  -39.4407  -10.2967 C   0  0  0  0  0  0  0  0  0  0  0  0
  -15.9537  -38.6492   -8.0374 N   0  0  0  0  0  0  0  0  0  0  0  0
  -15.0827  -39.6890   -6.1085 N   0  0  0  0  0  0  0  0  0  0  0  0
  -13.8612  -37.5542  -12.2428 O   0  0  0  0  0  0  0  0  0  0  0  0
  -15.9342  -39.2565  -12.4134 C   0  0  0  0  0  0  0  0  0  0  0  0
  -13.3188  -39.8105  -12.8477 O   0  0  0  0  0  0  0  0  0  0  0  0
  -20.3801  -39.3392   -6.0139 N   0  0  0  0  0  0  0  0  0  0  0  0
  -16.7157  -40.0657  -11.4370 C   0  0  0  0  0  0  0  0  0  0  0  0
  -18.2099  -38.5363   -8.9068 C   0  0  0  0  0  0  0  0  0  0  0  0
  -18.5880  -38.9474   -7.6247 C   0  0  0  0  0  0  0  0  0  0  0  0
  -19.9103  -38.9385   -7.2843 C   0  0  0  0  0  0  0  0  0  0  0  0
  -21.3555  -40.2968   -5.7029 C   0  0  0  0  0  0  0  0  0  0  0  0
  -21.3356  -41.0008   -4.3951 C   0  0  0  0  0  0  0  0  0  0  0  0
  -20.3650  -41.5113   -2.3176 C   0  0  0  0  0  0  0  0  0  0  0  0
  -18.7760  -37.6361  -11.0653 F   0  0  0  0  0  0  0  0  0  0  0  0
  -19.1274  -38.1176   -9.8383 C   0  0  0  0  0  0  0  0  0  0  0  0
  -14.2533  -39.0011  -11.9550 S   0  0  2  0  0  6  0  0  0  0  0  0
  -16.5294  -41.2924   -7.6558 S   0  0  0  0  0  0  0  0  0  0  0  0
  -20.4705  -38.1168   -9.4723 C   0  0  0  0  0  0  0  0  0  0  0  0
  -20.8658  -38.5170   -8.2240 C   0  0  0  0  0  0  0  0  0  0  0  0
  -22.2461  -40.5566   -6.5354 O   0  0  0  0  0  0  0  0  0  0  0  0
  -22.3737  -41.8415   -4.0905 C   0  0  0  0  0  0  0  0  0  0  0  0
  -22.3903  -42.5045   -2.9022 N   0  0  0  0  0  0  0  0  0  0  0  0
  -21.4033  -42.3531   -2.0115 C   0  0  0  0  0  0  0  0  0  0  0  0
  -20.3590  -40.8562   -3.5038 N   0  0  0  0  0  0  0  0  0  0  0  0
  -21.4444  -43.0435   -0.8031 O   0  0  0  0  0  0  0  0  0  0  0  0
  -20.6650  -44.1998   -0.6130 C   0  0  0  0  0  0  0  0  0  0  0  0
  -19.5591  -43.8922    0.1530 F   0  0  0  0  0  0  0  0  0  0  0  0
  -14.9669  -40.4594   -5.4298 H   0  0  0  0  0  0  0  0  0  0  0  0
  1  2  1  6
  2  5  1  0
  2  8  1  0
  2 15  1  1
  8  3  1  0
  3  9  2  0
  3 24  1  0
  5  4  1  1
  4 24  1  6
  6  5  1  1
 14  5  1  1
  7  6  1  1
 23  7  1  1
 23 10  2  0
 11 14  1  1
 11 23  1  0
 23 12  2  0
 13 17  1  0
 18 13  1  0
 16 15  2  0
 15 22  1  0
 17 16  1  0
 17 26  2  0
 19 18  1  0
 18 27  2  0
 19 28  1  0
 31 19  2  0
 20 30  2  0
 20 31  1  0
 22 21  1  0
 22 25  2  0
 25 26  1  0
 28 29  2  0
 29 30  1  0
 30 32  1  0
 32 33  1  0
 33 34  1  6
  9 35  1  0
M  END
$$$$
