
     RDKit          3D

 35 38  0  0  0  0  0  0  0  0999 V2000
  -16.6732  -36.9763   -9.8776 C   0  0  0  0  0  0  0  0  0  0  0  0
  -16.7652  -38.3647   -9.3548 C   0  0  1  0  0  0  0  0  0  0  0  0
  -15.4396  -39.5419   -7.4786 C   0  0  0  0  0  0  0  0  0  0  0  0
  -17.0313  -40.7297   -9.5040 C   0  0  0  0  0  0  0  0  0  0  0  0
  -16.4173  -39.5057  -10.2041 C   0  0  2  0  0  0  0  0  0  0  0  0
  -14.9340  -39.8635  -10.2341 C   0  0  0  0  0  0  0  0  0  0  0  0
  -14.0296  -38.8034  -10.7316 C   0  0  0  0  0  0  0  0  0  0  0  0
  -15.8348  -38.4083   -8.2057 N   0  0  0  0  0  0  0  0  0  0  0  0
  -14.6448  -39.4909   -6.4816 N   0  0  0  0  0  0  0  0  0  0  0  0
  -14.3688  -36.7777  -12.5016 O   0  0  0  0  0  0  0  0  0  0  0  0
  -16.2688  -38.6765  -12.5942 C   0  0  0  0  0  0  0  0  0  0  0  0
  -13.6805  -38.9096  -13.3573 O   0  0  0  0  0  0  0  0  0  0  0  0
  -19.9532  -40.0781   -5.9830 N   0  0  0  0  0  0  0  0  0  0  0  0
  -16.8464  -39.6372  -11.6132 C   0  0  0  0  0  0  0  0  0  0  0  0
  -18.1774  -38.4748   -8.8112 C   0  0  0  0  0  0  0  0  0  0  0  0
  -18.3832  -39.2007   -7.6338 C   0  0  0  0  0  0  0  0  0  0  0  0
  -19.6546  -39.3590   -7.1616 C   0  0  0  0  0  0  0  0  0  0  0  0
  -21.2082  -40.4171   -5.4582 C   0  0  0  0  0  0  0  0  0  0  0  0
  -21.3165  -41.1983   -4.1995 C   0  0  0  0  0  0  0  0  0  0  0  0
  -22.3352  -42.8117   -2.8291 C   0  0  0  0  0  0  0  0  0  0  0  0
  -19.0318  -37.1297  -10.6142 F   0  0  0  0  0  0  0  0  0  0  0  0
  -19.2151  -37.9090   -9.5098 C   0  0  0  0  0  0  0  0  0  0  0  0
  -14.5793  -38.2761  -12.3008 S   0  0  2  0  0  6  0  0  0  0  0  0
  -16.0972  -41.1196   -7.9968 S   0  0  0  0  0  0  0  0  0  0  0  0
  -20.5037  -38.0827   -9.0125 C   0  0  0  0  0  0  0  0  0  0  0  0
  -20.7311  -38.7912   -7.8632 C   0  0  0  0  0  0  0  0  0  0  0  0
  -22.2402  -40.0571   -6.0574 O   0  0  0  0  0  0  0  0  0  0  0  0
  -20.4019  -40.9658   -3.2062 C   0  0  0  0  0  0  0  0  0  0  0  0
  -20.4693  -41.6614   -2.0384 N   0  0  0  0  0  0  0  0  0  0  0  0
  -21.4206  -42.5799   -1.8341 C   0  0  0  0  0  0  0  0  0  0  0  0
  -22.2585  -42.1132   -3.9877 N   0  0  0  0  0  0  0  0  0  0  0  0
  -21.4672  -43.2774   -0.6300 O   0  0  0  0  0  0  0  0  0  0  0  0
  -20.4149  -43.1725    0.2987 C   0  0  0  0  0  0  0  0  0  0  0  0
  -20.5695  -42.0226    1.0458 F   0  0  0  0  0  0  0  0  0  0  0  0
  -14.7667  -40.0019   -5.5919 H   0  0  0  0  0  0  0  0  0  0  0  0
  1  2  1  6
  2  5  1  0
  2  8  1  0
  2 15  1  1
  8  3  1  0
  3  9  2  0
  3 24  1  0
  5  4  1  1
  4 24  1  6
  6  5  1  1
 14  5  1  1
  7  6  1  1
 23  7  1  1
 23 10  2  0
 11 14  1  1
 11 23  1  0
 23 12  2  0
 13 17  1  0
 18 13  1  0
 16 15  2  0
 15 22  1  0
 17 16  1  0
 17 26  2  0
 19 18  1  0
 18 27  2  0
 19 28  1  0
 31 19  2  0
 20 30  2  0
 20 31  1  0
 22 21  1  0
 22 25  2  0
 25 26  1  0
 28 29  2  0
 29 30  1  0
 30 32  1  0
 32 33  1  0
 33 34  1  6
  9 35  1  0
M  END
$$$$
