
     RDKit          3D

 35 38  0  0  0  0  0  0  0  0999 V2000
  -17.2201  -38.6959  -10.8359 C   0  0  0  0  0  0  0  0  0  0  0  0
  -16.9739  -39.3093   -9.5044 C   0  0  1  0  0  0  0  0  0  0  0  0
  -15.0497  -38.9497   -7.8218 C   0  0  0  0  0  0  0  0  0  0  0  0
  -16.9317  -41.0709   -7.8977 C   0  0  0  0  0  0  0  0  0  0  0  0
  -16.7028  -40.7431   -9.3828 C   0  0  2  0  0  0  0  0  0  0  0  0
  -15.2440  -41.1462   -9.5795 C   0  0  0  0  0  0  0  0  0  0  0  0
  -14.6615  -40.8185  -10.8995 C   0  0  0  0  0  0  0  0  0  0  0  0
  -15.7784  -38.6180   -8.9746 N   0  0  0  0  0  0  0  0  0  0  0  0
  -14.0369  -38.2857   -7.4198 N   0  0  0  0  0  0  0  0  0  0  0  0
  -15.7367  -40.5862  -13.3777 O   0  0  0  0  0  0  0  0  0  0  0  0
  -17.3053  -41.8360  -11.5884 C   0  0  0  0  0  0  0  0  0  0  0  0
  -15.0017  -42.7579  -12.6745 O   0  0  0  0  0  0  0  0  0  0  0  0
  -21.2482  -40.3788   -7.2559 N   0  0  0  0  0  0  0  0  0  0  0  0
  -17.4631  -41.7837  -10.1081 C   0  0  0  0  0  0  0  0  0  0  0  0
  -18.1638  -38.8861   -8.6636 C   0  0  0  0  0  0  0  0  0  0  0  0
  -19.1232  -39.8488   -8.3347 C   0  0  0  0  0  0  0  0  0  0  0  0
  -20.2297  -39.4736   -7.6280 C   0  0  0  0  0  0  0  0  0  0  0  0
  -21.4401  -41.0240   -6.0263 C   0  0  0  0  0  0  0  0  0  0  0  0
  -22.6498  -41.8520   -5.7863 C   0  0  0  0  0  0  0  0  0  0  0  0
  -23.9097  -43.3863   -4.5305 C   0  0  0  0  0  0  0  0  0  0  0  0
  -17.3351  -36.6308   -8.5328 F   0  0  0  0  0  0  0  0  0  0  0  0
  -18.2949  -37.5703   -8.2942 C   0  0  0  0  0  0  0  0  0  0  0  0
  -15.6724  -41.4924  -12.1511 S   0  0  2  0  0  6  0  0  0  0  0  0
  -15.5895  -40.3758   -6.8918 S   0  0  0  0  0  0  0  0  0  0  0  0
  -19.4304  -37.2076   -7.5752 C   0  0  0  0  0  0  0  0  0  0  0  0
  -20.3850  -38.1314   -7.2433 C   0  0  0  0  0  0  0  0  0  0  0  0
  -20.5844  -40.8986   -5.1287 O   0  0  0  0  0  0  0  0  0  0  0  0
  -23.6667  -41.8028   -6.7032 C   0  0  0  0  0  0  0  0  0  0  0  0
  -24.7905  -42.5477   -6.5182 N   0  0  0  0  0  0  0  0  0  0  0  0
  -24.9282  -43.3381   -5.4473 C   0  0  0  0  0  0  0  0  0  0  0  0
  -22.7953  -42.6403   -4.7249 N   0  0  0  0  0  0  0  0  0  0  0  0
  -26.0883  -44.0901   -5.2821 O   0  0  0  0  0  0  0  0  0  0  0  0
  -27.3515  -43.5196   -5.5263 C   0  0  0  0  0  0  0  0  0  0  0  0
  -27.8762  -43.0338   -4.3460 F   0  0  0  0  0  0  0  0  0  0  0  0
  -13.6441  -38.3125   -6.4645 H   0  0  0  0  0  0  0  0  0  0  0  0
  1  2  1  6
  2  5  1  0
  2  8  1  0
  2 15  1  1
  8  3  1  0
  3  9  2  0
  3 24  1  0
  5  4  1  1
  4 24  1  6
  6  5  1  1
 14  5  1  1
  7  6  1  1
 23  7  1  1
 23 10  2  0
 11 14  1  1
 11 23  1  0
 23 12  2  0
 13 17  1  0
 18 13  1  0
 16 15  2  0
 15 22  1  0
 17 16  1  0
 17 26  2  0
 19 18  1  0
 18 27  2  0
 19 28  1  0
 31 19  2  0
 20 30  2  0
 20 31  1  0
 22 21  1  0
 22 25  2  0
 25 26  1  0
 28 29  2  0
 29 30  1  0
 30 32  1  0
 32 33  1  0
 33 34  1  6
  9 35  1  0
M  END
$$$$
