
     RDKit          3D

 35 38  0  0  0  0  0  0  0  0999 V2000
  -16.8670  -37.1375   -9.3841 C   0  0  0  0  0  0  0  0  0  0  0  0
  -17.0653  -38.5551   -8.9834 C   0  0  1  0  0  0  0  0  0  0  0  0
  -15.9094  -39.9575   -7.1504 C   0  0  0  0  0  0  0  0  0  0  0  0
  -17.4575  -40.8799   -9.3410 C   0  0  0  0  0  0  0  0  0  0  0  0
  -16.7389  -39.6435   -9.9069 C   0  0  2  0  0  0  0  0  0  0  0  0
  -15.2788  -40.0876   -9.8957 C   0  0  0  0  0  0  0  0  0  0  0  0
  -14.2906  -39.0483  -10.2597 C   0  0  0  0  0  0  0  0  0  0  0  0
  -16.2006  -38.7473   -7.7988 N   0  0  0  0  0  0  0  0  0  0  0  0
  -15.1665  -40.0352   -6.1157 N   0  0  0  0  0  0  0  0  0  0  0  0
  -14.4203  -36.8705  -11.8696 O   0  0  0  0  0  0  0  0  0  0  0  0
  -16.4179  -38.6362  -12.2101 C   0  0  0  0  0  0  0  0  0  0  0  0
  -13.8106  -38.9650  -12.8655 O   0  0  0  0  0  0  0  0  0  0  0  0
  -20.4294  -39.7544   -5.5610 N   0  0  0  0  0  0  0  0  0  0  0  0
  -17.1001  -39.6354  -11.3410 C   0  0  0  0  0  0  0  0  0  0  0  0
  -18.5081  -38.6219   -8.5189 C   0  0  0  0  0  0  0  0  0  0  0  0
  -18.7743  -39.1290   -7.2431 C   0  0  0  0  0  0  0  0  0  0  0  0
  -20.0704  -39.2505   -6.8308 C   0  0  0  0  0  0  0  0  0  0  0  0
  -21.2487  -40.8495   -5.2530 C   0  0  0  0  0  0  0  0  0  0  0  0
  -21.0547  -41.6091   -3.9913 C   0  0  0  0  0  0  0  0  0  0  0  0
  -19.8559  -42.1415   -2.0425 C   0  0  0  0  0  0  0  0  0  0  0  0
  -19.2734  -37.6639  -10.5892 F   0  0  0  0  0  0  0  0  0  0  0  0
  -19.5106  -38.2358   -9.3738 C   0  0  0  0  0  0  0  0  0  0  0  0
  -14.7261  -38.3645  -11.8041 S   0  0  2  0  0  6  0  0  0  0  0  0
  -16.6276  -41.4456   -7.8285 S   0  0  0  0  0  0  0  0  0  0  0  0
  -20.8251  -38.3684   -8.9352 C   0  0  0  0  0  0  0  0  0  0  0  0
  -21.1114  -38.8644   -7.6915 C   0  0  0  0  0  0  0  0  0  0  0  0
  -22.1473  -41.1851   -6.0490 O   0  0  0  0  0  0  0  0  0  0  0  0
  -21.9986  -42.5366   -3.6362 C   0  0  0  0  0  0  0  0  0  0  0  0
  -21.8551  -43.2526   -2.4879 N   0  0  0  0  0  0  0  0  0  0  0  0
  -20.7997  -43.0701   -1.6859 C   0  0  0  0  0  0  0  0  0  0  0  0
  -20.0090  -41.4342   -3.1882 N   0  0  0  0  0  0  0  0  0  0  0  0
  -20.6768  -43.8161   -0.5167 O   0  0  0  0  0  0  0  0  0  0  0  0
  -21.8045  -44.0873    0.2805 C   0  0  0  0  0  0  0  0  0  0  0  0
  -22.1795  -42.9442    0.9566 F   0  0  0  0  0  0  0  0  0  0  0  0
  -15.2924  -40.7023   -5.3368 H   0  0  0  0  0  0  0  0  0  0  0  0
  1  2  1  6
  2  5  1  0
  2  8  1  0
  2 15  1  1
  8  3  1  0
  3  9  2  0
  3 24  1  0
  5  4  1  1
  4 24  1  6
  6  5  1  1
 14  5  1  1
  7  6  1  1
 23  7  1  1
 23 10  2  0
 11 14  1  1
 11 23  1  0
 23 12  2  0
 13 17  1  0
 18 13  1  0
 16 15  2  0
 15 22  1  0
 17 16  1  0
 17 26  2  0
 19 18  1  0
 18 27  2  0
 19 28  1  0
 31 19  2  0
 20 30  2  0
 20 31  1  0
 22 21  1  0
 22 25  2  0
 25 26  1  0
 28 29  2  0
 29 30  1  0
 30 32  1  0
 32 33  1  0
 33 34  1  6
  9 35  1  0
M  END
$$$$
