
     RDKit          3D

 35 38  0  0  0  0  0  0  0  0999 V2000
  -16.6987  -37.0451   -9.8028 C   0  0  0  0  0  0  0  0  0  0  0  0
  -16.9021  -38.4024   -9.2320 C   0  0  1  0  0  0  0  0  0  0  0  0
  -15.7529  -39.5736   -7.2393 C   0  0  0  0  0  0  0  0  0  0  0  0
  -17.3015  -40.7523   -9.3031 C   0  0  0  0  0  0  0  0  0  0  0  0
  -16.5782  -39.5967  -10.0149 C   0  0  2  0  0  0  0  0  0  0  0  0
  -15.1196  -40.0407   -9.9472 C   0  0  0  0  0  0  0  0  0  0  0  0
  -14.1275  -39.0568  -10.4341 C   0  0  0  0  0  0  0  0  0  0  0  0
  -16.0394  -38.4510   -8.0315 N   0  0  0  0  0  0  0  0  0  0  0  0
  -15.0115  -39.5264   -6.2018 N   0  0  0  0  0  0  0  0  0  0  0  0
  -14.2482  -37.0919  -12.2985 O   0  0  0  0  0  0  0  0  0  0  0  0
  -16.2513  -38.8797  -12.4235 C   0  0  0  0  0  0  0  0  0  0  0  0
  -13.6442  -39.2944  -13.0297 O   0  0  0  0  0  0  0  0  0  0  0  0
  -20.2822  -39.2429   -5.7195 N   0  0  0  0  0  0  0  0  0  0  0  0
  -16.9377  -39.7629  -11.4397 C   0  0  0  0  0  0  0  0  0  0  0  0
  -18.3456  -38.4074   -8.7650 C   0  0  0  0  0  0  0  0  0  0  0  0
  -18.6187  -38.7940   -7.4491 C   0  0  0  0  0  0  0  0  0  0  0  0
  -19.9163  -38.8601   -7.0291 C   0  0  0  0  0  0  0  0  0  0  0  0
  -21.2527  -40.1710   -5.3173 C   0  0  0  0  0  0  0  0  0  0  0  0
  -21.2197  -40.7580   -3.9532 C   0  0  0  0  0  0  0  0  0  0  0  0
  -20.7434  -40.6638   -1.6547 C   0  0  0  0  0  0  0  0  0  0  0  0
  -19.0978  -37.6289  -10.9140 F   0  0  0  0  0  0  0  0  0  0  0  0
  -19.3428  -38.0860   -9.6524 C   0  0  0  0  0  0  0  0  0  0  0  0
  -14.5590  -38.5657  -12.0512 S   0  0  2  0  0  6  0  0  0  0  0  0
  -16.4753  -41.1312   -7.7315 S   0  0  0  0  0  0  0  0  0  0  0  0
  -20.6589  -38.1606   -9.2051 C   0  0  0  0  0  0  0  0  0  0  0  0
  -20.9519  -38.5388   -7.9222 C   0  0  0  0  0  0  0  0  0  0  0  0
  -22.1501  -40.5037   -6.1159 O   0  0  0  0  0  0  0  0  0  0  0  0
  -21.6817  -42.0364   -3.7814 C   0  0  0  0  0  0  0  0  0  0  0  0
  -21.6668  -42.6084   -2.5467 N   0  0  0  0  0  0  0  0  0  0  0  0
  -21.2054  -41.9431   -1.4814 C   0  0  0  0  0  0  0  0  0  0  0  0
  -20.7630  -40.1042   -2.8887 N   0  0  0  0  0  0  0  0  0  0  0  0
  -21.2010  -42.5518   -0.2291 O   0  0  0  0  0  0  0  0  0  0  0  0
  -21.9035  -43.7524   -0.0149 C   0  0  0  0  0  0  0  0  0  0  0  0
  -21.0104  -44.7995    0.0873 F   0  0  0  0  0  0  0  0  0  0  0  0
  -14.8482  -40.3083   -5.5464 H   0  0  0  0  0  0  0  0  0  0  0  0
  1  2  1  6
  2  5  1  0
  2  8  1  0
  2 15  1  1
  8  3  1  0
  3  9  2  0
  3 24  1  0
  5  4  1  1
  4 24  1  6
  6  5  1  1
 14  5  1  1
  7  6  1  1
 23  7  1  1
 23 10  2  0
 11 14  1  1
 11 23  1  0
 23 12  2  0
 13 17  1  0
 18 13  1  0
 16 15  2  0
 15 22  1  0
 17 16  1  0
 17 26  2  0
 19 18  1  0
 18 27  2  0
 19 28  1  0
 31 19  2  0
 20 30  2  0
 20 31  1  0
 22 21  1  0
 22 25  2  0
 25 26  1  0
 28 29  2  0
 29 30  1  0
 30 32  1  0
 32 33  1  0
 33 34  1  6
  9 35  1  0
M  END
$$$$
