
     RDKit          3D

 35 38  0  0  0  0  0  0  0  0999 V2000
  -16.9753  -38.2076  -10.4223 C   0  0  0  0  0  0  0  0  0  0  0  0
  -17.0010  -39.1964   -9.3128 C   0  0  1  0  0  0  0  0  0  0  0  0
  -15.4807  -39.4317   -7.2400 C   0  0  0  0  0  0  0  0  0  0  0  0
  -17.2594  -41.3538   -8.3301 C   0  0  0  0  0  0  0  0  0  0  0  0
  -16.7310  -40.6125   -9.5698 C   0  0  2  0  0  0  0  0  0  0  0  0
  -15.2553  -41.0015   -9.5717 C   0  0  0  0  0  0  0  0  0  0  0  0
  -14.4159  -40.3240  -10.5844 C   0  0  0  0  0  0  0  0  0  0  0  0
  -15.9581  -38.7439   -8.3665 N   0  0  0  0  0  0  0  0  0  0  0  0
  -14.5891  -38.9597   -6.4586 N   0  0  0  0  0  0  0  0  0  0  0  0
  -14.9518  -39.3251  -13.0475 O   0  0  0  0  0  0  0  0  0  0  0  0
  -16.8341  -40.9792  -12.0752 C   0  0  0  0  0  0  0  0  0  0  0  0
  -14.3349  -41.6369  -12.8860 O   0  0  0  0  0  0  0  0  0  0  0  0
  -20.7300  -40.8845   -6.5354 N   0  0  0  0  0  0  0  0  0  0  0  0
  -17.3001  -41.3593  -10.7123 C   0  0  0  0  0  0  0  0  0  0  0  0
  -18.3495  -38.9898   -8.6489 C   0  0  0  0  0  0  0  0  0  0  0  0
  -18.8799  -40.0307   -7.8801 C   0  0  0  0  0  0  0  0  0  0  0  0
  -20.1180  -39.8843   -7.3230 C   0  0  0  0  0  0  0  0  0  0  0  0
  -21.4778  -40.7373   -5.3589 C   0  0  0  0  0  0  0  0  0  0  0  0
  -21.1312  -41.5115   -4.1395 C   0  0  0  0  0  0  0  0  0  0  0  0
  -19.6244  -42.2371   -2.4897 C   0  0  0  0  0  0  0  0  0  0  0  0
  -18.5031  -36.7588   -9.5371 F   0  0  0  0  0  0  0  0  0  0  0  0
  -19.0328  -37.8179   -8.8599 C   0  0  0  0  0  0  0  0  0  0  0  0
  -15.1272  -40.5548  -12.1603 S   0  0  2  0  0  6  0  0  0  0  0  0
  -16.1733  -41.0444   -6.9086 S   0  0  0  0  0  0  0  0  0  0  0  0
  -20.2937  -37.6886   -8.2843 C   0  0  0  0  0  0  0  0  0  0  0  0
  -20.8355  -38.6944   -7.5296 C   0  0  0  0  0  0  0  0  0  0  0  0
  -22.4422  -39.9478   -5.3410 O   0  0  0  0  0  0  0  0  0  0  0  0
  -22.1126  -42.2536   -3.5367 C   0  0  0  0  0  0  0  0  0  0  0  0
  -21.8330  -42.9767   -2.4182 N   0  0  0  0  0  0  0  0  0  0  0  0
  -20.6056  -42.9803   -1.8854 C   0  0  0  0  0  0  0  0  0  0  0  0
  -19.9142  -41.5210   -3.6030 N   0  0  0  0  0  0  0  0  0  0  0  0
  -20.3462  -43.7291   -0.7406 O   0  0  0  0  0  0  0  0  0  0  0  0
  -21.3925  -44.0975    0.1256 C   0  0  0  0  0  0  0  0  0  0  0  0
  -21.7527  -43.0157    0.9030 F   0  0  0  0  0  0  0  0  0  0  0  0
  -14.7694  -38.5156   -5.5433 H   0  0  0  0  0  0  0  0  0  0  0  0
  1  2  1  6
  2  5  1  0
  2  8  1  0
  2 15  1  1
  8  3  1  0
  3  9  2  0
  3 24  1  0
  5  4  1  1
  4 24  1  6
  6  5  1  1
 14  5  1  1
  7  6  1  1
 23  7  1  1
 23 10  2  0
 11 14  1  1
 11 23  1  0
 23 12  2  0
 13 17  1  0
 18 13  1  0
 16 15  2  0
 15 22  1  0
 17 16  1  0
 17 26  2  0
 19 18  1  0
 18 27  2  0
 19 28  1  0
 31 19  2  0
 20 30  2  0
 20 31  1  0
 22 21  1  0
 22 25  2  0
 25 26  1  0
 28 29  2  0
 29 30  1  0
 30 32  1  0
 32 33  1  0
 33 34  1  6
  9 35  1  0
M  END
$$$$
