
     RDKit          3D

 35 38  0  0  0  0  0  0  0  0999 V2000
  -16.6363  -37.1049   -9.5496 C   0  0  0  0  0  0  0  0  0  0  0  0
  -16.8073  -38.5074   -9.0878 C   0  0  1  0  0  0  0  0  0  0  0  0
  -15.6848  -39.7822   -7.1441 C   0  0  0  0  0  0  0  0  0  0  0  0
  -17.1133  -40.8582   -9.3460 C   0  0  0  0  0  0  0  0  0  0  0  0
  -16.4103  -39.6276   -9.9432 C   0  0  2  0  0  0  0  0  0  0  0  0
  -14.9390  -40.0229   -9.8529 C   0  0  0  0  0  0  0  0  0  0  0  0
  -13.9690  -38.9706  -10.2284 C   0  0  0  0  0  0  0  0  0  0  0  0
  -15.9862  -38.6145   -7.8622 N   0  0  0  0  0  0  0  0  0  0  0  0
  -14.9828  -39.7860   -6.0785 N   0  0  0  0  0  0  0  0  0  0  0  0
  -14.0995  -36.8776  -11.9471 O   0  0  0  0  0  0  0  0  0  0  0  0
  -16.0266  -38.7217  -12.2787 C   0  0  0  0  0  0  0  0  0  0  0  0
  -13.3858  -38.9965  -12.8143 O   0  0  0  0  0  0  0  0  0  0  0  0
  -20.2664  -39.5628   -5.7130 N   0  0  0  0  0  0  0  0  0  0  0  0
  -16.7128  -39.6998  -11.3890 C   0  0  0  0  0  0  0  0  0  0  0  0
  -18.2651  -38.5989   -8.6776 C   0  0  0  0  0  0  0  0  0  0  0  0
  -18.5661  -39.0082   -7.3747 C   0  0  0  0  0  0  0  0  0  0  0  0
  -19.8729  -39.1519   -7.0059 C   0  0  0  0  0  0  0  0  0  0  0  0
  -21.2758  -40.4654   -5.3503 C   0  0  0  0  0  0  0  0  0  0  0  0
  -21.2805  -41.0955   -4.0051 C   0  0  0  0  0  0  0  0  0  0  0  0
  -22.0569  -42.6697   -2.4437 C   0  0  0  0  0  0  0  0  0  0  0  0
  -18.9774  -37.8530  -10.8516 F   0  0  0  0  0  0  0  0  0  0  0  0
  -19.2441  -38.3307   -9.6021 C   0  0  0  0  0  0  0  0  0  0  0  0
  -14.3619  -38.3760  -11.8204 S   0  0  2  0  0  6  0  0  0  0  0  0
  -16.3289  -41.3236   -7.7761 S   0  0  0  0  0  0  0  0  0  0  0  0
  -20.5701  -38.4841   -9.2068 C   0  0  0  0  0  0  0  0  0  0  0  0
  -20.8901  -38.8861   -7.9377 C   0  0  0  0  0  0  0  0  0  0  0  0
  -22.1759  -40.7387   -6.1680 O   0  0  0  0  0  0  0  0  0  0  0  0
  -20.4281  -40.6045   -3.0514 C   0  0  0  0  0  0  0  0  0  0  0  0
  -20.4042  -41.1553   -1.8072 N   0  0  0  0  0  0  0  0  0  0  0  0
  -21.2044  -42.1792   -1.4883 C   0  0  0  0  0  0  0  0  0  0  0  0
  -22.0721  -42.1135   -3.6793 N   0  0  0  0  0  0  0  0  0  0  0  0
  -21.1602  -42.7242   -0.2078 O   0  0  0  0  0  0  0  0  0  0  0  0
  -21.4310  -44.0899   -0.0019 C   0  0  0  0  0  0  0  0  0  0  0  0
  -20.2677  -44.8189   -0.1418 F   0  0  0  0  0  0  0  0  0  0  0  0
  -14.8538  -40.5953   -5.4493 H   0  0  0  0  0  0  0  0  0  0  0  0
  1  2  1  6
  2  5  1  0
  2  8  1  0
  2 15  1  1
  8  3  1  0
  3  9  2  0
  3 24  1  0
  5  4  1  1
  4 24  1  6
  6  5  1  1
 14  5  1  1
  7  6  1  1
 23  7  1  1
 23 10  2  0
 11 14  1  1
 11 23  1  0
 23 12  2  0
 13 17  1  0
 18 13  1  0
 16 15  2  0
 15 22  1  0
 17 16  1  0
 17 26  2  0
 19 18  1  0
 18 27  2  0
 19 28  1  0
 31 19  2  0
 20 30  2  0
 20 31  1  0
 22 21  1  0
 22 25  2  0
 25 26  1  0
 28 29  2  0
 29 30  1  0
 30 32  1  0
 32 33  1  0
 33 34  1  6
  9 35  1  0
M  END
$$$$
