
     RDKit          3D

 35 38  0  0  0  0  0  0  0  0999 V2000
  -16.4015  -41.2117  -12.0490 C   0  0  0  0  0  0  0  0  0  0  0  0
  -16.6905  -41.1395  -10.5927 C   0  0  1  0  0  0  0  0  0  0  0  0
  -15.2167  -40.3463   -8.6275 C   0  0  0  0  0  0  0  0  0  0  0  0
  -17.5958  -41.8873   -8.5172 C   0  0  0  0  0  0  0  0  0  0  0  0
  -16.9242  -42.3597   -9.8176 C   0  0  2  0  0  0  0  0  0  0  0  0
  -15.6657  -43.0485   -9.2972 C   0  0  0  0  0  0  0  0  0  0  0  0
  -14.7094  -43.5014  -10.3314 C   0  0  0  0  0  0  0  0  0  0  0  0
  -15.5026  -40.4928   -9.9937 N   0  0  0  0  0  0  0  0  0  0  0  0
  -14.1744  -39.7536   -8.1909 N   0  0  0  0  0  0  0  0  0  0  0  0
  -15.0252  -44.3130  -12.8991 O   0  0  0  0  0  0  0  0  0  0  0  0
  -17.2909  -44.2595  -11.4542 C   0  0  0  0  0  0  0  0  0  0  0  0
  -15.2067  -45.9660  -11.1713 O   0  0  0  0  0  0  0  0  0  0  0  0
  -18.9850  -37.4293   -8.2607 N   0  0  0  0  0  0  0  0  0  0  0  0
  -17.7760  -43.4747  -10.2847 C   0  0  0  0  0  0  0  0  0  0  0  0
  -17.8511  -40.1687  -10.4817 C   0  0  0  0  0  0  0  0  0  0  0  0
  -17.8443  -39.2388   -9.4373 C   0  0  0  0  0  0  0  0  0  0  0  0
  -18.9081  -38.3960   -9.2878 C   0  0  0  0  0  0  0  0  0  0  0  0
  -19.9757  -37.2680   -7.2821 C   0  0  0  0  0  0  0  0  0  0  0  0
  -19.6707  -36.5787   -6.0022 C   0  0  0  0  0  0  0  0  0  0  0  0
  -19.9879  -36.2167   -3.7028 C   0  0  0  0  0  0  0  0  0  0  0  0
  -18.8874  -41.1029  -12.4422 F   0  0  0  0  0  0  0  0  0  0  0  0
  -18.8946  -40.2606  -11.3692 C   0  0  0  0  0  0  0  0  0  0  0  0
  -15.5483  -44.5121  -11.4791 S   0  0  2  0  0  6  0  0  0  0  0  0
  -16.3870  -41.0329   -7.4659 S   0  0  0  0  0  0  0  0  0  0  0  0
  -19.9701  -39.3933  -11.1992 C   0  0  0  0  0  0  0  0  0  0  0  0
  -19.9878  -38.4759  -10.1830 C   0  0  0  0  0  0  0  0  0  0  0  0
  -21.1223  -37.7092   -7.4929 O   0  0  0  0  0  0  0  0  0  0  0  0
  -18.7094  -35.6024   -5.9996 C   0  0  0  0  0  0  0  0  0  0  0  0
  -18.4028  -34.9480   -4.8465 N   0  0  0  0  0  0  0  0  0  0  0  0
  -19.0262  -35.2393   -3.6989 C   0  0  0  0  0  0  0  0  0  0  0  0
  -20.2850  -36.8617   -4.8569 N   0  0  0  0  0  0  0  0  0  0  0  0
  -18.6937  -34.5545   -2.5331 O   0  0  0  0  0  0  0  0  0  0  0  0
  -18.7992  -33.1524   -2.4723 C   0  0  0  0  0  0  0  0  0  0  0  0
  -20.0949  -32.7987   -2.1551 F   0  0  0  0  0  0  0  0  0  0  0  0
  -14.0954  -39.2753   -7.2785 H   0  0  0  0  0  0  0  0  0  0  0  0
  1  2  1  6
  2  5  1  0
  2  8  1  0
  2 15  1  6
  8  3  1  0
  3  9  2  0
  3 24  1  0
  5  4  1  1
  4 24  1  6
  6  5  1  1
 14  5  1  1
  7  6  1  1
 23  7  1  1
 23 10  2  0
 11 14  1  1
 11 23  1  0
 23 12  2  0
 13 17  1  0
 18 13  1  0
 16 15  2  0
 15 22  1  0
 17 16  1  0
 17 26  2  0
 19 18  1  0
 18 27  2  0
 19 28  1  0
 31 19  2  0
 20 30  2  0
 20 31  1  0
 22 21  1  0
 22 25  2  0
 25 26  1  0
 28 29  2  0
 29 30  1  0
 30 32  1  0
 32 33  1  0
 33 34  1  6
  9 35  1  0
M  END
$$$$
