
     RDKit          3D

 35 38  0  0  0  0  0  0  0  0999 V2000
  -16.6882  -37.6027  -10.2316 C   0  0  0  0  0  0  0  0  0  0  0  0
  -16.8884  -38.9115   -9.5560 C   0  0  1  0  0  0  0  0  0  0  0  0
  -15.6766  -39.9563   -7.5303 C   0  0  0  0  0  0  0  0  0  0  0  0
  -17.3252  -41.2530   -9.4401 C   0  0  0  0  0  0  0  0  0  0  0  0
  -16.6143  -40.1647  -10.2621 C   0  0  2  0  0  0  0  0  0  0  0  0
  -15.1610  -40.6285  -10.2199 C   0  0  0  0  0  0  0  0  0  0  0  0
  -14.1750  -39.7000  -10.8159 C   0  0  0  0  0  0  0  0  0  0  0  0
  -15.9784  -38.8887   -8.3901 N   0  0  0  0  0  0  0  0  0  0  0  0
  -14.8930  -39.8476   -6.5291 N   0  0  0  0  0  0  0  0  0  0  0  0
  -14.3423  -37.8728  -12.8121 O   0  0  0  0  0  0  0  0  0  0  0  0
  -16.3751  -39.6292  -12.7275 C   0  0  0  0  0  0  0  0  0  0  0  0
  -13.8013  -40.1327  -13.4044 O   0  0  0  0  0  0  0  0  0  0  0  0
  -20.1963  -39.8090   -5.9893 N   0  0  0  0  0  0  0  0  0  0  0  0
  -17.0339  -40.4268  -11.6557 C   0  0  0  0  0  0  0  0  0  0  0  0
  -18.3116  -38.8572   -9.0332 C   0  0  0  0  0  0  0  0  0  0  0  0
  -18.5659  -39.3322   -7.7427 C   0  0  0  0  0  0  0  0  0  0  0  0
  -19.8496  -39.3447   -7.2775 C   0  0  0  0  0  0  0  0  0  0  0  0
  -21.2711  -40.6265   -5.6129 C   0  0  0  0  0  0  0  0  0  0  0  0
  -21.3199  -41.2378   -4.2600 C   0  0  0  0  0  0  0  0  0  0  0  0
  -20.5340  -41.4996   -2.0617 C   0  0  0  0  0  0  0  0  0  0  0  0
  -19.0805  -37.8539  -11.0807 F   0  0  0  0  0  0  0  0  0  0  0  0
  -19.3135  -38.3963   -9.8510 C   0  0  0  0  0  0  0  0  0  0  0  0
  -14.6646  -39.3192  -12.4461 S   0  0  2  0  0  6  0  0  0  0  0  0
  -16.4415  -41.5322   -7.8790 S   0  0  0  0  0  0  0  0  0  0  0  0
  -20.6154  -38.4182   -9.3587 C   0  0  0  0  0  0  0  0  0  0  0  0
  -20.8900  -38.8808   -8.0996 C   0  0  0  0  0  0  0  0  0  0  0  0
  -22.1923  -40.8395   -6.4251 O   0  0  0  0  0  0  0  0  0  0  0  0
  -22.2900  -42.1696   -3.9995 C   0  0  0  0  0  0  0  0  0  0  0  0
  -22.3661  -42.7522   -2.7720 N   0  0  0  0  0  0  0  0  0  0  0  0
  -21.5043  -42.4324   -1.7996 C   0  0  0  0  0  0  0  0  0  0  0  0
  -20.4677  -40.9260   -3.2876 N   0  0  0  0  0  0  0  0  0  0  0  0
  -21.6040  -43.0436   -0.5526 O   0  0  0  0  0  0  0  0  0  0  0  0
  -21.6351  -44.4465   -0.4440 C   0  0  0  0  0  0  0  0  0  0  0  0
  -20.3544  -44.9481   -0.5558 F   0  0  0  0  0  0  0  0  0  0  0  0
  -14.8949  -39.0699   -5.8488 H   0  0  0  0  0  0  0  0  0  0  0  0
  1  2  1  6
  2  5  1  0
  2  8  1  0
  2 15  1  1
  8  3  1  0
  3  9  2  0
  3 24  1  0
  5  4  1  1
  4 24  1  6
  6  5  1  1
 14  5  1  1
  7  6  1  1
 23  7  1  1
 23 10  2  0
 11 14  1  1
 11 23  1  0
 23 12  2  0
 13 17  1  0
 18 13  1  0
 16 15  2  0
 15 22  1  0
 17 16  1  0
 17 26  2  0
 19 18  1  0
 18 27  2  0
 19 28  1  0
 31 19  2  0
 20 30  2  0
 20 31  1  0
 22 21  1  0
 22 25  2  0
 25 26  1  0
 28 29  2  0
 29 30  1  0
 30 32  1  0
 32 33  1  0
 33 34  1  6
  9 35  1  0
M  END
$$$$
