
     RDKit          3D

 16 18  0  0  0  0  0  0  0  0999 V2000
   -1.0759  -15.2255   34.6085 C   0  0  0  0  0  0  0  0  0  0  0  0
    1.2755  -15.1979   33.9166 C   0  0  0  0  0  0  0  0  0  0  0  0
    0.0359  -18.0436   35.6141 C   0  0  0  0  0  0  0  0  0  0  0  0
    1.2883  -16.4093   36.7650 C   0  0  0  0  0  0  0  0  0  0  0  0
    0.6412  -17.6718   32.4867 C   0  0  0  0  0  0  0  0  0  0  0  0
    1.4887  -17.2747   37.8163 C   0  0  0  0  0  0  0  0  0  0  0  0
   -3.2637  -15.1034   33.4354 C   0  0  0  0  0  0  0  0  0  0  0  0
    0.1899  -16.0611   34.3802 C   0  0  1  0  0  0  0  0  0  0  0  0
   -1.7858  -15.3259   33.2799 C   0  0  1  0  0  0  0  0  0  0  0  0
    0.2390  -18.9249   36.6830 C   0  0  0  0  0  0  0  0  0  0  0  0
   -1.2713  -14.3275   32.2735 C   0  0  0  0  0  0  0  0  0  0  0  0
    0.9649  -18.5468   37.7879 C   0  0  0  0  0  0  0  0  0  0  0  0
    0.5566  -16.7708   35.6358 C   0  0  0  0  0  0  0  0  0  0  0  0
   -0.3057  -17.1238   33.4922 C   0  0  2  0  0  0  0  0  0  0  0  0
   -0.6560  -18.1943   34.4036 N   0  0  0  0  0  0  0  0  0  0  0  0
   -1.5260  -16.6801   32.8676 N   0  0  0  0  0  4  0  0  0  0  0  0
  8  1  1  0
  1  9  1  0
  8  2  1  6
  3 10  2  0
 13  3  1  0
  3 15  1  0
  4  6  1  0
 13  4  2  0
 14  5  1  6
  6 12  2  0
  9  7  1  1
  8 13  1  0
  8 14  1  0
  9 11  1  0
  9 16  1  0
 10 12  1  0
 14 15  1  0
 14 16  1  0
M  CHG  1  16   1
M  END
$$$$
