
     RDKit          3D

 16 18  0  0  0  0  0  0  0  0999 V2000
   -5.3480  -15.9836   28.0775 C   0  0  0  0  0  0  0  0  0  0  0  0
   -5.7584  -18.3944   28.2460 C   0  0  0  0  0  0  0  0  0  0  0  0
   -4.6017  -17.0772   25.1730 C   0  0  0  0  0  0  0  0  0  0  0  0
   -6.8863  -17.5767   25.4819 C   0  0  0  0  0  0  0  0  0  0  0  0
   -2.9684  -18.6910   27.4120 C   0  0  0  0  0  0  0  0  0  0  0  0
   -7.1030  -17.5185   24.1240 C   0  0  0  0  0  0  0  0  0  0  0  0
   -3.8451  -14.3641   29.2159 C   0  0  0  0  0  0  0  0  0  0  0  0
   -5.1149  -17.3585   27.4388 C   0  0  1  0  0  0  0  0  0  0  0  0
   -4.1349  -15.8162   28.9604 C   0  0  1  0  0  0  0  0  0  0  0  0
   -4.8209  -17.0177   23.7913 C   0  0  0  0  0  0  0  0  0  0  0  0
   -4.2945  -16.4977   30.2962 C   0  0  0  0  0  0  0  0  0  0  0  0
   -6.0698  -17.2375   23.2598 C   0  0  0  0  0  0  0  0  0  0  0  0
   -5.6297  -17.3576   26.0426 C   0  0  0  0  0  0  0  0  0  0  0  0
   -3.6519  -17.3774   27.2879 C   0  0  2  0  0  0  0  0  0  0  0  0
   -3.4417  -16.8919   25.9390 N   0  0  0  0  0  0  0  0  0  0  0  0
   -3.0767  -16.4068   28.1841 N   0  0  0  0  0  4  0  0  0  0  0  0
  8  1  1  0
  1  9  1  0
  8  2  1  1
  3 10  2  0
 13  3  1  0
  3 15  1  0
  4  6  1  0
 13  4  2  0
 14  5  1  6
  6 12  2  0
  9  7  1  1
  8 13  1  0
  8 14  1  0
  9 11  1  0
  9 16  1  0
 10 12  1  0
 14 15  1  0
 14 16  1  0
M  CHG  1  16   1
M  END
$$$$
