
     RDKit          3D

 16 18  0  0  0  0  0  0  0  0999 V2000
   -0.2414  -15.3561   34.1122 C   0  0  0  0  0  0  0  0  0  0  0  0
    1.2523  -16.9350   32.9788 C   0  0  0  0  0  0  0  0  0  0  0  0
   -0.1557  -17.8604   36.0896 C   0  0  0  0  0  0  0  0  0  0  0  0
    2.0607  -17.0628   35.9640 C   0  0  0  0  0  0  0  0  0  0  0  0
   -0.9885  -18.8109   33.1421 C   0  0  0  0  0  0  0  0  0  0  0  0
    2.3256  -17.5414   37.2270 C   0  0  0  0  0  0  0  0  0  0  0  0
   -2.4150  -14.2802   33.5686 C   0  0  0  0  0  0  0  0  0  0  0  0
    0.2566  -16.8051   34.0420 C   0  0  1  0  0  0  0  0  0  0  0  0
   -1.4509  -15.3752   33.2089 C   0  0  1  0  0  0  0  0  0  0  0  0
    0.1126  -18.3478   37.3746 C   0  0  0  0  0  0  0  0  0  0  0  0
   -1.0878  -15.2121   31.7543 C   0  0  0  0  0  0  0  0  0  0  0  0
    1.3518  -18.1916   37.9496 C   0  0  0  0  0  0  0  0  0  0  0  0
    0.8129  -17.2096   35.3617 C   0  0  0  0  0  0  0  0  0  0  0  0
   -1.0051  -17.5534   33.9334 C   0  0  2  0  0  0  0  0  0  0  0  0
   -1.3182  -17.8953   35.3061 N   0  0  0  0  0  0  0  0  0  0  0  0
   -2.0386  -16.6627   33.4701 N   0  0  0  0  0  4  0  0  0  0  0  0
  8  1  1  0
  1  9  1  0
  8  2  1  6
  3 10  2  0
 13  3  1  0
  3 15  1  0
  4  6  1  0
 13  4  2  0
 14  5  1  6
  6 12  2  0
  9  7  1  1
  8 13  1  0
  8 14  1  0
  9 11  1  0
  9 16  1  0
 10 12  1  0
 14 15  1  0
 14 16  1  0
M  CHG  1  16   1
M  END
$$$$
