
     RDKit          3D

 16 18  0  0  0  0  0  0  0  0999 V2000
    0.0575  -16.3411   33.0468 C   0  0  0  0  0  0  0  0  0  0  0  0
    0.0597  -18.7902   33.1500 C   0  0  0  0  0  0  0  0  0  0  0  0
   -0.0900  -16.9610   36.1745 C   0  0  0  0  0  0  0  0  0  0  0  0
    1.9481  -17.8862   35.4300 C   0  0  0  0  0  0  0  0  0  0  0  0
   -2.4462  -18.4971   34.6338 C   0  0  0  0  0  0  0  0  0  0  0  0
    2.5030  -17.7187   36.6783 C   0  0  0  0  0  0  0  0  0  0  0  0
   -1.4317  -14.6166   32.0536 C   0  0  0  0  0  0  0  0  0  0  0  0
   -0.2051  -17.5749   33.9192 C   0  0  1  0  0  0  0  0  0  0  0  0
   -1.3003  -16.0602   32.4495 C   0  0  1  0  0  0  0  0  0  0  0  0
    0.4734  -16.7901   37.4450 C   0  0  0  0  0  0  0  0  0  0  0  0
   -1.5796  -16.9014   31.2293 C   0  0  0  0  0  0  0  0  0  0  0  0
    1.7702  -17.1670   37.7038 C   0  0  0  0  0  0  0  0  0  0  0  0
    0.6366  -17.5118   35.1449 C   0  0  0  0  0  0  0  0  0  0  0  0
   -1.5709  -17.3190   34.4014 C   0  0  2  0  0  0  0  0  0  0  0  0
   -1.3652  -16.6593   35.6749 N   0  0  0  0  0  0  0  0  0  0  0  0
   -2.2051  -16.3663   33.5260 N   0  0  0  0  0  4  0  0  0  0  0  0
  8  1  1  0
  1  9  1  0
  8  2  1  6
  3 10  2  0
 13  3  1  0
  3 15  1  0
  4  6  1  0
 13  4  2  0
 14  5  1  1
  6 12  2  0
  9  7  1  6
  8 13  1  0
  8 14  1  0
  9 11  1  0
  9 16  1  0
 10 12  1  0
 14 15  1  0
 14 16  1  0
M  CHG  1  16   1
M  END
$$$$
