
     RDKit          3D

 16 18  0  0  0  0  0  0  0  0999 V2000
   -0.6379  -15.5412   33.6666 C   0  0  0  0  0  0  0  0  0  0  0  0
    1.2129  -16.8657   32.7561 C   0  0  0  0  0  0  0  0  0  0  0  0
   -0.3730  -17.9714   35.7190 C   0  0  0  0  0  0  0  0  0  0  0  0
    1.6836  -16.8201   35.8151 C   0  0  0  0  0  0  0  0  0  0  0  0
   -0.6964  -19.0840   32.7286 C   0  0  0  0  0  0  0  0  0  0  0  0
    1.8763  -17.2322   37.1141 C   0  0  0  0  0  0  0  0  0  0  0  0
   -2.8808  -14.8464   32.8515 C   0  0  0  0  0  0  0  0  0  0  0  0
    0.0941  -16.8886   33.6976 C   0  0  1  0  0  0  0  0  0  0  0  0
   -1.7166  -15.7714   32.6356 C   0  0  1  0  0  0  0  0  0  0  0  0
   -0.1781  -18.3914   37.0405 C   0  0  0  0  0  0  0  0  0  0  0  0
   -1.2205  -15.5691   31.2259 C   0  0  0  0  0  0  0  0  0  0  0  0
    0.9450  -18.0252   37.7443 C   0  0  0  0  0  0  0  0  0  0  0  0
    0.5538  -17.1788   35.0830 C   0  0  0  0  0  0  0  0  0  0  0  0
   -1.0081  -17.8365   33.4732 C   0  0  2  0  0  0  0  0  0  0  0  0
   -1.4167  -18.2080   34.8128 N   0  0  0  0  0  0  0  0  0  0  0  0
   -2.1129  -17.1350   32.8704 N   0  0  0  0  0  4  0  0  0  0  0  0
  8  1  1  0
  1  9  1  0
  8  2  1  6
  3 10  2  0
 13  3  1  0
  3 15  1  0
  4  6  1  0
 13  4  2  0
 14  5  1  6
  6 12  2  0
  9  7  1  1
  8 13  1  0
  8 14  1  0
  9 11  1  0
  9 16  1  0
 10 12  1  0
 14 15  1  0
 14 16  1  0
M  CHG  1  16   1
M  END
$$$$
