
     RDKit          3D

 16 18  0  0  0  0  0  0  0  0999 V2000
   -3.0396  -17.9114   31.9874 C   0  0  0  0  0  0  0  0  0  0  0  0
   -2.7923  -19.7316   30.3644 C   0  0  0  0  0  0  0  0  0  0  0  0
   -3.7232  -16.5252   29.1946 C   0  0  0  0  0  0  0  0  0  0  0  0
   -5.3440  -18.2135   29.4894 C   0  0  0  0  0  0  0  0  0  0  0  0
   -0.8658  -17.9727   29.0369 C   0  0  0  0  0  0  0  0  0  0  0  0
   -6.2481  -17.5058   28.7305 C   0  0  0  0  0  0  0  0  0  0  0  0
   -1.5352  -16.7688   33.6027 C   0  0  0  0  0  0  0  0  0  0  0  0
   -2.8988  -18.2799   30.5053 C   0  0  1  0  0  0  0  0  0  0  0  0
   -1.6089  -17.6812   32.4111 C   0  0  1  0  0  0  0  0  0  0  0  0
   -4.6422  -15.8042   28.4223 C   0  0  0  0  0  0  0  0  0  0  0  0
   -0.8984  -18.9633   32.7658 C   0  0  0  0  0  0  0  0  0  0  0  0
   -5.9070  -16.2890   28.1862 C   0  0  0  0  0  0  0  0  0  0  0  0
   -4.0574  -17.7420   29.7416 C   0  0  0  0  0  0  0  0  0  0  0  0
   -1.7663  -17.4377   30.0907 C   0  0  2  0  0  0  0  0  0  0  0  0
   -2.4015  -16.2442   29.5697 N   0  0  0  0  0  0  0  0  0  0  0  0
   -1.0212  -17.0472   31.2605 N   0  0  0  0  0  4  0  0  0  0  0  0
  8  1  1  0
  1  9  1  0
  8  2  1  1
  3 10  2  0
 13  3  1  0
  3 15  1  0
  4  6  1  0
 13  4  2  0
 14  5  1  6
  6 12  2  0
  9  7  1  1
  8 13  1  0
  8 14  1  0
  9 11  1  0
  9 16  1  0
 10 12  1  0
 14 15  1  0
 14 16  1  0
M  CHG  1  16   1
M  END
$$$$
