
     RDKit          3D

 16 18  0  0  0  0  0  0  0  0999 V2000
   -3.3565  -17.8737   28.4548 C   0  0  0  0  0  0  0  0  0  0  0  0
   -2.0554  -16.1138   27.3510 C   0  0  0  0  0  0  0  0  0  0  0  0
   -5.5838  -16.0255   27.1087 C   0  0  0  0  0  0  0  0  0  0  0  0
   -4.2782  -16.8598   25.3301 C   0  0  0  0  0  0  0  0  0  0  0  0
   -3.6492  -14.2543   28.9540 C   0  0  0  0  0  0  0  0  0  0  0  0
   -5.3502  -16.7645   24.4722 C   0  0  0  0  0  0  0  0  0  0  0  0
   -3.6428  -18.6525   30.7977 C   0  0  0  0  0  0  0  0  0  0  0  0
   -3.3962  -16.4875   27.7997 C   0  0  1  0  0  0  0  0  0  0  0  0
   -3.1398  -17.5473   29.9128 C   0  0  1  0  0  0  0  0  0  0  0  0
   -6.6752  -15.9280   26.2369 C   0  0  0  0  0  0  0  0  0  0  0  0
   -1.6865  -17.3160   30.2428 C   0  0  0  0  0  0  0  0  0  0  0  0
   -6.5652  -16.2960   24.9166 C   0  0  0  0  0  0  0  0  0  0  0  0
   -4.3665  -16.4927   26.6713 C   0  0  0  0  0  0  0  0  0  0  0  0
   -4.0515  -15.6801   28.8401 C   0  0  2  0  0  0  0  0  0  0  0  0
   -5.4520  -15.7194   28.4709 N   0  0  0  0  0  0  0  0  0  0  0  0
   -3.9258  -16.3572   30.1058 N   0  0  0  0  0  4  0  0  0  0  0  0
  8  1  1  0
  1  9  1  0
  8  2  1  6
  3 10  2  0
 13  3  1  0
  3 15  1  0
  4  6  1  0
 13  4  2  0
 14  5  1  1
  6 12  2  0
  9  7  1  1
  8 13  1  0
  8 14  1  0
  9 11  1  0
  9 16  1  0
 10 12  1  0
 14 15  1  0
 14 16  1  0
M  CHG  1  16   1
M  END
$$$$
