
     RDKit          3D

 16 18  0  0  0  0  0  0  0  0999 V2000
   -4.0542  -18.4643   27.3630 C   0  0  0  0  0  0  0  0  0  0  0  0
   -2.8691  -16.4516   26.6190 C   0  0  0  0  0  0  0  0  0  0  0  0
   -6.3085  -16.7790   25.8574 C   0  0  0  0  0  0  0  0  0  0  0  0
   -4.6674  -17.2562   24.2315 C   0  0  0  0  0  0  0  0  0  0  0  0
   -4.9102  -14.9804   28.1147 C   0  0  0  0  0  0  0  0  0  0  0  0
   -5.6137  -17.2072   23.2333 C   0  0  0  0  0  0  0  0  0  0  0  0
   -4.5504  -19.5102   29.5625 C   0  0  0  0  0  0  0  0  0  0  0  0
   -4.1944  -17.0337   26.8280 C   0  0  1  0  0  0  0  0  0  0  0  0
   -4.0878  -18.2655   28.8592 C   0  0  1  0  0  0  0  0  0  0  0  0
   -7.2721  -16.7288   24.8427 C   0  0  0  0  0  0  0  0  0  0  0  0
   -2.7399  -17.8903   29.4221 C   0  0  0  0  0  0  0  0  0  0  0  0
   -6.9314  -16.9421   23.5278 C   0  0  0  0  0  0  0  0  0  0  0  0
   -4.9897  -17.0433   25.5702 C   0  0  0  0  0  0  0  0  0  0  0  0
   -5.0920  -16.4259   27.8223 C   0  0  2  0  0  0  0  0  0  0  0  0
   -6.4093  -16.6010   27.2448 N   0  0  0  0  0  0  0  0  0  0  0  0
   -5.0497  -17.2089   29.0311 N   0  0  0  0  0  4  0  0  0  0  0  0
  8  1  1  0
  1  9  1  0
  8  2  1  6
  3 10  2  0
 13  3  1  0
  3 15  1  0
  4  6  1  0
 13  4  2  0
 14  5  1  1
  6 12  2  0
  9  7  1  1
  8 13  1  0
  8 14  1  0
  9 11  1  0
  9 16  1  0
 10 12  1  0
 14 15  1  0
 14 16  1  0
M  CHG  1  16   1
M  END
$$$$
