
     RDKit          3D

 16 18  0  0  0  0  0  0  0  0999 V2000
   -4.3756  -17.8059   27.3281 C   0  0  0  0  0  0  0  0  0  0  0  0
   -6.2054  -17.8561   28.9584 C   0  0  0  0  0  0  0  0  0  0  0  0
   -2.8915  -18.3189   30.1071 C   0  0  0  0  0  0  0  0  0  0  0  0
   -4.3221  -20.1675   29.7902 C   0  0  0  0  0  0  0  0  0  0  0  0
   -4.7460  -15.7105   30.3125 C   0  0  0  0  0  0  0  0  0  0  0  0
   -3.4849  -20.9681   30.5334 C   0  0  0  0  0  0  0  0  0  0  0  0
   -3.4756  -16.1243   25.7344 C   0  0  0  0  0  0  0  0  0  0  0  0
   -4.7546  -17.7440   28.8130 C   0  0  1  0  0  0  0  0  0  0  0  0
   -4.3619  -16.3507   26.9265 C   0  0  1  0  0  0  0  0  0  0  0  0
   -2.0389  -19.1324   30.8635 C   0  0  0  0  0  0  0  0  0  0  0  0
   -5.7366  -15.8328   26.5855 C   0  0  0  0  0  0  0  0  0  0  0  0
   -2.3298  -20.4587   31.0806 C   0  0  0  0  0  0  0  0  0  0  0  0
   -4.0477  -18.8215   29.5573 C   0  0  0  0  0  0  0  0  0  0  0  0
   -4.0878  -16.5056   29.2436 C   0  0  2  0  0  0  0  0  0  0  0  0
   -2.8111  -16.9646   29.7523 N   0  0  0  0  0  0  0  0  0  0  0  0
   -3.8171  -15.6930   28.0849 N   0  0  0  0  0  4  0  0  0  0  0  0
  8  1  1  0
  1  9  1  0
  8  2  1  6
  3 10  2  0
 13  3  1  0
  3 15  1  0
  4  6  1  0
 13  4  2  0
 14  5  1  1
  6 12  2  0
  9  7  1  6
  8 13  1  0
  8 14  1  0
  9 11  1  0
  9 16  1  0
 10 12  1  0
 14 15  1  0
 14 16  1  0
M  CHG  1  16   1
M  END
$$$$
