
     RDKit          3D

 16 18  0  0  0  0  0  0  0  0999 V2000
   -1.1289  -19.1232   33.2993 C   0  0  0  0  0  0  0  0  0  0  0  0
   -2.0870  -17.0483   34.1854 C   0  0  0  0  0  0  0  0  0  0  0  0
    1.3963  -17.5821   34.4982 C   0  0  0  0  0  0  0  0  0  0  0  0
   -0.0471  -17.9707   36.3230 C   0  0  0  0  0  0  0  0  0  0  0  0
   -0.1720  -15.6919   32.4361 C   0  0  0  0  0  0  0  0  0  0  0  0
    1.0211  -17.9831   37.1908 C   0  0  0  0  0  0  0  0  0  0  0  0
   -0.9829  -20.1845   31.0565 C   0  0  0  0  0  0  0  0  0  0  0  0
   -0.8365  -17.7064   33.8086 C   0  0  1  0  0  0  0  0  0  0  0  0
   -1.2766  -18.9186   31.8108 C   0  0  1  0  0  0  0  0  0  0  0  0
    2.4838  -17.5945   35.3801 C   0  0  0  0  0  0  0  0  0  0  0  0
   -2.6611  -18.4614   31.4254 C   0  0  0  0  0  0  0  0  0  0  0  0
    2.3032  -17.7946   36.7284 C   0  0  0  0  0  0  0  0  0  0  0  0
    0.1121  -17.7698   34.9535 C   0  0  0  0  0  0  0  0  0  0  0  0
   -0.0400  -17.1471   32.7057 C   0  0  2  0  0  0  0  0  0  0  0  0
    1.3280  -17.4028   33.1090 N   0  0  0  0  0  0  0  0  0  0  0  0
   -0.2839  -17.9196   31.5141 N   0  0  0  0  0  4  0  0  0  0  0  0
  8  1  1  0
  1  9  1  0
  8  2  1  1
  3 10  2  0
 13  3  1  0
  3 15  1  0
  4  6  1  0
 13  4  2  0
 14  5  1  6
  6 12  2  0
  9  7  1  6
  8 13  1  0
  8 14  1  0
  9 11  1  0
  9 16  1  0
 10 12  1  0
 14 15  1  0
 14 16  1  0
M  CHG  1  16   1
M  END
$$$$
