
     RDKit          3D

 16 18  0  0  0  0  0  0  0  0999 V2000
   -2.3589  -16.2328   33.3304 C   0  0  0  0  0  0  0  0  0  0  0  0
   -0.4809  -14.7455   32.8111 C   0  0  0  0  0  0  0  0  0  0  0  0
    0.1982  -17.8954   34.2715 C   0  0  0  0  0  0  0  0  0  0  0  0
    0.1813  -15.9390   35.5892 C   0  0  0  0  0  0  0  0  0  0  0  0
    0.5425  -16.9775   31.2180 C   0  0  0  0  0  0  0  0  0  0  0  0
    0.8338  -16.5956   36.6078 C   0  0  0  0  0  0  0  0  0  0  0  0
   -4.1455  -17.3483   32.0108 C   0  0  0  0  0  0  0  0  0  0  0  0
   -0.8396  -16.1216   33.1521 C   0  0  1  0  0  0  0  0  0  0  0  0
   -2.8284  -16.6277   31.9509 C   0  0  1  0  0  0  0  0  0  0  0  0
    0.8620  -18.5645   35.3070 C   0  0  0  0  0  0  0  0  0  0  0  0
   -2.9920  -15.4409   31.0349 C   0  0  0  0  0  0  0  0  0  0  0  0
    1.1830  -17.9202   36.4785 C   0  0  0  0  0  0  0  0  0  0  0  0
   -0.1538  -16.5715   34.3939 C   0  0  0  0  0  0  0  0  0  0  0  0
   -0.5704  -17.1913   32.1790 C   0  0  2  0  0  0  0  0  0  0  0  0
   -0.2299  -18.3294   33.0085 N   0  0  0  0  0  0  0  0  0  0  0  0
   -1.7941  -17.5167   31.4914 N   0  0  0  0  0  4  0  0  0  0  0  0
  8  1  1  0
  1  9  1  0
  8  2  1  6
  3 10  2  0
 13  3  1  0
  3 15  1  0
  4  6  1  0
 13  4  2  0
 14  5  1  6
  6 12  2  0
  9  7  1  1
  8 13  1  0
  8 14  1  0
  9 11  1  0
  9 16  1  0
 10 12  1  0
 14 15  1  0
 14 16  1  0
M  CHG  1  16   1
M  END
$$$$
