
     RDKit          3D

 16 18  0  0  0  0  0  0  0  0999 V2000
    0.1114  -16.5312   32.9252 C   0  0  0  0  0  0  0  0  0  0  0  0
   -0.3653  -18.8846   33.4180 C   0  0  0  0  0  0  0  0  0  0  0  0
    0.3032  -16.6857   36.1077 C   0  0  0  0  0  0  0  0  0  0  0  0
    1.9807  -18.1288   35.2906 C   0  0  0  0  0  0  0  0  0  0  0  0
   -2.5148  -17.8515   35.1150 C   0  0  0  0  0  0  0  0  0  0  0  0
    2.7353  -17.9253   36.4234 C   0  0  0  0  0  0  0  0  0  0  0  0
   -1.1287  -14.6662   31.8475 C   0  0  0  0  0  0  0  0  0  0  0  0
   -0.2635  -17.5505   34.0083 C   0  0  1  0  0  0  0  0  0  0  0  0
   -1.2346  -16.0380   32.4514 C   0  0  1  0  0  0  0  0  0  0  0  0
    1.0700  -16.4780   37.2607 C   0  0  0  0  0  0  0  0  0  0  0  0
   -1.8540  -16.9497   31.4221 C   0  0  0  0  0  0  0  0  0  0  0  0
    2.2877  -17.0950   37.4251 C   0  0  0  0  0  0  0  0  0  0  0  0
    0.7444  -17.5144   35.1026 C   0  0  0  0  0  0  0  0  0  0  0  0
   -1.4637  -16.9375   34.5977 C   0  0  2  0  0  0  0  0  0  0  0  0
   -0.9442  -16.1778   35.7168 N   0  0  0  0  0  0  0  0  0  0  0  0
   -2.0142  -15.9918   33.6602 N   0  0  0  0  0  4  0  0  0  0  0  0
  8  1  1  0
  1  9  1  0
  8  2  1  6
  3 10  2  0
 13  3  1  0
  3 15  1  0
  4  6  1  0
 13  4  2  0
 14  5  1  1
  6 12  2  0
  9  7  1  6
  8 13  1  0
  8 14  1  0
  9 11  1  0
  9 16  1  0
 10 12  1  0
 14 15  1  0
 14 16  1  0
M  CHG  1  16   1
M  END
$$$$
