
     RDKit          3D

 16 18  0  0  0  0  0  0  0  0999 V2000
   -1.9610  -16.8366   33.2555 C   0  0  0  0  0  0  0  0  0  0  0  0
   -1.2355  -14.6674   34.1368 C   0  0  0  0  0  0  0  0  0  0  0  0
    1.0713  -17.3496   34.1106 C   0  0  0  0  0  0  0  0  0  0  0  0
   -0.0661  -16.7628   36.0920 C   0  0  0  0  0  0  0  0  0  0  0  0
    0.8939  -14.8294   32.1351 C   0  0  0  0  0  0  0  0  0  0  0  0
    0.8244  -17.4951   36.8436 C   0  0  0  0  0  0  0  0  0  0  0  0
   -2.7874  -17.6652   31.0628 C   0  0  0  0  0  0  0  0  0  0  0  0
   -0.7643  -15.9685   33.6637 C   0  0  1  0  0  0  0  0  0  0  0  0
   -2.1026  -16.5379   31.7825 C   0  0  1  0  0  0  0  0  0  0  0  0
    1.9780  -18.0949   34.8741 C   0  0  0  0  0  0  0  0  0  0  0  0
   -2.8890  -15.2777   31.5219 C   0  0  0  0  0  0  0  0  0  0  0  0
    1.8603  -18.1720   36.2419 C   0  0  0  0  0  0  0  0  0  0  0  0
    0.0337  -16.6705   34.7054 C   0  0  0  0  0  0  0  0  0  0  0  0
    0.0770  -16.0277   32.4585 C   0  0  2  0  0  0  0  0  0  0  0  0
    0.9838  -17.1249   32.7291 N   0  0  0  0  0  0  0  0  0  0  0  0
   -0.7394  -16.4169   31.3369 N   0  0  0  0  0  4  0  0  0  0  0  0
  8  1  1  0
  1  9  1  0
  8  2  1  1
  3 10  2  0
 13  3  1  0
  3 15  1  0
  4  6  1  0
 13  4  2  0
 14  5  1  6
  6 12  2  0
  9  7  1  6
  8 13  1  0
  8 14  1  0
  9 11  1  0
  9 16  1  0
 10 12  1  0
 14 15  1  0
 14 16  1  0
M  CHG  1  16   1
M  END
$$$$
