
     RDKit          3D

 16 18  0  0  0  0  0  0  0  0999 V2000
   -2.7712  -18.5009   31.1775 C   0  0  0  0  0  0  0  0  0  0  0  0
   -0.9088  -16.9232   30.9519 C   0  0  0  0  0  0  0  0  0  0  0  0
   -2.5002  -17.2368   34.0960 C   0  0  0  0  0  0  0  0  0  0  0  0
   -3.0198  -15.4383   32.6608 C   0  0  0  0  0  0  0  0  0  0  0  0
    0.3220  -18.4245   33.1424 C   0  0  0  0  0  0  0  0  0  0  0  0
   -3.6200  -14.7592   33.6965 C   0  0  0  0  0  0  0  0  0  0  0  0
   -3.0477  -20.9566   30.9114 C   0  0  0  0  0  0  0  0  0  0  0  0
   -1.7430  -17.6368   31.9181 C   0  0  1  0  0  0  0  0  0  0  0  0
   -2.0646  -19.8295   31.0562 C   0  0  1  0  0  0  0  0  0  0  0  0
   -3.1106  -16.5469   35.1505 C   0  0  0  0  0  0  0  0  0  0  0  0
   -1.1272  -19.8792   29.8758 C   0  0  0  0  0  0  0  0  0  0  0  0
   -3.6728  -15.3070   34.9577 C   0  0  0  0  0  0  0  0  0  0  0  0
   -2.4438  -16.6952   32.8330 C   0  0  0  0  0  0  0  0  0  0  0  0
   -1.1146  -18.6178   32.8161 C   0  0  2  0  0  0  0  0  0  0  0  0
   -1.8714  -18.4893   34.0449 N   0  0  0  0  0  0  0  0  0  0  0  0
   -1.3564  -19.9427   32.3039 N   0  0  0  0  0  4  0  0  0  0  0  0
  8  1  1  0
  1  9  1  0
  8  2  1  6
  3 10  2  0
 13  3  1  0
  3 15  1  0
  4  6  1  0
 13  4  2  0
 14  5  1  1
  6 12  2  0
  9  7  1  6
  8 13  1  0
  8 14  1  0
  9 11  1  0
  9 16  1  0
 10 12  1  0
 14 15  1  0
 14 16  1  0
M  CHG  1  16   1
M  END
$$$$
