
     RDKit          3D

 68 73  0  0  0  0  0  0  0  0999 V2000
    3.9710  -24.6249  -22.5479 N   0  0  0  0  0  4  0  0  0  0  0  0
    5.5627  -19.4657  -25.3435 N   0  0  0  0  0  0  0  0  0  0  0  0
    3.5425  -23.8068  -21.4591 C   0  0  0  0  0  0  0  0  0  0  0  0
    3.3556  -24.4447  -20.1523 C   0  0  0  0  0  0  0  0  0  0  0  0
    4.4143  -23.9257  -19.1472 C   0  0  0  0  0  0  0  0  0  0  0  0
    6.1641  -22.2350  -19.8763 C   0  0  0  0  0  0  0  0  0  0  0  0
    6.4493  -22.0210  -21.2217 C   0  0  0  0  0  0  0  0  0  0  0  0
    7.5623  -21.8449  -23.8744 C   0  0  0  0  0  0  0  0  0  0  0  0
    5.9403  -20.2287  -24.4737 C   0  0  0  0  0  0  0  0  0  0  0  0
    3.1319  -25.3553  -17.5299 C   0  0  0  0  0  0  0  0  0  0  0  0
    6.3536  -26.3653  -24.5860 C   0  0  0  0  0  0  0  0  0  0  0  0
    6.3956  -21.0961  -23.4660 C   0  0  0  0  0  0  0  0  0  0  0  0
    5.9335  -21.2438  -22.1913 C   0  0  0  0  0  0  0  0  0  0  0  0
    4.1592  -24.4685  -17.8892 C   0  0  0  0  0  0  0  0  0  0  0  0
    2.6465  -26.1939  -15.1371 C   0  0  0  0  0  0  0  0  0  0  0  0
    4.2972  -25.0208  -24.9384 C   0  0  0  0  0  0  0  0  0  0  0  0
    3.3957  -24.5484  -23.8083 C   0  0  0  0  0  0  0  0  0  0  0  0
    7.6998  -22.7624  -21.7909 C   0  0  0  0  0  0  0  0  0  0  0  0
    8.0101  -22.5869  -22.8622 N   0  0  0  0  0  0  0  0  0  0  0  0
    5.2747  -23.1808  -19.5021 O   0  0  0  0  0  0  0  0  0  0  0  0
    2.8787  -25.8485  -16.3526 O   0  0  0  0  0  0  0  0  0  0  0  0
   -2.0539  -25.8310   -6.9704 O   0  0  0  0  0  0  0  0  0  0  0  0
    5.6581  -25.1385  -24.4695 N   0  0  0  0  0  0  0  0  0  0  0  0
    7.5849  -26.5229  -25.4432 C   0  0  0  0  0  0  0  0  0  0  0  0
    5.9779  -27.4228  -23.9669 O   0  0  0  0  0  0  0  0  0  0  0  0
    1.5867  -25.5369  -14.3622 C   0  0  0  0  0  0  0  0  0  0  0  0
    0.5543  -24.8418  -15.2003 C   0  0  0  0  0  0  0  0  0  0  0  0
   -0.4378  -24.3116  -14.6861 C   0  0  0  0  0  0  0  0  0  0  0  0
   -0.7284  -24.2941  -13.3065 C   0  0  0  0  0  0  0  0  0  0  0  0
    0.1052  -24.8689  -12.4805 C   0  0  0  0  0  0  0  0  0  0  0  0
    1.3163  -25.5185  -13.0295 C   0  0  0  0  0  0  0  0  0  0  0  0
    2.2208  -26.1223  -12.0507 C   0  0  0  0  0  0  0  0  0  0  0  0
   -0.0066  -24.7806  -11.0335 C   0  0  0  0  0  0  0  0  0  0  0  0
    0.9694  -24.0251  -10.2873 C   0  0  0  0  0  0  0  0  0  0  0  0
    0.9547  -23.9073   -8.9276 C   0  0  0  0  0  0  0  0  0  0  0  0
   -0.1553  -24.6266   -8.2724 C   0  0  0  0  0  0  0  0  0  0  0  0
   -0.9407  -25.2301   -8.9283 C   0  0  0  0  0  0  0  0  0  0  0  0
   -1.0237  -25.4287  -10.3584 C   0  0  0  0  0  0  0  0  0  0  0  0
   -2.0863  -26.2161  -10.9467 C   0  0  0  0  0  0  0  0  0  0  0  0
   -2.2603  -25.8314   -8.2579 C   0  0  0  0  0  0  0  0  0  0  0  0
   -2.1296  -26.4750   -5.7730 C   0  0  0  0  0  0  0  0  0  0  0  0
   -0.8071  -27.2551   -5.4425 C   0  0  0  0  0  0  0  0  0  0  0  0
   -1.0050  -27.9225   -4.2647 C   0  0  0  0  0  0  0  0  0  0  0  0
   -2.1007  -27.9642   -3.4050 C   0  0  0  0  0  0  0  0  0  0  0  0
   -2.0244  -28.8425   -2.1694 C   0  0  0  0  0  0  0  0  0  0  0  0
   -4.3728  -29.6086   -2.0678 C   0  0  0  0  0  0  0  0  0  0  0  0
   -4.4719  -31.0704   -1.6174 C   0  0  0  0  0  0  0  0  0  0  0  0
   -2.9569  -32.2640   -0.0121 C   0  0  0  0  0  0  0  0  0  0  0  0
   -1.7381  -31.7512    0.8921 C   0  0  0  0  0  0  0  0  0  0  0  0
   -3.1684  -27.2481   -3.7510 C   0  0  0  0  0  0  0  0  0  0  0  0
   -3.0733  -26.5349   -4.9740 C   0  0  0  0  0  0  0  0  0  0  0  0
   -4.3603  -25.7173   -5.2406 C   0  0  0  0  0  0  0  0  0  0  0  0
    1.3397  -28.4218   -3.4268 C   0  0  0  0  0  0  0  0  0  0  0  0
    1.6576  -29.0602   -2.1285 C   0  0  0  0  0  0  0  0  0  0  0  0
    0.4641  -29.1832   -1.2091 C   0  0  0  0  0  0  0  0  0  0  0  0
    1.8897  -29.8444    0.4249 C   0  0  0  0  0  0  0  0  0  0  0  0
    2.9942  -29.7908   -0.2064 C   0  0  0  0  0  0  0  0  0  0  0  0
    2.8132  -29.3611   -1.5791 C   0  0  0  0  0  0  0  0  0  0  0  0
    4.3022  -29.9810    0.2978 C   0  0  0  0  0  0  0  0  0  0  0  0
    2.2837  -25.7283  -18.5410 C   0  0  0  0  0  0  0  0  0  0  0  0
    2.4090  -25.2698  -19.8219 C   0  0  0  0  0  0  0  0  0  0  0  0
    1.2033  -26.7431  -18.2767 C   0  0  0  0  0  0  0  0  0  0  0  0
   -3.2735  -28.8885   -1.5099 N   0  0  0  0  0  4  0  0  0  0  0  0
   -3.8375  -31.1948   -0.3443 N   0  0  0  0  0  0  0  0  0  0  0  0
    0.6381  -29.5763    0.0474 N   0  0  0  0  0  0  0  0  0  0  0  0
    5.4805  -30.1702    0.7401 N   0  0  0  0  0  0  0  0  0  0  0  0
   -2.9572  -33.4165   -0.2639 O   0  0  0  0  0  0  0  0  0  0  0  0
    0.0541  -28.7661   -3.8321 O   0  0  0  0  0  0  0  0  0  0  0  0
  1  3  1  1
  1 17  1  0
  9  2  3  0
  3  4  1  6
  5  4  2  0
  4 61  1  0
 14  5  1  0
  5 20  1  0
  6  7  1  0
  6 20  1  6
  7 13  2  0
  7 18  1  0
 12  8  2  0
 19  8  1  0
 12  9  1  0
 10 14  2  0
 21 10  1  0
 10 60  1  0
 23 11  1  0
 24 11  1  6
 11 25  2  0
 13 12  1  0
 15 21  1  1
 26 15  1  0
 17 16  1  6
 16 23  1  6
 18 19  2  0
 40 22  1  1
 41 22  1  0
 26 27  2  0
 31 26  1  0
 28 27  1  0
 29 28  2  0
 30 29  1  0
 30 31  2  0
 33 30  1  0
 32 31  1  6
 33 34  2  0
 38 33  1  0
 35 34  1  0
 36 35  2  0
 37 36  1  0
 37 38  2  0
 40 37  1  0
 39 38  1  6
 42 41  2  0
 41 51  1  0
 43 42  1  0
 43 44  2  0
 68 43  1  0
 45 44  1  1
 44 50  1  0
 63 45  1  1
 46 47  1  1
 63 46  1  0
 47 64  1  6
 49 48  1  6
 64 48  1  0
 48 67  2  0
 50 51  2  0
 52 51  1  6
 54 53  1  0
 53 68  1  6
 55 54  2  0
 54 58  1  0
 65 55  1  0
 56 57  1  0
 56 65  2  0
 57 58  2  0
 57 59  1  0
 59 66  3  0
 60 61  2  0
 62 60  1  6
M  CHG  2   1   1  63   1
M  END
$$$$
