
     RDKit          3D

 68 73  0  0  0  0  0  0  0  0999 V2000
    0.9017  -24.4511   -8.4781 N   0  0  0  0  0  4  0  0  0  0  0  0
    7.6996  -31.8774   -6.1678 N   0  0  0  0  0  0  0  0  0  0  0  0
    0.9041  -25.8685   -8.6500 C   0  0  0  0  0  0  0  0  0  0  0  0
    1.4320  -26.4072   -9.9073 C   0  0  0  0  0  0  0  0  0  0  0  0
    2.6563  -27.3148   -9.6283 C   0  0  0  0  0  0  0  0  0  0  0  0
    3.4514  -27.5580   -7.2282 C   0  0  0  0  0  0  0  0  0  0  0  0
    3.9172  -28.7755   -6.7402 C   0  0  0  0  0  0  0  0  0  0  0  0
    4.4026  -31.2625   -5.3670 C   0  0  0  0  0  0  0  0  0  0  0  0
    6.6282  -31.2999   -6.1713 C   0  0  0  0  0  0  0  0  0  0  0  0
    2.5371  -27.7145  -12.1041 C   0  0  0  0  0  0  0  0  0  0  0  0
   -0.4894  -20.5897   -8.2308 C   0  0  0  0  0  0  0  0  0  0  0  0
    5.3985  -30.6201   -6.1941 C   0  0  0  0  0  0  0  0  0  0  0  0
    5.0814  -29.4460   -6.8115 C   0  0  0  0  0  0  0  0  0  0  0  0
    3.0815  -27.8936  -10.8226 C   0  0  0  0  0  0  0  0  0  0  0  0
    3.3767  -28.9112  -14.2319 C   0  0  0  0  0  0  0  0  0  0  0  0
   -0.5814  -22.7586   -9.4339 C   0  0  0  0  0  0  0  0  0  0  0  0
    0.6990  -23.5732   -9.5335 C   0  0  0  0  0  0  0  0  0  0  0  0
    2.9414  -29.5699   -5.8159 C   0  0  0  0  0  0  0  0  0  0  0  0
    3.2835  -30.5393   -5.3491 N   0  0  0  0  0  0  0  0  0  0  0  0
    3.0894  -27.4275   -8.5234 O   0  0  0  0  0  0  0  0  0  0  0  0
    2.9188  -28.2683  -13.2181 O   0  0  0  0  0  0  0  0  0  0  0  0
    1.3775  -26.0777  -22.5398 O   0  0  0  0  0  0  0  0  0  0  0  0
   -0.5914  -22.0008   -8.2046 N   0  0  0  0  0  0  0  0  0  0  0  0
   -1.6778  -19.6851   -8.0181 C   0  0  0  0  0  0  0  0  0  0  0  0
    0.6249  -19.9909   -8.4377 O   0  0  0  0  0  0  0  0  0  0  0  0
    3.6682  -28.2139  -15.4905 C   0  0  0  0  0  0  0  0  0  0  0  0
    4.4953  -26.9727  -15.3274 C   0  0  0  0  0  0  0  0  0  0  0  0
    4.8819  -26.3265  -16.3087 C   0  0  0  0  0  0  0  0  0  0  0  0
    4.6193  -26.6548  -17.6545 C   0  0  0  0  0  0  0  0  0  0  0  0
    3.9042  -27.7170  -17.9152 C   0  0  0  0  0  0  0  0  0  0  0  0
    3.4052  -28.5332  -16.7861 C   0  0  0  0  0  0  0  0  0  0  0  0
    2.5910  -29.6949  -17.1440 C   0  0  0  0  0  0  0  0  0  0  0  0
    3.4394  -28.0668  -19.2478 C   0  0  0  0  0  0  0  0  0  0  0  0
    4.0109  -29.2034  -19.9271 C   0  0  0  0  0  0  0  0  0  0  0  0
    3.6514  -29.5902  -21.1857 C   0  0  0  0  0  0  0  0  0  0  0  0
    2.6170  -28.7389  -21.8054 C   0  0  0  0  0  0  0  0  0  0  0  0
    2.1690  -27.8170  -21.2048 C   0  0  0  0  0  0  0  0  0  0  0  0
    2.4715  -27.3125  -19.8837 C   0  0  0  0  0  0  0  0  0  0  0  0
    1.7886  -26.1541  -19.3478 C   0  0  0  0  0  0  0  0  0  0  0  0
    0.9058  -27.0204  -21.7722 C   0  0  0  0  0  0  0  0  0  0  0  0
    1.1515  -25.0300  -23.3796 C   0  0  0  0  0  0  0  0  0  0  0  0
    2.3976  -24.0792  -23.4790 C   0  0  0  0  0  0  0  0  0  0  0  0
    2.0512  -23.0273  -24.2822 C   0  0  0  0  0  0  0  0  0  0  0  0
    0.8725  -22.7453  -24.9698 C   0  0  0  0  0  0  0  0  0  0  0  0
    0.7835  -21.4553  -25.7646 C   0  0  0  0  0  0  0  0  0  0  0  0
    1.2250  -22.0728  -28.1175 C   0  0  0  0  0  0  0  0  0  0  0  0
    2.3016  -22.1041  -29.2081 C   0  0  0  0  0  0  0  0  0  0  0  0
    3.5645  -20.3474  -30.4793 C   0  0  0  0  0  0  0  0  0  0  0  0
    3.1529  -19.5653  -31.8154 C   0  0  0  0  0  0  0  0  0  0  0  0
   -0.1216  -23.6227  -24.8507 C   0  0  0  0  0  0  0  0  0  0  0  0
    0.1293  -24.7424  -24.0160 C   0  0  0  0  0  0  0  0  0  0  0  0
   -1.0865  -25.7001  -23.9927 C   0  0  0  0  0  0  0  0  0  0  0  0
    3.0693  -20.7447  -23.8319 C   0  0  0  0  0  0  0  0  0  0  0  0
    4.3626  -20.0842  -24.1237 C   0  0  0  0  0  0  0  0  0  0  0  0
    5.4766  -20.5020  -23.1913 C   0  0  0  0  0  0  0  0  0  0  0  0
    6.7520  -18.8679  -24.1094 C   0  0  0  0  0  0  0  0  0  0  0  0
    5.9278  -18.3881  -24.9531 C   0  0  0  0  0  0  0  0  0  0  0  0
    4.6538  -19.0791  -24.9192 C   0  0  0  0  0  0  0  0  0  0  0  0
    6.0816  -17.2499  -25.7790 C   0  0  0  0  0  0  0  0  0  0  0  0
    1.4608  -26.8680  -12.1832 C   0  0  0  0  0  0  0  0  0  0  0  0
    0.9319  -26.2363  -11.0933 C   0  0  0  0  0  0  0  0  0  0  0  0
    0.8605  -26.5423  -13.5251 C   0  0  0  0  0  0  0  0  0  0  0  0
    1.6476  -21.4951  -26.8822 N   0  0  0  0  0  4  0  0  0  0  0  0
    2.4138  -20.7961  -29.7697 N   0  0  0  0  0  0  0  0  0  0  0  0
    6.6405  -19.8633  -23.2276 N   0  0  0  0  0  0  0  0  0  0  0  0
    6.2099  -16.2141  -26.5075 N   0  0  0  0  0  0  0  0  0  0  0  0
    4.7230  -20.4353  -30.2747 O   0  0  0  0  0  0  0  0  0  0  0  0
    3.0224  -21.9999  -24.4301 O   0  0  0  0  0  0  0  0  0  0  0  0
  1  3  1  1
  1 17  1  0
  9  2  3  0
  3  4  1  6
  5  4  2  0
  4 61  1  0
 14  5  1  0
  5 20  1  0
  6  7  1  0
  6 20  1  6
  7 13  2  0
  7 18  1  0
 12  8  2  0
 19  8  1  0
 12  9  1  0
 10 14  2  0
 21 10  1  0
 10 60  1  0
 23 11  1  0
 24 11  1  6
 11 25  2  0
 13 12  1  0
 15 21  1  1
 26 15  1  0
 17 16  1  6
 16 23  1  6
 18 19  2  0
 40 22  1  1
 41 22  1  0
 26 27  2  0
 31 26  1  0
 28 27  1  0
 29 28  2  0
 30 29  1  0
 30 31  2  0
 33 30  1  0
 32 31  1  6
 33 34  2  0
 38 33  1  0
 35 34  1  0
 36 35  2  0
 37 36  1  0
 37 38  2  0
 40 37  1  0
 39 38  1  6
 42 41  2  0
 41 51  1  0
 43 42  1  0
 43 44  2  0
 68 43  1  0
 45 44  1  1
 44 50  1  0
 63 45  1  1
 46 47  1  1
 63 46  1  0
 47 64  1  6
 49 48  1  6
 64 48  1  0
 48 67  2  0
 50 51  2  0
 52 51  1  6
 54 53  1  0
 53 68  1  6
 55 54  2  0
 54 58  1  0
 65 55  1  0
 56 57  1  0
 56 65  2  0
 57 58  2  0
 57 59  1  0
 59 66  3  0
 60 61  2  0
 62 60  1  6
M  CHG  2   1   1  63   1
M  END
$$$$
