
     RDKit          3D

 68 73  0  0  0  0  0  0  0  0999 V2000
    0.3982  -27.2234   -4.5729 N   0  0  0  0  0  4  0  0  0  0  0  0
   -0.9389  -25.6111  -14.5768 N   0  0  0  0  0  0  0  0  0  0  0  0
   -0.5460  -27.2642   -5.6543 C   0  0  0  0  0  0  0  0  0  0  0  0
    0.0906  -26.5438   -6.8039 C   0  0  0  0  0  0  0  0  0  0  0  0
   -0.0588  -27.0123   -8.1110 C   0  0  0  0  0  0  0  0  0  0  0  0
   -1.1743  -28.7567   -9.5175 C   0  0  0  0  0  0  0  0  0  0  0  0
   -1.9832  -27.9088  -10.4320 C   0  0  0  0  0  0  0  0  0  0  0  0
   -3.3903  -26.3260  -12.1695 C   0  0  0  0  0  0  0  0  0  0  0  0
   -1.4569  -26.0168  -13.5711 C   0  0  0  0  0  0  0  0  0  0  0  0
    1.4644  -25.3177   -8.9311 C   0  0  0  0  0  0  0  0  0  0  0  0
   -1.7174  -29.0500   -0.8504 C   0  0  0  0  0  0  0  0  0  0  0  0
   -2.0540  -26.4988  -12.3965 C   0  0  0  0  0  0  0  0  0  0  0  0
   -1.3504  -27.3067  -11.4924 C   0  0  0  0  0  0  0  0  0  0  0  0
    0.6387  -26.3798   -9.1397 C   0  0  0  0  0  0  0  0  0  0  0  0
    1.8677  -23.5605  -10.6541 C   0  0  0  0  0  0  0  0  0  0  0  0
   -0.5898  -28.8719   -3.0927 C   0  0  0  0  0  0  0  0  0  0  0  0
   -0.2581  -27.3930   -3.2736 C   0  0  0  0  0  0  0  0  0  0  0  0
   -3.3376  -27.7037  -10.2476 C   0  0  0  0  0  0  0  0  0  0  0  0
   -3.9797  -26.9218  -11.1235 N   0  0  0  0  0  0  0  0  0  0  0  0
   -0.8976  -28.0669   -8.3349 O   0  0  0  0  0  0  0  0  0  0  0  0
    2.1654  -24.6863   -9.8881 O   0  0  0  0  0  0  0  0  0  0  0  0
   -0.7774  -24.3750  -19.2139 O   0  0  0  0  0  0  0  0  0  0  0  0
   -0.5808  -29.1774   -1.6915 N   0  0  0  0  0  0  0  0  0  0  0  0
   -2.9424  -28.3187   -1.3331 C   0  0  0  0  0  0  0  0  0  0  0  0
   -1.7044  -29.5453    0.3021 O   0  0  0  0  0  0  0  0  0  0  0  0
    1.9789  -23.7307  -12.1108 C   0  0  0  0  0  0  0  0  0  0  0  0
    3.1120  -23.8325  -12.8324 C   0  0  0  0  0  0  0  0  0  0  0  0
    3.1722  -24.0895  -14.2236 C   0  0  0  0  0  0  0  0  0  0  0  0
    1.9594  -24.2424  -14.8638 C   0  0  0  0  0  0  0  0  0  0  0  0
    0.7686  -24.1498  -14.2138 C   0  0  0  0  0  0  0  0  0  0  0  0
    0.7594  -23.9018  -12.8510 C   0  0  0  0  0  0  0  0  0  0  0  0
   -0.5103  -23.7683  -12.1798 C   0  0  0  0  0  0  0  0  0  0  0  0
   -0.5248  -24.2369  -14.9409 C   0  0  0  0  0  0  0  0  0  0  0  0
   -1.7218  -24.2334  -14.2428 C   0  0  0  0  0  0  0  0  0  0  0  0
   -2.9513  -24.2946  -14.8931 C   0  0  0  0  0  0  0  0  0  0  0  0
   -3.0135  -24.3653  -16.2843 C   0  0  0  0  0  0  0  0  0  0  0  0
   -1.8436  -24.3723  -16.9760 C   0  0  0  0  0  0  0  0  0  0  0  0
   -0.6074  -24.3052  -16.2955 C   0  0  0  0  0  0  0  0  0  0  0  0
    0.6441  -24.2617  -17.1373 C   0  0  0  0  0  0  0  0  0  0  0  0
   -1.7889  -24.5836  -18.4315 C   0  0  0  0  0  0  0  0  0  0  0  0
   -0.1048  -24.2866  -20.3054 C   0  0  0  0  0  0  0  0  0  0  0  0
   -0.1916  -23.4184  -21.4084 C   0  0  0  0  0  0  0  0  0  0  0  0
    0.6047  -23.5064  -22.4052 C   0  0  0  0  0  0  0  0  0  0  0  0
    1.6802  -24.4723  -22.5400 C   0  0  0  0  0  0  0  0  0  0  0  0
    2.6382  -24.3308  -23.6224 C   0  0  0  0  0  0  0  0  0  0  0  0
    3.5316  -25.0683  -25.7862 C   0  0  0  0  0  0  0  0  0  0  0  0
    3.0799  -25.9706  -26.9437 C   0  0  0  0  0  0  0  0  0  0  0  0
    1.2244  -24.9267  -28.1953 C   0  0  0  0  0  0  0  0  0  0  0  0
    0.6375  -24.3952  -29.4529 C   0  0  0  0  0  0  0  0  0  0  0  0
    1.7880  -25.3377  -21.4916 C   0  0  0  0  0  0  0  0  0  0  0  0
    0.9586  -25.2729  -20.4249 C   0  0  0  0  0  0  0  0  0  0  0  0
    1.0922  -26.2578  -19.3188 C   0  0  0  0  0  0  0  0  0  0  0  0
   -0.0198  -22.9302  -24.7980 C   0  0  0  0  0  0  0  0  0  0  0  0
    0.2878  -21.7466  -25.6455 C   0  0  0  0  0  0  0  0  0  0  0  0
   -0.3095  -20.5310  -25.6034 C   0  0  0  0  0  0  0  0  0  0  0  0
    1.1778  -19.5473  -27.2070 C   0  0  0  0  0  0  0  0  0  0  0  0
    1.8053  -20.7920  -27.2575 C   0  0  0  0  0  0  0  0  0  0  0  0
    1.3873  -21.8394  -26.5229 C   0  0  0  0  0  0  0  0  0  0  0  0
    2.8689  -20.9692  -28.2488 C   0  0  0  0  0  0  0  0  0  0  0  0
    1.5797  -24.8854   -7.6130 C   0  0  0  0  0  0  0  0  0  0  0  0
    0.9188  -25.4689   -6.5572 C   0  0  0  0  0  0  0  0  0  0  0  0
    2.4579  -23.7473   -7.3060 C   0  0  0  0  0  0  0  0  0  0  0  0
    2.4346  -24.8513  -24.8942 N   0  0  0  0  0  4  0  0  0  0  0  0
    2.6417  -25.2065  -28.0674 N   0  0  0  0  0  0  0  0  0  0  0  0
    0.1243  -19.4827  -26.3568 N   0  0  0  0  0  0  0  0  0  0  0  0
    3.6655  -21.1089  -28.9732 N   0  0  0  0  0  0  0  0  0  0  0  0
    0.4714  -25.1381  -27.2168 O   0  0  0  0  0  0  0  0  0  0  0  0
    0.6292  -22.7519  -23.6269 O   0  0  0  0  0  0  0  0  0  0  0  0
  3  1  1  0
  1 17  1  0
  9  2  3  0
  4  3  1  0
  5  4  2  0
  4 61  1  0
 14  5  1  0
  5 20  1  0
  6  7  1  0
 20  6  1  0
  7 13  2  0
  7 18  1  0
 12  8  2  0
 19  8  1  0
 12  9  1  0
 10 14  2  0
 21 10  1  0
 10 60  1  0
 23 11  1  0
 11 24  1  0
 11 25  2  0
 13 12  1  0
 15 21  1  0
 26 15  1  0
 17 16  1  0
 16 23  1  0
 18 19  2  0
 22 40  1  0
 41 22  1  0
 26 27  2  0
 31 26  1  0
 28 27  1  0
 29 28  2  0
 30 29  1  0
 30 31  2  0
 33 30  1  0
 31 32  1  0
 33 34  2  0
 38 33  1  0
 35 34  1  0
 36 35  2  0
 37 36  1  0
 37 38  2  0
 40 37  1  0
 38 39  1  0
 42 41  2  0
 41 51  1  0
 43 42  1  0
 43 44  2  0
 68 43  1  0
 44 45  1  0
 44 50  1  0
 45 63  1  0
 46 47  1  0
 63 46  1  0
 47 64  1  0
 48 49  1  0
 64 48  1  0
 48 67  2  0
 50 51  2  0
 51 52  1  0
 54 53  1  0
 53 68  1  0
 55 54  2  0
 54 58  1  0
 65 55  1  0
 56 57  1  0
 56 65  2  0
 57 58  2  0
 57 59  1  0
 59 66  3  0
 60 61  2  0
 60 62  1  0
M  CHG  2   1   1  63   1
M  END
$$$$
