
     RDKit          3D

 68 73  0  0  0  0  0  0  0  0999 V2000
    1.5036  -24.9017  -25.8793 N   0  0  0  0  0  4  0  0  0  0  0  0
    8.6483  -20.5361  -24.5026 N   0  0  0  0  0  0  0  0  0  0  0  0
    2.0096  -24.8368  -24.5457 C   0  0  0  0  0  0  0  0  0  0  0  0
    1.0521  -24.9513  -23.4413 C   0  0  0  0  0  0  0  0  0  0  0  0
    1.7320  -24.5708  -22.1021 C   0  0  0  0  0  0  0  0  0  0  0  0
    4.2291  -24.1068  -22.1321 C   0  0  0  0  0  0  0  0  0  0  0  0
    4.7346  -22.9690  -22.7543 C   0  0  0  0  0  0  0  0  0  0  0  0
    5.2182  -20.5507  -24.2458 C   0  0  0  0  0  0  0  0  0  0  0  0
    7.5530  -20.9243  -24.1406 C   0  0  0  0  0  0  0  0  0  0  0  0
   -0.5813  -24.9070  -21.1860 C   0  0  0  0  0  0  0  0  0  0  0  0
    3.5676  -22.2163  -28.4763 C   0  0  0  0  0  0  0  0  0  0  0  0
    6.2862  -21.3847  -23.7431 C   0  0  0  0  0  0  0  0  0  0  0  0
    5.9661  -22.5101  -23.0423 C   0  0  0  0  0  0  0  0  0  0  0  0
    0.7825  -24.5910  -21.0822 C   0  0  0  0  0  0  0  0  0  0  0  0
   -2.3903  -24.7666  -19.3498 C   0  0  0  0  0  0  0  0  0  0  0  0
    1.7273  -23.8301  -28.0654 C   0  0  0  0  0  0  0  0  0  0  0  0
    1.2321  -23.7660  -26.6289 C   0  0  0  0  0  0  0  0  0  0  0  0
    3.6833  -21.9851  -23.3579 C   0  0  0  0  0  0  0  0  0  0  0  0
    4.0358  -21.0711  -23.9195 N   0  0  0  0  0  0  0  0  0  0  0  0
    2.8967  -24.3200  -22.0622 O   0  0  0  0  0  0  0  0  0  0  0  0
   -1.4748  -24.9078  -20.2399 O   0  0  0  0  0  0  0  0  0  0  0  0
    1.4394  -25.2752  -11.4544 O   0  0  0  0  0  0  0  0  0  0  0  0
    3.1357  -23.5152  -28.1179 N   0  0  0  0  0  0  0  0  0  0  0  0
    4.7224  -21.9747  -29.4165 C   0  0  0  0  0  0  0  0  0  0  0  0
    3.0009  -21.1602  -28.0218 O   0  0  0  0  0  0  0  0  0  0  0  0
   -2.3695  -25.5701  -18.1212 C   0  0  0  0  0  0  0  0  0  0  0  0
   -2.6952  -27.0198  -18.3301 C   0  0  0  0  0  0  0  0  0  0  0  0
   -2.6404  -27.8300  -17.3973 C   0  0  0  0  0  0  0  0  0  0  0  0
   -2.2732  -27.5214  -16.0714 C   0  0  0  0  0  0  0  0  0  0  0  0
   -1.9705  -26.2855  -15.7737 C   0  0  0  0  0  0  0  0  0  0  0  0
   -2.0207  -25.2636  -16.8430 C   0  0  0  0  0  0  0  0  0  0  0  0
   -1.6942  -23.8956  -16.4396 C   0  0  0  0  0  0  0  0  0  0  0  0
   -1.7302  -25.8204  -14.4172 C   0  0  0  0  0  0  0  0  0  0  0  0
   -2.7757  -25.9302  -13.4298 C   0  0  0  0  0  0  0  0  0  0  0  0
   -2.6456  -25.4999  -12.1411 C   0  0  0  0  0  0  0  0  0  0  0  0
   -1.3308  -24.9030  -11.8349 C   0  0  0  0  0  0  0  0  0  0  0  0
   -0.4964  -24.8407  -12.6783 C   0  0  0  0  0  0  0  0  0  0  0  0
   -0.5202  -25.2538  -14.0640 C   0  0  0  0  0  0  0  0  0  0  0  0
    0.6334  -25.0765  -14.9202 C   0  0  0  0  0  0  0  0  0  0  0  0
    0.9934  -24.3973  -12.3093 C   0  0  0  0  0  0  0  0  0  0  0  0
    2.4934  -25.8721  -10.8325 C   0  0  0  0  0  0  0  0  0  0  0  0
    3.7860  -25.8560  -11.7244 C   0  0  0  0  0  0  0  0  0  0  0  0
    4.7621  -26.5362  -11.0489 C   0  0  0  0  0  0  0  0  0  0  0  0
    4.7587  -27.1446   -9.7954 C   0  0  0  0  0  0  0  0  0  0  0  0
    6.0123  -27.8633   -9.3309 C   0  0  0  0  0  0  0  0  0  0  0  0
    5.8040  -28.2884   -6.9044 C   0  0  0  0  0  0  0  0  0  0  0  0
    5.5058  -29.3672   -5.8571 C   0  0  0  0  0  0  0  0  0  0  0  0
    7.4641  -29.2728   -4.2908 C   0  0  0  0  0  0  0  0  0  0  0  0
    7.5556  -30.2587   -3.0314 C   0  0  0  0  0  0  0  0  0  0  0  0
    3.6272  -27.0833   -9.0967 C   0  0  0  0  0  0  0  0  0  0  0  0
    2.5415  -26.4169   -9.7219 C   0  0  0  0  0  0  0  0  0  0  0  0
    1.3033  -26.3829   -8.7937 C   0  0  0  0  0  0  0  0  0  0  0  0
    6.3361  -27.6476  -12.7033 C   0  0  0  0  0  0  0  0  0  0  0  0
    6.0073  -27.1308  -14.0520 C   0  0  0  0  0  0  0  0  0  0  0  0
    6.8568  -25.9523  -14.4694 C   0  0  0  0  0  0  0  0  0  0  0  0
    5.4955  -25.7072  -16.2656 C   0  0  0  0  0  0  0  0  0  0  0  0
    4.6794  -26.6628  -16.0601 C   0  0  0  0  0  0  0  0  0  0  0  0
    4.9996  -27.3983  -14.8525 C   0  0  0  0  0  0  0  0  0  0  0  0
    3.5035  -26.9814  -16.7791 C   0  0  0  0  0  0  0  0  0  0  0  0
   -1.0249  -25.2346  -22.4418 C   0  0  0  0  0  0  0  0  0  0  0  0
   -0.2080  -25.2497  -23.5369 C   0  0  0  0  0  0  0  0  0  0  0  0
   -2.4512  -25.6734  -22.6421 C   0  0  0  0  0  0  0  0  0  0  0  0
    5.7208  -28.7354   -8.2577 N   0  0  0  0  0  4  0  0  0  0  0  0
    6.7466  -29.8738   -5.3646 N   0  0  0  0  0  0  0  0  0  0  0  0
    6.5564  -25.2828  -15.5764 N   0  0  0  0  0  0  0  0  0  0  0  0
    2.4521  -27.2883  -17.4273 N   0  0  0  0  0  0  0  0  0  0  0  0
    7.9896  -28.2250   -4.1590 O   0  0  0  0  0  0  0  0  0  0  0  0
    5.9965  -26.7115  -11.7317 O   0  0  0  0  0  0  0  0  0  0  0  0
  1  3  1  1
  1 17  1  0
  9  2  3  0
  3  4  1  6
  5  4  2  0
  4 61  1  0
 14  5  1  0
  5 20  1  0
  6  7  1  0
  6 20  1  6
  7 13  2  0
  7 18  1  0
 12  8  2  0
 19  8  1  0
 12  9  1  0
 10 14  2  0
 21 10  1  0
 10 60  1  0
 23 11  1  0
 24 11  1  6
 11 25  2  0
 13 12  1  0
 15 21  1  1
 26 15  1  0
 17 16  1  6
 16 23  1  6
 18 19  2  0
 40 22  1  1
 41 22  1  0
 26 27  2  0
 31 26  1  0
 28 27  1  0
 29 28  2  0
 30 29  1  0
 30 31  2  0
 33 30  1  0
 32 31  1  6
 33 34  2  0
 38 33  1  0
 35 34  1  0
 36 35  2  0
 37 36  1  0
 37 38  2  0
 40 37  1  0
 39 38  1  6
 42 41  2  0
 41 51  1  0
 43 42  1  0
 43 44  2  0
 68 43  1  0
 45 44  1  1
 44 50  1  0
 63 45  1  1
 46 47  1  1
 63 46  1  0
 47 64  1  6
 49 48  1  6
 64 48  1  0
 48 67  2  0
 50 51  2  0
 52 51  1  6
 54 53  1  0
 53 68  1  6
 55 54  2  0
 54 58  1  0
 65 55  1  0
 56 57  1  0
 56 65  2  0
 57 58  2  0
 57 59  1  0
 59 66  3  0
 60 61  2  0
 62 60  1  6
M  CHG  2   1   1  63   1
M  END
$$$$
