
     RDKit          3D

 68 73  0  0  0  0  0  0  0  0999 V2000
    4.1261  -23.6087  -24.8640 N   0  0  0  0  0  4  0  0  0  0  0  0
    9.8041  -24.4533  -26.5434 N   0  0  0  0  0  0  0  0  0  0  0  0
    3.5811  -24.8984  -24.5441 C   0  0  0  0  0  0  0  0  0  0  0  0
    3.0397  -24.7990  -23.1503 C   0  0  0  0  0  0  0  0  0  0  0  0
    3.9000  -24.6779  -22.0570 C   0  0  0  0  0  0  0  0  0  0  0  0
    6.3247  -25.2252  -21.7620 C   0  0  0  0  0  0  0  0  0  0  0  0
    7.6012  -24.6177  -22.2214 C   0  0  0  0  0  0  0  0  0  0  0  0
    9.9400  -23.5418  -23.1576 C   0  0  0  0  0  0  0  0  0  0  0  0
    9.5215  -24.3743  -25.3781 C   0  0  0  0  0  0  0  0  0  0  0  0
    2.0321  -24.8329  -20.5236 C   0  0  0  0  0  0  0  0  0  0  0  0
    5.9480  -21.4323  -27.5628 C   0  0  0  0  0  0  0  0  0  0  0  0
    9.1893  -24.2933  -24.0173 C   0  0  0  0  0  0  0  0  0  0  0  0
    7.9995  -24.8406  -23.5172 C   0  0  0  0  0  0  0  0  0  0  0  0
    3.3645  -24.6997  -20.7696 C   0  0  0  0  0  0  0  0  0  0  0  0
    0.4468  -24.1183  -18.7362 C   0  0  0  0  0  0  0  0  0  0  0  0
    3.7211  -22.4265  -26.9432 C   0  0  0  0  0  0  0  0  0  0  0  0
    3.1534  -22.7687  -25.5681 C   0  0  0  0  0  0  0  0  0  0  0  0
    8.3958  -23.8483  -21.3925 C   0  0  0  0  0  0  0  0  0  0  0  0
    9.5288  -23.3458  -21.8971 N   0  0  0  0  0  0  0  0  0  0  0  0
    5.2372  -24.5270  -22.2919 O   0  0  0  0  0  0  0  0  0  0  0  0
    1.4736  -24.8721  -19.3020 O   0  0  0  0  0  0  0  0  0  0  0  0
   -7.3368  -24.1533  -16.4083 O   0  0  0  0  0  0  0  0  0  0  0  0
    4.7624  -21.4537  -26.7819 N   0  0  0  0  0  0  0  0  0  0  0  0
    6.3222  -20.1999  -28.3434 C   0  0  0  0  0  0  0  0  0  0  0  0
    6.6886  -22.4438  -27.6075 O   0  0  0  0  0  0  0  0  0  0  0  0
    0.1780  -24.3711  -17.3124 C   0  0  0  0  0  0  0  0  0  0  0  0
    1.0441  -24.2477  -16.2880 C   0  0  0  0  0  0  0  0  0  0  0  0
    0.7173  -24.4113  -14.9199 C   0  0  0  0  0  0  0  0  0  0  0  0
   -0.5987  -24.7216  -14.6450 C   0  0  0  0  0  0  0  0  0  0  0  0
   -1.5373  -24.8703  -15.6178 C   0  0  0  0  0  0  0  0  0  0  0  0
   -1.1719  -24.6959  -16.9424 C   0  0  0  0  0  0  0  0  0  0  0  0
   -2.1674  -24.8932  -17.9673 C   0  0  0  0  0  0  0  0  0  0  0  0
   -2.9289  -25.2852  -15.3008 C   0  0  0  0  0  0  0  0  0  0  0  0
   -3.1825  -26.5443  -14.7805 C   0  0  0  0  0  0  0  0  0  0  0  0
   -4.4713  -26.9581  -14.4548 C   0  0  0  0  0  0  0  0  0  0  0  0
   -5.5584  -26.1068  -14.6487 C   0  0  0  0  0  0  0  0  0  0  0  0
   -5.3181  -24.8714  -15.1616 C   0  0  0  0  0  0  0  0  0  0  0  0
   -4.0016  -24.4709  -15.4811 C   0  0  0  0  0  0  0  0  0  0  0  0
   -3.8116  -23.0645  -15.9937 C   0  0  0  0  0  0  0  0  0  0  0  0
   -6.4015  -23.9479  -15.5355 C   0  0  0  0  0  0  0  0  0  0  0  0
   -8.5231  -24.2588  -16.8913 C   0  0  0  0  0  0  0  0  0  0  0  0
   -9.6487  -23.4172  -16.8412 C   0  0  0  0  0  0  0  0  0  0  0  0
  -10.7503  -23.7231  -17.4142 C   0  0  0  0  0  0  0  0  0  0  0  0
  -10.9933  -24.9333  -18.1785 C   0  0  0  0  0  0  0  0  0  0  0  0
  -12.2183  -25.0601  -18.9485 C   0  0  0  0  0  0  0  0  0  0  0  0
  -13.6561  -24.4635  -20.8460 C   0  0  0  0  0  0  0  0  0  0  0  0
  -13.7187  -23.3866  -21.9390 C   0  0  0  0  0  0  0  0  0  0  0  0
  -13.5990  -20.9749  -21.4213 C   0  0  0  0  0  0  0  0  0  0  0  0
  -14.1744  -19.7078  -20.8997 C   0  0  0  0  0  0  0  0  0  0  0  0
   -9.9250  -25.7786  -18.2402 C   0  0  0  0  0  0  0  0  0  0  0  0
   -8.7479  -25.4854  -17.6415 C   0  0  0  0  0  0  0  0  0  0  0  0
   -7.6196  -26.4518  -17.7077 C   0  0  0  0  0  0  0  0  0  0  0  0
  -12.3461  -21.8140  -17.9207 C   0  0  0  0  0  0  0  0  0  0  0  0
  -13.7882  -21.6146  -17.6137 C   0  0  0  0  0  0  0  0  0  0  0  0
  -14.6359  -22.5056  -17.0446 C   0  0  0  0  0  0  0  0  0  0  0  0
  -16.4597  -20.9542  -16.9105 C   0  0  0  0  0  0  0  0  0  0  0  0
  -15.5970  -20.0251  -17.4919 C   0  0  0  0  0  0  0  0  0  0  0  0
  -14.3310  -20.3317  -17.8305 C   0  0  0  0  0  0  0  0  0  0  0  0
  -16.1573  -18.7207  -17.8524 C   0  0  0  0  0  0  0  0  0  0  0  0
    1.2143  -24.9482  -21.6441 C   0  0  0  0  0  0  0  0  0  0  0  0
    1.6839  -24.9347  -22.9370 C   0  0  0  0  0  0  0  0  0  0  0  0
   -0.2359  -25.1019  -21.4605 C   0  0  0  0  0  0  0  0  0  0  0  0
  -12.5949  -24.1590  -19.9365 N   0  0  0  0  0  4  0  0  0  0  0  0
  -14.3687  -22.2028  -21.4757 N   0  0  0  0  0  0  0  0  0  0  0  0
  -15.9156  -22.1795  -16.7119 N   0  0  0  0  0  0  0  0  0  0  0  0
  -16.5746  -17.7588  -18.1342 N   0  0  0  0  0  0  0  0  0  0  0  0
  -12.4137  -20.9808  -21.8265 O   0  0  0  0  0  0  0  0  0  0  0  0
  -12.0036  -23.0219  -17.4225 O   0  0  0  0  0  0  0  0  0  0  0  0
  3  1  1  0
  1 17  1  0
  9  2  3  0
  4  3  1  0
  5  4  2  0
  4 61  1  0
 14  5  1  0
  5 20  1  0
  6  7  1  0
 20  6  1  0
  7 13  2  0
  7 18  1  0
 12  8  2  0
 19  8  1  0
 12  9  1  0
 10 14  2  0
 21 10  1  0
 10 60  1  0
 23 11  1  0
 11 24  1  0
 11 25  2  0
 13 12  1  0
 15 21  1  0
 26 15  1  0
 17 16  1  0
 16 23  1  0
 18 19  2  0
 22 40  1  0
 41 22  1  0
 26 27  2  0
 31 26  1  0
 28 27  1  0
 29 28  2  0
 30 29  1  0
 30 31  2  0
 33 30  1  0
 31 32  1  0
 33 34  2  0
 38 33  1  0
 35 34  1  0
 36 35  2  0
 37 36  1  0
 37 38  2  0
 40 37  1  0
 38 39  1  0
 42 41  2  0
 41 51  1  0
 43 42  1  0
 43 44  2  0
 68 43  1  0
 44 45  1  0
 44 50  1  0
 45 63  1  0
 46 47  1  0
 63 46  1  0
 47 64  1  0
 48 49  1  0
 64 48  1  0
 48 67  2  0
 50 51  2  0
 51 52  1  0
 54 53  1  0
 53 68  1  0
 55 54  2  0
 54 58  1  0
 65 55  1  0
 56 57  1  0
 56 65  2  0
 57 58  2  0
 57 59  1  0
 59 66  3  0
 60 61  2  0
 60 62  1  0
M  CHG  2   1   1  63   1
M  END
$$$$
