
     RDKit          3D

 68 73  0  0  0  0  0  0  0  0999 V2000
   -1.4186  -27.7482   -4.2329 N   0  0  0  0  0  4  0  0  0  0  0  0
    3.0814  -29.8318   -8.0830 N   0  0  0  0  0  0  0  0  0  0  0  0
   -2.3135  -26.6353   -4.3854 C   0  0  0  0  0  0  0  0  0  0  0  0
   -2.4590  -26.4036   -5.8588 C   0  0  0  0  0  0  0  0  0  0  0  0
   -1.5966  -25.5372   -6.5340 C   0  0  0  0  0  0  0  0  0  0  0  0
    0.7302  -24.6439   -6.3026 C   0  0  0  0  0  0  0  0  0  0  0  0
    1.7200  -25.6921   -5.9406 C   0  0  0  0  0  0  0  0  0  0  0  0
    3.5109  -27.6793   -5.3507 C   0  0  0  0  0  0  0  0  0  0  0  0
    2.9031  -28.9161   -7.3254 C   0  0  0  0  0  0  0  0  0  0  0  0
   -2.8701  -25.8030   -8.5765 C   0  0  0  0  0  0  0  0  0  0  0  0
   -2.3933  -29.9411   -1.1795 C   0  0  0  0  0  0  0  0  0  0  0  0
    2.7058  -27.8436   -6.4425 C   0  0  0  0  0  0  0  0  0  0  0  0
    1.7915  -26.8188   -6.7236 C   0  0  0  0  0  0  0  0  0  0  0  0
   -1.8324  -25.2624   -7.8807 C   0  0  0  0  0  0  0  0  0  0  0  0
   -2.4217  -25.8323  -11.0295 C   0  0  0  0  0  0  0  0  0  0  0  0
   -2.4035  -27.5706   -2.0232 C   0  0  0  0  0  0  0  0  0  0  0  0
   -1.2098  -28.0866   -2.8224 C   0  0  0  0  0  0  0  0  0  0  0  0
    2.5583  -25.5735   -4.8481 C   0  0  0  0  0  0  0  0  0  0  0  0
    3.4150  -26.5717   -4.6020 N   0  0  0  0  0  0  0  0  0  0  0  0
   -0.5420  -25.0017   -5.8505 O   0  0  0  0  0  0  0  0  0  0  0  0
   -3.1432  -25.5570   -9.8691 O   0  0  0  0  0  0  0  0  0  0  0  0
    0.4021  -24.6895  -19.9693 O   0  0  0  0  0  0  0  0  0  0  0  0
   -3.0165  -28.6763   -1.3461 N   0  0  0  0  0  0  0  0  0  0  0  0
   -3.0791  -31.1951   -1.6542 C   0  0  0  0  0  0  0  0  0  0  0  0
   -1.2671  -30.0189   -0.6324 O   0  0  0  0  0  0  0  0  0  0  0  0
   -3.0358  -25.3789  -12.2868 C   0  0  0  0  0  0  0  0  0  0  0  0
   -4.1007  -24.5653  -12.4233 C   0  0  0  0  0  0  0  0  0  0  0  0
   -4.6022  -24.0786  -13.6550 C   0  0  0  0  0  0  0  0  0  0  0  0
   -3.9274  -24.4873  -14.7870 C   0  0  0  0  0  0  0  0  0  0  0  0
   -2.8470  -25.3118  -14.7409 C   0  0  0  0  0  0  0  0  0  0  0  0
   -2.3892  -25.7588  -13.5124 C   0  0  0  0  0  0  0  0  0  0  0  0
   -1.2658  -26.6628  -13.4790 C   0  0  0  0  0  0  0  0  0  0  0  0
   -2.1882  -25.8028  -15.9795 C   0  0  0  0  0  0  0  0  0  0  0  0
   -2.1874  -27.1549  -16.2830 C   0  0  0  0  0  0  0  0  0  0  0  0
   -1.5965  -27.6466  -17.4437 C   0  0  0  0  0  0  0  0  0  0  0  0
   -0.9775  -26.7807  -18.3444 C   0  0  0  0  0  0  0  0  0  0  0  0
   -0.9714  -25.4534  -18.0523 C   0  0  0  0  0  0  0  0  0  0  0  0
   -1.5809  -24.9761  -16.8706 C   0  0  0  0  0  0  0  0  0  0  0  0
   -1.5802  -23.4840  -16.6460 C   0  0  0  0  0  0  0  0  0  0  0  0
   -0.2287  -24.4714  -18.8588 C   0  0  0  0  0  0  0  0  0  0  0  0
    0.6071  -24.7691  -21.2355 C   0  0  0  0  0  0  0  0  0  0  0  0
    0.0121  -24.1290  -22.3374 C   0  0  0  0  0  0  0  0  0  0  0  0
    0.3877  -24.3570  -23.5384 C   0  0  0  0  0  0  0  0  0  0  0  0
    1.4476  -25.2688  -23.9295 C   0  0  0  0  0  0  0  0  0  0  0  0
    1.9122  -25.2786  -25.3056 C   0  0  0  0  0  0  0  0  0  0  0  0
    3.9563  -23.9592  -24.9825 C   0  0  0  0  0  0  0  0  0  0  0  0
    5.2761  -24.4498  -25.5953 C   0  0  0  0  0  0  0  0  0  0  0  0
    7.5158  -23.6900  -26.3064 C   0  0  0  0  0  0  0  0  0  0  0  0
    8.7537  -23.2679  -25.6006 C   0  0  0  0  0  0  0  0  0  0  0  0
    2.0414  -25.9153  -22.8859 C   0  0  0  0  0  0  0  0  0  0  0  0
    1.6640  -25.6988  -21.6050 C   0  0  0  0  0  0  0  0  0  0  0  0
    2.3176  -26.4502  -20.5007 C   0  0  0  0  0  0  0  0  0  0  0  0
   -0.5822  -22.6153  -25.1110 C   0  0  0  0  0  0  0  0  0  0  0  0
   -1.0650  -22.7028  -26.5156 C   0  0  0  0  0  0  0  0  0  0  0  0
   -1.9460  -23.5974  -27.0252 C   0  0  0  0  0  0  0  0  0  0  0  0
   -2.0240  -22.5586  -29.1853 C   0  0  0  0  0  0  0  0  0  0  0  0
   -1.1202  -21.6278  -28.6730 C   0  0  0  0  0  0  0  0  0  0  0  0
   -0.6591  -21.6916  -27.4101 C   0  0  0  0  0  0  0  0  0  0  0  0
   -0.5743  -20.6375  -29.6040 C   0  0  0  0  0  0  0  0  0  0  0  0
   -3.7009  -26.6616   -7.8622 C   0  0  0  0  0  0  0  0  0  0  0  0
   -3.5201  -26.9696   -6.5339 C   0  0  0  0  0  0  0  0  0  0  0  0
   -4.8477  -27.2802   -8.5426 C   0  0  0  0  0  0  0  0  0  0  0  0
    2.8624  -24.3920  -25.7963 N   0  0  0  0  0  4  0  0  0  0  0  0
    6.1954  -23.3757  -25.7956 N   0  0  0  0  0  0  0  0  0  0  0  0
   -2.3993  -23.5202  -28.3071 N   0  0  0  0  0  0  0  0  0  0  0  0
   -0.1733  -19.8922  -30.2840 N   0  0  0  0  0  0  0  0  0  0  0  0
    7.6175  -24.3360  -27.3749 O   0  0  0  0  0  0  0  0  0  0  0  0
   -0.1346  -23.8443  -24.7740 O   0  0  0  0  0  0  0  0  0  0  0  0
  3  1  1  0
  1 17  1  0
  9  2  3  0
  4  3  1  0
  5  4  2  0
  4 61  1  0
 14  5  1  0
  5 20  1  0
  6  7  1  0
 20  6  1  0
  7 13  2  0
  7 18  1  0
 12  8  2  0
 19  8  1  0
 12  9  1  0
 10 14  2  0
 21 10  1  0
 10 60  1  0
 23 11  1  0
 11 24  1  0
 11 25  2  0
 13 12  1  0
 15 21  1  0
 26 15  1  0
 17 16  1  0
 16 23  1  0
 18 19  2  0
 22 40  1  0
 41 22  1  0
 26 27  2  0
 31 26  1  0
 28 27  1  0
 29 28  2  0
 30 29  1  0
 30 31  2  0
 33 30  1  0
 31 32  1  0
 33 34  2  0
 38 33  1  0
 35 34  1  0
 36 35  2  0
 37 36  1  0
 37 38  2  0
 40 37  1  0
 38 39  1  0
 42 41  2  0
 41 51  1  0
 43 42  1  0
 43 44  2  0
 68 43  1  0
 44 45  1  0
 44 50  1  0
 45 63  1  0
 46 47  1  0
 63 46  1  0
 47 64  1  0
 48 49  1  0
 64 48  1  0
 48 67  2  0
 50 51  2  0
 51 52  1  0
 54 53  1  0
 53 68  1  0
 55 54  2  0
 54 58  1  0
 65 55  1  0
 56 57  1  0
 56 65  2  0
 57 58  2  0
 57 59  1  0
 59 66  3  0
 60 61  2  0
 60 62  1  0
M  CHG  2   1   1  63   1
M  END
$$$$
