
     RDKit          3D

 68 73  0  0  0  0  0  0  0  0999 V2000
   -2.0365  -28.5158   -3.6828 N   0  0  0  0  0  4  0  0  0  0  0  0
   -8.3510  -26.0647   -4.9385 N   0  0  0  0  0  0  0  0  0  0  0  0
   -2.4516  -27.4882   -4.5830 C   0  0  0  0  0  0  0  0  0  0  0  0
   -1.6264  -27.2393   -5.7691 C   0  0  0  0  0  0  0  0  0  0  0  0
   -1.3741  -25.7197   -5.9361 C   0  0  0  0  0  0  0  0  0  0  0  0
   -2.5687  -24.0178   -4.4773 C   0  0  0  0  0  0  0  0  0  0  0  0
   -3.8520  -24.2875   -4.0105 C   0  0  0  0  0  0  0  0  0  0  0  0
   -6.2466  -24.8341   -2.5027 C   0  0  0  0  0  0  0  0  0  0  0  0
   -7.3426  -25.5739   -4.4658 C   0  0  0  0  0  0  0  0  0  0  0  0
    0.0654  -26.4807   -7.8472 C   0  0  0  0  0  0  0  0  0  0  0  0
   -2.2090  -31.7639   -1.5684 C   0  0  0  0  0  0  0  0  0  0  0  0
   -6.1650  -25.0219   -3.9334 C   0  0  0  0  0  0  0  0  0  0  0  0
   -4.9925  -24.7334   -4.5677 C   0  0  0  0  0  0  0  0  0  0  0  0
   -0.5093  -25.5123   -7.0090 C   0  0  0  0  0  0  0  0  0  0  0  0
    1.6292  -25.9744   -9.8378 C   0  0  0  0  0  0  0  0  0  0  0  0
   -1.6291  -29.3550   -1.4230 C   0  0  0  0  0  0  0  0  0  0  0  0
   -2.5443  -28.6287   -2.3964 C   0  0  0  0  0  0  0  0  0  0  0  0
   -4.0752  -24.1371   -2.4727 C   0  0  0  0  0  0  0  0  0  0  0  0
   -5.0820  -24.3921   -2.0297 N   0  0  0  0  0  0  0  0  0  0  0  0
   -1.8932  -24.9341   -5.2050 O   0  0  0  0  0  0  0  0  0  0  0  0
    0.8887  -26.2924   -8.8373 O   0  0  0  0  0  0  0  0  0  0  0  0
    2.2823  -25.4821  -19.1667 O   0  0  0  0  0  0  0  0  0  0  0  0
   -1.3530  -30.6884   -1.9042 N   0  0  0  0  0  0  0  0  0  0  0  0
   -2.5900  -32.0848   -0.1444 C   0  0  0  0  0  0  0  0  0  0  0  0
   -2.7157  -32.5349   -2.4582 O   0  0  0  0  0  0  0  0  0  0  0  0
    1.1893  -26.2491  -11.2113 C   0  0  0  0  0  0  0  0  0  0  0  0
   -0.2841  -26.4987  -11.3457 C   0  0  0  0  0  0  0  0  0  0  0  0
   -0.8072  -26.6675  -12.4537 C   0  0  0  0  0  0  0  0  0  0  0  0
   -0.1261  -26.6417  -13.6880 C   0  0  0  0  0  0  0  0  0  0  0  0
    1.1641  -26.4342  -13.6906 C   0  0  0  0  0  0  0  0  0  0  0  0
    1.8541  -26.2294  -12.3975 C   0  0  0  0  0  0  0  0  0  0  0  0
    3.3014  -26.0262  -12.4671 C   0  0  0  0  0  0  0  0  0  0  0  0
    1.9937  -26.5405  -14.8800 C   0  0  0  0  0  0  0  0  0  0  0  0
    2.8802  -27.6678  -15.0328 C   0  0  0  0  0  0  0  0  0  0  0  0
    3.7092  -27.8368  -16.1038 C   0  0  0  0  0  0  0  0  0  0  0  0
    3.6257  -26.7571  -17.1068 C   0  0  0  0  0  0  0  0  0  0  0  0
    2.8748  -25.8513  -16.9426 C   0  0  0  0  0  0  0  0  0  0  0  0
    1.9616  -25.5650  -15.8584 C   0  0  0  0  0  0  0  0  0  0  0  0
    1.1292  -24.3808  -15.8707 C   0  0  0  0  0  0  0  0  0  0  0  0
    2.6178  -24.7931  -18.1116 C   0  0  0  0  0  0  0  0  0  0  0  0
    2.1464  -25.5589  -20.5194 C   0  0  0  0  0  0  0  0  0  0  0  0
    2.4412  -24.1832  -21.2172 C   0  0  0  0  0  0  0  0  0  0  0  0
    2.2103  -24.3417  -22.5563 C   0  0  0  0  0  0  0  0  0  0  0  0
    1.8205  -25.4564  -23.2959 C   0  0  0  0  0  0  0  0  0  0  0  0
    1.6107  -25.3016  -24.7913 C   0  0  0  0  0  0  0  0  0  0  0  0
    2.8552  -25.9807  -26.8167 C   0  0  0  0  0  0  0  0  0  0  0  0
    2.9094  -24.9149  -27.9170 C   0  0  0  0  0  0  0  0  0  0  0  0
    4.3189  -22.9621  -27.2122 C   0  0  0  0  0  0  0  0  0  0  0  0
    4.2452  -21.7831  -28.2943 C   0  0  0  0  0  0  0  0  0  0  0  0
    1.6212  -26.5883  -22.6241 C   0  0  0  0  0  0  0  0  0  0  0  0
    1.8117  -26.5235  -21.2195 C   0  0  0  0  0  0  0  0  0  0  0  0
    1.5863  -27.9080  -20.5650 C   0  0  0  0  0  0  0  0  0  0  0  0
    2.8393  -21.9250  -23.0180 C   0  0  0  0  0  0  0  0  0  0  0  0
    2.7232  -20.9935  -24.1639 C   0  0  0  0  0  0  0  0  0  0  0  0
    4.0073  -20.2599  -24.4767 C   0  0  0  0  0  0  0  0  0  0  0  0
    2.8312  -18.9840  -25.9356 C   0  0  0  0  0  0  0  0  0  0  0  0
    1.6711  -19.4880  -25.7891 C   0  0  0  0  0  0  0  0  0  0  0  0
    1.6677  -20.5674  -24.8213 C   0  0  0  0  0  0  0  0  0  0  0  0
    0.4482  -19.0508  -26.3498 C   0  0  0  0  0  0  0  0  0  0  0  0
   -0.2687  -27.7824   -7.5732 C   0  0  0  0  0  0  0  0  0  0  0  0
   -1.1000  -28.1350   -6.5479 C   0  0  0  0  0  0  0  0  0  0  0  0
    0.2261  -28.8874   -8.4681 C   0  0  0  0  0  0  0  0  0  0  0  0
    2.8303  -25.4609  -25.4871 N   0  0  0  0  0  4  0  0  0  0  0  0
    4.1629  -24.2370  -27.8280 N   0  0  0  0  0  0  0  0  0  0  0  0
    4.0021  -19.2714  -25.3636 N   0  0  0  0  0  0  0  0  0  0  0  0
   -0.6626  -18.6711  -26.8418 N   0  0  0  0  0  0  0  0  0  0  0  0
    4.4817  -22.6209  -26.0947 O   0  0  0  0  0  0  0  0  0  0  0  0
    2.3376  -23.1766  -23.3607 O   0  0  0  0  0  0  0  0  0  0  0  0
  1  3  1  1
  1 17  1  0
  9  2  3  0
  3  4  1  6
  5  4  2  0
  4 61  1  0
 14  5  1  0
  5 20  1  0
  6  7  1  0
  6 20  1  6
  7 13  2  0
  7 18  1  0
 12  8  2  0
 19  8  1  0
 12  9  1  0
 10 14  2  0
 21 10  1  0
 10 60  1  0
 23 11  1  0
 24 11  1  6
 11 25  2  0
 13 12  1  0
 15 21  1  1
 26 15  1  0
 17 16  1  6
 16 23  1  6
 18 19  2  0
 40 22  1  1
 41 22  1  0
 26 27  2  0
 31 26  1  0
 28 27  1  0
 29 28  2  0
 30 29  1  0
 30 31  2  0
 33 30  1  0
 32 31  1  6
 33 34  2  0
 38 33  1  0
 35 34  1  0
 36 35  2  0
 37 36  1  0
 37 38  2  0
 40 37  1  0
 39 38  1  6
 42 41  2  0
 41 51  1  0
 43 42  1  0
 43 44  2  0
 68 43  1  0
 45 44  1  1
 44 50  1  0
 63 45  1  1
 46 47  1  1
 63 46  1  0
 47 64  1  6
 49 48  1  6
 64 48  1  0
 48 67  2  0
 50 51  2  0
 52 51  1  6
 54 53  1  0
 53 68  1  6
 55 54  2  0
 54 58  1  0
 65 55  1  0
 56 57  1  0
 56 65  2  0
 57 58  2  0
 57 59  1  0
 59 66  3  0
 60 61  2  0
 62 60  1  6
M  CHG  2   1   1  63   1
M  END
$$$$
