
     RDKit          3D

 68 73  0  0  0  0  0  0  0  0999 V2000
    4.3281  -27.5697  -13.9996 N   0  0  0  0  0  4  0  0  0  0  0  0
    0.7589  -22.8793   -7.4666 N   0  0  0  0  0  0  0  0  0  0  0  0
    3.0394  -27.8138  -14.5636 C   0  0  0  0  0  0  0  0  0  0  0  0
    2.5947  -26.9491  -15.6609 C   0  0  0  0  0  0  0  0  0  0  0  0
    1.4998  -25.9727  -15.1627 C   0  0  0  0  0  0  0  0  0  0  0  0
    0.6925  -26.0394  -12.7553 C   0  0  0  0  0  0  0  0  0  0  0  0
    1.0527  -24.9905  -11.9142 C   0  0  0  0  0  0  0  0  0  0  0  0
    2.2577  -22.7524  -10.5558 C   0  0  0  0  0  0  0  0  0  0  0  0
    0.9844  -23.2141   -8.6148 C   0  0  0  0  0  0  0  0  0  0  0  0
    1.6850  -25.0604  -17.4945 C   0  0  0  0  0  0  0  0  0  0  0  0
    7.8181  -26.9984  -12.8218 C   0  0  0  0  0  0  0  0  0  0  0  0
    1.2396  -23.5785   -9.9478 C   0  0  0  0  0  0  0  0  0  0  0  0
    0.7201  -24.6154  -10.6657 C   0  0  0  0  0  0  0  0  0  0  0  0
    1.1617  -25.0965  -16.1923 C   0  0  0  0  0  0  0  0  0  0  0  0
    0.9783  -23.5089  -19.4329 C   0  0  0  0  0  0  0  0  0  0  0  0
    5.5609  -27.4459  -11.8919 C   0  0  0  0  0  0  0  0  0  0  0  0
    4.5021  -26.8657  -12.8166 C   0  0  0  0  0  0  0  0  0  0  0  0
    2.1594  -24.0258  -12.4453 C   0  0  0  0  0  0  0  0  0  0  0  0
    2.5288  -23.1871  -11.7859 N   0  0  0  0  0  0  0  0  0  0  0  0
    1.0790  -26.0488  -14.0499 O   0  0  0  0  0  0  0  0  0  0  0  0
    1.3863  -24.2315  -18.4521 O   0  0  0  0  0  0  0  0  0  0  0  0
   -8.0512  -22.4088  -21.5037 O   0  0  0  0  0  0  0  0  0  0  0  0
    6.7113  -27.8646  -12.6580 N   0  0  0  0  0  0  0  0  0  0  0  0
    9.0477  -27.3901  -13.6033 C   0  0  0  0  0  0  0  0  0  0  0  0
    7.8436  -25.8219  -12.3137 O   0  0  0  0  0  0  0  0  0  0  0  0
   -0.2145  -23.8915  -20.1985 C   0  0  0  0  0  0  0  0  0  0  0  0
    0.0845  -24.5068  -21.5339 C   0  0  0  0  0  0  0  0  0  0  0  0
   -0.8198  -24.9470  -22.2538 C   0  0  0  0  0  0  0  0  0  0  0  0
   -2.1926  -24.9405  -21.9321 C   0  0  0  0  0  0  0  0  0  0  0  0
   -2.5692  -24.4253  -20.7918 C   0  0  0  0  0  0  0  0  0  0  0  0
   -1.5375  -23.8757  -19.8842 C   0  0  0  0  0  0  0  0  0  0  0  0
   -2.0264  -23.2920  -18.6348 C   0  0  0  0  0  0  0  0  0  0  0  0
   -3.9604  -24.2218  -20.4213 C   0  0  0  0  0  0  0  0  0  0  0  0
   -4.5474  -25.0306  -19.3814 C   0  0  0  0  0  0  0  0  0  0  0  0
   -5.8491  -24.9235  -18.9853 C   0  0  0  0  0  0  0  0  0  0  0  0
   -6.6196  -23.8996  -19.7181 C   0  0  0  0  0  0  0  0  0  0  0  0
   -6.0921  -23.2511  -20.5621 C   0  0  0  0  0  0  0  0  0  0  0  0
   -4.7369  -23.2779  -21.0664 C   0  0  0  0  0  0  0  0  0  0  0  0
   -4.3091  -22.3797  -22.1178 C   0  0  0  0  0  0  0  0  0  0  0  0
   -6.8474  -22.0018  -21.2111 C   0  0  0  0  0  0  0  0  0  0  0  0
   -9.3709  -22.4885  -21.1779 C   0  0  0  0  0  0  0  0  0  0  0  0
  -10.2119  -23.1868  -22.3056 C   0  0  0  0  0  0  0  0  0  0  0  0
  -11.5245  -23.1552  -21.9211 C   0  0  0  0  0  0  0  0  0  0  0  0
  -12.1327  -22.6634  -20.7680 C   0  0  0  0  0  0  0  0  0  0  0  0
  -13.6436  -22.7461  -20.6492 C   0  0  0  0  0  0  0  0  0  0  0  0
  -14.5190  -20.5243  -21.2891 C   0  0  0  0  0  0  0  0  0  0  0  0
  -15.2634  -19.2932  -20.7601 C   0  0  0  0  0  0  0  0  0  0  0  0
  -13.8820  -17.3164  -20.0668 C   0  0  0  0  0  0  0  0  0  0  0  0
  -14.5036  -16.2436  -19.0525 C   0  0  0  0  0  0  0  0  0  0  0  0
  -11.3376  -22.1141  -19.8523 C   0  0  0  0  0  0  0  0  0  0  0  0
   -9.9546  -22.0756  -20.1672 C   0  0  0  0  0  0  0  0  0  0  0  0
   -9.1397  -21.4494  -19.0097 C   0  0  0  0  0  0  0  0  0  0  0  0
  -12.6421  -24.9709  -23.3008 C   0  0  0  0  0  0  0  0  0  0  0  0
  -14.0361  -25.1761  -23.7577 C   0  0  0  0  0  0  0  0  0  0  0  0
  -14.8611  -26.0217  -22.8148 C   0  0  0  0  0  0  0  0  0  0  0  0
  -16.4893  -26.0525  -24.3920 C   0  0  0  0  0  0  0  0  0  0  0  0
  -15.9328  -25.3570  -25.3019 C   0  0  0  0  0  0  0  0  0  0  0  0
  -14.6106  -24.9100  -24.9096 C   0  0  0  0  0  0  0  0  0  0  0  0
  -16.3965  -25.0958  -26.6126 C   0  0  0  0  0  0  0  0  0  0  0  0
    2.6402  -26.0021  -17.7809 C   0  0  0  0  0  0  0  0  0  0  0  0
    3.0746  -26.9202  -16.8671 C   0  0  0  0  0  0  0  0  0  0  0  0
    3.1998  -26.1019  -19.1751 C   0  0  0  0  0  0  0  0  0  0  0  0
  -14.1872  -21.4913  -20.2925 N   0  0  0  0  0  4  0  0  0  0  0  0
  -14.4150  -18.6163  -19.8323 N   0  0  0  0  0  0  0  0  0  0  0  0
  -16.0709  -26.4283  -23.1818 N   0  0  0  0  0  0  0  0  0  0  0  0
  -16.7999  -24.8445  -27.7933 N   0  0  0  0  0  0  0  0  0  0  0  0
  -13.0935  -16.8951  -20.8366 O   0  0  0  0  0  0  0  0  0  0  0  0
  -12.4676  -23.6647  -22.8546 O   0  0  0  0  0  0  0  0  0  0  0  0
  1  3  1  1
  1 17  1  0
  9  2  3  0
  3  4  1  6
  5  4  2  0
  4 61  1  0
 14  5  1  0
  5 20  1  0
  6  7  1  0
  6 20  1  6
  7 13  2  0
  7 18  1  0
 12  8  2  0
 19  8  1  0
 12  9  1  0
 10 14  2  0
 21 10  1  0
 10 60  1  0
 23 11  1  0
 24 11  1  6
 11 25  2  0
 13 12  1  0
 15 21  1  1
 26 15  1  0
 17 16  1  6
 16 23  1  6
 18 19  2  0
 40 22  1  1
 41 22  1  0
 26 27  2  0
 31 26  1  0
 28 27  1  0
 29 28  2  0
 30 29  1  0
 30 31  2  0
 33 30  1  0
 32 31  1  6
 33 34  2  0
 38 33  1  0
 35 34  1  0
 36 35  2  0
 37 36  1  0
 37 38  2  0
 40 37  1  0
 39 38  1  6
 42 41  2  0
 41 51  1  0
 43 42  1  0
 43 44  2  0
 68 43  1  0
 45 44  1  1
 44 50  1  0
 63 45  1  1
 46 47  1  1
 63 46  1  0
 47 64  1  6
 49 48  1  6
 64 48  1  0
 48 67  2  0
 50 51  2  0
 52 51  1  6
 54 53  1  0
 53 68  1  6
 55 54  2  0
 54 58  1  0
 65 55  1  0
 56 57  1  0
 56 65  2  0
 57 58  2  0
 57 59  1  0
 59 66  3  0
 60 61  2  0
 62 60  1  6
M  CHG  2   1   1  63   1
M  END
$$$$
