
     RDKit          3D

 68 73  0  0  0  0  0  0  0  0999 V2000
    8.5608  -25.2196  -19.5695 N   0  0  0  0  0  4  0  0  0  0  0  0
    0.7508  -24.1846  -26.7368 N   0  0  0  0  0  0  0  0  0  0  0  0
    7.2862  -24.6241  -19.8135 C   0  0  0  0  0  0  0  0  0  0  0  0
    6.2200  -24.8579  -18.8347 C   0  0  0  0  0  0  0  0  0  0  0  0
    4.8335  -24.6470  -19.4932 C   0  0  0  0  0  0  0  0  0  0  0  0
    4.5654  -23.9298  -21.9150 C   0  0  0  0  0  0  0  0  0  0  0  0
    3.3806  -24.2515  -22.5708 C   0  0  0  0  0  0  0  0  0  0  0  0
    0.8695  -25.3262  -23.4907 C   0  0  0  0  0  0  0  0  0  0  0  0
    1.1832  -24.3124  -25.6063 C   0  0  0  0  0  0  0  0  0  0  0  0
    3.9952  -25.4082  -17.2522 C   0  0  0  0  0  0  0  0  0  0  0  0
   12.4194  -26.0018  -19.0813 C   0  0  0  0  0  0  0  0  0  0  0  0
    1.7004  -24.4731  -24.3095 C   0  0  0  0  0  0  0  0  0  0  0  0
    2.8721  -24.0048  -23.7917 C   0  0  0  0  0  0  0  0  0  0  0  0
    3.8349  -24.9687  -18.5759 C   0  0  0  0  0  0  0  0  0  0  0  0
    2.0599  -26.0722  -15.6781 C   0  0  0  0  0  0  0  0  0  0  0  0
   10.1348  -26.9402  -18.8353 C   0  0  0  0  0  0  0  0  0  0  0  0
    8.7014  -26.4400  -18.9244 C   0  0  0  0  0  0  0  0  0  0  0  0
    2.3939  -25.1843  -21.8002 C   0  0  0  0  0  0  0  0  0  0  0  0
    1.4403  -25.5208  -22.3024 N   0  0  0  0  0  0  0  0  0  0  0  0
    4.7478  -24.2623  -20.6182 O   0  0  0  0  0  0  0  0  0  0  0  0
    3.0660  -25.7284  -16.3994 O   0  0  0  0  0  0  0  0  0  0  0  0
   -1.0382  -26.1602   -6.8969 O   0  0  0  0  0  0  0  0  0  0  0  0
   11.0377  -25.9551  -19.3831 N   0  0  0  0  0  0  0  0  0  0  0  0
   13.3962  -24.9681  -19.5843 C   0  0  0  0  0  0  0  0  0  0  0  0
   12.9278  -26.9301  -18.3583 O   0  0  0  0  0  0  0  0  0  0  0  0
    1.8349  -25.4549  -14.3652 C   0  0  0  0  0  0  0  0  0  0  0  0
    2.8330  -24.3935  -14.0067 C   0  0  0  0  0  0  0  0  0  0  0  0
    2.7224  -23.7350  -12.9655 C   0  0  0  0  0  0  0  0  0  0  0  0
    1.6874  -23.8769  -12.0186 C   0  0  0  0  0  0  0  0  0  0  0  0
    0.7620  -24.7754  -12.2277 C   0  0  0  0  0  0  0  0  0  0  0  0
    0.8370  -25.6020  -13.4530 C   0  0  0  0  0  0  0  0  0  0  0  0
   -0.2151  -26.6055  -13.6161 C   0  0  0  0  0  0  0  0  0  0  0  0
   -0.2609  -25.1188  -11.2530 C   0  0  0  0  0  0  0  0  0  0  0  0
   -1.6438  -24.8226  -11.5358 C   0  0  0  0  0  0  0  0  0  0  0  0
   -2.6654  -25.0891  -10.6709 C   0  0  0  0  0  0  0  0  0  0  0  0
   -2.2352  -25.7124   -9.4038 C   0  0  0  0  0  0  0  0  0  0  0  0
   -1.0852  -25.9455   -9.2176 C   0  0  0  0  0  0  0  0  0  0  0  0
    0.0744  -25.7064  -10.0479 C   0  0  0  0  0  0  0  0  0  0  0  0
    1.4022  -26.0793   -9.6085 C   0  0  0  0  0  0  0  0  0  0  0  0
   -0.6307  -26.8086   -7.9523 C   0  0  0  0  0  0  0  0  0  0  0  0
   -1.0824  -26.0418   -5.5411 C   0  0  0  0  0  0  0  0  0  0  0  0
   -1.8088  -27.2617   -4.8696 C   0  0  0  0  0  0  0  0  0  0  0  0
   -1.8662  -27.0184   -3.5245 C   0  0  0  0  0  0  0  0  0  0  0  0
   -1.3855  -25.9564   -2.7614 C   0  0  0  0  0  0  0  0  0  0  0  0
   -1.6419  -25.9594   -1.2653 C   0  0  0  0  0  0  0  0  0  0  0  0
   -0.6530  -27.9677   -0.2162 C   0  0  0  0  0  0  0  0  0  0  0  0
   -0.8279  -28.3673    1.2533 C   0  0  0  0  0  0  0  0  0  0  0  0
   -2.2073  -30.3036    0.4508 C   0  0  0  0  0  0  0  0  0  0  0  0
   -1.4696  -31.6439    0.9260 C   0  0  0  0  0  0  0  0  0  0  0  0
   -0.7565  -24.9802   -3.4122 C   0  0  0  0  0  0  0  0  0  0  0  0
   -0.6643  -25.1259   -4.8207 C   0  0  0  0  0  0  0  0  0  0  0  0
    0.1186  -23.9482   -5.4499 C   0  0  0  0  0  0  0  0  0  0  0  0
   -3.9207  -28.3055   -2.7682 C   0  0  0  0  0  0  0  0  0  0  0  0
   -4.0861  -29.7711   -2.9051 C   0  0  0  0  0  0  0  0  0  0  0  0
   -5.0344  -30.1697   -4.0128 C   0  0  0  0  0  0  0  0  0  0  0  0
   -4.9079  -32.3001   -3.2480 C   0  0  0  0  0  0  0  0  0  0  0  0
   -4.1145  -32.1384   -2.2653 C   0  0  0  0  0  0  0  0  0  0  0  0
   -3.7022  -30.7558   -2.1236 C   0  0  0  0  0  0  0  0  0  0  0  0
   -3.7176  -33.0872   -1.2939 C   0  0  0  0  0  0  0  0  0  0  0  0
    5.2898  -25.5322  -16.8165 C   0  0  0  0  0  0  0  0  0  0  0  0
    6.3688  -25.2584  -17.6085 C   0  0  0  0  0  0  0  0  0  0  0  0
    5.5658  -25.9127  -15.3861 C   0  0  0  0  0  0  0  0  0  0  0  0
   -1.7697  -27.2812   -0.7819 N   0  0  0  0  0  4  0  0  0  0  0  0
   -1.9602  -29.2311    1.3549 N   0  0  0  0  0  0  0  0  0  0  0  0
   -5.4083  -31.4381   -4.1353 N   0  0  0  0  0  0  0  0  0  0  0  0
   -3.3808  -33.9466   -0.4176 N   0  0  0  0  0  0  0  0  0  0  0  0
   -2.8343  -30.3907   -0.5448 O   0  0  0  0  0  0  0  0  0  0  0  0
   -2.5701  -27.9726   -2.7405 O   0  0  0  0  0  0  0  0  0  0  0  0
  1  3  1  1
  1 17  1  0
  9  2  3  0
  3  4  1  6
  5  4  2  0
  4 61  1  0
 14  5  1  0
  5 20  1  0
  6  7  1  0
  6 20  1  6
  7 13  2  0
  7 18  1  0
 12  8  2  0
 19  8  1  0
 12  9  1  0
 10 14  2  0
 21 10  1  0
 10 60  1  0
 23 11  1  0
 24 11  1  6
 11 25  2  0
 13 12  1  0
 15 21  1  1
 26 15  1  0
 17 16  1  6
 16 23  1  6
 18 19  2  0
 40 22  1  1
 41 22  1  0
 26 27  2  0
 31 26  1  0
 28 27  1  0
 29 28  2  0
 30 29  1  0
 30 31  2  0
 33 30  1  0
 32 31  1  6
 33 34  2  0
 38 33  1  0
 35 34  1  0
 36 35  2  0
 37 36  1  0
 37 38  2  0
 40 37  1  0
 39 38  1  6
 42 41  2  0
 41 51  1  0
 43 42  1  0
 43 44  2  0
 68 43  1  0
 45 44  1  1
 44 50  1  0
 63 45  1  1
 46 47  1  1
 63 46  1  0
 47 64  1  6
 49 48  1  6
 64 48  1  0
 48 67  2  0
 50 51  2  0
 52 51  1  6
 54 53  1  0
 53 68  1  6
 55 54  2  0
 54 58  1  0
 65 55  1  0
 56 57  1  0
 56 65  2  0
 57 58  2  0
 57 59  1  0
 59 66  3  0
 60 61  2  0
 62 60  1  6
M  CHG  2   1   1  63   1
M  END
$$$$
