
     RDKit          3D

 68 73  0  0  0  0  0  0  0  0999 V2000
   -9.7351  -25.3444  -22.9526 N   0  0  0  0  0  4  0  0  0  0  0  0
   -3.3792  -22.9851  -30.3976 N   0  0  0  0  0  0  0  0  0  0  0  0
   -8.9426  -24.1568  -22.9415 C   0  0  0  0  0  0  0  0  0  0  0  0
   -7.5864  -24.2409  -22.3908 C   0  0  0  0  0  0  0  0  0  0  0  0
   -6.5603  -24.4718  -23.5285 C   0  0  0  0  0  0  0  0  0  0  0  0
   -7.2128  -24.8614  -25.9522 C   0  0  0  0  0  0  0  0  0  0  0  0
   -6.7507  -23.9992  -26.9423 C   0  0  0  0  0  0  0  0  0  0  0  0
   -6.3637  -22.0212  -29.0024 C   0  0  0  0  0  0  0  0  0  0  0  0
   -4.3078  -23.0231  -29.6117 C   0  0  0  0  0  0  0  0  0  0  0  0
   -4.9000  -24.2651  -21.6565 C   0  0  0  0  0  0  0  0  0  0  0  0
  -13.3135  -26.2213  -20.8506 C   0  0  0  0  0  0  0  0  0  0  0  0
   -5.3929  -23.0536  -28.7193 C   0  0  0  0  0  0  0  0  0  0  0  0
   -5.6557  -23.9465  -27.7223 C   0  0  0  0  0  0  0  0  0  0  0  0
   -5.2720  -24.4506  -22.9973 C   0  0  0  0  0  0  0  0  0  0  0  0
   -2.5771  -24.1934  -20.5325 C   0  0  0  0  0  0  0  0  0  0  0  0
  -11.8657  -24.5834  -22.0261 C   0  0  0  0  0  0  0  0  0  0  0  0
  -11.1119  -25.3193  -23.1229 C   0  0  0  0  0  0  0  0  0  0  0  0
   -7.7127  -22.8414  -27.3565 C   0  0  0  0  0  0  0  0  0  0  0  0
   -7.4133  -22.1415  -28.1904 N   0  0  0  0  0  0  0  0  0  0  0  0
   -6.9253  -24.6347  -24.6516 O   0  0  0  0  0  0  0  0  0  0  0  0
   -3.6979  -24.2249  -21.1598 O   0  0  0  0  0  0  0  0  0  0  0  0
    4.9322  -25.6802  -18.7313 O   0  0  0  0  0  0  0  0  0  0  0  0
  -12.1150  -25.4717  -20.9150 N   0  0  0  0  0  0  0  0  0  0  0  0
  -13.4559  -27.4533  -19.9917 C   0  0  0  0  0  0  0  0  0  0  0  0
  -14.3565  -25.8973  -21.5214 O   0  0  0  0  0  0  0  0  0  0  0  0
   -1.3479  -23.7747  -21.2174 C   0  0  0  0  0  0  0  0  0  0  0  0
   -1.5616  -23.2929  -22.6222 C   0  0  0  0  0  0  0  0  0  0  0  0
   -0.6275  -22.8371  -23.2927 C   0  0  0  0  0  0  0  0  0  0  0  0
    0.7043  -22.7047  -22.8490 C   0  0  0  0  0  0  0  0  0  0  0  0
    1.0064  -23.0959  -21.6393 C   0  0  0  0  0  0  0  0  0  0  0  0
   -0.0641  -23.6562  -20.7848 C   0  0  0  0  0  0  0  0  0  0  0  0
    0.3440  -24.0976  -19.4508 C   0  0  0  0  0  0  0  0  0  0  0  0
    2.3666  -23.1539  -21.1286 C   0  0  0  0  0  0  0  0  0  0  0  0
    3.0767  -21.9299  -20.8501 C   0  0  0  0  0  0  0  0  0  0  0  0
    4.3613  -21.8898  -20.3907 C   0  0  0  0  0  0  0  0  0  0  0  0
    4.9751  -23.2188  -20.2006 C   0  0  0  0  0  0  0  0  0  0  0  0
    4.3490  -24.2007  -20.4357 C   0  0  0  0  0  0  0  0  0  0  0  0
    2.9986  -24.3661  -20.9260 C   0  0  0  0  0  0  0  0  0  0  0  0
    2.4342  -25.6814  -21.1423 C   0  0  0  0  0  0  0  0  0  0  0  0
    4.9199  -25.6379  -20.0346 C   0  0  0  0  0  0  0  0  0  0  0  0
    5.2460  -26.3449  -17.5851 C   0  0  0  0  0  0  0  0  0  0  0  0
    4.7323  -25.5873  -16.3089 C   0  0  0  0  0  0  0  0  0  0  0  0
    5.1548  -26.2900  -15.2137 C   0  0  0  0  0  0  0  0  0  0  0  0
    5.8759  -27.4774  -15.1059 C   0  0  0  0  0  0  0  0  0  0  0  0
    6.2255  -27.9944  -13.7223 C   0  0  0  0  0  0  0  0  0  0  0  0
    8.3048  -28.7090  -12.5917 C   0  0  0  0  0  0  0  0  0  0  0  0
    9.3479  -29.5838  -13.2962 C   0  0  0  0  0  0  0  0  0  0  0  0
   11.4797  -29.2175  -14.5681 C   0  0  0  0  0  0  0  0  0  0  0  0
   11.7038  -28.4656  -15.9648 C   0  0  0  0  0  0  0  0  0  0  0  0
    6.2448  -28.0660  -16.2415 C   0  0  0  0  0  0  0  0  0  0  0  0
    5.8747  -27.4013  -17.4393 C   0  0  0  0  0  0  0  0  0  0  0  0
    6.3287  -28.2045  -18.6821 C   0  0  0  0  0  0  0  0  0  0  0  0
    5.7354  -25.1650  -13.0122 C   0  0  0  0  0  0  0  0  0  0  0  0
    4.9763  -24.4450  -11.9636 C   0  0  0  0  0  0  0  0  0  0  0  0
    5.8497  -23.8874  -10.8630 C   0  0  0  0  0  0  0  0  0  0  0  0
    3.9559  -23.3790   -9.7250 C   0  0  0  0  0  0  0  0  0  0  0  0
    3.0804  -23.8052  -10.5455 C   0  0  0  0  0  0  0  0  0  0  0  0
    3.6838  -24.3717  -11.7358 C   0  0  0  0  0  0  0  0  0  0  0  0
    1.6789  -23.8832  -10.3699 C   0  0  0  0  0  0  0  0  0  0  0  0
   -5.9308  -24.0852  -20.7698 C   0  0  0  0  0  0  0  0  0  0  0  0
   -7.2432  -24.0754  -21.1495 C   0  0  0  0  0  0  0  0  0  0  0  0
   -5.6403  -23.9651  -19.2973 C   0  0  0  0  0  0  0  0  0  0  0  0
    7.6011  -27.8139  -13.4532 N   0  0  0  0  0  4  0  0  0  0  0  0
   10.3196  -28.7300  -13.9008 N   0  0  0  0  0  0  0  0  0  0  0  0
    5.2894  -23.3712   -9.7751 N   0  0  0  0  0  0  0  0  0  0  0  0
    0.4155  -23.9373  -10.2258 N   0  0  0  0  0  0  0  0  0  0  0  0
   12.2819  -30.0382  -14.2949 O   0  0  0  0  0  0  0  0  0  0  0  0
    4.8640  -25.7170  -13.9458 O   0  0  0  0  0  0  0  0  0  0  0  0
  1  3  1  1
  1 17  1  0
  9  2  3  0
  3  4  1  6
  5  4  2  0
  4 61  1  0
 14  5  1  0
  5 20  1  0
  6  7  1  0
  6 20  1  6
  7 13  2  0
  7 18  1  0
 12  8  2  0
 19  8  1  0
 12  9  1  0
 10 14  2  0
 21 10  1  0
 10 60  1  0
 23 11  1  0
 24 11  1  6
 11 25  2  0
 13 12  1  0
 15 21  1  1
 26 15  1  0
 17 16  1  6
 16 23  1  6
 18 19  2  0
 40 22  1  1
 41 22  1  0
 26 27  2  0
 31 26  1  0
 28 27  1  0
 29 28  2  0
 30 29  1  0
 30 31  2  0
 33 30  1  0
 32 31  1  6
 33 34  2  0
 38 33  1  0
 35 34  1  0
 36 35  2  0
 37 36  1  0
 37 38  2  0
 40 37  1  0
 39 38  1  6
 42 41  2  0
 41 51  1  0
 43 42  1  0
 43 44  2  0
 68 43  1  0
 45 44  1  1
 44 50  1  0
 63 45  1  1
 46 47  1  1
 63 46  1  0
 47 64  1  6
 49 48  1  6
 64 48  1  0
 48 67  2  0
 50 51  2  0
 52 51  1  6
 54 53  1  0
 53 68  1  6
 55 54  2  0
 54 58  1  0
 65 55  1  0
 56 57  1  0
 56 65  2  0
 57 58  2  0
 57 59  1  0
 59 66  3  0
 60 61  2  0
 62 60  1  6
M  CHG  2   1   1  63   1
M  END
$$$$
