
     RDKit          3D

 68 73  0  0  0  0  0  0  0  0999 V2000
   -0.1937  -29.2086   -4.9636 N   0  0  0  0  0  4  0  0  0  0  0  0
   -8.5784  -25.1757   -8.0607 N   0  0  0  0  0  0  0  0  0  0  0  0
   -0.9117  -29.3704   -6.1969 C   0  0  0  0  0  0  0  0  0  0  0  0
   -0.4687  -28.2578   -7.0977 C   0  0  0  0  0  0  0  0  0  0  0  0
   -1.3773  -27.2965   -7.5452 C   0  0  0  0  0  0  0  0  0  0  0  0
   -3.1939  -26.6466   -5.9504 C   0  0  0  0  0  0  0  0  0  0  0  0
   -4.6450  -26.9460   -5.8307 C   0  0  0  0  0  0  0  0  0  0  0  0
   -7.3382  -27.4206   -5.6719 C   0  0  0  0  0  0  0  0  0  0  0  0
   -7.8082  -25.7390   -7.3301 C   0  0  0  0  0  0  0  0  0  0  0  0
    0.3170  -26.3007   -8.9600 C   0  0  0  0  0  0  0  0  0  0  0  0
    2.1314  -29.0374   -2.4952 C   0  0  0  0  0  0  0  0  0  0  0  0
   -6.9114  -26.4065   -6.4823 C   0  0  0  0  0  0  0  0  0  0  0  0
   -5.5302  -26.1752   -6.5447 C   0  0  0  0  0  0  0  0  0  0  0  0
   -0.9521  -26.3426   -8.4693 C   0  0  0  0  0  0  0  0  0  0  0  0
    0.1752  -24.2684  -10.3982 C   0  0  0  0  0  0  0  0  0  0  0  0
    0.8276  -30.9058   -3.5632 C   0  0  0  0  0  0  0  0  0  0  0  0
   -0.4919  -30.2871   -4.0173 C   0  0  0  0  0  0  0  0  0  0  0  0
   -5.1278  -27.9613   -5.0267 C   0  0  0  0  0  0  0  0  0  0  0  0
   -6.4516  -28.1526   -4.9830 N   0  0  0  0  0  0  0  0  0  0  0  0
   -2.6492  -27.3182   -7.0472 O   0  0  0  0  0  0  0  0  0  0  0  0
    0.7670  -25.4097   -9.8598 O   0  0  0  0  0  0  0  0  0  0  0  0
    2.0551  -24.7323  -19.4111 O   0  0  0  0  0  0  0  0  0  0  0  0
    1.8436  -29.8939   -3.5903 N   0  0  0  0  0  0  0  0  0  0  0  0
    3.4016  -29.2137   -1.7054 C   0  0  0  0  0  0  0  0  0  0  0  0
    1.3251  -28.1299   -2.1791 O   0  0  0  0  0  0  0  0  0  0  0  0
    0.9687  -23.5532  -11.4093 C   0  0  0  0  0  0  0  0  0  0  0  0
    1.3983  -22.2777  -11.3514 C   0  0  0  0  0  0  0  0  0  0  0  0
    2.2400  -21.6569  -12.3060 C   0  0  0  0  0  0  0  0  0  0  0  0
    2.6345  -22.4445  -13.3681 C   0  0  0  0  0  0  0  0  0  0  0  0
    2.2433  -23.7393  -13.5078 C   0  0  0  0  0  0  0  0  0  0  0  0
    1.4231  -24.3057  -12.5459 C   0  0  0  0  0  0  0  0  0  0  0  0
    0.9844  -25.6680  -12.7246 C   0  0  0  0  0  0  0  0  0  0  0  0
    2.6152  -24.5410  -14.7029 C   0  0  0  0  0  0  0  0  0  0  0  0
    3.6907  -25.4134  -14.6536 C   0  0  0  0  0  0  0  0  0  0  0  0
    4.0546  -26.1930  -15.7482 C   0  0  0  0  0  0  0  0  0  0  0  0
    3.3391  -26.1143  -16.9423 C   0  0  0  0  0  0  0  0  0  0  0  0
    2.2848  -25.2586  -16.9996 C   0  0  0  0  0  0  0  0  0  0  0  0
    1.9308  -24.4802  -15.8752 C   0  0  0  0  0  0  0  0  0  0  0  0
    0.7146  -23.5961  -16.0013 C   0  0  0  0  0  0  0  0  0  0  0  0
    1.5499  -24.9946  -18.2472 C   0  0  0  0  0  0  0  0  0  0  0  0
    2.1613  -24.6982  -20.6914 C   0  0  0  0  0  0  0  0  0  0  0  0
    3.2722  -24.6930  -21.5538 C   0  0  0  0  0  0  0  0  0  0  0  0
    3.1433  -24.6653  -22.8258 C   0  0  0  0  0  0  0  0  0  0  0  0
    1.8812  -24.6436  -23.5432 C   0  0  0  0  0  0  0  0  0  0  0  0
    1.8736  -24.8227  -24.9845 C   0  0  0  0  0  0  0  0  0  0  0  0
    0.2557  -23.1244  -25.7071 C   0  0  0  0  0  0  0  0  0  0  0  0
   -0.4461  -22.9901  -27.0663 C   0  0  0  0  0  0  0  0  0  0  0  0
    0.2948  -23.7320  -29.3024 C   0  0  0  0  0  0  0  0  0  0  0  0
    0.2593  -23.1728  -30.6788 C   0  0  0  0  0  0  0  0  0  0  0  0
    0.7810  -24.6382  -22.7374 C   0  0  0  0  0  0  0  0  0  0  0  0
    0.8845  -24.6629  -21.3888 C   0  0  0  0  0  0  0  0  0  0  0  0
   -0.3419  -24.6234  -20.5487 C   0  0  0  0  0  0  0  0  0  0  0  0
    5.4531  -24.2459  -23.7935 C   0  0  0  0  0  0  0  0  0  0  0  0
    5.9925  -24.3773  -25.1738 C   0  0  0  0  0  0  0  0  0  0  0  0
    6.2951  -23.3753  -26.0344 C   0  0  0  0  0  0  0  0  0  0  0  0
    7.2228  -24.8393  -27.6919 C   0  0  0  0  0  0  0  0  0  0  0  0
    6.9209  -25.8806  -26.8144 C   0  0  0  0  0  0  0  0  0  0  0  0
    6.3352  -25.6696  -25.6210 C   0  0  0  0  0  0  0  0  0  0  0  0
    7.1417  -27.2477  -27.2916 C   0  0  0  0  0  0  0  0  0  0  0  0
    1.1870  -27.2773   -8.4835 C   0  0  0  0  0  0  0  0  0  0  0  0
    0.8257  -28.2439   -7.5739 C   0  0  0  0  0  0  0  0  0  0  0  0
    2.5734  -27.3022   -8.9712 C   0  0  0  0  0  0  0  0  0  0  0  0
    1.4899  -23.8278  -25.8748 N   0  0  0  0  0  4  0  0  0  0  0  0
    0.4934  -22.8918  -28.1370 N   0  0  0  0  0  0  0  0  0  0  0  0
    6.8844  -23.6071  -27.2401 N   0  0  0  0  0  0  0  0  0  0  0  0
    7.3208  -28.2585  -27.6448 N   0  0  0  0  0  0  0  0  0  0  0  0
    0.1479  -24.9661  -29.1453 O   0  0  0  0  0  0  0  0  0  0  0  0
    4.1509  -24.6008  -23.8471 O   0  0  0  0  0  0  0  0  0  0  0  0
  3  1  1  0
  1 17  1  0
  9  2  3  0
  4  3  1  0
  5  4  2  0
  4 61  1  0
 14  5  1  0
  5 20  1  0
  6  7  1  0
 20  6  1  0
  7 13  2  0
  7 18  1  0
 12  8  2  0
 19  8  1  0
 12  9  1  0
 10 14  2  0
 21 10  1  0
 10 60  1  0
 23 11  1  0
 11 24  1  0
 11 25  2  0
 13 12  1  0
 15 21  1  0
 26 15  1  0
 17 16  1  0
 16 23  1  0
 18 19  2  0
 22 40  1  0
 41 22  1  0
 26 27  2  0
 31 26  1  0
 28 27  1  0
 29 28  2  0
 30 29  1  0
 30 31  2  0
 33 30  1  0
 31 32  1  0
 33 34  2  0
 38 33  1  0
 35 34  1  0
 36 35  2  0
 37 36  1  0
 37 38  2  0
 40 37  1  0
 38 39  1  0
 42 41  2  0
 41 51  1  0
 43 42  1  0
 43 44  2  0
 68 43  1  0
 44 45  1  0
 44 50  1  0
 45 63  1  0
 46 47  1  0
 63 46  1  0
 47 64  1  0
 48 49  1  0
 64 48  1  0
 48 67  2  0
 50 51  2  0
 51 52  1  0
 54 53  1  0
 53 68  1  0
 55 54  2  0
 54 58  1  0
 65 55  1  0
 56 57  1  0
 56 65  2  0
 57 58  2  0
 57 59  1  0
 59 66  3  0
 60 61  2  0
 60 62  1  0
M  CHG  2   1   1  63   1
M  END
$$$$
