
     RDKit          3D

 68 73  0  0  0  0  0  0  0  0999 V2000
    4.4932  -22.2279  -23.7726 N   0  0  0  0  0  4  0  0  0  0  0  0
    8.9051  -24.5263  -18.1757 N   0  0  0  0  0  0  0  0  0  0  0  0
    3.5684  -23.2570  -24.1250 C   0  0  0  0  0  0  0  0  0  0  0  0
    2.4424  -23.5082  -23.2202 C   0  0  0  0  0  0  0  0  0  0  0  0
    2.7656  -24.6975  -22.2813 C   0  0  0  0  0  0  0  0  0  0  0  0
    4.9401  -25.9500  -22.6743 C   0  0  0  0  0  0  0  0  0  0  0  0
    6.1398  -25.4794  -22.1484 C   0  0  0  0  0  0  0  0  0  0  0  0
    8.8405  -24.6314  -21.6063 C   0  0  0  0  0  0  0  0  0  0  0  0
    8.4146  -24.6816  -19.2786 C   0  0  0  0  0  0  0  0  0  0  0  0
    0.5475  -24.1012  -21.2672 C   0  0  0  0  0  0  0  0  0  0  0  0
    8.9637  -20.9445  -23.5675 C   0  0  0  0  0  0  0  0  0  0  0  0
    7.8656  -24.8476  -20.5615 C   0  0  0  0  0  0  0  0  0  0  0  0
    6.6077  -25.2443  -20.9090 C   0  0  0  0  0  0  0  0  0  0  0  0
    1.7265  -24.8568  -21.3664 C   0  0  0  0  0  0  0  0  0  0  0  0
   -1.3704  -24.2133  -19.5429 C   0  0  0  0  0  0  0  0  0  0  0  0
    6.5129  -20.8616  -23.9506 C   0  0  0  0  0  0  0  0  0  0  0  0
    5.6244  -21.9527  -24.5277 C   0  0  0  0  0  0  0  0  0  0  0  0
    7.2890  -25.2170  -23.1721 C   0  0  0  0  0  0  0  0  0  0  0  0
    8.3009  -24.8836  -22.7983 N   0  0  0  0  0  0  0  0  0  0  0  0
    3.7762  -25.3163  -22.4110 O   0  0  0  0  0  0  0  0  0  0  0  0
   -0.4155  -24.2342  -20.4021 O   0  0  0  0  0  0  0  0  0  0  0  0
    0.7003  -27.4252  -11.4527 O   0  0  0  0  0  0  0  0  0  0  0  0
    7.6668  -21.4494  -23.3115 N   0  0  0  0  0  0  0  0  0  0  0  0
   10.2080  -21.5696  -22.9871 C   0  0  0  0  0  0  0  0  0  0  0  0
    9.1612  -19.9202  -24.3122 O   0  0  0  0  0  0  0  0  0  0  0  0
   -1.6305  -25.3761  -18.6852 C   0  0  0  0  0  0  0  0  0  0  0  0
   -2.0084  -26.6197  -19.4349 C   0  0  0  0  0  0  0  0  0  0  0  0
   -2.1811  -27.6946  -18.8479 C   0  0  0  0  0  0  0  0  0  0  0  0
   -2.0451  -27.8946  -17.4588 C   0  0  0  0  0  0  0  0  0  0  0  0
   -1.7204  -26.8774  -16.7054 C   0  0  0  0  0  0  0  0  0  0  0  0
   -1.5039  -25.5599  -17.3437 C   0  0  0  0  0  0  0  0  0  0  0  0
   -1.1666  -24.4576  -16.4427 C   0  0  0  0  0  0  0  0  0  0  0  0
   -1.7040  -26.9254  -15.2522 C   0  0  0  0  0  0  0  0  0  0  0  0
   -2.9028  -27.2878  -14.5370 C   0  0  0  0  0  0  0  0  0  0  0  0
   -2.9843  -27.3368  -13.1754 C   0  0  0  0  0  0  0  0  0  0  0  0
   -1.7294  -26.9825  -12.4835 C   0  0  0  0  0  0  0  0  0  0  0  0
   -0.7638  -26.6979  -13.1144 C   0  0  0  0  0  0  0  0  0  0  0  0
   -0.5610  -26.6076  -14.5434 C   0  0  0  0  0  0  0  0  0  0  0  0
    0.7234  -26.2352  -15.0974 C   0  0  0  0  0  0  0  0  0  0  0  0
    0.6502  -26.5220  -12.3919 C   0  0  0  0  0  0  0  0  0  0  0  0
    0.4693  -27.7821  -10.1591 C   0  0  0  0  0  0  0  0  0  0  0  0
   -0.4370  -26.7369   -9.4156 C   0  0  0  0  0  0  0  0  0  0  0  0
   -0.5519  -27.1423   -8.1139 C   0  0  0  0  0  0  0  0  0  0  0  0
   -0.0467  -28.2590   -7.4512 C   0  0  0  0  0  0  0  0  0  0  0  0
   -0.3257  -28.4137   -5.9673 C   0  0  0  0  0  0  0  0  0  0  0  0
    0.5070  -27.6064   -3.7839 C   0  0  0  0  0  0  0  0  0  0  0  0
    1.3229  -28.6322   -2.9891 C   0  0  0  0  0  0  0  0  0  0  0  0
    3.6717  -28.7508   -3.8640 C   0  0  0  0  0  0  0  0  0  0  0  0
    5.0887  -28.0332   -3.6554 C   0  0  0  0  0  0  0  0  0  0  0  0
    0.6872  -29.1071   -8.1685 C   0  0  0  0  0  0  0  0  0  0  0  0
    0.8873  -28.7634   -9.5306 C   0  0  0  0  0  0  0  0  0  0  0  0
    1.7215  -29.8451  -10.2586 C   0  0  0  0  0  0  0  0  0  0  0  0
   -2.4627  -25.5985   -7.4699 C   0  0  0  0  0  0  0  0  0  0  0  0
   -2.9799  -25.0325   -6.2025 C   0  0  0  0  0  0  0  0  0  0  0  0
   -3.9427  -25.9485   -5.4820 C   0  0  0  0  0  0  0  0  0  0  0  0
   -4.3861  -24.2372   -4.0627 C   0  0  0  0  0  0  0  0  0  0  0  0
   -3.6259  -23.3394   -4.5500 C   0  0  0  0  0  0  0  0  0  0  0  0
   -2.8907  -23.8198   -5.7035 C   0  0  0  0  0  0  0  0  0  0  0  0
   -3.5243  -21.9790   -4.1757 C   0  0  0  0  0  0  0  0  0  0  0  0
    0.4076  -23.0893  -22.1824 C   0  0  0  0  0  0  0  0  0  0  0  0
    1.3493  -22.8128  -23.1329 C   0  0  0  0  0  0  0  0  0  0  0  0
   -0.8603  -22.2779  -22.2145 C   0  0  0  0  0  0  0  0  0  0  0  0
    0.6354  -27.7155   -5.2017 N   0  0  0  0  0  4  0  0  0  0  0  0
    2.6887  -28.2160   -2.9827 N   0  0  0  0  0  0  0  0  0  0  0  0
   -4.6134  -25.5007   -4.4268 N   0  0  0  0  0  0  0  0  0  0  0  0
   -3.4522  -20.7562   -3.8300 N   0  0  0  0  0  0  0  0  0  0  0  0
    3.6427  -29.5957   -4.6867 O   0  0  0  0  0  0  0  0  0  0  0  0
   -1.2686  -26.2758   -7.2444 O   0  0  0  0  0  0  0  0  0  0  0  0
  1  3  1  1
  1 17  1  0
  9  2  3  0
  3  4  1  6
  5  4  2  0
  4 61  1  0
 14  5  1  0
  5 20  1  0
  6  7  1  0
  6 20  1  6
  7 13  2  0
  7 18  1  0
 12  8  2  0
 19  8  1  0
 12  9  1  0
 10 14  2  0
 21 10  1  0
 10 60  1  0
 23 11  1  0
 24 11  1  6
 11 25  2  0
 13 12  1  0
 15 21  1  1
 26 15  1  0
 17 16  1  6
 16 23  1  6
 18 19  2  0
 40 22  1  1
 41 22  1  0
 26 27  2  0
 31 26  1  0
 28 27  1  0
 29 28  2  0
 30 29  1  0
 30 31  2  0
 33 30  1  0
 32 31  1  6
 33 34  2  0
 38 33  1  0
 35 34  1  0
 36 35  2  0
 37 36  1  0
 37 38  2  0
 40 37  1  0
 39 38  1  6
 42 41  2  0
 41 51  1  0
 43 42  1  0
 43 44  2  0
 68 43  1  0
 45 44  1  1
 44 50  1  0
 63 45  1  1
 46 47  1  1
 63 46  1  0
 47 64  1  6
 49 48  1  6
 64 48  1  0
 48 67  2  0
 50 51  2  0
 52 51  1  6
 54 53  1  0
 53 68  1  6
 55 54  2  0
 54 58  1  0
 65 55  1  0
 56 57  1  0
 56 65  2  0
 57 58  2  0
 57 59  1  0
 59 66  3  0
 60 61  2  0
 62 60  1  6
M  CHG  2   1   1  63   1
M  END
$$$$
