
     RDKit          3D

 68 73  0  0  0  0  0  0  0  0999 V2000
   -1.1671  -26.9588   -3.8696 N   0  0  0  0  0  4  0  0  0  0  0  0
   -6.8446  -26.1274   -2.9709 N   0  0  0  0  0  0  0  0  0  0  0  0
   -1.3539  -25.7173   -4.5671 C   0  0  0  0  0  0  0  0  0  0  0  0
   -0.6695  -25.8651   -5.8920 C   0  0  0  0  0  0  0  0  0  0  0  0
   -1.4109  -25.9810   -7.0697 C   0  0  0  0  0  0  0  0  0  0  0  0
   -3.6624  -25.3452   -7.9599 C   0  0  0  0  0  0  0  0  0  0  0  0
   -5.0422  -25.3186   -7.4077 C   0  0  0  0  0  0  0  0  0  0  0  0
   -7.5491  -25.3056   -6.3034 C   0  0  0  0  0  0  0  0  0  0  0  0
   -6.6836  -25.9347   -4.1462 C   0  0  0  0  0  0  0  0  0  0  0  0
    0.6104  -26.3611   -8.3479 C   0  0  0  0  0  0  0  0  0  0  0  0
   -0.6913  -30.3577   -3.9886 C   0  0  0  0  0  0  0  0  0  0  0  0
   -6.5033  -25.7012   -5.5179 C   0  0  0  0  0  0  0  0  0  0  0  0
   -5.2296  -25.7074   -6.1034 C   0  0  0  0  0  0  0  0  0  0  0  0
   -0.7421  -26.2279   -8.2682 C   0  0  0  0  0  0  0  0  0  0  0  0
    0.9436  -26.4649  -10.8171 C   0  0  0  0  0  0  0  0  0  0  0  0
    0.3282  -28.4600   -2.6884 C   0  0  0  0  0  0  0  0  0  0  0  0
    0.2181  -27.1256   -3.4214 C   0  0  0  0  0  0  0  0  0  0  0  0
   -6.1333  -24.9250   -8.1595 C   0  0  0  0  0  0  0  0  0  0  0  0
   -7.3368  -24.9367   -7.5743 N   0  0  0  0  0  0  0  0  0  0  0  0
   -2.7673  -25.8325   -7.0047 O   0  0  0  0  0  0  0  0  0  0  0  0
    1.2954  -26.6120   -9.4765 O   0  0  0  0  0  0  0  0  0  0  0  0
    2.5266  -25.5552  -19.9929 O   0  0  0  0  0  0  0  0  0  0  0  0
   -0.7837  -29.2843   -3.0640 N   0  0  0  0  0  0  0  0  0  0  0  0
   -1.7959  -31.3771   -4.0831 C   0  0  0  0  0  0  0  0  0  0  0  0
    0.3150  -30.4626   -4.7303 O   0  0  0  0  0  0  0  0  0  0  0  0
    1.9168  -26.9776  -11.7935 C   0  0  0  0  0  0  0  0  0  0  0  0
    3.1327  -27.4957  -11.5328 C   0  0  0  0  0  0  0  0  0  0  0  0
    4.0004  -28.0643  -12.4968 C   0  0  0  0  0  0  0  0  0  0  0  0
    3.5376  -28.0738  -13.7966 C   0  0  0  0  0  0  0  0  0  0  0  0
    2.3259  -27.5671  -14.1490 C   0  0  0  0  0  0  0  0  0  0  0  0
    1.5089  -27.0251  -13.1704 C   0  0  0  0  0  0  0  0  0  0  0  0
    0.2424  -26.4569  -13.5620 C   0  0  0  0  0  0  0  0  0  0  0  0
    1.8857  -27.5152  -15.5677 C   0  0  0  0  0  0  0  0  0  0  0  0
    0.8973  -28.3718  -16.0256 C   0  0  0  0  0  0  0  0  0  0  0  0
    0.4481  -28.3371  -17.3429 C   0  0  0  0  0  0  0  0  0  0  0  0
    0.9900  -27.4292  -18.2519 C   0  0  0  0  0  0  0  0  0  0  0  0
    1.9621  -26.5879  -17.8111 C   0  0  0  0  0  0  0  0  0  0  0  0
    2.3997  -26.6377  -16.4689 C   0  0  0  0  0  0  0  0  0  0  0  0
    3.4425  -25.6336  -16.0436 C   0  0  0  0  0  0  0  0  0  0  0  0
    2.6976  -25.6894  -18.7156 C   0  0  0  0  0  0  0  0  0  0  0  0
    2.5961  -25.0269  -21.1624 C   0  0  0  0  0  0  0  0  0  0  0  0
    1.8123  -25.1742  -22.3207 C   0  0  0  0  0  0  0  0  0  0  0  0
    2.0626  -24.5284  -23.3958 C   0  0  0  0  0  0  0  0  0  0  0  0
    3.1457  -23.5781  -23.5734 C   0  0  0  0  0  0  0  0  0  0  0  0
    3.1926  -22.7619  -24.7738 C   0  0  0  0  0  0  0  0  0  0  0  0
    2.7685  -23.1915  -27.1528 C   0  0  0  0  0  0  0  0  0  0  0  0
    2.8918  -21.8816  -27.9448 C   0  0  0  0  0  0  0  0  0  0  0  0
    1.1432  -21.0881  -29.4978 C   0  0  0  0  0  0  0  0  0  0  0  0
    0.6938  -20.0602  -28.5231 C   0  0  0  0  0  0  0  0  0  0  0  0
    3.9334  -23.4170  -22.4718 C   0  0  0  0  0  0  0  0  0  0  0  0
    3.6970  -24.0885  -21.3216 C   0  0  0  0  0  0  0  0  0  0  0  0
    4.6014  -23.9058  -20.1553 C   0  0  0  0  0  0  0  0  0  0  0  0
    0.2122  -25.0919  -25.0407 C   0  0  0  0  0  0  0  0  0  0  0  0
   -0.7252  -23.9398  -25.1277 C   0  0  0  0  0  0  0  0  0  0  0  0
   -0.4847  -22.6579  -24.7602 C   0  0  0  0  0  0  0  0  0  0  0  0
   -2.5839  -21.8408  -25.5830 C   0  0  0  0  0  0  0  0  0  0  0  0
   -2.8435  -23.1553  -25.9707 C   0  0  0  0  0  0  0  0  0  0  0  0
   -1.9689  -24.1555  -25.7555 C   0  0  0  0  0  0  0  0  0  0  0  0
   -4.1740  -23.4475  -26.5091 C   0  0  0  0  0  0  0  0  0  0  0  0
    1.3066  -26.2358   -7.1491 C   0  0  0  0  0  0  0  0  0  0  0  0
    0.7029  -25.9940   -5.9370 C   0  0  0  0  0  0  0  0  0  0  0  0
    2.7700  -26.3737   -7.1521 C   0  0  0  0  0  0  0  0  0  0  0  0
    2.3027  -22.9075  -25.8305 N   0  0  0  0  0  4  0  0  0  0  0  0
    2.2565  -21.9752  -29.2200 N   0  0  0  0  0  0  0  0  0  0  0  0
   -1.3828  -21.6585  -24.9821 N   0  0  0  0  0  0  0  0  0  0  0  0
   -5.1653  -23.6669  -26.8936 N   0  0  0  0  0  0  0  0  0  0  0  0
    0.5411  -21.1909  -30.5915 O   0  0  0  0  0  0  0  0  0  0  0  0
    1.4126  -24.5925  -24.6748 O   0  0  0  0  0  0  0  0  0  0  0  0
  3  1  1  0
  1 17  1  0
  9  2  3  0
  4  3  1  0
  5  4  2  0
  4 61  1  0
 14  5  1  0
  5 20  1  0
  6  7  1  0
 20  6  1  0
  7 13  2  0
  7 18  1  0
 12  8  2  0
 19  8  1  0
 12  9  1  0
 10 14  2  0
 21 10  1  0
 10 60  1  0
 23 11  1  0
 11 24  1  0
 11 25  2  0
 13 12  1  0
 15 21  1  0
 26 15  1  0
 17 16  1  0
 16 23  1  0
 18 19  2  0
 22 40  1  0
 41 22  1  0
 26 27  2  0
 31 26  1  0
 28 27  1  0
 29 28  2  0
 30 29  1  0
 30 31  2  0
 33 30  1  0
 31 32  1  0
 33 34  2  0
 38 33  1  0
 35 34  1  0
 36 35  2  0
 37 36  1  0
 37 38  2  0
 40 37  1  0
 38 39  1  0
 42 41  2  0
 41 51  1  0
 43 42  1  0
 43 44  2  0
 68 43  1  0
 44 45  1  0
 44 50  1  0
 45 63  1  0
 46 47  1  0
 63 46  1  0
 47 64  1  0
 48 49  1  0
 64 48  1  0
 48 67  2  0
 50 51  2  0
 51 52  1  0
 54 53  1  0
 53 68  1  0
 55 54  2  0
 54 58  1  0
 65 55  1  0
 56 57  1  0
 56 65  2  0
 57 58  2  0
 57 59  1  0
 59 66  3  0
 60 61  2  0
 60 62  1  0
M  CHG  2   1   1  63   1
M  END
$$$$
