
     RDKit          3D

 68 73  0  0  0  0  0  0  0  0999 V2000
    5.7800  -24.4804  -20.9870 N   0  0  0  0  0  4  0  0  0  0  0  0
   10.3364  -21.7109  -23.2806 N   0  0  0  0  0  0  0  0  0  0  0  0
    5.0802  -23.8225  -19.9306 C   0  0  0  0  0  0  0  0  0  0  0  0
    4.4900  -24.6526  -18.8760 C   0  0  0  0  0  0  0  0  0  0  0  0
    5.4837  -25.7621  -18.4493 C   0  0  0  0  0  0  0  0  0  0  0  0
    7.7258  -25.9219  -19.6321 C   0  0  0  0  0  0  0  0  0  0  0  0
    8.4060  -24.7393  -19.9079 C   0  0  0  0  0  0  0  0  0  0  0  0
    9.6094  -22.1206  -19.9396 C   0  0  0  0  0  0  0  0  0  0  0  0
    9.9572  -22.2823  -22.2751 C   0  0  0  0  0  0  0  0  0  0  0  0
    3.7030  -26.2786  -16.7563 C   0  0  0  0  0  0  0  0  0  0  0  0
    5.6851  -24.3260  -24.5374 C   0  0  0  0  0  0  0  0  0  0  0  0
    9.4971  -22.9426  -21.1230 C   0  0  0  0  0  0  0  0  0  0  0  0
    8.9170  -24.1723  -21.0159 C   0  0  0  0  0  0  0  0  0  0  0  0
    4.9443  -26.4767  -17.3814 C   0  0  0  0  0  0  0  0  0  0  0  0
    2.7601  -27.7014  -14.8196 C   0  0  0  0  0  0  0  0  0  0  0  0
    6.0875  -26.0705  -22.8185 C   0  0  0  0  0  0  0  0  0  0  0  0
    5.3023  -25.6346  -21.5912 C   0  0  0  0  0  0  0  0  0  0  0  0
    8.5848  -23.7488  -18.7144 C   0  0  0  0  0  0  0  0  0  0  0  0
    9.0833  -22.7511  -18.8901 N   0  0  0  0  0  0  0  0  0  0  0  0
    6.5227  -25.8980  -19.0176 O   0  0  0  0  0  0  0  0  0  0  0  0
    3.2046  -26.9308  -15.7465 O   0  0  0  0  0  0  0  0  0  0  0  0
   -1.8723  -26.4174   -7.6264 O   0  0  0  0  0  0  0  0  0  0  0  0
    6.5260  -24.9129  -23.5624 N   0  0  0  0  0  0  0  0  0  0  0  0
    6.1567  -23.2347  -25.4662 C   0  0  0  0  0  0  0  0  0  0  0  0
    4.4652  -24.6878  -24.6919 O   0  0  0  0  0  0  0  0  0  0  0  0
    3.1047  -27.4561  -13.4137 C   0  0  0  0  0  0  0  0  0  0  0  0
    4.5063  -26.9643  -13.2019 C   0  0  0  0  0  0  0  0  0  0  0  0
    4.9100  -26.6432  -12.0777 C   0  0  0  0  0  0  0  0  0  0  0  0
    4.1434  -26.6840  -10.8951 C   0  0  0  0  0  0  0  0  0  0  0  0
    2.9063  -27.0997  -10.9611 C   0  0  0  0  0  0  0  0  0  0  0  0
    2.3611  -27.5045  -12.2760 C   0  0  0  0  0  0  0  0  0  0  0  0
    0.9784  -27.9827  -12.2782 C   0  0  0  0  0  0  0  0  0  0  0  0
    2.0723  -27.3323   -9.7929 C   0  0  0  0  0  0  0  0  0  0  0  0
    2.3445  -28.4594   -8.9352 C   0  0  0  0  0  0  0  0  0  0  0  0
    1.6012  -28.7661   -7.8324 C   0  0  0  0  0  0  0  0  0  0  0  0
    0.4792  -27.8392   -7.5851 C   0  0  0  0  0  0  0  0  0  0  0  0
    0.2978  -26.9191   -8.3143 C   0  0  0  0  0  0  0  0  0  0  0  0
    1.0072  -26.5007   -9.5030 C   0  0  0  0  0  0  0  0  0  0  0  0
    0.6010  -25.3265  -10.2456 C   0  0  0  0  0  0  0  0  0  0  0  0
   -0.7722  -25.7925   -7.9424 C   0  0  0  0  0  0  0  0  0  0  0  0
   -2.7461  -26.8372   -6.6703 C   0  0  0  0  0  0  0  0  0  0  0  0
   -2.1124  -26.7866   -5.2342 C   0  0  0  0  0  0  0  0  0  0  0  0
   -3.0344  -27.2910   -4.3582 C   0  0  0  0  0  0  0  0  0  0  0  0
   -4.3308  -27.7608   -4.5580 C   0  0  0  0  0  0  0  0  0  0  0  0
   -5.1028  -28.2979   -3.3666 C   0  0  0  0  0  0  0  0  0  0  0  0
   -6.7266  -27.5295   -1.6680 C   0  0  0  0  0  0  0  0  0  0  0  0
   -7.6315  -26.3611   -1.2609 C   0  0  0  0  0  0  0  0  0  0  0  0
   -9.1303  -25.2561   -2.9429 C   0  0  0  0  0  0  0  0  0  0  0  0
  -10.5086  -25.5284   -3.7127 C   0  0  0  0  0  0  0  0  0  0  0  0
   -4.7963  -27.7392   -5.8050 C   0  0  0  0  0  0  0  0  0  0  0  0
   -3.9049  -27.2542   -6.7968 C   0  0  0  0  0  0  0  0  0  0  0  0
   -4.5778  -27.2460   -8.1908 C   0  0  0  0  0  0  0  0  0  0  0  0
   -2.7100  -26.4865   -1.9714 C   0  0  0  0  0  0  0  0  0  0  0  0
   -1.8723  -26.9093   -0.8252 C   0  0  0  0  0  0  0  0  0  0  0  0
   -1.4552  -28.3609   -0.8865 C   0  0  0  0  0  0  0  0  0  0  0  0
   -0.6450  -28.1358    1.2188 C   0  0  0  0  0  0  0  0  0  0  0  0
   -0.9304  -26.9147    1.4392 C   0  0  0  0  0  0  0  0  0  0  0  0
   -1.5925  -26.2999    0.3054 C   0  0  0  0  0  0  0  0  0  0  0  0
   -0.7829  -26.1830    2.6410 C   0  0  0  0  0  0  0  0  0  0  0  0
    2.9351  -25.2609  -17.2619 C   0  0  0  0  0  0  0  0  0  0  0  0
    3.3390  -24.4729  -18.3023 C   0  0  0  0  0  0  0  0  0  0  0  0
    1.5513  -25.0247  -16.7176 C   0  0  0  0  0  0  0  0  0  0  0  0
   -6.0385  -27.3446   -2.9053 N   0  0  0  0  0  4  0  0  0  0  0  0
   -8.7771  -26.3587   -2.1133 N   0  0  0  0  0  0  0  0  0  0  0  0
   -0.8502  -28.9172    0.1567 N   0  0  0  0  0  0  0  0  0  0  0  0
   -0.6697  -25.5307    3.7280 N   0  0  0  0  0  0  0  0  0  0  0  0
   -8.6208  -24.2145   -3.1599 O   0  0  0  0  0  0  0  0  0  0  0  0
   -2.6174  -27.4134   -3.0047 O   0  0  0  0  0  0  0  0  0  0  0  0
  1  3  1  1
  1 17  1  0
  9  2  3  0
  3  4  1  6
  5  4  2  0
  4 61  1  0
 14  5  1  0
  5 20  1  0
  6  7  1  0
  6 20  1  6
  7 13  2  0
  7 18  1  0
 12  8  2  0
 19  8  1  0
 12  9  1  0
 10 14  2  0
 21 10  1  0
 10 60  1  0
 23 11  1  0
 24 11  1  6
 11 25  2  0
 13 12  1  0
 15 21  1  1
 26 15  1  0
 17 16  1  6
 16 23  1  6
 18 19  2  0
 40 22  1  1
 41 22  1  0
 26 27  2  0
 31 26  1  0
 28 27  1  0
 29 28  2  0
 30 29  1  0
 30 31  2  0
 33 30  1  0
 32 31  1  6
 33 34  2  0
 38 33  1  0
 35 34  1  0
 36 35  2  0
 37 36  1  0
 37 38  2  0
 40 37  1  0
 39 38  1  6
 42 41  2  0
 41 51  1  0
 43 42  1  0
 43 44  2  0
 68 43  1  0
 45 44  1  1
 44 50  1  0
 63 45  1  1
 46 47  1  1
 63 46  1  0
 47 64  1  6
 49 48  1  6
 64 48  1  0
 48 67  2  0
 50 51  2  0
 52 51  1  6
 54 53  1  0
 53 68  1  6
 55 54  2  0
 54 58  1  0
 65 55  1  0
 56 57  1  0
 56 65  2  0
 57 58  2  0
 57 59  1  0
 59 66  3  0
 60 61  2  0
 62 60  1  6
M  CHG  2   1   1  63   1
M  END
$$$$
