
     RDKit          3D

 68 73  0  0  0  0  0  0  0  0999 V2000
    1.9109  -26.6884   -5.5267 N   0  0  0  0  0  4  0  0  0  0  0  0
    7.2630  -31.9146   -6.6036 N   0  0  0  0  0  0  0  0  0  0  0  0
    2.9257  -26.4494   -6.5146 C   0  0  0  0  0  0  0  0  0  0  0  0
    2.2194  -26.3269   -7.8306 C   0  0  0  0  0  0  0  0  0  0  0  0
    2.8381  -26.7358   -9.0138 C   0  0  0  0  0  0  0  0  0  0  0  0
    5.0997  -27.4032   -9.8537 C   0  0  0  0  0  0  0  0  0  0  0  0
    6.3327  -27.9221   -9.2054 C   0  0  0  0  0  0  0  0  0  0  0  0
    8.5499  -28.9518   -7.9695 C   0  0  0  0  0  0  0  0  0  0  0  0
    7.3099  -30.8517   -7.1625 C   0  0  0  0  0  0  0  0  0  0  0  0
    0.9801  -25.8942  -10.3191 C   0  0  0  0  0  0  0  0  0  0  0  0
   -1.7440  -28.7483   -5.1558 C   0  0  0  0  0  0  0  0  0  0  0  0
    7.3613  -29.6057   -7.8055 C   0  0  0  0  0  0  0  0  0  0  0  0
    6.2372  -29.0592   -8.4403 C   0  0  0  0  0  0  0  0  0  0  0  0
    2.1940  -26.5038  -10.2287 C   0  0  0  0  0  0  0  0  0  0  0  0
    0.5882  -26.0331  -12.7780 C   0  0  0  0  0  0  0  0  0  0  0  0
    0.6602  -28.4755   -4.4652 C   0  0  0  0  0  0  0  0  0  0  0  0
    1.1759  -27.9278   -5.7934 C   0  0  0  0  0  0  0  0  0  0  0  0
    7.5591  -27.2994   -9.3415 C   0  0  0  0  0  0  0  0  0  0  0  0
    8.6117  -27.8414   -8.7175 N   0  0  0  0  0  0  0  0  0  0  0  0
    4.0488  -27.3636   -8.9346 O   0  0  0  0  0  0  0  0  0  0  0  0
    0.3290  -25.6385  -11.4666 O   0  0  0  0  0  0  0  0  0  0  0  0
   -7.4384  -24.0145  -16.2640 O   0  0  0  0  0  0  0  0  0  0  0  0
   -0.7343  -28.1614   -4.3484 N   0  0  0  0  0  0  0  0  0  0  0  0
   -3.0008  -27.9832   -5.4771 C   0  0  0  0  0  0  0  0  0  0  0  0
   -1.5933  -29.9104   -5.6034 O   0  0  0  0  0  0  0  0  0  0  0  0
    0.2572  -25.0484  -13.8192 C   0  0  0  0  0  0  0  0  0  0  0  0
    1.0059  -23.9999  -14.2128 C   0  0  0  0  0  0  0  0  0  0  0  0
    0.6910  -23.1301  -15.2849 C   0  0  0  0  0  0  0  0  0  0  0  0
   -0.4810  -23.4020  -15.9606 C   0  0  0  0  0  0  0  0  0  0  0  0
   -1.2987  -24.4360  -15.6267 C   0  0  0  0  0  0  0  0  0  0  0  0
   -0.9469  -25.2635  -14.5731 C   0  0  0  0  0  0  0  0  0  0  0  0
   -1.8409  -26.3337  -14.2045 C   0  0  0  0  0  0  0  0  0  0  0  0
   -2.5958  -24.6579  -16.3176 C   0  0  0  0  0  0  0  0  0  0  0  0
   -2.6330  -25.2889  -17.5508 C   0  0  0  0  0  0  0  0  0  0  0  0
   -3.8318  -25.5296  -18.2167 C   0  0  0  0  0  0  0  0  0  0  0  0
   -5.0452  -25.1342  -17.6550 C   0  0  0  0  0  0  0  0  0  0  0  0
   -5.0168  -24.5119  -16.4471 C   0  0  0  0  0  0  0  0  0  0  0  0
   -3.7890  -24.2816  -15.7874 C   0  0  0  0  0  0  0  0  0  0  0  0
   -3.8463  -23.6354  -14.4251 C   0  0  0  0  0  0  0  0  0  0  0  0
   -6.2203  -23.9308  -15.8304 C   0  0  0  0  0  0  0  0  0  0  0  0
   -8.6827  -23.7257  -16.4051 C   0  0  0  0  0  0  0  0  0  0  0  0
   -9.3987  -23.0784  -17.4280 C   0  0  0  0  0  0  0  0  0  0  0  0
  -10.6638  -22.9026  -17.3637 C   0  0  0  0  0  0  0  0  0  0  0  0
  -11.5187  -23.3338  -16.2724 C   0  0  0  0  0  0  0  0  0  0  0  0
  -12.9615  -23.2569  -16.4197 C   0  0  0  0  0  0  0  0  0  0  0  0
  -15.1386  -24.1231  -17.1503 C   0  0  0  0  0  0  0  0  0  0  0  0
  -15.6953  -25.3160  -17.9409 C   0  0  0  0  0  0  0  0  0  0  0  0
  -14.7930  -27.4810  -17.1676 C   0  0  0  0  0  0  0  0  0  0  0  0
  -14.8511  -28.7158  -16.3426 C   0  0  0  0  0  0  0  0  0  0  0  0
  -10.8558  -23.9576  -15.2569 C   0  0  0  0  0  0  0  0  0  0  0  0
   -9.5181  -24.1550  -15.2935 C   0  0  0  0  0  0  0  0  0  0  0  0
   -8.8322  -24.8113  -14.1488 C   0  0  0  0  0  0  0  0  0  0  0  0
  -11.2837  -21.3932  -19.3093 C   0  0  0  0  0  0  0  0  0  0  0  0
  -10.9724  -22.2515  -20.4840 C   0  0  0  0  0  0  0  0  0  0  0  0
  -10.0091  -22.0485  -21.4152 C   0  0  0  0  0  0  0  0  0  0  0  0
  -10.3989  -24.1350  -22.5314 C   0  0  0  0  0  0  0  0  0  0  0  0
  -11.3908  -24.3596  -21.5768 C   0  0  0  0  0  0  0  0  0  0  0  0
  -11.6702  -23.4704  -20.6058 C   0  0  0  0  0  0  0  0  0  0  0  0
  -12.2257  -25.5517  -21.7421 C   0  0  0  0  0  0  0  0  0  0  0  0
    0.4019  -25.5064   -9.1137 C   0  0  0  0  0  0  0  0  0  0  0  0
    0.9887  -25.7068   -7.8858 C   0  0  0  0  0  0  0  0  0  0  0  0
   -0.9060  -24.8358   -9.1289 C   0  0  0  0  0  0  0  0  0  0  0  0
  -13.7130  -24.2188  -17.0829 N   0  0  0  0  0  4  0  0  0  0  0  0
  -15.8357  -26.4742  -17.1178 N   0  0  0  0  0  0  0  0  0  0  0  0
   -9.7423  -22.9574  -22.3936 N   0  0  0  0  0  0  0  0  0  0  0  0
  -12.8489  -26.4302  -21.8786 N   0  0  0  0  0  0  0  0  0  0  0  0
  -13.8129  -27.3053  -17.9278 O   0  0  0  0  0  0  0  0  0  0  0  0
  -11.5413  -22.2236  -18.2756 O   0  0  0  0  0  0  0  0  0  0  0  0
  3  1  1  0
  1 17  1  0
  9  2  3  0
  4  3  1  0
  5  4  2  0
  4 61  1  0
 14  5  1  0
  5 20  1  0
  6  7  1  0
 20  6  1  0
  7 13  2  0
  7 18  1  0
 12  8  2  0
 19  8  1  0
 12  9  1  0
 10 14  2  0
 21 10  1  0
 10 60  1  0
 23 11  1  0
 11 24  1  0
 11 25  2  0
 13 12  1  0
 15 21  1  0
 26 15  1  0
 17 16  1  0
 16 23  1  0
 18 19  2  0
 22 40  1  0
 41 22  1  0
 26 27  2  0
 31 26  1  0
 28 27  1  0
 29 28  2  0
 30 29  1  0
 30 31  2  0
 33 30  1  0
 31 32  1  0
 33 34  2  0
 38 33  1  0
 35 34  1  0
 36 35  2  0
 37 36  1  0
 37 38  2  0
 40 37  1  0
 38 39  1  0
 42 41  2  0
 41 51  1  0
 43 42  1  0
 43 44  2  0
 68 43  1  0
 44 45  1  0
 44 50  1  0
 45 63  1  0
 46 47  1  0
 63 46  1  0
 47 64  1  0
 48 49  1  0
 64 48  1  0
 48 67  2  0
 50 51  2  0
 51 52  1  0
 54 53  1  0
 53 68  1  0
 55 54  2  0
 54 58  1  0
 65 55  1  0
 56 57  1  0
 56 65  2  0
 57 58  2  0
 57 59  1  0
 59 66  3  0
 60 61  2  0
 60 62  1  0
M  CHG  2   1   1  63   1
M  END
$$$$
