
     RDKit          3D

 68 73  0  0  0  0  0  0  0  0999 V2000
    0.7036  -27.6655   -6.5101 N   0  0  0  0  0  4  0  0  0  0  0  0
    4.7592  -33.4754  -10.5057 N   0  0  0  0  0  0  0  0  0  0  0  0
    1.2213  -26.6122   -7.3232 C   0  0  0  0  0  0  0  0  0  0  0  0
    0.9093  -26.6332   -8.7556 C   0  0  0  0  0  0  0  0  0  0  0  0
    2.1253  -27.1569   -9.5604 C   0  0  0  0  0  0  0  0  0  0  0  0
    4.3855  -27.6556   -8.5143 C   0  0  0  0  0  0  0  0  0  0  0  0
    4.9270  -28.9360   -8.5827 C   0  0  0  0  0  0  0  0  0  0  0  0
    6.5472  -31.3188   -8.5217 C   0  0  0  0  0  0  0  0  0  0  0  0
    4.9899  -32.4420   -9.9055 C   0  0  0  0  0  0  0  0  0  0  0  0
    0.5423  -26.9494  -11.4982 C   0  0  0  0  0  0  0  0  0  0  0  0
   -2.7487  -28.7626   -3.4083 C   0  0  0  0  0  0  0  0  0  0  0  0
    5.2795  -31.2542   -9.2127 C   0  0  0  0  0  0  0  0  0  0  0  0
    4.5757  -30.0862   -9.1859 C   0  0  0  0  0  0  0  0  0  0  0  0
    1.7759  -27.2619  -10.9054 C   0  0  0  0  0  0  0  0  0  0  0  0
    0.0222  -27.1608  -14.0179 C   0  0  0  0  0  0  0  0  0  0  0  0
   -0.9015  -28.8115   -5.0651 C   0  0  0  0  0  0  0  0  0  0  0  0
   -0.5380  -27.5901   -5.8952 C   0  0  0  0  0  0  0  0  0  0  0  0
    6.3091  -29.1414   -7.8862 C   0  0  0  0  0  0  0  0  0  0  0  0
    6.8212  -30.1454   -7.9527 N   0  0  0  0  0  0  0  0  0  0  0  0
    3.1565  -27.3992   -9.0136 O   0  0  0  0  0  0  0  0  0  0  0  0
    0.2062  -27.0649  -12.7501 O   0  0  0  0  0  0  0  0  0  0  0  0
    0.6126  -25.1231  -22.2550 O   0  0  0  0  0  0  0  0  0  0  0  0
   -1.4343  -28.4007   -3.7873 N   0  0  0  0  0  0  0  0  0  0  0  0
   -3.4066  -28.2382   -2.1560 C   0  0  0  0  0  0  0  0  0  0  0  0
   -3.4643  -29.5621   -4.1095 O   0  0  0  0  0  0  0  0  0  0  0  0
    0.6485  -26.2045  -14.9392 C   0  0  0  0  0  0  0  0  0  0  0  0
    0.7945  -24.8196  -14.3807 C   0  0  0  0  0  0  0  0  0  0  0  0
    1.3737  -23.9301  -15.0157 C   0  0  0  0  0  0  0  0  0  0  0  0
    1.9577  -24.0876  -16.2893 C   0  0  0  0  0  0  0  0  0  0  0  0
    1.8880  -25.2543  -16.8737 C   0  0  0  0  0  0  0  0  0  0  0  0
    1.2037  -26.3622  -16.1706 C   0  0  0  0  0  0  0  0  0  0  0  0
    1.1389  -27.6355  -16.8884 C   0  0  0  0  0  0  0  0  0  0  0  0
    2.3126  -25.4947  -18.2434 C   0  0  0  0  0  0  0  0  0  0  0  0
    3.7197  -25.5563  -18.5536 C   0  0  0  0  0  0  0  0  0  0  0  0
    4.2075  -25.7552  -19.8127 C   0  0  0  0  0  0  0  0  0  0  0  0
    3.1645  -25.9028  -20.8467 C   0  0  0  0  0  0  0  0  0  0  0  0
    2.0169  -25.8529  -20.5435 C   0  0  0  0  0  0  0  0  0  0  0  0
    1.3869  -25.6440  -19.2586 C   0  0  0  0  0  0  0  0  0  0  0  0
   -0.0542  -25.6207  -19.1240 C   0  0  0  0  0  0  0  0  0  0  0  0
    0.8836  -26.2219  -21.6073 C   0  0  0  0  0  0  0  0  0  0  0  0
    0.5128  -24.4566  -23.4382 C   0  0  0  0  0  0  0  0  0  0  0  0
    1.8645  -24.4763  -24.2378 C   0  0  0  0  0  0  0  0  0  0  0  0
    1.6863  -23.7265  -25.3682 C   0  0  0  0  0  0  0  0  0  0  0  0
    0.5696  -23.0511  -25.8563 C   0  0  0  0  0  0  0  0  0  0  0  0
    0.7007  -22.2647  -27.1480 C   0  0  0  0  0  0  0  0  0  0  0  0
   -0.1593  -23.8537  -28.8355 C   0  0  0  0  0  0  0  0  0  0  0  0
   -0.4202  -23.5145  -30.3074 C   0  0  0  0  0  0  0  0  0  0  0  0
   -2.3792  -21.9635  -30.5377 C   0  0  0  0  0  0  0  0  0  0  0  0
   -2.7548  -21.7464  -32.0798 C   0  0  0  0  0  0  0  0  0  0  0  0
   -0.5418  -23.1136  -25.1262 C   0  0  0  0  0  0  0  0  0  0  0  0
   -0.4548  -23.8506  -23.9168 C   0  0  0  0  0  0  0  0  0  0  0  0
   -1.8181  -23.8770  -23.1843 C   0  0  0  0  0  0  0  0  0  0  0  0
    3.6536  -22.4313  -26.3176 C   0  0  0  0  0  0  0  0  0  0  0  0
    4.8172  -22.7460  -27.1784 C   0  0  0  0  0  0  0  0  0  0  0  0
    5.5900  -23.9636  -26.7257 C   0  0  0  0  0  0  0  0  0  0  0  0
    7.1688  -23.4373  -28.2652 C   0  0  0  0  0  0  0  0  0  0  0  0
    6.6556  -22.3825  -28.7605 C   0  0  0  0  0  0  0  0  0  0  0  0
    5.3883  -22.0529  -28.1382 C   0  0  0  0  0  0  0  0  0  0  0  0
    7.2177  -21.4962  -29.7091 C   0  0  0  0  0  0  0  0  0  0  0  0
   -0.4287  -26.4855  -10.6479 C   0  0  0  0  0  0  0  0  0  0  0  0
   -0.2300  -26.3381   -9.3043 C   0  0  0  0  0  0  0  0  0  0  0  0
   -1.7574  -26.0408  -11.1992 C   0  0  0  0  0  0  0  0  0  0  0  0
    0.9202  -23.1319  -28.2421 N   0  0  0  0  0  4  0  0  0  0  0  0
   -0.9848  -22.2048  -30.3760 N   0  0  0  0  0  0  0  0  0  0  0  0
    6.7507  -24.2584  -27.2998 N   0  0  0  0  0  0  0  0  0  0  0  0
    7.7411  -20.7108  -30.5630 N   0  0  0  0  0  0  0  0  0  0  0  0
   -3.2798  -21.8999  -29.7784 O   0  0  0  0  0  0  0  0  0  0  0  0
    2.8304  -23.5459  -26.1921 O   0  0  0  0  0  0  0  0  0  0  0  0
  1  3  1  1
  1 17  1  0
  9  2  3  0
  3  4  1  6
  5  4  2  0
  4 61  1  0
 14  5  1  0
  5 20  1  0
  6  7  1  0
  6 20  1  6
  7 13  2  0
  7 18  1  0
 12  8  2  0
 19  8  1  0
 12  9  1  0
 10 14  2  0
 21 10  1  0
 10 60  1  0
 23 11  1  0
 24 11  1  6
 11 25  2  0
 13 12  1  0
 15 21  1  1
 26 15  1  0
 17 16  1  6
 16 23  1  6
 18 19  2  0
 40 22  1  1
 41 22  1  0
 26 27  2  0
 31 26  1  0
 28 27  1  0
 29 28  2  0
 30 29  1  0
 30 31  2  0
 33 30  1  0
 32 31  1  6
 33 34  2  0
 38 33  1  0
 35 34  1  0
 36 35  2  0
 37 36  1  0
 37 38  2  0
 40 37  1  0
 39 38  1  6
 42 41  2  0
 41 51  1  0
 43 42  1  0
 43 44  2  0
 68 43  1  0
 45 44  1  1
 44 50  1  0
 63 45  1  1
 46 47  1  1
 63 46  1  0
 47 64  1  6
 49 48  1  6
 64 48  1  0
 48 67  2  0
 50 51  2  0
 52 51  1  6
 54 53  1  0
 53 68  1  6
 55 54  2  0
 54 58  1  0
 65 55  1  0
 56 57  1  0
 56 65  2  0
 57 58  2  0
 57 59  1  0
 59 66  3  0
 60 61  2  0
 62 60  1  6
M  CHG  2   1   1  63   1
M  END
$$$$
