
     RDKit          3D

 68 73  0  0  0  0  0  0  0  0999 V2000
    1.5068  -22.7145  -25.9562 N   0  0  0  0  0  4  0  0  0  0  0  0
    7.6304  -20.5530  -20.8837 N   0  0  0  0  0  0  0  0  0  0  0  0
    0.6625  -23.8488  -25.7047 C   0  0  0  0  0  0  0  0  0  0  0  0
    0.6706  -24.0662  -24.2219 C   0  0  0  0  0  0  0  0  0  0  0  0
    1.8532  -23.9465  -23.4891 C   0  0  0  0  0  0  0  0  0  0  0  0
    4.2301  -24.1093  -24.2570 C   0  0  0  0  0  0  0  0  0  0  0  0
    4.9704  -24.0373  -22.9700 C   0  0  0  0  0  0  0  0  0  0  0  0
    6.3721  -23.8156  -20.6268 C   0  0  0  0  0  0  0  0  0  0  0  0
    7.0896  -21.5845  -21.1800 C   0  0  0  0  0  0  0  0  0  0  0  0
    0.7253  -24.6878  -21.4785 C   0  0  0  0  0  0  0  0  0  0  0  0
    2.8189  -19.7685  -26.8436 C   0  0  0  0  0  0  0  0  0  0  0  0
    6.4486  -22.7851  -21.5210 C   0  0  0  0  0  0  0  0  0  0  0  0
    5.7297  -22.9206  -22.7168 C   0  0  0  0  0  0  0  0  0  0  0  0
    1.8424  -24.2643  -22.1313 C   0  0  0  0  0  0  0  0  0  0  0  0
    1.4488  -25.8882  -19.4159 C   0  0  0  0  0  0  0  0  0  0  0  0
    1.4773  -21.5130  -28.0634 C   0  0  0  0  0  0  0  0  0  0  0  0
    2.0361  -22.7251  -27.3227 C   0  0  0  0  0  0  0  0  0  0  0  0
    4.9248  -25.0511  -22.0316 C   0  0  0  0  0  0  0  0  0  0  0  0
    5.6275  -24.8952  -20.9034 N   0  0  0  0  0  0  0  0  0  0  0  0
    2.9767  -23.5064  -24.1296 O   0  0  0  0  0  0  0  0  0  0  0  0
    0.6710  -25.0171  -20.1768 O   0  0  0  0  0  0  0  0  0  0  0  0
    0.3727  -26.8997  -10.2552 O   0  0  0  0  0  0  0  0  0  0  0  0
    1.5838  -20.3641  -27.2117 N   0  0  0  0  0  0  0  0  0  0  0  0
    3.5466  -18.8692  -27.8080 C   0  0  0  0  0  0  0  0  0  0  0  0
    3.3111  -19.9919  -25.7116 O   0  0  0  0  0  0  0  0  0  0  0  0
    2.0799  -25.3049  -18.2222 C   0  0  0  0  0  0  0  0  0  0  0  0
    3.2804  -24.6976  -18.1530 C   0  0  0  0  0  0  0  0  0  0  0  0
    3.8095  -24.0665  -17.0010 C   0  0  0  0  0  0  0  0  0  0  0  0
    3.0108  -24.0922  -15.8762 C   0  0  0  0  0  0  0  0  0  0  0  0
    1.7885  -24.6879  -15.8563 C   0  0  0  0  0  0  0  0  0  0  0  0
    1.3101  -25.2887  -17.0091 C   0  0  0  0  0  0  0  0  0  0  0  0
    0.0290  -25.9499  -16.9651 C   0  0  0  0  0  0  0  0  0  0  0  0
    0.9835  -24.7732  -14.6098 C   0  0  0  0  0  0  0  0  0  0  0  0
   -0.0877  -23.9174  -14.4085 C   0  0  0  0  0  0  0  0  0  0  0  0
   -0.8741  -23.9825  -13.2614 C   0  0  0  0  0  0  0  0  0  0  0  0
   -0.6002  -24.9217  -12.2679 C   0  0  0  0  0  0  0  0  0  0  0  0
    0.4507  -25.7625  -12.4566 C   0  0  0  0  0  0  0  0  0  0  0  0
    1.2327  -25.6813  -13.6302 C   0  0  0  0  0  0  0  0  0  0  0  0
    2.3469  -26.6862  -13.7900 C   0  0  0  0  0  0  0  0  0  0  0  0
    0.9124  -26.6945  -11.4151 C   0  0  0  0  0  0  0  0  0  0  0  0
    0.2163  -27.3831   -9.0748 C   0  0  0  0  0  0  0  0  0  0  0  0
   -0.8111  -27.2551   -8.1230 C   0  0  0  0  0  0  0  0  0  0  0  0
   -0.7632  -27.8457   -6.9897 C   0  0  0  0  0  0  0  0  0  0  0  0
    0.3121  -28.7090   -6.5357 C   0  0  0  0  0  0  0  0  0  0  0  0
    0.1451  -29.4800   -5.3163 C   0  0  0  0  0  0  0  0  0  0  0  0
    0.9803  -28.1836   -3.4069 C   0  0  0  0  0  0  0  0  0  0  0  0
    1.7985  -28.4344   -2.1319 C   0  0  0  0  0  0  0  0  0  0  0  0
    0.0389  -29.2100   -0.5822 C   0  0  0  0  0  0  0  0  0  0  0  0
   -0.1041  -29.6245    0.8378 C   0  0  0  0  0  0  0  0  0  0  0  0
    1.3316  -28.8487   -7.4307 C   0  0  0  0  0  0  0  0  0  0  0  0
    1.3123  -28.2339   -8.6355 C   0  0  0  0  0  0  0  0  0  0  0  0
    2.4609  -28.3887   -9.5672 C   0  0  0  0  0  0  0  0  0  0  0  0
   -2.8849  -28.3704   -5.6971 C   0  0  0  0  0  0  0  0  0  0  0  0
   -3.7905  -27.8441   -6.7538 C   0  0  0  0  0  0  0  0  0  0  0  0
   -4.4001  -28.5499   -7.7369 C   0  0  0  0  0  0  0  0  0  0  0  0
   -5.6617  -26.6767   -8.5436 C   0  0  0  0  0  0  0  0  0  0  0  0
   -5.0451  -25.9385   -7.5334 C   0  0  0  0  0  0  0  0  0  0  0  0
   -4.1553  -26.4842   -6.6837 C   0  0  0  0  0  0  0  0  0  0  0  0
   -5.2968  -24.4959   -7.5052 C   0  0  0  0  0  0  0  0  0  0  0  0
   -0.4291  -24.7896  -22.2496 C   0  0  0  0  0  0  0  0  0  0  0  0
   -0.4799  -24.4919  -23.5916 C   0  0  0  0  0  0  0  0  0  0  0  0
   -1.6752  -25.2466  -21.6179 C   0  0  0  0  0  0  0  0  0  0  0  0
    0.9872  -29.3620   -4.2177 N   0  0  0  0  0  4  0  0  0  0  0  0
    1.2401  -29.4876   -1.3461 N   0  0  0  0  0  0  0  0  0  0  0  0
   -5.2954  -27.9807   -8.5908 N   0  0  0  0  0  0  0  0  0  0  0  0
   -5.4969  -23.4292   -7.4769 N   0  0  0  0  0  0  0  0  0  0  0  0
   -0.9075  -28.6035   -1.1350 O   0  0  0  0  0  0  0  0  0  0  0  0
   -1.6816  -27.7870   -5.8871 O   0  0  0  0  0  0  0  0  0  0  0  0
  3  1  1  0
  1 17  1  0
  9  2  3  0
  4  3  1  0
  5  4  2  0
  4 61  1  0
 14  5  1  0
  5 20  1  0
  6  7  1  0
 20  6  1  0
  7 13  2  0
  7 18  1  0
 12  8  2  0
 19  8  1  0
 12  9  1  0
 10 14  2  0
 21 10  1  0
 10 60  1  0
 23 11  1  0
 11 24  1  0
 11 25  2  0
 13 12  1  0
 15 21  1  0
 26 15  1  0
 17 16  1  0
 16 23  1  0
 18 19  2  0
 22 40  1  0
 41 22  1  0
 26 27  2  0
 31 26  1  0
 28 27  1  0
 29 28  2  0
 30 29  1  0
 30 31  2  0
 33 30  1  0
 31 32  1  0
 33 34  2  0
 38 33  1  0
 35 34  1  0
 36 35  2  0
 37 36  1  0
 37 38  2  0
 40 37  1  0
 38 39  1  0
 42 41  2  0
 41 51  1  0
 43 42  1  0
 43 44  2  0
 68 43  1  0
 44 45  1  0
 44 50  1  0
 45 63  1  0
 46 47  1  0
 63 46  1  0
 47 64  1  0
 48 49  1  0
 64 48  1  0
 48 67  2  0
 50 51  2  0
 51 52  1  0
 54 53  1  0
 53 68  1  0
 55 54  2  0
 54 58  1  0
 65 55  1  0
 56 57  1  0
 56 65  2  0
 57 58  2  0
 57 59  1  0
 59 66  3  0
 60 61  2  0
 60 62  1  0
M  CHG  2   1   1  63   1
M  END
$$$$
