
     RDKit          3D

 68 73  0  0  0  0  0  0  0  0999 V2000
    3.0935  -21.8573  -25.8856 N   0  0  0  0  0  4  0  0  0  0  0  0
    7.0524  -18.3721  -22.2669 N   0  0  0  0  0  0  0  0  0  0  0  0
    3.5480  -23.1063  -25.3639 C   0  0  0  0  0  0  0  0  0  0  0  0
    2.6604  -23.8334  -24.4512 C   0  0  0  0  0  0  0  0  0  0  0  0
    3.4872  -24.5236  -23.3375 C   0  0  0  0  0  0  0  0  0  0  0  0
    6.0175  -24.3286  -23.4433 C   0  0  0  0  0  0  0  0  0  0  0  0
    6.6488  -23.2547  -22.8223 C   0  0  0  0  0  0  0  0  0  0  0  0
    8.1010  -21.4392  -21.1190 C   0  0  0  0  0  0  0  0  0  0  0  0
    7.1274  -19.5861  -22.2235 C   0  0  0  0  0  0  0  0  0  0  0  0
    1.2173  -25.1472  -22.4643 C   0  0  0  0  0  0  0  0  0  0  0  0
    2.7612  -19.0429  -27.8706 C   0  0  0  0  0  0  0  0  0  0  0  0
    7.2354  -20.9867  -22.1842 C   0  0  0  0  0  0  0  0  0  0  0  0
    6.5897  -21.9162  -22.9453 C   0  0  0  0  0  0  0  0  0  0  0  0
    2.6205  -25.1257  -22.4272 C   0  0  0  0  0  0  0  0  0  0  0  0
   -0.5053  -26.2161  -20.8661 C   0  0  0  0  0  0  0  0  0  0  0  0
    3.4488  -19.4657  -25.5236 C   0  0  0  0  0  0  0  0  0  0  0  0
    2.8093  -20.7696  -25.0723 C   0  0  0  0  0  0  0  0  0  0  0  0
    7.6053  -23.6038  -21.6388 C   0  0  0  0  0  0  0  0  0  0  0  0
    8.1053  -22.7705  -21.0640 N   0  0  0  0  0  0  0  0  0  0  0  0
    4.6786  -24.4866  -23.3543 O   0  0  0  0  0  0  0  0  0  0  0  0
    0.4044  -25.6911  -21.6059 O   0  0  0  0  0  0  0  0  0  0  0  0
   -1.3867  -25.7617  -11.7330 O   0  0  0  0  0  0  0  0  0  0  0  0
    2.5985  -18.8043  -26.4854 N   0  0  0  0  0  0  0  0  0  0  0  0
    3.4627  -18.0700  -28.7856 C   0  0  0  0  0  0  0  0  0  0  0  0
    2.3204  -20.1058  -28.4353 O   0  0  0  0  0  0  0  0  0  0  0  0
   -0.1711  -26.7670  -19.5469 C   0  0  0  0  0  0  0  0  0  0  0  0
    1.1611  -27.4548  -19.4885 C   0  0  0  0  0  0  0  0  0  0  0  0
    1.6071  -27.8988  -18.4237 C   0  0  0  0  0  0  0  0  0  0  0  0
    0.9608  -27.8173  -17.1733 C   0  0  0  0  0  0  0  0  0  0  0  0
   -0.2094  -27.2395  -17.1062 C   0  0  0  0  0  0  0  0  0  0  0  0
   -0.8036  -26.6904  -18.3454 C   0  0  0  0  0  0  0  0  0  0  0  0
   -2.1253  -26.0782  -18.2073 C   0  0  0  0  0  0  0  0  0  0  0  0
   -1.0368  -27.2342  -15.9105 C   0  0  0  0  0  0  0  0  0  0  0  0
   -1.9145  -28.3474  -15.6455 C   0  0  0  0  0  0  0  0  0  0  0  0
   -2.7410  -28.4161  -14.5614 C   0  0  0  0  0  0  0  0  0  0  0  0
   -2.6644  -27.2421  -13.6699 C   0  0  0  0  0  0  0  0  0  0  0  0
   -1.9205  -26.3514  -13.9242 C   0  0  0  0  0  0  0  0  0  0  0  0
   -1.0109  -26.1667  -15.0331 C   0  0  0  0  0  0  0  0  0  0  0  0
   -0.1875  -24.9809  -15.1394 C   0  0  0  0  0  0  0  0  0  0  0  0
   -1.6701  -25.1812  -12.8658 C   0  0  0  0  0  0  0  0  0  0  0  0
   -0.6447  -25.8013  -10.5920 C   0  0  0  0  0  0  0  0  0  0  0  0
   -1.5452  -25.7694   -9.3058 C   0  0  0  0  0  0  0  0  0  0  0  0
   -0.7133  -25.7401   -8.2200 C   0  0  0  0  0  0  0  0  0  0  0  0
    0.6767  -25.7645   -8.1265 C   0  0  0  0  0  0  0  0  0  0  0  0
    1.3160  -25.6838   -6.7522 C   0  0  0  0  0  0  0  0  0  0  0  0
    1.7234  -27.4372   -5.0575 C   0  0  0  0  0  0  0  0  0  0  0  0
    2.4091  -28.7856   -4.8103 C   0  0  0  0  0  0  0  0  0  0  0  0
    1.4327  -30.9924   -4.1222 C   0  0  0  0  0  0  0  0  0  0  0  0
    0.6169  -31.6245   -2.8969 C   0  0  0  0  0  0  0  0  0  0  0  0
    1.3586  -25.8213   -9.2684 C   0  0  0  0  0  0  0  0  0  0  0  0
    0.5857  -25.8315  -10.4584 C   0  0  0  0  0  0  0  0  0  0  0  0
    1.4932  -25.9366  -11.7080 C   0  0  0  0  0  0  0  0  0  0  0  0
   -2.6919  -25.6686   -6.6297 C   0  0  0  0  0  0  0  0  0  0  0  0
   -2.8988  -26.4477   -5.3869 C   0  0  0  0  0  0  0  0  0  0  0  0
   -2.9488  -27.9414   -5.6133 C   0  0  0  0  0  0  0  0  0  0  0  0
   -3.5928  -28.1686   -3.4516 C   0  0  0  0  0  0  0  0  0  0  0  0
   -3.6070  -26.9470   -3.0926 C   0  0  0  0  0  0  0  0  0  0  0  0
   -3.2261  -26.0600   -4.1743 C   0  0  0  0  0  0  0  0  0  0  0  0
   -4.0425  -26.3996   -1.8630 C   0  0  0  0  0  0  0  0  0  0  0  0
    0.6375  -24.4985  -23.5245 C   0  0  0  0  0  0  0  0  0  0  0  0
    1.3627  -23.8583  -24.4893 C   0  0  0  0  0  0  0  0  0  0  0  0
   -0.8572  -24.5389  -23.7012 C   0  0  0  0  0  0  0  0  0  0  0  0
    1.8708  -26.9304   -6.3841 N   0  0  0  0  0  4  0  0  0  0  0  0
    1.5583  -29.5803   -3.9837 N   0  0  0  0  0  0  0  0  0  0  0  0
   -3.2998  -28.7472   -4.6178 N   0  0  0  0  0  0  0  0  0  0  0  0
   -4.4154  -25.8973   -0.7546 N   0  0  0  0  0  0  0  0  0  0  0  0
    1.7987  -31.7578   -4.9418 O   0  0  0  0  0  0  0  0  0  0  0  0
   -1.3387  -25.6198   -6.9492 O   0  0  0  0  0  0  0  0  0  0  0  0
  1  3  1  1
  1 17  1  0
  9  2  3  0
  3  4  1  6
  5  4  2  0
  4 61  1  0
 14  5  1  0
  5 20  1  0
  6  7  1  0
  6 20  1  6
  7 13  2  0
  7 18  1  0
 12  8  2  0
 19  8  1  0
 12  9  1  0
 10 14  2  0
 21 10  1  0
 10 60  1  0
 23 11  1  0
 24 11  1  6
 11 25  2  0
 13 12  1  0
 15 21  1  1
 26 15  1  0
 17 16  1  6
 16 23  1  6
 18 19  2  0
 40 22  1  1
 41 22  1  0
 26 27  2  0
 31 26  1  0
 28 27  1  0
 29 28  2  0
 30 29  1  0
 30 31  2  0
 33 30  1  0
 32 31  1  6
 33 34  2  0
 38 33  1  0
 35 34  1  0
 36 35  2  0
 37 36  1  0
 37 38  2  0
 40 37  1  0
 39 38  1  6
 42 41  2  0
 41 51  1  0
 43 42  1  0
 43 44  2  0
 68 43  1  0
 45 44  1  1
 44 50  1  0
 63 45  1  1
 46 47  1  1
 63 46  1  0
 47 64  1  6
 49 48  1  6
 64 48  1  0
 48 67  2  0
 50 51  2  0
 52 51  1  6
 54 53  1  0
 53 68  1  6
 55 54  2  0
 54 58  1  0
 65 55  1  0
 56 57  1  0
 56 65  2  0
 57 58  2  0
 57 59  1  0
 59 66  3  0
 60 61  2  0
 62 60  1  6
M  CHG  2   1   1  63   1
M  END
$$$$
