
     RDKit          3D

 68 73  0  0  0  0  0  0  0  0999 V2000
   -0.1454  -21.0219  -27.0364 N   0  0  0  0  0  4  0  0  0  0  0  0
    8.4262  -18.7203  -21.3151 N   0  0  0  0  0  0  0  0  0  0  0  0
    1.2050  -21.4255  -26.8087 C   0  0  0  0  0  0  0  0  0  0  0  0
    1.4356  -22.6377  -26.0169 C   0  0  0  0  0  0  0  0  0  0  0  0
    2.3154  -22.3121  -24.7838 C   0  0  0  0  0  0  0  0  0  0  0  0
    3.2145  -19.9780  -24.3421 C   0  0  0  0  0  0  0  0  0  0  0  0
    4.5779  -19.7221  -24.2277 C   0  0  0  0  0  0  0  0  0  0  0  0
    7.4347  -19.4773  -24.5197 C   0  0  0  0  0  0  0  0  0  0  0  0
    7.6479  -18.9449  -22.2233 C   0  0  0  0  0  0  0  0  0  0  0  0
    1.8920  -24.7239  -24.2292 C   0  0  0  0  0  0  0  0  0  0  0  0
   -3.5364  -20.9319  -29.2665 C   0  0  0  0  0  0  0  0  0  0  0  0
    6.7535  -19.2277  -23.2697 C   0  0  0  0  0  0  0  0  0  0  0  0
    5.3970  -19.3627  -23.2228 C   0  0  0  0  0  0  0  0  0  0  0  0
    2.4409  -23.4534  -23.9940 C   0  0  0  0  0  0  0  0  0  0  0  0
    1.9395  -26.8576  -22.7768 C   0  0  0  0  0  0  0  0  0  0  0  0
   -1.9638  -19.6153  -27.8687 C   0  0  0  0  0  0  0  0  0  0  0  0
   -0.4703  -19.8764  -27.7490 C   0  0  0  0  0  0  0  0  0  0  0  0
    5.4381  -19.9669  -25.5074 C   0  0  0  0  0  0  0  0  0  0  0  0
    6.5573  -19.8256  -25.4601 N   0  0  0  0  0  0  0  0  0  0  0  0
    2.7681  -21.2198  -24.6323 O   0  0  0  0  0  0  0  0  0  0  0  0
    1.9904  -25.7864  -23.4843 O   0  0  0  0  0  0  0  0  0  0  0  0
    4.1373  -26.6828  -13.4620 O   0  0  0  0  0  0  0  0  0  0  0  0
   -2.4390  -20.0446  -29.1632 N   0  0  0  0  0  0  0  0  0  0  0  0
   -3.9257  -21.5948  -30.5645 C   0  0  0  0  0  0  0  0  0  0  0  0
   -4.2702  -21.2282  -28.2582 O   0  0  0  0  0  0  0  0  0  0  0  0
    2.8950  -27.0788  -21.6844 C   0  0  0  0  0  0  0  0  0  0  0  0
    4.3314  -27.0900  -22.1181 C   0  0  0  0  0  0  0  0  0  0  0  0
    5.2488  -27.1892  -21.2945 C   0  0  0  0  0  0  0  0  0  0  0  0
    5.0819  -27.2921  -19.8982 C   0  0  0  0  0  0  0  0  0  0  0  0
    3.8707  -27.2949  -19.4078 C   0  0  0  0  0  0  0  0  0  0  0  0
    2.7259  -27.1843  -20.3391 C   0  0  0  0  0  0  0  0  0  0  0  0
    1.3964  -27.2177  -19.7293 C   0  0  0  0  0  0  0  0  0  0  0  0
    3.5699  -27.5514  -18.0085 C   0  0  0  0  0  0  0  0  0  0  0  0
    2.5238  -28.4821  -17.6628 C   0  0  0  0  0  0  0  0  0  0  0  0
    2.1598  -28.7661  -16.3784 C   0  0  0  0  0  0  0  0  0  0  0  0
    2.9326  -28.0326  -15.3568 C   0  0  0  0  0  0  0  0  0  0  0  0
    3.7910  -27.2812  -15.6882 C   0  0  0  0  0  0  0  0  0  0  0  0
    4.2578  -26.8995  -17.0026 C   0  0  0  0  0  0  0  0  0  0  0  0
    5.3365  -25.9488  -17.1695 C   0  0  0  0  0  0  0  0  0  0  0  0
    4.7733  -26.6466  -14.5998 C   0  0  0  0  0  0  0  0  0  0  0  0
    4.1105  -27.0361  -12.1473 C   0  0  0  0  0  0  0  0  0  0  0  0
    2.6454  -27.0870  -11.5838 C   0  0  0  0  0  0  0  0  0  0  0  0
    2.7262  -27.3779  -10.2494 C   0  0  0  0  0  0  0  0  0  0  0  0
    3.8231  -27.6362   -9.4300 C   0  0  0  0  0  0  0  0  0  0  0  0
    3.5846  -27.8970   -7.9539 C   0  0  0  0  0  0  0  0  0  0  0  0
    3.8417  -25.5726   -7.1518 C   0  0  0  0  0  0  0  0  0  0  0  0
    4.0586  -24.8498   -5.8176 C   0  0  0  0  0  0  0  0  0  0  0  0
    4.9433  -25.6563   -3.6123 C   0  0  0  0  0  0  0  0  0  0  0  0
    5.5756  -27.0468   -3.1299 C   0  0  0  0  0  0  0  0  0  0  0  0
    5.0256  -27.6003  -10.0002 C   0  0  0  0  0  0  0  0  0  0  0  0
    5.0527  -27.2820  -11.3828 C   0  0  0  0  0  0  0  0  0  0  0  0
    6.5004  -27.3097  -11.9298 C   0  0  0  0  0  0  0  0  0  0  0  0
    0.5565  -28.3988   -9.4131 C   0  0  0  0  0  0  0  0  0  0  0  0
   -0.6374  -27.9096   -8.6854 C   0  0  0  0  0  0  0  0  0  0  0  0
   -0.9676  -28.7221   -7.4542 C   0  0  0  0  0  0  0  0  0  0  0  0
   -2.9046  -27.5544   -7.2989 C   0  0  0  0  0  0  0  0  0  0  0  0
   -2.7871  -26.7902   -8.3106 C   0  0  0  0  0  0  0  0  0  0  0  0
   -1.5470  -27.0234   -9.0245 C   0  0  0  0  0  0  0  0  0  0  0  0
   -3.7350  -25.8824   -8.8384 C   0  0  0  0  0  0  0  0  0  0  0  0
    1.1464  -24.8503  -25.3735 C   0  0  0  0  0  0  0  0  0  0  0  0
    0.9328  -23.8142  -26.2382 C   0  0  0  0  0  0  0  0  0  0  0  0
    0.5881  -26.1942  -25.7596 C   0  0  0  0  0  0  0  0  0  0  0  0
    4.2561  -26.9388   -7.1612 N   0  0  0  0  0  4  0  0  0  0  0  0
    4.1503  -25.8293   -4.7828 N   0  0  0  0  0  0  0  0  0  0  0  0
   -2.1061  -28.5034   -6.8064 N   0  0  0  0  0  0  0  0  0  0  0  0
   -4.5736  -25.0500   -9.3115 N   0  0  0  0  0  0  0  0  0  0  0  0
    5.2172  -24.7151   -2.9559 O   0  0  0  0  0  0  0  0  0  0  0  0
    1.5004  -27.3834   -9.5297 O   0  0  0  0  0  0  0  0  0  0  0  0
  1  3  1  1
  1 17  1  0
  9  2  3  0
  3  4  1  6
  5  4  2  0
  4 61  1  0
 14  5  1  0
  5 20  1  0
  6  7  1  0
  6 20  1  6
  7 13  2  0
  7 18  1  0
 12  8  2  0
 19  8  1  0
 12  9  1  0
 10 14  2  0
 21 10  1  0
 10 60  1  0
 23 11  1  0
 24 11  1  6
 11 25  2  0
 13 12  1  0
 15 21  1  1
 26 15  1  0
 17 16  1  6
 16 23  1  6
 18 19  2  0
 40 22  1  1
 41 22  1  0
 26 27  2  0
 31 26  1  0
 28 27  1  0
 29 28  2  0
 30 29  1  0
 30 31  2  0
 33 30  1  0
 32 31  1  6
 33 34  2  0
 38 33  1  0
 35 34  1  0
 36 35  2  0
 37 36  1  0
 37 38  2  0
 40 37  1  0
 39 38  1  6
 42 41  2  0
 41 51  1  0
 43 42  1  0
 43 44  2  0
 68 43  1  0
 45 44  1  1
 44 50  1  0
 63 45  1  1
 46 47  1  1
 63 46  1  0
 47 64  1  6
 49 48  1  6
 64 48  1  0
 48 67  2  0
 50 51  2  0
 52 51  1  6
 54 53  1  0
 53 68  1  6
 55 54  2  0
 54 58  1  0
 65 55  1  0
 56 57  1  0
 56 65  2  0
 57 58  2  0
 57 59  1  0
 59 66  3  0
 60 61  2  0
 62 60  1  6
M  CHG  2   1   1  63   1
M  END
$$$$
