
     RDKit          3D

 68 73  0  0  0  0  0  0  0  0999 V2000
    2.4343  -20.2523  -27.1111 N   0  0  0  0  0  4  0  0  0  0  0  0
   -4.6962  -20.1390  -27.0985 N   0  0  0  0  0  0  0  0  0  0  0  0
    2.7643  -21.6411  -27.1399 C   0  0  0  0  0  0  0  0  0  0  0  0
    2.9708  -22.3248  -25.8595 C   0  0  0  0  0  0  0  0  0  0  0  0
    1.9392  -23.4685  -25.6912 C   0  0  0  0  0  0  0  0  0  0  0  0
    0.1223  -23.9582  -27.3973 C   0  0  0  0  0  0  0  0  0  0  0  0
   -1.2082  -23.6202  -27.1675 C   0  0  0  0  0  0  0  0  0  0  0  0
   -4.0618  -23.5076  -26.7790 C   0  0  0  0  0  0  0  0  0  0  0  0
   -4.0308  -21.1571  -27.0552 C   0  0  0  0  0  0  0  0  0  0  0  0
    3.2381  -23.9164  -23.5897 C   0  0  0  0  0  0  0  0  0  0  0  0
    3.4878  -15.9336  -26.2866 C   0  0  0  0  0  0  0  0  0  0  0  0
   -3.2546  -22.3264  -26.9836 C   0  0  0  0  0  0  0  0  0  0  0  0
   -1.9093  -22.4719  -27.1545 C   0  0  0  0  0  0  0  0  0  0  0  0
    2.2139  -24.1666  -24.5167 C   0  0  0  0  0  0  0  0  0  0  0  0
    3.8827  -25.1240  -21.4010 C   0  0  0  0  0  0  0  0  0  0  0  0
    3.6553  -18.4013  -26.0813 C   0  0  0  0  0  0  0  0  0  0  0  0
    2.5836  -19.4748  -25.9715 C   0  0  0  0  0  0  0  0  0  0  0  0
   -2.1959  -24.8086  -26.9445 C   0  0  0  0  0  0  0  0  0  0  0  0
   -3.2963  -24.5979  -26.8046 N   0  0  0  0  0  0  0  0  0  0  0  0
    1.0803  -23.6355  -26.5008 O   0  0  0  0  0  0  0  0  0  0  0  0
    3.5099  -24.5780  -22.5026 O   0  0  0  0  0  0  0  0  0  0  0  0
    0.2591  -27.1239  -13.6160 O   0  0  0  0  0  0  0  0  0  0  0  0
    3.1150  -17.2265  -26.7243 N   0  0  0  0  0  0  0  0  0  0  0  0
    2.8794  -14.6761  -26.8564 C   0  0  0  0  0  0  0  0  0  0  0  0
    4.3697  -15.7510  -25.3745 O   0  0  0  0  0  0  0  0  0  0  0  0
    3.1185  -26.2350  -20.8206 C   0  0  0  0  0  0  0  0  0  0  0  0
    2.4646  -27.1265  -21.8350 C   0  0  0  0  0  0  0  0  0  0  0  0
    1.8528  -28.1456  -21.4931 C   0  0  0  0  0  0  0  0  0  0  0  0
    1.6987  -28.5960  -20.1660 C   0  0  0  0  0  0  0  0  0  0  0  0
    2.2265  -27.8944  -19.1981 C   0  0  0  0  0  0  0  0  0  0  0  0
    2.9684  -26.6597  -19.5373 C   0  0  0  0  0  0  0  0  0  0  0  0
    3.5139  -25.9073  -18.4072 C   0  0  0  0  0  0  0  0  0  0  0  0
    2.0024  -28.1719  -17.7885 C   0  0  0  0  0  0  0  0  0  0  0  0
    2.7433  -29.2274  -17.1427 C   0  0  0  0  0  0  0  0  0  0  0  0
    2.5815  -29.5710  -15.8318 C   0  0  0  0  0  0  0  0  0  0  0  0
    1.5716  -28.7652  -15.1179 C   0  0  0  0  0  0  0  0  0  0  0  0
    0.9908  -27.9002  -15.6887 C   0  0  0  0  0  0  0  0  0  0  0  0
    1.0727  -27.4527  -17.0615 C   0  0  0  0  0  0  0  0  0  0  0  0
    0.2548  -26.3608  -17.5454 C   0  0  0  0  0  0  0  0  0  0  0  0
    0.0571  -26.8854  -14.8820 C   0  0  0  0  0  0  0  0  0  0  0  0
    0.5344  -26.6573  -12.3668 C   0  0  0  0  0  0  0  0  0  0  0  0
    1.8620  -27.2687  -11.7922 C   0  0  0  0  0  0  0  0  0  0  0  0
    2.0143  -26.7991  -10.5162 C   0  0  0  0  0  0  0  0  0  0  0  0
    1.2399  -25.9199   -9.7621 C   0  0  0  0  0  0  0  0  0  0  0  0
    1.6621  -25.6163   -8.3361 C   0  0  0  0  0  0  0  0  0  0  0  0
    0.8452  -25.8590   -6.0153 C   0  0  0  0  0  0  0  0  0  0  0  0
   -0.3844  -26.2020   -5.1668 C   0  0  0  0  0  0  0  0  0  0  0  0
   -1.6955  -25.1121   -3.3257 C   0  0  0  0  0  0  0  0  0  0  0  0
   -1.7444  -23.7318   -2.5142 C   0  0  0  0  0  0  0  0  0  0  0  0
    0.1469  -25.4277  -10.3412 C   0  0  0  0  0  0  0  0  0  0  0  0
   -0.1153  -25.8733  -11.6626 C   0  0  0  0  0  0  0  0  0  0  0  0
   -1.3878  -25.2010  -12.2323 C   0  0  0  0  0  0  0  0  0  0  0  0
    4.4478  -26.8900   -9.7957 C   0  0  0  0  0  0  0  0  0  0  0  0
    5.2387  -27.6613   -8.8089 C   0  0  0  0  0  0  0  0  0  0  0  0
    5.6427  -29.0326   -9.3000 C   0  0  0  0  0  0  0  0  0  0  0  0
    6.3782  -29.4809   -7.2029 C   0  0  0  0  0  0  0  0  0  0  0  0
    6.0975  -28.3804   -6.6272 C   0  0  0  0  0  0  0  0  0  0  0  0
    5.4836  -27.4339   -7.5377 C   0  0  0  0  0  0  0  0  0  0  0  0
    6.2089  -28.0557   -5.2548 C   0  0  0  0  0  0  0  0  0  0  0  0
    4.0609  -22.8581  -23.8795 C   0  0  0  0  0  0  0  0  0  0  0  0
    3.9145  -22.0891  -24.9993 C   0  0  0  0  0  0  0  0  0  0  0  0
    5.1348  -22.4548  -22.9042 C   0  0  0  0  0  0  0  0  0  0  0  0
    0.6519  -25.9952   -7.4233 N   0  0  0  0  0  4  0  0  0  0  0  0
   -0.6581  -25.0996   -4.3016 N   0  0  0  0  0  0  0  0  0  0  0  0
    6.2035  -29.8946   -8.4596 N   0  0  0  0  0  0  0  0  0  0  0  0
    6.3198  -27.7817   -4.0169 N   0  0  0  0  0  0  0  0  0  0  0  0
   -2.5008  -25.9164   -3.0153 O   0  0  0  0  0  0  0  0  0  0  0  0
    3.1211  -27.3089   -9.7843 O   0  0  0  0  0  0  0  0  0  0  0  0
  1  3  1  1
  1 17  1  0
  9  2  3  0
  3  4  1  6
  5  4  2  0
  4 61  1  0
 14  5  1  0
  5 20  1  0
  6  7  1  0
  6 20  1  6
  7 13  2  0
  7 18  1  0
 12  8  2  0
 19  8  1  0
 12  9  1  0
 10 14  2  0
 21 10  1  0
 10 60  1  0
 23 11  1  0
 24 11  1  6
 11 25  2  0
 13 12  1  0
 15 21  1  1
 26 15  1  0
 17 16  1  6
 16 23  1  6
 18 19  2  0
 40 22  1  1
 41 22  1  0
 26 27  2  0
 31 26  1  0
 28 27  1  0
 29 28  2  0
 30 29  1  0
 30 31  2  0
 33 30  1  0
 32 31  1  6
 33 34  2  0
 38 33  1  0
 35 34  1  0
 36 35  2  0
 37 36  1  0
 37 38  2  0
 40 37  1  0
 39 38  1  6
 42 41  2  0
 41 51  1  0
 43 42  1  0
 43 44  2  0
 68 43  1  0
 45 44  1  1
 44 50  1  0
 63 45  1  1
 46 47  1  1
 63 46  1  0
 47 64  1  6
 49 48  1  6
 64 48  1  0
 48 67  2  0
 50 51  2  0
 52 51  1  6
 54 53  1  0
 53 68  1  6
 55 54  2  0
 54 58  1  0
 65 55  1  0
 56 57  1  0
 56 65  2  0
 57 58  2  0
 57 59  1  0
 59 66  3  0
 60 61  2  0
 62 60  1  6
M  CHG  2   1   1  63   1
M  END
$$$$
