
     RDKit          3D

 68 73  0  0  0  0  0  0  0  0999 V2000
    5.9035  -24.9463  -24.0960 N   0  0  0  0  0  4  0  0  0  0  0  0
    7.6011  -18.7913  -17.0177 N   0  0  0  0  0  0  0  0  0  0  0  0
    5.5610  -24.4197  -22.8138 C   0  0  0  0  0  0  0  0  0  0  0  0
    4.1746  -24.5649  -22.3595 C   0  0  0  0  0  0  0  0  0  0  0  0
    4.0977  -24.4144  -20.8194 C   0  0  0  0  0  0  0  0  0  0  0  0
    6.2167  -24.2832  -19.4250 C   0  0  0  0  0  0  0  0  0  0  0  0
    6.9689  -23.1206  -19.2842 C   0  0  0  0  0  0  0  0  0  0  0  0
    8.9677  -21.0449  -19.2320 C   0  0  0  0  0  0  0  0  0  0  0  0
    7.6562  -19.7869  -17.7157 C   0  0  0  0  0  0  0  0  0  0  0  0
    1.6293  -24.6192  -21.2303 C   0  0  0  0  0  0  0  0  0  0  0  0
    5.6394  -26.4597  -27.5317 C   0  0  0  0  0  0  0  0  0  0  0  0
    7.7240  -20.9495  -18.5021 C   0  0  0  0  0  0  0  0  0  0  0  0
    6.8319  -21.9777  -18.5876 C   0  0  0  0  0  0  0  0  0  0  0  0
    2.7635  -24.4574  -20.4191 C   0  0  0  0  0  0  0  0  0  0  0  0
   -0.8841  -24.6898  -20.6453 C   0  0  0  0  0  0  0  0  0  0  0  0
    7.3057  -25.3629  -26.0550 C   0  0  0  0  0  0  0  0  0  0  0  0
    7.1597  -24.7749  -24.6601 C   0  0  0  0  0  0  0  0  0  0  0  0
    8.3491  -23.0963  -20.0135 C   0  0  0  0  0  0  0  0  0  0  0  0
    9.0255  -22.2002  -19.8934 N   0  0  0  0  0  0  0  0  0  0  0  0
    5.0903  -24.2895  -20.1712 O   0  0  0  0  0  0  0  0  0  0  0  0
    0.3812  -24.6400  -20.8626 O   0  0  0  0  0  0  0  0  0  0  0  0
   -1.4866  -25.7865  -12.1183 O   0  0  0  0  0  0  0  0  0  0  0  0
    6.2898  -26.3647  -26.2786 N   0  0  0  0  0  0  0  0  0  0  0  0
    4.2162  -26.9394  -27.6741 C   0  0  0  0  0  0  0  0  0  0  0  0
    6.2228  -26.1421  -28.6279 O   0  0  0  0  0  0  0  0  0  0  0  0
   -1.4450  -24.2066  -19.3775 C   0  0  0  0  0  0  0  0  0  0  0  0
   -1.5601  -22.7134  -19.2867 C   0  0  0  0  0  0  0  0  0  0  0  0
   -2.0859  -22.1694  -18.3081 C   0  0  0  0  0  0  0  0  0  0  0  0
   -2.6325  -22.8444  -17.1975 C   0  0  0  0  0  0  0  0  0  0  0  0
   -2.5851  -24.1500  -17.1688 C   0  0  0  0  0  0  0  0  0  0  0  0
   -1.9643  -24.8644  -18.3065 C   0  0  0  0  0  0  0  0  0  0  0  0
   -1.9211  -26.3231  -18.2022 C   0  0  0  0  0  0  0  0  0  0  0  0
   -2.9722  -24.9439  -16.0137 C   0  0  0  0  0  0  0  0  0  0  0  0
   -3.7317  -26.1552  -16.2030 C   0  0  0  0  0  0  0  0  0  0  0  0
   -4.1560  -26.9487  -15.1767 C   0  0  0  0  0  0  0  0  0  0  0  0
   -3.7711  -26.4598  -13.8382 C   0  0  0  0  0  0  0  0  0  0  0  0
   -3.1381  -25.4603  -13.7308 C   0  0  0  0  0  0  0  0  0  0  0  0
   -2.6415  -24.5435  -14.7330 C   0  0  0  0  0  0  0  0  0  0  0  0
   -1.8799  -23.3690  -14.3646 C   0  0  0  0  0  0  0  0  0  0  0  0
   -2.5341  -25.0350  -12.3142 C   0  0  0  0  0  0  0  0  0  0  0  0
   -0.1321  -25.9253  -12.1046 C   0  0  0  0  0  0  0  0  0  0  0  0
    0.4877  -25.7683  -13.5391 C   0  0  0  0  0  0  0  0  0  0  0  0
    1.8330  -25.9937  -13.4344 C   0  0  0  0  0  0  0  0  0  0  0  0
    2.6334  -26.2814  -12.3307 C   0  0  0  0  0  0  0  0  0  0  0  0
    4.1171  -26.5169  -12.5482 C   0  0  0  0  0  0  0  0  0  0  0  0
    5.5784  -27.5606  -10.8490 C   0  0  0  0  0  0  0  0  0  0  0  0
    6.9374  -27.7442  -11.5339 C   0  0  0  0  0  0  0  0  0  0  0  0
    8.0385  -25.8474  -12.7530 C   0  0  0  0  0  0  0  0  0  0  0  0
    8.7660  -24.4547  -12.4411 C   0  0  0  0  0  0  0  0  0  0  0  0
    2.0260  -26.3667  -11.1492 C   0  0  0  0  0  0  0  0  0  0  0  0
    0.6205  -26.1721  -11.1531 C   0  0  0  0  0  0  0  0  0  0  0  0
    0.0446  -26.2595   -9.7190 C   0  0  0  0  0  0  0  0  0  0  0  0
    3.1831  -27.0434  -15.3119 C   0  0  0  0  0  0  0  0  0  0  0  0
    3.7168  -26.5929  -16.6182 C   0  0  0  0  0  0  0  0  0  0  0  0
    2.6533  -26.4295  -17.6798 C   0  0  0  0  0  0  0  0  0  0  0  0
    4.3174  -26.1253  -19.1891 C   0  0  0  0  0  0  0  0  0  0  0  0
    5.3326  -26.2410  -18.4293 C   0  0  0  0  0  0  0  0  0  0  0  0
    4.9533  -26.4937  -17.0530 C   0  0  0  0  0  0  0  0  0  0  0  0
    6.7001  -26.2643  -18.7909 C   0  0  0  0  0  0  0  0  0  0  0  0
    1.8698  -24.7511  -22.5742 C   0  0  0  0  0  0  0  0  0  0  0  0
    3.1263  -24.7208  -23.1097 C   0  0  0  0  0  0  0  0  0  0  0  0
    0.7267  -25.0165  -23.5175 C   0  0  0  0  0  0  0  0  0  0  0  0
    4.8196  -26.4483  -11.3239 N   0  0  0  0  0  4  0  0  0  0  0  0
    7.6074  -26.4835  -11.5537 N   0  0  0  0  0  0  0  0  0  0  0  0
    3.0087  -26.1994  -18.9386 N   0  0  0  0  0  0  0  0  0  0  0  0
    7.9352  -26.2752  -19.0980 N   0  0  0  0  0  0  0  0  0  0  0  0
    7.9682  -26.1433  -13.8928 O   0  0  0  0  0  0  0  0  0  0  0  0
    2.5706  -25.9842  -14.6495 O   0  0  0  0  0  0  0  0  0  0  0  0
  1  3  1  1
  1 17  1  0
  9  2  3  0
  3  4  1  6
  5  4  2  0
  4 61  1  0
 14  5  1  0
  5 20  1  0
  6  7  1  0
  6 20  1  6
  7 13  2  0
  7 18  1  0
 12  8  2  0
 19  8  1  0
 12  9  1  0
 10 14  2  0
 21 10  1  0
 10 60  1  0
 23 11  1  0
 24 11  1  6
 11 25  2  0
 13 12  1  0
 15 21  1  1
 26 15  1  0
 17 16  1  6
 16 23  1  6
 18 19  2  0
 40 22  1  1
 41 22  1  0
 26 27  2  0
 31 26  1  0
 28 27  1  0
 29 28  2  0
 30 29  1  0
 30 31  2  0
 33 30  1  0
 32 31  1  6
 33 34  2  0
 38 33  1  0
 35 34  1  0
 36 35  2  0
 37 36  1  0
 37 38  2  0
 40 37  1  0
 39 38  1  6
 42 41  2  0
 41 51  1  0
 43 42  1  0
 43 44  2  0
 68 43  1  0
 45 44  1  1
 44 50  1  0
 63 45  1  1
 46 47  1  1
 63 46  1  0
 47 64  1  6
 49 48  1  6
 64 48  1  0
 48 67  2  0
 50 51  2  0
 52 51  1  6
 54 53  1  0
 53 68  1  6
 55 54  2  0
 54 58  1  0
 65 55  1  0
 56 57  1  0
 56 65  2  0
 57 58  2  0
 57 59  1  0
 59 66  3  0
 60 61  2  0
 62 60  1  6
M  CHG  2   1   1  63   1
M  END
$$$$
