
     RDKit          3D

 68 73  0  0  0  0  0  0  0  0999 V2000
    2.6720  -25.1784  -24.5910 N   0  0  0  0  0  4  0  0  0  0  0  0
   -2.3357  -19.1561  -19.9775 N   0  0  0  0  0  0  0  0  0  0  0  0
    4.0153  -24.7407  -24.3325 C   0  0  0  0  0  0  0  0  0  0  0  0
    4.2290  -24.8694  -22.8548 C   0  0  0  0  0  0  0  0  0  0  0  0
    3.9299  -23.8103  -21.9952 C   0  0  0  0  0  0  0  0  0  0  0  0
    2.7746  -21.5938  -21.8607 C   0  0  0  0  0  0  0  0  0  0  0  0
    1.4155  -21.9156  -21.3518 C   0  0  0  0  0  0  0  0  0  0  0  0
   -1.1037  -22.4107  -20.3966 C   0  0  0  0  0  0  0  0  0  0  0  0
   -1.5707  -20.0571  -20.1945 C   0  0  0  0  0  0  0  0  0  0  0  0
    4.8354  -25.0350  -20.1124 C   0  0  0  0  0  0  0  0  0  0  0  0
   -1.0182  -24.5816  -24.4088 C   0  0  0  0  0  0  0  0  0  0  0  0
   -0.6835  -21.1119  -20.4571 C   0  0  0  0  0  0  0  0  0  0  0  0
    0.6111  -20.8799  -20.9424 C   0  0  0  0  0  0  0  0  0  0  0  0
    4.2458  -23.9280  -20.6420 C   0  0  0  0  0  0  0  0  0  0  0  0
    4.4235  -25.6123  -17.7217 C   0  0  0  0  0  0  0  0  0  0  0  0
    0.7582  -25.1964  -26.0815 C   0  0  0  0  0  0  0  0  0  0  0  0
    2.1508  -24.6193  -25.8413 C   0  0  0  0  0  0  0  0  0  0  0  0
    0.9423  -23.2119  -21.2721 C   0  0  0  0  0  0  0  0  0  0  0  0
   -0.2948  -23.4011  -20.7980 N   0  0  0  0  0  0  0  0  0  0  0  0
    3.3230  -22.7010  -22.5121 O   0  0  0  0  0  0  0  0  0  0  0  0
    5.1693  -25.1871  -18.8197 O   0  0  0  0  0  0  0  0  0  0  0  0
    0.7175  -25.8998   -9.7256 O   0  0  0  0  0  0  0  0  0  0  0  0
   -0.2144  -24.2907  -25.5424 N   0  0  0  0  0  0  0  0  0  0  0  0
   -1.9090  -23.5217  -23.8161 C   0  0  0  0  0  0  0  0  0  0  0  0
   -0.9872  -25.7252  -23.8941 O   0  0  0  0  0  0  0  0  0  0  0  0
    5.1491  -25.6820  -16.4442 C   0  0  0  0  0  0  0  0  0  0  0  0
    6.4026  -25.2543  -16.1978 C   0  0  0  0  0  0  0  0  0  0  0  0
    7.0298  -25.2558  -14.9282 C   0  0  0  0  0  0  0  0  0  0  0  0
    6.2735  -25.7394  -13.8803 C   0  0  0  0  0  0  0  0  0  0  0  0
    5.0027  -26.1960  -14.0406 C   0  0  0  0  0  0  0  0  0  0  0  0
    4.4288  -26.1707  -15.3010 C   0  0  0  0  0  0  0  0  0  0  0  0
    3.0942  -26.6924  -15.4651 C   0  0  0  0  0  0  0  0  0  0  0  0
    4.2391  -26.7877  -12.9110 C   0  0  0  0  0  0  0  0  0  0  0  0
    4.6582  -27.9727  -12.3275 C   0  0  0  0  0  0  0  0  0  0  0  0
    3.9777  -28.5444  -11.2559 C   0  0  0  0  0  0  0  0  0  0  0  0
    2.8377  -27.9339  -10.7345 C   0  0  0  0  0  0  0  0  0  0  0  0
    2.4185  -26.7729  -11.3034 C   0  0  0  0  0  0  0  0  0  0  0  0
    3.1270  -26.2085  -12.3875 C   0  0  0  0  0  0  0  0  0  0  0  0
    2.6301  -24.8900  -12.9271 C   0  0  0  0  0  0  0  0  0  0  0  0
    1.1547  -26.1203  -10.9252 C   0  0  0  0  0  0  0  0  0  0  0  0
   -0.0053  -26.0289   -8.6709 C   0  0  0  0  0  0  0  0  0  0  0  0
   -1.3888  -26.1945   -8.4805 C   0  0  0  0  0  0  0  0  0  0  0  0
   -1.9036  -26.3151   -7.3160 C   0  0  0  0  0  0  0  0  0  0  0  0
   -1.1662  -26.3072   -6.0654 C   0  0  0  0  0  0  0  0  0  0  0  0
   -1.8456  -26.6606   -4.8313 C   0  0  0  0  0  0  0  0  0  0  0  0
   -3.2946  -28.1648   -3.5423 C   0  0  0  0  0  0  0  0  0  0  0  0
   -4.5133  -27.4342   -2.9600 C   0  0  0  0  0  0  0  0  0  0  0  0
   -6.4187  -27.2613   -4.5218 C   0  0  0  0  0  0  0  0  0  0  0  0
   -7.7466  -26.6165   -4.3498 C   0  0  0  0  0  0  0  0  0  0  0  0
    0.1791  -26.1387   -6.2115 C   0  0  0  0  0  0  0  0  0  0  0  0
    0.7531  -26.0043   -7.4290 C   0  0  0  0  0  0  0  0  0  0  0  0
    2.2206  -25.7903   -7.5392 C   0  0  0  0  0  0  0  0  0  0  0  0
   -4.2931  -25.5395   -6.9472 C   0  0  0  0  0  0  0  0  0  0  0  0
   -5.3550  -26.0734   -6.0522 C   0  0  0  0  0  0  0  0  0  0  0  0
   -5.3598  -27.2644   -5.4060 C   0  0  0  0  0  0  0  0  0  0  0  0
   -7.3878  -26.8088   -4.2098 C   0  0  0  0  0  0  0  0  0  0  0  0
   -7.3937  -25.5772   -4.8646 C   0  0  0  0  0  0  0  0  0  0  0  0
   -6.4356  -25.2232   -5.7411 C   0  0  0  0  0  0  0  0  0  0  0  0
   -8.5631  -24.7172   -4.6692 C   0  0  0  0  0  0  0  0  0  0  0  0
    5.1125  -26.0646  -21.0073 C   0  0  0  0  0  0  0  0  0  0  0  0
    4.8258  -26.0062  -22.3513 C   0  0  0  0  0  0  0  0  0  0  0  0
    5.7548  -27.2908  -20.5127 C   0  0  0  0  0  0  0  0  0  0  0  0
   -2.9128  -27.5482   -4.7752 N   0  0  0  0  0  4  0  0  0  0  0  0
   -5.2093  -26.6904   -3.9606 N   0  0  0  0  0  0  0  0  0  0  0  0
   -6.3397  -27.6082   -4.5249 N   0  0  0  0  0  0  0  0  0  0  0  0
   -9.4269  -24.0727   -4.5380 N   0  0  0  0  0  0  0  0  0  0  0  0
   -6.3432  -28.3302   -5.1705 O   0  0  0  0  0  0  0  0  0  0  0  0
   -3.2823  -26.4353   -6.9324 O   0  0  0  0  0  0  0  0  0  0  0  0
  3  1  1  0
  1 17  1  0
  9  2  3  0
  4  3  1  0
  5  4  2  0
  4 61  1  0
 14  5  1  0
  5 20  1  0
  6  7  1  0
 20  6  1  0
  7 13  2  0
  7 18  1  0
 12  8  2  0
 19  8  1  0
 12  9  1  0
 10 14  2  0
 21 10  1  0
 10 60  1  0
 23 11  1  0
 11 24  1  0
 11 25  2  0
 13 12  1  0
 15 21  1  0
 26 15  1  0
 17 16  1  0
 16 23  1  0
 18 19  2  0
 22 40  1  0
 41 22  1  0
 26 27  2  0
 31 26  1  0
 28 27  1  0
 29 28  2  0
 30 29  1  0
 30 31  2  0
 33 30  1  0
 31 32  1  0
 33 34  2  0
 38 33  1  0
 35 34  1  0
 36 35  2  0
 37 36  1  0
 37 38  2  0
 40 37  1  0
 38 39  1  0
 42 41  2  0
 41 51  1  0
 43 42  1  0
 43 44  2  0
 68 43  1  0
 44 45  1  0
 44 50  1  0
 45 63  1  0
 46 47  1  0
 63 46  1  0
 47 64  1  0
 48 49  1  0
 64 48  1  0
 48 67  2  0
 50 51  2  0
 51 52  1  0
 54 53  1  0
 53 68  1  0
 55 54  2  0
 54 58  1  0
 65 55  1  0
 56 57  1  0
 56 65  2  0
 57 58  2  0
 57 59  1  0
 59 66  3  0
 60 61  2  0
 60 62  1  0
M  CHG  2   1   1  63   1
M  END
$$$$
