
     RDKit          3D

 68 73  0  0  0  0  0  0  0  0999 V2000
   -0.8407  -26.3536   -5.5443 N   0  0  0  0  0  4  0  0  0  0  0  0
    6.4432  -32.9241   -6.0674 N   0  0  0  0  0  0  0  0  0  0  0  0
   -0.8816  -27.1965   -6.6960 C   0  0  0  0  0  0  0  0  0  0  0  0
   -0.5051  -26.6138   -7.9876 C   0  0  0  0  0  0  0  0  0  0  0  0
    0.5967  -27.4706   -8.6602 C   0  0  0  0  0  0  0  0  0  0  0  0
    1.5552  -29.4123   -7.3327 C   0  0  0  0  0  0  0  0  0  0  0  0
    2.8863  -29.8055   -7.4376 C   0  0  0  0  0  0  0  0  0  0  0  0
    5.6220  -30.3263   -8.1800 C   0  0  0  0  0  0  0  0  0  0  0  0
    5.7616  -32.0415   -6.5551 C   0  0  0  0  0  0  0  0  0  0  0  0
    0.2832  -25.8412  -10.5445 C   0  0  0  0  0  0  0  0  0  0  0  0
    0.4510  -26.2421   -2.0604 C   0  0  0  0  0  0  0  0  0  0  0  0
    4.9549  -31.0340   -7.1109 C   0  0  0  0  0  0  0  0  0  0  0  0
    3.6592  -30.7197   -6.8236 C   0  0  0  0  0  0  0  0  0  0  0  0
    0.8698  -26.9569   -9.9266 C   0  0  0  0  0  0  0  0  0  0  0  0
    0.7460  -25.0495  -12.9577 C   0  0  0  0  0  0  0  0  0  0  0  0
    0.3400  -24.7966   -4.0749 C   0  0  0  0  0  0  0  0  0  0  0  0
   -0.0529  -25.2129   -5.4839 C   0  0  0  0  0  0  0  0  0  0  0  0
    3.7219  -29.1260   -8.5679 C   0  0  0  0  0  0  0  0  0  0  0  0
    4.7929  -29.4424   -8.7340 N   0  0  0  0  0  0  0  0  0  0  0  0
    1.0724  -28.4038   -8.0911 O   0  0  0  0  0  0  0  0  0  0  0  0
    0.5213  -25.3704  -11.7341 O   0  0  0  0  0  0  0  0  0  0  0  0
    3.6724  -24.2966  -20.8494 O   0  0  0  0  0  0  0  0  0  0  0  0
   -0.2996  -25.6577   -3.1079 N   0  0  0  0  0  0  0  0  0  0  0  0
   -0.1199  -27.2919   -1.1395 C   0  0  0  0  0  0  0  0  0  0  0  0
    1.6682  -25.9137   -1.8290 O   0  0  0  0  0  0  0  0  0  0  0  0
    1.7408  -25.7805  -13.7522 C   0  0  0  0  0  0  0  0  0  0  0  0
    2.6969  -26.5996  -12.9359 C   0  0  0  0  0  0  0  0  0  0  0  0
    3.5394  -27.3274  -13.4747 C   0  0  0  0  0  0  0  0  0  0  0  0
    3.7060  -27.4885  -14.8655 C   0  0  0  0  0  0  0  0  0  0  0  0
    2.9273  -26.8197  -15.6742 C   0  0  0  0  0  0  0  0  0  0  0  0
    1.8999  -25.9258  -15.0950 C   0  0  0  0  0  0  0  0  0  0  0  0
    1.0770  -25.1875  -16.0534 C   0  0  0  0  0  0  0  0  0  0  0  0
    3.1060  -26.7841  -17.1168 C   0  0  0  0  0  0  0  0  0  0  0  0
    2.6264  -27.8801  -17.9222 C   0  0  0  0  0  0  0  0  0  0  0  0
    2.7707  -27.9407  -19.2781 C   0  0  0  0  0  0  0  0  0  0  0  0
    3.4685  -26.7785  -19.8623 C   0  0  0  0  0  0  0  0  0  0  0  0
    3.8394  -25.8946  -19.1605 C   0  0  0  0  0  0  0  0  0  0  0  0
    3.7489  -25.7239  -17.7274 C   0  0  0  0  0  0  0  0  0  0  0  0
    4.2798  -24.5450  -17.0766 C   0  0  0  0  0  0  0  0  0  0  0  0
    4.4007  -24.5404  -19.7956 C   0  0  0  0  0  0  0  0  0  0  0  0
    3.4064  -23.5158  -21.9328 C   0  0  0  0  0  0  0  0  0  0  0  0
    2.6016  -24.2951  -23.0335 C   0  0  0  0  0  0  0  0  0  0  0  0
    2.4465  -23.4561  -24.1030 C   0  0  0  0  0  0  0  0  0  0  0  0
    2.8428  -22.1348  -24.2995 C   0  0  0  0  0  0  0  0  0  0  0  0
    2.5477  -21.4766  -25.6350 C   0  0  0  0  0  0  0  0  0  0  0  0
    0.2899  -22.1380  -26.3946 C   0  0  0  0  0  0  0  0  0  0  0  0
   -0.2300  -20.9127  -27.1548 C   0  0  0  0  0  0  0  0  0  0  0  0
   -0.4779  -22.1584  -29.3189 C   0  0  0  0  0  0  0  0  0  0  0  0
    0.4073  -23.4842  -29.1610 C   0  0  0  0  0  0  0  0  0  0  0  0
    3.4945  -21.5440  -23.3002 C   0  0  0  0  0  0  0  0  0  0  0  0
    3.7286  -22.3402  -22.1493 C   0  0  0  0  0  0  0  0  0  0  0  0
    4.4582  -21.5278  -21.0522 C   0  0  0  0  0  0  0  0  0  0  0  0
    1.6164  -25.3426  -25.5868 C   0  0  0  0  0  0  0  0  0  0  0  0
    1.2998  -25.4681  -27.0284 C   0  0  0  0  0  0  0  0  0  0  0  0
    2.5106  -25.7468  -27.8893 C   0  0  0  0  0  0  0  0  0  0  0  0
    1.1948  -25.4247  -29.7071 C   0  0  0  0  0  0  0  0  0  0  0  0
    0.0863  -25.1633  -29.1376 C   0  0  0  0  0  0  0  0  0  0  0  0
    0.1980  -25.1986  -27.6926 C   0  0  0  0  0  0  0  0  0  0  0  0
   -1.1299  -24.7537  -29.7329 C   0  0  0  0  0  0  0  0  0  0  0  0
   -0.6693  -25.1830   -9.8093 C   0  0  0  0  0  0  0  0  0  0  0  0
   -1.0436  -25.5781   -8.5562 C   0  0  0  0  0  0  0  0  0  0  0  0
   -1.2945  -23.9238  -10.3485 C   0  0  0  0  0  0  0  0  0  0  0  0
    1.7085  -22.2965  -26.4229 N   0  0  0  0  0  4  0  0  0  0  0  0
    0.0536  -21.0886  -28.5431 N   0  0  0  0  0  0  0  0  0  0  0  0
    2.4005  -25.7115  -29.2123 N   0  0  0  0  0  0  0  0  0  0  0  0
   -2.2153  -24.3874  -30.2877 N   0  0  0  0  0  0  0  0  0  0  0  0
   -1.4164  -22.2518  -30.0275 O   0  0  0  0  0  0  0  0  0  0  0  0
    1.8134  -24.0071  -25.2503 O   0  0  0  0  0  0  0  0  0  0  0  0
  1  3  1  1
  1 17  1  0
  9  2  3  0
  3  4  1  6
  5  4  2  0
  4 61  1  0
 14  5  1  0
  5 20  1  0
  6  7  1  0
  6 20  1  6
  7 13  2  0
  7 18  1  0
 12  8  2  0
 19  8  1  0
 12  9  1  0
 10 14  2  0
 21 10  1  0
 10 60  1  0
 23 11  1  0
 24 11  1  6
 11 25  2  0
 13 12  1  0
 15 21  1  1
 26 15  1  0
 17 16  1  6
 16 23  1  6
 18 19  2  0
 40 22  1  1
 41 22  1  0
 26 27  2  0
 31 26  1  0
 28 27  1  0
 29 28  2  0
 30 29  1  0
 30 31  2  0
 33 30  1  0
 32 31  1  6
 33 34  2  0
 38 33  1  0
 35 34  1  0
 36 35  2  0
 37 36  1  0
 37 38  2  0
 40 37  1  0
 39 38  1  6
 42 41  2  0
 41 51  1  0
 43 42  1  0
 43 44  2  0
 68 43  1  0
 45 44  1  1
 44 50  1  0
 63 45  1  1
 46 47  1  1
 63 46  1  0
 47 64  1  6
 49 48  1  6
 64 48  1  0
 48 67  2  0
 50 51  2  0
 52 51  1  6
 54 53  1  0
 53 68  1  6
 55 54  2  0
 54 58  1  0
 65 55  1  0
 56 57  1  0
 56 65  2  0
 57 58  2  0
 57 59  1  0
 59 66  3  0
 60 61  2  0
 62 60  1  6
M  CHG  2   1   1  63   1
M  END
$$$$
