
     RDKit          3D

 68 73  0  0  0  0  0  0  0  0999 V2000
   -1.2149  -31.5363   -3.1338 N   0  0  0  0  0  4  0  0  0  0  0  0
   -4.4985  -21.2814   -3.8771 N   0  0  0  0  0  0  0  0  0  0  0  0
   -1.6222  -30.1765   -3.2877 C   0  0  0  0  0  0  0  0  0  0  0  0
   -1.5620  -29.5889   -4.6296 C   0  0  0  0  0  0  0  0  0  0  0  0
   -1.8438  -28.0670   -4.5604 C   0  0  0  0  0  0  0  0  0  0  0  0
   -2.3991  -26.8689   -2.3906 C   0  0  0  0  0  0  0  0  0  0  0  0
   -3.3169  -25.8226   -2.3796 C   0  0  0  0  0  0  0  0  0  0  0  0
   -5.6112  -24.0865   -2.2104 C   0  0  0  0  0  0  0  0  0  0  0  0
   -4.4487  -22.3955   -3.3896 C   0  0  0  0  0  0  0  0  0  0  0  0
   -1.3385  -28.1731   -7.0174 C   0  0  0  0  0  0  0  0  0  0  0  0
    2.2329  -33.6946   -0.9015 C   0  0  0  0  0  0  0  0  0  0  0  0
   -4.3676  -23.6792   -2.8238 C   0  0  0  0  0  0  0  0  0  0  0  0
   -3.3304  -24.5644   -2.8559 C   0  0  0  0  0  0  0  0  0  0  0  0
   -1.6855  -27.5117   -5.8288 C   0  0  0  0  0  0  0  0  0  0  0  0
   -0.9083  -27.2588   -9.3930 C   0  0  0  0  0  0  0  0  0  0  0  0
   -0.0112  -33.2406   -1.8595 C   0  0  0  0  0  0  0  0  0  0  0  0
   -1.0465  -32.1270   -1.8896 C   0  0  0  0  0  0  0  0  0  0  0  0
   -4.7138  -26.1334   -1.7556 C   0  0  0  0  0  0  0  0  0  0  0  0
   -5.5160  -25.3389   -1.7654 N   0  0  0  0  0  0  0  0  0  0  0  0
   -2.1454  -27.5516   -3.5286 O   0  0  0  0  0  0  0  0  0  0  0  0
   -1.1703  -27.6551   -8.1993 O   0  0  0  0  0  0  0  0  0  0  0  0
   -0.0234  -23.8463  -16.7840 O   0  0  0  0  0  0  0  0  0  0  0  0
    1.1796  -32.7910   -1.1773 N   0  0  0  0  0  0  0  0  0  0  0  0
    3.0007  -33.6756    0.3970 C   0  0  0  0  0  0  0  0  0  0  0  0
    2.6007  -34.5893   -1.7424 O   0  0  0  0  0  0  0  0  0  0  0  0
   -1.7457  -26.2446  -10.0453 C   0  0  0  0  0  0  0  0  0  0  0  0
   -2.7241  -25.5732   -9.1270 C   0  0  0  0  0  0  0  0  0  0  0  0
   -3.4405  -24.6452   -9.5214 C   0  0  0  0  0  0  0  0  0  0  0  0
   -3.4324  -24.1078  -10.8249 C   0  0  0  0  0  0  0  0  0  0  0  0
   -2.6190  -24.6185  -11.7111 C   0  0  0  0  0  0  0  0  0  0  0  0
   -1.7369  -25.7358  -11.3065 C   0  0  0  0  0  0  0  0  0  0  0  0
   -0.8679  -26.2784  -12.3510 C   0  0  0  0  0  0  0  0  0  0  0  0
   -2.6320  -24.2550  -13.1189 C   0  0  0  0  0  0  0  0  0  0  0  0
   -3.8783  -24.2569  -13.8446 C   0  0  0  0  0  0  0  0  0  0  0  0
   -3.9805  -23.9515  -15.1709 C   0  0  0  0  0  0  0  0  0  0  0  0
   -2.6943  -23.6156  -15.8127 C   0  0  0  0  0  0  0  0  0  0  0  0
   -1.6931  -23.6193  -15.1732 C   0  0  0  0  0  0  0  0  0  0  0  0
   -1.4629  -23.9276  -13.7792 C   0  0  0  0  0  0  0  0  0  0  0  0
   -0.1353  -23.8655  -13.2058 C   0  0  0  0  0  0  0  0  0  0  0  0
   -0.3348  -23.0542  -15.7961 C   0  0  0  0  0  0  0  0  0  0  0  0
    0.5763  -24.0293  -17.9927 C   0  0  0  0  0  0  0  0  0  0  0  0
    2.1172  -23.7318  -17.9334 C   0  0  0  0  0  0  0  0  0  0  0  0
    2.6138  -23.8722  -19.2005 C   0  0  0  0  0  0  0  0  0  0  0  0
    1.9952  -24.2363  -20.3948 C   0  0  0  0  0  0  0  0  0  0  0  0
    2.8257  -24.2694  -21.6649 C   0  0  0  0  0  0  0  0  0  0  0  0
    4.8916  -25.2937  -22.5565 C   0  0  0  0  0  0  0  0  0  0  0  0
    6.0609  -26.2207  -22.2060 C   0  0  0  0  0  0  0  0  0  0  0  0
    5.6703  -28.1456  -23.7676 C   0  0  0  0  0  0  0  0  0  0  0  0
    7.1663  -28.3584  -24.2995 C   0  0  0  0  0  0  0  0  0  0  0  0
    0.6911  -24.4988  -20.3447 C   0  0  0  0  0  0  0  0  0  0  0  0
    0.0732  -24.3581  -19.0750 C   0  0  0  0  0  0  0  0  0  0  0  0
   -1.4284  -24.7270  -19.1452 C   0  0  0  0  0  0  0  0  0  0  0  0
    5.0400  -23.6816  -18.4748 C   0  0  0  0  0  0  0  0  0  0  0  0
    6.3153  -23.2807  -19.1128 C   0  0  0  0  0  0  0  0  0  0  0  0
    6.1300  -22.5436  -20.4194 C   0  0  0  0  0  0  0  0  0  0  0  0
    8.3707  -22.6918  -20.7306 C   0  0  0  0  0  0  0  0  0  0  0  0
    8.7025  -23.3191  -19.6734 C   0  0  0  0  0  0  0  0  0  0  0  0
    7.5564  -23.6135  -18.8359 C   0  0  0  0  0  0  0  0  0  0  0  0
    9.9744  -23.8262  -19.3177 C   0  0  0  0  0  0  0  0  0  0  0  0
   -1.1337  -29.5251   -6.9111 C   0  0  0  0  0  0  0  0  0  0  0  0
   -1.2471  -30.2022   -5.7299 C   0  0  0  0  0  0  0  0  0  0  0  0
   -0.8432  -30.3383   -8.1445 C   0  0  0  0  0  0  0  0  0  0  0  0
    3.8938  -25.1865  -21.5410 N   0  0  0  0  0  4  0  0  0  0  0  0
    5.6636  -27.5673  -22.4659 N   0  0  0  0  0  0  0  0  0  0  0  0
    7.1847  -22.2786  -21.1817 N   0  0  0  0  0  0  0  0  0  0  0  0
   11.1206  -24.2668  -18.9832 N   0  0  0  0  0  0  0  0  0  0  0  0
    4.8131  -28.4902  -24.5012 O   0  0  0  0  0  0  0  0  0  0  0  0
    3.9887  -23.5577  -19.3776 O   0  0  0  0  0  0  0  0  0  0  0  0
  1  3  1  1
  1 17  1  0
  9  2  3  0
  3  4  1  6
  5  4  2  0
  4 61  1  0
 14  5  1  0
  5 20  1  0
  6  7  1  0
  6 20  1  6
  7 13  2  0
  7 18  1  0
 12  8  2  0
 19  8  1  0
 12  9  1  0
 10 14  2  0
 21 10  1  0
 10 60  1  0
 23 11  1  0
 24 11  1  6
 11 25  2  0
 13 12  1  0
 15 21  1  1
 26 15  1  0
 17 16  1  6
 16 23  1  6
 18 19  2  0
 40 22  1  1
 41 22  1  0
 26 27  2  0
 31 26  1  0
 28 27  1  0
 29 28  2  0
 30 29  1  0
 30 31  2  0
 33 30  1  0
 32 31  1  6
 33 34  2  0
 38 33  1  0
 35 34  1  0
 36 35  2  0
 37 36  1  0
 37 38  2  0
 40 37  1  0
 39 38  1  6
 42 41  2  0
 41 51  1  0
 43 42  1  0
 43 44  2  0
 68 43  1  0
 45 44  1  1
 44 50  1  0
 63 45  1  1
 46 47  1  1
 63 46  1  0
 47 64  1  6
 49 48  1  6
 64 48  1  0
 48 67  2  0
 50 51  2  0
 52 51  1  6
 54 53  1  0
 53 68  1  6
 55 54  2  0
 54 58  1  0
 65 55  1  0
 56 57  1  0
 56 65  2  0
 57 58  2  0
 57 59  1  0
 59 66  3  0
 60 61  2  0
 62 60  1  6
M  CHG  2   1   1  63   1
M  END
$$$$
