
     RDKit          3D

 68 73  0  0  0  0  0  0  0  0999 V2000
    3.9601  -24.2904  -26.2112 N   0  0  0  0  0  4  0  0  0  0  0  0
    6.0030  -27.5794  -19.5742 N   0  0  0  0  0  0  0  0  0  0  0  0
    3.3378  -23.0062  -26.0491 C   0  0  0  0  0  0  0  0  0  0  0  0
    2.4028  -23.1291  -24.8844 C   0  0  0  0  0  0  0  0  0  0  0  0
    2.8879  -23.4146  -23.6064 C   0  0  0  0  0  0  0  0  0  0  0  0
    5.0728  -22.5858  -22.7092 C   0  0  0  0  0  0  0  0  0  0  0  0
    5.3207  -23.1064  -21.3391 C   0  0  0  0  0  0  0  0  0  0  0  0
    5.7694  -24.1592  -18.8503 C   0  0  0  0  0  0  0  0  0  0  0  0
    5.8137  -26.4023  -19.7251 C   0  0  0  0  0  0  0  0  0  0  0  0
    0.6301  -23.5749  -22.7456 C   0  0  0  0  0  0  0  0  0  0  0  0
    7.9786  -26.1749  -27.4452 C   0  0  0  0  0  0  0  0  0  0  0  0
    5.6007  -25.0257  -19.8934 C   0  0  0  0  0  0  0  0  0  0  0  0
    5.3655  -24.4675  -21.1576 C   0  0  0  0  0  0  0  0  0  0  0  0
    1.9790  -23.6306  -22.5709 C   0  0  0  0  0  0  0  0  0  0  0  0
   -0.2112  -24.5152  -20.5946 C   0  0  0  0  0  0  0  0  0  0  0  0
    5.5085  -25.6951  -27.4415 C   0  0  0  0  0  0  0  0  0  0  0  0
    4.8995  -24.2994  -27.3359 C   0  0  0  0  0  0  0  0  0  0  0  0
    5.4997  -22.2727  -20.2513 C   0  0  0  0  0  0  0  0  0  0  0  0
    5.7153  -22.8360  -19.0566 N   0  0  0  0  0  0  0  0  0  0  0  0
    4.2398  -23.4568  -23.4153 O   0  0  0  0  0  0  0  0  0  0  0  0
   -0.2818  -23.7886  -21.7819 O   0  0  0  0  0  0  0  0  0  0  0  0
   -0.4625  -25.7371  -11.6530 O   0  0  0  0  0  0  0  0  0  0  0  0
    6.8193  -25.5831  -28.0125 N   0  0  0  0  0  0  0  0  0  0  0  0
    7.8492  -27.2246  -26.3730 C   0  0  0  0  0  0  0  0  0  0  0  0
    9.1179  -25.8226  -27.8345 O   0  0  0  0  0  0  0  0  0  0  0  0
   -1.2742  -24.2440  -19.6149 C   0  0  0  0  0  0  0  0  0  0  0  0
   -2.3167  -23.4031  -19.7596 C   0  0  0  0  0  0  0  0  0  0  0  0
   -3.3697  -23.2420  -18.8266 C   0  0  0  0  0  0  0  0  0  0  0  0
   -3.2950  -24.0199  -17.6894 C   0  0  0  0  0  0  0  0  0  0  0  0
   -2.2756  -24.8902  -17.4602 C   0  0  0  0  0  0  0  0  0  0  0  0
   -1.2698  -25.0175  -18.4040 C   0  0  0  0  0  0  0  0  0  0  0  0
   -0.1746  -25.9159  -18.1324 C   0  0  0  0  0  0  0  0  0  0  0  0
   -2.1757  -25.6561  -16.1903 C   0  0  0  0  0  0  0  0  0  0  0  0
   -2.9489  -26.7891  -15.9935 C   0  0  0  0  0  0  0  0  0  0  0  0
   -2.8665  -27.5403  -14.8243 C   0  0  0  0  0  0  0  0  0  0  0  0
   -1.9938  -27.1668  -13.8030 C   0  0  0  0  0  0  0  0  0  0  0  0
   -1.2343  -26.0549  -13.9872 C   0  0  0  0  0  0  0  0  0  0  0  0
   -1.3313  -25.3100  -15.1835 C   0  0  0  0  0  0  0  0  0  0  0  0
   -0.4147  -24.1209  -15.3342 C   0  0  0  0  0  0  0  0  0  0  0  0
   -0.3860  -25.4938  -12.9233 C   0  0  0  0  0  0  0  0  0  0  0  0
   -0.2064  -26.2888  -10.5209 C   0  0  0  0  0  0  0  0  0  0  0  0
    0.9539  -26.8834   -9.9935 C   0  0  0  0  0  0  0  0  0  0  0  0
    0.9885  -27.3722   -8.8122 C   0  0  0  0  0  0  0  0  0  0  0  0
   -0.1179  -27.3801   -7.8723 C   0  0  0  0  0  0  0  0  0  0  0  0
    0.1153  -27.7778   -6.4950 C   0  0  0  0  0  0  0  0  0  0  0  0
    0.8762  -26.9231   -4.3238 C   0  0  0  0  0  0  0  0  0  0  0  0
    2.1974  -26.5193   -3.6532 C   0  0  0  0  0  0  0  0  0  0  0  0
    3.8666  -28.3350   -3.5247 C   0  0  0  0  0  0  0  0  0  0  0  0
    4.0330  -28.3371   -2.0479 C   0  0  0  0  0  0  0  0  0  0  0  0
   -1.2639  -26.8193   -8.3541 C   0  0  0  0  0  0  0  0  0  0  0  0
   -1.3334  -26.2976   -9.6003 C   0  0  0  0  0  0  0  0  0  0  0  0
   -2.6133  -25.7251  -10.0957 C   0  0  0  0  0  0  0  0  0  0  0  0
    3.2129  -27.6052   -7.6099 C   0  0  0  0  0  0  0  0  0  0  0  0
    4.0685  -28.7972   -7.3636 C   0  0  0  0  0  0  0  0  0  0  0  0
    4.1383  -29.5359   -6.2298 C   0  0  0  0  0  0  0  0  0  0  0  0
    5.6114  -31.1746   -7.1762 C   0  0  0  0  0  0  0  0  0  0  0  0
    5.5457  -30.4266   -8.3517 C   0  0  0  0  0  0  0  0  0  0  0  0
    4.8192  -29.2975   -8.4469 C   0  0  0  0  0  0  0  0  0  0  0  0
    6.4100  -30.8383   -9.4602 C   0  0  0  0  0  0  0  0  0  0  0  0
    0.1943  -23.2853  -24.0355 C   0  0  0  0  0  0  0  0  0  0  0  0
    1.0416  -23.0642  -25.0963 C   0  0  0  0  0  0  0  0  0  0  0  0
   -1.2489  -23.2140  -24.3056 C   0  0  0  0  0  0  0  0  0  0  0  0
    1.1138  -27.2281   -5.7009 N   0  0  0  0  0  4  0  0  0  0  0  0
    3.3117  -27.1978   -4.2335 N   0  0  0  0  0  0  0  0  0  0  0  0
    4.8817  -30.6741   -6.1496 N   0  0  0  0  0  0  0  0  0  0  0  0
    7.0631  -31.1426  -10.2723 N   0  0  0  0  0  0  0  0  0  0  0  0
    4.2172  -29.3461   -4.1758 O   0  0  0  0  0  0  0  0  0  0  0  0
    2.0540  -28.0576   -8.1359 O   0  0  0  0  0  0  0  0  0  0  0  0
  3  1  1  0
  1 17  1  0
  9  2  3  0
  4  3  1  0
  5  4  2  0
  4 61  1  0
 14  5  1  0
  5 20  1  0
  6  7  1  0
 20  6  1  0
  7 13  2  0
  7 18  1  0
 12  8  2  0
 19  8  1  0
 12  9  1  0
 10 14  2  0
 21 10  1  0
 10 60  1  0
 23 11  1  0
 11 24  1  0
 11 25  2  0
 13 12  1  0
 15 21  1  0
 26 15  1  0
 17 16  1  0
 16 23  1  0
 18 19  2  0
 22 40  1  0
 41 22  1  0
 26 27  2  0
 31 26  1  0
 28 27  1  0
 29 28  2  0
 30 29  1  0
 30 31  2  0
 33 30  1  0
 31 32  1  0
 33 34  2  0
 38 33  1  0
 35 34  1  0
 36 35  2  0
 37 36  1  0
 37 38  2  0
 40 37  1  0
 38 39  1  0
 42 41  2  0
 41 51  1  0
 43 42  1  0
 43 44  2  0
 68 43  1  0
 44 45  1  0
 44 50  1  0
 45 63  1  0
 46 47  1  0
 63 46  1  0
 47 64  1  0
 48 49  1  0
 64 48  1  0
 48 67  2  0
 50 51  2  0
 51 52  1  0
 54 53  1  0
 53 68  1  0
 55 54  2  0
 54 58  1  0
 65 55  1  0
 56 57  1  0
 56 65  2  0
 57 58  2  0
 57 59  1  0
 59 66  3  0
 60 61  2  0
 60 62  1  0
M  CHG  2   1   1  63   1
M  END
$$$$
