
     RDKit          3D

 68 73  0  0  0  0  0  0  0  0999 V2000
   -3.8646  -27.3108   -4.6562 N   0  0  0  0  0  4  0  0  0  0  0  0
   -6.3418  -23.0199   -2.8684 N   0  0  0  0  0  0  0  0  0  0  0  0
   -3.7938  -28.2164   -5.7687 C   0  0  0  0  0  0  0  0  0  0  0  0
   -2.6009  -27.8060   -6.5777 C   0  0  0  0  0  0  0  0  0  0  0  0
   -2.6094  -26.6169   -7.3097 C   0  0  0  0  0  0  0  0  0  0  0  0
   -4.7514  -25.5458   -8.0377 C   0  0  0  0  0  0  0  0  0  0  0  0
   -5.9082  -24.9937   -7.2849 C   0  0  0  0  0  0  0  0  0  0  0  0
   -7.9805  -23.9668   -5.8169 C   0  0  0  0  0  0  0  0  0  0  0  0
   -6.5291  -23.5053   -3.9517 C   0  0  0  0  0  0  0  0  0  0  0  0
   -0.4487  -27.1474   -8.2658 C   0  0  0  0  0  0  0  0  0  0  0  0
   -2.4758  -30.5564   -1.8112 C   0  0  0  0  0  0  0  0  0  0  0  0
   -6.7558  -24.0641   -5.2185 C   0  0  0  0  0  0  0  0  0  0  0  0
   -5.7101  -24.5984   -5.9841 C   0  0  0  0  0  0  0  0  0  0  0  0
   -1.5253  -26.3243   -8.1367 C   0  0  0  0  0  0  0  0  0  0  0  0
    1.0583  -25.7448   -9.6732 C   0  0  0  0  0  0  0  0  0  0  0  0
   -2.2782  -28.5197   -3.2755 C   0  0  0  0  0  0  0  0  0  0  0  0
   -3.7135  -28.0103   -3.3774 C   0  0  0  0  0  0  0  0  0  0  0  0
   -7.1662  -24.8724   -7.8445 C   0  0  0  0  0  0  0  0  0  0  0  0
   -8.1452  -24.3654   -7.0859 N   0  0  0  0  0  0  0  0  0  0  0  0
   -3.6768  -25.7750   -7.1755 O   0  0  0  0  0  0  0  0  0  0  0  0
    0.6104  -26.9132   -9.0592 O   0  0  0  0  0  0  0  0  0  0  0  0
    3.7775  -25.0053  -18.3665 O   0  0  0  0  0  0  0  0  0  0  0  0
   -2.1189  -29.1985   -2.0222 N   0  0  0  0  0  0  0  0  0  0  0  0
   -3.2025  -30.9655   -0.5571 C   0  0  0  0  0  0  0  0  0  0  0  0
   -2.1839  -31.4230   -2.6699 O   0  0  0  0  0  0  0  0  0  0  0  0
    2.3865  -25.8209  -10.3004 C   0  0  0  0  0  0  0  0  0  0  0  0
    3.5797  -25.6517   -9.6985 C   0  0  0  0  0  0  0  0  0  0  0  0
    4.8393  -25.8263  -10.3217 C   0  0  0  0  0  0  0  0  0  0  0  0
    4.8107  -26.1982  -11.6501 C   0  0  0  0  0  0  0  0  0  0  0  0
    3.6516  -26.3850  -12.3362 C   0  0  0  0  0  0  0  0  0  0  0  0
    2.4430  -26.2074  -11.6832 C   0  0  0  0  0  0  0  0  0  0  0  0
    1.2208  -26.3717  -12.4312 C   0  0  0  0  0  0  0  0  0  0  0  0
    3.6482  -26.7054  -13.7876 C   0  0  0  0  0  0  0  0  0  0  0  0
    3.6178  -28.0238  -14.2132 C   0  0  0  0  0  0  0  0  0  0  0  0
    3.5947  -28.3588  -15.5644 C   0  0  0  0  0  0  0  0  0  0  0  0
    3.6048  -27.3634  -16.5407 C   0  0  0  0  0  0  0  0  0  0  0  0
    3.6378  -26.0679  -16.1312 C   0  0  0  0  0  0  0  0  0  0  0  0
    3.6566  -25.7509  -14.7547 C   0  0  0  0  0  0  0  0  0  0  0  0
    3.6366  -24.2891  -14.3812 C   0  0  0  0  0  0  0  0  0  0  0  0
    3.7911  -24.9466  -17.0722 C   0  0  0  0  0  0  0  0  0  0  0  0
    3.3180  -24.9340  -19.5645 C   0  0  0  0  0  0  0  0  0  0  0  0
    2.0105  -24.8917  -20.0808 C   0  0  0  0  0  0  0  0  0  0  0  0
    1.7792  -24.8094  -21.3359 C   0  0  0  0  0  0  0  0  0  0  0  0
    2.7908  -24.7423  -22.3751 C   0  0  0  0  0  0  0  0  0  0  0  0
    2.3961  -24.4424  -23.7403 C   0  0  0  0  0  0  0  0  0  0  0  0
    4.0639  -23.1224  -24.9650 C   0  0  0  0  0  0  0  0  0  0  0  0
    4.5890  -21.7103  -24.6673 C   0  0  0  0  0  0  0  0  0  0  0  0
    5.9949  -21.6926  -22.6370 C   0  0  0  0  0  0  0  0  0  0  0  0
    5.5066  -20.5272  -21.8545 C   0  0  0  0  0  0  0  0  0  0  0  0
    4.0722  -24.7905  -21.9109 C   0  0  0  0  0  0  0  0  0  0  0  0
    4.3493  -24.8816  -20.5900 C   0  0  0  0  0  0  0  0  0  0  0  0
    5.7614  -24.9640  -20.1310 C   0  0  0  0  0  0  0  0  0  0  0  0
   -0.5480  -25.6236  -21.9431 C   0  0  0  0  0  0  0  0  0  0  0  0
   -1.4782  -25.2379  -23.0383 C   0  0  0  0  0  0  0  0  0  0  0  0
   -1.8605  -25.9963  -24.0942 C   0  0  0  0  0  0  0  0  0  0  0  0
   -3.4419  -24.3863  -24.9055 C   0  0  0  0  0  0  0  0  0  0  0  0
   -3.0615  -23.5964  -23.8207 C   0  0  0  0  0  0  0  0  0  0  0  0
   -2.1296  -23.9920  -22.9337 C   0  0  0  0  0  0  0  0  0  0  0  0
   -3.6177  -22.2435  -23.7459 C   0  0  0  0  0  0  0  0  0  0  0  0
   -0.4844  -28.3194   -7.5156 C   0  0  0  0  0  0  0  0  0  0  0  0
   -1.5253  -28.6627   -6.6844 C   0  0  0  0  0  0  0  0  0  0  0  0
    0.6389  -29.2631   -7.6061 C   0  0  0  0  0  0  0  0  0  0  0  0
    2.7586  -23.2750  -24.4002 N   0  0  0  0  0  4  0  0  0  0  0  0
    5.8911  -21.7448  -24.0826 N   0  0  0  0  0  0  0  0  0  0  0  0
   -2.8024  -25.5786  -24.9846 N   0  0  0  0  0  0  0  0  0  0  0  0
   -4.0357  -21.2439  -23.6762 N   0  0  0  0  0  0  0  0  0  0  0  0
    6.5121  -22.6576  -22.0285 O   0  0  0  0  0  0  0  0  0  0  0  0
    0.5264  -24.8106  -22.0380 O   0  0  0  0  0  0  0  0  0  0  0  0
  3  1  1  0
  1 17  1  0
  9  2  3  0
  4  3  1  0
  5  4  2  0
  4 61  1  0
 14  5  1  0
  5 20  1  0
  6  7  1  0
 20  6  1  0
  7 13  2  0
  7 18  1  0
 12  8  2  0
 19  8  1  0
 12  9  1  0
 10 14  2  0
 21 10  1  0
 10 60  1  0
 23 11  1  0
 11 24  1  0
 11 25  2  0
 13 12  1  0
 15 21  1  0
 26 15  1  0
 17 16  1  0
 16 23  1  0
 18 19  2  0
 22 40  1  0
 41 22  1  0
 26 27  2  0
 31 26  1  0
 28 27  1  0
 29 28  2  0
 30 29  1  0
 30 31  2  0
 33 30  1  0
 31 32  1  0
 33 34  2  0
 38 33  1  0
 35 34  1  0
 36 35  2  0
 37 36  1  0
 37 38  2  0
 40 37  1  0
 38 39  1  0
 42 41  2  0
 41 51  1  0
 43 42  1  0
 43 44  2  0
 68 43  1  0
 44 45  1  0
 44 50  1  0
 45 63  1  0
 46 47  1  0
 63 46  1  0
 47 64  1  0
 48 49  1  0
 64 48  1  0
 48 67  2  0
 50 51  2  0
 51 52  1  0
 54 53  1  0
 53 68  1  0
 55 54  2  0
 54 58  1  0
 65 55  1  0
 56 57  1  0
 56 65  2  0
 57 58  2  0
 57 59  1  0
 59 66  3  0
 60 61  2  0
 60 62  1  0
M  CHG  2   1   1  63   1
M  END
$$$$
