
     RDKit          3D

 68 73  0  0  0  0  0  0  0  0999 V2000
   -2.5653  -25.8496   -1.9804 N   0  0  0  0  0  4  0  0  0  0  0  0
   -7.6604  -25.6172  -10.5137 N   0  0  0  0  0  0  0  0  0  0  0  0
   -3.0157  -26.6538   -3.0708 C   0  0  0  0  0  0  0  0  0  0  0  0
   -2.2894  -26.5583   -4.3408 C   0  0  0  0  0  0  0  0  0  0  0  0
   -3.2089  -26.9765   -5.5157 C   0  0  0  0  0  0  0  0  0  0  0  0
   -5.5997  -27.7321   -5.1100 C   0  0  0  0  0  0  0  0  0  0  0  0
   -6.5708  -27.4261   -6.0591 C   0  0  0  0  0  0  0  0  0  0  0  0
   -8.9075  -27.2050   -7.7315 C   0  0  0  0  0  0  0  0  0  0  0  0
   -7.6433  -26.0876   -9.3913 C   0  0  0  0  0  0  0  0  0  0  0  0
   -1.2265  -26.3052   -6.9026 C   0  0  0  0  0  0  0  0  0  0  0  0
   -5.2620  -24.9152    0.6128 C   0  0  0  0  0  0  0  0  0  0  0  0
   -7.6253  -26.6526   -8.1048 C   0  0  0  0  0  0  0  0  0  0  0  0
   -6.5729  -26.7996   -7.2497 C   0  0  0  0  0  0  0  0  0  0  0  0
   -2.5328  -26.7854   -6.7193 C   0  0  0  0  0  0  0  0  0  0  0  0
   -0.1164  -25.8826   -9.1946 C   0  0  0  0  0  0  0  0  0  0  0  0
   -3.2033  -24.0414   -0.4635 C   0  0  0  0  0  0  0  0  0  0  0  0
   -2.8701  -24.5000   -1.8748 C   0  0  0  0  0  0  0  0  0  0  0  0
   -8.0052  -27.9779   -5.7847 C   0  0  0  0  0  0  0  0  0  0  0  0
   -8.8220  -27.8052   -6.5449 N   0  0  0  0  0  0  0  0  0  0  0  0
   -4.3083  -27.3885   -5.3095 O   0  0  0  0  0  0  0  0  0  0  0  0
   -0.5991  -26.1068   -8.0253 O   0  0  0  0  0  0  0  0  0  0  0  0
    3.5637  -26.6167  -17.0307 O   0  0  0  0  0  0  0  0  0  0  0  0
   -3.9068  -25.0861    0.2431 N   0  0  0  0  0  0  0  0  0  0  0  0
   -5.7786  -25.2598    1.9876 C   0  0  0  0  0  0  0  0  0  0  0  0
   -6.1376  -24.4547   -0.2021 O   0  0  0  0  0  0  0  0  0  0  0  0
    0.8219  -26.8290   -9.8106 C   0  0  0  0  0  0  0  0  0  0  0  0
    0.8961  -28.1582   -9.1187 C   0  0  0  0  0  0  0  0  0  0  0  0
    1.5866  -29.0790   -9.5716 C   0  0  0  0  0  0  0  0  0  0  0  0
    2.3576  -29.0146  -10.7504 C   0  0  0  0  0  0  0  0  0  0  0  0
    2.3695  -27.9012  -11.4345 C   0  0  0  0  0  0  0  0  0  0  0  0
    1.5683  -26.7572  -10.9452 C   0  0  0  0  0  0  0  0  0  0  0  0
    1.6435  -25.5328  -11.7427 C   0  0  0  0  0  0  0  0  0  0  0  0
    3.2432  -27.6656  -12.5726 C   0  0  0  0  0  0  0  0  0  0  0  0
    4.6451  -27.4071  -12.3541 C   0  0  0  0  0  0  0  0  0  0  0  0
    5.5322  -27.1539  -13.3601 C   0  0  0  0  0  0  0  0  0  0  0  0
    4.9326  -27.1643  -14.7089 C   0  0  0  0  0  0  0  0  0  0  0  0
    3.7738  -27.3898  -14.8416 C   0  0  0  0  0  0  0  0  0  0  0  0
    2.7459  -27.6641  -13.8621 C   0  0  0  0  0  0  0  0  0  0  0  0
    1.3768  -27.9137  -14.2602 C   0  0  0  0  0  0  0  0  0  0  0  0
    3.1564  -27.6153  -16.2977 C   0  0  0  0  0  0  0  0  0  0  0  0
    3.8290  -26.1014  -18.2628 C   0  0  0  0  0  0  0  0  0  0  0  0
    2.6168  -26.2784  -19.2456 C   0  0  0  0  0  0  0  0  0  0  0  0
    3.0025  -25.7987  -20.4674 C   0  0  0  0  0  0  0  0  0  0  0  0
    4.1929  -25.2104  -20.8895 C   0  0  0  0  0  0  0  0  0  0  0  0
    4.3295  -24.8066  -22.3463 C   0  0  0  0  0  0  0  0  0  0  0  0
    5.7291  -22.7692  -22.3963 C   0  0  0  0  0  0  0  0  0  0  0  0
    6.1507  -22.0389  -23.6763 C   0  0  0  0  0  0  0  0  0  0  0  0
    6.8988  -22.8475  -25.9309 C   0  0  0  0  0  0  0  0  0  0  0  0
    7.3704  -24.2216  -26.6059 C   0  0  0  0  0  0  0  0  0  0  0  0
    5.1557  -25.0740  -19.9803 C   0  0  0  0  0  0  0  0  0  0  0  0
    4.8630  -25.5645  -18.6814 C   0  0  0  0  0  0  0  0  0  0  0  0
    6.0450  -25.3126  -17.7142 C   0  0  0  0  0  0  0  0  0  0  0  0
    1.0452  -26.8817  -21.6697 C   0  0  0  0  0  0  0  0  0  0  0  0
    0.0439  -26.4013  -22.6499 C   0  0  0  0  0  0  0  0  0  0  0  0
    0.5538  -26.3832  -24.0728 C   0  0  0  0  0  0  0  0  0  0  0  0
   -1.3414  -25.2839  -24.6552 C   0  0  0  0  0  0  0  0  0  0  0  0
   -1.9136  -25.2073  -23.5202 C   0  0  0  0  0  0  0  0  0  0  0  0
   -1.1237  -25.8241  -22.4726 C   0  0  0  0  0  0  0  0  0  0  0  0
   -3.1050  -24.5229  -23.1835 C   0  0  0  0  0  0  0  0  0  0  0  0
   -0.5397  -25.9900   -5.7580 C   0  0  0  0  0  0  0  0  0  0  0  0
   -1.0789  -26.1200   -4.5094 C   0  0  0  0  0  0  0  0  0  0  0  0
    0.8976  -25.5497   -5.8437 C   0  0  0  0  0  0  0  0  0  0  0  0
    4.4522  -23.4039  -22.4678 N   0  0  0  0  0  4  0  0  0  0  0  0
    6.8525  -22.9599  -24.5117 N   0  0  0  0  0  0  0  0  0  0  0  0
   -0.1750  -25.8153  -25.0267 N   0  0  0  0  0  0  0  0  0  0  0  0
   -4.1753  -23.9145  -22.8607 N   0  0  0  0  0  0  0  0  0  0  0  0
    6.6595  -21.9666  -26.6781 O   0  0  0  0  0  0  0  0  0  0  0  0
    2.0678  -25.9491  -21.5278 O   0  0  0  0  0  0  0  0  0  0  0  0
  1  3  1  1
  1 17  1  0
  9  2  3  0
  3  4  1  6
  5  4  2  0
  4 61  1  0
 14  5  1  0
  5 20  1  0
  6  7  1  0
  6 20  1  6
  7 13  2  0
  7 18  1  0
 12  8  2  0
 19  8  1  0
 12  9  1  0
 10 14  2  0
 21 10  1  0
 10 60  1  0
 23 11  1  0
 24 11  1  6
 11 25  2  0
 13 12  1  0
 15 21  1  1
 26 15  1  0
 17 16  1  6
 16 23  1  6
 18 19  2  0
 40 22  1  1
 41 22  1  0
 26 27  2  0
 31 26  1  0
 28 27  1  0
 29 28  2  0
 30 29  1  0
 30 31  2  0
 33 30  1  0
 32 31  1  6
 33 34  2  0
 38 33  1  0
 35 34  1  0
 36 35  2  0
 37 36  1  0
 37 38  2  0
 40 37  1  0
 39 38  1  6
 42 41  2  0
 41 51  1  0
 43 42  1  0
 43 44  2  0
 68 43  1  0
 45 44  1  1
 44 50  1  0
 63 45  1  1
 46 47  1  1
 63 46  1  0
 47 64  1  6
 49 48  1  6
 64 48  1  0
 48 67  2  0
 50 51  2  0
 52 51  1  6
 54 53  1  0
 53 68  1  6
 55 54  2  0
 54 58  1  0
 65 55  1  0
 56 57  1  0
 56 65  2  0
 57 58  2  0
 57 59  1  0
 59 66  3  0
 60 61  2  0
 62 60  1  6
M  CHG  2   1   1  63   1
M  END
$$$$
