
     RDKit          3D

 68 73  0  0  0  0  0  0  0  0999 V2000
   -2.8651  -29.1539   -4.5005 N   0  0  0  0  0  4  0  0  0  0  0  0
   -7.7012  -23.0791   -8.8045 N   0  0  0  0  0  0  0  0  0  0  0  0
   -2.8455  -28.2835   -5.6321 C   0  0  0  0  0  0  0  0  0  0  0  0
   -1.5699  -28.0912   -6.3289 C   0  0  0  0  0  0  0  0  0  0  0  0
   -1.1824  -26.5911   -6.3313 C   0  0  0  0  0  0  0  0  0  0  0  0
   -2.8614  -24.9006   -5.4511 C   0  0  0  0  0  0  0  0  0  0  0  0
   -4.1676  -24.9690   -5.9269 C   0  0  0  0  0  0  0  0  0  0  0  0
   -6.8342  -25.6887   -6.7502 C   0  0  0  0  0  0  0  0  0  0  0  0
   -6.9959  -23.7106   -8.0396 C   0  0  0  0  0  0  0  0  0  0  0  0
    0.9042  -27.4479   -7.4340 C   0  0  0  0  0  0  0  0  0  0  0  0
   -0.9192  -30.2307   -0.9320 C   0  0  0  0  0  0  0  0  0  0  0  0
   -6.2004  -24.4531   -7.1504 C   0  0  0  0  0  0  0  0  0  0  0  0
   -4.9365  -24.1907   -6.7100 C   0  0  0  0  0  0  0  0  0  0  0  0
    0.0766  -26.4422   -6.9101 C   0  0  0  0  0  0  0  0  0  0  0  0
    3.2353  -27.3214   -8.5359 C   0  0  0  0  0  0  0  0  0  0  0  0
   -3.0347  -29.7356   -2.1319 C   0  0  0  0  0  0  0  0  0  0  0  0
   -3.3018  -28.7401   -3.2501 C   0  0  0  0  0  0  0  0  0  0  0  0
   -4.9650  -26.2649   -5.5772 C   0  0  0  0  0  0  0  0  0  0  0  0
   -6.0115  -26.3990   -5.9793 N   0  0  0  0  0  0  0  0  0  0  0  0
   -1.9236  -25.7718   -5.8836 O   0  0  0  0  0  0  0  0  0  0  0  0
    2.0884  -27.3152   -7.9571 O   0  0  0  0  0  0  0  0  0  0  0  0
    3.0612  -26.1689  -17.5120 O   0  0  0  0  0  0  0  0  0  0  0  0
   -1.6456  -30.1305   -2.1422 N   0  0  0  0  0  0  0  0  0  0  0  0
   -0.6012  -31.5547   -0.2826 C   0  0  0  0  0  0  0  0  0  0  0  0
   -0.4847  -29.1973   -0.3106 O   0  0  0  0  0  0  0  0  0  0  0  0
    3.5564  -26.3308   -9.5708 C   0  0  0  0  0  0  0  0  0  0  0  0
    3.5913  -24.9149   -9.0756 C   0  0  0  0  0  0  0  0  0  0  0  0
    3.9233  -23.9838   -9.8190 C   0  0  0  0  0  0  0  0  0  0  0  0
    4.3056  -24.1170  -11.1696 C   0  0  0  0  0  0  0  0  0  0  0  0
    4.3095  -25.3077  -11.7080 C   0  0  0  0  0  0  0  0  0  0  0  0
    3.9177  -26.4663  -10.8748 C   0  0  0  0  0  0  0  0  0  0  0  0
    3.9196  -27.7678  -11.5433 C   0  0  0  0  0  0  0  0  0  0  0  0
    4.5324  -25.5495  -13.1244 C   0  0  0  0  0  0  0  0  0  0  0  0
    5.8756  -25.7445  -13.6120 C   0  0  0  0  0  0  0  0  0  0  0  0
    6.1790  -25.9546  -14.9260 C   0  0  0  0  0  0  0  0  0  0  0  0
    5.0054  -25.9649  -15.8212 C   0  0  0  0  0  0  0  0  0  0  0  0
    3.9162  -25.8076  -15.3737 C   0  0  0  0  0  0  0  0  0  0  0  0
    3.4767  -25.5739  -14.0159 C   0  0  0  0  0  0  0  0  0  0  0  0
    2.0741  -25.4084  -13.6987 C   0  0  0  0  0  0  0  0  0  0  0  0
    2.6266  -26.0282  -16.2907 C   0  0  0  0  0  0  0  0  0  0  0  0
    2.7982  -26.2479  -18.8457 C   0  0  0  0  0  0  0  0  0  0  0  0
    2.7704  -24.8310  -19.5225 C   0  0  0  0  0  0  0  0  0  0  0  0
    2.4303  -25.0075  -20.8359 C   0  0  0  0  0  0  0  0  0  0  0  0
    2.1668  -26.1623  -21.5697 C   0  0  0  0  0  0  0  0  0  0  0  0
    1.7757  -26.0244  -23.0298 C   0  0  0  0  0  0  0  0  0  0  0  0
    2.8681  -26.8805  -25.0757 C   0  0  0  0  0  0  0  0  0  0  0  0
    3.6741  -26.2772  -26.2317 C   0  0  0  0  0  0  0  0  0  0  0  0
    6.0533  -26.8580  -26.7779 C   0  0  0  0  0  0  0  0  0  0  0  0
    6.9234  -28.1151  -27.2566 C   0  0  0  0  0  0  0  0  0  0  0  0
    2.2424  -27.3219  -20.9201 C   0  0  0  0  0  0  0  0  0  0  0  0
    2.5664  -27.2459  -19.5407 C   0  0  0  0  0  0  0  0  0  0  0  0
    2.6591  -28.6583  -18.9143 C   0  0  0  0  0  0  0  0  0  0  0  0
    1.7574  -23.6847  -22.8967 C   0  0  0  0  0  0  0  0  0  0  0  0
    1.4835  -22.2583  -23.1874 C   0  0  0  0  0  0  0  0  0  0  0  0
    0.4703  -22.0517  -24.2900 C   0  0  0  0  0  0  0  0  0  0  0  0
    0.9749  -19.8422  -24.2328 C   0  0  0  0  0  0  0  0  0  0  0  0
    1.8590  -19.8382  -23.3164 C   0  0  0  0  0  0  0  0  0  0  0  0
    2.0967  -21.1667  -22.7870 C   0  0  0  0  0  0  0  0  0  0  0  0
    2.6616  -18.7591  -22.8774 C   0  0  0  0  0  0  0  0  0  0  0  0
    0.4088  -28.7250   -7.3662 C   0  0  0  0  0  0  0  0  0  0  0  0
   -0.8075  -29.0211   -6.8190 C   0  0  0  0  0  0  0  0  0  0  0  0
    1.1819  -29.8623   -7.9794 C   0  0  0  0  0  0  0  0  0  0  0  0
    2.9117  -26.1263  -23.8643 N   0  0  0  0  0  4  0  0  0  0  0  0
    4.6833  -27.2118  -26.6148 N   0  0  0  0  0  0  0  0  0  0  0  0
    0.2590  -20.8318  -24.7705 N   0  0  0  0  0  0  0  0  0  0  0  0
    3.3753  -17.7901  -22.4630 N   0  0  0  0  0  0  0  0  0  0  0  0
    6.6478  -25.8488  -26.6369 O   0  0  0  0  0  0  0  0  0  0  0  0
    2.2644  -23.8261  -21.6088 O   0  0  0  0  0  0  0  0  0  0  0  0
  1  3  1  1
  1 17  1  0
  9  2  3  0
  3  4  1  6
  5  4  2  0
  4 61  1  0
 14  5  1  0
  5 20  1  0
  6  7  1  0
  6 20  1  6
  7 13  2  0
  7 18  1  0
 12  8  2  0
 19  8  1  0
 12  9  1  0
 10 14  2  0
 21 10  1  0
 10 60  1  0
 23 11  1  0
 24 11  1  6
 11 25  2  0
 13 12  1  0
 15 21  1  1
 26 15  1  0
 17 16  1  6
 16 23  1  6
 18 19  2  0
 40 22  1  1
 41 22  1  0
 26 27  2  0
 31 26  1  0
 28 27  1  0
 29 28  2  0
 30 29  1  0
 30 31  2  0
 33 30  1  0
 32 31  1  6
 33 34  2  0
 38 33  1  0
 35 34  1  0
 36 35  2  0
 37 36  1  0
 37 38  2  0
 40 37  1  0
 39 38  1  6
 42 41  2  0
 41 51  1  0
 43 42  1  0
 43 44  2  0
 68 43  1  0
 45 44  1  1
 44 50  1  0
 63 45  1  1
 46 47  1  1
 63 46  1  0
 47 64  1  6
 49 48  1  6
 64 48  1  0
 48 67  2  0
 50 51  2  0
 52 51  1  6
 54 53  1  0
 53 68  1  6
 55 54  2  0
 54 58  1  0
 65 55  1  0
 56 57  1  0
 56 65  2  0
 57 58  2  0
 57 59  1  0
 59 66  3  0
 60 61  2  0
 62 60  1  6
M  CHG  2   1   1  63   1
M  END
$$$$
