
     RDKit          3D

 68 73  0  0  0  0  0  0  0  0999 V2000
    1.0517  -23.3829  -26.5463 N   0  0  0  0  0  4  0  0  0  0  0  0
   -5.7431  -24.0624  -30.0607 N   0  0  0  0  0  0  0  0  0  0  0  0
    0.6522  -22.0832  -26.0838 C   0  0  0  0  0  0  0  0  0  0  0  0
    0.3538  -22.2236  -24.6220 C   0  0  0  0  0  0  0  0  0  0  0  0
   -0.3725  -23.3160  -24.1432 C   0  0  0  0  0  0  0  0  0  0  0  0
   -1.9467  -24.7067  -25.5047 C   0  0  0  0  0  0  0  0  0  0  0  0
   -2.0215  -24.4729  -26.9708 C   0  0  0  0  0  0  0  0  0  0  0  0
   -2.2587  -24.0571  -29.6680 C   0  0  0  0  0  0  0  0  0  0  0  0
   -4.6609  -24.1771  -29.5509 C   0  0  0  0  0  0  0  0  0  0  0  0
   -0.3917  -22.3722  -21.9131 C   0  0  0  0  0  0  0  0  0  0  0  0
    4.7123  -24.7738  -25.5965 C   0  0  0  0  0  0  0  0  0  0  0  0
   -3.3976  -24.2998  -28.9529 C   0  0  0  0  0  0  0  0  0  0  0  0
   -3.2544  -24.5167  -27.5753 C   0  0  0  0  0  0  0  0  0  0  0  0
   -0.7250  -23.3547  -22.7945 C   0  0  0  0  0  0  0  0  0  0  0  0
   -0.1953  -23.0584  -19.5237 C   0  0  0  0  0  0  0  0  0  0  0  0
    3.1297  -22.8251  -25.4259 C   0  0  0  0  0  0  0  0  0  0  0  0
    2.5091  -23.4980  -26.6474 C   0  0  0  0  0  0  0  0  0  0  0  0
   -0.9002  -24.2214  -27.7388 C   0  0  0  0  0  0  0  0  0  0  0  0
   -1.0689  -24.0256  -29.0519 N   0  0  0  0  0  0  0  0  0  0  0  0
   -0.6984  -24.3162  -25.0147 O   0  0  0  0  0  0  0  0  0  0  0  0
   -0.7204  -22.3609  -20.6102 O   0  0  0  0  0  0  0  0  0  0  0  0
   -1.1937  -26.8638  -10.9557 O   0  0  0  0  0  0  0  0  0  0  0  0
    4.3656  -23.4834  -25.1163 N   0  0  0  0  0  0  0  0  0  0  0  0
    4.3129  -26.0045  -24.8258 C   0  0  0  0  0  0  0  0  0  0  0  0
    5.3567  -24.8933  -26.6661 O   0  0  0  0  0  0  0  0  0  0  0  0
   -0.8197  -22.7781  -18.2218 C   0  0  0  0  0  0  0  0  0  0  0  0
   -1.9061  -22.0162  -17.9894 C   0  0  0  0  0  0  0  0  0  0  0  0
   -2.5297  -21.8485  -16.7291 C   0  0  0  0  0  0  0  0  0  0  0  0
   -1.9572  -22.5306  -15.6751 C   0  0  0  0  0  0  0  0  0  0  0  0
   -0.8570  -23.3166  -15.8194 C   0  0  0  0  0  0  0  0  0  0  0  0
   -0.2839  -23.4544  -17.0729 C   0  0  0  0  0  0  0  0  0  0  0  0
    0.9047  -24.2606  -17.2062 C   0  0  0  0  0  0  0  0  0  0  0  0
   -0.2115  -23.9749  -14.6536 C   0  0  0  0  0  0  0  0  0  0  0  0
    1.0548  -23.5884  -14.2442 C   0  0  0  0  0  0  0  0  0  0  0  0
    1.6808  -24.1705  -13.1453 C   0  0  0  0  0  0  0  0  0  0  0  0
    1.0436  -25.1748  -12.4176 C   0  0  0  0  0  0  0  0  0  0  0  0
   -0.1972  -25.5616  -12.8148 C   0  0  0  0  0  0  0  0  0  0  0  0
   -0.8152  -24.9542  -13.9305 C   0  0  0  0  0  0  0  0  0  0  0  0
   -2.2152  -25.4002  -14.2737 C   0  0  0  0  0  0  0  0  0  0  0  0
   -0.8999  -26.7033  -12.2073 C   0  0  0  0  0  0  0  0  0  0  0  0
   -1.0833  -27.2694   -9.7412 C   0  0  0  0  0  0  0  0  0  0  0  0
   -0.2066  -28.1746   -9.1168 C   0  0  0  0  0  0  0  0  0  0  0  0
   -0.2713  -28.4275   -7.8649 C   0  0  0  0  0  0  0  0  0  0  0  0
   -1.2167  -27.8364   -6.9350 C   0  0  0  0  0  0  0  0  0  0  0  0
   -1.0483  -28.0521   -5.5087 C   0  0  0  0  0  0  0  0  0  0  0  0
   -3.2193  -28.8346   -4.6731 C   0  0  0  0  0  0  0  0  0  0  0  0
   -3.6564  -29.1647   -3.2385 C   0  0  0  0  0  0  0  0  0  0  0  0
   -5.8744  -30.2165   -2.9670 C   0  0  0  0  0  0  0  0  0  0  0  0
   -6.8177  -31.3409   -3.2006 C   0  0  0  0  0  0  0  0  0  0  0  0
   -2.0898  -26.9596   -7.5084 C   0  0  0  0  0  0  0  0  0  0  0  0
   -2.0495  -26.6743   -8.8300 C   0  0  0  0  0  0  0  0  0  0  0  0
   -3.0422  -25.7362   -9.4184 C   0  0  0  0  0  0  0  0  0  0  0  0
    0.7728  -30.6611   -7.2579 C   0  0  0  0  0  0  0  0  0  0  0  0
    2.2530  -30.7993   -7.1997 C   0  0  0  0  0  0  0  0  0  0  0  0
    2.9894  -31.3079   -6.1822 C   0  0  0  0  0  0  0  0  0  0  0  0
    5.0624  -31.1767   -7.3809 C   0  0  0  0  0  0  0  0  0  0  0  0
    4.3166  -30.6559   -8.4383 C   0  0  0  0  0  0  0  0  0  0  0  0
    2.9858  -30.4714   -8.3586 C   0  0  0  0  0  0  0  0  0  0  0  0
    5.0537  -30.1826   -9.6122 C   0  0  0  0  0  0  0  0  0  0  0  0
    0.3336  -21.3052  -22.4359 C   0  0  0  0  0  0  0  0  0  0  0  0
    0.7087  -21.2106  -23.7559 C   0  0  0  0  0  0  0  0  0  0  0  0
    0.7256  -20.2013  -21.5481 C   0  0  0  0  0  0  0  0  0  0  0  0
   -1.7992  -28.9671   -4.7816 N   0  0  0  0  0  4  0  0  0  0  0  0
   -4.4476  -30.3523   -3.1889 N   0  0  0  0  0  0  0  0  0  0  0  0
    4.3364  -31.4842   -6.2785 N   0  0  0  0  0  0  0  0  0  0  0  0
    5.6029  -29.8466  -10.4865 N   0  0  0  0  0  0  0  0  0  0  0  0
   -6.3266  -29.1188   -2.5672 O   0  0  0  0  0  0  0  0  0  0  0  0
    0.4949  -29.3517   -7.0767 O   0  0  0  0  0  0  0  0  0  0  0  0
  3  1  1  0
  1 17  1  0
  9  2  3  0
  4  3  1  0
  5  4  2  0
  4 61  1  0
 14  5  1  0
  5 20  1  0
  6  7  1  0
 20  6  1  0
  7 13  2  0
  7 18  1  0
 12  8  2  0
 19  8  1  0
 12  9  1  0
 10 14  2  0
 21 10  1  0
 10 60  1  0
 23 11  1  0
 11 24  1  0
 11 25  2  0
 13 12  1  0
 15 21  1  0
 26 15  1  0
 17 16  1  0
 16 23  1  0
 18 19  2  0
 22 40  1  0
 41 22  1  0
 26 27  2  0
 31 26  1  0
 28 27  1  0
 29 28  2  0
 30 29  1  0
 30 31  2  0
 33 30  1  0
 31 32  1  0
 33 34  2  0
 38 33  1  0
 35 34  1  0
 36 35  2  0
 37 36  1  0
 37 38  2  0
 40 37  1  0
 38 39  1  0
 42 41  2  0
 41 51  1  0
 43 42  1  0
 43 44  2  0
 68 43  1  0
 44 45  1  0
 44 50  1  0
 45 63  1  0
 46 47  1  0
 63 46  1  0
 47 64  1  0
 48 49  1  0
 64 48  1  0
 48 67  2  0
 50 51  2  0
 51 52  1  0
 54 53  1  0
 53 68  1  0
 55 54  2  0
 54 58  1  0
 65 55  1  0
 56 57  1  0
 56 65  2  0
 57 58  2  0
 57 59  1  0
 59 66  3  0
 60 61  2  0
 60 62  1  0
M  CHG  2   1   1  63   1
M  END
$$$$
