
     RDKit          3D

 68 73  0  0  0  0  0  0  0  0999 V2000
   -0.3430  -22.8493   -6.3209 N   0  0  0  0  0  4  0  0  0  0  0  0
   -4.9862  -31.7743  -10.3498 N   0  0  0  0  0  0  0  0  0  0  0  0
   -0.7557  -24.0892   -6.8963 C   0  0  0  0  0  0  0  0  0  0  0  0
    0.1385  -24.7274   -7.8672 C   0  0  0  0  0  0  0  0  0  0  0  0
   -0.5251  -26.0006   -8.4494 C   0  0  0  0  0  0  0  0  0  0  0  0
   -2.8249  -26.6890   -7.6195 C   0  0  0  0  0  0  0  0  0  0  0  0
   -3.2823  -28.0028   -7.6646 C   0  0  0  0  0  0  0  0  0  0  0  0
   -3.9300  -30.7787   -7.2389 C   0  0  0  0  0  0  0  0  0  0  0  0
   -4.5851  -30.9978   -9.5027 C   0  0  0  0  0  0  0  0  0  0  0  0
    1.5405  -26.0528   -9.8757 C   0  0  0  0  0  0  0  0  0  0  0  0
    2.6190  -20.6011   -4.9206 C   0  0  0  0  0  0  0  0  0  0  0  0
   -4.1302  -30.1160   -8.5075 C   0  0  0  0  0  0  0  0  0  0  0  0
   -3.8001  -28.7974   -8.6189 C   0  0  0  0  0  0  0  0  0  0  0  0
    0.2969  -26.5362   -9.4392 C   0  0  0  0  0  0  0  0  0  0  0  0
    3.1328  -26.8891  -11.7276 C   0  0  0  0  0  0  0  0  0  0  0  0
    1.3829  -21.2455   -6.9741 C   0  0  0  0  0  0  0  0  0  0  0  0
   -0.0537  -21.7311   -7.0899 C   0  0  0  0  0  0  0  0  0  0  0  0
   -3.1118  -28.8405   -6.3582 C   0  0  0  0  0  0  0  0  0  0  0  0
   -3.4174  -29.9275   -6.3511 N   0  0  0  0  0  0  0  0  0  0  0  0
   -1.5787  -26.3780   -8.0389 O   0  0  0  0  0  0  0  0  0  0  0  0
    2.3015  -26.5386  -10.8129 O   0  0  0  0  0  0  0  0  0  0  0  0
    4.1002  -26.4057  -20.8796 O   0  0  0  0  0  0  0  0  0  0  0  0
    1.9115  -21.5707   -5.6701 N   0  0  0  0  0  0  0  0  0  0  0  0
    3.8839  -20.9232   -4.1642 C   0  0  0  0  0  0  0  0  0  0  0  0
    2.2262  -19.3838   -4.8383 O   0  0  0  0  0  0  0  0  0  0  0  0
    2.7956  -26.7262  -13.1471 C   0  0  0  0  0  0  0  0  0  0  0  0
    1.5597  -25.9124  -13.3951 C   0  0  0  0  0  0  0  0  0  0  0  0
    1.1987  -25.6289  -14.5436 C   0  0  0  0  0  0  0  0  0  0  0  0
    1.8707  -26.0053  -15.7246 C   0  0  0  0  0  0  0  0  0  0  0  0
    2.9605  -26.7199  -15.6280 C   0  0  0  0  0  0  0  0  0  0  0  0
    3.4457  -27.0987  -14.2822 C   0  0  0  0  0  0  0  0  0  0  0  0
    4.6567  -27.9188  -14.2435 C   0  0  0  0  0  0  0  0  0  0  0  0
    3.6487  -27.2962  -16.7719 C   0  0  0  0  0  0  0  0  0  0  0  0
    3.8679  -28.7205  -16.8291 C   0  0  0  0  0  0  0  0  0  0  0  0
    4.5230  -29.3433  -17.8518 C   0  0  0  0  0  0  0  0  0  0  0  0
    4.9974  -28.4288  -18.9090 C   0  0  0  0  0  0  0  0  0  0  0  0
    4.7871  -27.2628  -18.8235 C   0  0  0  0  0  0  0  0  0  0  0  0
    4.1163  -26.4960  -17.7971 C   0  0  0  0  0  0  0  0  0  0  0  0
    3.9748  -25.0594  -17.9049 C   0  0  0  0  0  0  0  0  0  0  0  0
    5.1024  -26.2928  -20.0531 C   0  0  0  0  0  0  0  0  0  0  0  0
    3.6052  -26.2831  -22.1421 C   0  0  0  0  0  0  0  0  0  0  0  0
    3.9022  -24.8672  -22.7532 C   0  0  0  0  0  0  0  0  0  0  0  0
    3.3083  -24.8162  -23.9847 C   0  0  0  0  0  0  0  0  0  0  0  0
    2.5820  -25.7700  -24.6947 C   0  0  0  0  0  0  0  0  0  0  0  0
    2.0126  -25.3918  -26.0500 C   0  0  0  0  0  0  0  0  0  0  0  0
    0.0458  -24.2561  -27.0268 C   0  0  0  0  0  0  0  0  0  0  0  0
   -1.1732  -23.3870  -26.6977 C   0  0  0  0  0  0  0  0  0  0  0  0
   -0.4436  -21.1537  -27.5788 C   0  0  0  0  0  0  0  0  0  0  0  0
   -1.0515  -19.6973  -27.3039 C   0  0  0  0  0  0  0  0  0  0  0  0
    2.4044  -26.9530  -24.1106 C   0  0  0  0  0  0  0  0  0  0  0  0
    2.9634  -27.1006  -22.8147 C   0  0  0  0  0  0  0  0  0  0  0  0
    2.7199  -28.5270  -22.2651 C   0  0  0  0  0  0  0  0  0  0  0  0
    3.6622  -22.3080  -24.1663 C   0  0  0  0  0  0  0  0  0  0  0  0
    3.6769  -21.3096  -25.2604 C   0  0  0  0  0  0  0  0  0  0  0  0
    2.4956  -20.3670  -25.2321 C   0  0  0  0  0  0  0  0  0  0  0  0
    3.1658  -19.5913  -27.2541 C   0  0  0  0  0  0  0  0  0  0  0  0
    4.1969  -20.3147  -27.4409 C   0  0  0  0  0  0  0  0  0  0  0  0
    4.4272  -21.2251  -26.3364 C   0  0  0  0  0  0  0  0  0  0  0  0
    5.0143  -20.3953  -28.5927 C   0  0  0  0  0  0  0  0  0  0  0  0
    1.9947  -24.9203   -9.2494 C   0  0  0  0  0  0  0  0  0  0  0  0
    1.2916  -24.2833   -8.2663 C   0  0  0  0  0  0  0  0  0  0  0  0
    3.3568  -24.3734   -9.5850 C   0  0  0  0  0  0  0  0  0  0  0  0
    0.8607  -24.5864  -25.9020 N   0  0  0  0  0  4  0  0  0  0  0  0
   -0.7310  -22.0432  -26.5042 N   0  0  0  0  0  0  0  0  0  0  0  0
    2.2907  -19.5368  -26.2482 N   0  0  0  0  0  0  0  0  0  0  0  0
    5.7358  -20.4815  -29.6376 N   0  0  0  0  0  0  0  0  0  0  0  0
    0.1410  -21.2800  -28.5957 O   0  0  0  0  0  0  0  0  0  0  0  0
    3.3873  -23.5746  -24.6722 O   0  0  0  0  0  0  0  0  0  0  0  0
  1  3  1  1
  1 17  1  0
  9  2  3  0
  3  4  1  6
  5  4  2  0
  4 61  1  0
 14  5  1  0
  5 20  1  0
  6  7  1  0
  6 20  1  6
  7 13  2  0
  7 18  1  0
 12  8  2  0
 19  8  1  0
 12  9  1  0
 10 14  2  0
 21 10  1  0
 10 60  1  0
 23 11  1  0
 24 11  1  6
 11 25  2  0
 13 12  1  0
 15 21  1  1
 26 15  1  0
 17 16  1  6
 16 23  1  6
 18 19  2  0
 40 22  1  1
 41 22  1  0
 26 27  2  0
 31 26  1  0
 28 27  1  0
 29 28  2  0
 30 29  1  0
 30 31  2  0
 33 30  1  0
 32 31  1  6
 33 34  2  0
 38 33  1  0
 35 34  1  0
 36 35  2  0
 37 36  1  0
 37 38  2  0
 40 37  1  0
 39 38  1  6
 42 41  2  0
 41 51  1  0
 43 42  1  0
 43 44  2  0
 68 43  1  0
 45 44  1  1
 44 50  1  0
 63 45  1  1
 46 47  1  1
 63 46  1  0
 47 64  1  6
 49 48  1  6
 64 48  1  0
 48 67  2  0
 50 51  2  0
 52 51  1  6
 54 53  1  0
 53 68  1  6
 55 54  2  0
 54 58  1  0
 65 55  1  0
 56 57  1  0
 56 65  2  0
 57 58  2  0
 57 59  1  0
 59 66  3  0
 60 61  2  0
 62 60  1  6
M  CHG  2   1   1  63   1
M  END
$$$$
