
     RDKit          3D

 68 73  0  0  0  0  0  0  0  0999 V2000
    5.3284  -27.2648   -8.3314 N   0  0  0  0  0  4  0  0  0  0  0  0
   -1.2238  -26.3277   -1.6394 N   0  0  0  0  0  0  0  0  0  0  0  0
    4.7037  -26.0494   -7.8897 C   0  0  0  0  0  0  0  0  0  0  0  0
    3.5619  -25.7920   -8.8256 C   0  0  0  0  0  0  0  0  0  0  0  0
    2.2734  -26.2342   -8.5187 C   0  0  0  0  0  0  0  0  0  0  0  0
    1.1500  -27.7948   -6.9161 C   0  0  0  0  0  0  0  0  0  0  0  0
    1.2424  -28.0469   -5.4541 C   0  0  0  0  0  0  0  0  0  0  0  0
    1.3452  -28.4383   -2.7448 C   0  0  0  0  0  0  0  0  0  0  0  0
   -0.4361  -26.8610   -2.3739 C   0  0  0  0  0  0  0  0  0  0  0  0
    1.4671  -25.5006  -10.6811 C   0  0  0  0  0  0  0  0  0  0  0  0
    5.5531  -29.1873  -10.8961 C   0  0  0  0  0  0  0  0  0  0  0  0
    0.4831  -27.4930   -3.2249 C   0  0  0  0  0  0  0  0  0  0  0  0
    0.4502  -27.3031   -4.6134 C   0  0  0  0  0  0  0  0  0  0  0  0
    1.2605  -26.0737   -9.4636 C   0  0  0  0  0  0  0  0  0  0  0  0
    0.4796  -25.7474  -12.9576 C   0  0  0  0  0  0  0  0  0  0  0  0
    7.2894  -28.3176   -9.2962 C   0  0  0  0  0  0  0  0  0  0  0  0
    6.5442  -26.9992   -9.1053 C   0  0  0  0  0  0  0  0  0  0  0  0
    2.0964  -28.9923   -4.9181 C   0  0  0  0  0  0  0  0  0  0  0  0
    2.1099  -29.1451   -3.5886 N   0  0  0  0  0  0  0  0  0  0  0  0
    2.0502  -26.7958   -7.2936 O   0  0  0  0  0  0  0  0  0  0  0  0
    0.5260  -25.3373  -11.6263 O   0  0  0  0  0  0  0  0  0  0  0  0
   -0.5478  -25.5913  -21.7889 O   0  0  0  0  0  0  0  0  0  0  0  0
    6.8979  -28.8898  -10.5516 N   0  0  0  0  0  0  0  0  0  0  0  0
    5.2497  -30.1543  -12.0102 C   0  0  0  0  0  0  0  0  0  0  0  0
    4.6102  -28.6421  -10.2737 O   0  0  0  0  0  0  0  0  0  0  0  0
   -0.8046  -25.5433  -13.6451 C   0  0  0  0  0  0  0  0  0  0  0  0
   -1.9085  -24.9544  -13.1457 C   0  0  0  0  0  0  0  0  0  0  0  0
   -3.0946  -24.6947  -13.8744 C   0  0  0  0  0  0  0  0  0  0  0  0
   -3.0902  -25.0873  -15.1972 C   0  0  0  0  0  0  0  0  0  0  0  0
   -2.0215  -25.6931  -15.7804 C   0  0  0  0  0  0  0  0  0  0  0  0
   -0.8807  -25.9223  -15.0289 C   0  0  0  0  0  0  0  0  0  0  0  0
    0.2322  -26.5994  -15.6481 C   0  0  0  0  0  0  0  0  0  0  0  0
   -2.0720  -26.1800  -17.1838 C   0  0  0  0  0  0  0  0  0  0  0  0
   -2.8269  -27.2950  -17.5111 C   0  0  0  0  0  0  0  0  0  0  0  0
   -2.9115  -27.7666  -18.8183 C   0  0  0  0  0  0  0  0  0  0  0  0
   -2.2269  -27.1231  -19.8486 C   0  0  0  0  0  0  0  0  0  0  0  0
   -1.4819  -26.0306  -19.5351 C   0  0  0  0  0  0  0  0  0  0  0  0
   -1.4137  -25.5671  -18.2024 C   0  0  0  0  0  0  0  0  0  0  0  0
   -0.6105  -24.3159  -17.9454 C   0  0  0  0  0  0  0  0  0  0  0  0
   -0.6118  -25.3612  -20.5155 C   0  0  0  0  0  0  0  0  0  0  0  0
   -0.3006  -25.3851  -23.0331 C   0  0  0  0  0  0  0  0  0  0  0  0
   -1.0633  -24.8267  -24.0744 C   0  0  0  0  0  0  0  0  0  0  0  0
   -0.6047  -24.7072  -25.2622 C   0  0  0  0  0  0  0  0  0  0  0  0
    0.7219  -25.1070  -25.6960 C   0  0  0  0  0  0  0  0  0  0  0  0
    1.1880  -24.7265  -27.0179 C   0  0  0  0  0  0  0  0  0  0  0  0
    3.2533  -23.5591  -27.6467 C   0  0  0  0  0  0  0  0  0  0  0  0
    3.7177  -22.1264  -27.9463 C   0  0  0  0  0  0  0  0  0  0  0  0
    3.8477  -19.8577  -26.9792 C   0  0  0  0  0  0  0  0  0  0  0  0
    2.8391  -18.8168  -27.3079 C   0  0  0  0  0  0  0  0  0  0  0  0
    1.4870  -25.6621  -24.7131 C   0  0  0  0  0  0  0  0  0  0  0  0
    1.0292  -25.8059  -23.4483 C   0  0  0  0  0  0  0  0  0  0  0  0
    1.8868  -26.4464  -22.4160 C   0  0  0  0  0  0  0  0  0  0  0  0
   -1.5010  -22.9611  -26.8733 C   0  0  0  0  0  0  0  0  0  0  0  0
   -2.3040  -23.0799  -28.1201 C   0  0  0  0  0  0  0  0  0  0  0  0
   -2.2916  -22.2429  -29.1858 C   0  0  0  0  0  0  0  0  0  0  0  0
   -3.7579  -23.6102  -30.5019 C   0  0  0  0  0  0  0  0  0  0  0  0
   -3.7767  -24.4832  -29.4143 C   0  0  0  0  0  0  0  0  0  0  0  0
   -3.0929  -24.2370  -28.2814 C   0  0  0  0  0  0  0  0  0  0  0  0
   -4.6832  -25.6313  -29.4890 C   0  0  0  0  0  0  0  0  0  0  0  0
    2.7664  -25.0738  -10.9408 C   0  0  0  0  0  0  0  0  0  0  0  0
    3.8062  -25.2060  -10.0500 C   0  0  0  0  0  0  0  0  0  0  0  0
    3.0707  -24.4505  -12.2368 C   0  0  0  0  0  0  0  0  0  0  0  0
    1.8722  -23.5451  -27.2748 N   0  0  0  0  0  4  0  0  0  0  0  0
    3.4900  -21.2560  -26.8375 N   0  0  0  0  0  0  0  0  0  0  0  0
   -2.9929  -22.5057  -30.3233 N   0  0  0  0  0  0  0  0  0  0  0  0
   -5.3640  -26.4758  -29.5334 N   0  0  0  0  0  0  0  0  0  0  0  0
    5.0423  -19.5157  -26.8207 O   0  0  0  0  0  0  0  0  0  0  0  0
   -1.2506  -24.2185  -26.4482 O   0  0  0  0  0  0  0  0  0  0  0  0
  3  1  1  0
  1 17  1  0
  9  2  3  0
  4  3  1  0
  5  4  2  0
  4 61  1  0
 14  5  1  0
  5 20  1  0
  6  7  1  0
 20  6  1  0
  7 13  2  0
  7 18  1  0
 12  8  2  0
 19  8  1  0
 12  9  1  0
 10 14  2  0
 21 10  1  0
 10 60  1  0
 23 11  1  0
 11 24  1  0
 11 25  2  0
 13 12  1  0
 15 21  1  0
 26 15  1  0
 17 16  1  0
 16 23  1  0
 18 19  2  0
 22 40  1  0
 41 22  1  0
 26 27  2  0
 31 26  1  0
 28 27  1  0
 29 28  2  0
 30 29  1  0
 30 31  2  0
 33 30  1  0
 31 32  1  0
 33 34  2  0
 38 33  1  0
 35 34  1  0
 36 35  2  0
 37 36  1  0
 37 38  2  0
 40 37  1  0
 38 39  1  0
 42 41  2  0
 41 51  1  0
 43 42  1  0
 43 44  2  0
 68 43  1  0
 44 45  1  0
 44 50  1  0
 45 63  1  0
 46 47  1  0
 63 46  1  0
 47 64  1  0
 48 49  1  0
 64 48  1  0
 48 67  2  0
 50 51  2  0
 51 52  1  0
 54 53  1  0
 53 68  1  0
 55 54  2  0
 54 58  1  0
 65 55  1  0
 56 57  1  0
 56 65  2  0
 57 58  2  0
 57 59  1  0
 59 66  3  0
 60 61  2  0
 60 62  1  0
M  CHG  2   1   1  63   1
M  END
$$$$
