
     RDKit          3D

 68 73  0  0  0  0  0  0  0  0999 V2000
    0.8897  -22.2072  -26.4979 N   0  0  0  0  0  4  0  0  0  0  0  0
    8.6566  -20.9897  -26.7046 N   0  0  0  0  0  0  0  0  0  0  0  0
    2.0157  -22.5375  -25.6697 C   0  0  0  0  0  0  0  0  0  0  0  0
    1.4674  -23.2391  -24.4643 C   0  0  0  0  0  0  0  0  0  0  0  0
    2.3045  -23.6022  -23.4072 C   0  0  0  0  0  0  0  0  0  0  0  0
    4.2079  -22.0653  -22.8774 C   0  0  0  0  0  0  0  0  0  0  0  0
    5.6840  -22.1306  -23.0394 C   0  0  0  0  0  0  0  0  0  0  0  0
    8.3931  -22.2259  -23.4346 C   0  0  0  0  0  0  0  0  0  0  0  0
    8.1693  -21.3976  -25.6846 C   0  0  0  0  0  0  0  0  0  0  0  0
    0.4771  -24.7473  -22.3055 C   0  0  0  0  0  0  0  0  0  0  0  0
    2.8949  -21.9957  -30.6642 C   0  0  0  0  0  0  0  0  0  0  0  0
    7.6025  -21.8637  -24.4888 C   0  0  0  0  0  0  0  0  0  0  0  0
    6.2186  -21.8275  -24.2682 C   0  0  0  0  0  0  0  0  0  0  0  0
    1.7785  -24.3507  -22.3546 C   0  0  0  0  0  0  0  0  0  0  0  0
   -0.1838  -25.2387  -19.9517 C   0  0  0  0  0  0  0  0  0  0  0  0
    1.0932  -22.1510  -28.9145 C   0  0  0  0  0  0  0  0  0  0  0  0
    1.2775  -21.3550  -27.6252 C   0  0  0  0  0  0  0  0  0  0  0  0
    6.5275  -22.4892  -22.0047 C   0  0  0  0  0  0  0  0  0  0  0  0
    7.8429  -22.5212  -22.2487 N   0  0  0  0  0  0  0  0  0  0  0  0
    3.6083  -23.1957  -23.4373 O   0  0  0  0  0  0  0  0  0  0  0  0
   -0.0694  -25.4792  -21.3198 O   0  0  0  0  0  0  0  0  0  0  0  0
   -1.1810  -26.0155  -11.2058 O   0  0  0  0  0  0  0  0  0  0  0  0
    2.3860  -22.4904  -29.4345 N   0  0  0  0  0  0  0  0  0  0  0  0
    4.2311  -21.3024  -30.7101 C   0  0  0  0  0  0  0  0  0  0  0  0
    2.2301  -22.1324  -31.7192 O   0  0  0  0  0  0  0  0  0  0  0  0
    0.5673  -26.1521  -19.0771 C   0  0  0  0  0  0  0  0  0  0  0  0
    1.2682  -27.2405  -19.4498 C   0  0  0  0  0  0  0  0  0  0  0  0
    2.0546  -28.0394  -18.5846 C   0  0  0  0  0  0  0  0  0  0  0  0
    2.0860  -27.6485  -17.2617 C   0  0  0  0  0  0  0  0  0  0  0  0
    1.4043  -26.5667  -16.7988 C   0  0  0  0  0  0  0  0  0  0  0  0
    0.6517  -25.8121  -17.6836 C   0  0  0  0  0  0  0  0  0  0  0  0
   -0.0968  -24.6895  -17.1738 C   0  0  0  0  0  0  0  0  0  0  0  0
    1.3889  -26.2151  -15.3547 C   0  0  0  0  0  0  0  0  0  0  0  0
    2.5398  -25.7572  -14.7335 C   0  0  0  0  0  0  0  0  0  0  0  0
    2.5558  -25.4011  -13.3877 C   0  0  0  0  0  0  0  0  0  0  0  0
    1.3989  -25.4996  -12.6157 C   0  0  0  0  0  0  0  0  0  0  0  0
    0.2668  -25.9508  -13.2170 C   0  0  0  0  0  0  0  0  0  0  0  0
    0.2725  -26.3027  -14.5851 C   0  0  0  0  0  0  0  0  0  0  0  0
   -1.0374  -26.7417  -15.1919 C   0  0  0  0  0  0  0  0  0  0  0  0
   -0.9695  -26.2249  -12.4668 C   0  0  0  0  0  0  0  0  0  0  0  0
   -1.3905  -26.2798   -9.9657 C   0  0  0  0  0  0  0  0  0  0  0  0
   -1.2508  -27.4557   -9.2071 C   0  0  0  0  0  0  0  0  0  0  0  0
   -1.5126  -27.4908   -7.9558 C   0  0  0  0  0  0  0  0  0  0  0  0
   -1.9682  -26.3653   -7.1598 C   0  0  0  0  0  0  0  0  0  0  0  0
   -2.0288  -26.4887   -5.7139 C   0  0  0  0  0  0  0  0  0  0  0  0
   -1.0087  -26.6583   -3.4881 C   0  0  0  0  0  0  0  0  0  0  0  0
    0.3664  -26.9608   -2.8750 C   0  0  0  0  0  0  0  0  0  0  0  0
    0.9740  -29.1983   -3.7256 C   0  0  0  0  0  0  0  0  0  0  0  0
    0.5594  -29.9198   -2.4943 C   0  0  0  0  0  0  0  0  0  0  0  0
   -2.1243  -25.2090   -7.8657 C   0  0  0  0  0  0  0  0  0  0  0  0
   -1.8596  -25.1409   -9.1906 C   0  0  0  0  0  0  0  0  0  0  0  0
   -2.0749  -23.8669   -9.9268 C   0  0  0  0  0  0  0  0  0  0  0  0
   -2.2045  -29.7402   -7.0022 C   0  0  0  0  0  0  0  0  0  0  0  0
   -1.4723  -30.6823   -6.1135 C   0  0  0  0  0  0  0  0  0  0  0  0
   -0.9082  -30.4057   -4.9129 C   0  0  0  0  0  0  0  0  0  0  0  0
   -0.3073  -32.6848   -4.4701 C   0  0  0  0  0  0  0  0  0  0  0  0
   -0.8884  -32.9851   -5.7020 C   0  0  0  0  0  0  0  0  0  0  0  0
   -1.4395  -32.0412   -6.4874 C   0  0  0  0  0  0  0  0  0  0  0  0
   -0.7624  -34.3613   -6.1874 C   0  0  0  0  0  0  0  0  0  0  0  0
   -0.3187  -24.3602  -23.3800 C   0  0  0  0  0  0  0  0  0  0  0  0
    0.1431  -23.6237  -24.4461 C   0  0  0  0  0  0  0  0  0  0  0  0
   -1.7342  -24.7558  -23.4030 C   0  0  0  0  0  0  0  0  0  0  0  0
   -0.9049  -26.6554   -4.9147 N   0  0  0  0  0  4  0  0  0  0  0  0
    1.1668  -27.7610   -3.7455 N   0  0  0  0  0  0  0  0  0  0  0  0
   -0.3513  -31.3729   -4.1325 N   0  0  0  0  0  0  0  0  0  0  0  0
   -0.6587  -35.3843   -6.5359 N   0  0  0  0  0  0  0  0  0  0  0  0
    1.1631  -29.8525   -4.7770 O   0  0  0  0  0  0  0  0  0  0  0  0
   -1.4811  -28.6003   -7.0445 O   0  0  0  0  0  0  0  0  0  0  0  0
  3  1  1  0
  1 17  1  0
  9  2  3  0
  4  3  1  0
  5  4  2  0
  4 61  1  0
 14  5  1  0
  5 20  1  0
  6  7  1  0
 20  6  1  0
  7 13  2  0
  7 18  1  0
 12  8  2  0
 19  8  1  0
 12  9  1  0
 10 14  2  0
 21 10  1  0
 10 60  1  0
 23 11  1  0
 11 24  1  0
 11 25  2  0
 13 12  1  0
 15 21  1  0
 26 15  1  0
 17 16  1  0
 16 23  1  0
 18 19  2  0
 22 40  1  0
 41 22  1  0
 26 27  2  0
 31 26  1  0
 28 27  1  0
 29 28  2  0
 30 29  1  0
 30 31  2  0
 33 30  1  0
 31 32  1  0
 33 34  2  0
 38 33  1  0
 35 34  1  0
 36 35  2  0
 37 36  1  0
 37 38  2  0
 40 37  1  0
 38 39  1  0
 42 41  2  0
 41 51  1  0
 43 42  1  0
 43 44  2  0
 68 43  1  0
 44 45  1  0
 44 50  1  0
 45 63  1  0
 46 47  1  0
 63 46  1  0
 47 64  1  0
 48 49  1  0
 64 48  1  0
 48 67  2  0
 50 51  2  0
 51 52  1  0
 54 53  1  0
 53 68  1  0
 55 54  2  0
 54 58  1  0
 65 55  1  0
 56 57  1  0
 56 65  2  0
 57 58  2  0
 57 59  1  0
 59 66  3  0
 60 61  2  0
 60 62  1  0
M  CHG  2   1   1  63   1
M  END
$$$$
