
     RDKit          3D

 68 73  0  0  0  0  0  0  0  0999 V2000
    1.8008  -26.2327  -25.1814 N   0  0  0  0  0  4  0  0  0  0  0  0
    1.6953  -18.1188  -25.4969 N   0  0  0  0  0  0  0  0  0  0  0  0
    3.0185  -26.0254  -24.4487 C   0  0  0  0  0  0  0  0  0  0  0  0
    2.6338  -25.9136  -23.0046 C   0  0  0  0  0  0  0  0  0  0  0  0
    1.9277  -24.8030  -22.5377 C   0  0  0  0  0  0  0  0  0  0  0  0
    0.2167  -23.7051  -23.9982 C   0  0  0  0  0  0  0  0  0  0  0  0
    0.2780  -22.7509  -25.1363 C   0  0  0  0  0  0  0  0  0  0  0  0
    0.4161  -20.9197  -27.1689 C   0  0  0  0  0  0  0  0  0  0  0  0
    1.2495  -19.2195  -25.6811 C   0  0  0  0  0  0  0  0  0  0  0  0
    2.1048  -25.6028  -20.2588 C   0  0  0  0  0  0  0  0  0  0  0  0
   -0.6409  -25.8045  -28.3977 C   0  0  0  0  0  0  0  0  0  0  0  0
    0.7230  -20.5006  -25.9049 C   0  0  0  0  0  0  0  0  0  0  0  0
    0.6398  -21.4509  -24.8777 C   0  0  0  0  0  0  0  0  0  0  0  0
    1.6850  -24.6823  -21.1698 C   0  0  0  0  0  0  0  0  0  0  0  0
    2.2478  -24.5338  -18.0104 C   0  0  0  0  0  0  0  0  0  0  0  0
    1.2427  -24.8053  -27.0617 C   0  0  0  0  0  0  0  0  0  0  0  0
    1.9988  -26.0566  -26.6227 C   0  0  0  0  0  0  0  0  0  0  0  0
   -0.0206  -23.1247  -26.4330 C   0  0  0  0  0  0  0  0  0  0  0  0
    0.0612  -22.1930  -27.3902 N   0  0  0  0  0  0  0  0  0  0  0  0
    1.4868  -23.8811  -23.4442 O   0  0  0  0  0  0  0  0  0  0  0  0
    1.9056  -25.5215  -18.9323 O   0  0  0  0  0  0  0  0  0  0  0  0
   -0.8738  -24.9650   -9.4334 O   0  0  0  0  0  0  0  0  0  0  0  0
   -0.1387  -25.1434  -27.2459 N   0  0  0  0  0  0  0  0  0  0  0  0
   -2.0274  -26.3927  -28.3929 C   0  0  0  0  0  0  0  0  0  0  0  0
    0.0716  -25.9036  -29.4254 O   0  0  0  0  0  0  0  0  0  0  0  0
    2.8614  -25.0102  -16.7613 C   0  0  0  0  0  0  0  0  0  0  0  0
    3.9106  -25.8462  -16.6392 C   0  0  0  0  0  0  0  0  0  0  0  0
    4.5288  -26.2056  -15.4169 C   0  0  0  0  0  0  0  0  0  0  0  0
    3.9923  -25.6401  -14.2783 C   0  0  0  0  0  0  0  0  0  0  0  0
    2.9306  -24.7909  -14.3098 C   0  0  0  0  0  0  0  0  0  0  0  0
    2.3615  -24.4645  -15.5297 C   0  0  0  0  0  0  0  0  0  0  0  0
    1.2126  -23.5926  -15.5470 C   0  0  0  0  0  0  0  0  0  0  0  0
    2.3203  -24.2601  -13.0628 C   0  0  0  0  0  0  0  0  0  0  0  0
    2.7398  -23.0474  -12.5395 C   0  0  0  0  0  0  0  0  0  0  0  0
    2.1766  -22.5121  -11.3842 C   0  0  0  0  0  0  0  0  0  0  0  0
    1.1629  -23.1920  -10.7103 C   0  0  0  0  0  0  0  0  0  0  0  0
    0.7481  -24.3836  -11.2157 C   0  0  0  0  0  0  0  0  0  0  0  0
    1.3310  -24.9059  -12.3917 C   0  0  0  0  0  0  0  0  0  0  0  0
    0.7771  -26.2065  -12.9194 C   0  0  0  0  0  0  0  0  0  0  0  0
   -0.2129  -25.2477  -10.5114 C   0  0  0  0  0  0  0  0  0  0  0  0
   -1.4134  -25.1343   -8.2794 C   0  0  0  0  0  0  0  0  0  0  0  0
   -2.5255  -25.8802   -7.8497 C   0  0  0  0  0  0  0  0  0  0  0  0
   -2.8867  -25.9140   -6.6234 C   0  0  0  0  0  0  0  0  0  0  0  0
   -2.2254  -25.2213   -5.5322 C   0  0  0  0  0  0  0  0  0  0  0  0
   -2.6116  -25.5098   -4.1621 C   0  0  0  0  0  0  0  0  0  0  0  0
   -2.9625  -27.0280   -2.2658 C   0  0  0  0  0  0  0  0  0  0  0  0
   -4.2955  -26.2855   -2.0931 C   0  0  0  0  0  0  0  0  0  0  0  0
   -6.2676  -26.0999   -0.6181 C   0  0  0  0  0  0  0  0  0  0  0  0
   -6.8562  -26.1273    0.7463 C   0  0  0  0  0  0  0  0  0  0  0  0
   -1.1468  -24.4792   -5.9141 C   0  0  0  0  0  0  0  0  0  0  0  0
   -0.7423  -24.4200   -7.2036 C   0  0  0  0  0  0  0  0  0  0  0  0
    0.4201  -23.5720   -7.5795 C   0  0  0  0  0  0  0  0  0  0  0  0
   -4.8124  -27.5614   -6.4639 C   0  0  0  0  0  0  0  0  0  0  0  0
   -3.9865  -28.7986   -6.4921 C   0  0  0  0  0  0  0  0  0  0  0  0
   -2.8588  -29.0151   -7.2115 C   0  0  0  0  0  0  0  0  0  0  0  0
   -2.4338  -31.1628   -6.2329 C   0  0  0  0  0  0  0  0  0  0  0  0
   -3.5904  -30.9519   -5.4823 C   0  0  0  0  0  0  0  0  0  0  0  0
   -4.3327  -29.8356   -5.6020 C   0  0  0  0  0  0  0  0  0  0  0  0
   -4.0569  -32.0563   -4.6408 C   0  0  0  0  0  0  0  0  0  0  0  0
    2.8024  -26.6929  -20.7715 C   0  0  0  0  0  0  0  0  0  0  0  0
    3.0731  -26.8659  -22.1090 C   0  0  0  0  0  0  0  0  0  0  0  0
    3.2944  -27.7269  -19.8499 C   0  0  0  0  0  0  0  0  0  0  0  0
   -2.4252  -26.7485   -3.5617 N   0  0  0  0  0  4  0  0  0  0  0  0
   -4.9810  -26.7015   -0.9117 N   0  0  0  0  0  0  0  0  0  0  0  0
   -2.1215  -30.1526   -7.0807 N   0  0  0  0  0  0  0  0  0  0  0  0
   -4.4129  -32.8652   -4.0103 N   0  0  0  0  0  0  0  0  0  0  0  0
   -6.9033  -25.5409   -1.5415 O   0  0  0  0  0  0  0  0  0  0  0  0
   -4.0132  -26.5678   -6.0184 O   0  0  0  0  0  0  0  0  0  0  0  0
  3  1  1  0
  1 17  1  0
  9  2  3  0
  4  3  1  0
  5  4  2  0
  4 61  1  0
 14  5  1  0
  5 20  1  0
  6  7  1  0
 20  6  1  0
  7 13  2  0
  7 18  1  0
 12  8  2  0
 19  8  1  0
 12  9  1  0
 10 14  2  0
 21 10  1  0
 10 60  1  0
 23 11  1  0
 11 24  1  0
 11 25  2  0
 13 12  1  0
 15 21  1  0
 26 15  1  0
 17 16  1  0
 16 23  1  0
 18 19  2  0
 22 40  1  0
 41 22  1  0
 26 27  2  0
 31 26  1  0
 28 27  1  0
 29 28  2  0
 30 29  1  0
 30 31  2  0
 33 30  1  0
 31 32  1  0
 33 34  2  0
 38 33  1  0
 35 34  1  0
 36 35  2  0
 37 36  1  0
 37 38  2  0
 40 37  1  0
 38 39  1  0
 42 41  2  0
 41 51  1  0
 43 42  1  0
 43 44  2  0
 68 43  1  0
 44 45  1  0
 44 50  1  0
 45 63  1  0
 46 47  1  0
 63 46  1  0
 47 64  1  0
 48 49  1  0
 64 48  1  0
 48 67  2  0
 50 51  2  0
 51 52  1  0
 54 53  1  0
 53 68  1  0
 55 54  2  0
 54 58  1  0
 65 55  1  0
 56 57  1  0
 56 65  2  0
 57 58  2  0
 57 59  1  0
 59 66  3  0
 60 61  2  0
 60 62  1  0
M  CHG  2   1   1  63   1
M  END
$$$$
