
     RDKit          3D

 68 73  0  0  0  0  0  0  0  0999 V2000
    9.7289  -24.3059  -14.8076 N   0  0  0  0  0  4  0  0  0  0  0  0
    6.8467  -20.6994  -22.3078 N   0  0  0  0  0  0  0  0  0  0  0  0
    9.6856  -25.7280  -15.0038 C   0  0  0  0  0  0  0  0  0  0  0  0
    8.2509  -26.1355  -14.8570 C   0  0  0  0  0  0  0  0  0  0  0  0
    7.2746  -25.6351  -15.7210 C   0  0  0  0  0  0  0  0  0  0  0  0
    7.2967  -24.9292  -18.1224 C   0  0  0  0  0  0  0  0  0  0  0  0
    8.0829  -23.9542  -18.9229 C   0  0  0  0  0  0  0  0  0  0  0  0
    9.4486  -22.1363  -20.4507 C   0  0  0  0  0  0  0  0  0  0  0  0
    7.4287  -21.4399  -21.5613 C   0  0  0  0  0  0  0  0  0  0  0  0
    5.5320  -26.7293  -14.4440 C   0  0  0  0  0  0  0  0  0  0  0  0
   12.2652  -27.1512  -14.6437 C   0  0  0  0  0  0  0  0  0  0  0  0
    8.1115  -22.2954  -20.6836 C   0  0  0  0  0  0  0  0  0  0  0  0
    7.4320  -23.2352  -19.8960 C   0  0  0  0  0  0  0  0  0  0  0  0
    5.9368  -25.9500  -15.4843 C   0  0  0  0  0  0  0  0  0  0  0  0
    3.0565  -26.4489  -14.5527 C   0  0  0  0  0  0  0  0  0  0  0  0
   11.9273  -24.7729  -13.8947 C   0  0  0  0  0  0  0  0  0  0  0  0
   11.1061  -23.8088  -14.7468 C   0  0  0  0  0  0  0  0  0  0  0  0
    9.4363  -23.7545  -18.7257 C   0  0  0  0  0  0  0  0  0  0  0  0
   10.0580  -22.8557  -19.4981 N   0  0  0  0  0  0  0  0  0  0  0  0
    7.6702  -24.8656  -16.7780 O   0  0  0  0  0  0  0  0  0  0  0  0
    4.2555  -27.0476  -14.1699 O   0  0  0  0  0  0  0  0  0  0  0  0
   -5.1722  -23.2779  -14.8773 O   0  0  0  0  0  0  0  0  0  0  0  0
   12.5171  -25.7582  -14.7538 N   0  0  0  0  0  0  0  0  0  0  0  0
   12.9474  -28.1228  -15.5704 C   0  0  0  0  0  0  0  0  0  0  0  0
   11.4693  -27.5784  -13.7733 O   0  0  0  0  0  0  0  0  0  0  0  0
    1.8491  -27.2723  -14.3867 C   0  0  0  0  0  0  0  0  0  0  0  0
    1.7599  -28.4684  -13.7733 C   0  0  0  0  0  0  0  0  0  0  0  0
    0.5581  -29.1845  -13.5539 C   0  0  0  0  0  0  0  0  0  0  0  0
   -0.5960  -28.5858  -14.0161 C   0  0  0  0  0  0  0  0  0  0  0  0
   -0.5965  -27.3832  -14.6510 C   0  0  0  0  0  0  0  0  0  0  0  0
    0.6034  -26.7171  -14.8388 C   0  0  0  0  0  0  0  0  0  0  0  0
    0.5946  -25.4604  -15.5466 C   0  0  0  0  0  0  0  0  0  0  0  0
   -1.8427  -26.7987  -15.2117 C   0  0  0  0  0  0  0  0  0  0  0  0
   -2.3457  -27.2515  -16.4210 C   0  0  0  0  0  0  0  0  0  0  0  0
   -3.5203  -26.7395  -16.9656 C   0  0  0  0  0  0  0  0  0  0  0  0
   -4.2316  -25.7407  -16.3018 C   0  0  0  0  0  0  0  0  0  0  0  0
   -3.7430  -25.2892  -15.1167 C   0  0  0  0  0  0  0  0  0  0  0  0
   -2.5514  -25.8261  -14.5807 C   0  0  0  0  0  0  0  0  0  0  0  0
   -2.1050  -25.3113  -13.2345 C   0  0  0  0  0  0  0  0  0  0  0  0
   -4.3350  -24.1459  -14.4035 C   0  0  0  0  0  0  0  0  0  0  0  0
   -5.9686  -22.2695  -14.9000 C   0  0  0  0  0  0  0  0  0  0  0  0
   -7.2819  -22.0841  -14.4323 C   0  0  0  0  0  0  0  0  0  0  0  0
   -7.8942  -20.9681  -14.5548 C   0  0  0  0  0  0  0  0  0  0  0  0
   -7.3455  -19.7698  -15.1639 C   0  0  0  0  0  0  0  0  0  0  0  0
   -8.0679  -18.5148  -15.0524 C   0  0  0  0  0  0  0  0  0  0  0  0
   -7.2855  -16.6270  -13.6930 C   0  0  0  0  0  0  0  0  0  0  0  0
   -8.5297  -15.7759  -13.4002 C   0  0  0  0  0  0  0  0  0  0  0  0
   -8.6908  -16.3051  -10.9933 C   0  0  0  0  0  0  0  0  0  0  0  0
   -8.0704  -17.5217  -10.4071 C   0  0  0  0  0  0  0  0  0  0  0  0
   -6.0752  -19.9160  -15.6379 C   0  0  0  0  0  0  0  0  0  0  0  0
   -5.4026  -21.0845  -15.5272 C   0  0  0  0  0  0  0  0  0  0  0  0
   -4.0307  -21.2081  -16.0874 C   0  0  0  0  0  0  0  0  0  0  0  0
   -9.7425  -19.5105  -13.6026 C   0  0  0  0  0  0  0  0  0  0  0  0
  -11.1618  -19.8083  -13.2700 C   0  0  0  0  0  0  0  0  0  0  0  0
  -11.6221  -20.5598  -12.2407 C   0  0  0  0  0  0  0  0  0  0  0  0
  -13.9282  -20.0718  -12.6822 C   0  0  0  0  0  0  0  0  0  0  0  0
  -13.4687  -19.2910  -13.7428 C   0  0  0  0  0  0  0  0  0  0  0  0
  -12.1597  -19.1639  -14.0292 C   0  0  0  0  0  0  0  0  0  0  0  0
  -14.4745  -18.7086  -14.6343 C   0  0  0  0  0  0  0  0  0  0  0  0
    6.5406  -27.2063  -13.6117 C   0  0  0  0  0  0  0  0  0  0  0  0
    7.8757  -26.9291  -13.7933 C   0  0  0  0  0  0  0  0  0  0  0  0
    6.1827  -28.0497  -12.4622 C   0  0  0  0  0  0  0  0  0  0  0  0
   -7.4401  -17.2792  -14.9566 N   0  0  0  0  0  4  0  0  0  0  0  0
   -9.2888  -16.3085  -12.3145 N   0  0  0  0  0  0  0  0  0  0  0  0
  -12.9508  -20.6806  -11.9675 N   0  0  0  0  0  0  0  0  0  0  0  0
  -15.2305  -18.2870  -15.2895 N   0  0  0  0  0  0  0  0  0  0  0  0
   -8.6973  -15.2457  -10.3247 O   0  0  0  0  0  0  0  0  0  0  0  0
   -9.2385  -20.6166  -14.1914 O   0  0  0  0  0  0  0  0  0  0  0  0
  3  1  1  0
  1 17  1  0
  9  2  3  0
  4  3  1  0
  5  4  2  0
  4 61  1  0
 14  5  1  0
  5 20  1  0
  6  7  1  0
 20  6  1  0
  7 13  2  0
  7 18  1  0
 12  8  2  0
 19  8  1  0
 12  9  1  0
 10 14  2  0
 21 10  1  0
 10 60  1  0
 23 11  1  0
 11 24  1  0
 11 25  2  0
 13 12  1  0
 15 21  1  0
 26 15  1  0
 17 16  1  0
 16 23  1  0
 18 19  2  0
 22 40  1  0
 41 22  1  0
 26 27  2  0
 31 26  1  0
 28 27  1  0
 29 28  2  0
 30 29  1  0
 30 31  2  0
 33 30  1  0
 31 32  1  0
 33 34  2  0
 38 33  1  0
 35 34  1  0
 36 35  2  0
 37 36  1  0
 37 38  2  0
 40 37  1  0
 38 39  1  0
 42 41  2  0
 41 51  1  0
 43 42  1  0
 43 44  2  0
 68 43  1  0
 44 45  1  0
 44 50  1  0
 45 63  1  0
 46 47  1  0
 63 46  1  0
 47 64  1  0
 48 49  1  0
 64 48  1  0
 48 67  2  0
 50 51  2  0
 51 52  1  0
 54 53  1  0
 53 68  1  0
 55 54  2  0
 54 58  1  0
 65 55  1  0
 56 57  1  0
 56 65  2  0
 57 58  2  0
 57 59  1  0
 59 66  3  0
 60 61  2  0
 60 62  1  0
M  CHG  2   1   1  63   1
M  END
$$$$
