
     RDKit          3D

 15 16  0  0  0  0  0  0  0  0999 V2000
   -0.6502   27.1757   25.2257 N   0  0  0  0  0  4  0  0  0  0  0  0
   -0.9501   28.3411   24.3727 C   0  0  2  0  0  0  0  0  0  0  0  0
   -1.6399   27.8258   23.1562 C   0  0  0  0  0  0  0  0  0  0  0  0
   -2.7765   27.0335   23.3555 O   0  0  0  0  0  1  0  0  0  0  0  0
    0.3636   28.9778   24.0537 C   0  0  0  0  0  0  0  0  0  0  0  0
    0.8851   29.8379   25.1306 C   0  0  0  0  0  0  0  0  0  0  0  0
    0.4268   30.9991   25.6665 C   0  0  0  0  0  0  0  0  0  0  0  0
    2.0459   29.5407   25.8176 C   0  0  0  0  0  0  0  0  0  0  0  0
    1.2597   31.4067   26.6394 N   0  0  0  0  0  0  0  0  0  0  0  0
    2.2841   30.5174   26.7609 C   0  0  0  0  0  0  0  0  0  0  0  0
    2.9715   28.5127   25.7537 C   0  0  0  0  0  0  0  0  0  0  0  0
    3.3898   30.4649   27.5936 C   0  0  0  0  0  0  0  0  0  0  0  0
    4.0727   28.4452   26.5713 C   0  0  0  0  0  0  0  0  0  0  0  0
    4.2912   29.4271   27.5030 C   0  0  0  0  0  0  0  0  0  0  0  0
   -1.1962   28.1081   22.0288 O   0  0  0  0  0  0  0  0  0  0  0  0
  1  2  1  1
  2  3  1  6
  2  5  1  0
  3  4  1  0
  3 15  2  0
  5  6  1  6
  6  7  2  0
  6  8  1  0
  7  9  1  0
  8 10  2  0
  8 11  1  0
  9 10  1  0
 10 12  1  0
 11 13  2  0
 12 14  2  0
 13 14  1  0
M  CHG  2   1   1   4  -1
M  END
$$$$
