
     RDKit          3D

 15 16  0  0  0  0  0  0  0  0999 V2000
    1.1008   27.7553   30.4978 N   0  0  0  0  0  4  0  0  0  0  0  0
    1.5964   27.7356   29.1484 C   0  0  2  0  0  0  0  0  0  0  0  0
    2.8898   26.9986   29.0857 C   0  0  0  0  0  0  0  0  0  0  0  0
    3.7628   27.0181   30.1586 O   0  0  0  0  0  1  0  0  0  0  0  0
    1.8100   29.1355   28.6564 C   0  0  0  0  0  0  0  0  0  0  0  0
    2.1722   29.1856   27.2390 C   0  0  0  0  0  0  0  0  0  0  0  0
    3.4077   29.2654   26.6468 C   0  0  0  0  0  0  0  0  0  0  0  0
    1.2159   29.1588   26.2256 C   0  0  0  0  0  0  0  0  0  0  0  0
    3.2277   29.2871   25.3097 N   0  0  0  0  0  0  0  0  0  0  0  0
    1.9199   29.2238   25.0489 C   0  0  0  0  0  0  0  0  0  0  0  0
   -0.1573   29.0867   26.2470 C   0  0  0  0  0  0  0  0  0  0  0  0
    1.2133   29.2151   23.8625 C   0  0  0  0  0  0  0  0  0  0  0  0
   -0.8456   29.0793   25.0496 C   0  0  0  0  0  0  0  0  0  0  0  0
   -0.1537   29.1440   23.8468 C   0  0  0  0  0  0  0  0  0  0  0  0
    3.2016   26.3591   28.0739 O   0  0  0  0  0  0  0  0  0  0  0  0
  2  1  1  1
  2  3  1  0
  2  5  1  0
  3  4  1  0
  3 15  2  0
  5  6  1  0
  6  7  2  0
  6  8  1  0
  7  9  1  0
  8 10  2  0
  8 11  1  0
  9 10  1  0
 10 12  1  0
 11 13  2  0
 12 14  2  0
 13 14  1  0
M  CHG  2   1   1   4  -1
M  END
$$$$
