
     RDKit          3D

 15 16  0  0  0  0  0  0  0  0999 V2000
    2.8874   29.3260   29.9286 N   0  0  0  0  0  4  0  0  0  0  0  0
    2.3921   28.3746   28.9713 C   0  0  2  0  0  0  0  0  0  0  0  0
    2.6310   26.9857   29.4549 C   0  0  0  0  0  0  0  0  0  0  0  0
    3.4576   26.7513   30.5390 O   0  0  0  0  0  1  0  0  0  0  0  0
    3.0860   28.5575   27.6551 C   0  0  0  0  0  0  0  0  0  0  0  0
    2.2090   28.2915   26.5138 C   0  0  0  0  0  0  0  0  0  0  0  0
    2.0235   27.1376   25.7943 C   0  0  0  0  0  0  0  0  0  0  0  0
    1.3814   29.2708   25.9677 C   0  0  0  0  0  0  0  0  0  0  0  0
    1.1110   27.3889   24.8326 N   0  0  0  0  0  0  0  0  0  0  0  0
    0.7217   28.6623   24.9289 C   0  0  0  0  0  0  0  0  0  0  0  0
    1.1684   30.5908   26.2891 C   0  0  0  0  0  0  0  0  0  0  0  0
   -0.1780   29.4117   24.1969 C   0  0  0  0  0  0  0  0  0  0  0  0
    0.2646   31.3233   25.5447 C   0  0  0  0  0  0  0  0  0  0  0  0
   -0.4146   30.7280   24.4892 C   0  0  0  0  0  0  0  0  0  0  0  0
    2.0942   26.0227   28.8942 O   0  0  0  0  0  0  0  0  0  0  0  0
  2  1  1  1
  2  3  1  0
  2  5  1  0
  3  4  1  0
  3 15  2  0
  5  6  1  0
  6  7  2  0
  6  8  1  0
  7  9  1  0
  8 10  2  0
  8 11  1  0
  9 10  1  0
 10 12  1  0
 11 13  2  0
 12 14  2  0
 13 14  1  0
M  CHG  2   1   1   4  -1
M  END
$$$$
