
     RDKit          3D

 15 16  0  0  0  0  0  0  0  0999 V2000
    3.5031   28.9470   28.8500 N   0  0  0  0  0  4  0  0  0  0  0  0
    2.3709   28.0307   28.6169 C   0  0  2  0  0  0  0  0  0  0  0  0
    2.6020   26.8267   29.4644 C   0  0  0  0  0  0  0  0  0  0  0  0
    1.4995   26.0008   29.7126 O   0  0  0  0  0  1  0  0  0  0  0  0
    2.3840   27.7089   27.1577 C   0  0  0  0  0  0  0  0  0  0  0  0
    1.7777   28.7529   26.3127 C   0  0  0  0  0  0  0  0  0  0  0  0
    2.1045   30.0550   26.1049 C   0  0  0  0  0  0  0  0  0  0  0  0
    0.6658   28.5158   25.5283 C   0  0  0  0  0  0  0  0  0  0  0  0
    1.2400   30.6038   25.2343 N   0  0  0  0  0  0  0  0  0  0  0  0
    0.3261   29.6686   24.8529 C   0  0  0  0  0  0  0  0  0  0  0  0
   -0.1357   27.4110   25.2950 C   0  0  0  0  0  0  0  0  0  0  0  0
   -0.7578   29.7099   23.9914 C   0  0  0  0  0  0  0  0  0  0  0  0
   -1.2136   27.4345   24.4445 C   0  0  0  0  0  0  0  0  0  0  0  0
   -1.5344   28.5914   23.7824 C   0  0  0  0  0  0  0  0  0  0  0  0
    3.7390   26.5977   29.9145 O   0  0  0  0  0  0  0  0  0  0  0  0
  1  2  1  1
  2  3  1  1
  2  5  1  0
  3  4  1  0
  3 15  2  0
  5  6  1  6
  6  7  2  0
  6  8  1  0
  7  9  1  0
  8 10  2  0
  8 11  1  0
  9 10  1  0
 10 12  1  0
 11 13  2  0
 12 14  2  0
 13 14  1  0
M  CHG  2   1   1   4  -1
M  END
$$$$
