
     RDKit          3D

 15 16  0  0  0  0  0  0  0  0999 V2000
    4.2890   27.0143   28.2283 N   0  0  0  0  0  4  0  0  0  0  0  0
    3.0005   27.6386   28.0978 C   0  0  2  0  0  0  0  0  0  0  0  0
    2.1705   27.3631   29.3041 C   0  0  0  0  0  0  0  0  0  0  0  0
    2.4274   26.2592   30.0972 O   0  0  0  0  0  1  0  0  0  0  0  0
    2.2908   27.1097   26.8879 C   0  0  0  0  0  0  0  0  0  0  0  0
    1.2371   28.0088   26.4147 C   0  0  0  0  0  0  0  0  0  0  0  0
    0.0874   28.4251   27.0379 C   0  0  0  0  0  0  0  0  0  0  0  0
    1.2772   28.6036   25.1550 C   0  0  0  0  0  0  0  0  0  0  0  0
   -0.5667   29.2517   26.1956 N   0  0  0  0  0  0  0  0  0  0  0  0
    0.1377   29.3641   25.0671 C   0  0  0  0  0  0  0  0  0  0  0  0
    2.1865   28.5366   24.1255 C   0  0  0  0  0  0  0  0  0  0  0  0
   -0.0857   30.0757   23.9049 C   0  0  0  0  0  0  0  0  0  0  0  0
    1.9447   29.2557   22.9715 C   0  0  0  0  0  0  0  0  0  0  0  0
    0.7983   30.0322   22.8605 C   0  0  0  0  0  0  0  0  0  0  0  0
    1.2400   28.1170   29.6136 O   0  0  0  0  0  0  0  0  0  0  0  0
  2  1  1  1
  2  3  1  0
  2  5  1  0
  3  4  1  0
  3 15  2  0
  5  6  1  0
  6  7  2  0
  6  8  1  0
  7  9  1  0
  8 10  2  0
  8 11  1  0
  9 10  1  0
 10 12  1  0
 11 13  2  0
 12 14  2  0
 13 14  1  0
M  CHG  2   1   1   4  -1
M  END
$$$$
