
     RDKit          3D

 15 16  0  0  0  0  0  0  0  0999 V2000
   -0.5776   31.5519   23.3663 N   0  0  0  0  0  4  0  0  0  0  0  0
   -0.5321   30.1622   23.0008 C   0  0  2  0  0  0  0  0  0  0  0  0
   -1.7400   29.7985   22.2079 C   0  0  0  0  0  0  0  0  0  0  0  0
   -2.7993   30.6810   22.0960 O   0  0  0  0  0  1  0  0  0  0  0  0
   -0.4816   29.3063   24.2306 C   0  0  0  0  0  0  0  0  0  0  0  0
    0.8428   29.2926   24.8538 C   0  0  0  0  0  0  0  0  0  0  0  0
    2.0378   29.7887   24.3962 C   0  0  0  0  0  0  0  0  0  0  0  0
    1.0712   28.7176   26.1025 C   0  0  0  0  0  0  0  0  0  0  0  0
    2.9792   29.5320   25.3283 N   0  0  0  0  0  0  0  0  0  0  0  0
    2.4099   28.8917   26.3521 C   0  0  0  0  0  0  0  0  0  0  0  0
    0.2425   28.0824   26.9974 C   0  0  0  0  0  0  0  0  0  0  0  0
    2.9218   28.4094   27.5404 C   0  0  0  0  0  0  0  0  0  0  0  0
    0.7739   27.6071   28.1803 C   0  0  0  0  0  0  0  0  0  0  0  0
    2.1258   27.7723   28.4539 C   0  0  0  0  0  0  0  0  0  0  0  0
   -1.8131   28.7028   21.6388 O   0  0  0  0  0  0  0  0  0  0  0  0
  2  1  1  1
  2  3  1  0
  2  5  1  0
  3  4  1  0
  3 15  2  0
  5  6  1  0
  6  7  2  0
  6  8  1  0
  7  9  1  0
  8 10  2  0
  8 11  1  0
  9 10  1  0
 10 12  1  0
 11 13  2  0
 12 14  2  0
 13 14  1  0
M  CHG  2   1   1   4  -1
M  END
$$$$
