
     RDKit          3D

 15 16  0  0  0  0  0  0  0  0999 V2000
    4.1382   28.3858   27.9533 N   0  0  0  0  0  4  0  0  0  0  0  0
    2.7251   28.1779   28.1164 C   0  0  2  0  0  0  0  0  0  0  0  0
    2.4744   27.1274   29.1429 C   0  0  0  0  0  0  0  0  0  0  0  0
    3.5302   26.5037   29.7829 O   0  0  0  0  0  1  0  0  0  0  0  0
    2.1137   27.7448   26.8179 C   0  0  0  0  0  0  0  0  0  0  0  0
    1.2681   28.7794   26.2204 C   0  0  0  0  0  0  0  0  0  0  0  0
    0.5394   29.7769   26.8184 C   0  0  0  0  0  0  0  0  0  0  0  0
    1.0815   28.8838   24.8433 C   0  0  0  0  0  0  0  0  0  0  0  0
   -0.0800   30.4795   25.8471 N   0  0  0  0  0  0  0  0  0  0  0  0
    0.2385   29.9522   24.6627 C   0  0  0  0  0  0  0  0  0  0  0  0
    1.5653   28.1536   23.7831 C   0  0  0  0  0  0  0  0  0  0  0  0
   -0.1231   30.2894   23.3734 C   0  0  0  0  0  0  0  0  0  0  0  0
    1.1917   28.5069   22.5013 C   0  0  0  0  0  0  0  0  0  0  0  0
    0.3399   29.5846   22.2950 C   0  0  0  0  0  0  0  0  0  0  0  0
    1.3191   26.7978   29.4373 O   0  0  0  0  0  0  0  0  0  0  0  0
  2  1  1  6
  2  3  1  0
  2  5  1  0
  3  4  1  0
  3 15  2  0
  5  6  1  0
  6  7  2  0
  6  8  1  0
  7  9  1  0
  8 10  2  0
  8 11  1  0
  9 10  1  0
 10 12  1  0
 11 13  2  0
 12 14  2  0
 13 14  1  0
M  CHG  2   1   1   4  -1
M  END
$$$$
