
     RDKit          3D

 15 16  0  0  0  0  0  0  0  0999 V2000
    3.3731   26.5388   27.9335 N   0  0  0  0  0  4  0  0  0  0  0  0
    2.6005   27.3839   28.8634 C   0  0  2  0  0  0  0  0  0  0  0  0
    2.5459   26.6622   30.1663 C   0  0  0  0  0  0  0  0  0  0  0  0
    2.0674   27.3764   31.2710 O   0  0  0  0  0  1  0  0  0  0  0  0
    1.2479   27.5544   28.2516 C   0  0  0  0  0  0  0  0  0  0  0  0
    1.1952   28.5885   27.2032 C   0  0  0  0  0  0  0  0  0  0  0  0
    1.7922   29.8042   27.0971 C   0  0  0  0  0  0  0  0  0  0  0  0
    0.4424   28.4392   26.0547 C   0  0  0  0  0  0  0  0  0  0  0  0
    1.4304   30.3851   25.9404 N   0  0  0  0  0  0  0  0  0  0  0  0
    0.5860   29.5586   25.2629 C   0  0  0  0  0  0  0  0  0  0  0  0
   -0.3849   27.4436   25.5630 C   0  0  0  0  0  0  0  0  0  0  0  0
   -0.0647   29.6720   24.0453 C   0  0  0  0  0  0  0  0  0  0  0  0
   -1.0374   27.5398   24.3584 C   0  0  0  0  0  0  0  0  0  0  0  0
   -0.8810   28.6618   23.5862 C   0  0  0  0  0  0  0  0  0  0  0  0
    2.9179   25.4768   30.2314 O   0  0  0  0  0  0  0  0  0  0  0  0
  1  2  1  1
  2  3  1  1
  2  5  1  0
  3  4  1  0
  3 15  2  0
  5  6  1  6
  6  7  2  0
  6  8  1  0
  7  9  1  0
  8 10  2  0
  8 11  1  0
  9 10  1  0
 10 12  1  0
 11 13  2  0
 12 14  2  0
 13 14  1  0
M  CHG  2   1   1   4  -1
M  END
$$$$
