
     RDKit          3D

 15 16  0  0  0  0  0  0  0  0999 V2000
    2.6118   29.5452   28.3514 N   0  0  0  0  0  4  0  0  0  0  0  0
    1.9451   28.2740   28.4325 C   0  0  2  0  0  0  0  0  0  0  0  0
    2.6216   27.4006   29.4322 C   0  0  0  0  0  0  0  0  0  0  0  0
    2.0879   26.1685   29.7645 O   0  0  0  0  0  1  0  0  0  0  0  0
    1.9679   27.5930   27.0971 C   0  0  0  0  0  0  0  0  0  0  0  0
    0.9355   28.0967   26.1899 C   0  0  0  0  0  0  0  0  0  0  0  0
   -0.4319   28.0483   26.2963 C   0  0  0  0  0  0  0  0  0  0  0  0
    1.2464   28.7440   24.9956 C   0  0  0  0  0  0  0  0  0  0  0  0
   -0.9557   28.6455   25.2055 N   0  0  0  0  0  0  0  0  0  0  0  0
    0.0409   29.0646   24.4223 C   0  0  0  0  0  0  0  0  0  0  0  0
    2.4426   29.0604   24.3955 C   0  0  0  0  0  0  0  0  0  0  0  0
    0.0484   29.7236   23.2088 C   0  0  0  0  0  0  0  0  0  0  0  0
    2.4287   29.7196   23.1819 C   0  0  0  0  0  0  0  0  0  0  0  0
    1.2205   30.0541   22.5835 C   0  0  0  0  0  0  0  0  0  0  0  0
    3.6695   27.7646   29.9793 O   0  0  0  0  0  0  0  0  0  0  0  0
  2  1  1  6
  2  3  1  0
  2  5  1  0
  3  4  1  0
  3 15  2  0
  5  6  1  0
  6  7  2  0
  6  8  1  0
  7  9  1  0
  8 10  2  0
  8 11  1  0
  9 10  1  0
 10 12  1  0
 11 13  2  0
 12 14  2  0
 13 14  1  0
M  CHG  2   1   1   4  -1
M  END
$$$$
