
     RDKit          3D

 15 16  0  0  0  0  0  0  0  0999 V2000
    3.6791   27.6030   27.0360 N   0  0  0  0  0  4  0  0  0  0  0  0
    2.5979   27.8468   27.9517 C   0  0  2  0  0  0  0  0  0  0  0  0
    2.7392   26.9823   29.1570 C   0  0  0  0  0  0  0  0  0  0  0  0
    3.7417   26.0318   29.2267 O   0  0  0  0  0  1  0  0  0  0  0  0
    1.2852   27.5498   27.2913 C   0  0  0  0  0  0  0  0  0  0  0  0
    0.8287   28.6408   26.4288 C   0  0  0  0  0  0  0  0  0  0  0  0
    0.7662   29.9901   26.6720 C   0  0  0  0  0  0  0  0  0  0  0  0
    0.3554   28.4192   25.1369 C   0  0  0  0  0  0  0  0  0  0  0  0
    0.2713   30.5893   25.5689 N   0  0  0  0  0  0  0  0  0  0  0  0
    0.0227   29.6573   24.6459 C   0  0  0  0  0  0  0  0  0  0  0  0
    0.1977   27.2756   24.3897 C   0  0  0  0  0  0  0  0  0  0  0  0
   -0.4828   29.7382   23.3634 C   0  0  0  0  0  0  0  0  0  0  0  0
   -0.3096   27.3777   23.1091 C   0  0  0  0  0  0  0  0  0  0  0  0
   -0.6527   28.6203   22.5917 C   0  0  0  0  0  0  0  0  0  0  0  0
    1.9623   27.1019   30.1121 O   0  0  0  0  0  0  0  0  0  0  0  0
  2  1  1  6
  2  3  1  0
  2  5  1  0
  3  4  1  0
  3 15  2  0
  5  6  1  0
  6  7  2  0
  6  8  1  0
  7  9  1  0
  8 10  2  0
  8 11  1  0
  9 10  1  0
 10 12  1  0
 11 13  2  0
 12 14  2  0
 13 14  1  0
M  CHG  2   1   1   4  -1
M  END
$$$$
