
     RDKit          3D

 15 16  0  0  0  0  0  0  0  0999 V2000
   -0.2213   31.1839   22.4960 N   0  0  0  0  0  4  0  0  0  0  0  0
   -0.0390   29.9580   23.2958 C   0  0  2  0  0  0  0  0  0  0  0  0
   -1.2878   29.1564   23.1571 C   0  0  0  0  0  0  0  0  0  0  0  0
   -1.1519   27.7635   23.1339 O   0  0  0  0  0  1  0  0  0  0  0  0
    0.1957   30.4047   24.7024 C   0  0  0  0  0  0  0  0  0  0  0  0
    0.5549   29.3107   25.6219 C   0  0  0  0  0  0  0  0  0  0  0  0
   -0.1972   28.3699   26.2503 C   0  0  0  0  0  0  0  0  0  0  0  0
    1.8581   29.0702   26.0115 C   0  0  0  0  0  0  0  0  0  0  0  0
    0.5964   27.5813   26.9950 N   0  0  0  0  0  0  0  0  0  0  0  0
    1.8892   27.9912   26.8690 C   0  0  0  0  0  0  0  0  0  0  0  0
    3.0771   29.6633   25.7294 C   0  0  0  0  0  0  0  0  0  0  0  0
    3.0780   27.5332   27.4130 C   0  0  0  0  0  0  0  0  0  0  0  0
    4.2646   29.2222   26.2598 C   0  0  0  0  0  0  0  0  0  0  0  0
    4.2735   28.1472   27.1108 C   0  0  0  0  0  0  0  0  0  0  0  0
   -2.3857   29.7347   23.0683 O   0  0  0  0  0  0  0  0  0  0  0  0
  1  2  1  1
  2  3  1  1
  2  5  1  0
  3  4  1  0
  3 15  2  0
  5  6  1  6
  6  7  2  0
  6  8  1  0
  7  9  1  0
  8 10  2  0
  8 11  1  0
  9 10  1  0
 10 12  1  0
 11 13  2  0
 12 14  2  0
 13 14  1  0
M  CHG  2   1   1   4  -1
M  END
$$$$
