
     RDKit          3D

 15 16  0  0  0  0  0  0  0  0999 V2000
    3.7055   28.7048   29.1235 N   0  0  0  0  0  4  0  0  0  0  0  0
    2.4465   27.9496   29.2662 C   0  0  2  0  0  0  0  0  0  0  0  0
    2.7090   26.8409   30.2270 C   0  0  0  0  0  0  0  0  0  0  0  0
    4.0442   26.4680   30.4207 O   0  0  0  0  0  1  0  0  0  0  0  0
    2.0998   27.4485   27.9018 C   0  0  0  0  0  0  0  0  0  0  0  0
    1.3488   28.4181   27.0849 C   0  0  0  0  0  0  0  0  0  0  0  0
    0.1270   28.9889   27.2490 C   0  0  0  0  0  0  0  0  0  0  0  0
    1.8483   28.9348   25.9053 C   0  0  0  0  0  0  0  0  0  0  0  0
   -0.1240   29.8204   26.2234 N   0  0  0  0  0  0  0  0  0  0  0  0
    0.9323   29.8110   25.3635 C   0  0  0  0  0  0  0  0  0  0  0  0
    3.0230   28.7596   25.1933 C   0  0  0  0  0  0  0  0  0  0  0  0
    1.1816   30.4743   24.1733 C   0  0  0  0  0  0  0  0  0  0  0  0
    3.2863   29.4090   24.0123 C   0  0  0  0  0  0  0  0  0  0  0  0
    2.3617   30.2765   23.4906 C   0  0  0  0  0  0  0  0  0  0  0  0
    1.7577   26.2938   30.8132 O   0  0  0  0  0  0  0  0  0  0  0  0
  1  2  1  1
  2  3  1  1
  2  5  1  0
  3  4  1  0
  3 15  2  0
  5  6  1  6
  6  7  2  0
  6  8  1  0
  7  9  1  0
  8 10  2  0
  8 11  1  0
  9 10  1  0
 10 12  1  0
 11 13  2  0
 12 14  2  0
 13 14  1  0
M  CHG  2   1   1   4  -1
M  END
$$$$
