
     RDKit          3D

 15 16  0  0  0  0  0  0  0  0999 V2000
   -0.0242   30.2903   22.7291 N   0  0  0  0  0  4  0  0  0  0  0  0
    0.5086   29.3997   23.7240 C   0  0  2  0  0  0  0  0  0  0  0  0
   -0.4617   28.3052   24.0078 C   0  0  0  0  0  0  0  0  0  0  0  0
   -1.7893   28.4297   23.6397 O   0  0  0  0  0  1  0  0  0  0  0  0
    0.7824   30.1484   24.9937 C   0  0  0  0  0  0  0  0  0  0  0  0
    1.9589   29.6435   25.7032 C   0  0  0  0  0  0  0  0  0  0  0  0
    3.2398   29.4409   25.2542 C   0  0  0  0  0  0  0  0  0  0  0  0
    1.9146   29.2701   27.0451 C   0  0  0  0  0  0  0  0  0  0  0  0
    3.9695   28.9580   26.2814 N   0  0  0  0  0  0  0  0  0  0  0  0
    3.1849   28.8526   27.3564 C   0  0  0  0  0  0  0  0  0  0  0  0
    0.9006   29.2644   27.9740 C   0  0  0  0  0  0  0  0  0  0  0  0
    3.4337   28.4183   28.6434 C   0  0  0  0  0  0  0  0  0  0  0  0
    1.1698   28.8263   29.2558 C   0  0  0  0  0  0  0  0  0  0  0  0
    2.4480   28.3995   29.5932 C   0  0  0  0  0  0  0  0  0  0  0  0
   -0.0945   27.2701   24.5768 O   0  0  0  0  0  0  0  0  0  0  0  0
  2  1  1  6
  2  3  1  0
  2  5  1  0
  3  4  1  0
  3 15  2  0
  5  6  1  0
  6  7  2  0
  6  8  1  0
  7  9  1  0
  8 10  2  0
  8 11  1  0
  9 10  1  0
 10 12  1  0
 11 13  2  0
 12 14  2  0
 13 14  1  0
M  CHG  2   1   1   4  -1
M  END
$$$$
