
     RDKit          3D

 15 16  0  0  0  0  0  0  0  0999 V2000
   -0.3316   30.0661   27.8542 N   0  0  0  0  0  4  0  0  0  0  0  0
    0.4525   28.9980   27.2962 C   0  0  2  0  0  0  0  0  0  0  0  0
    1.0920   28.2061   28.3843 C   0  0  0  0  0  0  0  0  0  0  0  0
    0.9560   28.5899   29.7063 O   0  0  0  0  0  1  0  0  0  0  0  0
    1.5227   29.5539   26.4057 C   0  0  0  0  0  0  0  0  0  0  0  0
    0.9905   30.0902   25.1520 C   0  0  0  0  0  0  0  0  0  0  0  0
    0.5463   31.3534   24.8514 C   0  0  0  0  0  0  0  0  0  0  0  0
    0.8554   29.3081   24.0065 C   0  0  0  0  0  0  0  0  0  0  0  0
    0.1484   31.3588   23.5620 N   0  0  0  0  0  0  0  0  0  0  0  0
    0.3297   30.1397   23.0491 C   0  0  0  0  0  0  0  0  0  0  0  0
    1.1405   27.9885   23.7447 C   0  0  0  0  0  0  0  0  0  0  0  0
    0.0868   29.6198   21.7930 C   0  0  0  0  0  0  0  0  0  0  0  0
    0.8903   27.4877   22.4822 C   0  0  0  0  0  0  0  0  0  0  0  0
    0.3587   28.3110   21.4977 C   0  0  0  0  0  0  0  0  0  0  0  0
    1.7537   27.1947   28.1213 O   0  0  0  0  0  0  0  0  0  0  0  0
  2  1  1  1
  2  3  1  0
  2  5  1  0
  3  4  1  0
  3 15  2  0
  5  6  1  0
  6  7  2  0
  6  8  1  0
  7  9  1  0
  8 10  2  0
  8 11  1  0
  9 10  1  0
 10 12  1  0
 11 13  2  0
 12 14  2  0
 13 14  1  0
M  CHG  2   1   1   4  -1
M  END
$$$$
