
     RDKit          3D

 15 16  0  0  0  0  0  0  0  0999 V2000
    2.8404   28.9062   28.3332 N   0  0  0  0  0  4  0  0  0  0  0  0
    1.7365   27.9817   28.6533 C   0  0  2  0  0  0  0  0  0  0  0  0
    2.2562   27.0130   29.6597 C   0  0  0  0  0  0  0  0  0  0  0  0
    1.4482   25.9100   29.9593 O   0  0  0  0  0  1  0  0  0  0  0  0
    1.3581   27.3181   27.3690 C   0  0  0  0  0  0  0  0  0  0  0  0
    1.5440   28.1705   26.1815 C   0  0  0  0  0  0  0  0  0  0  0  0
    2.6357   28.8080   25.6842 C   0  0  0  0  0  0  0  0  0  0  0  0
    0.5096   28.4682   25.3158 C   0  0  0  0  0  0  0  0  0  0  0  0
    2.3000   29.4706   24.5641 N   0  0  0  0  0  0  0  0  0  0  0  0
    0.9767   29.2798   24.3041 C   0  0  0  0  0  0  0  0  0  0  0  0
   -0.8330   28.1334   25.2615 C   0  0  0  0  0  0  0  0  0  0  0  0
    0.1425   29.7303   23.2942 C   0  0  0  0  0  0  0  0  0  0  0  0
   -1.6738   28.5710   24.2678 C   0  0  0  0  0  0  0  0  0  0  0  0
   -1.1890   29.3777   23.2708 C   0  0  0  0  0  0  0  0  0  0  0  0
    3.3645   27.2088   30.1899 O   0  0  0  0  0  0  0  0  0  0  0  0
  1  2  1  1
  2  3  1  1
  2  5  1  0
  3  4  1  0
  3 15  2  0
  5  6  1  6
  6  7  2  0
  6  8  1  0
  7  9  1  0
  8 10  2  0
  8 11  1  0
  9 10  1  0
 10 12  1  0
 11 13  2  0
 12 14  2  0
 13 14  1  0
M  CHG  2   1   1   4  -1
M  END
$$$$
