
     RDKit          3D

 15 16  0  0  0  0  0  0  0  0999 V2000
    2.5687   29.7819   28.8964 N   0  0  0  0  0  4  0  0  0  0  0  0
    2.0764   28.5223   28.4088 C   0  0  2  0  0  0  0  0  0  0  0  0
    2.5538   27.4111   29.2790 C   0  0  0  0  0  0  0  0  0  0  0  0
    2.1225   26.1146   29.0637 O   0  0  0  0  0  1  0  0  0  0  0  0
    2.5594   28.2860   27.0094 C   0  0  0  0  0  0  0  0  0  0  0  0
    1.9012   29.1542   26.0318 C   0  0  0  0  0  0  0  0  0  0  0  0
    2.2957   30.3657   25.5217 C   0  0  0  0  0  0  0  0  0  0  0  0
    0.6787   28.8253   25.4493 C   0  0  0  0  0  0  0  0  0  0  0  0
    1.3513   30.7778   24.6504 N   0  0  0  0  0  0  0  0  0  0  0  0
    0.3806   29.8626   24.6009 C   0  0  0  0  0  0  0  0  0  0  0  0
   -0.1573   27.7430   25.5944 C   0  0  0  0  0  0  0  0  0  0  0  0
   -0.7958   29.8009   23.8804 C   0  0  0  0  0  0  0  0  0  0  0  0
   -1.3293   27.7003   24.8649 C   0  0  0  0  0  0  0  0  0  0  0  0
   -1.6511   28.7387   24.0001 C   0  0  0  0  0  0  0  0  0  0  0  0
    3.3421   27.6319   30.2063 O   0  0  0  0  0  0  0  0  0  0  0  0
  2  1  1  1
  2  3  1  0
  2  5  1  0
  3  4  1  0
  3 15  2  0
  5  6  1  0
  6  7  2  0
  6  8  1  0
  7  9  1  0
  8 10  2  0
  8 11  1  0
  9 10  1  0
 10 12  1  0
 11 13  2  0
 12 14  2  0
 13 14  1  0
M  CHG  2   1   1   4  -1
M  END
$$$$
