
     RDKit          3D

 15 16  0  0  0  0  0  0  0  0999 V2000
    3.5127   26.7683   27.4235 N   0  0  0  0  0  4  0  0  0  0  0  0
    2.9370   27.7147   28.3976 C   0  0  2  0  0  0  0  0  0  0  0  0
    2.9980   27.0571   29.7337 C   0  0  0  0  0  0  0  0  0  0  0  0
    2.3395   27.6974   30.7899 O   0  0  0  0  0  1  0  0  0  0  0  0
    1.5331   27.9717   27.9548 C   0  0  0  0  0  0  0  0  0  0  0  0
    1.4268   28.9294   26.8399 C   0  0  0  0  0  0  0  0  0  0  0  0
    1.9176   30.1851   26.6725 C   0  0  0  0  0  0  0  0  0  0  0  0
    0.7316   28.6414   25.6816 C   0  0  0  0  0  0  0  0  0  0  0  0
    1.5476   30.6576   25.4700 N   0  0  0  0  0  0  0  0  0  0  0  0
    0.8041   29.7175   24.8230 C   0  0  0  0  0  0  0  0  0  0  0  0
    0.0134   27.5464   25.2314 C   0  0  0  0  0  0  0  0  0  0  0  0
    0.1898   29.6955   23.5816 C   0  0  0  0  0  0  0  0  0  0  0  0
   -0.6016   27.5079   24.0041 C   0  0  0  0  0  0  0  0  0  0  0  0
   -0.5173   28.5890   23.1652 C   0  0  0  0  0  0  0  0  0  0  0  0
    3.6166   25.9859   29.8667 O   0  0  0  0  0  0  0  0  0  0  0  0
  1  2  1  1
  2  3  1  1
  2  5  1  0
  3  4  1  0
  3 15  2  0
  5  6  1  6
  6  7  2  0
  6  8  1  0
  7  9  1  0
  8 10  2  0
  8 11  1  0
  9 10  1  0
 10 12  1  0
 11 13  2  0
 12 14  2  0
 13 14  1  0
M  CHG  2   1   1   4  -1
M  END
$$$$
