
     RDKit          3D

 15 16  0  0  0  0  0  0  0  0999 V2000
   -0.8326   31.0955   24.1491 N   0  0  0  0  0  4  0  0  0  0  0  0
   -0.3814   30.1680   23.0946 C   0  0  2  0  0  0  0  0  0  0  0  0
   -1.5450   29.9320   22.1937 C   0  0  0  0  0  0  0  0  0  0  0  0
   -2.7551   30.5432   22.5420 O   0  0  0  0  0  1  0  0  0  0  0  0
    0.0591   28.9216   23.7913 C   0  0  0  0  0  0  0  0  0  0  0  0
    1.0895   29.1476   24.8203 C   0  0  0  0  0  0  0  0  0  0  0  0
    2.1941   29.9383   24.8398 C   0  0  0  0  0  0  0  0  0  0  0  0
    1.0640   28.5092   26.0449 C   0  0  0  0  0  0  0  0  0  0  0  0
    2.8267   29.8007   26.0176 N   0  0  0  0  0  0  0  0  0  0  0  0
    2.1468   28.9138   26.7962 C   0  0  0  0  0  0  0  0  0  0  0  0
    0.2143   27.5921   26.6401 C   0  0  0  0  0  0  0  0  0  0  0  0
    2.3644   28.4248   28.0738 C   0  0  0  0  0  0  0  0  0  0  0  0
    0.4151   27.0972   27.9053 C   0  0  0  0  0  0  0  0  0  0  0  0
    1.4984   27.5126   28.6358 C   0  0  0  0  0  0  0  0  0  0  0  0
   -1.4093   29.2171   21.1846 O   0  0  0  0  0  0  0  0  0  0  0  0
  1  2  1  1
  2  3  1  6
  2  5  1  0
  3  4  1  0
  3 15  2  0
  5  6  1  6
  6  7  2  0
  6  8  1  0
  7  9  1  0
  8 10  2  0
  8 11  1  0
  9 10  1  0
 10 12  1  0
 11 13  2  0
 12 14  2  0
 13 14  1  0
M  CHG  2   1   1   4  -1
M  END
$$$$
