
     RDKit          3D

 15 16  0  0  0  0  0  0  0  0999 V2000
    2.6268   29.5235   29.4770 N   0  0  0  0  0  4  0  0  0  0  0  0
    2.0738   28.3553   28.8475 C   0  0  2  0  0  0  0  0  0  0  0  0
    2.6129   27.1221   29.4867 C   0  0  0  0  0  0  0  0  0  0  0  0
    3.5584   27.2075   30.4927 O   0  0  0  0  0  1  0  0  0  0  0  0
    2.4232   28.3401   27.3897 C   0  0  0  0  0  0  0  0  0  0  0  0
    1.6507   29.3123   26.6148 C   0  0  0  0  0  0  0  0  0  0  0  0
    1.6874   30.6841   26.6337 C   0  0  0  0  0  0  0  0  0  0  0  0
    0.6932   28.9254   25.6791 C   0  0  0  0  0  0  0  0  0  0  0  0
    0.7837   31.1370   25.7397 N   0  0  0  0  0  0  0  0  0  0  0  0
    0.1845   30.0919   25.1642 C   0  0  0  0  0  0  0  0  0  0  0  0
    0.2493   27.6929   25.2606 C   0  0  0  0  0  0  0  0  0  0  0  0
   -0.7998   30.0067   24.1995 C   0  0  0  0  0  0  0  0  0  0  0  0
   -0.7358   27.6290   24.2948 C   0  0  0  0  0  0  0  0  0  0  0  0
   -1.2649   28.7967   23.7595 C   0  0  0  0  0  0  0  0  0  0  0  0
    2.2232   26.0046   29.1270 O   0  0  0  0  0  0  0  0  0  0  0  0
  2  1  1  1
  2  3  1  0
  2  5  1  0
  3  4  1  0
  3 15  2  0
  5  6  1  0
  6  7  2  0
  6  8  1  0
  7  9  1  0
  8 10  2  0
  8 11  1  0
  9 10  1  0
 10 12  1  0
 11 13  2  0
 12 14  2  0
 13 14  1  0
M  CHG  2   1   1   4  -1
M  END
$$$$
