
     RDKit          3D

 15 16  0  0  0  0  0  0  0  0999 V2000
    3.9380   28.4703   29.0979 N   0  0  0  0  0  4  0  0  0  0  0  0
    2.6894   27.8588   29.4639 C   0  0  2  0  0  0  0  0  0  0  0  0
    2.9316   26.6783   30.3401 C   0  0  0  0  0  0  0  0  0  0  0  0
    1.8730   25.9186   30.8045 O   0  0  0  0  0  1  0  0  0  0  0  0
    1.9547   27.4108   28.2363 C   0  0  0  0  0  0  0  0  0  0  0  0
    1.3058   28.5180   27.5324 C   0  0  0  0  0  0  0  0  0  0  0  0
    0.4072   29.4486   27.9907 C   0  0  0  0  0  0  0  0  0  0  0  0
    1.5425   28.7832   26.1849 C   0  0  0  0  0  0  0  0  0  0  0  0
    0.0947   30.2664   26.9640 N   0  0  0  0  0  0  0  0  0  0  0  0
    0.7691   29.8758   25.8801 C   0  0  0  0  0  0  0  0  0  0  0  0
    2.3415   28.1746   25.2456 C   0  0  0  0  0  0  0  0  0  0  0  0
    0.8070   30.3644   24.5891 C   0  0  0  0  0  0  0  0  0  0  0  0
    2.3653   28.6784   23.9599 C   0  0  0  0  0  0  0  0  0  0  0  0
    1.5911   29.7833   23.6290 C   0  0  0  0  0  0  0  0  0  0  0  0
    4.0821   26.3608   30.6650 O   0  0  0  0  0  0  0  0  0  0  0  0
  2  1  1  6
  2  3  1  0
  2  5  1  0
  3  4  1  0
  3 15  2  0
  5  6  1  0
  6  7  2  0
  6  8  1  0
  7  9  1  0
  8 10  2  0
  8 11  1  0
  9 10  1  0
 10 12  1  0
 11 13  2  0
 12 14  2  0
 13 14  1  0
M  CHG  2   1   1   4  -1
M  END
$$$$
