
     RDKit          3D

 15 16  0  0  0  0  0  0  0  0999 V2000
    1.8705   28.8943   29.1457 N   0  0  0  0  0  4  0  0  0  0  0  0
    1.9990   27.5069   28.7918 C   0  0  2  0  0  0  0  0  0  0  0  0
    2.9808   26.8354   29.6891 C   0  0  0  0  0  0  0  0  0  0  0  0
    3.0771   25.4558   29.7186 O   0  0  0  0  0  1  0  0  0  0  0  0
    2.4680   27.3770   27.3739 C   0  0  0  0  0  0  0  0  0  0  0  0
    1.4413   27.7599   26.4033 C   0  0  0  0  0  0  0  0  0  0  0  0
    0.2027   27.2171   26.1696 C   0  0  0  0  0  0  0  0  0  0  0  0
    1.6160   28.8191   25.5147 C   0  0  0  0  0  0  0  0  0  0  0  0
   -0.3754   27.9145   25.1695 N   0  0  0  0  0  0  0  0  0  0  0  0
    0.4628   28.8745   24.7718 C   0  0  0  0  0  0  0  0  0  0  0  0
    2.6538   29.6979   25.3107 C   0  0  0  0  0  0  0  0  0  0  0  0
    0.3590   29.8467   23.7967 C   0  0  0  0  0  0  0  0  0  0  0  0
    2.5305   30.6630   24.3305 C   0  0  0  0  0  0  0  0  0  0  0  0
    1.3725   30.7379   23.5669 C   0  0  0  0  0  0  0  0  0  0  0  0
    3.7233   27.5015   30.4205 O   0  0  0  0  0  0  0  0  0  0  0  0
  2  1  1  1
  2  3  1  0
  2  5  1  0
  3  4  1  0
  3 15  2  0
  5  6  1  0
  6  7  2  0
  6  8  1  0
  7  9  1  0
  8 10  2  0
  8 11  1  0
  9 10  1  0
 10 12  1  0
 11 13  2  0
 12 14  2  0
 13 14  1  0
M  CHG  2   1   1   4  -1
M  END
$$$$
