
     RDKit          3D

 15 16  0  0  0  0  0  0  0  0999 V2000
    1.3939   29.4312   29.1501 N   0  0  0  0  0  4  0  0  0  0  0  0
    1.6359   28.2560   28.3581 C   0  0  2  0  0  0  0  0  0  0  0  0
    2.4286   27.2640   29.1377 C   0  0  0  0  0  0  0  0  0  0  0  0
    3.0086   27.6184   30.3424 O   0  0  0  0  0  1  0  0  0  0  0  0
    2.3948   28.6173   27.1167 C   0  0  0  0  0  0  0  0  0  0  0  0
    1.6214   29.4685   26.2111 C   0  0  0  0  0  0  0  0  0  0  0  0
    1.5581   30.8368   26.1259 C   0  0  0  0  0  0  0  0  0  0  0  0
    0.7750   28.9421   25.2372 C   0  0  0  0  0  0  0  0  0  0  0  0
    0.7015   31.1527   25.1323 N   0  0  0  0  0  0  0  0  0  0  0  0
    0.2285   30.0257   24.5954 C   0  0  0  0  0  0  0  0  0  0  0  0
    0.4568   27.6520   24.8828 C   0  0  0  0  0  0  0  0  0  0  0  0
   -0.6638   29.7952   23.5670 C   0  0  0  0  0  0  0  0  0  0  0  0
   -0.4378   27.4427   23.8517 C   0  0  0  0  0  0  0  0  0  0  0  0
   -1.0030   28.5242   23.1879 C   0  0  0  0  0  0  0  0  0  0  0  0
    2.5795   26.1100   28.7189 O   0  0  0  0  0  0  0  0  0  0  0  0
  2  1  1  1
  2  3  1  0
  2  5  1  0
  3  4  1  0
  3 15  2  0
  5  6  1  0
  6  7  2  0
  6  8  1  0
  7  9  1  0
  8 10  2  0
  8 11  1  0
  9 10  1  0
 10 12  1  0
 11 13  2  0
 12 14  2  0
 13 14  1  0
M  CHG  2   1   1   4  -1
M  END
$$$$
