
     RDKit          3D

 15 16  0  0  0  0  0  0  0  0999 V2000
    3.8942   26.2050   28.5346 N   0  0  0  0  0  4  0  0  0  0  0  0
    3.0331   27.3729   28.2695 C   0  0  2  0  0  0  0  0  0  0  0  0
    2.3467   27.7086   29.5492 C   0  0  0  0  0  0  0  0  0  0  0  0
    1.8667   26.6395   30.3146 O   0  0  0  0  0  1  0  0  0  0  0  0
    2.0734   26.9542   27.2033 C   0  0  0  0  0  0  0  0  0  0  0  0
    1.1687   28.0302   26.7614 C   0  0  0  0  0  0  0  0  0  0  0  0
    0.0757   28.5917   27.3408 C   0  0  0  0  0  0  0  0  0  0  0  0
    1.3330   28.6863   25.5571 C   0  0  0  0  0  0  0  0  0  0  0  0
   -0.4178   29.5505   26.5386 N   0  0  0  0  0  0  0  0  0  0  0  0
    0.3448   29.6367   25.4134 C   0  0  0  0  0  0  0  0  0  0  0  0
    2.2431   28.5876   24.5181 C   0  0  0  0  0  0  0  0  0  0  0  0
    0.2742   30.4431   24.2893 C   0  0  0  0  0  0  0  0  0  0  0  0
    2.1878   29.3788   23.3970 C   0  0  0  0  0  0  0  0  0  0  0  0
    1.1966   30.3181   23.2738 C   0  0  0  0  0  0  0  0  0  0  0  0
    2.2240   28.8988   29.8900 O   0  0  0  0  0  0  0  0  0  0  0  0
  1  2  1  1
  2  3  1  1
  2  5  1  0
  3  4  1  0
  3 15  2  0
  5  6  1  6
  6  7  2  0
  6  8  1  0
  7  9  1  0
  8 10  2  0
  8 11  1  0
  9 10  1  0
 10 12  1  0
 11 13  2  0
 12 14  2  0
 13 14  1  0
M  CHG  2   1   1   4  -1
M  END
$$$$
