
     RDKit          3D

 15 16  0  0  0  0  0  0  0  0999 V2000
    2.5036   29.3554   29.0989 N   0  0  0  0  0  4  0  0  0  0  0  0
    1.9306   28.1236   28.5245 C   0  0  2  0  0  0  0  0  0  0  0  0
    2.4244   26.9858   29.3510 C   0  0  0  0  0  0  0  0  0  0  0  0
    3.1486   27.3039   30.5058 O   0  0  0  0  0  1  0  0  0  0  0  0
    2.4157   28.0526   27.1130 C   0  0  0  0  0  0  0  0  0  0  0  0
    1.7886   29.0411   26.2179 C   0  0  0  0  0  0  0  0  0  0  0  0
    2.0394   30.3589   26.0039 C   0  0  0  0  0  0  0  0  0  0  0  0
    0.7390   28.7185   25.3799 C   0  0  0  0  0  0  0  0  0  0  0  0
    1.1891   30.8356   25.0786 N   0  0  0  0  0  0  0  0  0  0  0  0
    0.3610   29.8359   24.6664 C   0  0  0  0  0  0  0  0  0  0  0  0
    0.0261   27.5591   25.1247 C   0  0  0  0  0  0  0  0  0  0  0  0
   -0.6749   29.7917   23.7478 C   0  0  0  0  0  0  0  0  0  0  0  0
   -1.0033   27.4979   24.2177 C   0  0  0  0  0  0  0  0  0  0  0  0
   -1.3633   28.6208   23.5184 C   0  0  0  0  0  0  0  0  0  0  0  0
    2.1843   25.8170   28.9986 O   0  0  0  0  0  0  0  0  0  0  0  0
  1  2  1  1
  2  3  1  1
  2  5  1  0
  3  4  1  0
  3 15  2  0
  5  6  1  6
  6  7  2  0
  6  8  1  0
  7  9  1  0
  8 10  2  0
  8 11  1  0
  9 10  1  0
 10 12  1  0
 11 13  2  0
 12 14  2  0
 13 14  1  0
M  CHG  2   1   1   4  -1
M  END
$$$$
