
     RDKit          3D

 15 16  0  0  0  0  0  0  0  0999 V2000
    2.6899   29.3211   28.1801 N   0  0  0  0  0  4  0  0  0  0  0  0
    1.9577   28.1139   27.9092 C   0  0  2  0  0  0  0  0  0  0  0  0
    2.3196   27.0594   28.8976 C   0  0  0  0  0  0  0  0  0  0  0  0
    1.7887   25.7863   28.7934 O   0  0  0  0  0  1  0  0  0  0  0  0
    2.2732   27.6171   26.5304 C   0  0  0  0  0  0  0  0  0  0  0  0
    1.7538   28.4966   25.4819 C   0  0  0  0  0  0  0  0  0  0  0  0
    2.3653   29.5265   24.8118 C   0  0  0  0  0  0  0  0  0  0  0  0
    0.4530   28.3851   24.9944 C   0  0  0  0  0  0  0  0  0  0  0  0
    1.4760   30.0394   23.9361 N   0  0  0  0  0  0  0  0  0  0  0  0
    0.3297   29.3628   24.0386 C   0  0  0  0  0  0  0  0  0  0  0  0
   -0.5850   27.5382   25.3048 C   0  0  0  0  0  0  0  0  0  0  0  0
   -0.8778   29.4848   23.3798 C   0  0  0  0  0  0  0  0  0  0  0  0
   -1.7847   27.6765   24.6345 C   0  0  0  0  0  0  0  0  0  0  0  0
   -1.9320   28.6587   23.6633 C   0  0  0  0  0  0  0  0  0  0  0  0
    3.0995   27.3070   29.8252 O   0  0  0  0  0  0  0  0  0  0  0  0
  2  1  1  1
  2  3  1  0
  2  5  1  0
  3  4  1  0
  3 15  2  0
  5  6  1  0
  6  7  2  0
  6  8  1  0
  7  9  1  0
  8 10  2  0
  8 11  1  0
  9 10  1  0
 10 12  1  0
 11 13  2  0
 12 14  2  0
 13 14  1  0
M  CHG  2   1   1   4  -1
M  END
$$$$
