
     RDKit          3D

 15 16  0  0  0  0  0  0  0  0999 V2000
    3.4378   26.7593   27.2905 N   0  0  0  0  0  4  0  0  0  0  0  0
    2.8957   27.6721   28.2598 C   0  0  2  0  0  0  0  0  0  0  0  0
    2.8721   27.0377   29.6077 C   0  0  0  0  0  0  0  0  0  0  0  0
    3.1512   25.6910   29.7558 O   0  0  0  0  0  1  0  0  0  0  0  0
    1.4980   28.0587   27.8797 C   0  0  0  0  0  0  0  0  0  0  0  0
    1.4559   28.9560   26.7240 C   0  0  0  0  0  0  0  0  0  0  0  0
    2.2342   30.0463   26.4253 C   0  0  0  0  0  0  0  0  0  0  0  0
    0.5320   28.7978   25.6928 C   0  0  0  0  0  0  0  0  0  0  0  0
    1.8100   30.5503   25.2477 N   0  0  0  0  0  0  0  0  0  0  0  0
    0.7922   29.8098   24.8025 C   0  0  0  0  0  0  0  0  0  0  0  0
   -0.4730   27.8837   25.4793 C   0  0  0  0  0  0  0  0  0  0  0  0
    0.0134   29.8973   23.6656 C   0  0  0  0  0  0  0  0  0  0  0  0
   -1.2408   27.9884   24.3360 C   0  0  0  0  0  0  0  0  0  0  0  0
   -0.9951   29.0044   23.4211 C   0  0  0  0  0  0  0  0  0  0  0  0
    2.6025   27.7056   30.6133 O   0  0  0  0  0  0  0  0  0  0  0  0
  2  1  1  6
  2  3  1  0
  2  5  1  0
  3  4  1  0
  3 15  2  0
  5  6  1  0
  6  7  2  0
  6  8  1  0
  7  9  1  0
  8 10  2  0
  8 11  1  0
  9 10  1  0
 10 12  1  0
 11 13  2  0
 12 14  2  0
 13 14  1  0
M  CHG  2   1   1   4  -1
M  END
$$$$
