
     RDKit          3D

 15 16  0  0  0  0  0  0  0  0999 V2000
    2.9114   26.1603   27.6717 N   0  0  0  0  0  4  0  0  0  0  0  0
    2.7783   27.2311   28.6774 C   0  0  2  0  0  0  0  0  0  0  0  0
    2.7311   26.5719   30.0133 C   0  0  0  0  0  0  0  0  0  0  0  0
    2.6530   27.4072   31.1338 O   0  0  0  0  0  1  0  0  0  0  0  0
    1.5109   27.9545   28.3561 C   0  0  0  0  0  0  0  0  0  0  0  0
    1.6010   28.8097   27.1594 C   0  0  0  0  0  0  0  0  0  0  0  0
    2.4787   29.7840   26.8045 C   0  0  0  0  0  0  0  0  0  0  0  0
    0.6974   28.7221   26.1184 C   0  0  0  0  0  0  0  0  0  0  0  0
    2.1403   30.2801   25.6022 N   0  0  0  0  0  0  0  0  0  0  0  0
    1.0300   29.6383   25.1434 C   0  0  0  0  0  0  0  0  0  0  0  0
   -0.4178   27.9401   25.8687 C   0  0  0  0  0  0  0  0  0  0  0  0
    0.2844   29.7625   23.9826 C   0  0  0  0  0  0  0  0  0  0  0  0
   -1.1679   28.0502   24.7236 C   0  0  0  0  0  0  0  0  0  0  0  0
   -0.8199   28.9680   23.7664 C   0  0  0  0  0  0  0  0  0  0  0  0
    2.7617   25.3306   30.0905 O   0  0  0  0  0  0  0  0  0  0  0  0
  1  2  1  1
  2  3  1  1
  2  5  1  0
  3  4  1  0
  3 15  2  0
  5  6  1  6
  6  7  2  0
  6  8  1  0
  7  9  1  0
  8 10  2  0
  8 11  1  0
  9 10  1  0
 10 12  1  0
 11 13  2  0
 12 14  2  0
 13 14  1  0
M  CHG  2   1   1   4  -1
M  END
$$$$
