
     RDKit          3D

 15 16  0  0  0  0  0  0  0  0999 V2000
    3.8158   28.0949   28.7992 N   0  0  0  0  0  4  0  0  0  0  0  0
    2.4048   27.6867   28.6648 C   0  0  2  0  0  0  0  0  0  0  0  0
    2.1788   26.5729   29.6290 C   0  0  0  0  0  0  0  0  0  0  0  0
    3.2335   26.2530   30.4920 O   0  0  0  0  0  1  0  0  0  0  0  0
    2.2256   27.2542   27.2457 C   0  0  0  0  0  0  0  0  0  0  0  0
    2.3143   28.3568   26.2720 C   0  0  0  0  0  0  0  0  0  0  0  0
    3.3750   29.0434   25.7729 C   0  0  0  0  0  0  0  0  0  0  0  0
    1.1978   28.9011   25.6678 C   0  0  0  0  0  0  0  0  0  0  0  0
    2.9427   29.9700   24.9007 N   0  0  0  0  0  0  0  0  0  0  0  0
    1.5851   29.9089   24.8105 C   0  0  0  0  0  0  0  0  0  0  0  0
   -0.1621   28.6520   25.7450 C   0  0  0  0  0  0  0  0  0  0  0  0
    0.6586   30.6266   24.0719 C   0  0  0  0  0  0  0  0  0  0  0  0
   -1.0939   29.3537   25.0201 C   0  0  0  0  0  0  0  0  0  0  0  0
   -0.6876   30.3522   24.1731 C   0  0  0  0  0  0  0  0  0  0  0  0
    1.0873   25.9759   29.6377 O   0  0  0  0  0  0  0  0  0  0  0  0
  1  2  1  1
  2  3  1  1
  2  5  1  0
  3  4  1  0
  3 15  2  0
  5  6  1  6
  6  7  2  0
  6  8  1  0
  7  9  1  0
  8 10  2  0
  8 11  1  0
  9 10  1  0
 10 12  1  0
 11 13  2  0
 12 14  2  0
 13 14  1  0
M  CHG  2   1   1   4  -1
M  END
$$$$
