
     RDKit          3D

 15 16  0  0  0  0  0  0  0  0999 V2000
    3.8453   28.8163   28.1740 N   0  0  0  0  0  4  0  0  0  0  0  0
    2.5074   28.2563   28.4429 C   0  0  2  0  0  0  0  0  0  0  0  0
    2.6924   27.1179   29.3870 C   0  0  0  0  0  0  0  0  0  0  0  0
    1.5992   26.2651   29.5792 O   0  0  0  0  0  1  0  0  0  0  0  0
    1.9627   27.8163   27.1228 C   0  0  0  0  0  0  0  0  0  0  0  0
    1.5053   28.9263   26.2682 C   0  0  0  0  0  0  0  0  0  0  0  0
    1.8157   30.2488   26.2552 C   0  0  0  0  0  0  0  0  0  0  0  0
    0.5925   28.7457   25.2473 C   0  0  0  0  0  0  0  0  0  0  0  0
    1.1313   30.8633   25.2754 N   0  0  0  0  0  0  0  0  0  0  0  0
    0.3557   29.9524   24.6243 C   0  0  0  0  0  0  0  0  0  0  0  0
   -0.0974   27.6535   24.7486 C   0  0  0  0  0  0  0  0  0  0  0  0
   -0.5247   30.0569   23.5600 C   0  0  0  0  0  0  0  0  0  0  0  0
   -0.9736   27.7394   23.6946 C   0  0  0  0  0  0  0  0  0  0  0  0
   -1.1948   28.9493   23.0890 C   0  0  0  0  0  0  0  0  0  0  0  0
    3.7851   26.9637   29.9614 O   0  0  0  0  0  0  0  0  0  0  0  0
  1  2  1  1
  2  3  1  1
  2  5  1  0
  3  4  1  0
  3 15  2  0
  5  6  1  6
  6  7  2  0
  6  8  1  0
  7  9  1  0
  8 10  2  0
  8 11  1  0
  9 10  1  0
 10 12  1  0
 11 13  2  0
 12 14  2  0
 13 14  1  0
M  CHG  2   1   1   4  -1
M  END
$$$$
