
     RDKit          3D

 15 16  0  0  0  0  0  0  0  0999 V2000
    2.8272   29.1865   27.4936 N   0  0  0  0  0  4  0  0  0  0  0  0
    1.6142   28.4164   27.5418 C   0  0  2  0  0  0  0  0  0  0  0  0
    1.6866   27.4099   28.6381 C   0  0  0  0  0  0  0  0  0  0  0  0
    2.8497   27.2494   29.3693 O   0  0  0  0  0  1  0  0  0  0  0  0
    1.4032   27.7034   26.2401 C   0  0  0  0  0  0  0  0  0  0  0  0
    1.0675   28.6157   25.1458 C   0  0  0  0  0  0  0  0  0  0  0  0
    1.8782   29.4346   24.4003 C   0  0  0  0  0  0  0  0  0  0  0  0
   -0.2387   28.7798   24.6885 C   0  0  0  0  0  0  0  0  0  0  0  0
    1.1037   30.0867   23.5083 N   0  0  0  0  0  0  0  0  0  0  0  0
   -0.1637   29.7012   23.6736 C   0  0  0  0  0  0  0  0  0  0  0  0
   -1.4334   28.2161   25.0704 C   0  0  0  0  0  0  0  0  0  0  0  0
   -1.3307   30.0603   23.0286 C   0  0  0  0  0  0  0  0  0  0  0  0
   -2.5895   28.5886   24.4129 C   0  0  0  0  0  0  0  0  0  0  0  0
   -2.5373   29.5190   23.3827 C   0  0  0  0  0  0  0  0  0  0  0  0
    0.7082   26.7035   28.9099 O   0  0  0  0  0  0  0  0  0  0  0  0
  2  1  1  6
  2  3  1  0
  2  5  1  0
  3  4  1  0
  3 15  2  0
  5  6  1  0
  6  7  2  0
  6  8  1  0
  7  9  1  0
  8 10  2  0
  8 11  1  0
  9 10  1  0
 10 12  1  0
 11 13  2  0
 12 14  2  0
 13 14  1  0
M  CHG  2   1   1   4  -1
M  END
$$$$
