
     RDKit          3D

 15 16  0  0  0  0  0  0  0  0999 V2000
    2.4215   29.9914   27.9228 N   0  0  0  0  0  4  0  0  0  0  0  0
    1.8271   28.6855   27.5805 C   0  0  2  0  0  0  0  0  0  0  0  0
    2.3035   27.7083   28.6000 C   0  0  0  0  0  0  0  0  0  0  0  0
    1.7890   26.4086   28.5265 O   0  0  0  0  0  1  0  0  0  0  0  0
    2.3084   28.3519   26.2057 C   0  0  0  0  0  0  0  0  0  0  0  0
    1.7620   29.2288   25.1549 C   0  0  0  0  0  0  0  0  0  0  0  0
    2.2863   30.2994   24.5035 C   0  0  0  0  0  0  0  0  0  0  0  0
    0.4948   29.0563   24.6330 C   0  0  0  0  0  0  0  0  0  0  0  0
    1.3914   30.7720   23.6190 N   0  0  0  0  0  0  0  0  0  0  0  0
    0.2588   30.0176   23.6735 C   0  0  0  0  0  0  0  0  0  0  0  0
   -0.5337   28.1590   24.8667 C   0  0  0  0  0  0  0  0  0  0  0  0
   -0.9429   30.0748   22.9868 C   0  0  0  0  0  0  0  0  0  0  0  0
   -1.7309   28.2015   24.1953 C   0  0  0  0  0  0  0  0  0  0  0  0
   -1.9454   29.1658   23.2445 C   0  0  0  0  0  0  0  0  0  0  0  0
    3.1235   28.0679   29.4638 O   0  0  0  0  0  0  0  0  0  0  0  0
  1  2  1  1
  2  3  1  1
  2  5  1  0
  3  4  1  0
  3 15  2  0
  5  6  1  6
  6  7  2  0
  6  8  1  0
  7  9  1  0
  8 10  2  0
  8 11  1  0
  9 10  1  0
 10 12  1  0
 11 13  2  0
 12 14  2  0
 13 14  1  0
M  CHG  2   1   1   4  -1
M  END
$$$$
