
     RDKit          3D

 15 16  0  0  0  0  0  0  0  0999 V2000
    3.1467   29.0086   29.2430 N   0  0  0  0  0  4  0  0  0  0  0  0
    2.2802   27.9613   28.7747 C   0  0  2  0  0  0  0  0  0  0  0  0
    2.5033   26.7172   29.5636 C   0  0  0  0  0  0  0  0  0  0  0  0
    3.4996   26.6614   30.5216 O   0  0  0  0  0  1  0  0  0  0  0  0
    2.5512   27.6752   27.3283 C   0  0  0  0  0  0  0  0  0  0  0  0
    2.0227   28.7117   26.4401 C   0  0  0  0  0  0  0  0  0  0  0  0
    2.5601   29.9220   26.0795 C   0  0  0  0  0  0  0  0  0  0  0  0
    0.7936   28.5834   25.7959 C   0  0  0  0  0  0  0  0  0  0  0  0
    1.6956   30.5273   25.2386 N   0  0  0  0  0  0  0  0  0  0  0  0
    0.6364   29.7338   25.0635 C   0  0  0  0  0  0  0  0  0  0  0  0
   -0.1561   27.5888   25.7983 C   0  0  0  0  0  0  0  0  0  0  0  0
   -0.5139   29.8797   24.3135 C   0  0  0  0  0  0  0  0  0  0  0  0
   -1.2996   27.7539   25.0416 C   0  0  0  0  0  0  0  0  0  0  0  0
   -1.4798   28.9098   24.2925 C   0  0  0  0  0  0  0  0  0  0  0  0
    1.8015   25.7166   29.3732 O   0  0  0  0  0  0  0  0  0  0  0  0
  2  1  1  1
  2  3  1  0
  2  5  1  0
  3  4  1  0
  3 15  2  0
  5  6  1  0
  6  7  2  0
  6  8  1  0
  7  9  1  0
  8 10  2  0
  8 11  1  0
  9 10  1  0
 10 12  1  0
 11 13  2  0
 12 14  2  0
 13 14  1  0
M  CHG  2   1   1   4  -1
M  END
$$$$
