
     RDKit          3D

 15 16  0  0  0  0  0  0  0  0999 V2000
    4.3567   27.3109   28.1812 N   0  0  0  0  0  4  0  0  0  0  0  0
    3.1336   28.0339   27.9620 C   0  0  2  0  0  0  0  0  0  0  0  0
    2.1153   27.6429   28.9769 C   0  0  0  0  0  0  0  0  0  0  0  0
    2.2596   26.4747   29.7036 O   0  0  0  0  0  1  0  0  0  0  0  0
    2.5962   27.7367   26.5944 C   0  0  0  0  0  0  0  0  0  0  0  0
    1.6789   28.7705   26.1123 C   0  0  0  0  0  0  0  0  0  0  0  0
    1.6754   30.1235   26.3428 C   0  0  0  0  0  0  0  0  0  0  0  0
    0.5956   28.4771   25.2863 C   0  0  0  0  0  0  0  0  0  0  0  0
    0.6258   30.6555   25.6825 N   0  0  0  0  0  0  0  0  0  0  0  0
   -0.0256   29.6780   25.0480 C   0  0  0  0  0  0  0  0  0  0  0  0
    0.1286   27.2995   24.7511 C   0  0  0  0  0  0  0  0  0  0  0  0
   -1.1495   29.6852   24.2457 C   0  0  0  0  0  0  0  0  0  0  0  0
   -0.9970   27.3280   23.9513 C   0  0  0  0  0  0  0  0  0  0  0  0
   -1.6415   28.5318   23.6964 C   0  0  0  0  0  0  0  0  0  0  0  0
    1.1265   28.3566   29.1841 O   0  0  0  0  0  0  0  0  0  0  0  0
  2  1  1  1
  2  3  1  0
  2  5  1  0
  3  4  1  0
  3 15  2  0
  5  6  1  0
  6  7  2  0
  6  8  1  0
  7  9  1  0
  8 10  2  0
  8 11  1  0
  9 10  1  0
 10 12  1  0
 11 13  2  0
 12 14  2  0
 13 14  1  0
M  CHG  2   1   1   4  -1
M  END
$$$$
