
     RDKit          3D

 18 18  0  0  0  0  0  0  0  0999 V2000
   17.9577   -7.4984   13.6712 C   0  0  0  0  0  0  0  0  0  0  0  0
   17.8301   -6.1451   14.2561 C   0  0  0  0  0  0  0  0  0  0  0  0
   16.7238   -5.7802   14.7501 O   0  0  0  0  0  0  0  0  0  0  0  0
   18.9114   -5.2168   14.2906 N   0  0  0  0  0  0  0  0  0  0  0  0
   18.8438   -4.1151   15.1916 C   0  0  0  0  0  0  0  0  0  0  0  0
   17.7854   -4.0210   16.1027 C   0  0  0  0  0  0  0  0  0  0  0  0
   19.8403   -3.1629   15.1345 C   0  0  0  0  0  0  0  0  0  0  0  0
   19.8067   -2.0823   15.9925 C   0  0  0  0  0  0  0  0  0  0  0  0
   18.7494   -1.9907   16.9008 C   0  0  0  0  0  0  0  0  0  0  0  0
   18.6680   -0.6497   17.9968 Cl  0  0  0  0  0  0  0  0  0  0  0  0
   17.7563   -2.9453   16.9533 C   0  0  0  0  0  0  0  0  0  0  0  0
   16.4641   -2.7785   18.1057 S   0  0  2  0  0  6  0  0  0  0  0  0
   16.8998   -1.7044   19.0938 O   0  0  0  0  0  0  0  0  0  0  0  0
   16.2354   -4.0155   18.8906 O   0  0  0  0  0  0  0  0  0  0  0  0
   15.0210   -2.2041   17.3677 N   0  0  0  0  0  0  0  0  0  0  0  0
   15.2043   -0.7960   17.0689 C   0  0  2  0  0  0  0  0  0  0  0  0
   14.2173   -0.0026   17.8738 C   0  0  0  0  0  0  0  0  0  0  0  0
   15.0040   -0.5451   15.5687 C   0  0  0  0  0  0  0  0  0  0  0  0
  1  2  1  6
  2  3  2  0
  2  4  1  0
  4  5  1  0
  5  6  2  0
  5  7  1  0
  6 11  1  0
  7  8  2  0
  8  9  1  0
  9 10  1  0
  9 11  2  0
 11 12  1  0
 12 13  2  0
 12 14  2  0
 12 15  1  6
 16 15  1  6
 17 16  1  6
 18 16  1  6
M  END
$$$$
