
     RDKit          3D

 18 18  0  0  0  0  0  0  0  0999 V2000
   17.5892   -7.3106   13.6635 C   0  0  0  0  0  0  0  0  0  0  0  0
   17.7106   -6.0035   14.4088 C   0  0  0  0  0  0  0  0  0  0  0  0
   18.6827   -5.9006   15.1793 O   0  0  0  0  0  0  0  0  0  0  0  0
   16.7844   -4.9692   14.2426 N   0  0  0  0  0  0  0  0  0  0  0  0
   16.8107   -3.7100   14.8999 C   0  0  0  0  0  0  0  0  0  0  0  0
   17.1923   -3.6877   16.2485 C   0  0  0  0  0  0  0  0  0  0  0  0
   16.4850   -2.5403   14.2826 C   0  0  0  0  0  0  0  0  0  0  0  0
   16.5440   -1.3609   15.0242 C   0  0  0  0  0  0  0  0  0  0  0  0
   16.9261   -1.3767   16.3620 C   0  0  0  0  0  0  0  0  0  0  0  0
   16.8670    0.1519   17.2078 Cl  0  0  0  0  0  0  0  0  0  0  0  0
   17.2610   -2.5288   17.0094 C   0  0  0  0  0  0  0  0  0  0  0  0
   17.8339   -2.6105   18.6555 S   0  0  2  0  0  6  0  0  0  0  0  0
   17.8666   -4.0960   19.0619 O   0  0  0  0  0  0  0  0  0  0  0  0
   16.7553   -2.0308   19.5555 O   0  0  0  0  0  0  0  0  0  0  0  0
   19.2909   -1.9377   19.0284 N   0  0  0  0  0  0  0  0  0  0  0  0
   20.5241   -2.2819   18.5114 C   0  0  2  0  0  0  0  0  0  0  0  0
   21.5851   -1.4308   19.2633 C   0  0  0  0  0  0  0  0  0  0  0  0
   20.7273   -1.8585   17.0514 C   0  0  0  0  0  0  0  0  0  0  0  0
  1  2  1  0
  2  3  2  0
  2  4  1  0
  4  5  1  0
  5  6  2  0
  5  7  1  0
  6 11  1  0
  7  8  2  0
  8  9  1  0
  9 10  1  0
  9 11  2  0
 11 12  1  0
 12 13  2  0
 12 14  2  0
 12 15  1  6
 15 16  1  0
 16 17  1  1
 16 18  1  0
M  END
$$$$
