
     RDKit          3D

 18 18  0  0  0  0  0  0  0  0999 V2000
   17.8458   -7.9440   14.0558 C   0  0  0  0  0  0  0  0  0  0  0  0
   17.6967   -6.5002   14.3443 C   0  0  0  0  0  0  0  0  0  0  0  0
   16.5395   -6.0081   14.4858 O   0  0  0  0  0  0  0  0  0  0  0  0
   18.8122   -5.6221   14.4727 N   0  0  0  0  0  0  0  0  0  0  0  0
   18.7048   -4.4955   15.3384 C   0  0  0  0  0  0  0  0  0  0  0  0
   17.7403   -4.4826   16.3527 C   0  0  0  0  0  0  0  0  0  0  0  0
   19.5693   -3.4382   15.1442 C   0  0  0  0  0  0  0  0  0  0  0  0
   19.4935   -2.3306   15.9642 C   0  0  0  0  0  0  0  0  0  0  0  0
   18.5302   -2.3202   16.9757 C   0  0  0  0  0  0  0  0  0  0  0  0
   18.4002   -0.9488   18.0285 Cl  0  0  0  0  0  0  0  0  0  0  0  0
   17.6689   -3.3797   17.1650 C   0  0  0  0  0  0  0  0  0  0  0  0
   16.4891   -3.3106   18.4414 S   0  0  2  0  0  6  0  0  0  0  0  0
   16.9599   -2.2333   19.4097 O   0  0  0  0  0  0  0  0  0  0  0  0
   16.4076   -4.5743   19.2129 O   0  0  0  0  0  0  0  0  0  0  0  0
   14.9509   -2.8056   17.8620 N   0  0  0  0  0  0  0  0  0  0  0  0
   15.0637   -1.4182   17.4517 C   0  0  2  0  0  0  0  0  0  0  0  0
   14.6698   -0.5435   18.6054 C   0  0  0  0  0  0  0  0  0  0  0  0
   14.1621   -1.1522   16.2394 C   0  0  0  0  0  0  0  0  0  0  0  0
  1  2  1  6
  2  3  2  0
  2  4  1  0
  4  5  1  0
  5  6  2  0
  5  7  1  0
  6 11  1  0
  7  8  2  0
  8  9  1  0
  9 10  1  0
  9 11  2  0
 11 12  1  0
 12 13  2  0
 12 14  2  0
 12 15  1  6
 16 15  1  1
 17 16  1  6
 18 16  1  6
M  END
$$$$
