
     RDKit          3D

 18 18  0  0  0  0  0  0  0  0999 V2000
   18.1875   -6.8409   13.0358 C   0  0  0  0  0  0  0  0  0  0  0  0
   17.9771   -5.7389   14.0458 C   0  0  0  0  0  0  0  0  0  0  0  0
   16.9271   -5.7994   14.7115 O   0  0  0  0  0  0  0  0  0  0  0  0
   18.9081   -4.7106   14.2226 N   0  0  0  0  0  0  0  0  0  0  0  0
   18.9760   -3.8263   15.3323 C   0  0  0  0  0  0  0  0  0  0  0  0
   17.7857   -3.5526   16.0202 C   0  0  0  0  0  0  0  0  0  0  0  0
   20.1334   -3.2417   15.7495 C   0  0  0  0  0  0  0  0  0  0  0  0
   20.0849   -2.3879   16.8509 C   0  0  0  0  0  0  0  0  0  0  0  0
   18.8846   -2.1382   17.5089 C   0  0  0  0  0  0  0  0  0  0  0  0
   18.9377   -0.9758   18.8133 Cl  0  0  0  0  0  0  0  0  0  0  0  0
   17.7091   -2.7086   17.1195 C   0  0  0  0  0  0  0  0  0  0  0  0
   16.1879   -2.5108   17.9509 S   0  0  2  0  0  6  0  0  0  0  0  0
   15.0652   -2.6810   16.9101 O   0  0  0  0  0  0  0  0  0  0  0  0
   16.0629   -1.0518   18.3570 O   0  0  0  0  0  0  0  0  0  0  0  0
   15.8511   -3.4785   19.2411 N   0  0  0  0  0  0  0  0  0  0  0  0
   15.5808   -4.8324   19.2189 C   0  0  2  0  0  0  0  0  0  0  0  0
   15.0891   -5.2206   20.6412 C   0  0  0  0  0  0  0  0  0  0  0  0
   16.8242   -5.7127   19.0416 C   0  0  0  0  0  0  0  0  0  0  0  0
  1  2  1  0
  2  3  2  0
  2  4  1  0
  4  5  1  0
  5  6  2  0
  5  7  1  0
  6 11  1  0
  7  8  2  0
  8  9  1  0
  9 10  1  0
  9 11  2  0
 11 12  1  0
 12 13  2  0
 12 14  2  0
 12 15  1  1
 15 16  1  0
 16 17  1  1
 16 18  1  0
M  END
$$$$
