
     RDKit          3D

 18 18  0  0  0  0  0  0  0  0999 V2000
   18.3000   -7.7866   13.6059 C   0  0  0  0  0  0  0  0  0  0  0  0
   17.9838   -6.4564   14.1720 C   0  0  0  0  0  0  0  0  0  0  0  0
   17.0178   -6.3355   14.9803 O   0  0  0  0  0  0  0  0  0  0  0  0
   18.7273   -5.2848   13.8454 N   0  0  0  0  0  0  0  0  0  0  0  0
   18.5443   -4.1120   14.6336 C   0  0  0  0  0  0  0  0  0  0  0  0
   17.3743   -3.9498   15.3846 C   0  0  0  0  0  0  0  0  0  0  0  0
   19.5431   -3.1605   14.6296 C   0  0  0  0  0  0  0  0  0  0  0  0
   19.3994   -2.0120   15.3815 C   0  0  0  0  0  0  0  0  0  0  0  0
   18.2309   -1.8525   16.1301 C   0  0  0  0  0  0  0  0  0  0  0  0
   18.0091   -0.4249   17.0888 Cl  0  0  0  0  0  0  0  0  0  0  0  0
   17.2361   -2.8069   16.1301 C   0  0  0  0  0  0  0  0  0  0  0  0
   15.8025   -2.5537   17.0822 S   0  0  2  0  0  6  0  0  0  0  0  0
   14.9205   -3.7776   16.8725 O   0  0  0  0  0  0  0  0  0  0  0  0
   15.0183   -1.3783   16.6325 O   0  0  0  0  0  0  0  0  0  0  0  0
   16.1560   -2.4910   18.7638 N   0  0  0  0  0  0  0  0  0  0  0  0
   16.8860   -3.6965   19.1101 C   0  0  2  0  0  0  0  0  0  0  0  0
   15.9682   -4.6127   19.8649 C   0  0  0  0  0  0  0  0  0  0  0  0
   18.1145   -3.3433   19.9584 C   0  0  0  0  0  0  0  0  0  0  0  0
  1  2  1  6
  2  3  2  0
  2  4  1  0
  4  5  1  0
  5  6  2  0
  5  7  1  0
  6 11  1  0
  7  8  2  0
  8  9  1  0
  9 10  1  0
  9 11  2  0
 11 12  1  0
 12 13  2  0
 12 14  2  0
 12 15  1  1
 16 15  1  1
 17 16  1  6
 18 16  1  6
M  END
$$$$
