
     RDKit          3D

 18 18  0  0  0  0  0  0  0  0999 V2000
   18.2042   -8.0211   13.5121 C   0  0  0  0  0  0  0  0  0  0  0  0
   18.0326   -6.8160   14.4048 C   0  0  0  0  0  0  0  0  0  0  0  0
   18.9992   -6.0339   14.4610 O   0  0  0  0  0  0  0  0  0  0  0  0
   16.8558   -6.5922   15.1263 N   0  0  0  0  0  0  0  0  0  0  0  0
   16.7050   -5.7043   16.2250 C   0  0  0  0  0  0  0  0  0  0  0  0
   17.5977   -4.6277   16.3190 C   0  0  0  0  0  0  0  0  0  0  0  0
   15.7427   -5.8539   17.1773 C   0  0  0  0  0  0  0  0  0  0  0  0
   15.6864   -4.9235   18.2143 C   0  0  0  0  0  0  0  0  0  0  0  0
   16.5903   -3.8675   18.2764 C   0  0  0  0  0  0  0  0  0  0  0  0
   16.4777   -2.8261   19.6758 Cl  0  0  0  0  0  0  0  0  0  0  0  0
   17.5635   -3.6868   17.3389 C   0  0  0  0  0  0  0  0  0  0  0  0
   18.6702   -2.3383   17.3059 S   0  0  2  0  0  6  0  0  0  0  0  0
   19.6610   -2.5797   16.1514 O   0  0  0  0  0  0  0  0  0  0  0  0
   19.5517   -2.4261   18.5406 O   0  0  0  0  0  0  0  0  0  0  0  0
   18.0657   -0.8124   17.1609 N   0  0  0  0  0  0  0  0  0  0  0  0
   18.0927   -0.0088   16.0384 C   0  0  2  0  0  0  0  0  0  0  0  0
   18.1624    1.4623   16.5347 C   0  0  0  0  0  0  0  0  0  0  0  0
   16.7910   -0.0282   15.2275 C   0  0  0  0  0  0  0  0  0  0  0  0
  1  2  1  0
  2  3  2  0
  2  4  1  0
  4  5  1  0
  5  6  2  0
  5  7  1  0
  6 11  1  0
  7  8  2  0
  8  9  1  0
  9 10  1  0
  9 11  2  0
 11 12  1  0
 12 13  2  0
 12 14  2  0
 12 15  1  6
 15 16  1  0
 16 17  1  1
 16 18  1  0
M  END
$$$$
