
     RDKit          3D

 18 18  0  0  0  0  0  0  0  0999 V2000
   18.1879   -7.7999   13.6045 C   0  0  0  0  0  0  0  0  0  0  0  0
   17.7455   -6.4658   14.1551 C   0  0  0  0  0  0  0  0  0  0  0  0
   16.5403   -6.3674   14.4498 O   0  0  0  0  0  0  0  0  0  0  0  0
   18.6386   -5.4030   14.3238 N   0  0  0  0  0  0  0  0  0  0  0  0
   18.4615   -4.2922   15.1915 C   0  0  0  0  0  0  0  0  0  0  0  0
   17.6760   -4.4800   16.3372 C   0  0  0  0  0  0  0  0  0  0  0  0
   19.0153   -3.0696   14.9593 C   0  0  0  0  0  0  0  0  0  0  0  0
   18.7747   -2.0480   15.8774 C   0  0  0  0  0  0  0  0  0  0  0  0
   17.9885   -2.2704   17.0037 C   0  0  0  0  0  0  0  0  0  0  0  0
   17.6820   -0.8862   18.0262 Cl  0  0  0  0  0  0  0  0  0  0  0  0
   17.4217   -3.4819   17.2677 C   0  0  0  0  0  0  0  0  0  0  0  0
   16.5015   -3.8544   18.7025 S   0  0  2  0  0  6  0  0  0  0  0  0
   16.8955   -2.8313   19.7846 O   0  0  0  0  0  0  0  0  0  0  0  0
   17.0215   -5.1673   19.2641 O   0  0  0  0  0  0  0  0  0  0  0  0
   14.8574   -3.9022   18.6070 N   0  0  0  0  0  0  0  0  0  0  0  0
   14.0349   -3.0104   17.9477 C   0  0  2  0  0  0  0  0  0  0  0  0
   12.8915   -2.6350   18.9310 C   0  0  0  0  0  0  0  0  0  0  0  0
   13.2735   -3.6226   16.7654 C   0  0  0  0  0  0  0  0  0  0  0  0
  1  2  1  0
  2  3  2  0
  2  4  1  0
  4  5  1  0
  5  6  2  0
  5  7  1  0
  6 11  1  0
  7  8  2  0
  8  9  1  0
  9 10  1  0
  9 11  2  0
 11 12  1  0
 12 13  2  0
 12 14  2  0
 12 15  1  6
 15 16  1  0
 16 17  1  1
 16 18  1  0
M  END
$$$$
