
     RDKit          3D

 18 18  0  0  0  0  0  0  0  0999 V2000
   18.7607   -7.2951   13.1472 C   0  0  0  0  0  0  0  0  0  0  0  0
   18.0591   -6.1833   13.8264 C   0  0  0  0  0  0  0  0  0  0  0  0
   17.4037   -6.4122   14.8844 O   0  0  0  0  0  0  0  0  0  0  0  0
   18.0863   -4.8441   13.3386 N   0  0  0  0  0  0  0  0  0  0  0  0
   18.0583   -3.7703   14.2747 C   0  0  0  0  0  0  0  0  0  0  0  0
   17.9793   -4.0399   15.6459 C   0  0  0  0  0  0  0  0  0  0  0  0
   18.1109   -2.4799   13.7896 C   0  0  0  0  0  0  0  0  0  0  0  0
   18.0859   -1.4154   14.6678 C   0  0  0  0  0  0  0  0  0  0  0  0
   18.0070   -1.6871   16.0357 C   0  0  0  0  0  0  0  0  0  0  0  0
   17.9730   -0.3797   17.1739 Cl  0  0  0  0  0  0  0  0  0  0  0  0
   17.9547   -2.9787   16.5146 C   0  0  0  0  0  0  0  0  0  0  0  0
   17.8572   -3.2562   18.2290 S   0  0  2  0  0  6  0  0  0  0  0  0
   19.0878   -2.6034   18.8450 O   0  0  0  0  0  0  0  0  0  0  0  0
   17.9156   -4.6960   18.5789 O   0  0  0  0  0  0  0  0  0  0  0  0
   16.4923   -2.4758   18.9252 N   0  0  0  0  0  0  0  0  0  0  0  0
   15.3426   -3.3417   18.7405 C   0  0  2  0  0  0  0  0  0  0  0  0
   14.7206   -3.0355   17.4098 C   0  0  0  0  0  0  0  0  0  0  0  0
   14.3310   -3.1233   19.8729 C   0  0  0  0  0  0  0  0  0  0  0  0
  1  2  1  6
  2  3  2  0
  2  4  1  0
  4  5  1  0
  5  6  2  0
  5  7  1  0
  6 11  1  0
  7  8  2  0
  8  9  1  0
  9 10  1  0
  9 11  2  0
 11 12  1  0
 12 13  2  0
 12 14  2  0
 12 15  1  1
 16 15  1  1
 17 16  1  6
 18 16  1  6
M  END
$$$$
