
     RDKit          3D

 18 18  0  0  0  0  0  0  0  0999 V2000
   18.0575   -7.0140   13.3448 C   0  0  0  0  0  0  0  0  0  0  0  0
   17.8561   -5.8099   14.1810 C   0  0  0  0  0  0  0  0  0  0  0  0
   16.7782   -5.6734   14.8297 O   0  0  0  0  0  0  0  0  0  0  0  0
   18.8340   -4.7787   14.2932 N   0  0  0  0  0  0  0  0  0  0  0  0
   18.6923   -3.8055   15.3242 C   0  0  0  0  0  0  0  0  0  0  0  0
   17.4523   -3.6225   15.9473 C   0  0  0  0  0  0  0  0  0  0  0  0
   19.8003   -3.0644   15.6791 C   0  0  0  0  0  0  0  0  0  0  0  0
   19.6994   -2.1129   16.6738 C   0  0  0  0  0  0  0  0  0  0  0  0
   18.4609   -1.9322   17.2940 C   0  0  0  0  0  0  0  0  0  0  0  0
   18.2895   -0.7476   18.5485 Cl  0  0  0  0  0  0  0  0  0  0  0  0
   17.3570   -2.6758   16.9351 C   0  0  0  0  0  0  0  0  0  0  0  0
   15.8401   -2.4068   17.7430 S   0  0  2  0  0  6  0  0  0  0  0  0
   14.7993   -3.2323   16.9980 O   0  0  0  0  0  0  0  0  0  0  0  0
   15.3976   -0.9933   17.6713 O   0  0  0  0  0  0  0  0  0  0  0  0
   15.8639   -2.9964   19.3581 N   0  0  0  0  0  0  0  0  0  0  0  0
   16.2159   -4.4035   19.3127 C   0  0  2  0  0  0  0  0  0  0  0  0
   14.9683   -5.2161   19.4988 C   0  0  0  0  0  0  0  0  0  0  0  0
   17.2395   -4.7263   20.4088 C   0  0  0  0  0  0  0  0  0  0  0  0
  1  2  1  6
  2  3  2  0
  2  4  1  0
  4  5  1  0
  5  6  2  0
  5  7  1  0
  6 11  1  0
  7  8  2  0
  8  9  1  0
  9 10  1  0
  9 11  2  0
 11 12  1  0
 12 13  2  0
 12 14  2  0
 12 15  1  1
 16 15  1  1
 17 16  1  6
 18 16  1  6
M  END
$$$$
