
     RDKit          3D

 18 18  0  0  0  0  0  0  0  0999 V2000
   18.4601   -7.2443   13.0351 C   0  0  0  0  0  0  0  0  0  0  0  0
   18.2344   -6.0884   13.9311 C   0  0  0  0  0  0  0  0  0  0  0  0
   17.3901   -6.1811   14.8691 O   0  0  0  0  0  0  0  0  0  0  0  0
   18.9337   -4.8547   13.7864 N   0  0  0  0  0  0  0  0  0  0  0  0
   18.8314   -3.8805   14.8210 C   0  0  0  0  0  0  0  0  0  0  0  0
   17.8197   -3.9855   15.7827 C   0  0  0  0  0  0  0  0  0  0  0  0
   19.7480   -2.8497   14.8401 C   0  0  0  0  0  0  0  0  0  0  0  0
   19.6787   -1.8883   15.8279 C   0  0  0  0  0  0  0  0  0  0  0  0
   18.6682   -1.9952   16.7864 C   0  0  0  0  0  0  0  0  0  0  0  0
   18.5444   -0.8091   18.0450 Cl  0  0  0  0  0  0  0  0  0  0  0  0
   17.7549   -3.0276   16.7622 C   0  0  0  0  0  0  0  0  0  0  0  0
   16.5179   -3.1093   17.9825 S   0  0  2  0  0  6  0  0  0  0  0  0
   15.4083   -3.9864   17.4176 O   0  0  0  0  0  0  0  0  0  0  0  0
   15.9132   -1.7867   18.2724 O   0  0  0  0  0  0  0  0  0  0  0  0
   17.0783   -3.8911   19.4079 N   0  0  0  0  0  0  0  0  0  0  0  0
   15.9282   -4.4641   20.0822 C   0  0  2  0  0  0  0  0  0  0  0  0
   15.3325   -5.5214   19.1998 C   0  0  0  0  0  0  0  0  0  0  0  0
   14.8966   -3.3701   20.3865 C   0  0  0  0  0  0  0  0  0  0  0  0
  1  2  1  6
  2  3  2  0
  2  4  1  0
  4  5  1  0
  5  6  2  0
  5  7  1  0
  6 11  1  0
  7  8  2  0
  8  9  1  0
  9 10  1  0
  9 11  2  0
 11 12  1  0
 12 13  2  0
 12 14  2  0
 12 15  1  1
 16 15  1  6
 17 16  1  6
 18 16  1  6
M  END
$$$$
