
     RDKit          3D

 18 18  0  0  0  0  0  0  0  0999 V2000
   17.6697   -7.7063   13.1495 C   0  0  0  0  0  0  0  0  0  0  0  0
   17.7493   -6.4860   14.0346 C   0  0  0  0  0  0  0  0  0  0  0  0
   18.2281   -6.6630   15.1697 O   0  0  0  0  0  0  0  0  0  0  0  0
   17.3105   -5.2303   13.6033 N   0  0  0  0  0  0  0  0  0  0  0  0
   17.4246   -4.0118   14.3248 C   0  0  0  0  0  0  0  0  0  0  0  0
   17.7886   -4.0874   15.6763 C   0  0  0  0  0  0  0  0  0  0  0  0
   17.1982   -2.7907   13.7655 C   0  0  0  0  0  0  0  0  0  0  0  0
   17.3376   -1.6585   14.5673 C   0  0  0  0  0  0  0  0  0  0  0  0
   17.6992   -1.7715   15.9062 C   0  0  0  0  0  0  0  0  0  0  0  0
   17.7464   -0.2877   16.8290 Cl  0  0  0  0  0  0  0  0  0  0  0  0
   17.9358   -2.9774   16.4966 C   0  0  0  0  0  0  0  0  0  0  0  0
   18.4784   -3.1864   18.1416 S   0  0  2  0  0  6  0  0  0  0  0  0
   18.5506   -4.7002   18.4173 O   0  0  0  0  0  0  0  0  0  0  0  0
   17.3643   -2.7210   19.0645 O   0  0  0  0  0  0  0  0  0  0  0  0
   19.9055   -2.5055   18.6046 N   0  0  0  0  0  0  0  0  0  0  0  0
   20.2102   -1.1595   18.6504 C   0  0  2  0  0  0  0  0  0  0  0  0
   21.7525   -1.0379   18.5031 C   0  0  0  0  0  0  0  0  0  0  0  0
   19.9509   -0.5086   20.0148 C   0  0  0  0  0  0  0  0  0  0  0  0
  1  2  1  0
  2  3  2  0
  2  4  1  0
  4  5  1  0
  5  6  2  0
  5  7  1  0
  6 11  1  0
  7  8  2  0
  8  9  1  0
  9 10  1  0
  9 11  2  0
 11 12  1  0
 12 13  2  0
 12 14  2  0
 12 15  1  6
 15 16  1  0
 16 17  1  1
 16 18  1  0
M  END
$$$$
