
     RDKit          3D

 18 18  0  0  0  0  0  0  0  0999 V2000
   18.1987   -7.6859   13.5897 C   0  0  0  0  0  0  0  0  0  0  0  0
   17.8178   -6.3409   14.1593 C   0  0  0  0  0  0  0  0  0  0  0  0
   16.6340   -6.2154   14.5229 O   0  0  0  0  0  0  0  0  0  0  0  0
   18.7417   -5.2972   14.2716 N   0  0  0  0  0  0  0  0  0  0  0  0
   18.6164   -4.1565   15.1090 C   0  0  0  0  0  0  0  0  0  0  0  0
   17.9737   -4.3229   16.3436 C   0  0  0  0  0  0  0  0  0  0  0  0
   19.0881   -2.9254   14.7666 C   0  0  0  0  0  0  0  0  0  0  0  0
   18.9094   -1.8740   15.6649 C   0  0  0  0  0  0  0  0  0  0  0  0
   18.2652   -2.0757   16.8816 C   0  0  0  0  0  0  0  0  0  0  0  0
   18.0173   -0.6601   17.8766 Cl  0  0  0  0  0  0  0  0  0  0  0  0
   17.7836   -3.2948   17.2566 C   0  0  0  0  0  0  0  0  0  0  0  0
   17.0476   -3.6378   18.8009 S   0  0  2  0  0  6  0  0  0  0  0  0
   17.9369   -3.0066   19.8888 O   0  0  0  0  0  0  0  0  0  0  0  0
   17.1861   -5.1280   19.0645 O   0  0  0  0  0  0  0  0  0  0  0  0
   15.4907   -3.1680   19.0656 N   0  0  0  0  0  0  0  0  0  0  0  0
   14.3587   -3.6412   18.4322 C   0  0  2  0  0  0  0  0  0  0  0  0
   13.6472   -2.4140   17.7974 C   0  0  0  0  0  0  0  0  0  0  0  0
   13.2928   -4.1892   19.3893 C   0  0  0  0  0  0  0  0  0  0  0  0
  1  2  1  0
  2  3  2  0
  2  4  1  0
  4  5  1  0
  5  6  2  0
  5  7  1  0
  6 11  1  0
  7  8  2  0
  8  9  1  0
  9 10  1  0
  9 11  2  0
 11 12  1  0
 12 13  2  0
 12 14  2  0
 12 15  1  6
 15 16  1  0
 16 17  1  1
 16 18  1  0
M  END
$$$$
