
     RDKit          3D

 18 18  0  0  0  0  0  0  0  0999 V2000
   18.2617   -7.6917   13.6823 C   0  0  0  0  0  0  0  0  0  0  0  0
   17.8865   -6.4372   14.3718 C   0  0  0  0  0  0  0  0  0  0  0  0
   17.7938   -6.4220   15.6337 O   0  0  0  0  0  0  0  0  0  0  0  0
   17.6199   -5.2246   13.6715 N   0  0  0  0  0  0  0  0  0  0  0  0
   17.5568   -4.0055   14.4063 C   0  0  0  0  0  0  0  0  0  0  0  0
   17.5922   -4.0297   15.8054 C   0  0  0  0  0  0  0  0  0  0  0  0
   17.4613   -2.8230   13.7022 C   0  0  0  0  0  0  0  0  0  0  0  0
   17.3982   -1.6233   14.3815 C   0  0  0  0  0  0  0  0  0  0  0  0
   17.4337   -1.6501   15.7776 C   0  0  0  0  0  0  0  0  0  0  0  0
   17.3568   -0.1661   16.6709 Cl  0  0  0  0  0  0  0  0  0  0  0  0
   17.5292   -2.8349   16.4759 C   0  0  0  0  0  0  0  0  0  0  0  0
   17.5694   -2.8066   18.2148 S   0  0  2  0  0  6  0  0  0  0  0  0
   16.7641   -4.0100   18.6871 O   0  0  0  0  0  0  0  0  0  0  0  0
   16.9143   -1.6033   18.7818 O   0  0  0  0  0  0  0  0  0  0  0  0
   19.1647   -3.0208   18.8197 N   0  0  0  0  0  0  0  0  0  0  0  0
   19.7575   -1.7067   18.9860 C   0  0  2  0  0  0  0  0  0  0  0  0
   20.5190   -1.3631   17.7396 C   0  0  0  0  0  0  0  0  0  0  0  0
   20.6868   -1.6983   20.2066 C   0  0  0  0  0  0  0  0  0  0  0  0
  1  2  1  6
  2  3  2  0
  2  4  1  0
  4  5  1  0
  5  6  2  0
  5  7  1  0
  6 11  1  0
  7  8  2  0
  8  9  1  0
  9 10  1  0
  9 11  2  0
 11 12  1  0
 12 13  2  0
 12 14  2  0
 12 15  1  6
 16 15  1  6
 17 16  1  6
 18 16  1  6
M  END
$$$$
