
     RDKit          3D

 18 18  0  0  0  0  0  0  0  0999 V2000
   18.4662   -7.7269   13.3999 C   0  0  0  0  0  0  0  0  0  0  0  0
   17.9863   -6.4488   13.9708 C   0  0  0  0  0  0  0  0  0  0  0  0
   16.8128   -6.3755   14.4384 O   0  0  0  0  0  0  0  0  0  0  0  0
   18.7956   -5.2764   14.0204 N   0  0  0  0  0  0  0  0  0  0  0  0
   18.5297   -4.2989   15.0224 C   0  0  0  0  0  0  0  0  0  0  0  0
   17.7370   -4.6286   16.1279 C   0  0  0  0  0  0  0  0  0  0  0  0
   19.0717   -3.0399   14.8663 C   0  0  0  0  0  0  0  0  0  0  0  0
   18.8348   -2.0684   15.8176 C   0  0  0  0  0  0  0  0  0  0  0  0
   18.0434   -2.3998   16.9198 C   0  0  0  0  0  0  0  0  0  0  0  0
   17.7204   -1.2096   18.1386 Cl  0  0  0  0  0  0  0  0  0  0  0  0
   17.5045   -3.6597   17.0705 C   0  0  0  0  0  0  0  0  0  0  0  0
   16.5264   -4.0148   18.4645 S   0  0  2  0  0  6  0  0  0  0  0  0
   16.7702   -2.8912   19.4634 O   0  0  0  0  0  0  0  0  0  0  0  0
   16.9231   -5.2770   19.1340 O   0  0  0  0  0  0  0  0  0  0  0  0
   14.8480   -3.9794   18.0922 N   0  0  0  0  0  0  0  0  0  0  0  0
   14.3322   -2.6818   18.4870 C   0  0  2  0  0  0  0  0  0  0  0  0
   13.3605   -2.8747   19.6140 C   0  0  0  0  0  0  0  0  0  0  0  0
   13.6481   -2.0015   17.2943 C   0  0  0  0  0  0  0  0  0  0  0  0
  1  2  1  6
  2  3  2  0
  2  4  1  0
  4  5  1  0
  5  6  2  0
  5  7  1  0
  6 11  1  0
  7  8  2  0
  8  9  1  0
  9 10  1  0
  9 11  2  0
 11 12  1  0
 12 13  2  0
 12 14  2  0
 12 15  1  6
 16 15  1  6
 17 16  1  6
 18 16  1  6
M  END
$$$$
