
     RDKit          3D

 18 18  0  0  0  0  0  0  0  0999 V2000
   18.1501   -7.8182   13.7025 C   0  0  0  0  0  0  0  0  0  0  0  0
   17.8500   -6.4440   14.1622 C   0  0  0  0  0  0  0  0  0  0  0  0
   16.7793   -6.2181   14.7976 O   0  0  0  0  0  0  0  0  0  0  0  0
   18.7234   -5.3438   13.9199 N   0  0  0  0  0  0  0  0  0  0  0  0
   18.5366   -4.1411   14.6607 C   0  0  0  0  0  0  0  0  0  0  0  0
   17.4658   -4.0301   15.5552 C   0  0  0  0  0  0  0  0  0  0  0  0
   19.4325   -3.1100   14.4681 C   0  0  0  0  0  0  0  0  0  0  0  0
   19.2821   -1.9306   15.1690 C   0  0  0  0  0  0  0  0  0  0  0  0
   18.2126   -1.8222   16.0610 C   0  0  0  0  0  0  0  0  0  0  0  0
   17.9862   -0.3583   16.9621 Cl  0  0  0  0  0  0  0  0  0  0  0  0
   17.3205   -2.8561   16.2495 C   0  0  0  0  0  0  0  0  0  0  0  0
   16.0074   -2.6638   17.3741 S   0  0  2  0  0  6  0  0  0  0  0  0
   15.1992   -3.9537   17.3222 O   0  0  0  0  0  0  0  0  0  0  0  0
   15.0864   -1.5654   16.9945 O   0  0  0  0  0  0  0  0  0  0  0  0
   16.5701   -2.5069   18.9913 N   0  0  0  0  0  0  0  0  0  0  0  0
   17.4581   -3.6218   19.2634 C   0  0  2  0  0  0  0  0  0  0  0  0
   16.7461   -4.5951   20.1563 C   0  0  0  0  0  0  0  0  0  0  0  0
   18.7456   -3.1197   19.9296 C   0  0  0  0  0  0  0  0  0  0  0  0
  1  2  1  6
  2  3  2  0
  2  4  1  0
  4  5  1  0
  5  6  2  0
  5  7  1  0
  6 11  1  0
  7  8  2  0
  8  9  1  0
  9 10  1  0
  9 11  2  0
 11 12  1  0
 12 13  2  0
 12 14  2  0
 12 15  1  1
 16 15  1  1
 17 16  1  6
 18 16  1  6
M  END
$$$$
