
     RDKit          3D

 18 18  0  0  0  0  0  0  0  0999 V2000
   17.8347   -7.8269   13.9411 C   0  0  0  0  0  0  0  0  0  0  0  0
   17.6860   -6.3892   14.3764 C   0  0  0  0  0  0  0  0  0  0  0  0
   16.5204   -5.9834   14.5373 O   0  0  0  0  0  0  0  0  0  0  0  0
   18.7939   -5.5622   14.5865 N   0  0  0  0  0  0  0  0  0  0  0  0
   18.8072   -4.3582   15.3404 C   0  0  0  0  0  0  0  0  0  0  0  0
   17.8529   -4.2166   16.3574 C   0  0  0  0  0  0  0  0  0  0  0  0
   19.6961   -3.3502   15.1191 C   0  0  0  0  0  0  0  0  0  0  0  0
   19.6180   -2.2104   15.9186 C   0  0  0  0  0  0  0  0  0  0  0  0
   18.6564   -2.1038   16.9185 C   0  0  0  0  0  0  0  0  0  0  0  0
   18.5990   -0.5877   17.7866 Cl  0  0  0  0  0  0  0  0  0  0  0  0
   17.7537   -3.0945   17.1684 C   0  0  0  0  0  0  0  0  0  0  0  0
   16.5821   -3.0653   18.4610 S   0  0  2  0  0  6  0  0  0  0  0  0
   17.2086   -2.2929   19.6373 O   0  0  0  0  0  0  0  0  0  0  0  0
   16.4521   -4.4777   19.0066 O   0  0  0  0  0  0  0  0  0  0  0  0
   15.0854   -2.4417   18.1685 N   0  0  0  0  0  0  0  0  0  0  0  0
   14.7805   -1.3267   17.4133 C   0  0  2  0  0  0  0  0  0  0  0  0
   13.7180   -0.5171   18.2076 C   0  0  0  0  0  0  0  0  0  0  0  0
   14.0503   -1.6433   16.1022 C   0  0  0  0  0  0  0  0  0  0  0  0
  1  2  1  0
  2  3  2  0
  2  4  1  0
  4  5  1  0
  5  6  2  0
  5  7  1  0
  6 11  1  0
  7  8  2  0
  8  9  1  0
  9 10  1  0
  9 11  2  0
 11 12  1  0
 12 13  2  0
 12 14  2  0
 12 15  1  6
 15 16  1  0
 16 17  1  1
 16 18  1  0
M  END
$$$$
