
     RDKit          3D

 18 18  0  0  0  0  0  0  0  0999 V2000
   18.2478   -7.5890   13.3855 C   0  0  0  0  0  0  0  0  0  0  0  0
   18.0253   -6.3050   14.1474 C   0  0  0  0  0  0  0  0  0  0  0  0
   17.2431   -6.3700   15.1135 O   0  0  0  0  0  0  0  0  0  0  0  0
   18.6613   -5.1126   13.7882 N   0  0  0  0  0  0  0  0  0  0  0  0
   18.6132   -3.8895   14.5092 C   0  0  0  0  0  0  0  0  0  0  0  0
   17.8071   -3.8408   15.6550 C   0  0  0  0  0  0  0  0  0  0  0  0
   19.3080   -2.7782   14.1385 C   0  0  0  0  0  0  0  0  0  0  0  0
   19.1862   -1.6294   14.9194 C   0  0  0  0  0  0  0  0  0  0  0  0
   18.3754   -1.6170   16.0500 C   0  0  0  0  0  0  0  0  0  0  0  0
   18.2305   -0.0902   16.8887 Cl  0  0  0  0  0  0  0  0  0  0  0  0
   17.6689   -2.7119   16.4507 C   0  0  0  0  0  0  0  0  0  0  0  0
   16.7062   -2.7935   17.9036 S   0  0  2  0  0  6  0  0  0  0  0  0
   15.9694   -4.1462   17.8964 O   0  0  0  0  0  0  0  0  0  0  0  0
   15.5765   -1.7853   17.7736 O   0  0  0  0  0  0  0  0  0  0  0  0
   17.4474   -2.6135   19.3641 N   0  0  0  0  0  0  0  0  0  0  0  0
   18.5288   -3.3261   19.8429 C   0  0  2  0  0  0  0  0  0  0  0  0
   18.3403   -3.4593   21.3798 C   0  0  0  0  0  0  0  0  0  0  0  0
   19.8644   -2.5803   19.7318 C   0  0  0  0  0  0  0  0  0  0  0  0
  1  2  1  0
  2  3  2  0
  2  4  1  0
  4  5  1  0
  5  6  2  0
  5  7  1  0
  6 11  1  0
  7  8  2  0
  8  9  1  0
  9 10  1  0
  9 11  2  0
 11 12  1  0
 12 13  2  0
 12 14  2  0
 12 15  1  1
 15 16  1  0
 16 17  1  1
 16 18  1  0
M  END
$$$$
