
     RDKit          3D

 18 18  0  0  0  0  0  0  0  0999 V2000
   17.7579   -7.3755   13.8680 C   0  0  0  0  0  0  0  0  0  0  0  0
   17.7109   -5.9687   14.3245 C   0  0  0  0  0  0  0  0  0  0  0  0
   16.6052   -5.4625   14.6746 O   0  0  0  0  0  0  0  0  0  0  0  0
   18.8703   -5.1420   14.3900 N   0  0  0  0  0  0  0  0  0  0  0  0
   18.9166   -4.0975   15.3581 C   0  0  0  0  0  0  0  0  0  0  0  0
   17.9027   -3.9873   16.3168 C   0  0  0  0  0  0  0  0  0  0  0  0
   19.9767   -3.2157   15.3168 C   0  0  0  0  0  0  0  0  0  0  0  0
   20.0536   -2.1918   16.2392 C   0  0  0  0  0  0  0  0  0  0  0  0
   19.0406   -2.0840   17.1949 C   0  0  0  0  0  0  0  0  0  0  0  0
   19.0978   -0.8127   18.3724 Cl  0  0  0  0  0  0  0  0  0  0  0  0
   17.9836   -2.9682   17.2312 C   0  0  0  0  0  0  0  0  0  0  0  0
   16.7510   -2.7846   18.4449 S   0  0  2  0  0  6  0  0  0  0  0  0
   17.4594   -2.8258   19.7926 O   0  0  0  0  0  0  0  0  0  0  0  0
   15.7739   -3.8999   18.4400 O   0  0  0  0  0  0  0  0  0  0  0  0
   15.9819   -1.2498   18.3461 N   0  0  0  0  0  0  0  0  0  0  0  0
   15.2955   -1.1776   17.0696 C   0  0  2  0  0  0  0  0  0  0  0  0
   16.0739   -0.2761   16.1570 C   0  0  0  0  0  0  0  0  0  0  0  0
   13.8700   -0.6462   17.2671 C   0  0  0  0  0  0  0  0  0  0  0  0
  1  2  1  6
  2  3  2  0
  2  4  1  0
  4  5  1  0
  5  6  2  0
  5  7  1  0
  6 11  1  0
  7  8  2  0
  8  9  1  0
  9 10  1  0
  9 11  2  0
 11 12  1  0
 12 13  2  0
 12 14  2  0
 12 15  1  6
 16 15  1  1
 17 16  1  6
 18 16  1  6
M  END
$$$$
