
     RDKit          3D

 18 18  0  0  0  0  0  0  0  0999 V2000
   17.9823   -7.8220   13.9903 C   0  0  0  0  0  0  0  0  0  0  0  0
   17.8420   -6.3794   14.4121 C   0  0  0  0  0  0  0  0  0  0  0  0
   16.6798   -5.9721   14.5925 O   0  0  0  0  0  0  0  0  0  0  0  0
   18.9536   -5.5498   14.5895 N   0  0  0  0  0  0  0  0  0  0  0  0
   18.9701   -4.3121   15.2868 C   0  0  0  0  0  0  0  0  0  0  0  0
   18.0383   -4.1341   16.3188 C   0  0  0  0  0  0  0  0  0  0  0  0
   19.8412   -3.3056   14.9979 C   0  0  0  0  0  0  0  0  0  0  0  0
   19.7682   -2.1310   15.7458 C   0  0  0  0  0  0  0  0  0  0  0  0
   18.8291   -1.9888   16.7625 C   0  0  0  0  0  0  0  0  0  0  0  0
   18.7738   -0.4349   17.5611 Cl  0  0  0  0  0  0  0  0  0  0  0  0
   17.9446   -2.9768   17.0794 C   0  0  0  0  0  0  0  0  0  0  0  0
   16.8035   -2.9007   18.3971 S   0  0  2  0  0  6  0  0  0  0  0  0
   17.4046   -1.9833   19.4787 O   0  0  0  0  0  0  0  0  0  0  0  0
   16.7790   -4.2611   19.0740 O   0  0  0  0  0  0  0  0  0  0  0  0
   15.2627   -2.4032   18.0917 N   0  0  0  0  0  0  0  0  0  0  0  0
   14.8602   -1.1535   17.6641 C   0  0  2  0  0  0  0  0  0  0  0  0
   13.6803   -0.7193   18.5776 C   0  0  0  0  0  0  0  0  0  0  0  0
   14.2239   -1.1482   16.2685 C   0  0  0  0  0  0  0  0  0  0  0  0
  1  2  1  0
  2  3  2  0
  2  4  1  0
  4  5  1  0
  5  6  2  0
  5  7  1  0
  6 11  1  0
  7  8  2  0
  8  9  1  0
  9 10  1  0
  9 11  2  0
 11 12  1  0
 12 13  2  0
 12 14  2  0
 12 15  1  6
 15 16  1  0
 16 17  1  1
 16 18  1  0
M  END
$$$$
