
     RDKit          3D

 18 18  0  0  0  0  0  0  0  0999 V2000
   17.7930   -8.0604   13.4930 C   0  0  0  0  0  0  0  0  0  0  0  0
   17.7092   -6.6790   14.0170 C   0  0  0  0  0  0  0  0  0  0  0  0
   16.6016   -6.2386   14.4419 O   0  0  0  0  0  0  0  0  0  0  0  0
   18.8347   -5.8057   14.0673 N   0  0  0  0  0  0  0  0  0  0  0  0
   18.7651   -4.6402   14.8839 C   0  0  0  0  0  0  0  0  0  0  0  0
   17.8520   -4.5821   15.9432 C   0  0  0  0  0  0  0  0  0  0  0  0
   19.6141   -3.5911   14.5980 C   0  0  0  0  0  0  0  0  0  0  0  0
   19.5739   -2.4466   15.3683 C   0  0  0  0  0  0  0  0  0  0  0  0
   18.6618   -2.3911   16.4248 C   0  0  0  0  0  0  0  0  0  0  0  0
   18.5778   -0.9724   17.4179 Cl  0  0  0  0  0  0  0  0  0  0  0  0
   17.8158   -3.4427   16.7058 C   0  0  0  0  0  0  0  0  0  0  0  0
   16.7005   -3.3168   18.0347 S   0  0  2  0  0  6  0  0  0  0  0  0
   17.2794   -2.2819   18.9906 O   0  0  0  0  0  0  0  0  0  0  0  0
   16.5756   -4.5822   18.7975 O   0  0  0  0  0  0  0  0  0  0  0  0
   15.1721   -2.7117   17.5300 N   0  0  0  0  0  0  0  0  0  0  0  0
   15.2719   -1.2665   17.4451 C   0  0  2  0  0  0  0  0  0  0  0  0
   14.5635   -0.6669   18.6242 C   0  0  0  0  0  0  0  0  0  0  0  0
   14.6508   -0.7715   16.1326 C   0  0  0  0  0  0  0  0  0  0  0  0
  1  2  1  6
  2  3  2  0
  2  4  1  0
  4  5  1  0
  5  6  2  0
  5  7  1  0
  6 11  1  0
  7  8  2  0
  8  9  1  0
  9 10  1  0
  9 11  2  0
 11 12  1  0
 12 13  2  0
 12 14  2  0
 12 15  1  6
 16 15  1  1
 17 16  1  6
 18 16  1  6
M  END
$$$$
