
     RDKit          3D

 18 18  0  0  0  0  0  0  0  0999 V2000
   17.9892   -7.6571   13.5637 C   0  0  0  0  0  0  0  0  0  0  0  0
   17.8139   -6.3582   14.2506 C   0  0  0  0  0  0  0  0  0  0  0  0
   16.8416   -6.1980   15.0445 O   0  0  0  0  0  0  0  0  0  0  0  0
   18.7022   -5.2600   14.0582 N   0  0  0  0  0  0  0  0  0  0  0  0
   18.6828   -4.1871   14.9955 C   0  0  0  0  0  0  0  0  0  0  0  0
   17.9492   -4.3079   16.1815 C   0  0  0  0  0  0  0  0  0  0  0  0
   19.3997   -3.0468   14.6974 C   0  0  0  0  0  0  0  0  0  0  0  0
   19.4033   -1.9878   15.5826 C   0  0  0  0  0  0  0  0  0  0  0  0
   18.6705   -2.1108   16.7654 C   0  0  0  0  0  0  0  0  0  0  0  0
   18.6475   -0.8047   17.9054 Cl  0  0  0  0  0  0  0  0  0  0  0  0
   17.9560   -3.2529   17.0579 C   0  0  0  0  0  0  0  0  0  0  0  0
   17.0616   -3.3492   18.5468 S   0  0  2  0  0  6  0  0  0  0  0  0
   18.0348   -2.9893   19.6617 O   0  0  0  0  0  0  0  0  0  0  0  0
   16.5717   -4.7195   18.8312 O   0  0  0  0  0  0  0  0  0  0  0  0
   15.7982   -2.1843   18.6088 N   0  0  0  0  0  0  0  0  0  0  0  0
   14.8488   -2.5016   17.5582 C   0  0  2  0  0  0  0  0  0  0  0  0
   14.5427   -1.2472   16.7937 C   0  0  0  0  0  0  0  0  0  0  0  0
   13.5687   -3.0905   18.1649 C   0  0  0  0  0  0  0  0  0  0  0  0
  1  2  1  6
  2  3  2  0
  2  4  1  0
  4  5  1  0
  5  6  2  0
  5  7  1  0
  6 11  1  0
  7  8  2  0
  8  9  1  0
  9 10  1  0
  9 11  2  0
 11 12  1  0
 12 13  2  0
 12 14  2  0
 12 15  1  6
 16 15  1  1
 17 16  1  6
 18 16  1  6
M  END
$$$$
