
     RDKit          3D

 18 18  0  0  0  0  0  0  0  0999 V2000
   18.3663   -7.6969   13.5154 C   0  0  0  0  0  0  0  0  0  0  0  0
   17.8910   -6.3840   14.0890 C   0  0  0  0  0  0  0  0  0  0  0  0
   16.7172   -6.3598   14.5022 O   0  0  0  0  0  0  0  0  0  0  0  0
   18.7218   -5.2610   14.1521 N   0  0  0  0  0  0  0  0  0  0  0  0
   18.6300   -4.2055   15.0986 C   0  0  0  0  0  0  0  0  0  0  0  0
   17.7723   -4.3852   16.1926 C   0  0  0  0  0  0  0  0  0  0  0  0
   19.3309   -3.0428   14.9884 C   0  0  0  0  0  0  0  0  0  0  0  0
   19.1635   -2.0721   15.9753 C   0  0  0  0  0  0  0  0  0  0  0  0
   18.3020   -2.2843   17.0471 C   0  0  0  0  0  0  0  0  0  0  0  0
   18.1054   -0.9546   18.1645 Cl  0  0  0  0  0  0  0  0  0  0  0  0
   17.5879   -3.4369   17.1893 C   0  0  0  0  0  0  0  0  0  0  0  0
   16.5610   -3.8053   18.5510 S   0  0  2  0  0  6  0  0  0  0  0  0
   16.9514   -2.8531   19.6972 O   0  0  0  0  0  0  0  0  0  0  0  0
   16.9633   -5.1701   19.0847 O   0  0  0  0  0  0  0  0  0  0  0  0
   14.9258   -3.7430   18.3581 N   0  0  0  0  0  0  0  0  0  0  0  0
   14.1415   -2.6111   18.2564 C   0  0  2  0  0  0  0  0  0  0  0  0
   12.9586   -2.7877   19.2488 C   0  0  0  0  0  0  0  0  0  0  0  0
   13.4284   -2.4671   16.9062 C   0  0  0  0  0  0  0  0  0  0  0  0
  1  2  1  0
  2  3  2  0
  2  4  1  0
  4  5  1  0
  5  6  2  0
  5  7  1  0
  6 11  1  0
  7  8  2  0
  8  9  1  0
  9 10  1  0
  9 11  2  0
 11 12  1  0
 12 13  2  0
 12 14  2  0
 12 15  1  6
 15 16  1  0
 16 17  1  1
 16 18  1  0
M  END
$$$$
