
     RDKit          3D

 18 18  0  0  0  0  0  0  0  0999 V2000
   17.4068   -7.6988   13.3749 C   0  0  0  0  0  0  0  0  0  0  0  0
   17.9808   -6.4001   13.8874 C   0  0  0  0  0  0  0  0  0  0  0  0
   18.9845   -5.9710   13.2892 O   0  0  0  0  0  0  0  0  0  0  0  0
   17.4171   -5.7194   14.9710 N   0  0  0  0  0  0  0  0  0  0  0  0
   17.8320   -4.4565   15.4722 C   0  0  0  0  0  0  0  0  0  0  0  0
   17.1873   -3.9666   16.6164 C   0  0  0  0  0  0  0  0  0  0  0  0
   18.8162   -3.7126   14.8949 C   0  0  0  0  0  0  0  0  0  0  0  0
   19.1427   -2.4850   15.4700 C   0  0  0  0  0  0  0  0  0  0  0  0
   18.4803   -2.0296   16.6058 C   0  0  0  0  0  0  0  0  0  0  0  0
   18.9130   -0.4340   17.1734 Cl  0  0  0  0  0  0  0  0  0  0  0  0
   17.4930   -2.7497   17.2101 C   0  0  0  0  0  0  0  0  0  0  0  0
   16.6848   -2.2818   18.6839 S   0  0  2  0  0  6  0  0  0  0  0  0
   17.7617   -2.1283   19.7746 O   0  0  0  0  0  0  0  0  0  0  0  0
   15.8706   -3.4699   19.1685 O   0  0  0  0  0  0  0  0  0  0  0  0
   15.7473   -0.9269   18.6853 N   0  0  0  0  0  0  0  0  0  0  0  0
   14.5070   -0.7715   18.0987 C   0  0  2  0  0  0  0  0  0  0  0  0
   14.6624   -1.1529   16.6002 C   0  0  0  0  0  0  0  0  0  0  0  0
   14.0302    0.6845   18.0270 C   0  0  0  0  0  0  0  0  0  0  0  0
  1  2  1  0
  2  3  2  0
  2  4  1  0
  4  5  1  0
  5  6  2  0
  5  7  1  0
  6 11  1  0
  7  8  2  0
  8  9  1  0
  9 10  1  0
  9 11  2  0
 11 12  1  0
 12 13  2  0
 12 14  2  0
 12 15  1  6
 15 16  1  0
 16 17  1  6
 16 18  1  0
M  END
$$$$
