
     RDKit          3D

 18 18  0  0  0  0  0  0  0  0999 V2000
   17.9059   -7.7900   13.6533 C   0  0  0  0  0  0  0  0  0  0  0  0
   17.6960   -6.3456   14.0382 C   0  0  0  0  0  0  0  0  0  0  0  0
   16.5176   -5.9973   14.2362 O   0  0  0  0  0  0  0  0  0  0  0  0
   18.7638   -5.4517   14.1647 N   0  0  0  0  0  0  0  0  0  0  0  0
   18.7777   -4.2730   14.9577 C   0  0  0  0  0  0  0  0  0  0  0  0
   17.9780   -4.2536   16.1089 C   0  0  0  0  0  0  0  0  0  0  0  0
   19.5252   -3.1767   14.6501 C   0  0  0  0  0  0  0  0  0  0  0  0
   19.4620   -2.0722   15.4988 C   0  0  0  0  0  0  0  0  0  0  0  0
   18.6557   -2.0879   16.6327 C   0  0  0  0  0  0  0  0  0  0  0  0
   18.5881   -0.6088   17.5618 Cl  0  0  0  0  0  0  0  0  0  0  0  0
   17.8974   -3.1691   16.9713 C   0  0  0  0  0  0  0  0  0  0  0  0
   16.9358   -3.2904   18.4221 S   0  0  2  0  0  6  0  0  0  0  0  0
   17.7610   -2.6916   19.5768 O   0  0  0  0  0  0  0  0  0  0  0  0
   16.8361   -4.7600   18.7959 O   0  0  0  0  0  0  0  0  0  0  0  0
   15.4367   -2.6070   18.4462 N   0  0  0  0  0  0  0  0  0  0  0  0
   14.7580   -2.0497   17.3807 C   0  0  2  0  0  0  0  0  0  0  0  0
   13.8545   -0.9241   17.9567 C   0  0  0  0  0  0  0  0  0  0  0  0
   13.7419   -2.9944   16.7270 C   0  0  0  0  0  0  0  0  0  0  0  0
  1  2  1  0
  2  3  2  0
  2  4  1  0
  4  5  1  0
  5  6  2  0
  5  7  1  0
  6 11  1  0
  7  8  2  0
  8  9  1  0
  9 10  1  0
  9 11  2  0
 11 12  1  0
 12 13  2  0
 12 14  2  0
 12 15  1  6
 15 16  1  0
 16 17  1  1
 16 18  1  0
M  END
$$$$
