
     RDKit          3D

 18 18  0  0  0  0  0  0  0  0999 V2000
   18.0308   -7.3747   13.8515 C   0  0  0  0  0  0  0  0  0  0  0  0
   17.8446   -6.0246   14.5008 C   0  0  0  0  0  0  0  0  0  0  0  0
   16.6679   -5.6594   14.6771 O   0  0  0  0  0  0  0  0  0  0  0  0
   18.9314   -5.2314   14.8815 N   0  0  0  0  0  0  0  0  0  0  0  0
   18.8744   -4.0754   15.7053 C   0  0  0  0  0  0  0  0  0  0  0  0
   17.9438   -4.0684   16.7535 C   0  0  0  0  0  0  0  0  0  0  0  0
   19.6753   -2.9891   15.5213 C   0  0  0  0  0  0  0  0  0  0  0  0
   19.5336   -1.9068   16.3891 C   0  0  0  0  0  0  0  0  0  0  0  0
   18.5978   -1.9343   17.4184 C   0  0  0  0  0  0  0  0  0  0  0  0
   18.4498   -0.4799   18.3766 Cl  0  0  0  0  0  0  0  0  0  0  0  0
   17.7828   -3.0061   17.6323 C   0  0  0  0  0  0  0  0  0  0  0  0
   16.6528   -3.1441   18.9545 S   0  0  2  0  0  6  0  0  0  0  0  0
   17.3900   -2.7244   20.2403 O   0  0  0  0  0  0  0  0  0  0  0  0
   16.3769   -4.6211   19.1821 O   0  0  0  0  0  0  0  0  0  0  0  0
   15.2296   -2.3174   18.8785 N   0  0  0  0  0  0  0  0  0  0  0  0
   14.2448   -2.4407   17.9184 C   0  0  2  0  0  0  0  0  0  0  0  0
   13.8462   -1.0011   17.4894 C   0  0  0  0  0  0  0  0  0  0  0  0
   12.9241   -3.0102   18.4509 C   0  0  0  0  0  0  0  0  0  0  0  0
  1  2  1  0
  2  3  2  0
  2  4  1  0
  4  5  1  0
  5  6  2  0
  5  7  1  0
  6 11  1  0
  7  8  2  0
  8  9  1  0
  9 10  1  0
  9 11  2  0
 11 12  1  0
 12 13  2  0
 12 14  2  0
 12 15  1  6
 15 16  1  0
 16 17  1  1
 16 18  1  0
M  END
$$$$
