
     RDKit          3D

 18 18  0  0  0  0  0  0  0  0999 V2000
   18.0345   -7.5564   13.3045 C   0  0  0  0  0  0  0  0  0  0  0  0
   18.1958   -6.2582   13.9961 C   0  0  0  0  0  0  0  0  0  0  0  0
   18.6589   -6.2313   15.1734 O   0  0  0  0  0  0  0  0  0  0  0  0
   17.8489   -5.0154   13.3903 N   0  0  0  0  0  0  0  0  0  0  0  0
   17.7952   -3.8456   14.2020 C   0  0  0  0  0  0  0  0  0  0  0  0
   17.4620   -3.9499   15.5575 C   0  0  0  0  0  0  0  0  0  0  0  0
   18.0780   -2.6299   13.6147 C   0  0  0  0  0  0  0  0  0  0  0  0
   18.0355   -1.4762   14.3710 C   0  0  0  0  0  0  0  0  0  0  0  0
   17.7027   -1.5829   15.7235 C   0  0  0  0  0  0  0  0  0  0  0  0
   17.6375   -0.1589   16.7104 Cl  0  0  0  0  0  0  0  0  0  0  0  0
   17.4210   -2.8006   16.3050 C   0  0  0  0  0  0  0  0  0  0  0  0
   17.0127   -2.8722   17.9944 S   0  0  2  0  0  6  0  0  0  0  0  0
   15.9533   -3.9569   18.1392 O   0  0  0  0  0  0  0  0  0  0  0  0
   16.4068   -1.6126   18.4894 O   0  0  0  0  0  0  0  0  0  0  0  0
   18.3508   -3.3676   18.9539 N   0  0  0  0  0  0  0  0  0  0  0  0
   19.2173   -2.2179   19.1361 C   0  0  2  0  0  0  0  0  0  0  0  0
   20.4487   -2.4082   18.3002 C   0  0  0  0  0  0  0  0  0  0  0  0
   19.5877   -2.0666   20.6172 C   0  0  0  0  0  0  0  0  0  0  0  0
  1  2  1  6
  2  3  2  0
  2  4  1  0
  4  5  1  0
  5  6  2  0
  5  7  1  0
  6 11  1  0
  7  8  2  0
  8  9  1  0
  9 10  1  0
  9 11  2  0
 11 12  1  0
 12 13  2  0
 12 14  2  0
 12 15  1  1
 16 15  1  1
 17 16  1  6
 18 16  1  6
M  END
$$$$
