
     RDKit          3D

 36 41  0  0  0  0  0  0  0  0999 V2000
  142.5371  -37.2470  265.6255 C   0  0  0  0  0  0  0  0  0  0  0  0
  142.7362  -36.0248  266.2365 C   0  0  0  0  0  0  0  0  0  0  0  0
  142.2268  -35.4113  267.3132 N   0  0  0  0  0  0  0  0  0  0  0  0
  141.2256  -35.9619  268.1894 C   0  0  0  0  0  0  0  0  0  0  0  0
  142.7969  -34.2088  267.4424 C   0  0  0  0  0  0  0  0  0  0  0  0
  143.7010  -34.0508  266.4118 C   0  0  0  0  0  0  0  0  0  0  0  0
  143.6809  -35.1873  265.6347 C   0  0  0  0  0  0  0  0  0  0  0  0
  144.3711  -35.5645  264.4972 C   0  0  0  0  0  0  0  0  0  0  0  0
  144.1222  -36.8025  263.9380 C   0  0  0  0  0  0  0  0  0  0  0  0
  143.1957  -37.6642  264.4997 C   0  0  0  0  0  0  0  0  0  0  0  0
  142.9085  -38.9790  263.9355 C   0  0  0  0  0  0  0  0  0  0  0  0
  141.6022  -39.3912  263.7328 C   0  0  0  0  0  0  0  0  0  0  0  0
  143.8940  -39.8743  263.5757 C   0  0  0  0  0  0  0  0  0  0  0  0
  145.1623  -39.5388  263.7450 N   0  0  0  0  0  0  0  0  0  0  0  0
  146.1626  -40.3691  263.4131 C   0  0  0  0  0  0  0  0  0  0  0  0
  145.8897  -41.6095  262.8801 C   0  0  0  0  0  0  0  0  0  0  0  0
  144.6080  -41.9651  262.7018 N   0  0  0  0  0  0  0  0  0  0  0  0
  143.6193  -41.1232  263.0389 C   0  0  0  0  0  0  0  0  0  0  0  0
  142.3019  -41.5054  262.8487 C   0  0  0  0  0  0  0  0  0  0  0  0
  141.2949  -40.6289  263.2002 C   0  0  0  0  0  0  0  0  0  0  0  0
  139.9476  -41.0360  263.0033 N   0  0  0  0  0  0  0  0  0  0  0  0
  139.6338  -41.7181  261.7829 C   0  0  0  0  0  0  0  0  0  0  0  0
  140.4839  -41.6051  260.6944 C   0  0  0  0  0  0  0  0  0  0  0  0
  140.1856  -42.2505  259.5583 N   0  0  0  0  0  0  0  0  0  0  0  0
  139.0810  -43.0047  259.4501 C   0  0  0  0  0  0  0  0  0  0  0  0
  138.2189  -43.1283  260.5266 C   0  0  0  0  0  0  0  0  0  0  0  0
  138.4980  -42.4723  261.7165 C   0  0  0  0  0  0  0  0  0  0  0  0
  137.5123  -42.5708  262.7755 C   0  0  0  0  0  0  0  0  0  0  0  0
  137.7847  -42.1058  263.9120 O   0  0  0  0  0  0  0  0  0  0  0  0
  136.2284  -43.1615  262.6499 N   0  0  0  0  0  0  0  0  0  0  0  0
  135.3501  -43.2618  263.7704 C   0  0  0  0  0  0  0  0  0  0  0  0
  135.7229  -42.6705  264.9515 C   0  0  0  0  0  0  0  0  0  0  0  0
  134.8677  -42.7814  266.0042 N   0  0  0  0  0  0  0  0  0  0  0  0
  133.7062  -43.4468  265.8796 C   0  0  0  0  0  0  0  0  0  0  0  0
  133.3242  -44.0303  264.7369 N   0  0  0  0  0  0  0  0  0  0  0  0
  134.1640  -43.9347  263.6631 C   0  0  0  0  0  0  0  0  0  0  0  0
  1  2  2  0
  1 10  1  0
  2  3  1  0
  2  7  1  0
  4  3  1  6
  3  5  1  0
  5  6  2  0
  6  7  1  0
  7  8  2  0
  8  9  1  0
  9 10  2  0
 10 11  1  0
 11 12  2  0
 11 13  1  0
 12 20  1  0
 13 14  2  0
 13 18  1  0
 14 15  1  0
 15 16  2  0
 16 17  1  0
 17 18  2  0
 18 19  1  0
 19 20  2  0
 20 21  1  0
 21 22  1  0
 22 23  2  0
 22 27  1  0
 23 24  1  0
 24 25  2  0
 25 26  1  0
 26 27  2  0
 27 28  1  0
 28 29  2  0
 28 30  1  0
 30 31  1  0
 31 32  2  0
 31 36  1  0
 32 33  1  0
 33 34  2  0
 34 35  1  0
 35 36  2  0
M  END
$$$$
