
     RDKit          3D

 36 41  0  0  0  0  0  0  0  0999 V2000
  142.4642  -37.2690  266.3358 C   0  0  0  0  0  0  0  0  0  0  0  0
  142.7955  -36.0361  266.8789 C   0  0  0  0  0  0  0  0  0  0  0  0
  142.3767  -35.3315  267.9433 N   0  0  0  0  0  0  0  0  0  0  0  0
  141.3443  -35.8224  268.8437 C   0  0  0  0  0  0  0  0  0  0  0  0
  143.0099  -34.1736  268.0539 C   0  0  0  0  0  0  0  0  0  0  0  0
  143.9033  -34.0945  267.0074 C   0  0  0  0  0  0  0  0  0  0  0  0
  143.7684  -35.2567  266.2755 C   0  0  0  0  0  0  0  0  0  0  0  0
  144.3868  -35.7358  265.1380 C   0  0  0  0  0  0  0  0  0  0  0  0
  144.0370  -36.9821  264.6075 C   0  0  0  0  0  0  0  0  0  0  0  0
  143.0695  -37.7666  265.2003 C   0  0  0  0  0  0  0  0  0  0  0  0
  142.7174  -39.0661  264.6316 C   0  0  0  0  0  0  0  0  0  0  0  0
  141.4230  -39.4029  264.2975 C   0  0  0  0  0  0  0  0  0  0  0  0
  143.6853  -40.0221  264.4035 C   0  0  0  0  0  0  0  0  0  0  0  0
  144.9770  -39.7239  264.7216 N   0  0  0  0  0  0  0  0  0  0  0  0
  145.9338  -40.6497  264.5038 C   0  0  0  0  0  0  0  0  0  0  0  0
  145.6646  -41.8924  263.9705 C   0  0  0  0  0  0  0  0  0  0  0  0
  144.3927  -42.1823  263.6588 N   0  0  0  0  0  0  0  0  0  0  0  0
  143.4426  -41.2577  263.8771 C   0  0  0  0  0  0  0  0  0  0  0  0
  142.1110  -41.5503  263.5551 C   0  0  0  0  0  0  0  0  0  0  0  0
  141.0922  -40.6496  263.7530 C   0  0  0  0  0  0  0  0  0  0  0  0
  139.7392  -40.9734  263.4561 N   0  0  0  0  0  0  0  0  0  0  0  0
  139.3882  -41.7041  262.3301 C   0  0  0  0  0  0  0  0  0  0  0  0
  140.3167  -41.7837  261.2834 C   0  0  0  0  0  0  0  0  0  0  0  0
  140.1028  -42.4710  260.1566 N   0  0  0  0  0  0  0  0  0  0  0  0
  138.9507  -43.1292  259.9859 C   0  0  0  0  0  0  0  0  0  0  0  0
  138.0123  -43.0737  260.9941 C   0  0  0  0  0  0  0  0  0  0  0  0
  138.2105  -42.3696  262.1698 C   0  0  0  0  0  0  0  0  0  0  0  0
  137.1846  -42.3748  263.1725 C   0  0  0  0  0  0  0  0  0  0  0  0
  136.8485  -41.3281  263.7876 O   0  0  0  0  0  0  0  0  0  0  0  0
  136.4579  -43.5452  263.5638 N   0  0  0  0  0  0  0  0  0  0  0  0
  135.3618  -43.4398  264.4977 C   0  0  0  0  0  0  0  0  0  0  0  0
  134.5888  -44.5496  264.7553 C   0  0  0  0  0  0  0  0  0  0  0  0
  133.5458  -44.4734  265.6359 N   0  0  0  0  0  0  0  0  0  0  0  0
  133.3006  -43.3046  266.2326 C   0  0  0  0  0  0  0  0  0  0  0  0
  134.0315  -42.1732  266.0168 N   0  0  0  0  0  0  0  0  0  0  0  0
  135.0519  -42.2709  265.1476 C   0  0  0  0  0  0  0  0  0  0  0  0
  1  2  2  0
  1 10  1  0
  2  3  1  0
  2  7  1  0
  3  4  1  0
  3  5  1  0
  5  6  2  0
  6  7  1  0
  7  8  2  0
  8  9  1  0
  9 10  2  0
 10 11  1  0
 11 12  2  0
 11 13  1  0
 12 20  1  0
 13 14  2  0
 13 18  1  0
 14 15  1  0
 15 16  2  0
 16 17  1  0
 17 18  2  0
 18 19  1  0
 19 20  2  0
 20 21  1  0
 21 22  1  0
 22 23  2  0
 22 27  1  0
 23 24  1  0
 24 25  2  0
 25 26  1  0
 26 27  2  0
 27 28  1  0
 28 29  2  0
 28 30  1  0
 30 31  1  0
 31 32  2  0
 31 36  1  0
 32 33  1  0
 33 34  2  0
 34 35  1  0
 35 36  2  0
M  END
$$$$
