
     RDKit          3D

 36 41  0  0  0  0  0  0  0  0999 V2000
  142.7215  -37.1972  265.7522 C   0  0  0  0  0  0  0  0  0  0  0  0
  142.9736  -35.9305  266.2407 C   0  0  0  0  0  0  0  0  0  0  0  0
  142.2197  -34.9419  266.7402 N   0  0  0  0  0  0  0  0  0  0  0  0
  140.7894  -34.9848  266.9001 C   0  0  0  0  0  0  0  0  0  0  0  0
  143.0080  -33.9120  267.0654 C   0  0  0  0  0  0  0  0  0  0  0  0
  144.3095  -34.2568  266.7625 C   0  0  0  0  0  0  0  0  0  0  0  0
  144.3136  -35.5303  266.2390 C   0  0  0  0  0  0  0  0  0  0  0  0
  145.3214  -36.3562  265.7753 C   0  0  0  0  0  0  0  0  0  0  0  0
  144.9978  -37.6119  265.3001 C   0  0  0  0  0  0  0  0  0  0  0  0
  143.6847  -38.0500  265.2829 C   0  0  0  0  0  0  0  0  0  0  0  0
  143.3075  -39.3702  264.7885 C   0  0  0  0  0  0  0  0  0  0  0  0
  141.9769  -39.7486  264.7278 C   0  0  0  0  0  0  0  0  0  0  0  0
  144.2279  -40.3035  264.3595 C   0  0  0  0  0  0  0  0  0  0  0  0
  145.5153  -40.0015  264.3930 N   0  0  0  0  0  0  0  0  0  0  0  0
  146.4550  -40.8695  263.9885 C   0  0  0  0  0  0  0  0  0  0  0  0
  146.0971  -42.1149  263.5215 C   0  0  0  0  0  0  0  0  0  0  0  0
  144.7950  -42.4369  263.4810 N   0  0  0  0  0  0  0  0  0  0  0  0
  143.8677  -41.5575  263.8892 C   0  0  0  0  0  0  0  0  0  0  0  0
  142.5281  -41.9053  263.8411 C   0  0  0  0  0  0  0  0  0  0  0  0
  141.5850  -40.9903  264.2645 C   0  0  0  0  0  0  0  0  0  0  0  0
  140.2144  -41.3623  264.2134 N   0  0  0  0  0  0  0  0  0  0  0  0
  139.2598  -40.3343  263.9208 C   0  0  0  0  0  0  0  0  0  0  0  0
  139.6565  -39.0066  263.9264 C   0  0  0  0  0  0  0  0  0  0  0  0
  138.7586  -38.0517  263.6467 N   0  0  0  0  0  0  0  0  0  0  0  0
  137.4824  -38.3520  263.3609 C   0  0  0  0  0  0  0  0  0  0  0  0
  137.0672  -39.6729  263.3520 C   0  0  0  0  0  0  0  0  0  0  0  0
  137.9713  -40.6852  263.6384 C   0  0  0  0  0  0  0  0  0  0  0  0
  137.4546  -42.0387  263.6990 C   0  0  0  0  0  0  0  0  0  0  0  0
  138.0988  -42.9132  264.3335 O   0  0  0  0  0  0  0  0  0  0  0  0
  136.2538  -42.4873  263.0908 N   0  0  0  0  0  0  0  0  0  0  0  0
  135.6821  -43.7500  263.4307 C   0  0  0  0  0  0  0  0  0  0  0  0
  136.5233  -44.7886  263.7430 C   0  0  0  0  0  0  0  0  0  0  0  0
  135.9527  -45.9818  264.0630 N   0  0  0  0  0  0  0  0  0  0  0  0
  134.6160  -46.1252  264.0695 C   0  0  0  0  0  0  0  0  0  0  0  0
  133.7784  -45.1252  263.7681 N   0  0  0  0  0  0  0  0  0  0  0  0
  134.3244  -43.9154  263.4428 C   0  0  0  0  0  0  0  0  0  0  0  0
  1  2  2  0
  1 10  1  0
  2  3  1  0
  2  7  1  0
  4  3  1  6
  3  5  1  0
  5  6  2  0
  6  7  1  0
  7  8  2  0
  8  9  1  0
  9 10  2  0
 10 11  1  0
 11 12  2  0
 11 13  1  0
 12 20  1  0
 13 14  2  0
 13 18  1  0
 14 15  1  0
 15 16  2  0
 16 17  1  0
 17 18  2  0
 18 19  1  0
 19 20  2  0
 20 21  1  0
 21 22  1  0
 22 23  2  0
 22 27  1  0
 23 24  1  0
 24 25  2  0
 25 26  1  0
 26 27  2  0
 27 28  1  0
 28 29  2  0
 28 30  1  0
 30 31  1  0
 31 32  2  0
 31 36  1  0
 32 33  1  0
 33 34  2  0
 34 35  1  0
 35 36  2  0
M  END
$$$$
