
     RDKit          3D

 36 41  0  0  0  0  0  0  0  0999 V2000
  142.4557  -37.1833  266.0522 C   0  0  0  0  0  0  0  0  0  0  0  0
  142.7470  -35.9811  266.6805 C   0  0  0  0  0  0  0  0  0  0  0  0
  142.1720  -35.2666  267.6621 N   0  0  0  0  0  0  0  0  0  0  0  0
  140.9577  -35.7046  268.3339 C   0  0  0  0  0  0  0  0  0  0  0  0
  142.8384  -34.1522  267.9224 C   0  0  0  0  0  0  0  0  0  0  0  0
  143.9207  -34.1144  267.0699 C   0  0  0  0  0  0  0  0  0  0  0  0
  143.8624  -35.2556  266.2960 C   0  0  0  0  0  0  0  0  0  0  0  0
  144.6604  -35.7565  265.2869 C   0  0  0  0  0  0  0  0  0  0  0  0
  144.3477  -36.9710  264.6670 C   0  0  0  0  0  0  0  0  0  0  0  0
  143.2394  -37.7017  265.0421 C   0  0  0  0  0  0  0  0  0  0  0  0
  142.9286  -38.9686  264.3829 C   0  0  0  0  0  0  0  0  0  0  0  0
  141.6546  -39.2972  263.9711 C   0  0  0  0  0  0  0  0  0  0  0  0
  143.9172  -39.9006  264.1436 C   0  0  0  0  0  0  0  0  0  0  0  0
  145.1896  -39.6097  264.5371 N   0  0  0  0  0  0  0  0  0  0  0  0
  146.1662  -40.5121  264.3093 C   0  0  0  0  0  0  0  0  0  0  0  0
  145.9361  -41.7237  263.6926 C   0  0  0  0  0  0  0  0  0  0  0  0
  144.6830  -42.0065  263.3068 N   0  0  0  0  0  0  0  0  0  0  0  0
  143.7131  -41.1052  263.5354 C   0  0  0  0  0  0  0  0  0  0  0  0
  142.4009  -41.3906  263.1365 C   0  0  0  0  0  0  0  0  0  0  0  0
  141.3635  -40.5126  263.3401 C   0  0  0  0  0  0  0  0  0  0  0  0
  140.0292  -40.8309  262.9635 N   0  0  0  0  0  0  0  0  0  0  0  0
  139.7469  -41.7514  261.9646 C   0  0  0  0  0  0  0  0  0  0  0  0
  140.6368  -41.8430  260.8857 C   0  0  0  0  0  0  0  0  0  0  0  0
  140.4836  -42.7018  259.8724 N   0  0  0  0  0  0  0  0  0  0  0  0
  139.4351  -43.5325  259.8555 C   0  0  0  0  0  0  0  0  0  0  0  0
  138.5376  -43.4712  260.8999 C   0  0  0  0  0  0  0  0  0  0  0  0
  138.6745  -42.5914  261.9603 C   0  0  0  0  0  0  0  0  0  0  0  0
  137.6993  -42.6027  263.0123 C   0  0  0  0  0  0  0  0  0  0  0  0
  137.9758  -42.2241  264.1815 O   0  0  0  0  0  0  0  0  0  0  0  0
  136.3452  -43.0359  262.8397 N   0  0  0  0  0  0  0  0  0  0  0  0
  135.4437  -43.0649  263.9673 C   0  0  0  0  0  0  0  0  0  0  0  0
  135.8892  -42.6313  265.1956 C   0  0  0  0  0  0  0  0  0  0  0  0
  135.0533  -42.6498  266.2774 N   0  0  0  0  0  0  0  0  0  0  0  0
  133.8061  -43.0955  266.1105 C   0  0  0  0  0  0  0  0  0  0  0  0
  133.3099  -43.5370  264.9190 N   0  0  0  0  0  0  0  0  0  0  0  0
  134.1487  -43.5101  263.8692 C   0  0  0  0  0  0  0  0  0  0  0  0
  1  2  2  0
  1 10  1  0
  2  3  1  0
  2  7  1  0
  3  4  1  0
  3  5  1  0
  5  6  2  0
  6  7  1  0
  7  8  2  0
  8  9  1  0
  9 10  2  0
 10 11  1  0
 11 12  2  0
 11 13  1  0
 12 20  1  0
 13 14  2  0
 13 18  1  0
 14 15  1  0
 15 16  2  0
 16 17  1  0
 17 18  2  0
 18 19  1  0
 19 20  2  0
 20 21  1  0
 21 22  1  0
 22 23  2  0
 22 27  1  0
 23 24  1  0
 24 25  2  0
 25 26  1  0
 26 27  2  0
 27 28  1  0
 28 29  2  0
 28 30  1  0
 30 31  1  0
 31 32  2  0
 31 36  1  0
 32 33  1  0
 33 34  2  0
 34 35  1  0
 35 36  2  0
M  END
$$$$
