
     RDKit          3D

 36 41  0  0  0  0  0  0  0  0999 V2000
  142.6095  -37.0096  266.1278 C   0  0  0  0  0  0  0  0  0  0  0  0
  142.9137  -35.8286  266.7756 C   0  0  0  0  0  0  0  0  0  0  0  0
  142.3201  -35.0886  267.7217 N   0  0  0  0  0  0  0  0  0  0  0  0
  141.0668  -35.4003  268.3584 C   0  0  0  0  0  0  0  0  0  0  0  0
  143.0775  -34.0170  267.9785 C   0  0  0  0  0  0  0  0  0  0  0  0
  144.1925  -34.0767  267.1674 C   0  0  0  0  0  0  0  0  0  0  0  0
  144.1118  -35.2147  266.3966 C   0  0  0  0  0  0  0  0  0  0  0  0
  144.9383  -35.7608  265.4315 C   0  0  0  0  0  0  0  0  0  0  0  0
  144.5723  -36.9456  264.8236 C   0  0  0  0  0  0  0  0  0  0  0  0
  143.3953  -37.5883  265.1671 C   0  0  0  0  0  0  0  0  0  0  0  0
  142.9785  -38.8411  264.5455 C   0  0  0  0  0  0  0  0  0  0  0  0
  141.6472  -39.0705  264.2415 C   0  0  0  0  0  0  0  0  0  0  0  0
  143.8605  -39.8526  264.2276 C   0  0  0  0  0  0  0  0  0  0  0  0
  145.1465  -39.6932  264.4935 N   0  0  0  0  0  0  0  0  0  0  0  0
  146.0498  -40.6429  264.2064 C   0  0  0  0  0  0  0  0  0  0  0  0
  145.6546  -41.8244  263.6190 C   0  0  0  0  0  0  0  0  0  0  0  0
  144.3534  -42.0017  263.3427 N   0  0  0  0  0  0  0  0  0  0  0  0
  143.4627  -41.0423  263.6362 C   0  0  0  0  0  0  0  0  0  0  0  0
  142.1236  -41.2408  263.3447 C   0  0  0  0  0  0  0  0  0  0  0  0
  141.2184  -40.2448  263.6523 C   0  0  0  0  0  0  0  0  0  0  0  0
  139.8468  -40.4640  263.3514 N   0  0  0  0  0  0  0  0  0  0  0  0
  139.5353  -41.4629  262.3725 C   0  0  0  0  0  0  0  0  0  0  0  0
  140.5303  -41.9344  261.5312 C   0  0  0  0  0  0  0  0  0  0  0  0
  140.2316  -42.8725  260.6218 N   0  0  0  0  0  0  0  0  0  0  0  0
  138.9893  -43.3666  260.5068 C   0  0  0  0  0  0  0  0  0  0  0  0
  137.9816  -42.9066  261.3377 C   0  0  0  0  0  0  0  0  0  0  0  0
  138.2573  -41.9352  262.2888 C   0  0  0  0  0  0  0  0  0  0  0  0
  137.1416  -41.4332  263.0672 C   0  0  0  0  0  0  0  0  0  0  0  0
  136.9451  -40.1922  263.1276 O   0  0  0  0  0  0  0  0  0  0  0  0
  136.2204  -42.2325  263.7921 N   0  0  0  0  0  0  0  0  0  0  0  0
  135.0793  -41.6533  264.4238 C   0  0  0  0  0  0  0  0  0  0  0  0
  134.9797  -40.2853  264.4721 C   0  0  0  0  0  0  0  0  0  0  0  0
  133.8821  -39.7586  265.0804 N   0  0  0  0  0  0  0  0  0  0  0  0
  132.9392  -40.5576  265.6094 C   0  0  0  0  0  0  0  0  0  0  0  0
  133.0174  -41.8936  265.5728 N   0  0  0  0  0  0  0  0  0  0  0  0
  134.1093  -42.4497  264.9679 C   0  0  0  0  0  0  0  0  0  0  0  0
  1  2  2  0
  1 10  1  0
  2  3  1  0
  2  7  1  0
  4  3  1  6
  3  5  1  0
  5  6  2  0
  6  7  1  0
  7  8  2  0
  8  9  1  0
  9 10  2  0
 10 11  1  0
 11 12  2  0
 11 13  1  0
 12 20  1  0
 13 14  2  0
 13 18  1  0
 14 15  1  0
 15 16  2  0
 16 17  1  0
 17 18  2  0
 18 19  1  0
 19 20  2  0
 20 21  1  0
 21 22  1  0
 22 23  2  0
 22 27  1  0
 23 24  1  0
 24 25  2  0
 25 26  1  0
 26 27  2  0
 27 28  1  0
 28 29  2  0
 28 30  1  0
 30 31  1  0
 31 32  2  0
 31 36  1  0
 32 33  1  0
 33 34  2  0
 34 35  1  0
 35 36  2  0
M  END
$$$$
