
     RDKit          3D

 36 41  0  0  0  0  0  0  0  0999 V2000
  142.6247  -37.1199  266.0540 C   0  0  0  0  0  0  0  0  0  0  0  0
  142.9724  -35.9164  266.6501 C   0  0  0  0  0  0  0  0  0  0  0  0
  142.5206  -35.2230  267.7083 N   0  0  0  0  0  0  0  0  0  0  0  0
  141.4185  -35.6941  268.5336 C   0  0  0  0  0  0  0  0  0  0  0  0
  143.1917  -34.0957  267.8880 C   0  0  0  0  0  0  0  0  0  0  0  0
  144.1473  -34.0263  266.8972 C   0  0  0  0  0  0  0  0  0  0  0  0
  144.0093  -35.1624  266.1259 C   0  0  0  0  0  0  0  0  0  0  0  0
  144.6737  -35.6369  265.0127 C   0  0  0  0  0  0  0  0  0  0  0  0
  144.3062  -36.8533  264.4277 C   0  0  0  0  0  0  0  0  0  0  0  0
  143.2752  -37.6123  264.9414 C   0  0  0  0  0  0  0  0  0  0  0  0
  142.9055  -38.8808  264.3167 C   0  0  0  0  0  0  0  0  0  0  0  0
  141.6087  -39.1796  263.9565 C   0  0  0  0  0  0  0  0  0  0  0  0
  143.8582  -39.8446  264.0591 C   0  0  0  0  0  0  0  0  0  0  0  0
  145.1517  -39.5837  264.4018 N   0  0  0  0  0  0  0  0  0  0  0  0
  146.0938  -40.5174  264.1556 C   0  0  0  0  0  0  0  0  0  0  0  0
  145.8076  -41.7322  263.5695 C   0  0  0  0  0  0  0  0  0  0  0  0
  144.5340  -41.9855  263.2337 N   0  0  0  0  0  0  0  0  0  0  0  0
  143.5986  -41.0531  263.4804 C   0  0  0  0  0  0  0  0  0  0  0  0
  142.2654  -41.3075  263.1336 C   0  0  0  0  0  0  0  0  0  0  0  0
  141.2611  -40.3968  263.3583 C   0  0  0  0  0  0  0  0  0  0  0  0
  139.9057  -40.6831  263.0352 N   0  0  0  0  0  0  0  0  0  0  0  0
  139.5621  -41.5913  262.0442 C   0  0  0  0  0  0  0  0  0  0  0  0
  140.4434  -41.7514  260.9663 C   0  0  0  0  0  0  0  0  0  0  0  0
  140.2327  -42.6068  259.9605 N   0  0  0  0  0  0  0  0  0  0  0  0
  139.1310  -43.3657  259.9506 C   0  0  0  0  0  0  0  0  0  0  0  0
  138.2400  -43.2355  260.9943 C   0  0  0  0  0  0  0  0  0  0  0  0
  138.4359  -42.3577  262.0471 C   0  0  0  0  0  0  0  0  0  0  0  0
  137.4626  -42.2947  263.0989 C   0  0  0  0  0  0  0  0  0  0  0  0
  137.7199  -41.7694  264.2146 O   0  0  0  0  0  0  0  0  0  0  0  0
  136.1316  -42.8114  262.9858 N   0  0  0  0  0  0  0  0  0  0  0  0
  135.2581  -42.8231  264.1354 C   0  0  0  0  0  0  0  0  0  0  0  0
  135.1086  -41.6735  264.8780 C   0  0  0  0  0  0  0  0  0  0  0  0
  134.2868  -41.6612  265.9706 N   0  0  0  0  0  0  0  0  0  0  0  0
  133.6403  -42.7837  266.2936 C   0  0  0  0  0  0  0  0  0  0  0  0
  133.7494  -43.9510  265.5961 N   0  0  0  0  0  0  0  0  0  0  0  0
  134.5624  -43.9404  264.5260 C   0  0  0  0  0  0  0  0  0  0  0  0
  1  2  2  0
  1 10  1  0
  2  3  1  0
  2  7  1  0
  3  4  1  0
  3  5  1  0
  5  6  2  0
  6  7  1  0
  7  8  2  0
  8  9  1  0
  9 10  2  0
 10 11  1  0
 11 12  2  0
 11 13  1  0
 12 20  1  0
 13 14  2  0
 13 18  1  0
 14 15  1  0
 15 16  2  0
 16 17  1  0
 17 18  2  0
 18 19  1  0
 19 20  2  0
 20 21  1  0
 21 22  1  0
 22 23  2  0
 22 27  1  0
 23 24  1  0
 24 25  2  0
 25 26  1  0
 26 27  2  0
 27 28  1  0
 28 29  2  0
 28 30  1  0
 30 31  1  0
 31 32  2  0
 31 36  1  0
 32 33  1  0
 33 34  2  0
 34 35  1  0
 35 36  2  0
M  END
$$$$
