
     RDKit          3D

 36 41  0  0  0  0  0  0  0  0999 V2000
  142.5437  -37.1946  265.9961 C   0  0  0  0  0  0  0  0  0  0  0  0
  142.8361  -36.0007  266.6252 C   0  0  0  0  0  0  0  0  0  0  0  0
  142.3266  -35.3314  267.6681 N   0  0  0  0  0  0  0  0  0  0  0  0
  141.2132  -35.7645  268.4719 C   0  0  0  0  0  0  0  0  0  0  0  0
  143.0172  -34.1997  267.8414 C   0  0  0  0  0  0  0  0  0  0  0  0
  144.0010  -34.1463  266.8751 C   0  0  0  0  0  0  0  0  0  0  0  0
  143.9068  -35.2754  266.0928 C   0  0  0  0  0  0  0  0  0  0  0  0
  144.6261  -35.7303  265.0026 C   0  0  0  0  0  0  0  0  0  0  0  0
  144.2790  -36.9342  264.4217 C   0  0  0  0  0  0  0  0  0  0  0  0
  143.2263  -37.6856  264.9152 C   0  0  0  0  0  0  0  0  0  0  0  0
  142.8331  -38.9617  264.3263 C   0  0  0  0  0  0  0  0  0  0  0  0
  141.5043  -39.2303  264.0443 C   0  0  0  0  0  0  0  0  0  0  0  0
  143.7360  -39.9580  264.0193 C   0  0  0  0  0  0  0  0  0  0  0  0
  145.0208  -39.7614  264.2653 N   0  0  0  0  0  0  0  0  0  0  0  0
  145.9438  -40.6947  263.9874 C   0  0  0  0  0  0  0  0  0  0  0  0
  145.5708  -41.8983  263.4310 C   0  0  0  0  0  0  0  0  0  0  0  0
  144.2711  -42.1134  263.1752 N   0  0  0  0  0  0  0  0  0  0  0  0
  143.3606  -41.1698  263.4590 C   0  0  0  0  0  0  0  0  0  0  0  0
  142.0234  -41.4075  263.1889 C   0  0  0  0  0  0  0  0  0  0  0  0
  141.0976  -40.4275  263.4863 C   0  0  0  0  0  0  0  0  0  0  0  0
  139.7284  -40.6867  263.2077 N   0  0  0  0  0  0  0  0  0  0  0  0
  139.4253  -41.4604  262.0402 C   0  0  0  0  0  0  0  0  0  0  0  0
  140.2544  -41.3859  260.9324 C   0  0  0  0  0  0  0  0  0  0  0  0
  139.9666  -42.1168  259.8464 N   0  0  0  0  0  0  0  0  0  0  0  0
  138.8924  -42.9200  259.8068 C   0  0  0  0  0  0  0  0  0  0  0  0
  138.0515  -43.0062  260.9036 C   0  0  0  0  0  0  0  0  0  0  0  0
  138.3205  -42.2620  262.0429 C   0  0  0  0  0  0  0  0  0  0  0  0
  137.3550  -42.3294  263.1226 C   0  0  0  0  0  0  0  0  0  0  0  0
  137.3350  -41.4142  263.9854 O   0  0  0  0  0  0  0  0  0  0  0  0
  136.3998  -43.3622  263.3069 N   0  0  0  0  0  0  0  0  0  0  0  0
  135.4281  -43.2905  264.3497 C   0  0  0  0  0  0  0  0  0  0  0  0
  134.1000  -43.3866  264.0170 C   0  0  0  0  0  0  0  0  0  0  0  0
  133.1942  -43.3148  265.0300 N   0  0  0  0  0  0  0  0  0  0  0  0
  133.5968  -43.1557  266.3027 C   0  0  0  0  0  0  0  0  0  0  0  0
  134.8867  -43.0598  266.6482 N   0  0  0  0  0  0  0  0  0  0  0  0
  135.8183  -43.1288  265.6507 C   0  0  0  0  0  0  0  0  0  0  0  0
  1  2  2  0
  1 10  1  0
  2  3  1  0
  2  7  1  0
  4  3  1  6
  3  5  1  0
  5  6  2  0
  6  7  1  0
  7  8  2  0
  8  9  1  0
  9 10  2  0
 10 11  1  0
 11 12  2  0
 11 13  1  0
 12 20  1  0
 13 14  2  0
 13 18  1  0
 14 15  1  0
 15 16  2  0
 16 17  1  0
 17 18  2  0
 18 19  1  0
 19 20  2  0
 20 21  1  0
 21 22  1  0
 22 23  2  0
 22 27  1  0
 23 24  1  0
 24 25  2  0
 25 26  1  0
 26 27  2  0
 27 28  1  0
 28 29  2  0
 28 30  1  0
 30 31  1  0
 31 32  2  0
 31 36  1  0
 32 33  1  0
 33 34  2  0
 34 35  1  0
 35 36  2  0
M  END
$$$$
