
     RDKit          3D

 36 41  0  0  0  0  0  0  0  0999 V2000
  142.3058  -37.4709  266.1478 C   0  0  0  0  0  0  0  0  0  0  0  0
  142.5543  -36.2581  266.7596 C   0  0  0  0  0  0  0  0  0  0  0  0
  142.0094  -35.5852  267.7820 N   0  0  0  0  0  0  0  0  0  0  0  0
  140.8959  -36.0354  268.5761 C   0  0  0  0  0  0  0  0  0  0  0  0
  142.6650  -34.4313  267.9453 C   0  0  0  0  0  0  0  0  0  0  0  0
  143.6623  -34.3672  266.9936 C   0  0  0  0  0  0  0  0  0  0  0  0
  143.6126  -35.5123  266.2307 C   0  0  0  0  0  0  0  0  0  0  0  0
  144.3618  -35.9658  265.1603 C   0  0  0  0  0  0  0  0  0  0  0  0
  144.0582  -37.1893  264.5961 C   0  0  0  0  0  0  0  0  0  0  0  0
  143.0193  -37.9615  265.0869 C   0  0  0  0  0  0  0  0  0  0  0  0
  142.6717  -39.2584  264.5153 C   0  0  0  0  0  0  0  0  0  0  0  0
  141.3472  -39.6161  264.3279 C   0  0  0  0  0  0  0  0  0  0  0  0
  143.6153  -40.1890  264.1335 C   0  0  0  0  0  0  0  0  0  0  0  0
  144.8983  -39.9061  264.2874 N   0  0  0  0  0  0  0  0  0  0  0  0
  145.8598  -40.7725  263.9339 C   0  0  0  0  0  0  0  0  0  0  0  0
  145.5298  -41.9960  263.3939 C   0  0  0  0  0  0  0  0  0  0  0  0
  144.2326  -42.2984  263.2311 N   0  0  0  0  0  0  0  0  0  0  0  0
  143.2832  -41.4209  263.5898 C   0  0  0  0  0  0  0  0  0  0  0  0
  141.9491  -41.7483  263.4153 C   0  0  0  0  0  0  0  0  0  0  0  0
  140.9830  -40.8355  263.7889 C   0  0  0  0  0  0  0  0  0  0  0  0
  139.6179  -41.1866  263.6080 N   0  0  0  0  0  0  0  0  0  0  0  0
  139.2586  -41.8379  262.3832 C   0  0  0  0  0  0  0  0  0  0  0  0
  140.1107  -41.7690  261.2928 C   0  0  0  0  0  0  0  0  0  0  0  0
  139.7695  -42.3854  260.1526 N   0  0  0  0  0  0  0  0  0  0  0  0
  138.6199  -43.0687  260.0423 C   0  0  0  0  0  0  0  0  0  0  0  0
  137.7550  -43.1473  261.1208 C   0  0  0  0  0  0  0  0  0  0  0  0
  138.0779  -42.5196  262.3149 C   0  0  0  0  0  0  0  0  0  0  0  0
  137.0913  -42.5654  263.3766 C   0  0  0  0  0  0  0  0  0  0  0  0
  137.3465  -43.2145  264.4234 O   0  0  0  0  0  0  0  0  0  0  0  0
  135.8235  -41.9289  263.3474 N   0  0  0  0  0  0  0  0  0  0  0  0
  134.8980  -42.0796  264.4233 C   0  0  0  0  0  0  0  0  0  0  0  0
  135.2136  -42.9401  265.4449 C   0  0  0  0  0  0  0  0  0  0  0  0
  134.3138  -43.0656  266.4581 N   0  0  0  0  0  0  0  0  0  0  0  0
  133.1643  -42.3686  266.4473 C   0  0  0  0  0  0  0  0  0  0  0  0
  132.8377  -41.5245  265.4608 N   0  0  0  0  0  0  0  0  0  0  0  0
  133.7232  -41.3790  264.4301 C   0  0  0  0  0  0  0  0  0  0  0  0
  1  2  2  0
  1 10  1  0
  2  3  1  0
  2  7  1  0
  4  3  1  6
  3  5  1  0
  5  6  2  0
  6  7  1  0
  7  8  2  0
  8  9  1  0
  9 10  2  0
 10 11  1  0
 11 12  2  0
 11 13  1  0
 12 20  1  0
 13 14  2  0
 13 18  1  0
 14 15  1  0
 15 16  2  0
 16 17  1  0
 17 18  2  0
 18 19  1  0
 19 20  2  0
 20 21  1  0
 21 22  1  0
 22 23  2  0
 22 27  1  0
 23 24  1  0
 24 25  2  0
 25 26  1  0
 26 27  2  0
 27 28  1  0
 28 29  2  0
 28 30  1  0
 30 31  1  0
 31 32  2  0
 31 36  1  0
 32 33  1  0
 33 34  2  0
 34 35  1  0
 35 36  2  0
M  END
$$$$
