
     RDKit          3D

 36 41  0  0  0  0  0  0  0  0999 V2000
  142.4691  -36.9274  265.6463 C   0  0  0  0  0  0  0  0  0  0  0  0
  142.6734  -35.7462  266.3448 C   0  0  0  0  0  0  0  0  0  0  0  0
  141.9853  -34.6006  266.4818 N   0  0  0  0  0  0  0  0  0  0  0  0
  140.7117  -34.3740  265.8152 C   0  0  0  0  0  0  0  0  0  0  0  0
  142.6037  -33.7407  267.2766 C   0  0  0  0  0  0  0  0  0  0  0  0
  143.7713  -34.3398  267.6977 C   0  0  0  0  0  0  0  0  0  0  0  0
  143.8135  -35.5904  267.1157 C   0  0  0  0  0  0  0  0  0  0  0  0
  144.7232  -36.6276  267.1665 C   0  0  0  0  0  0  0  0  0  0  0  0
  144.4968  -37.8101  266.4540 C   0  0  0  0  0  0  0  0  0  0  0  0
  143.3649  -37.9759  265.6831 C   0  0  0  0  0  0  0  0  0  0  0  0
  143.1455  -39.2185  264.9456 C   0  0  0  0  0  0  0  0  0  0  0  0
  141.8855  -39.7141  264.6863 C   0  0  0  0  0  0  0  0  0  0  0  0
  144.2111  -39.9558  264.4725 C   0  0  0  0  0  0  0  0  0  0  0  0
  145.4724  -39.4960  264.7101 N   0  0  0  0  0  0  0  0  0  0  0  0
  146.5238  -40.2071  264.2531 C   0  0  0  0  0  0  0  0  0  0  0  0
  146.3816  -41.3857  263.5518 C   0  0  0  0  0  0  0  0  0  0  0  0
  145.1393  -41.8350  263.3199 N   0  0  0  0  0  0  0  0  0  0  0  0
  144.0947  -41.1241  263.7766 C   0  0  0  0  0  0  0  0  0  0  0  0
  142.7930  -41.5844  263.5398 C   0  0  0  0  0  0  0  0  0  0  0  0
  141.6820  -40.9052  263.9792 C   0  0  0  0  0  0  0  0  0  0  0  0
  140.3671  -41.4033  263.7640 N   0  0  0  0  0  0  0  0  0  0  0  0
  139.9917  -41.9948  262.5665 C   0  0  0  0  0  0  0  0  0  0  0  0
  140.8635  -41.8787  261.4753 C   0  0  0  0  0  0  0  0  0  0  0  0
  140.6225  -42.4192  260.2763 N   0  0  0  0  0  0  0  0  0  0  0  0
  139.4978  -43.1142  260.0723 C   0  0  0  0  0  0  0  0  0  0  0  0
  138.6152  -43.2494  261.1226 C   0  0  0  0  0  0  0  0  0  0  0  0
  138.8423  -42.6998  262.3730 C   0  0  0  0  0  0  0  0  0  0  0  0
  137.8753  -42.8995  263.4136 C   0  0  0  0  0  0  0  0  0  0  0  0
  138.2020  -42.9307  264.6299 O   0  0  0  0  0  0  0  0  0  0  0  0
  136.4743  -43.0787  263.1767 N   0  0  0  0  0  0  0  0  0  0  0  0
  135.5865  -43.3839  264.2737 C   0  0  0  0  0  0  0  0  0  0  0  0
  134.3263  -42.8296  264.2931 C   0  0  0  0  0  0  0  0  0  0  0  0
  133.4686  -43.1044  265.3217 N   0  0  0  0  0  0  0  0  0  0  0  0
  133.8832  -43.9168  266.2964 C   0  0  0  0  0  0  0  0  0  0  0  0
  135.1187  -44.4943  266.3304 N   0  0  0  0  0  0  0  0  0  0  0  0
  135.9453  -44.2104  265.3094 C   0  0  0  0  0  0  0  0  0  0  0  0
  1  2  2  0
  1 10  1  0
  2  3  1  0
  2  7  1  0
  3  4  1  0
  3  5  1  0
  5  6  2  0
  6  7  1  0
  7  8  2  0
  8  9  1  0
  9 10  2  0
 10 11  1  0
 11 12  2  0
 11 13  1  0
 12 20  1  0
 13 14  2  0
 13 18  1  0
 14 15  1  0
 15 16  2  0
 16 17  1  0
 17 18  2  0
 18 19  1  0
 19 20  2  0
 20 21  1  0
 21 22  1  0
 22 23  2  0
 22 27  1  0
 23 24  1  0
 24 25  2  0
 25 26  1  0
 26 27  2  0
 27 28  1  0
 28 29  2  0
 28 30  1  0
 30 31  1  0
 31 32  2  0
 31 36  1  0
 32 33  1  0
 33 34  2  0
 34 35  1  0
 35 36  2  0
M  END
$$$$
