
     RDKit          3D

 36 41  0  0  0  0  0  0  0  0999 V2000
  143.0463  -36.4327  264.9598 C   0  0  0  0  0  0  0  0  0  0  0  0
  143.3795  -35.2920  265.6630 C   0  0  0  0  0  0  0  0  0  0  0  0
  143.3390  -33.9774  265.4073 N   0  0  0  0  0  0  0  0  0  0  0  0
  142.8783  -33.3817  264.1801 C   0  0  0  0  0  0  0  0  0  0  0  0
  143.7940  -33.3101  266.4729 C   0  0  0  0  0  0  0  0  0  0  0  0
  144.1363  -34.2319  267.4412 C   0  0  0  0  0  0  0  0  0  0  0  0
  143.8830  -35.4938  266.9521 C   0  0  0  0  0  0  0  0  0  0  0  0
  144.0359  -36.7605  267.4858 C   0  0  0  0  0  0  0  0  0  0  0  0
  143.6823  -37.8585  266.7263 C   0  0  0  0  0  0  0  0  0  0  0  0
  143.1798  -37.7061  265.4454 C   0  0  0  0  0  0  0  0  0  0  0  0
  142.7959  -38.8437  264.6159 C   0  0  0  0  0  0  0  0  0  0  0  0
  141.5313  -38.9158  264.0565 C   0  0  0  0  0  0  0  0  0  0  0  0
  143.6458  -39.8946  264.3411 C   0  0  0  0  0  0  0  0  0  0  0  0
  144.8681  -39.8839  264.8469 N   0  0  0  0  0  0  0  0  0  0  0  0
  145.7376  -40.8787  264.6133 C   0  0  0  0  0  0  0  0  0  0  0  0
  145.3737  -41.9513  263.8295 C   0  0  0  0  0  0  0  0  0  0  0  0
  144.1372  -41.9773  263.3088 N   0  0  0  0  0  0  0  0  0  0  0  0
  143.2796  -40.9746  263.5519 C   0  0  0  0  0  0  0  0  0  0  0  0
  142.0072  -41.0166  263.0071 C   0  0  0  0  0  0  0  0  0  0  0  0
  141.1353  -39.9779  263.2659 C   0  0  0  0  0  0  0  0  0  0  0  0
  139.8314  -40.0362  262.7037 N   0  0  0  0  0  0  0  0  0  0  0  0
  139.5570  -41.0937  261.7765 C   0  0  0  0  0  0  0  0  0  0  0  0
  140.4579  -41.3669  260.7596 C   0  0  0  0  0  0  0  0  0  0  0  0
  140.1960  -42.3610  259.8997 N   0  0  0  0  0  0  0  0  0  0  0  0
  139.0799  -43.0991  260.0007 C   0  0  0  0  0  0  0  0  0  0  0  0
  138.1674  -42.8399  261.0094 C   0  0  0  0  0  0  0  0  0  0  0  0
  138.4078  -41.8172  261.9151 C   0  0  0  0  0  0  0  0  0  0  0  0
  137.3733  -41.5397  262.8925 C   0  0  0  0  0  0  0  0  0  0  0  0
  137.2728  -40.3788  263.3663 O   0  0  0  0  0  0  0  0  0  0  0  0
  136.4330  -42.4822  263.3832 N   0  0  0  0  0  0  0  0  0  0  0  0
  135.4362  -42.1038  264.3320 C   0  0  0  0  0  0  0  0  0  0  0  0
  135.1036  -40.7766  264.4405 C   0  0  0  0  0  0  0  0  0  0  0  0
  134.1507  -40.4427  265.3528 N   0  0  0  0  0  0  0  0  0  0  0  0
  133.5654  -41.3851  266.1122 C   0  0  0  0  0  0  0  0  0  0  0  0
  133.8754  -42.6843  266.0219 N   0  0  0  0  0  0  0  0  0  0  0  0
  134.8294  -43.0481  265.1136 C   0  0  0  0  0  0  0  0  0  0  0  0
  1  2  2  0
  1 10  1  0
  2  3  1  0
  2  7  1  0
  4  3  1  6
  3  5  1  0
  5  6  2  0
  6  7  1  0
  7  8  2  0
  8  9  1  0
  9 10  2  0
 10 11  1  0
 11 12  2  0
 11 13  1  0
 12 20  1  0
 13 14  2  0
 13 18  1  0
 14 15  1  0
 15 16  2  0
 16 17  1  0
 17 18  2  0
 18 19  1  0
 19 20  2  0
 20 21  1  0
 21 22  1  0
 22 23  2  0
 22 27  1  0
 23 24  1  0
 24 25  2  0
 25 26  1  0
 26 27  2  0
 27 28  1  0
 28 29  2  0
 28 30  1  0
 30 31  1  0
 31 32  2  0
 31 36  1  0
 32 33  1  0
 33 34  2  0
 34 35  1  0
 35 36  2  0
M  END
$$$$
