
     RDKit          3D

 36 41  0  0  0  0  0  0  0  0999 V2000
  142.8134  -37.1338  266.2237 C   0  0  0  0  0  0  0  0  0  0  0  0
  143.1688  -35.9151  266.7833 C   0  0  0  0  0  0  0  0  0  0  0  0
  142.7524  -35.2090  267.8477 N   0  0  0  0  0  0  0  0  0  0  0  0
  141.6934  -35.6801  268.7275 C   0  0  0  0  0  0  0  0  0  0  0  0
  143.4143  -34.0695  267.9788 C   0  0  0  0  0  0  0  0  0  0  0  0
  144.3257  -34.0050  266.9469 C   0  0  0  0  0  0  0  0  0  0  0  0
  144.1714  -35.1566  266.2022 C   0  0  0  0  0  0  0  0  0  0  0  0
  144.7945  -35.6419  265.0699 C   0  0  0  0  0  0  0  0  0  0  0  0
  144.4200  -36.8736  264.5225 C   0  0  0  0  0  0  0  0  0  0  0  0
  143.4229  -37.6372  265.0931 C   0  0  0  0  0  0  0  0  0  0  0  0
  143.0452  -38.9217  264.5069 C   0  0  0  0  0  0  0  0  0  0  0  0
  141.7614  -39.1956  264.0858 C   0  0  0  0  0  0  0  0  0  0  0  0
  143.9769  -39.9269  264.3502 C   0  0  0  0  0  0  0  0  0  0  0  0
  145.2571  -39.6916  264.7553 N   0  0  0  0  0  0  0  0  0  0  0  0
  146.1785  -40.6660  264.6079 C   0  0  0  0  0  0  0  0  0  0  0  0
  145.8839  -41.8977  264.0627 C   0  0  0  0  0  0  0  0  0  0  0  0
  144.6233  -42.1256  263.6651 N   0  0  0  0  0  0  0  0  0  0  0  0
  143.7085  -41.1528  263.8136 C   0  0  0  0  0  0  0  0  0  0  0  0
  142.3891  -41.3806  263.4017 C   0  0  0  0  0  0  0  0  0  0  0  0
  141.4060  -40.4283  263.5251 C   0  0  0  0  0  0  0  0  0  0  0  0
  140.0620  -40.6860  263.1370 N   0  0  0  0  0  0  0  0  0  0  0  0
  139.7497  -41.5507  262.0979 C   0  0  0  0  0  0  0  0  0  0  0  0
  140.6870  -41.7042  261.0673 C   0  0  0  0  0  0  0  0  0  0  0  0
  140.5098  -42.5198  260.0228 N   0  0  0  0  0  0  0  0  0  0  0  0
  139.3884  -43.2427  259.9243 C   0  0  0  0  0  0  0  0  0  0  0  0
  138.4425  -43.1177  260.9192 C   0  0  0  0  0  0  0  0  0  0  0  0
  138.6029  -42.2807  262.0104 C   0  0  0  0  0  0  0  0  0  0  0  0
  137.5724  -42.2205  263.0065 C   0  0  0  0  0  0  0  0  0  0  0  0
  136.9872  -41.1431  263.2959 O   0  0  0  0  0  0  0  0  0  0  0  0
  137.1175  -43.3551  263.7528 N   0  0  0  0  0  0  0  0  0  0  0  0
  135.9296  -43.2582  264.5679 C   0  0  0  0  0  0  0  0  0  0  0  0
  135.3284  -44.4112  265.0199 C   0  0  0  0  0  0  0  0  0  0  0  0
  134.2028  -44.3438  265.7931 N   0  0  0  0  0  0  0  0  0  0  0  0
  133.7085  -43.1407  266.0941 C   0  0  0  0  0  0  0  0  0  0  0  0
  134.2606  -41.9658  265.6752 N   0  0  0  0  0  0  0  0  0  0  0  0
  135.3663  -42.0557  264.9165 C   0  0  0  0  0  0  0  0  0  0  0  0
  1  2  2  0
  1 10  1  0
  2  3  1  0
  2  7  1  0
  3  4  1  0
  3  5  1  0
  5  6  2  0
  6  7  1  0
  7  8  2  0
  8  9  1  0
  9 10  2  0
 10 11  1  0
 11 12  2  0
 11 13  1  0
 12 20  1  0
 13 14  2  0
 13 18  1  0
 14 15  1  0
 15 16  2  0
 16 17  1  0
 17 18  2  0
 18 19  1  0
 19 20  2  0
 20 21  1  0
 21 22  1  0
 22 23  2  0
 22 27  1  0
 23 24  1  0
 24 25  2  0
 25 26  1  0
 26 27  2  0
 27 28  1  0
 28 29  2  0
 28 30  1  0
 30 31  1  0
 31 32  2  0
 31 36  1  0
 32 33  1  0
 33 34  2  0
 34 35  1  0
 35 36  2  0
M  END
$$$$
