
     RDKit          3D

 36 41  0  0  0  0  0  0  0  0999 V2000
  142.5660  -37.2779  266.3079 C   0  0  0  0  0  0  0  0  0  0  0  0
  142.7031  -36.0495  266.9236 C   0  0  0  0  0  0  0  0  0  0  0  0
  142.0662  -35.4119  267.9150 N   0  0  0  0  0  0  0  0  0  0  0  0
  140.9487  -35.9338  268.6580 C   0  0  0  0  0  0  0  0  0  0  0  0
  142.6344  -34.2162  268.1024 C   0  0  0  0  0  0  0  0  0  0  0  0
  143.6695  -34.0877  267.1988 C   0  0  0  0  0  0  0  0  0  0  0  0
  143.7331  -35.2356  266.4411 C   0  0  0  0  0  0  0  0  0  0  0  0
  144.5612  -35.6407  265.4102 C   0  0  0  0  0  0  0  0  0  0  0  0
  144.3676  -36.8833  264.8395 C   0  0  0  0  0  0  0  0  0  0  0  0
  143.3605  -37.7223  265.2849 C   0  0  0  0  0  0  0  0  0  0  0  0
  143.1283  -39.0412  264.7052 C   0  0  0  0  0  0  0  0  0  0  0  0
  141.8680  -39.4072  264.2635 C   0  0  0  0  0  0  0  0  0  0  0  0
  144.1234  -39.9854  264.5623 C   0  0  0  0  0  0  0  0  0  0  0  0
  145.3494  -39.6955  264.9657 N   0  0  0  0  0  0  0  0  0  0  0  0
  146.3566  -40.5745  264.8515 C   0  0  0  0  0  0  0  0  0  0  0  0
  146.1357  -41.8188  264.3035 C   0  0  0  0  0  0  0  0  0  0  0  0
  144.8974  -42.1285  263.8893 N   0  0  0  0  0  0  0  0  0  0  0  0
  143.9011  -41.2382  264.0104 C   0  0  0  0  0  0  0  0  0  0  0  0
  142.6289  -41.5734  263.5782 C   0  0  0  0  0  0  0  0  0  0  0  0
  141.6134  -40.6473  263.7092 C   0  0  0  0  0  0  0  0  0  0  0  0
  140.3121  -41.0064  263.2652 N   0  0  0  0  0  0  0  0  0  0  0  0
  139.6909  -42.1399  263.8837 C   0  0  0  0  0  0  0  0  0  0  0  0
  140.2268  -42.6669  265.0479 C   0  0  0  0  0  0  0  0  0  0  0  0
  139.6366  -43.7241  265.6228 N   0  0  0  0  0  0  0  0  0  0  0  0
  138.5370  -44.2849  265.0964 C   0  0  0  0  0  0  0  0  0  0  0  0
  137.9881  -43.7729  263.9328 C   0  0  0  0  0  0  0  0  0  0  0  0
  138.5753  -42.6802  263.3121 C   0  0  0  0  0  0  0  0  0  0  0  0
  138.0046  -42.2475  262.0513 C   0  0  0  0  0  0  0  0  0  0  0  0
  138.4801  -41.2333  261.4789 O   0  0  0  0  0  0  0  0  0  0  0  0
  136.9253  -42.8773  261.3792 N   0  0  0  0  0  0  0  0  0  0  0  0
  136.4777  -42.4128  260.1061 C   0  0  0  0  0  0  0  0  0  0  0  0
  136.9605  -41.2167  259.6371 C   0  0  0  0  0  0  0  0  0  0  0  0
  136.5175  -40.7965  258.4209 N   0  0  0  0  0  0  0  0  0  0  0  0
  135.6411  -41.5331  257.7162 C   0  0  0  0  0  0  0  0  0  0  0  0
  135.1582  -42.7019  258.1556 N   0  0  0  0  0  0  0  0  0  0  0  0
  135.5863  -43.1481  259.3743 C   0  0  0  0  0  0  0  0  0  0  0  0
  1  2  2  0
  1 10  1  0
  2  3  1  0
  2  7  1  0
  4  3  1  6
  3  5  1  0
  5  6  2  0
  6  7  1  0
  7  8  2  0
  8  9  1  0
  9 10  2  0
 10 11  1  0
 11 12  2  0
 11 13  1  0
 12 20  1  0
 13 14  2  0
 13 18  1  0
 14 15  1  0
 15 16  2  0
 16 17  1  0
 17 18  2  0
 18 19  1  0
 19 20  2  0
 20 21  1  0
 21 22  1  0
 22 23  2  0
 22 27  1  0
 23 24  1  0
 24 25  2  0
 25 26  1  0
 26 27  2  0
 27 28  1  0
 28 29  2  0
 28 30  1  0
 30 31  1  0
 31 32  2  0
 31 36  1  0
 32 33  1  0
 33 34  2  0
 34 35  1  0
 35 36  2  0
M  END
$$$$
