
     RDKit          3D

 36 41  0  0  0  0  0  0  0  0999 V2000
  142.7978  -37.2345  266.3577 C   0  0  0  0  0  0  0  0  0  0  0  0
  143.0764  -36.0240  266.9610 C   0  0  0  0  0  0  0  0  0  0  0  0
  142.5874  -35.3579  268.0156 N   0  0  0  0  0  0  0  0  0  0  0  0
  141.5211  -35.8156  268.8681 C   0  0  0  0  0  0  0  0  0  0  0  0
  143.2477  -34.2028  268.1482 C   0  0  0  0  0  0  0  0  0  0  0  0
  144.1903  -34.1307  267.1428 C   0  0  0  0  0  0  0  0  0  0  0  0
  144.1015  -35.2721  266.3779 C   0  0  0  0  0  0  0  0  0  0  0  0
  144.7912  -35.7179  265.2651 C   0  0  0  0  0  0  0  0  0  0  0  0
  144.4603  -36.9395  264.7124 C   0  0  0  0  0  0  0  0  0  0  0  0
  143.4525  -37.7174  265.2562 C   0  0  0  0  0  0  0  0  0  0  0  0
  143.0774  -39.0126  264.6981 C   0  0  0  0  0  0  0  0  0  0  0  0
  141.7677  -39.2713  264.3307 C   0  0  0  0  0  0  0  0  0  0  0  0
  143.9797  -40.0376  264.5044 C   0  0  0  0  0  0  0  0  0  0  0  0
  145.2467  -39.8518  264.8360 N   0  0  0  0  0  0  0  0  0  0  0  0
  146.1682  -40.8128  264.6700 C   0  0  0  0  0  0  0  0  0  0  0  0
  145.8124  -42.0344  264.1425 C   0  0  0  0  0  0  0  0  0  0  0  0
  144.5309  -42.2389  263.8009 N   0  0  0  0  0  0  0  0  0  0  0  0
  143.6216  -41.2676  263.9733 C   0  0  0  0  0  0  0  0  0  0  0  0
  142.3032  -41.4947  263.6158 C   0  0  0  0  0  0  0  0  0  0  0  0
  141.3784  -40.4861  263.7989 C   0  0  0  0  0  0  0  0  0  0  0  0
  140.0283  -40.7345  263.4314 N   0  0  0  0  0  0  0  0  0  0  0  0
  139.7958  -41.5568  262.2811 C   0  0  0  0  0  0  0  0  0  0  0  0
  140.7193  -41.5700  261.2481 C   0  0  0  0  0  0  0  0  0  0  0  0
  140.4967  -42.3459  260.1781 N   0  0  0  0  0  0  0  0  0  0  0  0
  139.3985  -43.1113  260.0838 C   0  0  0  0  0  0  0  0  0  0  0  0
  138.4639  -43.1100  261.1054 C   0  0  0  0  0  0  0  0  0  0  0  0
  138.6636  -42.3174  262.2261 C   0  0  0  0  0  0  0  0  0  0  0  0
  137.6071  -42.2937  263.2189 C   0  0  0  0  0  0  0  0  0  0  0  0
  137.1934  -41.1860  263.6480 O   0  0  0  0  0  0  0  0  0  0  0  0
  136.9746  -43.4368  263.7724 N   0  0  0  0  0  0  0  0  0  0  0  0
  135.9577  -43.3085  264.7656 C   0  0  0  0  0  0  0  0  0  0  0  0
  135.9686  -44.1731  265.8315 C   0  0  0  0  0  0  0  0  0  0  0  0
  134.9877  -44.0295  266.7639 N   0  0  0  0  0  0  0  0  0  0  0  0
  134.0505  -43.0745  266.6346 C   0  0  0  0  0  0  0  0  0  0  0  0
  134.0222  -42.2216  265.6031 N   0  0  0  0  0  0  0  0  0  0  0  0
  134.9955  -42.3430  264.6516 C   0  0  0  0  0  0  0  0  0  0  0  0
  1  2  2  0
  1 10  1  0
  2  3  1  0
  2  7  1  0
  4  3  1  6
  3  5  1  0
  5  6  2  0
  6  7  1  0
  7  8  2  0
  8  9  1  0
  9 10  2  0
 10 11  1  0
 11 12  2  0
 11 13  1  0
 12 20  1  0
 13 14  2  0
 13 18  1  0
 14 15  1  0
 15 16  2  0
 16 17  1  0
 17 18  2  0
 18 19  1  0
 19 20  2  0
 20 21  1  0
 21 22  1  0
 22 23  2  0
 22 27  1  0
 23 24  1  0
 24 25  2  0
 25 26  1  0
 26 27  2  0
 27 28  1  0
 28 29  2  0
 28 30  1  0
 30 31  1  0
 31 32  2  0
 31 36  1  0
 32 33  1  0
 33 34  2  0
 34 35  1  0
 35 36  2  0
M  END
$$$$
