
     RDKit          3D

 36 41  0  0  0  0  0  0  0  0999 V2000
  142.7330  -37.1157  266.2780 C   0  0  0  0  0  0  0  0  0  0  0  0
  143.1340  -35.9345  266.8852 C   0  0  0  0  0  0  0  0  0  0  0  0
  142.7096  -35.2285  267.9463 N   0  0  0  0  0  0  0  0  0  0  0  0
  141.5818  -35.6529  268.7622 C   0  0  0  0  0  0  0  0  0  0  0  0
  143.4324  -34.1356  268.1382 C   0  0  0  0  0  0  0  0  0  0  0  0
  144.3957  -34.1042  267.1530 C   0  0  0  0  0  0  0  0  0  0  0  0
  144.2083  -35.2267  266.3723 C   0  0  0  0  0  0  0  0  0  0  0  0
  144.8556  -35.7238  265.2588 C   0  0  0  0  0  0  0  0  0  0  0  0
  144.4342  -36.9171  264.6626 C   0  0  0  0  0  0  0  0  0  0  0  0
  143.3655  -37.6301  265.1650 C   0  0  0  0  0  0  0  0  0  0  0  0
  142.9396  -38.8749  264.5286 C   0  0  0  0  0  0  0  0  0  0  0  0
  141.6431  -39.0882  264.1110 C   0  0  0  0  0  0  0  0  0  0  0  0
  143.8357  -39.9023  264.3179 C   0  0  0  0  0  0  0  0  0  0  0  0
  145.1271  -39.7267  264.7180 N   0  0  0  0  0  0  0  0  0  0  0  0
  146.0142  -40.7233  264.5181 C   0  0  0  0  0  0  0  0  0  0  0  0
  145.6734  -41.9199  263.9238 C   0  0  0  0  0  0  0  0  0  0  0  0
  144.4020  -42.0891  263.5314 N   0  0  0  0  0  0  0  0  0  0  0  0
  143.5215  -41.0943  263.7322 C   0  0  0  0  0  0  0  0  0  0  0  0
  142.1911  -41.2607  263.3262 C   0  0  0  0  0  0  0  0  0  0  0  0
  141.2415  -40.2831  263.5019 C   0  0  0  0  0  0  0  0  0  0  0  0
  139.8857  -40.4797  263.1186 N   0  0  0  0  0  0  0  0  0  0  0  0
  139.5284  -41.3531  262.1015 C   0  0  0  0  0  0  0  0  0  0  0  0
  140.4055  -41.4921  261.0173 C   0  0  0  0  0  0  0  0  0  0  0  0
  140.1819  -42.3140  259.9866 N   0  0  0  0  0  0  0  0  0  0  0  0
  139.0703  -43.0578  259.9563 C   0  0  0  0  0  0  0  0  0  0  0  0
  138.1831  -42.9476  261.0055 C   0  0  0  0  0  0  0  0  0  0  0  0
  138.3924  -42.1045  262.0838 C   0  0  0  0  0  0  0  0  0  0  0  0
  137.4219  -42.0606  263.1393 C   0  0  0  0  0  0  0  0  0  0  0  0
  137.0202  -40.9724  263.6305 O   0  0  0  0  0  0  0  0  0  0  0  0
  136.8275  -43.2246  263.7249 N   0  0  0  0  0  0  0  0  0  0  0  0
  135.6752  -43.0955  264.5854 C   0  0  0  0  0  0  0  0  0  0  0  0
  134.8801  -44.1959  264.8140 C   0  0  0  0  0  0  0  0  0  0  0  0
  133.7840  -44.0973  265.6252 N   0  0  0  0  0  0  0  0  0  0  0  0
  133.5095  -42.9162  266.1835 C   0  0  0  0  0  0  0  0  0  0  0  0
  134.2602  -41.7931  265.9937 N   0  0  0  0  0  0  0  0  0  0  0  0
  135.3327  -41.9129  265.1927 C   0  0  0  0  0  0  0  0  0  0  0  0
  1  2  2  0
  1 10  1  0
  2  3  1  0
  2  7  1  0
  3  4  1  0
  3  5  1  0
  5  6  2  0
  6  7  1  0
  7  8  2  0
  8  9  1  0
  9 10  2  0
 10 11  1  0
 11 12  2  0
 11 13  1  0
 12 20  1  0
 13 14  2  0
 13 18  1  0
 14 15  1  0
 15 16  2  0
 16 17  1  0
 17 18  2  0
 18 19  1  0
 19 20  2  0
 20 21  1  0
 21 22  1  0
 22 23  2  0
 22 27  1  0
 23 24  1  0
 24 25  2  0
 25 26  1  0
 26 27  2  0
 27 28  1  0
 28 29  2  0
 28 30  1  0
 30 31  1  0
 31 32  2  0
 31 36  1  0
 32 33  1  0
 33 34  2  0
 34 35  1  0
 35 36  2  0
M  END
$$$$
