
     RDKit          3D

 36 41  0  0  0  0  0  0  0  0999 V2000
  142.2818  -36.7262  265.3453 C   0  0  0  0  0  0  0  0  0  0  0  0
  142.6349  -35.5641  266.0158 C   0  0  0  0  0  0  0  0  0  0  0  0
  142.0883  -34.3430  266.1382 N   0  0  0  0  0  0  0  0  0  0  0  0
  140.8393  -33.9810  265.4850 C   0  0  0  0  0  0  0  0  0  0  0  0
  142.8163  -33.5466  266.9060 C   0  0  0  0  0  0  0  0  0  0  0  0
  143.9124  -34.2707  267.3231 C   0  0  0  0  0  0  0  0  0  0  0  0
  143.7979  -35.5286  266.7672 C   0  0  0  0  0  0  0  0  0  0  0  0
  144.5803  -36.6645  266.8270 C   0  0  0  0  0  0  0  0  0  0  0  0
  144.2050  -37.8256  266.1428 C   0  0  0  0  0  0  0  0  0  0  0  0
  143.0489  -37.8719  265.3917 C   0  0  0  0  0  0  0  0  0  0  0  0
  142.6731  -39.0941  264.6837 C   0  0  0  0  0  0  0  0  0  0  0  0
  141.3742  -39.3641  264.3088 C   0  0  0  0  0  0  0  0  0  0  0  0
  143.6219  -40.0410  264.3580 C   0  0  0  0  0  0  0  0  0  0  0  0
  144.9174  -39.8077  264.7129 N   0  0  0  0  0  0  0  0  0  0  0  0
  145.8557  -40.7253  264.4006 C   0  0  0  0  0  0  0  0  0  0  0  0
  145.5637  -41.8968  263.7345 C   0  0  0  0  0  0  0  0  0  0  0  0
  144.2882  -42.1229  263.3869 N   0  0  0  0  0  0  0  0  0  0  0  0
  143.3566  -41.2067  263.6996 C   0  0  0  0  0  0  0  0  0  0  0  0
  142.0214  -41.4331  263.3412 C   0  0  0  0  0  0  0  0  0  0  0  0
  141.0207  -40.5368  263.6307 C   0  0  0  0  0  0  0  0  0  0  0  0
  139.6633  -40.7966  263.2938 N   0  0  0  0  0  0  0  0  0  0  0  0
  139.3134  -41.5943  262.2139 C   0  0  0  0  0  0  0  0  0  0  0  0
  140.2220  -41.6967  261.1517 C   0  0  0  0  0  0  0  0  0  0  0  0
  140.0078  -42.4467  260.0658 N   0  0  0  0  0  0  0  0  0  0  0  0
  138.8751  -43.1498  259.9542 C   0  0  0  0  0  0  0  0  0  0  0  0
  137.9566  -43.0737  260.9794 C   0  0  0  0  0  0  0  0  0  0  0  0
  138.1556  -42.3049  262.1136 C   0  0  0  0  0  0  0  0  0  0  0  0
  137.1518  -42.2927  263.1383 C   0  0  0  0  0  0  0  0  0  0  0  0
  136.9072  -41.2616  263.8195 O   0  0  0  0  0  0  0  0  0  0  0  0
  136.3466  -43.4269  263.4794 N   0  0  0  0  0  0  0  0  0  0  0  0
  135.3078  -43.3058  264.4750 C   0  0  0  0  0  0  0  0  0  0  0  0
  134.7937  -44.4450  265.0523 C   0  0  0  0  0  0  0  0  0  0  0  0
  133.8096  -44.3546  265.9971 N   0  0  0  0  0  0  0  0  0  0  0  0
  133.3662  -43.1432  266.3405 C   0  0  0  0  0  0  0  0  0  0  0  0
  133.8373  -41.9811  265.8033 N   0  0  0  0  0  0  0  0  0  0  0  0
  134.8042  -42.0934  264.8766 C   0  0  0  0  0  0  0  0  0  0  0  0
  1  2  2  0
  1 10  1  0
  2  3  1  0
  2  7  1  0
  3  4  1  0
  3  5  1  0
  5  6  2  0
  6  7  1  0
  7  8  2  0
  8  9  1  0
  9 10  2  0
 10 11  1  0
 11 12  2  0
 11 13  1  0
 12 20  1  0
 13 14  2  0
 13 18  1  0
 14 15  1  0
 15 16  2  0
 16 17  1  0
 17 18  2  0
 18 19  1  0
 19 20  2  0
 20 21  1  0
 21 22  1  0
 22 23  2  0
 22 27  1  0
 23 24  1  0
 24 25  2  0
 25 26  1  0
 26 27  2  0
 27 28  1  0
 28 29  2  0
 28 30  1  0
 30 31  1  0
 31 32  2  0
 31 36  1  0
 32 33  1  0
 33 34  2  0
 34 35  1  0
 35 36  2  0
M  END
$$$$
