
     RDKit          3D

 36 41  0  0  0  0  0  0  0  0999 V2000
  142.7579  -37.2458  266.4203 C   0  0  0  0  0  0  0  0  0  0  0  0
  142.9848  -36.0204  267.0152 C   0  0  0  0  0  0  0  0  0  0  0  0
  142.4766  -35.3738  268.0728 N   0  0  0  0  0  0  0  0  0  0  0  0
  141.4438  -35.8785  268.9399 C   0  0  0  0  0  0  0  0  0  0  0  0
  143.0820  -34.1876  268.1928 C   0  0  0  0  0  0  0  0  0  0  0  0
  144.0081  -34.0749  267.1759 C   0  0  0  0  0  0  0  0  0  0  0  0
  143.9655  -35.2228  266.4168 C   0  0  0  0  0  0  0  0  0  0  0  0
  144.6629  -35.6399  265.2977 C   0  0  0  0  0  0  0  0  0  0  0  0
  144.3848  -36.8786  264.7540 C   0  0  0  0  0  0  0  0  0  0  0  0
  143.4222  -37.7017  265.3130 C   0  0  0  0  0  0  0  0  0  0  0  0
  143.1035  -39.0161  264.7647 C   0  0  0  0  0  0  0  0  0  0  0  0
  141.7971  -39.3548  264.4548 C   0  0  0  0  0  0  0  0  0  0  0  0
  144.0581  -39.9822  264.5248 C   0  0  0  0  0  0  0  0  0  0  0  0
  145.3248  -39.7188  264.8004 N   0  0  0  0  0  0  0  0  0  0  0  0
  146.2958  -40.6200  264.5877 C   0  0  0  0  0  0  0  0  0  0  0  0
  145.9932  -41.8599  264.0695 C   0  0  0  0  0  0  0  0  0  0  0  0
  144.7127  -42.1428  263.7845 N   0  0  0  0  0  0  0  0  0  0  0  0
  143.7536  -41.2306  264.0031 C   0  0  0  0  0  0  0  0  0  0  0  0
  142.4370  -41.5383  263.7037 C   0  0  0  0  0  0  0  0  0  0  0  0
  141.4606  -40.5898  263.9339 C   0  0  0  0  0  0  0  0  0  0  0  0
  140.1133  -40.9208  263.6258 N   0  0  0  0  0  0  0  0  0  0  0  0
  139.5642  -42.0957  264.2354 C   0  0  0  0  0  0  0  0  0  0  0  0
  140.2887  -42.7685  265.2063 C   0  0  0  0  0  0  0  0  0  0  0  0
  139.7657  -43.8637  265.7750 N   0  0  0  0  0  0  0  0  0  0  0  0
  138.5548  -44.3245  265.4254 C   0  0  0  0  0  0  0  0  0  0  0  0
  137.8169  -43.6664  264.4561 C   0  0  0  0  0  0  0  0  0  0  0  0
  138.3300  -42.5306  263.8470 C   0  0  0  0  0  0  0  0  0  0  0  0
  137.5473  -41.9393  262.7791 C   0  0  0  0  0  0  0  0  0  0  0  0
  137.7520  -40.7398  262.4605 O   0  0  0  0  0  0  0  0  0  0  0  0
  136.5388  -42.6044  262.0350 N   0  0  0  0  0  0  0  0  0  0  0  0
  135.8649  -41.9520  260.9593 C   0  0  0  0  0  0  0  0  0  0  0  0
  135.6553  -42.6503  259.7964 C   0  0  0  0  0  0  0  0  0  0  0  0
  135.0110  -42.0050  258.7863 N   0  0  0  0  0  0  0  0  0  0  0  0
  134.6007  -40.7333  258.9339 C   0  0  0  0  0  0  0  0  0  0  0  0
  134.7953  -40.0350  260.0594 N   0  0  0  0  0  0  0  0  0  0  0  0
  135.4400  -40.6585  261.0904 C   0  0  0  0  0  0  0  0  0  0  0  0
  1  2  2  0
  1 10  1  0
  2  3  1  0
  2  7  1  0
  4  3  1  6
  3  5  1  0
  5  6  2  0
  6  7  1  0
  7  8  2  0
  8  9  1  0
  9 10  2  0
 10 11  1  0
 11 12  2  0
 11 13  1  0
 12 20  1  0
 13 14  2  0
 13 18  1  0
 14 15  1  0
 15 16  2  0
 16 17  1  0
 17 18  2  0
 18 19  1  0
 19 20  2  0
 20 21  1  0
 21 22  1  0
 22 23  2  0
 22 27  1  0
 23 24  1  0
 24 25  2  0
 25 26  1  0
 26 27  2  0
 27 28  1  0
 28 29  2  0
 28 30  1  0
 30 31  1  0
 31 32  2  0
 31 36  1  0
 32 33  1  0
 33 34  2  0
 34 35  1  0
 35 36  2  0
M  END
$$$$
