
     RDKit          3D

 36 41  0  0  0  0  0  0  0  0999 V2000
  143.4841  -36.3384  265.1137 C   0  0  0  0  0  0  0  0  0  0  0  0
  143.8022  -35.1892  265.8228 C   0  0  0  0  0  0  0  0  0  0  0  0
  144.3483  -34.0044  265.5023 N   0  0  0  0  0  0  0  0  0  0  0  0
  144.7611  -33.6799  264.1451 C   0  0  0  0  0  0  0  0  0  0  0  0
  144.4541  -33.2048  266.5526 C   0  0  0  0  0  0  0  0  0  0  0  0
  143.9520  -33.8883  267.6391 C   0  0  0  0  0  0  0  0  0  0  0  0
  143.5459  -35.1257  267.1824 C   0  0  0  0  0  0  0  0  0  0  0  0
  142.9747  -36.2211  267.7986 C   0  0  0  0  0  0  0  0  0  0  0  0
  142.6621  -37.3699  267.0640 C   0  0  0  0  0  0  0  0  0  0  0  0
  142.9130  -37.4439  265.7095 C   0  0  0  0  0  0  0  0  0  0  0  0
  142.5795  -38.6526  264.9586 C   0  0  0  0  0  0  0  0  0  0  0  0
  141.3417  -38.8512  264.3850 C   0  0  0  0  0  0  0  0  0  0  0  0
  143.5083  -39.6589  264.7925 C   0  0  0  0  0  0  0  0  0  0  0  0
  144.7437  -39.4971  265.3459 N   0  0  0  0  0  0  0  0  0  0  0  0
  145.6618  -40.4734  265.1913 C   0  0  0  0  0  0  0  0  0  0  0  0
  145.4075  -41.6358  264.4946 C   0  0  0  0  0  0  0  0  0  0  0  0
  144.1910  -41.7915  263.9514 N   0  0  0  0  0  0  0  0  0  0  0  0
  143.2793  -40.8170  264.1076 C   0  0  0  0  0  0  0  0  0  0  0  0
  142.0058  -40.9697  263.5444 C   0  0  0  0  0  0  0  0  0  0  0  0
  141.0285  -40.0114  263.6668 C   0  0  0  0  0  0  0  0  0  0  0  0
  139.7276  -40.1957  263.1216 N   0  0  0  0  0  0  0  0  0  0  0  0
  139.4630  -41.1614  262.1611 C   0  0  0  0  0  0  0  0  0  0  0  0
  140.4797  -41.4765  261.2495 C   0  0  0  0  0  0  0  0  0  0  0  0
  140.3527  -42.4002  260.2912 N   0  0  0  0  0  0  0  0  0  0  0  0
  139.2064  -43.0787  260.1671 C   0  0  0  0  0  0  0  0  0  0  0  0
  138.1827  -42.7957  261.0459 C   0  0  0  0  0  0  0  0  0  0  0  0
  138.2900  -41.8445  262.0464 C   0  0  0  0  0  0  0  0  0  0  0  0
  137.1785  -41.6219  262.9255 C   0  0  0  0  0  0  0  0  0  0  0  0
  136.7934  -40.4624  263.2326 O   0  0  0  0  0  0  0  0  0  0  0  0
  136.4143  -42.6734  263.5267 N   0  0  0  0  0  0  0  0  0  0  0  0
  135.1847  -42.3708  264.2205 C   0  0  0  0  0  0  0  0  0  0  0  0
  135.0355  -41.1398  264.8186 C   0  0  0  0  0  0  0  0  0  0  0  0
  133.8800  -40.8312  265.4810 N   0  0  0  0  0  0  0  0  0  0  0  0
  132.9107  -41.7477  265.5309 C   0  0  0  0  0  0  0  0  0  0  0  0
  133.0020  -42.9823  264.9578 N   0  0  0  0  0  0  0  0  0  0  0  0
  134.1464  -43.2643  264.3119 C   0  0  0  0  0  0  0  0  0  0  0  0
  1  2  2  0
  1 10  1  0
  2  3  1  0
  2  7  1  0
  3  4  1  0
  3  5  1  0
  5  6  2  0
  6  7  1  0
  7  8  2  0
  8  9  1  0
  9 10  2  0
 10 11  1  0
 11 12  2  0
 11 13  1  0
 12 20  1  0
 13 14  2  0
 13 18  1  0
 14 15  1  0
 15 16  2  0
 16 17  1  0
 17 18  2  0
 18 19  1  0
 19 20  2  0
 20 21  1  0
 21 22  1  0
 22 23  2  0
 22 27  1  0
 23 24  1  0
 24 25  2  0
 25 26  1  0
 26 27  2  0
 27 28  1  0
 28 29  2  0
 28 30  1  0
 30 31  1  0
 31 32  2  0
 31 36  1  0
 32 33  1  0
 33 34  2  0
 34 35  1  0
 35 36  2  0
M  END
$$$$
