
     RDKit          3D

 36 41  0  0  0  0  0  0  0  0999 V2000
  142.7860  -37.1202  266.2010 C   0  0  0  0  0  0  0  0  0  0  0  0
  143.1542  -35.9284  266.8084 C   0  0  0  0  0  0  0  0  0  0  0  0
  142.7167  -35.2395  267.8755 N   0  0  0  0  0  0  0  0  0  0  0  0
  141.6104  -35.7023  268.6998 C   0  0  0  0  0  0  0  0  0  0  0  0
  143.4057  -34.1245  268.0646 C   0  0  0  0  0  0  0  0  0  0  0  0
  144.3588  -34.0593  267.0711 C   0  0  0  0  0  0  0  0  0  0  0  0
  144.2007  -35.1849  266.2884 C   0  0  0  0  0  0  0  0  0  0  0  0
  144.8538  -35.6577  265.1678 C   0  0  0  0  0  0  0  0  0  0  0  0
  144.4657  -36.8622  264.5714 C   0  0  0  0  0  0  0  0  0  0  0  0
  143.4249  -37.6106  265.0809 C   0  0  0  0  0  0  0  0  0  0  0  0
  143.0336  -38.8667  264.4442 C   0  0  0  0  0  0  0  0  0  0  0  0
  141.7478  -39.1085  264.0096 C   0  0  0  0  0  0  0  0  0  0  0  0
  143.9536  -39.8762  264.2506 C   0  0  0  0  0  0  0  0  0  0  0  0
  145.2353  -39.6723  264.6678 N   0  0  0  0  0  0  0  0  0  0  0  0
  146.1454  -40.6513  264.4847 C   0  0  0  0  0  0  0  0  0  0  0  0
  145.8377  -41.8572  263.8912 C   0  0  0  0  0  0  0  0  0  0  0  0
  144.5756  -42.0542  263.4820 N   0  0  0  0  0  0  0  0  0  0  0  0
  143.6721  -41.0769  263.6660 C   0  0  0  0  0  0  0  0  0  0  0  0
  142.3513  -41.2725  263.2423 C   0  0  0  0  0  0  0  0  0  0  0  0
  141.3793  -40.3139  263.4004 C   0  0  0  0  0  0  0  0  0  0  0  0
  140.0334  -40.5401  262.9993 N   0  0  0  0  0  0  0  0  0  0  0  0
  139.7090  -41.4184  261.9754 C   0  0  0  0  0  0  0  0  0  0  0  0
  140.6266  -41.5725  260.9273 C   0  0  0  0  0  0  0  0  0  0  0  0
  140.4366  -42.4004  259.8947 N   0  0  0  0  0  0  0  0  0  0  0  0
  139.3213  -43.1359  259.8265 C   0  0  0  0  0  0  0  0  0  0  0  0
  138.3947  -43.0109  260.8395 C   0  0  0  0  0  0  0  0  0  0  0  0
  138.5686  -42.1612  261.9189 C   0  0  0  0  0  0  0  0  0  0  0  0
  137.5581  -42.1018  262.9354 C   0  0  0  0  0  0  0  0  0  0  0  0
  137.3060  -41.0392  263.5633 O   0  0  0  0  0  0  0  0  0  0  0  0
  136.7543  -43.2206  263.3271 N   0  0  0  0  0  0  0  0  0  0  0  0
  135.6467  -43.0355  264.2347 C   0  0  0  0  0  0  0  0  0  0  0  0
  135.4698  -41.8109  264.8387 C   0  0  0  0  0  0  0  0  0  0  0  0
  134.4281  -41.6126  265.7017 N   0  0  0  0  0  0  0  0  0  0  0  0
  133.5962  -42.6291  265.9396 C   0  0  0  0  0  0  0  0  0  0  0  0
  133.7216  -43.8627  265.3710 N   0  0  0  0  0  0  0  0  0  0  0  0
  134.7524  -44.0355  264.5261 C   0  0  0  0  0  0  0  0  0  0  0  0
  1  2  2  0
  1 10  1  0
  2  3  1  0
  2  7  1  0
  3  4  1  0
  3  5  1  0
  5  6  2  0
  6  7  1  0
  7  8  2  0
  8  9  1  0
  9 10  2  0
 10 11  1  0
 11 12  2  0
 11 13  1  0
 12 20  1  0
 13 14  2  0
 13 18  1  0
 14 15  1  0
 15 16  2  0
 16 17  1  0
 17 18  2  0
 18 19  1  0
 19 20  2  0
 20 21  1  0
 21 22  1  0
 22 23  2  0
 22 27  1  0
 23 24  1  0
 24 25  2  0
 25 26  1  0
 26 27  2  0
 27 28  1  0
 28 29  2  0
 28 30  1  0
 30 31  1  0
 31 32  2  0
 31 36  1  0
 32 33  1  0
 33 34  2  0
 34 35  1  0
 35 36  2  0
M  END
$$$$
