
     RDKit          3D

 36 41  0  0  0  0  0  0  0  0999 V2000
  142.8109  -36.9711  266.1644 C   0  0  0  0  0  0  0  0  0  0  0  0
  143.1180  -35.7287  266.7002 C   0  0  0  0  0  0  0  0  0  0  0  0
  142.6376  -34.9963  267.7188 N   0  0  0  0  0  0  0  0  0  0  0  0
  141.5439  -35.4578  268.5605 C   0  0  0  0  0  0  0  0  0  0  0  0
  143.2734  -33.8415  267.8446 C   0  0  0  0  0  0  0  0  0  0  0  0
  144.2339  -33.7938  266.8573 C   0  0  0  0  0  0  0  0  0  0  0  0
  144.1358  -34.9714  266.1444 C   0  0  0  0  0  0  0  0  0  0  0  0
  144.8224  -35.4817  265.0609 C   0  0  0  0  0  0  0  0  0  0  0  0
  144.4959  -36.7370  264.5367 C   0  0  0  0  0  0  0  0  0  0  0  0
  143.4842  -37.4996  265.0825 C   0  0  0  0  0  0  0  0  0  0  0  0
  143.1573  -38.8089  264.5212 C   0  0  0  0  0  0  0  0  0  0  0  0
  141.8668  -39.1809  264.2101 C   0  0  0  0  0  0  0  0  0  0  0  0
  144.1465  -39.7390  264.2773 C   0  0  0  0  0  0  0  0  0  0  0  0
  145.4350  -39.4057  264.5726 N   0  0  0  0  0  0  0  0  0  0  0  0
  146.4125  -40.3058  264.3391 C   0  0  0  0  0  0  0  0  0  0  0  0
  146.1675  -41.5561  263.8119 C   0  0  0  0  0  0  0  0  0  0  0  0
  144.8987  -41.8805  263.5226 N   0  0  0  0  0  0  0  0  0  0  0  0
  143.9279  -40.9815  263.7565 C   0  0  0  0  0  0  0  0  0  0  0  0
  142.5994  -41.3102  263.4579 C   0  0  0  0  0  0  0  0  0  0  0  0
  141.5603  -40.4368  263.6727 C   0  0  0  0  0  0  0  0  0  0  0  0
  140.2115  -40.7973  263.3997 N   0  0  0  0  0  0  0  0  0  0  0  0
  139.8662  -41.5790  262.3066 C   0  0  0  0  0  0  0  0  0  0  0  0
  140.8071  -41.7209  261.2776 C   0  0  0  0  0  0  0  0  0  0  0  0
  140.5994  -42.4608  260.1834 N   0  0  0  0  0  0  0  0  0  0  0  0
  139.4419  -43.1137  260.0302 C   0  0  0  0  0  0  0  0  0  0  0  0
  138.4914  -42.9976  261.0218 C   0  0  0  0  0  0  0  0  0  0  0  0
  138.6828  -42.2383  262.1637 C   0  0  0  0  0  0  0  0  0  0  0  0
  137.6443  -42.1822  263.1517 C   0  0  0  0  0  0  0  0  0  0  0  0
  137.8979  -42.0508  264.3786 O   0  0  0  0  0  0  0  0  0  0  0  0
  136.2477  -42.2679  262.8463 N   0  0  0  0  0  0  0  0  0  0  0  0
  135.2728  -42.2941  263.9110 C   0  0  0  0  0  0  0  0  0  0  0  0
  133.9611  -41.9847  263.6295 C   0  0  0  0  0  0  0  0  0  0  0  0
  133.0207  -42.0030  264.6217 N   0  0  0  0  0  0  0  0  0  0  0  0
  133.4063  -42.3261  265.8583 C   0  0  0  0  0  0  0  0  0  0  0  0
  134.6898  -42.6414  266.1960 N   0  0  0  0  0  0  0  0  0  0  0  0
  135.5976  -42.6171  265.2052 C   0  0  0  0  0  0  0  0  0  0  0  0
  1  2  2  0
  1 10  1  0
  2  3  1  0
  2  7  1  0
  3  4  1  0
  3  5  1  0
  5  6  2  0
  6  7  1  0
  7  8  2  0
  8  9  1  0
  9 10  2  0
 10 11  1  0
 11 12  2  0
 11 13  1  0
 12 20  1  0
 13 14  2  0
 13 18  1  0
 14 15  1  0
 15 16  2  0
 16 17  1  0
 17 18  2  0
 18 19  1  0
 19 20  2  0
 20 21  1  0
 21 22  1  0
 22 23  2  0
 22 27  1  0
 23 24  1  0
 24 25  2  0
 25 26  1  0
 26 27  2  0
 27 28  1  0
 28 29  2  0
 28 30  1  0
 30 31  1  0
 31 32  2  0
 31 36  1  0
 32 33  1  0
 33 34  2  0
 34 35  1  0
 35 36  2  0
M  END
$$$$
