
     RDKit          3D

 36 41  0  0  0  0  0  0  0  0999 V2000
  142.8950  -36.4998  265.5577 C   0  0  0  0  0  0  0  0  0  0  0  0
  143.2200  -35.3651  266.2744 C   0  0  0  0  0  0  0  0  0  0  0  0
  142.6507  -34.1662  266.4570 N   0  0  0  0  0  0  0  0  0  0  0  0
  141.4089  -33.7358  265.8688 C   0  0  0  0  0  0  0  0  0  0  0  0
  143.4197  -33.4360  267.2715 C   0  0  0  0  0  0  0  0  0  0  0  0
  144.5172  -34.1966  267.6198 C   0  0  0  0  0  0  0  0  0  0  0  0
  144.4137  -35.4222  267.0010 C   0  0  0  0  0  0  0  0  0  0  0  0
  145.2162  -36.5485  266.9988 C   0  0  0  0  0  0  0  0  0  0  0  0
  144.8302  -37.6490  266.2590 C   0  0  0  0  0  0  0  0  0  0  0  0
  143.6568  -37.6373  265.5247 C   0  0  0  0  0  0  0  0  0  0  0  0
  143.2187  -38.7821  264.7327 C   0  0  0  0  0  0  0  0  0  0  0  0
  141.8710  -39.0580  264.5747 C   0  0  0  0  0  0  0  0  0  0  0  0
  144.0957  -39.6420  264.1053 C   0  0  0  0  0  0  0  0  0  0  0  0
  145.3967  -39.4313  264.2188 N   0  0  0  0  0  0  0  0  0  0  0  0
  146.2960  -40.2346  263.6304 C   0  0  0  0  0  0  0  0  0  0  0  0
  145.8806  -41.3143  262.8828 C   0  0  0  0  0  0  0  0  0  0  0  0
  144.5640  -41.5419  262.7578 N   0  0  0  0  0  0  0  0  0  0  0  0
  143.6776  -40.7291  263.3524 C   0  0  0  0  0  0  0  0  0  0  0  0
  142.3224  -40.9777  263.2137 C   0  0  0  0  0  0  0  0  0  0  0  0
  141.4218  -40.1329  263.8313 C   0  0  0  0  0  0  0  0  0  0  0  0
  140.0343  -40.4026  263.6838 N   0  0  0  0  0  0  0  0  0  0  0  0
  139.6330  -41.7749  263.5885 C   0  0  0  0  0  0  0  0  0  0  0  0
  140.5871  -42.7562  263.3715 C   0  0  0  0  0  0  0  0  0  0  0  0
  140.2039  -44.0379  263.2887 N   0  0  0  0  0  0  0  0  0  0  0  0
  138.9158  -44.3934  263.4113 C   0  0  0  0  0  0  0  0  0  0  0  0
  137.9482  -43.4267  263.6270 C   0  0  0  0  0  0  0  0  0  0  0  0
  138.3113  -42.0910  263.7164 C   0  0  0  0  0  0  0  0  0  0  0  0
  137.2427  -41.1207  263.8549 C   0  0  0  0  0  0  0  0  0  0  0  0
  137.3870  -40.1590  264.6527 O   0  0  0  0  0  0  0  0  0  0  0  0
  136.0087  -41.1527  263.1552 N   0  0  0  0  0  0  0  0  0  0  0  0
  134.8919  -40.3802  263.5942 C   0  0  0  0  0  0  0  0  0  0  0  0
  135.1192  -39.3103  264.4233 C   0  0  0  0  0  0  0  0  0  0  0  0
  134.0373  -38.5906  264.8275 N   0  0  0  0  0  0  0  0  0  0  0  0
  132.7993  -38.9247  264.4238 C   0  0  0  0  0  0  0  0  0  0  0  0
  132.5562  -39.9639  263.6156 N   0  0  0  0  0  0  0  0  0  0  0  0
  133.6247  -40.7044  263.1942 C   0  0  0  0  0  0  0  0  0  0  0  0
  1  2  2  0
  1 10  1  0
  2  3  1  0
  2  7  1  0
  4  3  1  6
  3  5  1  0
  5  6  2  0
  6  7  1  0
  7  8  2  0
  8  9  1  0
  9 10  2  0
 10 11  1  0
 11 12  2  0
 11 13  1  0
 12 20  1  0
 13 14  2  0
 13 18  1  0
 14 15  1  0
 15 16  2  0
 16 17  1  0
 17 18  2  0
 18 19  1  0
 19 20  2  0
 20 21  1  0
 21 22  1  0
 22 23  2  0
 22 27  1  0
 23 24  1  0
 24 25  2  0
 25 26  1  0
 26 27  2  0
 27 28  1  0
 28 29  2  0
 28 30  1  0
 30 31  1  0
 31 32  2  0
 31 36  1  0
 32 33  1  0
 33 34  2  0
 34 35  1  0
 35 36  2  0
M  END
$$$$
