
     RDKit          3D

 36 41  0  0  0  0  0  0  0  0999 V2000
  142.4317  -37.3759  266.9359 C   0  0  0  0  0  0  0  0  0  0  0  0
  142.6277  -36.1321  267.5183 C   0  0  0  0  0  0  0  0  0  0  0  0
  142.1948  -35.5388  268.6432 N   0  0  0  0  0  0  0  0  0  0  0  0
  141.3094  -36.2083  269.5843 C   0  0  0  0  0  0  0  0  0  0  0  0
  142.6676  -34.3084  268.7706 C   0  0  0  0  0  0  0  0  0  0  0  0
  143.4619  -34.0598  267.6720 C   0  0  0  0  0  0  0  0  0  0  0  0
  143.4361  -35.1979  266.8920 C   0  0  0  0  0  0  0  0  0  0  0  0
  144.0297  -35.5368  265.6925 C   0  0  0  0  0  0  0  0  0  0  0  0
  143.8181  -36.7970  265.1232 C   0  0  0  0  0  0  0  0  0  0  0  0
  143.0150  -37.7348  265.7383 C   0  0  0  0  0  0  0  0  0  0  0  0
  142.8057  -39.0464  265.1284 C   0  0  0  0  0  0  0  0  0  0  0  0
  141.5637  -39.6402  265.0550 C   0  0  0  0  0  0  0  0  0  0  0  0
  143.8631  -39.7526  264.5933 C   0  0  0  0  0  0  0  0  0  0  0  0
  145.1065  -39.1962  264.6479 N   0  0  0  0  0  0  0  0  0  0  0  0
  146.1496  -39.8759  264.1283 C   0  0  0  0  0  0  0  0  0  0  0  0
  146.0162  -41.1160  263.5404 C   0  0  0  0  0  0  0  0  0  0  0  0
  144.7914  -41.6602  263.4885 N   0  0  0  0  0  0  0  0  0  0  0  0
  143.7550  -40.9803  264.0070 C   0  0  0  0  0  0  0  0  0  0  0  0
  142.4716  -41.5397  263.9580 C   0  0  0  0  0  0  0  0  0  0  0  0
  141.3698  -40.8970  264.4693 C   0  0  0  0  0  0  0  0  0  0  0  0
  140.0784  -41.4930  264.4461 N   0  0  0  0  0  0  0  0  0  0  0  0
  139.5459  -42.0491  263.2920 C   0  0  0  0  0  0  0  0  0  0  0  0
  140.1880  -41.7783  262.0760 C   0  0  0  0  0  0  0  0  0  0  0  0
  139.7820  -42.2696  260.9007 N   0  0  0  0  0  0  0  0  0  0  0  0
  138.7082  -43.0655  260.8460 C   0  0  0  0  0  0  0  0  0  0  0  0
  138.0498  -43.3541  262.0222 C   0  0  0  0  0  0  0  0  0  0  0  0
  138.4508  -42.8582  263.2512 C   0  0  0  0  0  0  0  0  0  0  0  0
  137.7141  -43.2191  264.4280 C   0  0  0  0  0  0  0  0  0  0  0  0
  137.2977  -42.3551  265.2448 O   0  0  0  0  0  0  0  0  0  0  0  0
  137.3867  -44.5678  264.7815 N   0  0  0  0  0  0  0  0  0  0  0  0
  136.5799  -44.8362  265.9485 C   0  0  0  0  0  0  0  0  0  0  0  0
  137.0257  -44.4229  267.1837 C   0  0  0  0  0  0  0  0  0  0  0  0
  136.2785  -44.6661  268.3026 N   0  0  0  0  0  0  0  0  0  0  0  0
  135.1167  -45.3089  268.1649 C   0  0  0  0  0  0  0  0  0  0  0  0
  134.6248  -45.7415  266.9683 N   0  0  0  0  0  0  0  0  0  0  0  0
  135.3755  -45.4918  265.8818 C   0  0  0  0  0  0  0  0  0  0  0  0
  1  2  2  0
  1 10  1  0
  2  3  1  0
  2  7  1  0
  3  4  1  0
  3  5  1  0
  5  6  2  0
  6  7  1  0
  7  8  2  0
  8  9  1  0
  9 10  2  0
 10 11  1  0
 11 12  2  0
 11 13  1  0
 12 20  1  0
 13 14  2  0
 13 18  1  0
 14 15  1  0
 15 16  2  0
 16 17  1  0
 17 18  2  0
 18 19  1  0
 19 20  2  0
 20 21  1  0
 21 22  1  0
 22 23  2  0
 22 27  1  0
 23 24  1  0
 24 25  2  0
 25 26  1  0
 26 27  2  0
 27 28  1  0
 28 29  2  0
 28 30  1  0
 30 31  1  0
 31 32  2  0
 31 36  1  0
 32 33  1  0
 33 34  2  0
 34 35  1  0
 35 36  2  0
M  END
$$$$
