
     RDKit          3D

 36 41  0  0  0  0  0  0  0  0999 V2000
  142.5315  -37.3669  266.4336 C   0  0  0  0  0  0  0  0  0  0  0  0
  142.7662  -36.1371  267.0312 C   0  0  0  0  0  0  0  0  0  0  0  0
  142.3772  -35.5567  268.1786 N   0  0  0  0  0  0  0  0  0  0  0  0
  141.5089  -36.2279  269.1342 C   0  0  0  0  0  0  0  0  0  0  0  0
  142.8747  -34.3368  268.3129 C   0  0  0  0  0  0  0  0  0  0  0  0
  143.6402  -34.0821  267.1955 C   0  0  0  0  0  0  0  0  0  0  0  0
  143.5715  -35.2056  266.3970 C   0  0  0  0  0  0  0  0  0  0  0  0
  144.1232  -35.5330  265.1745 C   0  0  0  0  0  0  0  0  0  0  0  0
  143.8731  -36.7792  264.5902 C   0  0  0  0  0  0  0  0  0  0  0  0
  143.0726  -37.7142  265.2130 C   0  0  0  0  0  0  0  0  0  0  0  0
  142.8226  -39.0111  264.5871 C   0  0  0  0  0  0  0  0  0  0  0  0
  141.5507  -39.4947  264.3660 C   0  0  0  0  0  0  0  0  0  0  0  0
  143.8698  -39.8149  264.1867 C   0  0  0  0  0  0  0  0  0  0  0  0
  145.1420  -39.3690  264.3894 N   0  0  0  0  0  0  0  0  0  0  0  0
  146.1756  -40.1449  264.0027 C   0  0  0  0  0  0  0  0  0  0  0  0
  146.0044  -41.3769  263.4076 C   0  0  0  0  0  0  0  0  0  0  0  0
  144.7513  -41.8124  263.2097 N   0  0  0  0  0  0  0  0  0  0  0  0
  143.7245  -41.0368  263.5963 C   0  0  0  0  0  0  0  0  0  0  0  0
  142.4118  -41.4822  263.3942 C   0  0  0  0  0  0  0  0  0  0  0  0
  141.3179  -40.7380  263.7659 C   0  0  0  0  0  0  0  0  0  0  0  0
  139.9909  -41.2188  263.5887 N   0  0  0  0  0  0  0  0  0  0  0  0
  139.6031  -41.9024  262.4453 C   0  0  0  0  0  0  0  0  0  0  0  0
  140.4885  -41.9203  261.3590 C   0  0  0  0  0  0  0  0  0  0  0  0
  140.2370  -42.5585  260.2113 N   0  0  0  0  0  0  0  0  0  0  0  0
  139.0876  -43.2254  260.0575 C   0  0  0  0  0  0  0  0  0  0  0  0
  138.1911  -43.2300  261.1046 C   0  0  0  0  0  0  0  0  0  0  0  0
  138.4285  -42.5774  262.3025 C   0  0  0  0  0  0  0  0  0  0  0  0
  137.4453  -42.6437  263.3450 C   0  0  0  0  0  0  0  0  0  0  0  0
  137.7563  -42.8950  264.5396 O   0  0  0  0  0  0  0  0  0  0  0  0
  136.0442  -42.4348  263.1340 N   0  0  0  0  0  0  0  0  0  0  0  0
  135.1027  -42.7067  264.1945 C   0  0  0  0  0  0  0  0  0  0  0  0
  135.5710  -43.1367  265.4156 C   0  0  0  0  0  0  0  0  0  0  0  0
  134.6981  -43.4001  266.4344 N   0  0  0  0  0  0  0  0  0  0  0  0
  133.3924  -43.2305  266.2137 C   0  0  0  0  0  0  0  0  0  0  0  0
  132.8712  -42.8074  265.0262 N   0  0  0  0  0  0  0  0  0  0  0  0
  133.7472  -42.5543  264.0390 C   0  0  0  0  0  0  0  0  0  0  0  0
  1  2  2  0
  1 10  1  0
  2  3  1  0
  2  7  1  0
  3  4  1  0
  3  5  1  0
  5  6  2  0
  6  7  1  0
  7  8  2  0
  8  9  1  0
  9 10  2  0
 10 11  1  0
 11 12  2  0
 11 13  1  0
 12 20  1  0
 13 14  2  0
 13 18  1  0
 14 15  1  0
 15 16  2  0
 16 17  1  0
 17 18  2  0
 18 19  1  0
 19 20  2  0
 20 21  1  0
 21 22  1  0
 22 23  2  0
 22 27  1  0
 23 24  1  0
 24 25  2  0
 25 26  1  0
 26 27  2  0
 27 28  1  0
 28 29  2  0
 28 30  1  0
 30 31  1  0
 31 32  2  0
 31 36  1  0
 32 33  1  0
 33 34  2  0
 34 35  1  0
 35 36  2  0
M  END
$$$$
