
     RDKit          3D

 36 41  0  0  0  0  0  0  0  0999 V2000
  142.6802  -37.4715  266.5556 C   0  0  0  0  0  0  0  0  0  0  0  0
  142.9465  -36.2343  267.1239 C   0  0  0  0  0  0  0  0  0  0  0  0
  142.4770  -35.5658  268.1904 N   0  0  0  0  0  0  0  0  0  0  0  0
  141.4501  -36.1157  269.0626 C   0  0  0  0  0  0  0  0  0  0  0  0
  143.0564  -34.3834  268.3312 C   0  0  0  0  0  0  0  0  0  0  0  0
  143.9653  -34.2484  267.3039 C   0  0  0  0  0  0  0  0  0  0  0  0
  143.8956  -35.4035  266.5518 C   0  0  0  0  0  0  0  0  0  0  0  0
  144.5561  -35.8367  265.4196 C   0  0  0  0  0  0  0  0  0  0  0  0
  144.2717  -37.0884  264.8633 C   0  0  0  0  0  0  0  0  0  0  0  0
  143.3284  -37.9238  265.4248 C   0  0  0  0  0  0  0  0  0  0  0  0
  143.0446  -39.2281  264.8295 C   0  0  0  0  0  0  0  0  0  0  0  0
  141.7659  -39.6383  264.5175 C   0  0  0  0  0  0  0  0  0  0  0  0
  144.0649  -40.1142  264.5522 C   0  0  0  0  0  0  0  0  0  0  0  0
  145.3429  -39.7423  264.8472 N   0  0  0  0  0  0  0  0  0  0  0  0
  146.3504  -40.5992  264.5813 C   0  0  0  0  0  0  0  0  0  0  0  0
  146.1467  -41.8424  264.0210 C   0  0  0  0  0  0  0  0  0  0  0  0
  144.8881  -42.2049  263.7320 N   0  0  0  0  0  0  0  0  0  0  0  0
  143.8873  -41.3488  263.9983 C   0  0  0  0  0  0  0  0  0  0  0  0
  142.5691  -41.7175  263.7004 C   0  0  0  0  0  0  0  0  0  0  0  0
  141.5008  -40.8891  263.9473 C   0  0  0  0  0  0  0  0  0  0  0  0
  140.1638  -41.2910  263.6743 N   0  0  0  0  0  0  0  0  0  0  0  0
  139.8235  -41.9744  262.5157 C   0  0  0  0  0  0  0  0  0  0  0  0
  140.7540  -41.9941  261.4679 C   0  0  0  0  0  0  0  0  0  0  0  0
  140.5503  -42.6323  260.3108 N   0  0  0  0  0  0  0  0  0  0  0  0
  139.4072  -43.2973  260.1086 C   0  0  0  0  0  0  0  0  0  0  0  0
  138.4673  -43.3000  261.1169 C   0  0  0  0  0  0  0  0  0  0  0  0
  138.6550  -42.6475  262.3236 C   0  0  0  0  0  0  0  0  0  0  0  0
  137.6284  -42.7118  263.3235 C   0  0  0  0  0  0  0  0  0  0  0  0
  137.8815  -43.0131  264.5202 O   0  0  0  0  0  0  0  0  0  0  0  0
  136.2453  -42.4452  263.0647 N   0  0  0  0  0  0  0  0  0  0  0  0
  135.2434  -42.7974  264.0430 C   0  0  0  0  0  0  0  0  0  0  0  0
  135.6419  -43.2387  265.2847 C   0  0  0  0  0  0  0  0  0  0  0  0
  134.7109  -43.5778  266.2268 N   0  0  0  0  0  0  0  0  0  0  0  0
  133.4181  -43.4699  265.9119 C   0  0  0  0  0  0  0  0  0  0  0  0
  132.9647  -43.0392  264.6996 N   0  0  0  0  0  0  0  0  0  0  0  0
  133.8970  -42.7113  263.7887 C   0  0  0  0  0  0  0  0  0  0  0  0
  1  2  2  0
  1 10  1  0
  2  3  1  0
  2  7  1  0
  3  4  1  0
  3  5  1  0
  5  6  2  0
  6  7  1  0
  7  8  2  0
  8  9  1  0
  9 10  2  0
 10 11  1  0
 11 12  2  0
 11 13  1  0
 12 20  1  0
 13 14  2  0
 13 18  1  0
 14 15  1  0
 15 16  2  0
 16 17  1  0
 17 18  2  0
 18 19  1  0
 19 20  2  0
 20 21  1  0
 21 22  1  0
 22 23  2  0
 22 27  1  0
 23 24  1  0
 24 25  2  0
 25 26  1  0
 26 27  2  0
 27 28  1  0
 28 29  2  0
 28 30  1  0
 30 31  1  0
 31 32  2  0
 31 36  1  0
 32 33  1  0
 33 34  2  0
 34 35  1  0
 35 36  2  0
M  END
$$$$
