
     RDKit          3D

 36 41  0  0  0  0  0  0  0  0999 V2000
  142.7129  -36.9543  267.1267 C   0  0  0  0  0  0  0  0  0  0  0  0
  142.8957  -35.8428  267.9256 C   0  0  0  0  0  0  0  0  0  0  0  0
  142.4159  -35.4398  269.1098 N   0  0  0  0  0  0  0  0  0  0  0  0
  141.4786  -36.1720  269.9213 C   0  0  0  0  0  0  0  0  0  0  0  0
  142.9469  -34.2513  269.4155 C   0  0  0  0  0  0  0  0  0  0  0  0
  143.7944  -33.8846  268.3900 C   0  0  0  0  0  0  0  0  0  0  0  0
  143.7791  -34.8760  267.4347 C   0  0  0  0  0  0  0  0  0  0  0  0
  144.4277  -35.0282  266.2227 C   0  0  0  0  0  0  0  0  0  0  0  0
  144.1982  -36.1660  265.4744 C   0  0  0  0  0  0  0  0  0  0  0  0
  143.3319  -37.1492  265.9209 C   0  0  0  0  0  0  0  0  0  0  0  0
  143.0668  -38.3635  265.1563 C   0  0  0  0  0  0  0  0  0  0  0  0
  141.7681  -38.7492  264.8701 C   0  0  0  0  0  0  0  0  0  0  0  0
  144.0667  -39.1855  264.6800 C   0  0  0  0  0  0  0  0  0  0  0  0
  145.3288  -38.8707  264.9208 N   0  0  0  0  0  0  0  0  0  0  0  0
  146.3425  -39.6326  264.4824 C   0  0  0  0  0  0  0  0  0  0  0  0
  146.0903  -40.7781  263.7603 C   0  0  0  0  0  0  0  0  0  0  0  0
  144.8153  -41.1114  263.5074 N   0  0  0  0  0  0  0  0  0  0  0  0
  143.8130  -40.3388  263.9529 C   0  0  0  0  0  0  0  0  0  0  0  0
  142.5027  -40.6968  263.6835 C   0  0  0  0  0  0  0  0  0  0  0  0
  141.4815  -39.8923  264.1483 C   0  0  0  0  0  0  0  0  0  0  0  0
  140.1417  -40.2742  263.8680 N   0  0  0  0  0  0  0  0  0  0  0  0
  139.8674  -41.6738  263.7293 C   0  0  0  0  0  0  0  0  0  0  0  0
  140.9086  -42.5866  263.7836 C   0  0  0  0  0  0  0  0  0  0  0  0
  140.6427  -43.8942  263.6582 N   0  0  0  0  0  0  0  0  0  0  0  0
  139.3897  -44.3408  263.4810 C   0  0  0  0  0  0  0  0  0  0  0  0
  138.3368  -43.4435  263.4227 C   0  0  0  0  0  0  0  0  0  0  0  0
  138.5779  -42.0832  263.5478 C   0  0  0  0  0  0  0  0  0  0  0  0
  137.4456  -41.1913  263.3902 C   0  0  0  0  0  0  0  0  0  0  0  0
  137.1420  -40.4134  264.3310 O   0  0  0  0  0  0  0  0  0  0  0  0
  136.6188  -41.1091  262.2401 N   0  0  0  0  0  0  0  0  0  0  0  0
  135.5018  -40.2218  262.1968 C   0  0  0  0  0  0  0  0  0  0  0  0
  134.6842  -40.2493  261.0948 C   0  0  0  0  0  0  0  0  0  0  0  0
  133.6267  -39.3930  261.0784 N   0  0  0  0  0  0  0  0  0  0  0  0
  133.4023  -38.5576  262.1075 C   0  0  0  0  0  0  0  0  0  0  0  0
  134.1874  -38.5151  263.1910 N   0  0  0  0  0  0  0  0  0  0  0  0
  135.2571  -39.3645  263.2341 C   0  0  0  0  0  0  0  0  0  0  0  0
  1  2  2  0
  1 10  1  0
  2  3  1  0
  2  7  1  0
  4  3  1  6
  3  5  1  0
  5  6  2  0
  6  7  1  0
  7  8  2  0
  8  9  1  0
  9 10  2  0
 10 11  1  0
 11 12  2  0
 11 13  1  0
 12 20  1  0
 13 14  2  0
 13 18  1  0
 14 15  1  0
 15 16  2  0
 16 17  1  0
 17 18  2  0
 18 19  1  0
 19 20  2  0
 20 21  1  0
 21 22  1  0
 22 23  2  0
 22 27  1  0
 23 24  1  0
 24 25  2  0
 25 26  1  0
 26 27  2  0
 27 28  1  0
 28 29  2  0
 28 30  1  0
 30 31  1  0
 31 32  2  0
 31 36  1  0
 32 33  1  0
 33 34  2  0
 34 35  1  0
 35 36  2  0
M  END
$$$$
