
     RDKit          3D

 36 41  0  0  0  0  0  0  0  0999 V2000
  142.5729  -37.2048  266.1641 C   0  0  0  0  0  0  0  0  0  0  0  0
  142.8221  -35.9562  266.6984 C   0  0  0  0  0  0  0  0  0  0  0  0
  142.2866  -35.2256  267.6856 N   0  0  0  0  0  0  0  0  0  0  0  0
  141.1861  -35.6328  268.5201 C   0  0  0  0  0  0  0  0  0  0  0  0
  142.9375  -34.0607  267.7706 C   0  0  0  0  0  0  0  0  0  0  0  0
  143.9221  -34.0490  266.8037 C   0  0  0  0  0  0  0  0  0  0  0  0
  143.8692  -35.2382  266.1117 C   0  0  0  0  0  0  0  0  0  0  0  0
  144.6071  -35.7516  265.0607 C   0  0  0  0  0  0  0  0  0  0  0  0
  144.3034  -37.0083  264.5752 C   0  0  0  0  0  0  0  0  0  0  0  0
  143.2754  -37.7548  265.1252 C   0  0  0  0  0  0  0  0  0  0  0  0
  142.9281  -39.0855  264.6373 C   0  0  0  0  0  0  0  0  0  0  0  0
  141.6204  -39.3976  264.3054 C   0  0  0  0  0  0  0  0  0  0  0  0
  143.8556  -40.0938  264.4783 C   0  0  0  0  0  0  0  0  0  0  0  0
  145.1219  -39.8575  264.7787 N   0  0  0  0  0  0  0  0  0  0  0  0
  146.0673  -40.8000  264.6438 C   0  0  0  0  0  0  0  0  0  0  0  0
  145.7377  -42.0553  264.1825 C   0  0  0  0  0  0  0  0  0  0  0  0
  144.4571  -42.3112  263.8733 N   0  0  0  0  0  0  0  0  0  0  0  0
  143.5238  -41.3577  264.0138 C   0  0  0  0  0  0  0  0  0  0  0  0
  142.2068  -41.6379  263.6904 C   0  0  0  0  0  0  0  0  0  0  0  0
  141.2571  -40.6471  263.8401 C   0  0  0  0  0  0  0  0  0  0  0  0
  139.9088  -40.9500  263.5083 N   0  0  0  0  0  0  0  0  0  0  0  0
  139.6723  -41.6743  262.2946 C   0  0  0  0  0  0  0  0  0  0  0  0
  140.6297  -41.6674  261.2928 C   0  0  0  0  0  0  0  0  0  0  0  0
  140.4028  -42.3516  260.1629 N   0  0  0  0  0  0  0  0  0  0  0  0
  139.2682  -43.0442  259.9790 C   0  0  0  0  0  0  0  0  0  0  0  0
  138.2995  -43.0615  260.9682 C   0  0  0  0  0  0  0  0  0  0  0  0
  138.5027  -42.3628  262.1491 C   0  0  0  0  0  0  0  0  0  0  0  0
  137.4146  -42.3488  263.1075 C   0  0  0  0  0  0  0  0  0  0  0  0
  137.2621  -41.3431  263.8474 O   0  0  0  0  0  0  0  0  0  0  0  0
  136.4750  -43.3946  263.2984 N   0  0  0  0  0  0  0  0  0  0  0  0
  135.4785  -43.3137  264.3168 C   0  0  0  0  0  0  0  0  0  0  0  0
  134.9613  -42.0822  264.6326 C   0  0  0  0  0  0  0  0  0  0  0  0
  134.0130  -42.0328  265.6074 N   0  0  0  0  0  0  0  0  0  0  0  0
  133.6069  -43.1534  266.2292 C   0  0  0  0  0  0  0  0  0  0  0  0
  134.0985  -44.3637  265.9362 N   0  0  0  0  0  0  0  0  0  0  0  0
  135.0525  -44.4427  264.9609 C   0  0  0  0  0  0  0  0  0  0  0  0
  1  2  2  0
  1 10  1  0
  2  3  1  0
  2  7  1  0
  4  3  1  6
  3  5  1  0
  5  6  2  0
  6  7  1  0
  7  8  2  0
  8  9  1  0
  9 10  2  0
 10 11  1  0
 11 12  2  0
 11 13  1  0
 12 20  1  0
 13 14  2  0
 13 18  1  0
 14 15  1  0
 15 16  2  0
 16 17  1  0
 17 18  2  0
 18 19  1  0
 19 20  2  0
 20 21  1  0
 21 22  1  0
 22 23  2  0
 22 27  1  0
 23 24  1  0
 24 25  2  0
 25 26  1  0
 26 27  2  0
 27 28  1  0
 28 29  2  0
 28 30  1  0
 30 31  1  0
 31 32  2  0
 31 36  1  0
 32 33  1  0
 33 34  2  0
 34 35  1  0
 35 36  2  0
M  END
$$$$
