
     RDKit          3D

 36 41  0  0  0  0  0  0  0  0999 V2000
  142.4697  -37.2401  266.1622 C   0  0  0  0  0  0  0  0  0  0  0  0
  142.7076  -35.9821  266.6966 C   0  0  0  0  0  0  0  0  0  0  0  0
  142.2569  -35.3134  267.7710 N   0  0  0  0  0  0  0  0  0  0  0  0
  141.2932  -35.8888  268.6972 C   0  0  0  0  0  0  0  0  0  0  0  0
  142.7911  -34.1053  267.8654 C   0  0  0  0  0  0  0  0  0  0  0  0
  143.6480  -33.9524  266.7968 C   0  0  0  0  0  0  0  0  0  0  0  0
  143.5948  -35.1236  266.0687 C   0  0  0  0  0  0  0  0  0  0  0  0
  144.2233  -35.5507  264.9161 C   0  0  0  0  0  0  0  0  0  0  0  0
  143.9684  -36.8236  264.3948 C   0  0  0  0  0  0  0  0  0  0  0  0
  143.0867  -37.6867  265.0119 C   0  0  0  0  0  0  0  0  0  0  0  0
  142.8331  -39.0129  264.4525 C   0  0  0  0  0  0  0  0  0  0  0  0
  141.5612  -39.4769  264.1924 C   0  0  0  0  0  0  0  0  0  0  0  0
  143.8765  -39.8659  264.1582 C   0  0  0  0  0  0  0  0  0  0  0  0
  145.1485  -39.4406  264.4021 N   0  0  0  0  0  0  0  0  0  0  0  0
  146.1785  -40.2646  264.1190 C   0  0  0  0  0  0  0  0  0  0  0  0
  146.0036  -41.5262  263.5907 C   0  0  0  0  0  0  0  0  0  0  0  0
  144.7507  -41.9413  263.3520 N   0  0  0  0  0  0  0  0  0  0  0  0
  143.7276  -41.1177  263.6352 C   0  0  0  0  0  0  0  0  0  0  0  0
  142.4151  -41.5415  263.3897 C   0  0  0  0  0  0  0  0  0  0  0  0
  141.3249  -40.7485  263.6564 C   0  0  0  0  0  0  0  0  0  0  0  0
  139.9958  -41.2056  263.4370 N   0  0  0  0  0  0  0  0  0  0  0  0
  139.5905  -41.7303  262.2183 C   0  0  0  0  0  0  0  0  0  0  0  0
  140.4467  -41.5754  261.1195 C   0  0  0  0  0  0  0  0  0  0  0  0
  140.1767  -42.0515  259.8996 N   0  0  0  0  0  0  0  0  0  0  0  0
  139.0364  -42.7159  259.6807 C   0  0  0  0  0  0  0  0  0  0  0  0
  138.1685  -42.8877  260.7378 C   0  0  0  0  0  0  0  0  0  0  0  0
  138.4255  -42.4048  262.0097 C   0  0  0  0  0  0  0  0  0  0  0  0
  137.4720  -42.6390  263.0555 C   0  0  0  0  0  0  0  0  0  0  0  0
  137.8245  -42.9935  264.2119 O   0  0  0  0  0  0  0  0  0  0  0  0
  136.0565  -42.4956  262.8909 N   0  0  0  0  0  0  0  0  0  0  0  0
  135.1550  -42.9825  263.9083 C   0  0  0  0  0  0  0  0  0  0  0  0
  135.6310  -43.1953  265.1824 C   0  0  0  0  0  0  0  0  0  0  0  0
  134.7957  -43.6560  266.1619 N   0  0  0  0  0  0  0  0  0  0  0  0
  133.5189  -43.8911  265.8509 C   0  0  0  0  0  0  0  0  0  0  0  0
  132.9918  -43.6988  264.6075 N   0  0  0  0  0  0  0  0  0  0  0  0
  133.8306  -43.2456  263.6603 C   0  0  0  0  0  0  0  0  0  0  0  0
  1  2  2  0
  1 10  1  0
  2  3  1  0
  2  7  1  0
  3  4  1  0
  3  5  1  0
  5  6  2  0
  6  7  1  0
  7  8  2  0
  8  9  1  0
  9 10  2  0
 10 11  1  0
 11 12  2  0
 11 13  1  0
 12 20  1  0
 13 14  2  0
 13 18  1  0
 14 15  1  0
 15 16  2  0
 16 17  1  0
 17 18  2  0
 18 19  1  0
 19 20  2  0
 20 21  1  0
 21 22  1  0
 22 23  2  0
 22 27  1  0
 23 24  1  0
 24 25  2  0
 25 26  1  0
 26 27  2  0
 27 28  1  0
 28 29  2  0
 28 30  1  0
 30 31  1  0
 31 32  2  0
 31 36  1  0
 32 33  1  0
 33 34  2  0
 34 35  1  0
 35 36  2  0
M  END
$$$$
