
     RDKit          3D

 36 41  0  0  0  0  0  0  0  0999 V2000
  142.5743  -37.0048  266.2302 C   0  0  0  0  0  0  0  0  0  0  0  0
  142.8982  -35.8449  266.9059 C   0  0  0  0  0  0  0  0  0  0  0  0
  142.3768  -35.1782  267.9445 N   0  0  0  0  0  0  0  0  0  0  0  0
  141.2079  -35.5743  268.6861 C   0  0  0  0  0  0  0  0  0  0  0  0
  143.1154  -34.0889  268.1806 C   0  0  0  0  0  0  0  0  0  0  0  0
  144.1431  -34.0609  267.2600 C   0  0  0  0  0  0  0  0  0  0  0  0
  144.0272  -35.1622  266.4419 C   0  0  0  0  0  0  0  0  0  0  0  0
  144.7708  -35.6244  265.3713 C   0  0  0  0  0  0  0  0  0  0  0  0
  144.3897  -36.7928  264.7411 C   0  0  0  0  0  0  0  0  0  0  0  0
  143.2791  -37.5015  265.1663 C   0  0  0  0  0  0  0  0  0  0  0  0
  142.8487  -38.7392  264.5241 C   0  0  0  0  0  0  0  0  0  0  0  0
  141.5297  -38.9151  264.1412 C   0  0  0  0  0  0  0  0  0  0  0  0
  143.7055  -39.7878  264.2624 C   0  0  0  0  0  0  0  0  0  0  0  0
  144.9787  -39.6803  264.6047 N   0  0  0  0  0  0  0  0  0  0  0  0
  145.8574  -40.6679  264.3748 C   0  0  0  0  0  0  0  0  0  0  0  0
  145.4494  -41.8351  263.7679 C   0  0  0  0  0  0  0  0  0  0  0  0
  144.1609  -41.9600  263.4144 N   0  0  0  0  0  0  0  0  0  0  0  0
  143.2949  -40.9631  263.6512 C   0  0  0  0  0  0  0  0  0  0  0  0
  141.9685  -41.1077  263.2803 C   0  0  0  0  0  0  0  0  0  0  0  0
  141.0886  -40.0737  263.5304 C   0  0  0  0  0  0  0  0  0  0  0  0
  139.7297  -40.2376  263.1482 N   0  0  0  0  0  0  0  0  0  0  0  0
  139.4292  -41.2647  262.1952 C   0  0  0  0  0  0  0  0  0  0  0  0
  140.3771  -41.6238  261.2504 C   0  0  0  0  0  0  0  0  0  0  0  0
  140.0900  -42.5890  260.3659 N   0  0  0  0  0  0  0  0  0  0  0  0
  138.9039  -43.2166  260.3741 C   0  0  0  0  0  0  0  0  0  0  0  0
  137.9437  -42.8702  261.3097 C   0  0  0  0  0  0  0  0  0  0  0  0
  138.2088  -41.8745  262.2384 C   0  0  0  0  0  0  0  0  0  0  0  0
  137.1318  -41.4982  263.1334 C   0  0  0  0  0  0  0  0  0  0  0  0
  137.0275  -40.2986  263.4971 O   0  0  0  0  0  0  0  0  0  0  0  0
  136.1526  -42.3815  263.6569 N   0  0  0  0  0  0  0  0  0  0  0  0
  135.0899  -41.9005  264.4792 C   0  0  0  0  0  0  0  0  0  0  0  0
  134.1761  -42.8022  264.9648 C   0  0  0  0  0  0  0  0  0  0  0  0
  133.1727  -42.3174  265.7458 N   0  0  0  0  0  0  0  0  0  0  0  0
  133.0905  -41.0047  266.0238 C   0  0  0  0  0  0  0  0  0  0  0  0
  133.9711  -40.1092  265.5603 N   0  0  0  0  0  0  0  0  0  0  0  0
  134.9895  -40.5684  264.7731 C   0  0  0  0  0  0  0  0  0  0  0  0
  1  2  2  0
  1 10  1  0
  2  3  1  0
  2  7  1  0
  4  3  1  6
  3  5  1  0
  5  6  2  0
  6  7  1  0
  7  8  2  0
  8  9  1  0
  9 10  2  0
 10 11  1  0
 11 12  2  0
 11 13  1  0
 12 20  1  0
 13 14  2  0
 13 18  1  0
 14 15  1  0
 15 16  2  0
 16 17  1  0
 17 18  2  0
 18 19  1  0
 19 20  2  0
 20 21  1  0
 21 22  1  0
 22 23  2  0
 22 27  1  0
 23 24  1  0
 24 25  2  0
 25 26  1  0
 26 27  2  0
 27 28  1  0
 28 29  2  0
 28 30  1  0
 30 31  1  0
 31 32  2  0
 31 36  1  0
 32 33  1  0
 33 34  2  0
 34 35  1  0
 35 36  2  0
M  END
$$$$
