
     RDKit          3D

 31 34  0  0  0  0  0  0  0  0999 V2000
  -13.4065    9.3181    0.0647 C   0  0  0  0  0  0  0  0  0  0  0  0
  -13.1137   10.4823   -0.6066 C   0  0  0  0  0  0  0  0  0  0  0  0
  -11.9112   11.1586   -0.4019 C   0  0  0  0  0  0  0  0  0  0  0  0
  -10.9702   10.6799    0.4863 C   0  0  0  0  0  0  0  0  0  0  0  0
  -26.7661   10.3256   -2.6311 C   0  0  0  0  0  0  0  0  0  0  0  0
  -25.4582   10.3736   -1.9239 C   0  0  0  0  0  0  0  0  0  0  0  0
  -25.2848   10.9722   -0.6928 C   0  0  0  0  0  0  0  0  0  0  0  0
  -24.0382   10.9978   -0.0482 C   0  0  0  0  0  0  0  0  0  0  0  0
  -24.3318    9.7900   -2.5092 C   0  0  0  0  0  0  0  0  0  0  0  0
  -23.1163    9.8137   -1.8831 C   0  0  0  0  0  0  0  0  0  0  0  0
  -22.9408   10.4246   -0.6243 C   0  0  0  0  0  0  0  0  0  0  0  0
  -20.2066    9.2773   -0.7068 C   0  0  1  0  0  0  0  0  0  0  0  0
  -20.3115    6.9370   -1.0344 C   0  0  2  0  0  0  0  0  0  0  0  0
  -21.1447    6.0098   -0.1355 C   0  0  0  0  0  0  0  0  0  0  0  0
  -18.8926    6.7489   -0.6118 C   0  0  1  0  0  0  0  0  0  0  0  0
  -18.1697    8.0406   -0.7423 C   0  0  1  0  0  0  0  0  0  0  0  0
  -15.9119    9.0806   -0.4430 C   0  0  0  0  0  0  0  0  0  0  0  0
  -14.6572    8.5929   -0.1242 C   0  0  0  0  0  0  0  0  0  0  0  0
  -11.2691    9.5136    1.1558 C   0  0  0  0  0  0  0  0  0  0  0  0
  -12.4602    8.8522    0.9474 C   0  0  0  0  0  0  0  0  0  0  0  0
  -18.9739    9.0267    0.1264 C   0  0  1  0  0  0  0  0  0  0  0  0
  -11.6463   12.3205   -1.0880 F   0  0  0  0  0  0  0  0  0  0  0  0
  -10.3558    9.0321    2.0294 F   0  0  0  0  0  0  0  0  0  0  0  0
  -16.7715    8.0337   -0.4940 N   0  0  0  0  0  0  0  0  0  0  0  0
  -14.8232    7.2586   -0.0003 N   0  0  0  0  0  0  0  0  0  0  0  0
  -16.0650    6.9638   -0.2204 N   0  0  0  0  0  0  0  0  0  0  0  0
  -20.8621    8.1431   -1.0688 O   0  0  0  0  0  0  0  0  0  0  0  0
  -22.2712    5.5742   -0.8336 O   0  0  0  0  0  0  0  0  0  0  0  0
  -18.8293    6.2730    0.7069 O   0  0  0  0  0  0  0  0  0  0  0  0
  -18.2316   10.1664    0.3248 O   0  0  0  0  0  0  0  0  0  0  0  0
  -21.3266   10.3978    0.1347 S   0  0  0  0  0  0  0  0  0  0  0  0
  1  2  2  0
 18  1  1  0
  1 20  1  0
  2  3  1  0
  3  4  2  0
  3 22  1  0
  4 19  1  0
  5  6  1  6
  7  6  2  0
  9  6  1  0
  8  7  1  0
 11  8  2  0
 10  9  2  0
 11 10  1  0
 31 11  1  0
 21 12  1  0
 12 27  1  0
 12 31  1  1
 13 14  1  0
 15 13  1  0
 13 27  1  1
 14 28  1  6
 16 15  1  0
 15 29  1  1
 16 21  1  0
 16 24  1  1
 17 18  2  0
 17 24  1  0
 18 25  1  0
 19 20  2  0
 19 23  1  0
 21 30  1  6
 24 26  1  0
 25 26  2  0
M  END
$$$$
