
     RDKit          3D

 31 34  0  0  0  0  0  0  0  0999 V2000
  -13.3071    9.2862   -0.2657 C   0  0  0  0  0  0  0  0  0  0  0  0
  -12.7840    8.1961    0.3556 C   0  0  0  0  0  0  0  0  0  0  0  0
  -11.4364    8.0408    0.5575 C   0  0  0  0  0  0  0  0  0  0  0  0
  -10.5911    9.0404    0.1060 C   0  0  0  0  0  0  0  0  0  0  0  0
  -27.2100    8.4115   -2.9543 C   0  0  0  0  0  0  0  0  0  0  0  0
  -25.8828    8.8045   -2.4495 C   0  0  0  0  0  0  0  0  0  0  0  0
  -24.7546    8.4074   -3.1593 C   0  0  0  0  0  0  0  0  0  0  0  0
  -23.4979    8.7847   -2.6728 C   0  0  0  0  0  0  0  0  0  0  0  0
  -25.7822    9.5510   -1.2943 C   0  0  0  0  0  0  0  0  0  0  0  0
  -24.5103    9.9043   -0.8461 C   0  0  0  0  0  0  0  0  0  0  0  0
  -23.3791    9.5277   -1.5241 C   0  0  0  0  0  0  0  0  0  0  0  0
  -20.5192    8.7731   -1.4912 C   0  0  1  0  0  0  0  0  0  0  0  0
  -19.7637    6.7765   -0.5397 C   0  0  2  0  0  0  0  0  0  0  0  0
  -20.2408    5.7857    0.4997 C   0  0  0  0  0  0  0  0  0  0  0  0
  -18.5159    7.4604   -0.0612 C   0  0  1  0  0  0  0  0  0  0  0  0
  -18.0924    8.4159   -1.1472 C   0  0  1  0  0  0  0  0  0  0  0  0
  -15.6486    8.4582   -0.7409 C   0  0  0  0  0  0  0  0  0  0  0  0
  -14.7370    9.4549   -0.4831 C   0  0  0  0  0  0  0  0  0  0  0  0
  -11.0831   10.1624   -0.5292 C   0  0  0  0  0  0  0  0  0  0  0  0
  -12.4332   10.2689   -0.7056 C   0  0  0  0  0  0  0  0  0  0  0  0
  -19.1955    9.3999   -1.3315 C   0  0  1  0  0  0  0  0  0  0  0  0
  -10.8985    6.9468    1.1825 F   0  0  0  0  0  0  0  0  0  0  0  0
  -10.2377   11.1332   -0.9651 F   0  0  0  0  0  0  0  0  0  0  0  0
  -16.8272    9.0422   -0.8718 N   0  0  0  0  0  0  0  0  0  0  0  0
  -15.4183   10.6193   -0.4694 N   0  0  0  0  0  0  0  0  0  0  0  0
  -16.6903   10.3496   -0.7080 N   0  0  0  0  0  0  0  0  0  0  0  0
  -20.7777    7.5927   -0.9059 O   0  0  0  0  0  0  0  0  0  0  0  0
  -21.4354    5.2003    0.1611 O   0  0  0  0  0  0  0  0  0  0  0  0
  -18.7101    8.0521    1.1571 O   0  0  0  0  0  0  0  0  0  0  0  0
  -18.8495   10.1981   -2.4489 O   0  0  0  0  0  0  0  0  0  0  0  0
  -21.7779    9.9901   -0.9352 S   0  0  0  0  0  0  0  0  0  0  0  0
  1  2  2  0
 18  1  1  0
  1 20  1  0
  2  3  1  0
  3  4  2  0
  3 22  1  0
  4 19  1  0
  6  5  1  0
  7  6  2  0
  9  6  1  0
  8  7  1  0
 11  8  2  0
 10  9  2  0
 11 10  1  0
 31 11  1  0
 21 12  1  0
 12 27  1  0
 12 31  1  1
 13 14  1  1
 15 13  1  0
 13 27  1  0
 14 28  1  0
 16 15  1  0
 15 29  1  1
 16 21  1  0
 16 24  1  1
 17 18  2  0
 17 24  1  0
 18 25  1  0
 19 20  2  0
 19 23  1  0
 21 30  1  6
 24 26  1  0
 25 26  2  0
M  END
$$$$
