
     RDKit          3D

 31 34  0  0  0  0  0  0  0  0999 V2000
  -12.9168    8.9428   -0.0189 C   0  0  0  0  0  0  0  0  0  0  0  0
  -11.9439    8.7073    0.9244 C   0  0  0  0  0  0  0  0  0  0  0  0
  -10.5982    8.9641    0.6629 C   0  0  0  0  0  0  0  0  0  0  0  0
  -10.1957    9.4652   -0.5579 C   0  0  0  0  0  0  0  0  0  0  0  0
  -26.0326    9.3622   -4.3644 C   0  0  0  0  0  0  0  0  0  0  0  0
  -24.8844    9.5688   -3.4414 C   0  0  0  0  0  0  0  0  0  0  0  0
  -24.8206    9.0185   -2.1776 C   0  0  0  0  0  0  0  0  0  0  0  0
  -23.7211    9.2283   -1.3306 C   0  0  0  0  0  0  0  0  0  0  0  0
  -23.8010   10.3520   -3.8471 C   0  0  0  0  0  0  0  0  0  0  0  0
  -22.7287   10.5579   -3.0237 C   0  0  0  0  0  0  0  0  0  0  0  0
  -22.6641    9.9937   -1.7329 C   0  0  0  0  0  0  0  0  0  0  0  0
  -19.8952    9.1449   -1.0915 C   0  0  1  0  0  0  0  0  0  0  0  0
  -19.7988    6.7871   -0.9283 C   0  0  2  0  0  0  0  0  0  0  0  0
  -20.7398    5.9790   -0.0209 C   0  0  0  0  0  0  0  0  0  0  0  0
  -18.4840    6.8248   -0.2233 C   0  0  1  0  0  0  0  0  0  0  0  0
  -17.8247    8.1293   -0.4906 C   0  0  1  0  0  0  0  0  0  0  0  0
  -15.3586    8.5150   -0.6867 C   0  0  0  0  0  0  0  0  0  0  0  0
  -14.3300    8.6784    0.2238 C   0  0  0  0  0  0  0  0  0  0  0  0
  -11.1746    9.6988   -1.4988 C   0  0  0  0  0  0  0  0  0  0  0  0
  -12.5019    9.4417   -1.2316 C   0  0  0  0  0  0  0  0  0  0  0  0
  -18.8406    9.1845   -0.0131 C   0  0  1  0  0  0  0  0  0  0  0  0
   -9.6480    8.7188    1.6261 F   0  0  0  0  0  0  0  0  0  0  0  0
  -10.7948   10.1905   -2.7002 F   0  0  0  0  0  0  0  0  0  0  0  0
  -16.5058    8.3075    0.0049 N   0  0  0  0  0  0  0  0  0  0  0  0
  -14.9143    8.5566    1.4350 N   0  0  0  0  0  0  0  0  0  0  0  0
  -16.1814    8.3422    1.2747 N   0  0  0  0  0  0  0  0  0  0  0  0
  -20.3996    7.9034   -1.3181 O   0  0  0  0  0  0  0  0  0  0  0  0
  -21.6173    5.2324   -0.8077 O   0  0  0  0  0  0  0  0  0  0  0  0
  -18.6573    6.6267    1.1552 O   0  0  0  0  0  0  0  0  0  0  0  0
  -18.2191   10.4076    0.0711 O   0  0  0  0  0  0  0  0  0  0  0  0
  -21.2224   10.2952   -0.7263 S   0  0  0  0  0  0  0  0  0  0  0  0
  1  2  2  0
 18  1  1  0
  1 20  1  0
  2  3  1  0
  3  4  2  0
  3 22  1  0
  4 19  1  0
  5  6  1  6
  7  6  2  0
  9  6  1  0
  8  7  1  0
 11  8  2  0
 10  9  2  0
 11 10  1  0
 31 11  1  0
 21 12  1  0
 12 27  1  0
 12 31  1  1
 13 14  1  0
 15 13  1  0
 13 27  1  1
 14 28  1  6
 16 15  1  0
 15 29  1  1
 16 21  1  0
 16 24  1  1
 17 18  2  0
 17 24  1  0
 18 25  1  0
 19 20  2  0
 19 23  1  0
 21 30  1  6
 24 26  1  0
 25 26  2  0
M  END
$$$$
