
     RDKit          3D

 31 34  0  0  0  0  0  0  0  0999 V2000
  -13.1048    8.9981   -0.1009 C   0  0  0  0  0  0  0  0  0  0  0  0
  -12.8302   10.0522   -0.9408 C   0  0  0  0  0  0  0  0  0  0  0  0
  -11.5229   10.4836   -1.1650 C   0  0  0  0  0  0  0  0  0  0  0  0
  -10.4556    9.8643   -0.5479 C   0  0  0  0  0  0  0  0  0  0  0  0
  -25.8903   10.2048   -4.2936 C   0  0  0  0  0  0  0  0  0  0  0  0
  -24.8085   10.1929   -3.2726 C   0  0  0  0  0  0  0  0  0  0  0  0
  -24.6868   11.1514   -2.2874 C   0  0  0  0  0  0  0  0  0  0  0  0
  -23.6567   11.1111   -1.3348 C   0  0  0  0  0  0  0  0  0  0  0  0
  -23.8548    9.1720   -3.2848 C   0  0  0  0  0  0  0  0  0  0  0  0
  -22.8503    9.1306   -2.3579 C   0  0  0  0  0  0  0  0  0  0  0  0
  -22.7280   10.1100   -1.3507 C   0  0  0  0  0  0  0  0  0  0  0  0
  -20.0857    8.9028   -0.7512 C   0  0  1  0  0  0  0  0  0  0  0  0
  -19.9446    6.5441   -0.8620 C   0  0  2  0  0  0  0  0  0  0  0  0
  -20.8070    5.6193    0.0114 C   0  0  0  0  0  0  0  0  0  0  0  0
  -18.5835    6.5320   -0.2501 C   0  0  1  0  0  0  0  0  0  0  0  0
  -17.9634    7.8724   -0.4135 C   0  0  1  0  0  0  0  0  0  0  0  0
  -15.5669    8.5495   -0.6733 C   0  0  0  0  0  0  0  0  0  0  0  0
  -14.4609    8.5290    0.1574 C   0  0  0  0  0  0  0  0  0  0  0  0
  -10.7368    8.8093    0.2922 C   0  0  0  0  0  0  0  0  0  0  0  0
  -12.0319    8.3901    0.5082 C   0  0  0  0  0  0  0  0  0  0  0  0
  -18.9575    8.8451    0.2491 C   0  0  1  0  0  0  0  0  0  0  0  0
  -11.2794   11.5403   -2.0105 F   0  0  0  0  0  0  0  0  0  0  0  0
   -9.7003    8.1922    0.9039 F   0  0  0  0  0  0  0  0  0  0  0  0
  -16.6152    8.0232    0.0062 N   0  0  0  0  0  0  0  0  0  0  0  0
  -14.9013    7.9815    1.3105 N   0  0  0  0  0  0  0  0  0  0  0  0
  -16.1595    7.6986    1.1919 N   0  0  0  0  0  0  0  0  0  0  0  0
  -20.5874    7.6835   -1.0809 O   0  0  0  0  0  0  0  0  0  0  0  0
  -21.8168    5.0529   -0.7667 O   0  0  0  0  0  0  0  0  0  0  0  0
  -18.6552    6.1777    1.1060 O   0  0  0  0  0  0  0  0  0  0  0  0
  -18.3489   10.0646    0.4274 O   0  0  0  0  0  0  0  0  0  0  0  0
  -21.3996    9.9756   -0.1676 S   0  0  0  0  0  0  0  0  0  0  0  0
  1  2  2  0
 18  1  1  0
  1 20  1  0
  2  3  1  0
  3  4  2  0
  3 22  1  0
  4 19  1  0
  5  6  1  6
  7  6  2  0
  9  6  1  0
  8  7  1  0
 11  8  2  0
 10  9  2  0
 11 10  1  0
 31 11  1  0
 21 12  1  0
 12 27  1  0
 12 31  1  1
 13 14  1  0
 15 13  1  0
 13 27  1  1
 14 28  1  6
 16 15  1  0
 15 29  1  1
 16 21  1  0
 16 24  1  1
 17 18  2  0
 17 24  1  0
 18 25  1  0
 19 20  2  0
 19 23  1  0
 21 30  1  6
 24 26  1  0
 25 26  2  0
M  END
$$$$
