
     RDKit          3D

 31 34  0  0  0  0  0  0  0  0999 V2000
  -13.4514    8.6817   -0.0982 C   0  0  0  0  0  0  0  0  0  0  0  0
  -13.3699    8.6547    1.2746 C   0  0  0  0  0  0  0  0  0  0  0  0
  -12.1529    8.8202    1.9355 C   0  0  0  0  0  0  0  0  0  0  0  0
  -10.9835    9.0170    1.2305 C   0  0  0  0  0  0  0  0  0  0  0  0
  -26.9578    9.5957   -3.3406 C   0  0  0  0  0  0  0  0  0  0  0  0
  -25.6744    9.6960   -2.5951 C   0  0  0  0  0  0  0  0  0  0  0  0
  -25.5251   10.4382   -1.4414 C   0  0  0  0  0  0  0  0  0  0  0  0
  -24.3014   10.5103   -0.7575 C   0  0  0  0  0  0  0  0  0  0  0  0
  -24.5473    9.0141   -3.0603 C   0  0  0  0  0  0  0  0  0  0  0  0
  -23.3540    9.0828   -2.3958 C   0  0  0  0  0  0  0  0  0  0  0  0
  -23.2033    9.8405   -1.2161 C   0  0  0  0  0  0  0  0  0  0  0  0
  -20.4353    8.7745   -1.1919 C   0  0  1  0  0  0  0  0  0  0  0  0
  -20.1336    6.4339   -1.0298 C   0  0  2  0  0  0  0  0  0  0  0  0
  -20.6358    5.6136    0.1689 C   0  0  0  0  0  0  0  0  0  0  0  0
  -18.6595    6.5716   -0.8419 C   0  0  1  0  0  0  0  0  0  0  0  0
  -18.2248    7.8980   -1.3516 C   0  0  1  0  0  0  0  0  0  0  0  0
  -15.9792    8.2896   -0.3158 C   0  0  0  0  0  0  0  0  0  0  0  0
  -14.7079    8.5056   -0.8166 C   0  0  0  0  0  0  0  0  0  0  0  0
  -11.0713    9.0429   -0.1441 C   0  0  0  0  0  0  0  0  0  0  0  0
  -12.2782    8.8781   -0.7888 C   0  0  0  0  0  0  0  0  0  0  0  0
  -19.0712    8.9151   -0.5624 C   0  0  1  0  0  0  0  0  0  0  0  0
  -12.1029    8.7887    3.3093 F   0  0  0  0  0  0  0  0  0  0  0  0
   -9.9329    9.2355   -0.8487 F   0  0  0  0  0  0  0  0  0  0  0  0
  -16.8306    8.1675   -1.3635 N   0  0  0  0  0  0  0  0  0  0  0  0
  -14.8575    8.5065   -2.1585 N   0  0  0  0  0  0  0  0  0  0  0  0
  -16.1043    8.3062   -2.4462 N   0  0  0  0  0  0  0  0  0  0  0  0
  -20.9052    7.4992   -1.2000 O   0  0  0  0  0  0  0  0  0  0  0  0
  -21.7866    4.9142   -0.1953 O   0  0  0  0  0  0  0  0  0  0  0  0
  -18.3181    6.4208    0.5109 O   0  0  0  0  0  0  0  0  0  0  0  0
  -18.5415   10.1725   -0.7288 O   0  0  0  0  0  0  0  0  0  0  0  0
  -21.6180    9.8649   -0.3982 S   0  0  0  0  0  0  0  0  0  0  0  0
  1  2  2  0
 18  1  1  0
  1 20  1  0
  2  3  1  0
  3  4  2  0
  3 22  1  0
  4 19  1  0
  5  6  1  6
  7  6  2  0
  9  6  1  0
  8  7  1  0
 11  8  2  0
 10  9  2  0
 11 10  1  0
 31 11  1  0
 21 12  1  0
 12 27  1  0
 12 31  1  1
 13 14  1  0
 15 13  1  0
 13 27  1  1
 14 28  1  6
 16 15  1  0
 15 29  1  1
 16 21  1  0
 16 24  1  1
 17 18  2  0
 17 24  1  0
 18 25  1  0
 19 20  2  0
 19 23  1  0
 21 30  1  6
 24 26  1  0
 25 26  2  0
M  END
$$$$
