
     RDKit          3D

 31 34  0  0  0  0  0  0  0  0999 V2000
  -13.3949    9.0937    0.5788 C   0  0  0  0  0  0  0  0  0  0  0  0
  -12.1688    9.5178    0.1218 C   0  0  0  0  0  0  0  0  0  0  0  0
  -11.0612    9.5885    0.9664 C   0  0  0  0  0  0  0  0  0  0  0  0
  -11.1590    9.2340    2.2961 C   0  0  0  0  0  0  0  0  0  0  0  0
  -26.6629    6.4676    0.5323 C   0  0  0  0  0  0  0  0  0  0  0  0
  -25.3287    6.6290   -0.1056 C   0  0  0  0  0  0  0  0  0  0  0  0
  -24.5032    7.7096    0.1291 C   0  0  0  0  0  0  0  0  0  0  0  0
  -23.2470    7.8319   -0.4851 C   0  0  0  0  0  0  0  0  0  0  0  0
  -24.8599    5.6533   -0.9888 C   0  0  0  0  0  0  0  0  0  0  0  0
  -23.6364    5.7703   -1.5884 C   0  0  0  0  0  0  0  0  0  0  0  0
  -22.7932    6.8745   -1.3466 C   0  0  0  0  0  0  0  0  0  0  0  0
  -20.1626    8.2390   -1.4772 C   0  0  1  0  0  0  0  0  0  0  0  0
  -19.9645   10.5262   -2.0472 C   0  0  2  0  0  0  0  0  0  0  0  0
  -20.3854   11.0791   -3.4180 C   0  0  0  0  0  0  0  0  0  0  0  0
  -18.4740   10.4571   -2.0747 C   0  0  1  0  0  0  0  0  0  0  0  0
  -18.0260    9.2779   -1.2893 C   0  0  1  0  0  0  0  0  0  0  0  0
  -15.8764    9.3873   -0.0102 C   0  0  0  0  0  0  0  0  0  0  0  0
  -14.5713    9.0153   -0.2789 C   0  0  0  0  0  0  0  0  0  0  0  0
  -12.3895    8.8103    2.7481 C   0  0  0  0  0  0  0  0  0  0  0  0
  -13.4787    8.7439    1.9063 C   0  0  0  0  0  0  0  0  0  0  0  0
  -18.7373    8.0793   -1.9458 C   0  0  1  0  0  0  0  0  0  0  0  0
   -9.8479   10.0162    0.4806 F   0  0  0  0  0  0  0  0  0  0  0  0
  -12.5003    8.4590    4.0495 F   0  0  0  0  0  0  0  0  0  0  0  0
  -16.6281    9.1103   -1.1037 N   0  0  0  0  0  0  0  0  0  0  0  0
  -14.5999    8.5292   -1.5383 N   0  0  0  0  0  0  0  0  0  0  0  0
  -15.8113    8.5968   -1.9913 N   0  0  0  0  0  0  0  0  0  0  0  0
  -20.6946    9.4597   -1.7496 O   0  0  0  0  0  0  0  0  0  0  0  0
  -21.4035   12.0177   -3.2484 O   0  0  0  0  0  0  0  0  0  0  0  0
  -18.0076   10.3825   -3.3962 O   0  0  0  0  0  0  0  0  0  0  0  0
  -18.1642    6.9119   -1.5007 O   0  0  0  0  0  0  0  0  0  0  0  0
  -21.2041    6.9448   -2.1542 S   0  0  0  0  0  0  0  0  0  0  0  0
  1  2  2  0
 18  1  1  0
  1 20  1  0
  2  3  1  0
  3  4  2  0
  3 22  1  0
  4 19  1  0
  5  6  1  6
  7  6  2  0
  9  6  1  0
  8  7  1  0
 11  8  2  0
 10  9  2  0
 11 10  1  0
 31 11  1  0
 21 12  1  0
 12 27  1  0
 12 31  1  6
 13 14  1  0
 15 13  1  0
 13 27  1  6
 14 28  1  6
 16 15  1  0
 15 29  1  6
 16 21  1  0
 16 24  1  6
 17 18  2  0
 17 24  1  0
 18 25  1  0
 19 20  2  0
 19 23  1  0
 21 30  1  1
 24 26  1  0
 25 26  2  0
M  END
$$$$
