
     RDKit          3D

 31 34  0  0  0  0  0  0  0  0999 V2000
  -13.5456    8.6139    0.3302 C   0  0  0  0  0  0  0  0  0  0  0  0
  -13.5744    9.2581    1.5269 C   0  0  0  0  0  0  0  0  0  0  0  0
  -12.4329    9.6434    2.1823 C   0  0  0  0  0  0  0  0  0  0  0  0
  -11.2142    9.3582    1.5897 C   0  0  0  0  0  0  0  0  0  0  0  0
  -26.8779   10.9683    0.4109 C   0  0  0  0  0  0  0  0  0  0  0  0
  -25.5332   10.3706    0.4848 C   0  0  0  0  0  0  0  0  0  0  0  0
  -25.2302    9.5406    1.5589 C   0  0  0  0  0  0  0  0  0  0  0  0
  -23.9507    8.9773    1.6217 C   0  0  0  0  0  0  0  0  0  0  0  0
  -24.6075   10.6413   -0.5008 C   0  0  0  0  0  0  0  0  0  0  0  0
  -23.3452   10.0587   -0.3980 C   0  0  0  0  0  0  0  0  0  0  0  0
  -23.0165    9.2361    0.6491 C   0  0  0  0  0  0  0  0  0  0  0  0
  -20.4047    8.9670   -0.7130 C   0  0  1  0  0  0  0  0  0  0  0  0
  -20.1138    7.9209   -2.7827 C   0  0  2  0  0  0  0  0  0  0  0  0
  -20.8259    6.8763   -3.6142 C   0  0  0  0  0  0  0  0  0  0  0  0
  -18.7729    7.4037   -2.3485 C   0  0  1  0  0  0  0  0  0  0  0  0
  -18.1186    8.4963   -1.5424 C   0  0  1  0  0  0  0  0  0  0  0  0
  -15.9311    8.9092   -0.4547 C   0  0  0  0  0  0  0  0  0  0  0  0
  -14.7548    8.2022   -0.3689 C   0  0  0  0  0  0  0  0  0  0  0  0
  -11.1429    8.7060    0.3756 C   0  0  0  0  0  0  0  0  0  0  0  0
  -12.3089    8.3436   -0.2361 C   0  0  0  0  0  0  0  0  0  0  0  0
  -18.9883    8.7627   -0.3626 C   0  0  1  0  0  0  0  0  0  0  0  0
  -12.4503   10.2932    3.3882 F   0  0  0  0  0  0  0  0  0  0  0  0
   -9.9374    8.4350   -0.1906 F   0  0  0  0  0  0  0  0  0  0  0  0
  -16.7643    8.1794   -1.1761 N   0  0  0  0  0  0  0  0  0  0  0  0
  -14.9328    7.0546   -1.0555 N   0  0  0  0  0  0  0  0  0  0  0  0
  -16.1626    7.0570   -1.5407 N   0  0  0  0  0  0  0  0  0  0  0  0
  -20.9232    8.3596   -1.7923 O   0  0  0  0  0  0  0  0  0  0  0  0
  -22.1910    7.0165   -3.5810 O   0  0  0  0  0  0  0  0  0  0  0  0
  -18.8915    6.2144   -1.6825 O   0  0  0  0  0  0  0  0  0  0  0  0
  -18.4407    9.8857    0.3042 O   0  0  0  0  0  0  0  0  0  0  0  0
  -21.4090    8.5087    0.7553 S   0  0  0  0  0  0  0  0  0  0  0  0
  1  2  2  0
 18  1  1  0
  1 20  1  0
  2  3  1  0
  3  4  2  0
  3 22  1  0
  4 19  1  0
  6  5  1  0
  7  6  2  0
  9  6  1  0
  8  7  1  0
 11  8  2  0
 10  9  2  0
 11 10  1  0
 31 11  1  0
 21 12  1  0
 12 27  1  0
 12 31  1  1
 13 14  1  1
 15 13  1  0
 13 27  1  0
 14 28  1  0
 16 15  1  0
 15 29  1  1
 16 21  1  0
 16 24  1  1
 17 18  2  0
 17 24  1  0
 18 25  1  0
 19 20  2  0
 19 23  1  0
 21 30  1  6
 24 26  1  0
 25 26  2  0
M  END
$$$$
