
     RDKit          3D

 31 34  0  0  0  0  0  0  0  0999 V2000
  -13.5343    9.6537   -0.3595 C   0  0  0  0  0  0  0  0  0  0  0  0
  -13.5366   11.0126   -0.3257 C   0  0  0  0  0  0  0  0  0  0  0  0
  -12.3887   11.7532   -0.4483 C   0  0  0  0  0  0  0  0  0  0  0  0
  -11.1918   11.0764   -0.6121 C   0  0  0  0  0  0  0  0  0  0  0  0
  -27.2071    9.9733   -1.1899 C   0  0  0  0  0  0  0  0  0  0  0  0
  -25.7972    9.9150   -0.7661 C   0  0  0  0  0  0  0  0  0  0  0  0
  -24.8490   10.6148   -1.5047 C   0  0  0  0  0  0  0  0  0  0  0  0
  -23.5121   10.5539   -1.0954 C   0  0  0  0  0  0  0  0  0  0  0  0
  -25.4449    9.1755    0.3433 C   0  0  0  0  0  0  0  0  0  0  0  0
  -24.1016    9.1429    0.7148 C   0  0  0  0  0  0  0  0  0  0  0  0
  -23.1435    9.8224    0.0066 C   0  0  0  0  0  0  0  0  0  0  0  0
  -20.4610    8.8102   -0.7208 C   0  0  1  0  0  0  0  0  0  0  0  0
  -20.0918    6.5150   -0.9623 C   0  0  2  0  0  0  0  0  0  0  0  0
  -20.7332    5.2269   -0.4943 C   0  0  0  0  0  0  0  0  0  0  0  0
  -18.7255    6.6569   -0.3565 C   0  0  1  0  0  0  0  0  0  0  0  0
  -18.1445    7.9469   -0.8759 C   0  0  1  0  0  0  0  0  0  0  0  0
  -15.9420    9.0820   -0.8790 C   0  0  0  0  0  0  0  0  0  0  0  0
  -14.7502    8.8632   -0.2288 C   0  0  0  0  0  0  0  0  0  0  0  0
  -11.1477    9.6977   -0.6516 C   0  0  0  0  0  0  0  0  0  0  0  0
  -12.3189    9.0068   -0.5248 C   0  0  0  0  0  0  0  0  0  0  0  0
  -19.0376    9.0517   -0.4272 C   0  0  1  0  0  0  0  0  0  0  0  0
  -12.3795   13.1228   -0.4159 F   0  0  0  0  0  0  0  0  0  0  0  0
   -9.9632    9.0511   -0.8134 F   0  0  0  0  0  0  0  0  0  0  0  0
  -16.7763    8.1391   -0.4759 N   0  0  0  0  0  0  0  0  0  0  0  0
  -14.9205    7.7772    0.5532 N   0  0  0  0  0  0  0  0  0  0  0  0
  -16.1605    7.3487    0.3905 N   0  0  0  0  0  0  0  0  0  0  0  0
  -20.9337    7.5542   -0.7633 O   0  0  0  0  0  0  0  0  0  0  0  0
  -21.9950    5.0501   -1.0052 O   0  0  0  0  0  0  0  0  0  0  0  0
  -18.7771    6.5785    1.0085 O   0  0  0  0  0  0  0  0  0  0  0  0
  -18.5638   10.2362   -1.0419 O   0  0  0  0  0  0  0  0  0  0  0  0
  -21.4469    9.7657    0.4996 S   0  0  0  0  0  0  0  0  0  0  0  0
  1  2  2  0
 18  1  1  0
  1 20  1  0
  2  3  1  0
  3  4  2  0
  3 22  1  0
  4 19  1  0
  6  5  1  0
  7  6  2  0
  9  6  1  0
  8  7  1  0
 11  8  2  0
 10  9  2  0
 11 10  1  0
 31 11  1  0
 21 12  1  0
 12 27  1  0
 12 31  1  1
 13 14  1  1
 15 13  1  0
 13 27  1  0
 14 28  1  0
 16 15  1  0
 15 29  1  1
 16 21  1  0
 16 24  1  1
 17 18  2  0
 17 24  1  0
 18 25  1  0
 19 20  2  0
 19 23  1  0
 21 30  1  6
 24 26  1  0
 25 26  2  0
M  END
$$$$
