
     RDKit          3D

 31 34  0  0  0  0  0  0  0  0999 V2000
  -13.4212    9.3848    0.1553 C   0  0  0  0  0  0  0  0  0  0  0  0
  -13.4040   10.7282    0.4503 C   0  0  0  0  0  0  0  0  0  0  0  0
  -12.2093   11.4052    0.6945 C   0  0  0  0  0  0  0  0  0  0  0  0
  -10.9981   10.7462    0.6485 C   0  0  0  0  0  0  0  0  0  0  0  0
  -26.4490   11.6830   -1.8145 C   0  0  0  0  0  0  0  0  0  0  0  0
  -25.2806   11.0836   -1.1155 C   0  0  0  0  0  0  0  0  0  0  0  0
  -25.2170   10.9260    0.2539 C   0  0  0  0  0  0  0  0  0  0  0  0
  -24.1017   10.3528    0.8847 C   0  0  0  0  0  0  0  0  0  0  0  0
  -24.1790   10.6471   -1.8555 C   0  0  0  0  0  0  0  0  0  0  0  0
  -23.0913   10.0884   -1.2433 C   0  0  0  0  0  0  0  0  0  0  0  0
  -23.0283    9.9266    0.1562 C   0  0  0  0  0  0  0  0  0  0  0  0
  -20.3122    8.8459   -0.3479 C   0  0  1  0  0  0  0  0  0  0  0  0
  -20.0962    7.0992   -1.9283 C   0  0  2  0  0  0  0  0  0  0  0  0
  -20.8045    5.7445   -1.7698 C   0  0  0  0  0  0  0  0  0  0  0  0
  -18.6689    6.8591   -1.5647 C   0  0  1  0  0  0  0  0  0  0  0  0
  -18.1264    8.0692   -0.8943 C   0  0  1  0  0  0  0  0  0  0  0  0
  -15.8957    9.1276   -0.4787 C   0  0  0  0  0  0  0  0  0  0  0  0
  -14.6545    8.6496   -0.0983 C   0  0  0  0  0  0  0  0  0  0  0  0
  -11.0216    9.4008    0.3528 C   0  0  0  0  0  0  0  0  0  0  0  0
  -12.2071    8.7399    0.1133 C   0  0  0  0  0  0  0  0  0  0  0  0
  -19.0646    8.3039    0.3050 C   0  0  1  0  0  0  0  0  0  0  0  0
  -12.2237   12.7488    0.9866 F   0  0  0  0  0  0  0  0  0  0  0  0
   -9.8416    8.7417    0.3039 F   0  0  0  0  0  0  0  0  0  0  0  0
  -16.7425    8.0735   -0.5758 N   0  0  0  0  0  0  0  0  0  0  0  0
  -14.8149    7.3136    0.0135 N   0  0  0  0  0  0  0  0  0  0  0  0
  -16.0414    7.0088   -0.2698 N   0  0  0  0  0  0  0  0  0  0  0  0
  -20.8048    8.0490   -1.3325 O   0  0  0  0  0  0  0  0  0  0  0  0
  -21.9669    5.7342   -2.5411 O   0  0  0  0  0  0  0  0  0  0  0  0
  -18.5538    5.7345   -0.7332 O   0  0  0  0  0  0  0  0  0  0  0  0
  -18.4853    9.2067    1.1646 O   0  0  0  0  0  0  0  0  0  0  0  0
  -21.5812    9.1724    0.8772 S   0  0  0  0  0  0  0  0  0  0  0  0
  1  2  2  0
 18  1  1  0
  1 20  1  0
  2  3  1  0
  3  4  2  0
  3 22  1  0
  4 19  1  0
  5  6  1  6
  7  6  2  0
  9  6  1  0
  8  7  1  0
 11  8  2  0
 10  9  2  0
 11 10  1  0
 31 11  1  0
 21 12  1  0
 12 27  1  0
 12 31  1  1
 13 14  1  0
 15 13  1  0
 13 27  1  1
 14 28  1  6
 16 15  1  0
 15 29  1  1
 16 21  1  0
 16 24  1  1
 17 18  2  0
 17 24  1  0
 18 25  1  0
 19 20  2  0
 19 23  1  0
 21 30  1  1
 24 26  1  0
 25 26  2  0
M  END
$$$$
