
     RDKit          3D

 31 34  0  0  0  0  0  0  0  0999 V2000
  -13.0822    8.6440    0.1940 C   0  0  0  0  0  0  0  0  0  0  0  0
  -13.0147    8.6502    1.5677 C   0  0  0  0  0  0  0  0  0  0  0  0
  -11.8126    8.8787    2.2371 C   0  0  0  0  0  0  0  0  0  0  0  0
  -10.6443    9.1069    1.5396 C   0  0  0  0  0  0  0  0  0  0  0  0
  -26.7317    9.0483   -2.8178 C   0  0  0  0  0  0  0  0  0  0  0  0
  -25.4083    9.2182   -2.1599 C   0  0  0  0  0  0  0  0  0  0  0  0
  -25.1612    8.8558   -0.8515 C   0  0  0  0  0  0  0  0  0  0  0  0
  -23.8999    9.0249   -0.2594 C   0  0  0  0  0  0  0  0  0  0  0  0
  -24.3427    9.7671   -2.8775 C   0  0  0  0  0  0  0  0  0  0  0  0
  -23.1130    9.9329   -2.3028 C   0  0  0  0  0  0  0  0  0  0  0  0
  -22.8615    9.5607   -0.9660 C   0  0  0  0  0  0  0  0  0  0  0  0
  -20.0374    8.6544   -1.0098 C   0  0  1  0  0  0  0  0  0  0  0  0
  -19.7525    6.3247   -0.7156 C   0  0  2  0  0  0  0  0  0  0  0  0
  -20.2773    5.5739    0.5184 C   0  0  0  0  0  0  0  0  0  0  0  0
  -18.2805    6.4646   -0.5134 C   0  0  1  0  0  0  0  0  0  0  0  0
  -17.8302    7.7588   -1.0881 C   0  0  1  0  0  0  0  0  0  0  0  0
  -15.6068    8.2428   -0.0435 C   0  0  0  0  0  0  0  0  0  0  0  0
  -14.3227    8.4021   -0.5329 C   0  0  0  0  0  0  0  0  0  0  0  0
  -10.7181    9.0993    0.1639 C   0  0  0  0  0  0  0  0  0  0  0  0
  -11.9103    8.8722   -0.4890 C   0  0  0  0  0  0  0  0  0  0  0  0
  -18.6819    8.8220   -0.3685 C   0  0  1  0  0  0  0  0  0  0  0  0
  -11.7764    8.8793    3.6117 F   0  0  0  0  0  0  0  0  0  0  0  0
   -9.5806    9.3220   -0.5332 F   0  0  0  0  0  0  0  0  0  0  0  0
  -16.4343    8.0198   -1.0937 N   0  0  0  0  0  0  0  0  0  0  0  0
  -14.4410    8.2689   -1.8714 N   0  0  0  0  0  0  0  0  0  0  0  0
  -15.6820    8.0460   -2.1672 N   0  0  0  0  0  0  0  0  0  0  0  0
  -20.5149    7.3832   -0.9554 O   0  0  0  0  0  0  0  0  0  0  0  0
  -21.5792    5.1346    0.2769 O   0  0  0  0  0  0  0  0  0  0  0  0
  -17.9601    6.3862    0.8507 O   0  0  0  0  0  0  0  0  0  0  0  0
  -18.1421   10.0657   -0.5954 O   0  0  0  0  0  0  0  0  0  0  0  0
  -21.2249    9.7930   -0.2948 S   0  0  0  0  0  0  0  0  0  0  0  0
  1  2  2  0
 18  1  1  0
  1 20  1  0
  2  3  1  0
  3  4  2  0
  3 22  1  0
  4 19  1  0
  5  6  1  6
  7  6  2  0
  9  6  1  0
  8  7  1  0
 11  8  2  0
 10  9  2  0
 11 10  1  0
 31 11  1  0
 21 12  1  0
 12 27  1  0
 12 31  1  1
 13 14  1  0
 15 13  1  0
 13 27  1  1
 14 28  1  6
 16 15  1  0
 15 29  1  1
 16 21  1  0
 16 24  1  1
 17 18  2  0
 17 24  1  0
 18 25  1  0
 19 20  2  0
 19 23  1  0
 21 30  1  6
 24 26  1  0
 25 26  2  0
M  END
$$$$
