
     RDKit          3D

 31 34  0  0  0  0  0  0  0  0999 V2000
  -13.0253    8.8536   -0.0166 C   0  0  0  0  0  0  0  0  0  0  0  0
  -12.3395    8.4862   -1.1314 C   0  0  0  0  0  0  0  0  0  0  0  0
  -10.9703    8.4117   -1.1613 C   0  0  0  0  0  0  0  0  0  0  0  0
  -10.2759    8.7255   -0.0050 C   0  0  0  0  0  0  0  0  0  0  0  0
  -26.7538    8.6666   -3.3236 C   0  0  0  0  0  0  0  0  0  0  0  0
  -25.4675    8.9008   -2.6441 C   0  0  0  0  0  0  0  0  0  0  0  0
  -24.3737    9.2990   -3.4053 C   0  0  0  0  0  0  0  0  0  0  0  0
  -23.1558    9.5190   -2.7521 C   0  0  0  0  0  0  0  0  0  0  0  0
  -25.3705    8.7230   -1.2800 C   0  0  0  0  0  0  0  0  0  0  0  0
  -24.1377    8.9533   -0.6710 C   0  0  0  0  0  0  0  0  0  0  0  0
  -23.0410    9.3466   -1.3947 C   0  0  0  0  0  0  0  0  0  0  0  0
  -20.2192    8.4730   -1.2414 C   0  0  1  0  0  0  0  0  0  0  0  0
  -19.5753    6.3359   -0.5480 C   0  0  2  0  0  0  0  0  0  0  0  0
  -20.1462    5.2185    0.2977 C   0  0  0  0  0  0  0  0  0  0  0  0
  -18.3514    6.9033    0.1109 C   0  0  1  0  0  0  0  0  0  0  0  0
  -17.8313    7.9943   -0.7896 C   0  0  1  0  0  0  0  0  0  0  0  0
  -15.3607    8.1164   -0.6460 C   0  0  0  0  0  0  0  0  0  0  0  0
  -14.4787    8.9349    0.0196 C   0  0  0  0  0  0  0  0  0  0  0  0
  -10.9355    9.1027    1.1470 C   0  0  0  0  0  0  0  0  0  0  0  0
  -12.2997    9.1612    1.1244 C   0  0  0  0  0  0  0  0  0  0  0  0
  -18.8979    9.0284   -0.9004 C   0  0  1  0  0  0  0  0  0  0  0  0
  -10.2692    8.0425   -2.2788 F   0  0  0  0  0  0  0  0  0  0  0  0
  -10.2366    9.4067    2.2724 F   0  0  0  0  0  0  0  0  0  0  0  0
  -16.5767    8.5340   -0.3385 N   0  0  0  0  0  0  0  0  0  0  0  0
  -15.2149    9.8278    0.7131 N   0  0  0  0  0  0  0  0  0  0  0  0
  -16.4909    9.5692    0.4835 N   0  0  0  0  0  0  0  0  0  0  0  0
  -20.5433    7.2280   -0.8571 O   0  0  0  0  0  0  0  0  0  0  0  0
  -21.4066    4.8474   -0.1001 O   0  0  0  0  0  0  0  0  0  0  0  0
  -18.6208    7.3154    1.3875 O   0  0  0  0  0  0  0  0  0  0  0  0
  -18.4560    9.9709   -1.8605 O   0  0  0  0  0  0  0  0  0  0  0  0
  -21.4895    9.6335   -0.5979 S   0  0  0  0  0  0  0  0  0  0  0  0
  1  2  2  0
 18  1  1  0
  1 20  1  0
  2  3  1  0
  3  4  2  0
  3 22  1  0
  4 19  1  0
  6  5  1  0
  7  6  2  0
  9  6  1  0
  8  7  1  0
 11  8  2  0
 10  9  2  0
 11 10  1  0
 31 11  1  0
 21 12  1  0
 12 27  1  0
 12 31  1  1
 13 14  1  1
 15 13  1  0
 13 27  1  0
 14 28  1  0
 16 15  1  0
 15 29  1  1
 16 21  1  0
 16 24  1  1
 17 18  2  0
 17 24  1  0
 18 25  1  0
 19 20  2  0
 19 23  1  0
 21 30  1  6
 24 26  1  0
 25 26  2  0
M  END
$$$$
