
     RDKit          3D

 31 34  0  0  0  0  0  0  0  0999 V2000
  -13.3379    9.4707    0.0364 C   0  0  0  0  0  0  0  0  0  0  0  0
  -13.3558   10.8406   -0.0850 C   0  0  0  0  0  0  0  0  0  0  0  0
  -12.1882   11.5964    0.0180 C   0  0  0  0  0  0  0  0  0  0  0  0
  -10.9694   10.9917    0.2468 C   0  0  0  0  0  0  0  0  0  0  0  0
  -26.7551   10.2732   -2.5224 C   0  0  0  0  0  0  0  0  0  0  0  0
  -25.4264   10.1387   -1.8670 C   0  0  0  0  0  0  0  0  0  0  0  0
  -24.2893    9.7354   -2.5367 C   0  0  0  0  0  0  0  0  0  0  0  0
  -23.0480    9.6219   -1.8914 C   0  0  0  0  0  0  0  0  0  0  0  0
  -25.2913   10.4305   -0.5074 C   0  0  0  0  0  0  0  0  0  0  0  0
  -24.0830   10.3206    0.1235 C   0  0  0  0  0  0  0  0  0  0  0  0
  -22.9214    9.9097   -0.5625 C   0  0  0  0  0  0  0  0  0  0  0  0
  -20.1501    8.8520   -0.5625 C   0  0  1  0  0  0  0  0  0  0  0  0
  -20.0291    6.5366   -1.0312 C   0  0  2  0  0  0  0  0  0  0  0  0
  -20.7783    5.4818   -0.2017 C   0  0  0  0  0  0  0  0  0  0  0  0
  -18.6026    6.4578   -0.5999 C   0  0  1  0  0  0  0  0  0  0  0  0
  -18.0046    7.8175   -0.6422 C   0  0  1  0  0  0  0  0  0  0  0  0
  -15.8141    9.0176   -0.4681 C   0  0  0  0  0  0  0  0  0  0  0  0
  -14.5428    8.6553   -0.0605 C   0  0  0  0  0  0  0  0  0  0  0  0
  -10.9578    9.6194    0.3676 C   0  0  0  0  0  0  0  0  0  0  0  0
  -12.1167    8.8807    0.2648 C   0  0  0  0  0  0  0  0  0  0  0  0
  -18.9066    8.6685    0.2720 C   0  0  1  0  0  0  0  0  0  0  0  0
  -12.2374   12.9648   -0.1081 F   0  0  0  0  0  0  0  0  0  0  0  0
   -9.7699    9.0127    0.5917 F   0  0  0  0  0  0  0  0  0  0  0  0
  -16.6144    7.9275   -0.3744 N   0  0  0  0  0  0  0  0  0  0  0  0
  -14.6392    7.3471    0.2599 N   0  0  0  0  0  0  0  0  0  0  0  0
  -15.8577    6.9524    0.0676 N   0  0  0  0  0  0  0  0  0  0  0  0
  -20.6916    7.6852   -1.0014 O   0  0  0  0  0  0  0  0  0  0  0  0
  -22.0041    5.2000   -0.8052 O   0  0  0  0  0  0  0  0  0  0  0  0
  -18.5060    5.9104    0.6886 O   0  0  0  0  0  0  0  0  0  0  0  0
  -18.2778    9.8590    0.5491 O   0  0  0  0  0  0  0  0  0  0  0  0
  -21.3790    9.8083    0.3281 S   0  0  0  0  0  0  0  0  0  0  0  0
  1  2  2  0
 18  1  1  0
  1 20  1  0
  2  3  1  0
  3  4  2  0
  3 22  1  0
  4 19  1  0
  5  6  1  6
  7  6  2  0
  9  6  1  0
  8  7  1  0
 11  8  2  0
 10  9  2  0
 11 10  1  0
 31 11  1  0
 21 12  1  0
 12 27  1  0
 12 31  1  1
 13 14  1  0
 15 13  1  0
 13 27  1  1
 14 28  1  6
 16 15  1  0
 15 29  1  1
 16 21  1  0
 16 24  1  1
 17 18  2  0
 17 24  1  0
 18 25  1  0
 19 20  2  0
 19 23  1  0
 21 30  1  6
 24 26  1  0
 25 26  2  0
M  END
$$$$
