
     RDKit          3D

 31 34  0  0  0  0  0  0  0  0999 V2000
  -13.1225    9.1980   -0.1938 C   0  0  0  0  0  0  0  0  0  0  0  0
  -12.5480    8.0737    0.3099 C   0  0  0  0  0  0  0  0  0  0  0  0
  -11.1892    7.9344    0.4339 C   0  0  0  0  0  0  0  0  0  0  0  0
  -10.3871    8.9871    0.0265 C   0  0  0  0  0  0  0  0  0  0  0  0
  -27.0319    8.0158   -2.7218 C   0  0  0  0  0  0  0  0  0  0  0  0
  -25.6887    8.4913   -2.3470 C   0  0  0  0  0  0  0  0  0  0  0  0
  -25.1198    9.5283   -3.0787 C   0  0  0  0  0  0  0  0  0  0  0  0
  -23.8436    9.9737   -2.7163 C   0  0  0  0  0  0  0  0  0  0  0  0
  -25.0250    7.9066   -1.2890 C   0  0  0  0  0  0  0  0  0  0  0  0
  -23.7556    8.3819   -0.9630 C   0  0  0  0  0  0  0  0  0  0  0  0
  -23.1682    9.4030   -1.6657 C   0  0  0  0  0  0  0  0  0  0  0  0
  -20.2934    8.7095   -1.6057 C   0  0  1  0  0  0  0  0  0  0  0  0
  -19.6706    6.7629   -0.4720 C   0  0  2  0  0  0  0  0  0  0  0  0
  -20.2553    5.8531    0.5864 C   0  0  0  0  0  0  0  0  0  0  0  0
  -18.4460    7.4485    0.0611 C   0  0  1  0  0  0  0  0  0  0  0  0
  -17.9120    8.3211   -1.0456 C   0  0  1  0  0  0  0  0  0  0  0  0
  -15.4559    8.3808   -0.7240 C   0  0  0  0  0  0  0  0  0  0  0  0
  -14.5644    9.3500   -0.3282 C   0  0  0  0  0  0  0  0  0  0  0  0
  -10.9319   10.1450   -0.4900 C   0  0  0  0  0  0  0  0  0  0  0  0
  -12.2909   10.2336   -0.5925 C   0  0  0  0  0  0  0  0  0  0  0  0
  -18.9696    9.3156   -1.3800 C   0  0  1  0  0  0  0  0  0  0  0  0
  -10.5998    6.8062    0.9403 F   0  0  0  0  0  0  0  0  0  0  0  0
  -10.1283   11.1678   -0.8844 F   0  0  0  0  0  0  0  0  0  0  0  0
  -16.6557    8.9356   -0.7096 N   0  0  0  0  0  0  0  0  0  0  0  0
  -15.2787   10.4690   -0.0874 N   0  0  0  0  0  0  0  0  0  0  0  0
  -16.5509   10.1988   -0.3248 N   0  0  0  0  0  0  0  0  0  0  0  0
  -20.6296    7.5759   -0.9695 O   0  0  0  0  0  0  0  0  0  0  0  0
  -21.2461    5.0403    0.0943 O   0  0  0  0  0  0  0  0  0  0  0  0
  -18.7193    8.1227    1.2199 O   0  0  0  0  0  0  0  0  0  0  0  0
  -18.5147   10.0310   -2.5143 O   0  0  0  0  0  0  0  0  0  0  0  0
  -21.5579    9.9881   -1.2310 S   0  0  0  0  0  0  0  0  0  0  0  0
  1  2  2  0
 18  1  1  0
  1 20  1  0
  2  3  1  0
  3  4  2  0
  3 22  1  0
  4 19  1  0
  6  5  1  0
  7  6  2  0
  9  6  1  0
  8  7  1  0
 11  8  2  0
 10  9  2  0
 11 10  1  0
 31 11  1  0
 21 12  1  0
 12 27  1  0
 12 31  1  1
 13 14  1  1
 15 13  1  0
 13 27  1  0
 14 28  1  0
 16 15  1  0
 15 29  1  1
 16 21  1  0
 16 24  1  1
 17 18  2  0
 17 24  1  0
 18 25  1  0
 19 20  2  0
 19 23  1  0
 21 30  1  6
 24 26  1  0
 25 26  2  0
M  END
$$$$
