
     RDKit          3D

 31 34  0  0  0  0  0  0  0  0999 V2000
  -13.6897    8.7999    0.4244 C   0  0  0  0  0  0  0  0  0  0  0  0
  -12.4038    8.5529    0.0034 C   0  0  0  0  0  0  0  0  0  0  0  0
  -11.3098    8.7602    0.8433 C   0  0  0  0  0  0  0  0  0  0  0  0
  -11.4819    9.2230    2.1316 C   0  0  0  0  0  0  0  0  0  0  0  0
  -26.6321   11.8698    0.3379 C   0  0  0  0  0  0  0  0  0  0  0  0
  -25.4486   10.9755    0.4487 C   0  0  0  0  0  0  0  0  0  0  0  0
  -25.5413    9.6293    0.7374 C   0  0  0  0  0  0  0  0  0  0  0  0
  -24.4056    8.8098    0.8314 C   0  0  0  0  0  0  0  0  0  0  0  0
  -24.1664   11.4951    0.2537 C   0  0  0  0  0  0  0  0  0  0  0  0
  -23.0585   10.6986    0.3449 C   0  0  0  0  0  0  0  0  0  0  0  0
  -23.1549    9.3227    0.6385 C   0  0  0  0  0  0  0  0  0  0  0  0
  -20.4673    8.8404   -0.5205 C   0  0  1  0  0  0  0  0  0  0  0  0
  -20.3074    8.2996   -2.8178 C   0  0  2  0  0  0  0  0  0  0  0  0
  -20.9681    7.0516   -3.4244 C   0  0  0  0  0  0  0  0  0  0  0  0
  -18.8538    7.9799   -2.7079 C   0  0  1  0  0  0  0  0  0  0  0  0
  -18.3014    8.6331   -1.4929 C   0  0  1  0  0  0  0  0  0  0  0  0
  -16.1733    8.9416   -0.2103 C   0  0  0  0  0  0  0  0  0  0  0  0
  -14.8518    8.5984   -0.4329 C   0  0  0  0  0  0  0  0  0  0  0  0
  -12.7721    9.4688    2.5475 C   0  0  0  0  0  0  0  0  0  0  0  0
  -13.8472    9.2614    1.7104 C   0  0  0  0  0  0  0  0  0  0  0  0
  -19.1665    8.0986   -0.3356 C   0  0  1  0  0  0  0  0  0  0  0  0
  -10.0356    8.5040    0.3944 F   0  0  0  0  0  0  0  0  0  0  0  0
  -12.9563    9.9226    3.8082 F   0  0  0  0  0  0  0  0  0  0  0  0
  -16.9005    8.5379   -1.2807 N   0  0  0  0  0  0  0  0  0  0  0  0
  -14.8464    8.0000   -1.6433 N   0  0  0  0  0  0  0  0  0  0  0  0
  -16.0538    7.9789   -2.1111 N   0  0  0  0  0  0  0  0  0  0  0  0
  -21.0010    8.7075   -1.7634 O   0  0  0  0  0  0  0  0  0  0  0  0
  -21.6055    7.3957   -4.6166 O   0  0  0  0  0  0  0  0  0  0  0  0
  -18.6560    6.5913   -2.6612 O   0  0  0  0  0  0  0  0  0  0  0  0
  -18.5571    8.3940    0.8606 O   0  0  0  0  0  0  0  0  0  0  0  0
  -21.6632    8.3478    0.7225 S   0  0  0  0  0  0  0  0  0  0  0  0
  1  2  2  0
 18  1  1  0
  1 20  1  0
  2  3  1  0
  3  4  2  0
  3 22  1  0
  4 19  1  0
  5  6  1  6
  7  6  2  0
  9  6  1  0
  8  7  1  0
 11  8  2  0
 10  9  2  0
 11 10  1  0
 31 11  1  0
 21 12  1  0
 12 27  1  0
 12 31  1  1
 13 14  1  0
 15 13  1  0
 13 27  1  1
 14 28  1  6
 16 15  1  0
 15 29  1  1
 16 21  1  0
 16 24  1  1
 17 18  2  0
 17 24  1  0
 18 25  1  0
 19 20  2  0
 19 23  1  0
 21 30  1  1
 24 26  1  0
 25 26  2  0
M  END
$$$$
