
     RDKit          3D

 31 34  0  0  0  0  0  0  0  0999 V2000
  -13.4126    8.6932    0.3038 C   0  0  0  0  0  0  0  0  0  0  0  0
  -13.3335    8.9735    1.6481 C   0  0  0  0  0  0  0  0  0  0  0  0
  -12.1516    9.4342    2.2279 C   0  0  0  0  0  0  0  0  0  0  0  0
  -11.0158    9.6247    1.4682 C   0  0  0  0  0  0  0  0  0  0  0  0
  -27.1080   10.1107   -0.8352 C   0  0  0  0  0  0  0  0  0  0  0  0
  -25.6698   10.0090   -0.4691 C   0  0  0  0  0  0  0  0  0  0  0  0
  -24.6523   10.5215   -1.2477 C   0  0  0  0  0  0  0  0  0  0  0  0
  -23.3038   10.4134   -0.8734 C   0  0  0  0  0  0  0  0  0  0  0  0
  -25.2998    9.3706    0.7172 C   0  0  0  0  0  0  0  0  0  0  0  0
  -23.9867    9.2639    1.0840 C   0  0  0  0  0  0  0  0  0  0  0  0
  -22.9481    9.7895    0.2880 C   0  0  0  0  0  0  0  0  0  0  0  0
  -20.2086    8.8894   -0.4075 C   0  0  1  0  0  0  0  0  0  0  0  0
  -20.2875    6.7658   -1.4465 C   0  0  2  0  0  0  0  0  0  0  0  0
  -20.9964    5.5581   -0.8134 C   0  0  0  0  0  0  0  0  0  0  0  0
  -18.8274    6.5377   -1.2384 C   0  0  1  0  0  0  0  0  0  0  0  0
  -18.1558    7.8452   -1.0206 C   0  0  1  0  0  0  0  0  0  0  0  0
  -15.9438    8.5872   -0.1120 C   0  0  0  0  0  0  0  0  0  0  0  0
  -14.6321    8.2048   -0.3287 C   0  0  0  0  0  0  0  0  0  0  0  0
  -11.1011    9.3421    0.1225 C   0  0  0  0  0  0  0  0  0  0  0  0
  -12.2732    8.8869   -0.4417 C   0  0  0  0  0  0  0  0  0  0  0  0
  -18.8883    8.4633    0.1857 C   0  0  1  0  0  0  0  0  0  0  0  0
  -12.1030    9.7063    3.5749 F   0  0  0  0  0  0  0  0  0  0  0  0
   -9.9955    9.5246   -0.6349 F   0  0  0  0  0  0  0  0  0  0  0  0
  -16.7395    7.8422   -0.9180 N   0  0  0  0  0  0  0  0  0  0  0  0
  -14.7018    7.2382   -1.2689 N   0  0  0  0  0  0  0  0  0  0  0  0
  -15.9418    7.0488   -1.5911 N   0  0  0  0  0  0  0  0  0  0  0  0
  -20.8695    7.8886   -1.0469 O   0  0  0  0  0  0  0  0  0  0  0  0
  -22.3447    5.5698   -1.1714 O   0  0  0  0  0  0  0  0  0  0  0  0
  -18.6122    5.6790   -0.1495 O   0  0  0  0  0  0  0  0  0  0  0  0
  -18.1586    9.5254    0.6643 O   0  0  0  0  0  0  0  0  0  0  0  0
  -21.2612    9.6250    0.8449 S   0  0  0  0  0  0  0  0  0  0  0  0
  1  2  2  0
 18  1  1  0
  1 20  1  0
  2  3  1  0
  3  4  2  0
  3 22  1  0
  4 19  1  0
  5  6  1  6
  7  6  2  0
  9  6  1  0
  8  7  1  0
 11  8  2  0
 10  9  2  0
 11 10  1  0
 31 11  1  0
 21 12  1  0
 12 27  1  0
 12 31  1  1
 13 14  1  0
 15 13  1  0
 13 27  1  1
 14 28  1  6
 16 15  1  0
 15 29  1  1
 16 21  1  0
 16 24  1  1
 17 18  2  0
 17 24  1  0
 18 25  1  0
 19 20  2  0
 19 23  1  0
 21 30  1  6
 24 26  1  0
 25 26  2  0
M  END
$$$$
