
     RDKit          3D

 31 34  0  0  0  0  0  0  0  0999 V2000
  -13.3169    8.9994    0.2228 C   0  0  0  0  0  0  0  0  0  0  0  0
  -12.7183    9.9681   -0.5486 C   0  0  0  0  0  0  0  0  0  0  0  0
  -11.4635   10.4844   -0.2255 C   0  0  0  0  0  0  0  0  0  0  0  0
  -10.7774   10.0386    0.8853 C   0  0  0  0  0  0  0  0  0  0  0  0
  -26.4101   12.0054   -1.3072 C   0  0  0  0  0  0  0  0  0  0  0  0
  -25.2979   11.1148   -0.8796 C   0  0  0  0  0  0  0  0  0  0  0  0
  -25.1614   10.6393    0.4086 C   0  0  0  0  0  0  0  0  0  0  0  0
  -24.1025    9.7965    0.7810 C   0  0  0  0  0  0  0  0  0  0  0  0
  -24.3296   10.7211   -1.8065 C   0  0  0  0  0  0  0  0  0  0  0  0
  -23.2970    9.9001   -1.4460 C   0  0  0  0  0  0  0  0  0  0  0  0
  -23.1595    9.4137   -0.1295 C   0  0  0  0  0  0  0  0  0  0  0  0
  -20.3437    8.7015   -0.7320 C   0  0  1  0  0  0  0  0  0  0  0  0
  -19.7659    8.0619   -2.9348 C   0  0  2  0  0  0  0  0  0  0  0  0
  -20.3755    6.8338   -3.6291 C   0  0  0  0  0  0  0  0  0  0  0  0
  -18.3886    7.6583   -2.5257 C   0  0  1  0  0  0  0  0  0  0  0  0
  -18.0465    8.3238   -1.2419 C   0  0  1  0  0  0  0  0  0  0  0  0
  -15.7168    9.0545   -0.6875 C   0  0  0  0  0  0  0  0  0  0  0  0
  -14.6297    8.4455   -0.0866 C   0  0  0  0  0  0  0  0  0  0  0  0
  -11.3821    9.0685    1.6542 C   0  0  0  0  0  0  0  0  0  0  0  0
  -12.6225    8.5644    1.3274 C   0  0  0  0  0  0  0  0  0  0  0  0
  -19.1594    7.8893   -0.2691 C   0  0  1  0  0  0  0  0  0  0  0  0
  -10.8900   11.4523   -1.0162 F   0  0  0  0  0  0  0  0  0  0  0  0
  -10.7210    8.6215    2.7462 F   0  0  0  0  0  0  0  0  0  0  0  0
  -16.7259    8.1515   -0.7492 N   0  0  0  0  0  0  0  0  0  0  0  0
  -15.0407    7.1884    0.1851 N   0  0  0  0  0  0  0  0  0  0  0  0
  -16.2656    7.0479   -0.2114 N   0  0  0  0  0  0  0  0  0  0  0  0
  -20.6265    8.5528   -2.0530 O   0  0  0  0  0  0  0  0  0  0  0  0
  -20.8424    7.1976   -4.8924 O   0  0  0  0  0  0  0  0  0  0  0  0
  -18.2988    6.2632   -2.4036 O   0  0  0  0  0  0  0  0  0  0  0  0
  -18.7823    8.1938    1.0172 O   0  0  0  0  0  0  0  0  0  0  0  0
  -21.7942    8.3325    0.2569 S   0  0  0  0  0  0  0  0  0  0  0  0
  1  2  2  0
 18  1  1  0
  1 20  1  0
  2  3  1  0
  3  4  2  0
  3 22  1  0
  4 19  1  0
  5  6  1  6
  7  6  2  0
  9  6  1  0
  8  7  1  0
 11  8  2  0
 10  9  2  0
 11 10  1  0
 31 11  1  0
 21 12  1  0
 12 27  1  0
 12 31  1  1
 13 14  1  0
 15 13  1  0
 13 27  1  1
 14 28  1  6
 16 15  1  0
 15 29  1  1
 16 21  1  0
 16 24  1  1
 17 18  2  0
 17 24  1  0
 18 25  1  0
 19 20  2  0
 19 23  1  0
 21 30  1  1
 24 26  1  0
 25 26  2  0
M  END
$$$$
