
     RDKit          3D

 31 34  0  0  0  0  0  0  0  0999 V2000
  -13.4835    9.0993   -0.0146 C   0  0  0  0  0  0  0  0  0  0  0  0
  -12.8202   10.1046   -0.6449 C   0  0  0  0  0  0  0  0  0  0  0  0
  -11.7478   10.7459   -0.0795 C   0  0  0  0  0  0  0  0  0  0  0  0
  -11.3382   10.3425    1.1803 C   0  0  0  0  0  0  0  0  0  0  0  0
  -26.7241   11.2364   -1.0470 C   0  0  0  0  0  0  0  0  0  0  0  0
  -25.2852   11.0294   -0.8067 C   0  0  0  0  0  0  0  0  0  0  0  0
  -24.4284   12.1204   -0.9065 C   0  0  0  0  0  0  0  0  0  0  0  0
  -23.0633   11.9150   -0.6770 C   0  0  0  0  0  0  0  0  0  0  0  0
  -24.8169    9.7713   -0.4908 C   0  0  0  0  0  0  0  0  0  0  0  0
  -23.4495    9.6127   -0.2705 C   0  0  0  0  0  0  0  0  0  0  0  0
  -22.5796   10.6692   -0.3616 C   0  0  0  0  0  0  0  0  0  0  0  0
  -20.1916    9.1246   -1.1746 C   0  0  1  0  0  0  0  0  0  0  0  0
  -20.1903    6.7957   -0.9781 C   0  0  2  0  0  0  0  0  0  0  0  0
  -20.9361    5.7427   -0.1878 C   0  0  0  0  0  0  0  0  0  0  0  0
  -18.7462    6.8172   -0.5680 C   0  0  1  0  0  0  0  0  0  0  0  0
  -18.0664    7.8726   -1.4020 C   0  0  1  0  0  0  0  0  0  0  0  0
  -15.9418    8.7956   -0.5228 C   0  0  0  0  0  0  0  0  0  0  0  0
  -14.6230    8.4161   -0.6105 C   0  0  0  0  0  0  0  0  0  0  0  0
  -11.9853    9.3260    1.8529 C   0  0  0  0  0  0  0  0  0  0  0  0
  -13.0479    8.7195    1.2460 C   0  0  0  0  0  0  0  0  0  0  0  0
  -18.7213    9.1749   -1.0949 C   0  0  1  0  0  0  0  0  0  0  0  0
  -11.0720   11.7598   -0.7057 F   0  0  0  0  0  0  0  0  0  0  0  0
  -11.5685    8.9437    3.0888 F   0  0  0  0  0  0  0  0  0  0  0  0
  -16.6424    7.9043   -1.2026 N   0  0  0  0  0  0  0  0  0  0  0  0
  -14.5844    7.2908   -1.3537 N   0  0  0  0  0  0  0  0  0  0  0  0
  -15.8233    6.9930   -1.7062 N   0  0  0  0  0  0  0  0  0  0  0  0
  -20.8394    7.9797   -0.9058 O   0  0  0  0  0  0  0  0  0  0  0  0
  -22.2355    5.5927   -0.6044 O   0  0  0  0  0  0  0  0  0  0  0  0
  -18.6161    7.0036    0.7812 O   0  0  0  0  0  0  0  0  0  0  0  0
  -18.1750   10.1284   -1.9881 O   0  0  0  0  0  0  0  0  0  0  0  0
  -20.8501   10.4414   -0.0761 S   0  0  0  0  0  0  0  0  0  0  0  0
  1  2  2  0
 18  1  1  0
  1 20  1  0
  2  3  1  0
  3  4  2  0
  3 22  1  0
  4 19  1  0
  6  5  1  0
  7  6  2  0
  9  6  1  0
  8  7  1  0
 11  8  2  0
 10  9  2  0
 11 10  1  0
 31 11  1  0
 21 12  1  0
 12 27  1  0
 12 31  1  1
 13 14  1  1
 15 13  1  0
 13 27  1  0
 14 28  1  0
 16 15  1  0
 15 29  1  1
 16 21  1  0
 16 24  1  1
 17 18  2  0
 17 24  1  0
 18 25  1  0
 19 20  2  0
 19 23  1  0
 21 30  1  6
 24 26  1  0
 25 26  2  0
M  END
$$$$
