
     RDKit          3D

 31 34  0  0  0  0  0  0  0  0999 V2000
  -13.1762    8.9388   -0.1764 C   0  0  0  0  0  0  0  0  0  0  0  0
  -12.7289    9.4892   -1.3549 C   0  0  0  0  0  0  0  0  0  0  0  0
  -11.4224    9.9582   -1.4902 C   0  0  0  0  0  0  0  0  0  0  0  0
  -10.5302    9.8858   -0.4403 C   0  0  0  0  0  0  0  0  0  0  0  0
  -26.0992   10.8853   -3.7738 C   0  0  0  0  0  0  0  0  0  0  0  0
  -25.0124   10.6372   -2.7887 C   0  0  0  0  0  0  0  0  0  0  0  0
  -25.2247   10.5760   -1.4266 C   0  0  0  0  0  0  0  0  0  0  0  0
  -24.1787   10.3361   -0.5218 C   0  0  0  0  0  0  0  0  0  0  0  0
  -23.7016   10.4507   -3.2349 C   0  0  0  0  0  0  0  0  0  0  0  0
  -22.6810   10.2169   -2.3553 C   0  0  0  0  0  0  0  0  0  0  0  0
  -22.8997   10.1532   -0.9636 C   0  0  0  0  0  0  0  0  0  0  0  0
  -20.1889    8.9713   -0.7315 C   0  0  1  0  0  0  0  0  0  0  0  0
  -20.0039    6.7276   -1.4574 C   0  0  2  0  0  0  0  0  0  0  0  0
  -20.8413    5.5887   -0.8545 C   0  0  0  0  0  0  0  0  0  0  0  0
  -18.6378    6.5833   -0.8740 C   0  0  1  0  0  0  0  0  0  0  0  0
  -18.0447    7.9322   -0.6821 C   0  0  1  0  0  0  0  0  0  0  0  0
  -15.6411    8.6197   -0.8196 C   0  0  0  0  0  0  0  0  0  0  0  0
  -14.5375    8.4461   -0.0036 C   0  0  0  0  0  0  0  0  0  0  0  0
  -10.9840    9.3338    0.7375 C   0  0  0  0  0  0  0  0  0  0  0  0
  -12.2769    8.8733    0.8622 C   0  0  0  0  0  0  0  0  0  0  0  0
  -19.0517    8.6765    0.2154 C   0  0  1  0  0  0  0  0  0  0  0  0
  -11.0037   10.5032   -2.6812 F   0  0  0  0  0  0  0  0  0  0  0  0
  -10.1202    9.2559    1.7753 F   0  0  0  0  0  0  0  0  0  0  0  0
  -16.6962    7.9953   -0.2414 N   0  0  0  0  0  0  0  0  0  0  0  0
  -14.9863    7.7135    1.0381 N   0  0  0  0  0  0  0  0  0  0  0  0
  -16.2469    7.4676    0.8716 N   0  0  0  0  0  0  0  0  0  0  0  0
  -20.6700    7.8710   -1.3680 O   0  0  0  0  0  0  0  0  0  0  0  0
  -21.0633    4.6107   -1.8243 O   0  0  0  0  0  0  0  0  0  0  0  0
  -18.6917    5.8846    0.3418 O   0  0  0  0  0  0  0  0  0  0  0  0
  -18.4649    9.8189    0.7055 O   0  0  0  0  0  0  0  0  0  0  0  0
  -21.5181    9.8264    0.1168 S   0  0  0  0  0  0  0  0  0  0  0  0
  1  2  2  0
 18  1  1  0
  1 20  1  0
  2  3  1  0
  3  4  2  0
  3 22  1  0
  4 19  1  0
  5  6  1  6
  7  6  2  0
  9  6  1  0
  8  7  1  0
 11  8  2  0
 10  9  2  0
 11 10  1  0
 31 11  1  0
 21 12  1  0
 12 27  1  0
 12 31  1  1
 13 14  1  0
 15 13  1  0
 13 27  1  1
 14 28  1  6
 16 15  1  0
 15 29  1  1
 16 21  1  0
 16 24  1  1
 17 18  2  0
 17 24  1  0
 18 25  1  0
 19 20  2  0
 19 23  1  0
 21 30  1  6
 24 26  1  0
 25 26  2  0
M  END
$$$$
