
     RDKit          3D

 31 34  0  0  0  0  0  0  0  0999 V2000
  -13.9001    8.4970    0.4013 C   0  0  0  0  0  0  0  0  0  0  0  0
  -13.8428    8.7756    1.7306 C   0  0  0  0  0  0  0  0  0  0  0  0
  -12.6633    9.0504    2.3742 C   0  0  0  0  0  0  0  0  0  0  0  0
  -11.4968    9.0398    1.6280 C   0  0  0  0  0  0  0  0  0  0  0  0
  -27.2493   10.7402    1.0701 C   0  0  0  0  0  0  0  0  0  0  0  0
  -25.9564   10.0512    0.9130 C   0  0  0  0  0  0  0  0  0  0  0  0
  -24.8476   10.5512    1.5875 C   0  0  0  0  0  0  0  0  0  0  0  0
  -23.6235    9.8910    1.4325 C   0  0  0  0  0  0  0  0  0  0  0  0
  -25.8680    8.9347    0.1085 C   0  0  0  0  0  0  0  0  0  0  0  0
  -24.6287    8.3087   -0.0170 C   0  0  0  0  0  0  0  0  0  0  0  0
  -23.5172    8.7780    0.6353 C   0  0  0  0  0  0  0  0  0  0  0  0
  -20.8535    8.9358   -0.6410 C   0  0  1  0  0  0  0  0  0  0  0  0
  -20.3704    8.7394   -2.9192 C   0  0  2  0  0  0  0  0  0  0  0  0
  -20.9847    8.0844   -4.1372 C   0  0  0  0  0  0  0  0  0  0  0  0
  -19.0540    8.0926   -2.5986 C   0  0  1  0  0  0  0  0  0  0  0  0
  -18.4966    8.8017   -1.3911 C   0  0  1  0  0  0  0  0  0  0  0  0
  -16.2656    9.0063   -0.3329 C   0  0  0  0  0  0  0  0  0  0  0  0
  -15.1499    8.2038   -0.2860 C   0  0  0  0  0  0  0  0  0  0  0  0
  -11.5131    8.7618    0.2764 C   0  0  0  0  0  0  0  0  0  0  0  0
  -12.7139    8.4946   -0.3169 C   0  0  0  0  0  0  0  0  0  0  0  0
  -19.4641    8.6103   -0.2746 C   0  0  1  0  0  0  0  0  0  0  0  0
  -12.5940    9.3326    3.7130 F   0  0  0  0  0  0  0  0  0  0  0  0
  -10.3578    8.7563   -0.4394 F   0  0  0  0  0  0  0  0  0  0  0  0
  -17.1671    8.3660   -1.0573 N   0  0  0  0  0  0  0  0  0  0  0  0
  -15.4321    7.0930   -0.9978 N   0  0  0  0  0  0  0  0  0  0  0  0
  -16.6651    7.2084   -1.4606 N   0  0  0  0  0  0  0  0  0  0  0  0
  -21.2676    8.7784   -1.9084 O   0  0  0  0  0  0  0  0  0  0  0  0
  -22.0202    8.8160   -4.6634 O   0  0  0  0  0  0  0  0  0  0  0  0
  -19.1914    6.7408   -2.4370 O   0  0  0  0  0  0  0  0  0  0  0  0
  -19.0028    9.4002    0.8065 O   0  0  0  0  0  0  0  0  0  0  0  0
  -21.9575    7.9649    0.4603 S   0  0  0  0  0  0  0  0  0  0  0  0
  1  2  2  0
 18  1  1  0
  1 20  1  0
  2  3  1  0
  3  4  2  0
  3 22  1  0
  4 19  1  0
  6  5  1  0
  7  6  2  0
  9  6  1  0
  8  7  1  0
 11  8  2  0
 10  9  2  0
 11 10  1  0
 31 11  1  0
 21 12  1  0
 12 27  1  0
 12 31  1  1
 13 14  1  6
 15 13  1  0
 13 27  1  0
 14 28  1  0
 16 15  1  0
 15 29  1  1
 16 21  1  0
 16 24  1  1
 17 18  2  0
 17 24  1  0
 18 25  1  0
 19 20  2  0
 19 23  1  0
 21 30  1  1
 24 26  1  0
 25 26  2  0
M  END
$$$$
