
     RDKit          3D

 31 34  0  0  0  0  0  0  0  0999 V2000
  -13.3601    8.8273   -1.4466 C   0  0  0  0  0  0  0  0  0  0  0  0
  -12.3919    9.4394   -0.7145 C   0  0  0  0  0  0  0  0  0  0  0  0
  -11.0871    9.5077   -1.1318 C   0  0  0  0  0  0  0  0  0  0  0  0
  -10.7607    8.9269   -2.3457 C   0  0  0  0  0  0  0  0  0  0  0  0
  -27.3598    9.0177   -2.3311 C   0  0  0  0  0  0  0  0  0  0  0  0
  -25.9675    9.1888   -1.8803 C   0  0  0  0  0  0  0  0  0  0  0  0
  -25.5375    8.4848   -0.7605 C   0  0  0  0  0  0  0  0  0  0  0  0
  -24.2138    8.6532   -0.3390 C   0  0  0  0  0  0  0  0  0  0  0  0
  -25.1233   10.0349   -2.5682 C   0  0  0  0  0  0  0  0  0  0  0  0
  -23.8128   10.1724   -2.1129 C   0  0  0  0  0  0  0  0  0  0  0  0
  -23.3595    9.4916   -1.0119 C   0  0  0  0  0  0  0  0  0  0  0  0
  -20.5966    8.4763   -1.3032 C   0  0  1  0  0  0  0  0  0  0  0  0
  -19.9863    6.2862   -0.7612 C   0  0  2  0  0  0  0  0  0  0  0  0
  -20.4953    5.1749    0.1307 C   0  0  0  0  0  0  0  0  0  0  0  0
  -18.6501    6.7648   -0.2719 C   0  0  1  0  0  0  0  0  0  0  0  0
  -18.2007    7.8543   -1.2114 C   0  0  1  0  0  0  0  0  0  0  0  0
  -15.7854    8.1502   -1.6779 C   0  0  0  0  0  0  0  0  0  0  0  0
  -14.7463    8.7516   -1.0073 C   0  0  0  0  0  0  0  0  0  0  0  0
  -11.7147    8.2964   -3.1182 C   0  0  0  0  0  0  0  0  0  0  0  0
  -12.9998    8.2558   -2.6576 C   0  0  0  0  0  0  0  0  0  0  0  0
  -19.2101    8.9479   -1.1426 C   0  0  1  0  0  0  0  0  0  0  0  0
  -10.1036   10.1220   -0.4024 F   0  0  0  0  0  0  0  0  0  0  0  0
  -11.3752    7.7323   -4.3072 F   0  0  0  0  0  0  0  0  0  0  0  0
  -16.8654    8.3104   -0.9327 N   0  0  0  0  0  0  0  0  0  0  0  0
  -15.2543    9.2581    0.1353 N   0  0  0  0  0  0  0  0  0  0  0  0
  -16.5465    8.9804    0.1647 N   0  0  0  0  0  0  0  0  0  0  0  0
  -20.9347    7.2390   -0.9063 O   0  0  0  0  0  0  0  0  0  0  0  0
  -21.8054    4.8531   -0.1233 O   0  0  0  0  0  0  0  0  0  0  0  0
  -18.7106    7.1497    1.0397 O   0  0  0  0  0  0  0  0  0  0  0  0
  -18.8551    9.8953   -2.1334 O   0  0  0  0  0  0  0  0  0  0  0  0
  -21.6925    9.6827   -0.4559 S   0  0  0  0  0  0  0  0  0  0  0  0
  1  2  2  0
 18  1  1  0
  1 20  1  0
  2  3  1  0
  3  4  2  0
  3 22  1  0
  4 19  1  0
  6  5  1  0
  7  6  2  0
  9  6  1  0
  8  7  1  0
 11  8  2  0
 10  9  2  0
 11 10  1  0
 31 11  1  0
 21 12  1  0
 12 27  1  0
 12 31  1  1
 13 14  1  1
 15 13  1  0
 13 27  1  0
 14 28  1  0
 16 15  1  0
 15 29  1  1
 16 21  1  0
 16 24  1  1
 17 18  2  0
 17 24  1  0
 18 25  1  0
 19 20  2  0
 19 23  1  0
 21 30  1  6
 24 26  1  0
 25 26  2  0
M  END
$$$$
