
     RDKit          3D

 31 34  0  0  0  0  0  0  0  0999 V2000
  -13.4224    8.9102   -0.0299 C   0  0  0  0  0  0  0  0  0  0  0  0
  -12.2322    8.2570    0.0391 C   0  0  0  0  0  0  0  0  0  0  0  0
  -11.1945    8.6997    0.8190 C   0  0  0  0  0  0  0  0  0  0  0  0
  -11.3823    9.8562    1.5572 C   0  0  0  0  0  0  0  0  0  0  0  0
  -26.8433   10.3566   -1.7534 C   0  0  0  0  0  0  0  0  0  0  0  0
  -25.4008   10.2755   -1.4645 C   0  0  0  0  0  0  0  0  0  0  0  0
  -24.7458   11.4161   -1.0122 C   0  0  0  0  0  0  0  0  0  0  0  0
  -23.3757   11.3305   -0.7405 C   0  0  0  0  0  0  0  0  0  0  0  0
  -24.7313    9.0836   -1.6456 C   0  0  0  0  0  0  0  0  0  0  0  0
  -23.3668    9.0440   -1.3626 C   0  0  0  0  0  0  0  0  0  0  0  0
  -22.6932   10.1519   -0.9153 C   0  0  0  0  0  0  0  0  0  0  0  0
  -20.1848    8.6940   -1.4910 C   0  0  1  0  0  0  0  0  0  0  0  0
  -19.8812    6.4394   -0.9552 C   0  0  2  0  0  0  0  0  0  0  0  0
  -20.4574    5.4378    0.0217 C   0  0  0  0  0  0  0  0  0  0  0  0
  -18.4370    6.6956   -0.6346 C   0  0  1  0  0  0  0  0  0  0  0  0
  -17.9282    7.6850   -1.6514 C   0  0  1  0  0  0  0  0  0  0  0  0
  -15.8543    8.4034   -0.5017 C   0  0  0  0  0  0  0  0  0  0  0  0
  -14.5266    8.4445   -0.8570 C   0  0  0  0  0  0  0  0  0  0  0  0
  -12.5756   10.5480    1.5142 C   0  0  0  0  0  0  0  0  0  0  0  0
  -13.5777   10.0652    0.7218 C   0  0  0  0  0  0  0  0  0  0  0  0
  -18.7307    8.9312   -1.5024 C   0  0  1  0  0  0  0  0  0  0  0  0
   -9.9913    8.0493    0.8962 F   0  0  0  0  0  0  0  0  0  0  0  0
  -12.7413   11.6812    2.2461 F   0  0  0  0  0  0  0  0  0  0  0  0
  -16.5132    7.9167   -1.5392 N   0  0  0  0  0  0  0  0  0  0  0  0
  -14.4403    7.9717   -2.1176 N   0  0  0  0  0  0  0  0  0  0  0  0
  -15.6598    7.6548   -2.5180 N   0  0  0  0  0  0  0  0  0  0  0  0
  -20.6718    7.5344   -1.0211 O   0  0  0  0  0  0  0  0  0  0  0  0
  -21.5414    4.7675   -0.4881 O   0  0  0  0  0  0  0  0  0  0  0  0
  -18.2808    7.1000    0.6632 O   0  0  0  0  0  0  0  0  0  0  0  0
  -18.3436    9.7956   -2.5552 O   0  0  0  0  0  0  0  0  0  0  0  0
  -20.9629   10.0747   -0.5623 S   0  0  0  0  0  0  0  0  0  0  0  0
  1  2  2  0
 18  1  1  0
  1 20  1  0
  2  3  1  0
  3  4  2  0
  3 22  1  0
  4 19  1  0
  6  5  1  0
  7  6  2  0
  9  6  1  0
  8  7  1  0
 11  8  2  0
 10  9  2  0
 11 10  1  0
 31 11  1  0
 21 12  1  0
 12 27  1  0
 12 31  1  1
 13 14  1  1
 15 13  1  0
 13 27  1  0
 14 28  1  0
 16 15  1  0
 15 29  1  1
 16 21  1  0
 16 24  1  1
 17 18  2  0
 17 24  1  0
 18 25  1  0
 19 20  2  0
 19 23  1  0
 21 30  1  6
 24 26  1  0
 25 26  2  0
M  END
$$$$
