
     RDKit          3D

 31 34  0  0  0  0  0  0  0  0999 V2000
  -13.2924    8.9490   -0.1797 C   0  0  0  0  0  0  0  0  0  0  0  0
  -12.8772    9.7947   -1.1597 C   0  0  0  0  0  0  0  0  0  0  0  0
  -11.5605   10.1430   -1.3214 C   0  0  0  0  0  0  0  0  0  0  0  0
  -10.6325    9.6046   -0.4459 C   0  0  0  0  0  0  0  0  0  0  0  0
  -26.9612    9.0690   -3.1169 C   0  0  0  0  0  0  0  0  0  0  0  0
  -25.6477    9.1677   -2.4566 C   0  0  0  0  0  0  0  0  0  0  0  0
  -24.5270    9.4320   -3.2367 C   0  0  0  0  0  0  0  0  0  0  0  0
  -23.2834    9.5238   -2.6017 C   0  0  0  0  0  0  0  0  0  0  0  0
  -25.5522    8.9978   -1.0914 C   0  0  0  0  0  0  0  0  0  0  0  0
  -24.2934    9.0976   -0.5009 C   0  0  0  0  0  0  0  0  0  0  0  0
  -23.1698    9.3573   -1.2434 C   0  0  0  0  0  0  0  0  0  0  0  0
  -20.3484    8.4812   -1.3898 C   0  0  1  0  0  0  0  0  0  0  0  0
  -19.8453    6.1994   -1.3351 C   0  0  2  0  0  0  0  0  0  0  0  0
  -20.5092    4.9218   -0.8696 C   0  0  0  0  0  0  0  0  0  0  0  0
  -18.6245    6.4742   -0.5055 C   0  0  1  0  0  0  0  0  0  0  0  0
  -18.0102    7.7457   -1.0325 C   0  0  1  0  0  0  0  0  0  0  0  0
  -15.6133    8.3725   -1.0011 C   0  0  0  0  0  0  0  0  0  0  0  0
  -14.6892    8.5771   -0.0036 C   0  0  0  0  0  0  0  0  0  0  0  0
  -11.0140    8.7425    0.5619 C   0  0  0  0  0  0  0  0  0  0  0  0
  -12.3376    8.4274    0.6802 C   0  0  0  0  0  0  0  0  0  0  0  0
  -19.0169    8.8310   -0.8649 C   0  0  1  0  0  0  0  0  0  0  0  0
  -11.1311   10.9938   -2.3055 F   0  0  0  0  0  0  0  0  0  0  0  0
  -10.0885    8.2239    1.4114 F   0  0  0  0  0  0  0  0  0  0  0  0
  -16.7510    8.0526   -0.4089 N   0  0  0  0  0  0  0  0  0  0  0  0
  -15.3216    8.3679    1.1696 N   0  0  0  0  0  0  0  0  0  0  0  0
  -16.5769    8.0493    0.9043 N   0  0  0  0  0  0  0  0  0  0  0  0
  -20.7521    7.2006   -1.3959 O   0  0  0  0  0  0  0  0  0  0  0  0
  -21.6882    5.1520   -0.2053 O   0  0  0  0  0  0  0  0  0  0  0  0
  -18.9288    6.5132    0.8279 O   0  0  0  0  0  0  0  0  0  0  0  0
  -18.4856    9.9828   -1.4945 O   0  0  0  0  0  0  0  0  0  0  0  0
  -21.5852    9.4803   -0.4698 S   0  0  0  0  0  0  0  0  0  0  0  0
  1  2  2  0
 18  1  1  0
  1 20  1  0
  2  3  1  0
  3  4  2  0
  3 22  1  0
  4 19  1  0
  6  5  1  0
  7  6  2  0
  9  6  1  0
  8  7  1  0
 11  8  2  0
 10  9  2  0
 11 10  1  0
 31 11  1  0
 21 12  1  0
 12 27  1  0
 12 31  1  1
 13 14  1  1
 15 13  1  0
 13 27  1  0
 14 28  1  0
 16 15  1  0
 15 29  1  1
 16 21  1  0
 16 24  1  1
 17 18  2  0
 17 24  1  0
 18 25  1  0
 19 20  2  0
 19 23  1  0
 21 30  1  6
 24 26  1  0
 25 26  2  0
M  END
$$$$
