
     RDKit          3D

 31 34  0  0  0  0  0  0  0  0999 V2000
  -13.0719    8.5305    0.3231 C   0  0  0  0  0  0  0  0  0  0  0  0
  -11.8501    8.6785   -0.2911 C   0  0  0  0  0  0  0  0  0  0  0  0
  -10.7099    9.0313    0.4305 C   0  0  0  0  0  0  0  0  0  0  0  0
  -10.7699    9.2453    1.7921 C   0  0  0  0  0  0  0  0  0  0  0  0
  -26.4298    9.8749   -2.9878 C   0  0  0  0  0  0  0  0  0  0  0  0
  -25.1219    9.9152   -2.2803 C   0  0  0  0  0  0  0  0  0  0  0  0
  -24.7077   10.9863   -1.5152 C   0  0  0  0  0  0  0  0  0  0  0  0
  -23.4686   10.9933   -0.8558 C   0  0  0  0  0  0  0  0  0  0  0  0
  -24.2490    8.8284   -2.3743 C   0  0  0  0  0  0  0  0  0  0  0  0
  -23.0413    8.8329   -1.7329 C   0  0  0  0  0  0  0  0  0  0  0  0
  -22.6200    9.9276   -0.9502 C   0  0  0  0  0  0  0  0  0  0  0  0
  -19.9249    8.6886   -0.9266 C   0  0  1  0  0  0  0  0  0  0  0  0
  -19.8264    6.3268   -0.8388 C   0  0  2  0  0  0  0  0  0  0  0  0
  -20.4348    5.5133    0.3144 C   0  0  0  0  0  0  0  0  0  0  0  0
  -18.3529    6.3324   -0.6020 C   0  0  1  0  0  0  0  0  0  0  0  0
  -17.7918    7.6330   -1.0509 C   0  0  1  0  0  0  0  0  0  0  0  0
  -15.6029    8.2523   -0.0049 C   0  0  0  0  0  0  0  0  0  0  0  0
  -14.2816    8.1687   -0.4060 C   0  0  0  0  0  0  0  0  0  0  0  0
  -11.9963    9.0958    2.4017 C   0  0  0  0  0  0  0  0  0  0  0  0
  -13.1178    8.7474    1.6805 C   0  0  0  0  0  0  0  0  0  0  0  0
  -18.5753    8.6920   -0.2519 C   0  0  1  0  0  0  0  0  0  0  0  0
   -9.5018    9.1715   -0.2112 F   0  0  0  0  0  0  0  0  0  0  0  0
  -12.0702    9.3021    3.7363 F   0  0  0  0  0  0  0  0  0  0  0  0
  -16.3803    7.7832   -1.0115 N   0  0  0  0  0  0  0  0  0  0  0  0
  -14.3278    7.6498   -1.6517 N   0  0  0  0  0  0  0  0  0  0  0  0
  -15.5632    7.4351   -1.9759 N   0  0  0  0  0  0  0  0  0  0  0  0
  -20.4998    7.4589   -0.9941 O   0  0  0  0  0  0  0  0  0  0  0  0
  -21.6595    4.9800   -0.0880 O   0  0  0  0  0  0  0  0  0  0  0  0
  -18.0701    6.1087    0.7542 O   0  0  0  0  0  0  0  0  0  0  0  0
  -17.9367    9.9046   -0.3575 O   0  0  0  0  0  0  0  0  0  0  0  0
  -21.0373    9.8491   -0.1305 S   0  0  0  0  0  0  0  0  0  0  0  0
  1  2  2  0
 18  1  1  0
  1 20  1  0
  2  3  1  0
  3  4  2  0
  3 22  1  0
  4 19  1  0
  5  6  1  6
  7  6  2  0
  9  6  1  0
  8  7  1  0
 11  8  2  0
 10  9  2  0
 11 10  1  0
 31 11  1  0
 21 12  1  0
 12 27  1  0
 12 31  1  1
 13 14  1  0
 15 13  1  0
 13 27  1  1
 14 28  1  6
 16 15  1  0
 15 29  1  1
 16 21  1  0
 16 24  1  1
 17 18  2  0
 17 24  1  0
 18 25  1  0
 19 20  2  0
 19 23  1  0
 21 30  1  6
 24 26  1  0
 25 26  2  0
M  END
$$$$
