
     RDKit          3D

 31 34  0  0  0  0  0  0  0  0999 V2000
  -13.1063    8.4330    0.1940 C   0  0  0  0  0  0  0  0  0  0  0  0
  -13.0429    8.2137    1.5503 C   0  0  0  0  0  0  0  0  0  0  0  0
  -11.8606    8.4056    2.2649 C   0  0  0  0  0  0  0  0  0  0  0  0
  -10.7085    8.8236    1.6313 C   0  0  0  0  0  0  0  0  0  0  0  0
  -26.6803    9.1141   -3.2207 C   0  0  0  0  0  0  0  0  0  0  0  0
  -25.3443    9.3577   -2.6134 C   0  0  0  0  0  0  0  0  0  0  0  0
  -25.1061    9.2894   -1.2559 C   0  0  0  0  0  0  0  0  0  0  0  0
  -23.8326    9.5206   -0.7126 C   0  0  0  0  0  0  0  0  0  0  0  0
  -24.2570    9.6710   -3.4327 C   0  0  0  0  0  0  0  0  0  0  0  0
  -23.0154    9.8967   -2.9058 C   0  0  0  0  0  0  0  0  0  0  0  0
  -22.7731    9.8251   -1.5184 C   0  0  0  0  0  0  0  0  0  0  0  0
  -19.9800    8.8306   -1.4259 C   0  0  1  0  0  0  0  0  0  0  0  0
  -19.8747    6.5352   -0.8643 C   0  0  2  0  0  0  0  0  0  0  0  0
  -20.5149    5.9625    0.4100 C   0  0  0  0  0  0  0  0  0  0  0  0
  -18.4092    6.6028   -0.5905 C   0  0  1  0  0  0  0  0  0  0  0  0
  -17.8398    7.7931   -1.2740 C   0  0  1  0  0  0  0  0  0  0  0  0
  -15.6387    8.1848   -0.1468 C   0  0  0  0  0  0  0  0  0  0  0  0
  -14.3259    8.2351   -0.5800 C   0  0  0  0  0  0  0  0  0  0  0  0
  -10.7780    9.0415    0.2728 C   0  0  0  0  0  0  0  0  0  0  0  0
  -11.9507    8.8489   -0.4252 C   0  0  0  0  0  0  0  0  0  0  0  0
  -18.6517    8.9824   -0.7263 C   0  0  1  0  0  0  0  0  0  0  0  0
  -11.8279    8.1785    3.6207 F   0  0  0  0  0  0  0  0  0  0  0  0
   -9.6563    9.4520   -0.3617 F   0  0  0  0  0  0  0  0  0  0  0  0
  -16.4308    7.9623   -1.2241 N   0  0  0  0  0  0  0  0  0  0  0  0
  -14.3918    8.0412   -1.9147 N   0  0  0  0  0  0  0  0  0  0  0  0
  -15.6303    7.8845   -2.2596 N   0  0  0  0  0  0  0  0  0  0  0  0
  -20.5475    7.6065   -1.2627 O   0  0  0  0  0  0  0  0  0  0  0  0
  -21.3308    4.8815    0.0754 O   0  0  0  0  0  0  0  0  0  0  0  0
  -18.1672    6.6576    0.7908 O   0  0  0  0  0  0  0  0  0  0  0  0
  -18.0151   10.1558   -1.0538 O   0  0  0  0  0  0  0  0  0  0  0  0
  -21.1210   10.1155   -0.9110 S   0  0  0  0  0  0  0  0  0  0  0  0
  1  2  2  0
 18  1  1  0
  1 20  1  0
  2  3  1  0
  3  4  2  0
  3 22  1  0
  4 19  1  0
  5  6  1  6
  7  6  2  0
  9  6  1  0
  8  7  1  0
 11  8  2  0
 10  9  2  0
 11 10  1  0
 31 11  1  0
 21 12  1  0
 12 27  1  0
 12 31  1  1
 13 14  1  0
 15 13  1  0
 13 27  1  1
 14 28  1  6
 16 15  1  0
 15 29  1  1
 16 21  1  0
 16 24  1  1
 17 18  2  0
 17 24  1  0
 18 25  1  0
 19 20  2  0
 19 23  1  0
 21 30  1  6
 24 26  1  0
 25 26  2  0
M  END
$$$$
