
     RDKit          3D

 31 34  0  0  0  0  0  0  0  0999 V2000
  -13.2742    8.7044    0.2636 C   0  0  0  0  0  0  0  0  0  0  0  0
  -13.2589    8.3173    1.5666 C   0  0  0  0  0  0  0  0  0  0  0  0
  -12.2062    8.5900    2.4024 C   0  0  0  0  0  0  0  0  0  0  0  0
  -11.1270    9.2861    1.8842 C   0  0  0  0  0  0  0  0  0  0  0  0
  -26.6962   10.2931   -2.1751 C   0  0  0  0  0  0  0  0  0  0  0  0
  -25.2754   10.2288   -1.7900 C   0  0  0  0  0  0  0  0  0  0  0  0
  -24.4659   11.3318   -2.0397 C   0  0  0  0  0  0  0  0  0  0  0  0
  -23.1177   11.2622   -1.6711 C   0  0  0  0  0  0  0  0  0  0  0  0
  -24.7773    9.0885   -1.1955 C   0  0  0  0  0  0  0  0  0  0  0  0
  -23.4282    9.0631   -0.8450 C   0  0  0  0  0  0  0  0  0  0  0  0
  -22.6048   10.1348   -1.0783 C   0  0  0  0  0  0  0  0  0  0  0  0
  -20.0647    8.6661   -1.4526 C   0  0  1  0  0  0  0  0  0  0  0  0
  -19.7209    6.4539   -0.7814 C   0  0  2  0  0  0  0  0  0  0  0  0
  -20.2969    5.4953    0.2379 C   0  0  0  0  0  0  0  0  0  0  0  0
  -18.2915    6.7640   -0.4429 C   0  0  1  0  0  0  0  0  0  0  0  0
  -17.7817    7.7065   -1.5028 C   0  0  1  0  0  0  0  0  0  0  0  0
  -15.6973    8.2058   -0.2598 C   0  0  0  0  0  0  0  0  0  0  0  0
  -14.3891    8.4164   -0.6277 C   0  0  0  0  0  0  0  0  0  0  0  0
  -11.1046    9.6964    0.5669 C   0  0  0  0  0  0  0  0  0  0  0  0
  -12.1779    9.3998   -0.2238 C   0  0  0  0  0  0  0  0  0  0  0  0
  -18.6169    8.9387   -1.4441 C   0  0  1  0  0  0  0  0  0  0  0  0
  -12.1803    8.2050    3.7169 F   0  0  0  0  0  0  0  0  0  0  0  0
  -10.0364   10.3789    0.0764 F   0  0  0  0  0  0  0  0  0  0  0  0
  -16.3756    7.9796   -1.3716 N   0  0  0  0  0  0  0  0  0  0  0  0
  -14.3340    8.3061   -1.9712 N   0  0  0  0  0  0  0  0  0  0  0  0
  -15.5530    8.0398   -2.4082 N   0  0  0  0  0  0  0  0  0  0  0  0
  -20.5354    7.5232   -0.9282 O   0  0  0  0  0  0  0  0  0  0  0  0
  -21.5046    4.9727   -0.1531 O   0  0  0  0  0  0  0  0  0  0  0  0
  -18.1767    7.2453    0.8328 O   0  0  0  0  0  0  0  0  0  0  0  0
  -18.2247    9.7512   -2.5356 O   0  0  0  0  0  0  0  0  0  0  0  0
  -20.8978   10.0775   -0.6229 S   0  0  0  0  0  0  0  0  0  0  0  0
  1  2  2  0
 18  1  1  0
  1 20  1  0
  2  3  1  0
  3  4  2  0
  3 22  1  0
  4 19  1  0
  6  5  1  0
  7  6  2  0
  9  6  1  0
  8  7  1  0
 11  8  2  0
 10  9  2  0
 11 10  1  0
 31 11  1  0
 21 12  1  0
 12 27  1  0
 12 31  1  1
 13 14  1  1
 15 13  1  0
 13 27  1  0
 14 28  1  0
 16 15  1  0
 15 29  1  1
 16 21  1  0
 16 24  1  1
 17 18  2  0
 17 24  1  0
 18 25  1  0
 19 20  2  0
 19 23  1  0
 21 30  1  6
 24 26  1  0
 25 26  2  0
M  END
$$$$
