
     RDKit          3D

 26 29  0  0  0  0  0  0  0  0999 V2000
   12.5557   23.8546   21.1590 C   0  0  0  0  0  0  0  0  0  0  0  0
    7.2831   22.8756   19.3903 C   0  0  2  0  0  0  0  0  0  0  0  0
    6.0777   23.7290   19.6807 C   0  0  0  0  0  0  0  0  0  0  0  0
    6.8107   21.5249   18.8973 C   0  0  0  0  0  0  0  0  0  0  0  0
    4.7765   22.9462   19.6020 C   0  0  0  0  0  0  0  0  0  0  0  0
    5.8434   21.8539   17.7469 C   0  0  0  0  0  0  0  0  0  0  0  0
    4.5948   22.2169   18.3981 N   0  0  2  0  0  4  0  0  0  0  0  0
    9.3650   22.3174   22.4453 C   0  0  0  0  0  0  0  0  0  0  0  0
   10.2629   22.9511   21.6172 C   0  0  0  0  0  0  0  0  0  0  0  0
    8.0297   22.2238   21.7757 C   0  0  2  0  0  0  0  0  0  0  0  0
    8.2115   22.7742   20.4848 N   0  0  0  0  0  0  0  0  0  0  0  0
    9.5528   23.2415   20.3929 C   0  0  0  0  0  0  0  0  0  0  0  0
   12.0358   24.5732   20.0237 N   0  0  0  0  0  0  0  0  0  0  0  0
    9.7799   21.8981   23.7018 C   0  0  0  0  0  0  0  0  0  0  0  0
    7.0752   22.9579   22.6837 C   0  0  0  0  0  0  0  0  0  0  0  0
   11.9574   22.7472   23.2803 C   0  0  0  0  0  0  0  0  0  0  0  0
   11.0713   22.1126   24.1165 C   0  0  0  0  0  0  0  0  0  0  0  0
    2.7654   21.6604   16.9233 C   0  0  0  0  0  0  0  0  0  0  0  0
    1.9545   24.3652   16.7999 C   0  0  0  0  0  0  0  0  0  0  0  0
    1.2895   21.9633   17.1581 C   0  0  0  0  0  0  0  0  0  0  0  0
    0.9169   23.2809   16.5656 C   0  0  0  0  0  0  0  0  0  0  0  0
    2.8660   23.9286   17.9595 C   0  0  0  0  0  0  0  0  0  0  0  0
    3.6420   22.7650   17.4728 C   0  0  1  0  0  0  0  0  0  0  0  0
   10.0698   23.8330   19.3838 O   0  0  0  0  0  0  0  0  0  0  0  0
   11.5806   23.1854   22.0064 C   0  0  0  0  0  0  0  0  0  0  0  0
   13.7886   23.8681   21.3164 O   0  0  0  0  0  0  0  0  0  0  0  0
  1 13  1  0
 25  1  1  0
  1 26  2  0
  3  2  1  0
  4  2  1  0
  2 11  1  1
  5  3  1  0
  6  4  1  0
  7  5  1  1
  7  6  1  0
 23  7  1  0
  9  8  2  0
 10  8  1  0
  8 14  1  0
 12  9  1  0
  9 25  1  0
 11 10  1  0
 10 15  1  1
 11 12  1  0
 12 24  2  0
 14 17  2  0
 16 17  1  0
 25 16  2  0
 20 18  1  0
 23 18  1  1
 21 19  1  0
 19 22  1  0
 20 21  1  0
 22 23  1  0
M  CHG  1   7   1
M  END
$$$$
