
     RDKit          3D

 26 29  0  0  0  0  0  0  0  0999 V2000
   12.2327   23.8630   20.8168 C   0  0  0  0  0  0  0  0  0  0  0  0
    6.9641   22.5131   19.2981 C   0  0  2  0  0  0  0  0  0  0  0  0
    6.0166   23.6823   19.3286 C   0  0  0  0  0  0  0  0  0  0  0  0
    6.1533   21.2361   19.2484 C   0  0  0  0  0  0  0  0  0  0  0  0
    4.5686   23.2548   19.5099 C   0  0  0  0  0  0  0  0  0  0  0  0
    5.1912   21.4391   18.0649 C   0  0  0  0  0  0  0  0  0  0  0  0
    4.1207   22.2718   18.5895 N   0  0  2  0  0  4  0  0  0  0  0  0
    9.1837   22.2118   22.2917 C   0  0  0  0  0  0  0  0  0  0  0  0
   10.0133   22.8556   21.4025 C   0  0  0  0  0  0  0  0  0  0  0  0
    7.8325   22.0137   21.6790 C   0  0  2  0  0  0  0  0  0  0  0  0
    7.9357   22.5136   20.3593 N   0  0  0  0  0  0  0  0  0  0  0  0
    9.2439   23.0498   20.1951 C   0  0  0  0  0  0  0  0  0  0  0  0
   11.6589   24.3519   19.5891 N   0  0  0  0  0  0  0  0  0  0  0  0
    9.6671   21.8741   23.5482 C   0  0  0  0  0  0  0  0  0  0  0  0
    6.8712   22.7345   22.5903 C   0  0  0  0  0  0  0  0  0  0  0  0
   11.7758   22.8225   23.0060 C   0  0  0  0  0  0  0  0  0  0  0  0
   10.9583   22.1787   23.9029 C   0  0  0  0  0  0  0  0  0  0  0  0
    2.5926   21.5619   16.8595 C   0  0  0  0  0  0  0  0  0  0  0  0
    1.4776   24.1534   16.6884 C   0  0  0  0  0  0  0  0  0  0  0  0
    1.0725   21.6767   16.8920 C   0  0  0  0  0  0  0  0  0  0  0  0
    0.6239   22.9636   16.2849 C   0  0  0  0  0  0  0  0  0  0  0  0
    2.2693   23.7815   17.9537 C   0  0  0  0  0  0  0  0  0  0  0  0
    3.2425   22.7398   17.5530 C   0  0  1  0  0  0  0  0  0  0  0  0
    9.6894   23.6223   19.1418 O   0  0  0  0  0  0  0  0  0  0  0  0
   11.3287   23.1802   21.7298 C   0  0  0  0  0  0  0  0  0  0  0  0
   13.4468   24.0657   20.9899 O   0  0  0  0  0  0  0  0  0  0  0  0
  1 13  1  0
 25  1  1  0
  1 26  2  0
  3  2  1  0
  4  2  1  0
  2 11  1  1
  5  3  1  0
  6  4  1  0
  7  5  1  6
  7  6  1  0
 23  7  1  0
  9  8  2  0
 10  8  1  0
  8 14  1  0
 12  9  1  0
  9 25  1  0
 11 10  1  0
 10 15  1  1
 11 12  1  0
 12 24  2  0
 14 17  2  0
 16 17  1  0
 25 16  2  0
 20 18  1  0
 23 18  1  1
 21 19  1  0
 19 22  1  0
 20 21  1  0
 22 23  1  0
M  CHG  1   7   1
M  END
$$$$
