
     RDKit          3D

 26 29  0  0  0  0  0  0  0  0999 V2000
   11.9722   24.0925   21.0038 C   0  0  0  0  0  0  0  0  0  0  0  0
    6.6800   22.5519   19.7763 C   0  0  2  0  0  0  0  0  0  0  0  0
    5.6603   23.6489   19.9262 C   0  0  0  0  0  0  0  0  0  0  0  0
    5.9550   21.2252   19.7080 C   0  0  0  0  0  0  0  0  0  0  0  0
    4.2588   23.1127   20.1719 C   0  0  0  0  0  0  0  0  0  0  0  0
    4.9076   21.4178   18.5974 C   0  0  0  0  0  0  0  0  0  0  0  0
    3.8196   22.1468   19.2294 N   0  0  2  0  0  4  0  0  0  0  0  0
    9.0938   22.2740   22.6181 C   0  0  0  0  0  0  0  0  0  0  0  0
    9.8382   22.9752   21.6974 C   0  0  0  0  0  0  0  0  0  0  0  0
    7.7163   22.0322   22.0846 C   0  0  2  0  0  0  0  0  0  0  0  0
    7.7154   22.5686   20.7752 N   0  0  0  0  0  0  0  0  0  0  0  0
    8.9871   23.1653   20.5454 C   0  0  0  0  0  0  0  0  0  0  0  0
   11.2768   25.0120   20.1398 N   0  0  0  0  0  0  0  0  0  0  0  0
    9.6688   21.9268   23.8327 C   0  0  0  0  0  0  0  0  0  0  0  0
    6.7846   22.6877   23.0728 C   0  0  0  0  0  0  0  0  0  0  0  0
   11.6976   22.9794   23.1878 C   0  0  0  0  0  0  0  0  0  0  0  0
   10.9658   22.2787   24.1154 C   0  0  0  0  0  0  0  0  0  0  0  0
    3.4284   23.7286   17.4471 C   0  0  0  0  0  0  0  0  0  0  0  0
    1.1901   22.2582   16.5435 C   0  0  0  0  0  0  0  0  0  0  0  0
    3.3499   23.4122   15.9575 C   0  0  0  0  0  0  0  0  0  0  0  0
    1.9441   23.1242   15.5491 C   0  0  0  0  0  0  0  0  0  0  0  0
    2.2117   21.5496   17.4492 C   0  0  0  0  0  0  0  0  0  0  0  0
    2.8475   22.6022   18.2743 C   0  0  1  0  0  0  0  0  0  0  0  0
    9.3412   23.7825   19.4828 O   0  0  0  0  0  0  0  0  0  0  0  0
   11.1567   23.3487   21.9518 C   0  0  0  0  0  0  0  0  0  0  0  0
   13.2049   24.0140   20.8656 O   0  0  0  0  0  0  0  0  0  0  0  0
  1 13  1  0
 25  1  1  0
  1 26  2  0
  3  2  1  0
  4  2  1  0
  2 11  1  1
  5  3  1  0
  6  4  1  0
  7  5  1  6
  7  6  1  0
 23  7  1  0
  9  8  2  0
 10  8  1  0
  8 14  1  0
 12  9  1  0
  9 25  1  0
 11 10  1  0
 10 15  1  1
 11 12  1  0
 12 24  2  0
 14 17  2  0
 16 17  1  0
 25 16  2  0
 20 18  1  0
 23 18  1  6
 21 19  1  0
 19 22  1  0
 20 21  1  0
 22 23  1  0
M  CHG  1   7   1
M  END
$$$$
