
     RDKit          3D

 26 29  0  0  0  0  0  0  0  0999 V2000
   12.2808   24.0018   21.0496 C   0  0  0  0  0  0  0  0  0  0  0  0
    7.1171   22.4504   19.3716 C   0  0  2  0  0  0  0  0  0  0  0  0
    5.9281   23.3598   19.5307 C   0  0  0  0  0  0  0  0  0  0  0  0
    6.6187   21.0487   19.0935 C   0  0  0  0  0  0  0  0  0  0  0  0
    4.6132   22.5976   19.5770 C   0  0  0  0  0  0  0  0  0  0  0  0
    5.6508   21.2143   17.9089 C   0  0  0  0  0  0  0  0  0  0  0  0
    4.4123   21.6953   18.5001 N   0  0  2  0  0  4  0  0  0  0  0  0
    9.2367   22.2756   22.4466 C   0  0  0  0  0  0  0  0  0  0  0  0
   10.0761   22.9312   21.5754 C   0  0  0  0  0  0  0  0  0  0  0  0
    7.9156   22.0218   21.7905 C   0  0  2  0  0  0  0  0  0  0  0  0
    8.0495   22.5019   20.4662 N   0  0  0  0  0  0  0  0  0  0  0  0
    9.3445   23.0786   20.3382 C   0  0  0  0  0  0  0  0  0  0  0  0
   11.6811   24.8094   20.0183 N   0  0  0  0  0  0  0  0  0  0  0  0
    9.6856   21.9762   23.7254 C   0  0  0  0  0  0  0  0  0  0  0  0
    6.8991   22.7259   22.6538 C   0  0  0  0  0  0  0  0  0  0  0  0
   11.7802   22.9849   23.2404 C   0  0  0  0  0  0  0  0  0  0  0  0
   10.9526   22.3299   24.1197 C   0  0  0  0  0  0  0  0  0  0  0  0
    2.1230   22.3807   18.1522 C   0  0  0  0  0  0  0  0  0  0  0  0
    2.7593   23.4518   15.6151 C   0  0  0  0  0  0  0  0  0  0  0  0
    1.6383   23.7931   17.8437 C   0  0  0  0  0  0  0  0  0  0  0  0
    1.5715   24.0220   16.3709 C   0  0  0  0  0  0  0  0  0  0  0  0
    3.9044   23.2096   16.6133 C   0  0  0  0  0  0  0  0  0  0  0  0
    3.4641   22.1117   17.5042 C   0  0  1  0  0  0  0  0  0  0  0  0
    9.8085   23.6472   19.2909 O   0  0  0  0  0  0  0  0  0  0  0  0
   11.3676   23.3053   21.9427 C   0  0  0  0  0  0  0  0  0  0  0  0
   13.5228   23.9697   21.0877 O   0  0  0  0  0  0  0  0  0  0  0  0
  1 13  1  0
 25  1  1  0
  1 26  2  0
  3  2  1  0
  4  2  1  0
  2 11  1  1
  5  3  1  0
  6  4  1  0
  7  5  1  1
  7  6  1  0
 23  7  1  0
  9  8  2  0
 10  8  1  0
  8 14  1  0
 12  9  1  0
  9 25  1  0
 11 10  1  0
 10 15  1  1
 11 12  1  0
 12 24  2  0
 14 17  2  0
 16 17  1  0
 25 16  2  0
 20 18  1  0
 23 18  1  1
 21 19  1  0
 19 22  1  0
 20 21  1  0
 22 23  1  0
M  CHG  1   7   1
M  END
$$$$
