
     RDKit          3D

 26 29  0  0  0  0  0  0  0  0999 V2000
   12.3128   23.9312   21.1376 C   0  0  0  0  0  0  0  0  0  0  0  0
    7.1352   22.4660   19.4248 C   0  0  2  0  0  0  0  0  0  0  0  0
    6.2000   23.6446   19.3819 C   0  0  0  0  0  0  0  0  0  0  0  0
    6.3132   21.1959   19.3838 C   0  0  0  0  0  0  0  0  0  0  0  0
    4.7416   23.2370   19.5202 C   0  0  0  0  0  0  0  0  0  0  0  0
    5.3996   21.3704   18.1581 C   0  0  0  0  0  0  0  0  0  0  0  0
    4.3188   22.2297   18.6144 N   0  0  2  0  0  4  0  0  0  0  0  0
    9.2443   22.2225   22.5024 C   0  0  0  0  0  0  0  0  0  0  0  0
   10.0939   22.8801   21.6427 C   0  0  0  0  0  0  0  0  0  0  0  0
    7.9220   21.9939   21.8395 C   0  0  2  0  0  0  0  0  0  0  0  0
    8.0653   22.4908   20.5224 N   0  0  0  0  0  0  0  0  0  0  0  0
    9.3674   23.0536   20.4058 C   0  0  0  0  0  0  0  0  0  0  0  0
   11.7492   24.9547   20.2949 N   0  0  0  0  0  0  0  0  0  0  0  0
    9.6861   21.8998   23.7781 C   0  0  0  0  0  0  0  0  0  0  0  0
    6.9117   22.6980   22.7100 C   0  0  0  0  0  0  0  0  0  0  0  0
   11.7939   22.8898   23.3126 C   0  0  0  0  0  0  0  0  0  0  0  0
   10.9561   22.2326   24.1805 C   0  0  0  0  0  0  0  0  0  0  0  0
    3.4878   21.6388   16.4253 C   0  0  0  0  0  0  0  0  0  0  0  0
    1.4414   23.5801   16.6050 C   0  0  0  0  0  0  0  0  0  0  0  0
    2.0684   21.1977   16.0850 C   0  0  0  0  0  0  0  0  0  0  0  0
    1.2225   22.3694   15.7142 C   0  0  0  0  0  0  0  0  0  0  0  0
    2.1234   23.1161   17.9033 C   0  0  0  0  0  0  0  0  0  0  0  0
    3.4863   22.6729   17.5304 C   0  0  1  0  0  0  0  0  0  0  0  0
    9.8411   23.6311   19.3678 O   0  0  0  0  0  0  0  0  0  0  0  0
   11.3888   23.2333   22.0185 C   0  0  0  0  0  0  0  0  0  0  0  0
   13.5360   23.7330   21.0400 O   0  0  0  0  0  0  0  0  0  0  0  0
  1 13  1  0
 25  1  1  0
  1 26  2  0
  3  2  1  0
  4  2  1  0
  2 11  1  1
  5  3  1  0
  6  4  1  0
  7  5  1  6
  7  6  1  0
 23  7  1  0
  9  8  2  0
 10  8  1  0
  8 14  1  0
 12  9  1  0
  9 25  1  0
 11 10  1  0
 10 15  1  1
 11 12  1  0
 12 24  2  0
 14 17  2  0
 16 17  1  0
 25 16  2  0
 20 18  1  0
 23 18  1  6
 21 19  1  0
 19 22  1  0
 20 21  1  0
 22 23  1  0
M  CHG  1   7   1
M  END
$$$$
