
     RDKit          3D

 26 29  0  0  0  0  0  0  0  0999 V2000
   12.7422   23.1704   21.9781 C   0  0  0  0  0  0  0  0  0  0  0  0
    7.6103   20.8760   22.5140 C   0  0  2  0  0  0  0  0  0  0  0  0
    7.3168   19.6159   21.7447 C   0  0  0  0  0  0  0  0  0  0  0  0
    6.3007   21.4672   22.9894 C   0  0  0  0  0  0  0  0  0  0  0  0
    5.8302   19.4197   21.4924 C   0  0  0  0  0  0  0  0  0  0  0  0
    5.5967   20.3062   23.7132 C   0  0  0  0  0  0  0  0  0  0  0  0
    5.0162   19.4988   22.6522 N   0  0  2  0  0  4  0  0  0  0  0  0
    9.3012   23.5210   20.4832 C   0  0  0  0  0  0  0  0  0  0  0  0
   10.3431   23.0671   21.2590 C   0  0  0  0  0  0  0  0  0  0  0  0
    8.0664   22.7245   20.7683 C   0  0  2  0  0  0  0  0  0  0  0  0
    8.4229   21.8261   21.8017 N   0  0  0  0  0  0  0  0  0  0  0  0
    9.8060   22.0090   22.0834 C   0  0  0  0  0  0  0  0  0  0  0  0
   12.4964   22.0542   22.8552 N   0  0  0  0  0  0  0  0  0  0  0  0
    9.5212   24.5645   19.5947 C   0  0  0  0  0  0  0  0  0  0  0  0
    7.6792   22.1026   19.4501 C   0  0  0  0  0  0  0  0  0  0  0  0
   11.7959   24.6754   20.2682 C   0  0  0  0  0  0  0  0  0  0  0  0
   10.7641   25.1387   19.4886 C   0  0  0  0  0  0  0  0  0  0  0  0
    5.6375   17.2628   23.3199 C   0  0  0  0  0  0  0  0  0  0  0  0
    3.1667   16.8999   24.6436 C   0  0  0  0  0  0  0  0  0  0  0  0
    5.6762   16.7218   24.7449 C   0  0  0  0  0  0  0  0  0  0  0  0
    4.3703   16.1013   25.1133 C   0  0  0  0  0  0  0  0  0  0  0  0
    3.6231   18.3351   24.3303 C   0  0  0  0  0  0  0  0  0  0  0  0
    4.5035   18.2494   23.1426 C   0  0  1  0  0  0  0  0  0  0  0  0
   10.4886   21.3443   22.9365 O   0  0  0  0  0  0  0  0  0  0  0  0
   11.6170   23.6265   21.1763 C   0  0  0  0  0  0  0  0  0  0  0  0
   13.8905   23.6462   21.9818 O   0  0  0  0  0  0  0  0  0  0  0  0
  1 13  1  0
 25  1  1  0
  1 26  2  0
  3  2  1  0
  4  2  1  0
  2 11  1  6
  5  3  1  0
  6  4  1  0
  7  5  1  6
  7  6  1  0
 23  7  1  0
  9  8  2  0
 10  8  1  0
  8 14  1  0
 12  9  1  0
  9 25  1  0
 11 10  1  0
 10 15  1  6
 11 12  1  0
 12 24  2  0
 14 17  2  0
 16 17  1  0
 25 16  2  0
 20 18  1  0
 23 18  1  1
 21 19  1  0
 19 22  1  0
 20 21  1  0
 22 23  1  0
M  CHG  1   7   1
M  END
$$$$
