
     RDKit          3D

 26 29  0  0  0  0  0  0  0  0999 V2000
   12.7311   23.7885   21.2754 C   0  0  0  0  0  0  0  0  0  0  0  0
    7.5144   22.7388   19.3857 C   0  0  2  0  0  0  0  0  0  0  0  0
    6.3326   23.6310   19.6562 C   0  0  0  0  0  0  0  0  0  0  0  0
    7.0060   21.3984   18.9005 C   0  0  0  0  0  0  0  0  0  0  0  0
    5.0091   22.8872   19.5717 C   0  0  0  0  0  0  0  0  0  0  0  0
    6.0603   21.7456   17.7375 C   0  0  0  0  0  0  0  0  0  0  0  0
    4.8171   22.1524   18.3729 N   0  0  2  0  0  4  0  0  0  0  0  0
    9.5644   22.1181   22.4501 C   0  0  0  0  0  0  0  0  0  0  0  0
   10.4571   22.8071   21.6616 C   0  0  0  0  0  0  0  0  0  0  0  0
    8.2424   22.0150   21.7560 C   0  0  2  0  0  0  0  0  0  0  0  0
    8.4286   22.6197   20.4904 N   0  0  0  0  0  0  0  0  0  0  0  0
    9.7578   23.1258   20.4380 C   0  0  0  0  0  0  0  0  0  0  0  0
   12.2535   24.3329   20.0300 N   0  0  0  0  0  0  0  0  0  0  0  0
    9.9717   21.6614   23.6961 C   0  0  0  0  0  0  0  0  0  0  0  0
    7.2547   22.6875   22.6760 C   0  0  0  0  0  0  0  0  0  0  0  0
   12.1313   22.5841   23.3427 C   0  0  0  0  0  0  0  0  0  0  0  0
   11.2503   21.8941   24.1395 C   0  0  0  0  0  0  0  0  0  0  0  0
    3.3017   21.6272   16.5674 C   0  0  0  0  0  0  0  0  0  0  0  0
    2.0229   24.1348   16.8226 C   0  0  0  0  0  0  0  0  0  0  0  0
    1.7784   21.6360   16.6331 C   0  0  0  0  0  0  0  0  0  0  0  0
    1.2376   22.9708   16.2433 C   0  0  0  0  0  0  0  0  0  0  0  0
    2.8620   23.6197   18.0044 C   0  0  0  0  0  0  0  0  0  0  0  0
    3.8904   22.7202   17.4331 C   0  0  1  0  0  0  0  0  0  0  0  0
   10.2737   23.7697   19.4609 O   0  0  0  0  0  0  0  0  0  0  0  0
   11.7619   23.0612   22.0807 C   0  0  0  0  0  0  0  0  0  0  0  0
   13.9262   23.9865   21.5540 O   0  0  0  0  0  0  0  0  0  0  0  0
  1 13  1  0
 25  1  1  0
  1 26  2  0
  3  2  1  0
  4  2  1  0
  2 11  1  1
  5  3  1  0
  6  4  1  0
  7  5  1  1
  7  6  1  0
 23  7  1  0
  9  8  2  0
 10  8  1  0
  8 14  1  0
 12  9  1  0
  9 25  1  0
 11 10  1  0
 10 15  1  1
 11 12  1  0
 12 24  2  0
 14 17  2  0
 16 17  1  0
 25 16  2  0
 20 18  1  0
 23 18  1  1
 21 19  1  0
 19 22  1  0
 20 21  1  0
 22 23  1  0
M  CHG  1   7   1
M  END
$$$$
