
     RDKit          3D

 26 29  0  0  0  0  0  0  0  0999 V2000
   12.1331   23.8764   21.2629 C   0  0  0  0  0  0  0  0  0  0  0  0
    6.8998   22.5121   19.6385 C   0  0  2  0  0  0  0  0  0  0  0  0
    5.9322   23.6649   19.6642 C   0  0  0  0  0  0  0  0  0  0  0  0
    6.1120   21.2225   19.5568 C   0  0  0  0  0  0  0  0  0  0  0  0
    4.4884   23.2110   19.8109 C   0  0  0  0  0  0  0  0  0  0  0  0
    5.1705   21.4243   18.3566 C   0  0  0  0  0  0  0  0  0  0  0  0
    4.0757   22.2323   18.8696 N   0  0  2  0  0  4  0  0  0  0  0  0
    9.0594   22.2174   22.6764 C   0  0  0  0  0  0  0  0  0  0  0  0
    9.9050   22.8633   21.8039 C   0  0  0  0  0  0  0  0  0  0  0  0
    7.7214   22.0155   22.0366 C   0  0  2  0  0  0  0  0  0  0  0  0
    7.8499   22.5155   20.7191 N   0  0  0  0  0  0  0  0  0  0  0  0
    9.1596   23.0552   20.5812 C   0  0  0  0  0  0  0  0  0  0  0  0
   11.5589   24.8560   20.3760 N   0  0  0  0  0  0  0  0  0  0  0  0
    9.5183   21.8812   23.9425 C   0  0  0  0  0  0  0  0  0  0  0  0
    6.7400   22.7340   22.9282 C   0  0  0  0  0  0  0  0  0  0  0  0
   11.6349   22.8352   23.4427 C   0  0  0  0  0  0  0  0  0  0  0  0
   10.8012   22.1894   24.3231 C   0  0  0  0  0  0  0  0  0  0  0  0
    3.3097   21.7766   16.6252 C   0  0  0  0  0  0  0  0  0  0  0  0
    1.0958   23.5016   16.9592 C   0  0  0  0  0  0  0  0  0  0  0  0
    1.9372   21.2439   16.2282 C   0  0  0  0  0  0  0  0  0  0  0  0
    0.9904   22.3647   15.9575 C   0  0  0  0  0  0  0  0  0  0  0  0
    1.8120   22.9812   18.2171 C   0  0  0  0  0  0  0  0  0  0  0  0
    3.2107   22.6986   17.8214 C   0  0  1  0  0  0  0  0  0  0  0  0
    9.6248   23.6286   19.5370 O   0  0  0  0  0  0  0  0  0  0  0  0
   11.2127   23.1915   22.1576 C   0  0  0  0  0  0  0  0  0  0  0  0
   13.3614   23.7013   21.1876 O   0  0  0  0  0  0  0  0  0  0  0  0
  1 13  1  0
 25  1  1  0
  1 26  2  0
  3  2  1  0
  4  2  1  0
  2 11  1  1
  5  3  1  0
  6  4  1  0
  7  5  1  6
  7  6  1  0
 23  7  1  0
  9  8  2  0
 10  8  1  0
  8 14  1  0
 12  9  1  0
  9 25  1  0
 11 10  1  0
 10 15  1  1
 11 12  1  0
 12 24  2  0
 14 17  2  0
 16 17  1  0
 25 16  2  0
 20 18  1  0
 23 18  1  6
 21 19  1  0
 19 22  1  0
 20 21  1  0
 22 23  1  0
M  CHG  1   7   1
M  END
$$$$
