
     RDKit          3D

 26 29  0  0  0  0  0  0  0  0999 V2000
   12.2047   23.8765   20.8375 C   0  0  0  0  0  0  0  0  0  0  0  0
    6.9913   22.2028   19.4565 C   0  0  2  0  0  0  0  0  0  0  0  0
    5.9161   23.2543   19.5185 C   0  0  0  0  0  0  0  0  0  0  0  0
    6.3324   20.8415   19.3996 C   0  0  0  0  0  0  0  0  0  0  0  0
    4.5302   22.6602   19.7146 C   0  0  0  0  0  0  0  0  0  0  0  0
    5.3341   20.9477   18.2335 C   0  0  0  0  0  0  0  0  0  0  0  0
    4.1835   21.6443   18.7862 N   0  0  2  0  0  4  0  0  0  0  0  0
    9.2564   22.1539   22.4308 C   0  0  0  0  0  0  0  0  0  0  0  0
   10.0437   22.7931   21.5007 C   0  0  0  0  0  0  0  0  0  0  0  0
    7.9097   21.8616   21.8466 C   0  0  2  0  0  0  0  0  0  0  0  0
    7.9737   22.3014   20.5032 N   0  0  0  0  0  0  0  0  0  0  0  0
    9.2523   22.8914   20.2959 C   0  0  0  0  0  0  0  0  0  0  0  0
   11.5486   24.5232   19.7299 N   0  0  0  0  0  0  0  0  0  0  0  0
    9.7698   21.9010   23.6954 C   0  0  0  0  0  0  0  0  0  0  0  0
    6.9247   22.5786   22.7354 C   0  0  0  0  0  0  0  0  0  0  0  0
   11.8236   22.9224   23.0800 C   0  0  0  0  0  0  0  0  0  0  0  0
   11.0485   22.2842   24.0176 C   0  0  0  0  0  0  0  0  0  0  0  0
    2.3946   23.1779   18.2574 C   0  0  0  0  0  0  0  0  0  0  0  0
    2.6194   22.5941   15.5011 C   0  0  0  0  0  0  0  0  0  0  0  0
    2.4686   24.3566   17.2929 C   0  0  0  0  0  0  0  0  0  0  0  0
    2.0620   23.9442   15.9180 C   0  0  0  0  0  0  0  0  0  0  0  0
    3.8041   22.2487   16.4194 C   0  0  0  0  0  0  0  0  0  0  0  0
    3.2405   22.0215   17.7699 C   0  0  1  0  0  0  0  0  0  0  0  0
    9.6575   23.4329   19.2106 O   0  0  0  0  0  0  0  0  0  0  0  0
   11.3453   23.1961   21.7942 C   0  0  0  0  0  0  0  0  0  0  0  0
   13.4444   23.9551   20.8804 O   0  0  0  0  0  0  0  0  0  0  0  0
  1 13  1  0
 25  1  1  0
  1 26  2  0
  3  2  1  0
  4  2  1  0
  2 11  1  1
  5  3  1  0
  6  4  1  0
  7  5  1  6
  7  6  1  0
 23  7  1  0
  9  8  2  0
 10  8  1  0
  8 14  1  0
 12  9  1  0
  9 25  1  0
 11 10  1  0
 10 15  1  1
 11 12  1  0
 12 24  2  0
 14 17  2  0
 16 17  1  0
 25 16  2  0
 20 18  1  0
 23 18  1  1
 21 19  1  0
 19 22  1  0
 20 21  1  0
 22 23  1  0
M  CHG  1   7   1
M  END
$$$$
