
     RDKit          3D

 26 29  0  0  0  0  0  0  0  0999 V2000
   12.1712   23.8946   20.7892 C   0  0  0  0  0  0  0  0  0  0  0  0
    6.8793   22.2812   19.6577 C   0  0  2  0  0  0  0  0  0  0  0  0
    5.7355   23.2238   19.9206 C   0  0  0  0  0  0  0  0  0  0  0  0
    6.3219   20.8870   19.4682 C   0  0  0  0  0  0  0  0  0  0  0  0
    4.4159   22.4964   20.1251 C   0  0  0  0  0  0  0  0  0  0  0  0
    5.2368   21.0516   18.3899 C   0  0  0  0  0  0  0  0  0  0  0  0
    4.0801   21.5766   19.0979 N   0  0  2  0  0  4  0  0  0  0  0  0
    9.3238   22.0976   22.4807 C   0  0  0  0  0  0  0  0  0  0  0  0
   10.0533   22.7797   21.5342 C   0  0  0  0  0  0  0  0  0  0  0  0
    7.9431   21.8312   21.9681 C   0  0  2  0  0  0  0  0  0  0  0  0
    7.9246   22.3325   20.6450 N   0  0  0  0  0  0  0  0  0  0  0  0
    9.1891   22.9326   20.3864 C   0  0  0  0  0  0  0  0  0  0  0  0
   11.4562   24.7616   19.8877 N   0  0  0  0  0  0  0  0  0  0  0  0
    9.9139   21.7873   23.6982 C   0  0  0  0  0  0  0  0  0  0  0  0
    7.0162   22.5055   22.9482 C   0  0  0  0  0  0  0  0  0  0  0  0
   11.9276   22.8379   23.0046 C   0  0  0  0  0  0  0  0  0  0  0  0
   11.2108   22.1564   23.9580 C   0  0  0  0  0  0  0  0  0  0  0  0
    2.8573   23.4952   18.2881 C   0  0  0  0  0  0  0  0  0  0  0  0
    1.9298   22.0421   16.0483 C   0  0  0  0  0  0  0  0  0  0  0  0
    3.0019   24.1479   16.9177 C   0  0  0  0  0  0  0  0  0  0  0  0
    2.0424   23.5531   15.9422 C   0  0  0  0  0  0  0  0  0  0  0  0
    3.1596   21.5112   16.8046 C   0  0  0  0  0  0  0  0  0  0  0  0
    3.0405   21.9954   18.1989 C   0  0  1  0  0  0  0  0  0  0  0  0
    9.5275   23.5240   19.3042 O   0  0  0  0  0  0  0  0  0  0  0  0
   11.3713   23.1700   21.7649 C   0  0  0  0  0  0  0  0  0  0  0  0
   13.4059   23.8404   20.6563 O   0  0  0  0  0  0  0  0  0  0  0  0
  1 13  1  0
 25  1  1  0
  1 26  2  0
  3  2  1  0
  4  2  1  0
  2 11  1  1
  5  3  1  0
  6  4  1  0
  7  5  1  6
  7  6  1  0
 23  7  1  0
  9  8  2  0
 10  8  1  0
  8 14  1  0
 12  9  1  0
  9 25  1  0
 11 10  1  0
 10 15  1  1
 11 12  1  0
 12 24  2  0
 14 17  2  0
 16 17  1  0
 25 16  2  0
 20 18  1  0
 23 18  1  6
 21 19  1  0
 19 22  1  0
 20 21  1  0
 22 23  1  0
M  CHG  1   7   1
M  END
$$$$
