
     RDKit          3D

 26 29  0  0  0  0  0  0  0  0999 V2000
   12.4356   24.1011   20.5320 C   0  0  0  0  0  0  0  0  0  0  0  0
    7.7009   21.2505   21.6918 C   0  0  2  0  0  0  0  0  0  0  0  0
    7.0919   20.3839   20.6223 C   0  0  0  0  0  0  0  0  0  0  0  0
    6.6730   21.4667   22.7813 C   0  0  0  0  0  0  0  0  0  0  0  0
    5.6028   20.1586   20.8324 C   0  0  0  0  0  0  0  0  0  0  0  0
    6.2072   20.0487   23.1551 C   0  0  0  0  0  0  0  0  0  0  0  0
    5.2511   19.6828   22.1224 N   0  0  2  0  0  4  0  0  0  0  0  0
    8.7066   24.6393   20.4735 C   0  0  0  0  0  0  0  0  0  0  0  0
    9.9317   24.0325   20.6295 C   0  0  0  0  0  0  0  0  0  0  0  0
    7.6114   23.6689   20.7887 C   0  0  2  0  0  0  0  0  0  0  0  0
    8.2614   22.4827   21.2041 N   0  0  0  0  0  0  0  0  0  0  0  0
    9.6648   22.6869   21.0832 C   0  0  0  0  0  0  0  0  0  0  0  0
   12.5746   22.7484   20.0563 N   0  0  0  0  0  0  0  0  0  0  0  0
    8.6529   25.9629   20.0589 C   0  0  0  0  0  0  0  0  0  0  0  0
    6.7898   23.5708   19.5279 C   0  0  0  0  0  0  0  0  0  0  0  0
   11.0245   26.0430   19.9645 C   0  0  0  0  0  0  0  0  0  0  0  0
    9.8080   26.6610   19.8057 C   0  0  0  0  0  0  0  0  0  0  0  0
    6.0162   17.4311   21.7026 C   0  0  0  0  0  0  0  0  0  0  0  0
    3.9685   16.3607   23.3304 C   0  0  0  0  0  0  0  0  0  0  0  0
    6.4190   16.4017   22.7529 C   0  0  0  0  0  0  0  0  0  0  0  0
    5.2500   15.5649   23.1521 C   0  0  0  0  0  0  0  0  0  0  0  0
    4.3334   17.8455   23.4984 C   0  0  0  0  0  0  0  0  0  0  0  0
    4.8781   18.2973   22.1975 C   0  0  1  0  0  0  0  0  0  0  0  0
   10.5700   21.8192   21.3345 O   0  0  0  0  0  0  0  0  0  0  0  0
   11.1234   24.7112   20.3808 C   0  0  0  0  0  0  0  0  0  0  0  0
   13.4452   24.6289   21.0291 O   0  0  0  0  0  0  0  0  0  0  0  0
  1 13  1  0
 25  1  1  0
  1 26  2  0
  3  2  1  0
  4  2  1  0
  2 11  1  6
  5  3  1  0
  6  4  1  0
  7  5  1  6
  7  6  1  0
 23  7  1  0
  9  8  2  0
 10  8  1  0
  8 14  1  0
 12  9  1  0
  9 25  1  0
 11 10  1  0
 10 15  1  6
 11 12  1  0
 12 24  2  0
 14 17  2  0
 16 17  1  0
 25 16  2  0
 20 18  1  0
 23 18  1  1
 21 19  1  0
 19 22  1  0
 20 21  1  0
 22 23  1  0
M  CHG  1   7   1
M  END
$$$$
