
     RDKit          3D

 26 29  0  0  0  0  0  0  0  0999 V2000
   12.3021   24.2941   21.1652 C   0  0  0  0  0  0  0  0  0  0  0  0
    7.1260   22.7370   19.5310 C   0  0  2  0  0  0  0  0  0  0  0  0
    6.0876   23.8263   19.5615 C   0  0  0  0  0  0  0  0  0  0  0  0
    6.4214   21.4013   19.4318 C   0  0  0  0  0  0  0  0  0  0  0  0
    4.6744   23.2810   19.6947 C   0  0  0  0  0  0  0  0  0  0  0  0
    5.4760   21.5554   18.2277 C   0  0  0  0  0  0  0  0  0  0  0  0
    4.3296   22.2878   18.7414 N   0  0  2  0  0  4  0  0  0  0  0  0
    9.2720   22.5641   22.5877 C   0  0  0  0  0  0  0  0  0  0  0  0
   10.1032   23.2208   21.7096 C   0  0  0  0  0  0  0  0  0  0  0  0
    7.9456   22.3089   21.9429 C   0  0  2  0  0  0  0  0  0  0  0  0
    8.0677   22.7893   20.6176 N   0  0  0  0  0  0  0  0  0  0  0  0
    9.3609   23.3676   20.4787 C   0  0  0  0  0  0  0  0  0  0  0  0
   11.6953   25.1659   20.1919 N   0  0  0  0  0  0  0  0  0  0  0  0
    9.7322   22.2649   23.8627 C   0  0  0  0  0  0  0  0  0  0  0  0
    6.9358   23.0116   22.8150 C   0  0  0  0  0  0  0  0  0  0  0  0
   11.8213   23.2762   23.3600 C   0  0  0  0  0  0  0  0  0  0  0  0
   11.0020   22.6200   24.2461 C   0  0  0  0  0  0  0  0  0  0  0  0
    3.0677   21.5236   16.8295 C   0  0  0  0  0  0  0  0  0  0  0  0
    1.4996   23.8751   16.8408 C   0  0  0  0  0  0  0  0  0  0  0  0
    1.5538   21.3594   16.7514 C   0  0  0  0  0  0  0  0  0  0  0  0
    0.9094   22.6072   16.2479 C   0  0  0  0  0  0  0  0  0  0  0  0
    2.2698   23.5051   18.1199 C   0  0  0  0  0  0  0  0  0  0  0  0
    3.4430   22.7092   17.6922 C   0  0  1  0  0  0  0  0  0  0  0  0
    9.8152   23.9369   19.4275 O   0  0  0  0  0  0  0  0  0  0  0  0
   11.3973   23.5963   22.0659 C   0  0  0  0  0  0  0  0  0  0  0  0
   13.5424   24.2133   21.1518 O   0  0  0  0  0  0  0  0  0  0  0  0
  1 13  1  0
 25  1  1  0
  1 26  2  0
  3  2  1  0
  4  2  1  0
  2 11  1  1
  5  3  1  0
  6  4  1  0
  7  5  1  6
  7  6  1  0
 23  7  1  0
  9  8  2  0
 10  8  1  0
  8 14  1  0
 12  9  1  0
  9 25  1  0
 11 10  1  0
 10 15  1  1
 11 12  1  0
 12 24  2  0
 14 17  2  0
 16 17  1  0
 25 16  2  0
 20 18  1  0
 23 18  1  1
 21 19  1  0
 19 22  1  0
 20 21  1  0
 22 23  1  0
M  CHG  1   7   1
M  END
$$$$
