
     RDKit          3D

 26 29  0  0  0  0  0  0  0  0999 V2000
   12.3433   23.9307   21.2019 C   0  0  0  0  0  0  0  0  0  0  0  0
    7.0509   22.6633   19.6946 C   0  0  2  0  0  0  0  0  0  0  0  0
    6.0032   23.7254   19.8944 C   0  0  0  0  0  0  0  0  0  0  0  0
    6.3571   21.3367   19.4729 C   0  0  0  0  0  0  0  0  0  0  0  0
    4.6033   23.1463   20.0244 C   0  0  0  0  0  0  0  0  0  0  0  0
    5.3577   21.6124   18.3360 C   0  0  0  0  0  0  0  0  0  0  0  0
    4.2273   22.2632   18.9790 N   0  0  2  0  0  4  0  0  0  0  0  0
    9.3175   22.1990   22.6316 C   0  0  0  0  0  0  0  0  0  0  0  0
   10.1332   22.8913   21.7662 C   0  0  0  0  0  0  0  0  0  0  0  0
    7.9568   22.0341   22.0303 C   0  0  2  0  0  0  0  0  0  0  0  0
    8.0393   22.6060   20.7387 N   0  0  0  0  0  0  0  0  0  0  0  0
    9.3448   23.1512   20.5836 C   0  0  0  0  0  0  0  0  0  0  0  0
   11.7194   24.8290   20.2641 N   0  0  0  0  0  0  0  0  0  0  0  0
    9.8207   21.7929   23.8598 C   0  0  0  0  0  0  0  0  0  0  0  0
    7.0102   22.7030   22.9951 C   0  0  0  0  0  0  0  0  0  0  0  0
   11.9208   22.7710   23.3375 C   0  0  0  0  0  0  0  0  0  0  0  0
   11.1174   22.0783   24.2103 C   0  0  0  0  0  0  0  0  0  0  0  0
    3.9440   22.8825   16.6621 C   0  0  0  0  0  0  0  0  0  0  0  0
    1.1307   22.8696   16.9335 C   0  0  0  0  0  0  0  0  0  0  0  0
    3.1401   22.1211   15.6138 C   0  0  0  0  0  0  0  0  0  0  0  0
    1.7327   22.6138   15.5627 C   0  0  0  0  0  0  0  0  0  0  0  0
    1.9688   22.1211   17.9840 C   0  0  0  0  0  0  0  0  0  0  0  0
    3.2906   22.7876   18.0240 C   0  0  1  0  0  0  0  0  0  0  0  0
    9.7738   23.7811   19.5566 O   0  0  0  0  0  0  0  0  0  0  0  0
   11.4537   23.1982   22.0901 C   0  0  0  0  0  0  0  0  0  0  0  0
   13.5838   23.8590   21.1717 O   0  0  0  0  0  0  0  0  0  0  0  0
  1 13  1  0
 25  1  1  0
  1 26  2  0
  3  2  1  0
  4  2  1  0
  2 11  1  1
  5  3  1  0
  6  4  1  0
  7  5  1  6
  7  6  1  0
 23  7  1  0
  9  8  2  0
 10  8  1  0
  8 14  1  0
 12  9  1  0
  9 25  1  0
 11 10  1  0
 10 15  1  1
 11 12  1  0
 12 24  2  0
 14 17  2  0
 16 17  1  0
 25 16  2  0
 20 18  1  0
 23 18  1  6
 21 19  1  0
 19 22  1  0
 20 21  1  0
 22 23  1  0
M  CHG  1   7   1
M  END
$$$$
