
     RDKit          3D

 23 24  0  0  0  0  0  0  0  0999 V2000
   -6.9753  -32.4480  -14.9126 C   0  0  1  0  0  0  0  0  0  0  0  0
   -7.4800  -31.6964  -13.7009 C   0  0  1  0  0  0  0  0  0  0  0  0
   -7.8883  -30.2890  -14.0818 C   0  0  2  0  0  0  0  0  0  0  0  0
   -6.6365  -29.5522  -14.5570 C   0  0  1  0  0  0  0  0  0  0  0  0
   -5.9536  -30.4975  -15.5182 C   0  0  1  0  0  0  0  0  0  0  0  0
   -4.5992  -30.9210  -14.9908 C   0  0  0  0  0  0  0  0  0  0  0  0
   -7.8270  -33.4688  -15.1662 O   0  0  0  0  0  0  0  0  0  0  0  0
   -8.6342  -32.3211  -13.1731 O   0  0  0  0  0  0  0  0  0  0  0  0
   -8.3993  -29.5958  -13.0129 O   0  0  0  0  0  0  0  0  0  0  0  0
   -7.0688  -28.4001  -15.1811 O   0  0  0  0  0  0  0  0  0  0  0  0
   -6.7463  -31.5595  -15.9140 O   0  0  0  0  0  0  0  0  0  0  0  0
   -3.6758  -30.8132  -16.0608 O   0  0  0  0  0  0  0  0  0  0  0  0
   -7.3698  -35.5527  -14.0533 C   0  0  0  0  0  0  0  0  0  0  0  0
   -7.3896  -34.7298  -15.3566 C   0  0  1  0  0  0  0  0  0  0  0  0
   -7.9850  -35.5409  -16.4403 C   0  0  2  0  0  0  0  0  0  0  0  0
   -7.0519  -35.2640  -17.6082 C   0  0  1  0  0  0  0  0  0  0  0  0
   -5.7515  -35.2083  -16.8329 C   0  0  1  0  0  0  0  0  0  0  0  0
   -4.6631  -34.5609  -17.6519 C   0  0  0  0  0  0  0  0  0  0  0  0
   -6.3600  -36.5095  -14.2279 O   0  0  0  0  0  0  0  0  0  0  0  0
   -6.0036  -34.6030  -15.6482 O   0  0  0  0  0  0  0  0  0  0  0  0
   -9.2686  -35.2922  -16.8069 O   0  0  0  0  0  0  0  0  0  0  0  0
   -7.0582  -36.3169  -18.5209 O   0  0  0  0  0  0  0  0  0  0  0  0
   -4.5021  -33.2267  -17.3833 O   0  0  0  0  0  0  0  0  0  0  0  0
  1  2  1  0
  1  7  1  6
  1 11  1  0
  2  3  1  0
  2  8  1  6
  3  4  1  0
  3  9  1  1
  5  4  1  0
  4 10  1  6
  5  6  1  0
  5 11  1  1
  6 12  1  6
 14  7  1  1
 14 13  1  0
 13 19  1  6
 14 15  1  0
 20 14  1  0
 16 15  1  0
 15 21  1  6
 17 16  1  0
 16 22  1  6
 18 17  1  0
 17 20  1  1
 18 23  1  6
M  END
$$$$
