
     RDKit          3D

 23 24  0  0  0  0  0  0  0  0999 V2000
   -6.9082  -32.6905  -14.8918 C   0  0  1  0  0  0  0  0  0  0  0  0
   -6.7857  -31.5769  -13.8755 C   0  0  1  0  0  0  0  0  0  0  0  0
   -7.7579  -30.4602  -14.1923 C   0  0  2  0  0  0  0  0  0  0  0  0
   -7.3578  -29.8612  -15.5401 C   0  0  1  0  0  0  0  0  0  0  0  0
   -7.1378  -31.0428  -16.4564 C   0  0  1  0  0  0  0  0  0  0  0  0
   -5.6931  -31.1204  -16.9024 C   0  0  0  0  0  0  0  0  0  0  0  0
   -7.3642  -33.7966  -14.2593 O   0  0  0  0  0  0  0  0  0  0  0  0
   -7.1179  -32.0447  -12.5825 O   0  0  0  0  0  0  0  0  0  0  0  0
   -7.7076  -29.4555  -13.2584 O   0  0  0  0  0  0  0  0  0  0  0  0
   -8.4136  -29.0744  -15.9523 O   0  0  0  0  0  0  0  0  0  0  0  0
   -7.6231  -32.2363  -15.9537 O   0  0  0  0  0  0  0  0  0  0  0  0
   -5.6684  -31.8156  -18.1374 O   0  0  0  0  0  0  0  0  0  0  0  0
   -6.0326  -35.5962  -13.3768 C   0  0  0  0  0  0  0  0  0  0  0  0
   -6.8775  -35.0239  -14.5321 C   0  0  1  0  0  0  0  0  0  0  0  0
   -7.7987  -36.0678  -15.0304 C   0  0  2  0  0  0  0  0  0  0  0  0
   -7.6825  -35.9156  -16.5387 C   0  0  1  0  0  0  0  0  0  0  0  0
   -6.2024  -35.5993  -16.6071 C   0  0  1  0  0  0  0  0  0  0  0  0
   -5.8392  -35.0072  -17.9458 C   0  0  0  0  0  0  0  0  0  0  0  0
   -4.9102  -36.1774  -13.9835 O   0  0  0  0  0  0  0  0  0  0  0  0
   -5.8980  -34.8196  -15.5427 O   0  0  0  0  0  0  0  0  0  0  0  0
   -9.1042  -36.0116  -14.6607 O   0  0  0  0  0  0  0  0  0  0  0  0
   -7.9807  -37.1098  -17.1918 O   0  0  0  0  0  0  0  0  0  0  0  0
   -5.0892  -33.8644  -17.8486 O   0  0  0  0  0  0  0  0  0  0  0  0
  1  2  1  0
  1  7  1  1
  1 11  1  0
  2  3  1  0
  2  8  1  1
  3  4  1  0
  3  9  1  1
  5  4  1  0
  4 10  1  6
  5  6  1  0
  5 11  1  1
  6 12  1  6
 14  7  1  1
 14 13  1  0
 13 19  1  6
 14 15  1  0
 20 14  1  0
 16 15  1  0
 15 21  1  1
 17 16  1  0
 16 22  1  6
 18 17  1  0
 17 20  1  1
 18 23  1  6
M  END
$$$$
