
     RDKit          3D

 23 24  0  0  0  0  0  0  0  0999 V2000
   -6.6737  -33.7653  -15.9520 C   0  0  1  0  0  0  0  0  0  0  0  0
   -6.9837  -34.2629  -17.3464 C   0  0  1  0  0  0  0  0  0  0  0  0
   -7.3122  -35.7408  -17.3214 C   0  0  2  0  0  0  0  0  0  0  0  0
   -6.0608  -36.4894  -16.8636 C   0  0  1  0  0  0  0  0  0  0  0  0
   -5.5638  -35.7382  -15.6501 C   0  0  1  0  0  0  0  0  0  0  0  0
   -4.2009  -35.1319  -15.9094 C   0  0  0  0  0  0  0  0  0  0  0  0
   -7.6288  -32.8756  -15.5948 O   0  0  0  0  0  0  0  0  0  0  0  0
   -8.1235  -33.6064  -17.8669 O   0  0  0  0  0  0  0  0  0  0  0  0
   -7.6483  -36.2130  -18.5656 O   0  0  0  0  0  0  0  0  0  0  0  0
   -6.4598  -37.7729  -16.5520 O   0  0  0  0  0  0  0  0  0  0  0  0
   -6.4789  -34.8358  -15.1392 O   0  0  0  0  0  0  0  0  0  0  0  0
   -3.2448  -35.9407  -15.2456 O   0  0  0  0  0  0  0  0  0  0  0  0
   -7.5151  -30.5934  -16.3490 C   0  0  0  0  0  0  0  0  0  0  0  0
   -7.3239  -31.6187  -15.2140 C   0  0  1  0  0  0  0  0  0  0  0  0
   -7.9093  -31.0841  -13.9657 C   0  0  2  0  0  0  0  0  0  0  0  0
   -6.8500  -31.4305  -12.9316 C   0  0  1  0  0  0  0  0  0  0  0  0
   -5.6263  -31.1879  -13.7912 C   0  0  1  0  0  0  0  0  0  0  0  0
   -4.4020  -31.8181  -13.1759 C   0  0  0  0  0  0  0  0  0  0  0  0
   -6.8686  -29.4273  -15.9154 O   0  0  0  0  0  0  0  0  0  0  0  0
   -5.9120  -31.6134  -15.0445 O   0  0  0  0  0  0  0  0  0  0  0  0
   -9.1180  -31.5536  -13.5626 O   0  0  0  0  0  0  0  0  0  0  0  0
   -6.8956  -30.5551  -11.8484 O   0  0  0  0  0  0  0  0  0  0  0  0
   -4.2115  -33.1203  -13.5578 O   0  0  0  0  0  0  0  0  0  0  0  0
  1  2  1  0
  1  7  1  1
  1 11  1  0
  2  3  1  0
  2  8  1  1
  3  4  1  0
  3  9  1  6
  5  4  1  0
  4 10  1  1
  5  6  1  0
  5 11  1  6
  6 12  1  6
 14  7  1  6
 14 13  1  0
 13 19  1  6
 14 15  1  0
 20 14  1  0
 16 15  1  0
 15 21  1  1
 17 16  1  0
 16 22  1  1
 18 17  1  0
 17 20  1  6
 18 23  1  6
M  END
$$$$
