
     RDKit          3D

 23 24  0  0  0  0  0  0  0  0999 V2000
   -5.4173  -33.7213  -15.1892 C   0  0  1  0  0  0  0  0  0  0  0  0
   -6.7051  -34.1207  -15.8746 C   0  0  1  0  0  0  0  0  0  0  0  0
   -6.9887  -35.5918  -15.6554 C   0  0  2  0  0  0  0  0  0  0  0  0
   -5.8737  -36.3881  -16.3326 C   0  0  1  0  0  0  0  0  0  0  0  0
   -4.5861  -35.7266  -15.8986 C   0  0  1  0  0  0  0  0  0  0  0  0
   -3.8602  -35.1253  -17.0834 C   0  0  0  0  0  0  0  0  0  0  0  0
   -5.7138  -32.8428  -14.2034 O   0  0  0  0  0  0  0  0  0  0  0  0
   -7.8007  -33.4138  -15.3259 O   0  0  0  0  0  0  0  0  0  0  0  0
   -8.1783  -35.9753  -16.2228 O   0  0  0  0  0  0  0  0  0  0  0  0
   -5.9743  -37.6832  -15.8675 O   0  0  0  0  0  0  0  0  0  0  0  0
   -4.7394  -34.8462  -14.8431 O   0  0  0  0  0  0  0  0  0  0  0  0
   -2.4771  -35.3794  -16.9057 O   0  0  0  0  0  0  0  0  0  0  0  0
   -7.9629  -33.5991  -13.8037 C   0  0  0  0  0  0  0  0  0  0  0  0
   -6.9762  -32.4275  -13.9763 C   0  0  1  0  0  0  0  0  0  0  0  0
   -7.2224  -31.4192  -12.9230 C   0  0  2  0  0  0  0  0  0  0  0  0
   -7.1546  -30.1124  -13.6971 C   0  0  1  0  0  0  0  0  0  0  0  0
   -7.8182  -30.5868  -14.9738 C   0  0  1  0  0  0  0  0  0  0  0  0
   -7.5590  -29.6243  -16.1057 C   0  0  0  0  0  0  0  0  0  0  0  0
   -9.1998  -33.0088  -13.5081 O   0  0  0  0  0  0  0  0  0  0  0  0
   -7.4067  -31.8559  -15.2052 O   0  0  0  0  0  0  0  0  0  0  0  0
   -6.3775  -31.3702  -11.8611 O   0  0  0  0  0  0  0  0  0  0  0  0
   -7.9016  -29.1155  -13.0726 O   0  0  0  0  0  0  0  0  0  0  0  0
   -8.0317  -28.3611  -15.8632 O   0  0  0  0  0  0  0  0  0  0  0  0
  1  2  1  0
  1  7  1  1
  1 11  1  0
  2  3  1  0
  2  8  1  1
  3  4  1  0
  3  9  1  6
  5  4  1  0
  4 10  1  1
  5  6  1  0
  5 11  1  1
  6 12  1  6
 14  7  1  6
 14 13  1  0
 13 19  1  6
 14 15  1  0
 20 14  1  0
 16 15  1  0
 15 21  1  1
 17 16  1  0
 16 22  1  1
 18 17  1  0
 17 20  1  6
 18 23  1  6
M  END
$$$$
