
     RDKit          3D

 23 24  0  0  0  0  0  0  0  0999 V2000
   -6.8580  -33.5584  -15.6045 C   0  0  1  0  0  0  0  0  0  0  0  0
   -7.1488  -34.1844  -16.9504 C   0  0  1  0  0  0  0  0  0  0  0  0
   -7.4161  -35.6671  -16.7993 C   0  0  2  0  0  0  0  0  0  0  0  0
   -6.1345  -36.3224  -16.2857 C   0  0  1  0  0  0  0  0  0  0  0  0
   -5.6674  -35.4516  -15.1422 C   0  0  1  0  0  0  0  0  0  0  0  0
   -4.3310  -34.8141  -15.4579 C   0  0  0  0  0  0  0  0  0  0  0  0
   -7.8486  -32.6816  -15.3192 O   0  0  0  0  0  0  0  0  0  0  0  0
   -8.3153  -33.6214  -17.5192 O   0  0  0  0  0  0  0  0  0  0  0  0
   -7.7339  -36.2561  -17.9977 O   0  0  0  0  0  0  0  0  0  0  0  0
   -6.4799  -37.5903  -15.8650 O   0  0  0  0  0  0  0  0  0  0  0  0
   -6.6184  -34.5475  -14.7050 O   0  0  0  0  0  0  0  0  0  0  0  0
   -3.4092  -35.8627  -15.7021 O   0  0  0  0  0  0  0  0  0  0  0  0
   -8.6266  -30.4068  -15.2180 C   0  0  0  0  0  0  0  0  0  0  0  0
   -7.5941  -31.4681  -14.7896 C   0  0  1  0  0  0  0  0  0  0  0  0
   -7.3490  -31.3558  -13.3356 C   0  0  2  0  0  0  0  0  0  0  0  0
   -5.8363  -31.4798  -13.2470 C   0  0  1  0  0  0  0  0  0  0  0  0
   -5.4861  -30.7143  -14.5067 C   0  0  1  0  0  0  0  0  0  0  0  0
   -4.0615  -30.9837  -14.9224 C   0  0  0  0  0  0  0  0  0  0  0  0
   -9.8787  -30.9472  -14.8925 O   0  0  0  0  0  0  0  0  0  0  0  0
   -6.4154  -31.0161  -15.4441 O   0  0  0  0  0  0  0  0  0  0  0  0
   -7.9348  -32.2581  -12.5070 O   0  0  0  0  0  0  0  0  0  0  0  0
   -5.3428  -30.8447  -12.1091 O   0  0  0  0  0  0  0  0  0  0  0  0
   -3.8629  -32.2579  -15.3858 O   0  0  0  0  0  0  0  0  0  0  0  0
  1  2  1  0
  1  7  1  1
  1 11  1  0
  2  3  1  0
  2  8  1  1
  3  4  1  0
  3  9  1  6
  5  4  1  0
  4 10  1  1
  5  6  1  0
  5 11  1  6
  6 12  1  6
 14  7  1  1
 14 13  1  0
 13 19  1  6
 14 15  1  0
 20 14  1  0
 16 15  1  0
 15 21  1  1
 17 16  1  0
 16 22  1  1
 18 17  1  0
 17 20  1  6
 18 23  1  6
M  END
$$$$
