
     RDKit          3D

 23 24  0  0  0  0  0  0  0  0999 V2000
   -6.8756  -32.8748  -15.8772 C   0  0  1  0  0  0  0  0  0  0  0  0
   -8.1026  -32.1569  -15.3605 C   0  0  1  0  0  0  0  0  0  0  0  0
   -7.7972  -31.4587  -14.0521 C   0  0  2  0  0  0  0  0  0  0  0  0
   -7.4571  -32.5320  -13.0186 C   0  0  1  0  0  0  0  0  0  0  0  0
   -6.4771  -33.4554  -13.7048 C   0  0  1  0  0  0  0  0  0  0  0  0
   -7.0592  -34.8444  -13.8595 C   0  0  0  0  0  0  0  0  0  0  0  0
   -6.4958  -32.2893  -17.0367 O   0  0  0  0  0  0  0  0  0  0  0  0
   -8.5093  -31.1507  -16.2679 O   0  0  0  0  0  0  0  0  0  0  0  0
   -8.8775  -30.7546  -13.5817 O   0  0  0  0  0  0  0  0  0  0  0  0
   -6.8899  -31.8797  -11.9432 O   0  0  0  0  0  0  0  0  0  0  0  0
   -5.9567  -32.9432  -14.8794 O   0  0  0  0  0  0  0  0  0  0  0  0
   -7.1823  -35.3987  -12.5608 O   0  0  0  0  0  0  0  0  0  0  0  0
   -4.3851  -31.8227  -18.0937 C   0  0  0  0  0  0  0  0  0  0  0  0
   -5.5309  -32.8160  -17.8172 C   0  0  1  0  0  0  0  0  0  0  0  0
   -4.9628  -34.1353  -17.4658 C   0  0  2  0  0  0  0  0  0  0  0  0
   -5.8368  -35.0916  -18.2614 C   0  0  1  0  0  0  0  0  0  0  0  0
   -6.0109  -34.2389  -19.5015 C   0  0  1  0  0  0  0  0  0  0  0  0
   -7.1572  -34.7404  -20.3438 C   0  0  0  0  0  0  0  0  0  0  0  0
   -4.9370  -30.8315  -18.9174 O   0  0  0  0  0  0  0  0  0  0  0  0
   -6.1238  -32.9498  -19.1028 O   0  0  0  0  0  0  0  0  0  0  0  0
   -4.9436  -34.5066  -16.1598 O   0  0  0  0  0  0  0  0  0  0  0  0
   -5.1606  -36.2762  -18.5463 O   0  0  0  0  0  0  0  0  0  0  0  0
   -7.9222  -33.7345  -20.8737 O   0  0  0  0  0  0  0  0  0  0  0  0
  1  2  1  0
  1  7  1  6
  1 11  1  0
  2  3  1  0
  2  8  1  6
  3  4  1  0
  3  9  1  1
  5  4  1  0
  4 10  1  1
  5  6  1  0
  5 11  1  6
  6 12  1  6
 14  7  1  1
 14 13  1  0
 13 19  1  6
 14 15  1  0
 20 14  1  0
 16 15  1  0
 15 21  1  1
 17 16  1  0
 16 22  1  6
 18 17  1  0
 17 20  1  1
 18 23  1  6
M  END
$$$$
