
     RDKit          3D

 23 24  0  0  0  0  0  0  0  0999 V2000
   -7.0066  -32.0774  -15.1666 C   0  0  1  0  0  0  0  0  0  0  0  0
   -6.2432  -30.8077  -14.8614 C   0  0  1  0  0  0  0  0  0  0  0  0
   -6.5354  -30.3388  -13.4516 C   0  0  2  0  0  0  0  0  0  0  0  0
   -8.0191  -29.9797  -13.3772 C   0  0  1  0  0  0  0  0  0  0  0  0
   -8.7460  -31.1353  -14.0254 C   0  0  1  0  0  0  0  0  0  0  0  0
   -9.4641  -30.6876  -15.2807 C   0  0  0  0  0  0  0  0  0  0  0  0
   -6.1137  -33.0772  -15.3528 O   0  0  0  0  0  0  0  0  0  0  0  0
   -4.8490  -31.0373  -14.9280 O   0  0  0  0  0  0  0  0  0  0  0  0
   -5.8178  -29.2151  -13.1254 O   0  0  0  0  0  0  0  0  0  0  0  0
   -8.3294  -29.8566  -12.0385 O   0  0  0  0  0  0  0  0  0  0  0  0
   -7.9571  -32.2557  -14.2129 O   0  0  0  0  0  0  0  0  0  0  0  0
  -10.3824  -29.6755  -14.9048 O   0  0  0  0  0  0  0  0  0  0  0  0
   -6.7502  -34.5277  -13.5415 C   0  0  0  0  0  0  0  0  0  0  0  0
   -6.3994  -34.3553  -15.0325 C   0  0  1  0  0  0  0  0  0  0  0  0
   -7.3751  -35.1015  -15.8559 C   0  0  2  0  0  0  0  0  0  0  0  0
   -6.4855  -35.7787  -16.8861 C   0  0  1  0  0  0  0  0  0  0  0  0
   -5.3105  -36.0891  -15.9814 C   0  0  1  0  0  0  0  0  0  0  0  0
   -4.0813  -36.4220  -16.7894 C   0  0  0  0  0  0  0  0  0  0  0  0
   -6.2338  -35.7789  -13.1758 O   0  0  0  0  0  0  0  0  0  0  0  0
   -5.1614  -35.0485  -15.1279 O   0  0  0  0  0  0  0  0  0  0  0  0
   -8.3604  -34.4082  -16.4823 O   0  0  0  0  0  0  0  0  0  0  0  0
   -7.0748  -36.9425  -17.3761 O   0  0  0  0  0  0  0  0  0  0  0  0
   -3.2342  -35.3573  -16.9528 O   0  0  0  0  0  0  0  0  0  0  0  0
  1  2  1  0
  1  7  1  1
  1 11  1  0
  2  3  1  0
  2  8  1  1
  3  4  1  0
  3  9  1  6
  5  4  1  0
  4 10  1  1
  5  6  1  0
  5 11  1  6
  6 12  1  6
 14  7  1  6
 14 13  1  0
 13 19  1  6
 14 15  1  0
 20 14  1  0
 16 15  1  0
 15 21  1  6
 17 16  1  0
 16 22  1  1
 18 17  1  0
 17 20  1  6
 18 23  1  6
M  END
$$$$
