
     RDKit          3D

 23 24  0  0  0  0  0  0  0  0999 V2000
   -6.7294  -33.0832  -15.8283 C   0  0  1  0  0  0  0  0  0  0  0  0
   -6.3000  -31.7838  -16.4726 C   0  0  1  0  0  0  0  0  0  0  0  0
   -7.2473  -31.4085  -17.5927 C   0  0  2  0  0  0  0  0  0  0  0  0
   -7.1405  -32.4832  -18.6741 C   0  0  1  0  0  0  0  0  0  0  0  0
   -7.2183  -33.8020  -17.9400 C   0  0  1  0  0  0  0  0  0  0  0  0
   -5.9281  -34.5803  -18.0867 C   0  0  0  0  0  0  0  0  0  0  0  0
   -7.0914  -32.8258  -14.5500 O   0  0  0  0  0  0  0  0  0  0  0  0
   -6.3456  -30.7250  -15.5356 O   0  0  0  0  0  0  0  0  0  0  0  0
   -6.9142  -30.2065  -18.1655 O   0  0  0  0  0  0  0  0  0  0  0  0
   -8.2122  -32.2977  -19.5230 O   0  0  0  0  0  0  0  0  0  0  0  0
   -7.6451  -33.6866  -16.6296 O   0  0  0  0  0  0  0  0  0  0  0  0
   -6.1794  -35.6516  -18.9802 O   0  0  0  0  0  0  0  0  0  0  0  0
   -7.1103  -33.1439  -12.1649 C   0  0  0  0  0  0  0  0  0  0  0  0
   -6.9660  -33.7488  -13.5753 C   0  0  1  0  0  0  0  0  0  0  0  0
   -7.7588  -34.9942  -13.6587 C   0  0  2  0  0  0  0  0  0  0  0  0
   -6.8132  -35.9375  -14.3850 C   0  0  1  0  0  0  0  0  0  0  0  0
   -5.5189  -35.4714  -13.7503 C   0  0  1  0  0  0  0  0  0  0  0  0
   -4.3277  -35.9473  -14.5436 C   0  0  0  0  0  0  0  0  0  0  0  0
   -5.8231  -32.7223  -11.8029 O   0  0  0  0  0  0  0  0  0  0  0  0
   -5.5956  -34.1283  -13.5962 O   0  0  0  0  0  0  0  0  0  0  0  0
   -8.9564  -34.9597  -14.2980 O   0  0  0  0  0  0  0  0  0  0  0  0
   -7.0863  -37.2675  -14.0716 O   0  0  0  0  0  0  0  0  0  0  0  0
   -3.5543  -34.9249  -15.0278 O   0  0  0  0  0  0  0  0  0  0  0  0
  1  2  1  0
  1  7  1  1
  1 11  1  0
  2  3  1  0
  2  8  1  1
  3  4  1  0
  3  9  1  6
  5  4  1  0
  4 10  1  6
  5  6  1  0
  5 11  1  1
  6 12  1  6
 14  7  1  6
 14 13  1  0
 13 19  1  6
 14 15  1  0
 20 14  1  0
 16 15  1  0
 15 21  1  6
 17 16  1  0
 16 22  1  1
 18 17  1  0
 17 20  1  6
 18 23  1  6
M  END
$$$$
