
     RDKit          3D

 23 24  0  0  0  0  0  0  0  0999 V2000
   -6.6026  -32.2453  -14.6491 C   0  0  1  0  0  0  0  0  0  0  0  0
   -6.9068  -31.1931  -13.6060 C   0  0  1  0  0  0  0  0  0  0  0  0
   -7.8032  -30.1178  -14.1828 C   0  0  2  0  0  0  0  0  0  0  0  0
   -7.0291  -29.4120  -15.2956 C   0  0  1  0  0  0  0  0  0  0  0  0
   -6.4301  -30.5182  -16.1332 C   0  0  1  0  0  0  0  0  0  0  0  0
   -4.9177  -30.4822  -16.0762 C   0  0  0  0  0  0  0  0  0  0  0  0
   -7.1551  -33.4142  -14.2493 O   0  0  0  0  0  0  0  0  0  0  0  0
   -7.6091  -31.7606  -12.5170 O   0  0  0  0  0  0  0  0  0  0  0  0
   -8.1400  -29.1731  -13.2456 O   0  0  0  0  0  0  0  0  0  0  0  0
   -7.9475  -28.6643  -16.0034 O   0  0  0  0  0  0  0  0  0  0  0  0
   -6.9608  -31.7677  -15.8691 O   0  0  0  0  0  0  0  0  0  0  0  0
   -4.4730  -29.6693  -17.1488 O   0  0  0  0  0  0  0  0  0  0  0  0
   -5.2592  -34.7183  -13.5458 C   0  0  0  0  0  0  0  0  0  0  0  0
   -6.5243  -34.5938  -14.4175 C   0  0  1  0  0  0  0  0  0  0  0  0
   -7.3063  -35.8458  -14.3295 C   0  0  2  0  0  0  0  0  0  0  0  0
   -7.7012  -36.0890  -15.7774 C   0  0  1  0  0  0  0  0  0  0  0  0
   -6.4213  -35.6087  -16.4304 C   0  0  1  0  0  0  0  0  0  0  0  0
   -6.6299  -35.3539  -17.9022 C   0  0  0  0  0  0  0  0  0  0  0  0
   -4.1810  -34.6927  -14.4418 O   0  0  0  0  0  0  0  0  0  0  0  0
   -5.9767  -34.5393  -15.7288 O   0  0  0  0  0  0  0  0  0  0  0  0
   -8.4114  -35.8667  -13.5406 O   0  0  0  0  0  0  0  0  0  0  0  0
   -7.9223  -37.4431  -16.0205 O   0  0  0  0  0  0  0  0  0  0  0  0
   -5.8414  -34.3478  -18.3961 O   0  0  0  0  0  0  0  0  0  0  0  0
  1  2  1  0
  1  7  1  1
  1 11  1  0
  2  3  1  0
  2  8  1  1
  3  4  1  0
  3  9  1  1
  5  4  1  0
  4 10  1  6
  5  6  1  0
  5 11  1  1
  6 12  1  6
 14  7  1  1
 14 13  1  0
 13 19  1  6
 14 15  1  0
 20 14  1  0
 16 15  1  0
 15 21  1  1
 17 16  1  0
 16 22  1  1
 18 17  1  0
 17 20  1  1
 18 23  1  6
M  END
$$$$
