
     RDKit          3D

 23 24  0  0  0  0  0  0  0  0999 V2000
   -6.9513  -32.8838  -14.8799 C   0  0  1  0  0  0  0  0  0  0  0  0
   -6.8342  -31.8783  -13.7560 C   0  0  1  0  0  0  0  0  0  0  0  0
   -7.6631  -30.6474  -14.0568 C   0  0  2  0  0  0  0  0  0  0  0  0
   -7.0727  -29.9790  -15.2979 C   0  0  1  0  0  0  0  0  0  0  0  0
   -6.8671  -31.0946  -16.2965 C   0  0  1  0  0  0  0  0  0  0  0  0
   -5.3970  -31.2777  -16.6086 C   0  0  0  0  0  0  0  0  0  0  0  0
   -7.5688  -33.9886  -14.4008 O   0  0  0  0  0  0  0  0  0  0  0  0
   -7.3397  -32.4188  -12.5503 O   0  0  0  0  0  0  0  0  0  0  0  0
   -7.6188  -29.7357  -13.0316 O   0  0  0  0  0  0  0  0  0  0  0  0
   -8.0045  -29.0587  -15.7323 O   0  0  0  0  0  0  0  0  0  0  0  0
   -7.5081  -32.2721  -15.9572 O   0  0  0  0  0  0  0  0  0  0  0  0
   -5.1966  -30.8755  -17.9529 O   0  0  0  0  0  0  0  0  0  0  0  0
   -8.0419  -36.3361  -14.1649 C   0  0  0  0  0  0  0  0  0  0  0  0
   -7.4564  -35.1867  -15.0088 C   0  0  1  0  0  0  0  0  0  0  0  0
   -7.9084  -35.3267  -16.4098 C   0  0  2  0  0  0  0  0  0  0  0  0
   -6.6374  -35.0440  -17.1948 C   0  0  1  0  0  0  0  0  0  0  0  0
   -5.6552  -35.7193  -16.2595 C   0  0  1  0  0  0  0  0  0  0  0  0
   -4.2422  -35.2827  -16.5552 C   0  0  0  0  0  0  0  0  0  0  0  0
   -7.2034  -36.4467  -13.0467 O   0  0  0  0  0  0  0  0  0  0  0  0
   -6.0659  -35.4842  -14.9908 O   0  0  0  0  0  0  0  0  0  0  0  0
   -8.9110  -34.5245  -16.8516 O   0  0  0  0  0  0  0  0  0  0  0  0
   -6.6649  -35.6646  -18.4421 O   0  0  0  0  0  0  0  0  0  0  0  0
   -3.5119  -35.0079  -15.4287 O   0  0  0  0  0  0  0  0  0  0  0  0
  1  2  1  0
  1  7  1  1
  1 11  1  0
  2  3  1  0
  2  8  1  1
  3  4  1  0
  3  9  1  1
  5  4  1  0
  4 10  1  6
  5  6  1  0
  5 11  1  1
  6 12  1  6
 14  7  1  1
 14 13  1  0
 13 19  1  6
 14 15  1  0
 20 14  1  0
 16 15  1  0
 15 21  1  6
 17 16  1  0
 16 22  1  6
 18 17  1  0
 17 20  1  1
 18 23  1  6
M  END
$$$$
