
     RDKit          3D

 23 24  0  0  0  0  0  0  0  0999 V2000
   -6.6017  -33.9995  -15.3197 C   0  0  1  0  0  0  0  0  0  0  0  0
   -5.8593  -34.9770  -14.4357 C   0  0  1  0  0  0  0  0  0  0  0  0
   -4.7941  -35.7053  -15.2278 C   0  0  2  0  0  0  0  0  0  0  0  0
   -5.4968  -36.5388  -16.2988 C   0  0  1  0  0  0  0  0  0  0  0  0
   -6.5025  -35.6087  -16.9371 C   0  0  1  0  0  0  0  0  0  0  0  0
   -7.9168  -36.0901  -16.6922 C   0  0  0  0  0  0  0  0  0  0  0  0
   -6.3471  -32.7463  -14.8770 O   0  0  0  0  0  0  0  0  0  0  0  0
   -5.1894  -34.2950  -13.3930 O   0  0  0  0  0  0  0  0  0  0  0  0
   -4.0673  -36.5643  -14.4416 O   0  0  0  0  0  0  0  0  0  0  0  0
   -4.5227  -36.9403  -17.1897 O   0  0  0  0  0  0  0  0  0  0  0  0
   -6.3118  -34.2768  -16.6174 O   0  0  0  0  0  0  0  0  0  0  0  0
   -8.6083  -36.0181  -17.9274 O   0  0  0  0  0  0  0  0  0  0  0  0
   -7.4416  -31.5652  -16.6652 C   0  0  0  0  0  0  0  0  0  0  0  0
   -7.1670  -31.7129  -15.1556 C   0  0  1  0  0  0  0  0  0  0  0  0
   -8.4377  -31.5828  -14.4105 C   0  0  2  0  0  0  0  0  0  0  0  0
   -8.0459  -30.6860  -13.2470 C   0  0  1  0  0  0  0  0  0  0  0  0
   -7.0829  -29.7826  -13.9898 C   0  0  1  0  0  0  0  0  0  0  0  0
   -6.2146  -29.0126  -13.0266 C   0  0  0  0  0  0  0  0  0  0  0  0
   -6.2049  -31.2443  -17.2428 O   0  0  0  0  0  0  0  0  0  0  0  0
   -6.4030  -30.5462  -14.8777 O   0  0  0  0  0  0  0  0  0  0  0  0
   -9.0345  -32.7096  -13.9434 O   0  0  0  0  0  0  0  0  0  0  0  0
   -9.1434  -29.9762  -12.7640 O   0  0  0  0  0  0  0  0  0  0  0  0
   -5.2425  -29.7796  -12.4395 O   0  0  0  0  0  0  0  0  0  0  0  0
  1  2  1  0
  1  7  1  1
  1 11  1  0
  2  3  1  0
  2  8  1  1
  3  4  1  0
  3  9  1  1
  5  4  1  0
  4 10  1  6
  5  6  1  0
  5 11  1  1
  6 12  1  6
 14  7  1  6
 14 13  1  0
 13 19  1  6
 14 15  1  0
 20 14  1  0
 16 15  1  0
 15 21  1  1
 17 16  1  0
 16 22  1  6
 18 17  1  0
 17 20  1  6
 18 23  1  6
M  END
$$$$
