
     RDKit          3D

 23 24  0  0  0  0  0  0  0  0999 V2000
   -6.8386  -33.4738  -15.8805 C   0  0  1  0  0  0  0  0  0  0  0  0
   -7.5483  -34.7423  -15.4621 C   0  0  1  0  0  0  0  0  0  0  0  0
   -6.5874  -35.9125  -15.4618 C   0  0  2  0  0  0  0  0  0  0  0  0
   -6.1200  -36.1329  -16.9001 C   0  0  1  0  0  0  0  0  0  0  0  0
   -5.7451  -34.7628  -17.4161 C   0  0  1  0  0  0  0  0  0  0  0  0
   -6.6467  -34.3497  -18.5600 C   0  0  0  0  0  0  0  0  0  0  0  0
   -6.8337  -32.6216  -14.8292 O   0  0  0  0  0  0  0  0  0  0  0  0
   -8.0394  -34.6250  -14.1407 O   0  0  0  0  0  0  0  0  0  0  0  0
   -7.1891  -37.0707  -15.0371 O   0  0  0  0  0  0  0  0  0  0  0  0
   -5.0321  -36.9792  -16.8370 O   0  0  0  0  0  0  0  0  0  0  0  0
   -5.6390  -33.8035  -16.4254 O   0  0  0  0  0  0  0  0  0  0  0  0
   -5.8133  -33.8981  -19.6138 O   0  0  0  0  0  0  0  0  0  0  0  0
   -5.0465  -31.0232  -15.0326 C   0  0  0  0  0  0  0  0  0  0  0  0
   -6.5601  -31.3098  -14.9778 C   0  0  1  0  0  0  0  0  0  0  0  0
   -7.2426  -30.5500  -16.0472 C   0  0  2  0  0  0  0  0  0  0  0  0
   -8.4649  -29.9994  -15.3300 C   0  0  1  0  0  0  0  0  0  0  0  0
   -7.8158  -29.7157  -13.9908 C   0  0  1  0  0  0  0  0  0  0  0  0
   -8.8575  -29.5176  -12.9182 C   0  0  0  0  0  0  0  0  0  0  0  0
   -4.7123  -30.5228  -13.7662 O   0  0  0  0  0  0  0  0  0  0  0  0
   -6.9308  -30.7101  -13.7428 O   0  0  0  0  0  0  0  0  0  0  0  0
   -7.6258  -31.2111  -17.1697 O   0  0  0  0  0  0  0  0  0  0  0  0
   -8.9217  -28.8300  -15.9346 O   0  0  0  0  0  0  0  0  0  0  0  0
   -8.8877  -30.5315  -11.9968 O   0  0  0  0  0  0  0  0  0  0  0  0
  1  2  1  0
  1  7  1  1
  1 11  1  0
  2  3  1  0
  2  8  1  1
  3  4  1  0
  3  9  1  6
  5  4  1  0
  4 10  1  1
  5  6  1  0
  5 11  1  1
  6 12  1  6
 14  7  1  1
 14 13  1  0
 13 19  1  6
 14 15  1  0
 20 14  1  0
 16 15  1  0
 15 21  1  6
 17 16  1  0
 16 22  1  6
 18 17  1  0
 17 20  1  1
 18 23  1  6
M  END
$$$$
