
     RDKit          3D

 23 24  0  0  0  0  0  0  0  0999 V2000
   -6.7287  -32.5432  -14.8009 C   0  0  1  0  0  0  0  0  0  0  0  0
   -6.7672  -31.7061  -13.5417 C   0  0  1  0  0  0  0  0  0  0  0  0
   -7.9136  -30.7184  -13.5961 C   0  0  2  0  0  0  0  0  0  0  0  0
   -7.6430  -29.7524  -14.7491 C   0  0  1  0  0  0  0  0  0  0  0  0
   -7.2535  -30.6236  -15.9210 C   0  0  1  0  0  0  0  0  0  0  0  0
   -5.8247  -30.3554  -16.3437 C   0  0  0  0  0  0  0  0  0  0  0  0
   -6.9868  -33.8288  -14.4661 O   0  0  0  0  0  0  0  0  0  0  0  0
   -6.9930  -32.5222  -12.4085 O   0  0  0  0  0  0  0  0  0  0  0  0
   -8.0074  -29.9770  -12.4447 O   0  0  0  0  0  0  0  0  0  0  0  0
   -8.8204  -29.0705  -14.9781 O   0  0  0  0  0  0  0  0  0  0  0  0
   -7.5290  -31.9659  -15.7341 O   0  0  0  0  0  0  0  0  0  0  0  0
   -5.7716  -30.4738  -17.7551 O   0  0  0  0  0  0  0  0  0  0  0  0
   -4.8057  -34.7913  -14.1394 C   0  0  0  0  0  0  0  0  0  0  0  0
   -6.1765  -34.8386  -14.8425 C   0  0  1  0  0  0  0  0  0  0  0  0
   -6.6944  -36.2234  -14.8159 C   0  0  2  0  0  0  0  0  0  0  0  0
   -7.2265  -36.4023  -16.2289 C   0  0  1  0  0  0  0  0  0  0  0  0
   -6.1560  -35.6182  -16.9601 C   0  0  1  0  0  0  0  0  0  0  0  0
   -6.6022  -35.2721  -18.3586 C   0  0  0  0  0  0  0  0  0  0  0  0
   -4.0412  -35.8033  -14.7370 O   0  0  0  0  0  0  0  0  0  0  0  0
   -5.8279  -34.5529  -16.1913 O   0  0  0  0  0  0  0  0  0  0  0  0
   -7.6615  -36.5376  -13.9160 O   0  0  0  0  0  0  0  0  0  0  0  0
   -7.2234  -37.7442  -16.6042 O   0  0  0  0  0  0  0  0  0  0  0  0
   -6.8232  -33.9321  -18.5420 O   0  0  0  0  0  0  0  0  0  0  0  0
  1  2  1  0
  1  7  1  1
  1 11  1  0
  2  3  1  0
  2  8  1  1
  3  4  1  0
  3  9  1  1
  5  4  1  0
  4 10  1  6
  5  6  1  0
  5 11  1  1
  6 12  1  6
 14  7  1  1
 14 13  1  0
 13 19  1  6
 14 15  1  0
 20 14  1  0
 16 15  1  0
 15 21  1  1
 17 16  1  0
 16 22  1  6
 18 17  1  0
 17 20  1  1
 18 23  1  6
M  END
$$$$
