
     RDKit          3D

 23 24  0  0  0  0  0  0  0  0999 V2000
   -7.1671  -33.8862  -15.9468 C   0  0  1  0  0  0  0  0  0  0  0  0
   -8.0945  -34.8578  -16.6424 C   0  0  1  0  0  0  0  0  0  0  0  0
   -7.8562  -36.2677  -16.1445 C   0  0  2  0  0  0  0  0  0  0  0  0
   -6.4352  -36.6684  -16.5394 C   0  0  1  0  0  0  0  0  0  0  0  0
   -5.5628  -35.4995  -16.1438 C   0  0  1  0  0  0  0  0  0  0  0  0
   -4.9246  -34.8640  -17.3607 C   0  0  0  0  0  0  0  0  0  0  0  0
   -7.9161  -33.0444  -15.1972 O   0  0  0  0  0  0  0  0  0  0  0  0
   -9.4446  -34.5515  -16.3520 O   0  0  0  0  0  0  0  0  0  0  0  0
   -8.7181  -37.1678  -16.7199 O   0  0  0  0  0  0  0  0  0  0  0  0
   -6.1322  -37.8081  -15.8231 O   0  0  0  0  0  0  0  0  0  0  0  0
   -6.1922  -34.5893  -15.3143 O   0  0  0  0  0  0  0  0  0  0  0  0
   -3.7512  -35.6018  -17.6571 O   0  0  0  0  0  0  0  0  0  0  0  0
   -7.7845  -30.8616  -16.2015 C   0  0  0  0  0  0  0  0  0  0  0  0
   -7.5455  -31.7669  -14.9770 C   0  0  1  0  0  0  0  0  0  0  0  0
   -8.0237  -31.0801  -13.7579 C   0  0  2  0  0  0  0  0  0  0  0  0
   -6.9051  -31.3553  -12.7657 C   0  0  1  0  0  0  0  0  0  0  0  0
   -5.7385  -31.2534  -13.7268 C   0  0  1  0  0  0  0  0  0  0  0  0
   -4.4940  -31.8617  -13.1302 C   0  0  0  0  0  0  0  0  0  0  0  0
   -6.7231  -29.9456  -16.2050 O   0  0  0  0  0  0  0  0  0  0  0  0
   -6.1257  -31.7985  -14.9043 O   0  0  0  0  0  0  0  0  0  0  0  0
   -9.2149  -31.4566  -13.2257 O   0  0  0  0  0  0  0  0  0  0  0  0
   -6.8462  -30.3685  -11.7837 O   0  0  0  0  0  0  0  0  0  0  0  0
   -4.2549  -33.1406  -13.5603 O   0  0  0  0  0  0  0  0  0  0  0  0
  1  2  1  0
  1  7  1  1
  1 11  1  0
  2  3  1  0
  2  8  1  1
  3  4  1  0
  3  9  1  6
  5  4  1  0
  4 10  1  1
  5  6  1  0
  5 11  1  6
  6 12  1  6
 14  7  1  6
 14 13  1  0
 13 19  1  6
 14 15  1  0
 20 14  1  0
 16 15  1  0
 15 21  1  1
 17 16  1  0
 16 22  1  1
 18 17  1  0
 17 20  1  6
 18 23  1  6
M  END
$$$$
