
     RDKit          3D

 23 24  0  0  0  0  0  0  0  0999 V2000
   -6.0548  -34.2246  -15.2308 C   0  0  1  0  0  0  0  0  0  0  0  0
   -5.5512  -35.4726  -14.5404 C   0  0  1  0  0  0  0  0  0  0  0  0
   -4.2159  -35.8951  -15.1158 C   0  0  2  0  0  0  0  0  0  0  0  0
   -4.4367  -36.2708  -16.5807 C   0  0  1  0  0  0  0  0  0  0  0  0
   -5.2638  -35.1484  -17.1638 C   0  0  1  0  0  0  0  0  0  0  0  0
   -6.6230  -35.6495  -17.6037 C   0  0  0  0  0  0  0  0  0  0  0  0
   -6.0894  -33.2204  -14.3242 O   0  0  0  0  0  0  0  0  0  0  0  0
   -5.3364  -35.2273  -13.1638 O   0  0  0  0  0  0  0  0  0  0  0  0
   -3.7066  -36.9971  -14.4752 O   0  0  0  0  0  0  0  0  0  0  0  0
   -3.1875  -36.3506  -17.1610 O   0  0  0  0  0  0  0  0  0  0  0  0
   -5.3258  -34.0251  -16.3594 O   0  0  0  0  0  0  0  0  0  0  0  0
   -6.4297  -36.9112  -18.2200 O   0  0  0  0  0  0  0  0  0  0  0  0
   -8.0947  -32.7620  -13.0755 C   0  0  0  0  0  0  0  0  0  0  0  0
   -7.1430  -32.3847  -14.2279 C   0  0  1  0  0  0  0  0  0  0  0  0
   -6.9033  -30.9256  -14.2088 C   0  0  2  0  0  0  0  0  0  0  0  0
   -7.0115  -30.5557  -15.6795 C   0  0  1  0  0  0  0  0  0  0  0  0
   -8.1313  -31.5044  -16.0556 C   0  0  1  0  0  0  0  0  0  0  0  0
   -8.2210  -31.6658  -17.5524 C   0  0  0  0  0  0  0  0  0  0  0  0
   -7.6580  -32.0202  -11.9688 O   0  0  0  0  0  0  0  0  0  0  0  0
   -7.9408  -32.6581  -15.3729 O   0  0  0  0  0  0  0  0  0  0  0  0
   -5.7293  -30.4672  -13.7034 O   0  0  0  0  0  0  0  0  0  0  0  0
   -7.3933  -29.2252  -15.8395 O   0  0  0  0  0  0  0  0  0  0  0  0
   -8.4765  -32.9535  -17.9453 O   0  0  0  0  0  0  0  0  0  0  0  0
  1  2  1  0
  1  7  1  1
  1 11  1  0
  2  3  1  0
  2  8  1  1
  3  4  1  0
  3  9  1  1
  5  4  1  0
  4 10  1  6
  5  6  1  0
  5 11  1  1
  6 12  1  6
 14  7  1  6
 14 13  1  0
 13 19  1  6
 14 15  1  0
 20 14  1  0
 16 15  1  0
 15 21  1  6
 17 16  1  0
 16 22  1  1
 18 17  1  0
 17 20  1  1
 18 23  1  6
M  END
$$$$
