
     RDKit          3D

 23 24  0  0  0  0  0  0  0  0999 V2000
   -6.8152  -33.3893  -15.9230 C   0  0  1  0  0  0  0  0  0  0  0  0
   -5.8259  -33.8816  -16.9559 C   0  0  1  0  0  0  0  0  0  0  0  0
   -6.4671  -34.9200  -17.8521 C   0  0  2  0  0  0  0  0  0  0  0  0
   -6.8244  -36.1274  -16.9860 C   0  0  1  0  0  0  0  0  0  0  0  0
   -7.5118  -35.5585  -15.7662 C   0  0  1  0  0  0  0  0  0  0  0  0
   -6.7084  -35.8358  -14.5134 C   0  0  0  0  0  0  0  0  0  0  0  0
   -7.0606  -32.0794  -16.1581 O   0  0  0  0  0  0  0  0  0  0  0  0
   -5.4168  -32.8210  -17.7980 O   0  0  0  0  0  0  0  0  0  0  0  0
   -5.6098  -35.3505  -18.8338 O   0  0  0  0  0  0  0  0  0  0  0  0
   -7.6705  -36.9167  -17.7377 O   0  0  0  0  0  0  0  0  0  0  0  0
   -7.8800  -34.2323  -15.9012 O   0  0  0  0  0  0  0  0  0  0  0  0
   -5.3406  -35.8598  -14.8844 O   0  0  0  0  0  0  0  0  0  0  0  0
   -8.4188  -30.1386  -15.7351 C   0  0  0  0  0  0  0  0  0  0  0  0
   -7.5049  -31.2536  -15.1895 C   0  0  1  0  0  0  0  0  0  0  0  0
   -8.1121  -31.8345  -13.9727 C   0  0  2  0  0  0  0  0  0  0  0  0
   -6.9209  -31.9523  -13.0353 C   0  0  1  0  0  0  0  0  0  0  0  0
   -6.2089  -30.6760  -13.4347 C   0  0  1  0  0  0  0  0  0  0  0  0
   -4.7775  -30.6862  -12.9600 C   0  0  0  0  0  0  0  0  0  0  0  0
   -7.6079  -28.9985  -15.8263 O   0  0  0  0  0  0  0  0  0  0  0  0
   -6.3603  -30.5205  -14.7713 O   0  0  0  0  0  0  0  0  0  0  0  0
   -8.7419  -33.0335  -14.0706 O   0  0  0  0  0  0  0  0  0  0  0  0
   -7.3219  -31.9180  -11.7013 O   0  0  0  0  0  0  0  0  0  0  0  0
   -4.0269  -29.6624  -13.4761 O   0  0  0  0  0  0  0  0  0  0  0  0
  1  2  1  0
  1  7  1  6
  1 11  1  0
  2  3  1  0
  2  8  1  6
  3  4  1  0
  3  9  1  6
  5  4  1  0
  4 10  1  6
  5  6  1  0
  5 11  1  6
  6 12  1  6
 14  7  1  6
 14 13  1  0
 13 19  1  6
 14 15  1  0
 20 14  1  0
 16 15  1  0
 15 21  1  6
 17 16  1  0
 16 22  1  1
 18 17  1  0
 17 20  1  6
 18 23  1  6
M  END
$$$$
