
     RDKit          3D

 23 24  0  0  0  0  0  0  0  0999 V2000
   -6.9152  -33.5733  -15.8409 C   0  0  1  0  0  0  0  0  0  0  0  0
   -7.9919  -34.6325  -15.7602 C   0  0  1  0  0  0  0  0  0  0  0  0
   -7.3836  -35.9855  -15.4569 C   0  0  2  0  0  0  0  0  0  0  0  0
   -6.4875  -36.3688  -16.6341 C   0  0  1  0  0  0  0  0  0  0  0  0
   -5.6556  -35.1407  -16.9234 C   0  0  1  0  0  0  0  0  0  0  0  0
   -5.9636  -34.5899  -18.2995 C   0  0  0  0  0  0  0  0  0  0  0  0
   -7.1026  -32.6968  -14.8269 O   0  0  0  0  0  0  0  0  0  0  0  0
   -8.8900  -34.3496  -14.7045 O   0  0  0  0  0  0  0  0  0  0  0  0
   -8.3405  -36.9609  -15.3267 O   0  0  0  0  0  0  0  0  0  0  0  0
   -5.7150  -37.4317  -16.2132 O   0  0  0  0  0  0  0  0  0  0  0  0
   -5.7055  -34.1853  -15.9248 O   0  0  0  0  0  0  0  0  0  0  0  0
   -4.7943  -33.9388  -18.7662 O   0  0  0  0  0  0  0  0  0  0  0  0
   -5.1961  -31.2756  -15.1949 C   0  0  0  0  0  0  0  0  0  0  0  0
   -6.7058  -31.4114  -14.9149 C   0  0  1  0  0  0  0  0  0  0  0  0
   -7.4532  -30.4872  -15.7947 C   0  0  2  0  0  0  0  0  0  0  0  0
   -8.4781  -29.8870  -14.8455 C   0  0  1  0  0  0  0  0  0  0  0  0
   -7.6014  -29.8004  -13.6130 C   0  0  1  0  0  0  0  0  0  0  0  0
   -8.4347  -29.6018  -12.3717 C   0  0  0  0  0  0  0  0  0  0  0  0
   -4.5562  -31.7067  -14.0242 O   0  0  0  0  0  0  0  0  0  0  0  0
   -6.8094  -30.8985  -13.5926 O   0  0  0  0  0  0  0  0  0  0  0  0
   -8.0791  -30.9952  -16.8875 O   0  0  0  0  0  0  0  0  0  0  0  0
   -8.8850  -28.6248  -15.2732 O   0  0  0  0  0  0  0  0  0  0  0  0
   -8.0970  -30.4498  -11.3496 O   0  0  0  0  0  0  0  0  0  0  0  0
  1  2  1  0
  1  7  1  1
  1 11  1  0
  2  3  1  0
  2  8  1  1
  3  4  1  0
  3  9  1  6
  5  4  1  0
  4 10  1  1
  5  6  1  0
  5 11  1  1
  6 12  1  6
 14  7  1  1
 14 13  1  0
 13 19  1  6
 14 15  1  0
 20 14  1  0
 16 15  1  0
 15 21  1  6
 17 16  1  0
 16 22  1  6
 18 17  1  0
 17 20  1  1
 18 23  1  6
M  END
$$$$
