
     RDKit          3D

 23 24  0  0  0  0  0  0  0  0999 V2000
   -6.7853  -33.3550  -15.5416 C   0  0  1  0  0  0  0  0  0  0  0  0
   -7.9471  -32.6542  -14.8730 C   0  0  1  0  0  0  0  0  0  0  0  0
   -7.4480  -31.6772  -13.8295 C   0  0  2  0  0  0  0  0  0  0  0  0
   -6.7417  -32.4805  -12.7379 C   0  0  1  0  0  0  0  0  0  0  0  0
   -5.8292  -33.4379  -13.4693 C   0  0  1  0  0  0  0  0  0  0  0  0
   -6.2406  -34.8737  -13.2219 C   0  0  0  0  0  0  0  0  0  0  0  0
   -6.7608  -32.9911  -16.8449 O   0  0  0  0  0  0  0  0  0  0  0  0
   -8.6800  -31.8960  -15.8159 O   0  0  0  0  0  0  0  0  0  0  0  0
   -8.4770  -30.9868  -13.2390 O   0  0  0  0  0  0  0  0  0  0  0  0
   -6.0369  -31.5738  -11.9731 O   0  0  0  0  0  0  0  0  0  0  0  0
   -5.6628  -33.1365  -14.8088 O   0  0  0  0  0  0  0  0  0  0  0  0
   -5.0662  -35.6655  -13.2750 O   0  0  0  0  0  0  0  0  0  0  0  0
   -4.5344  -32.6231  -17.6804 C   0  0  0  0  0  0  0  0  0  0  0  0
   -5.8281  -33.4610  -17.6975 C   0  0  1  0  0  0  0  0  0  0  0  0
   -5.4825  -34.8984  -17.6635 C   0  0  2  0  0  0  0  0  0  0  0  0
   -6.4256  -35.4876  -18.7003 C   0  0  1  0  0  0  0  0  0  0  0  0
   -6.3856  -34.3470  -19.6966 C   0  0  1  0  0  0  0  0  0  0  0  0
   -7.5286  -34.4463  -20.6756 C   0  0  0  0  0  0  0  0  0  0  0  0
   -3.8751  -32.9246  -18.8804 O   0  0  0  0  0  0  0  0  0  0  0  0
   -6.3403  -33.1891  -18.9960 O   0  0  0  0  0  0  0  0  0  0  0  0
   -5.6108  -35.5692  -16.4898 O   0  0  0  0  0  0  0  0  0  0  0  0
   -5.9082  -36.6609  -19.2455 O   0  0  0  0  0  0  0  0  0  0  0  0
   -8.7608  -34.3610  -20.0822 O   0  0  0  0  0  0  0  0  0  0  0  0
  1  2  1  0
  1  7  1  6
  1 11  1  0
  2  3  1  0
  2  8  1  6
  3  4  1  0
  3  9  1  1
  5  4  1  0
  4 10  1  1
  5  6  1  0
  5 11  1  6
  6 12  1  6
 14  7  1  1
 14 13  1  0
 13 19  1  6
 14 15  1  0
 20 14  1  0
 16 15  1  0
 15 21  1  1
 17 16  1  0
 16 22  1  6
 18 17  1  0
 17 20  1  1
 18 23  1  6
M  END
$$$$
