
     RDKit          3D

 33 35  0  0  0  0  0  0  0  0999 V2000
   99.2590  -15.5128   -3.8719 C   0  0  2  0  0  0  0  0  0  0  0  0
   98.8746  -14.8751   -2.5422 C   0  0  1  0  0  0  0  0  0  0  0  0
   97.6386  -14.0403   -2.7419 C   0  0  2  0  0  0  0  0  0  0  0  0
   96.5643  -14.9389   -3.2988 C   0  0  1  0  0  0  0  0  0  0  0  0
   97.0532  -15.5664   -4.5725 C   0  0  1  0  0  0  0  0  0  0  0  0
   97.1313  -14.5966   -5.7203 C   0  0  0  0  0  0  0  0  0  0  0  0
  103.5232  -17.1046   -6.2520 C   0  0  1  0  0  0  0  0  0  0  0  0
  103.5372  -17.4147   -4.7724 C   0  0  1  0  0  0  0  0  0  0  0  0
  102.6656  -16.4819   -3.9829 C   0  0  2  0  0  0  0  0  0  0  0  0
  101.4077  -16.0548   -4.6064 C   0  0  1  0  0  0  0  0  0  0  0  0
  101.0913  -16.5125   -5.9746 C   0  0  2  0  0  0  0  0  0  0  0  0
  102.1056  -17.3000   -6.7031 C   0  0  0  0  0  0  0  0  0  0  0  0
  103.9746  -19.4113   -3.6629 C   0  0  1  0  0  0  0  0  0  0  0  0
  103.8955  -20.8666   -3.9091 C   0  0  1  0  0  0  0  0  0  0  0  0
  104.0626  -21.7476   -2.7277 C   0  0  2  0  0  0  0  0  0  0  0  0
  103.7701  -21.1040   -1.4071 C   0  0  1  0  0  0  0  0  0  0  0  0
  104.0662  -19.6281   -1.3742 C   0  0  1  0  0  0  0  0  0  0  0  0
  105.5028  -19.3399   -1.0556 C   0  0  0  0  0  0  0  0  0  0  0  0
   96.7872  -15.2070   -6.9705 N   0  0  0  0  0  4  0  0  0  0  0  0
  100.6829  -15.4001   -6.8524 N   0  0  0  0  0  4  0  0  0  0  0  0
  104.0853  -15.8390   -6.5838 N   0  0  0  0  0  4  0  0  0  0  0  0
  105.3696  -22.3783   -2.6836 N   0  0  0  0  0  4  0  0  0  0  0  0
   98.2237  -16.2476   -4.4001 O   0  0  0  0  0  0  0  0  0  0  0  0
   97.9178  -12.9530   -3.5465 O   0  0  0  0  0  0  0  0  0  0  0  0
   96.3917  -15.9809   -2.3698 O   0  0  0  0  0  0  0  0  0  0  0  0
  100.3507  -16.3466   -3.7245 O   0  0  0  0  0  0  0  0  0  0  0  0
  103.4910  -15.3873   -3.6180 O   0  0  0  0  0  0  0  0  0  0  0  0
  103.1780  -18.7429   -4.6262 O   0  0  0  0  0  0  0  0  0  0  0  0
  103.5500  -18.9574   -2.4480 O   0  0  0  0  0  0  0  0  0  0  0  0
  102.6891  -21.1358   -4.5973 O   0  0  0  0  0  0  0  0  0  0  0  0
  102.4387  -21.2961   -1.0207 O   0  0  0  0  0  0  0  0  0  0  0  0
  105.7266  -18.2428   -0.2688 O   0  0  0  0  0  0  0  0  0  0  0  0
   98.7441  -15.8474   -1.4963 N   0  0  0  0  0  4  0  0  0  0  0  0
  1  2  1  0
  1 23  1  0
  1 26  1  1
  2  3  1  0
  2 33  1  1
  3  4  1  0
  3 24  1  6
  5  4  1  0
  4 25  1  1
  5  6  1  6
 23  5  1  0
  6 19  1  0
  8  7  1  0
  7 12  1  0
  7 21  1  1
  8  9  1  0
  8 28  1  6
  9 10  1  0
  9 27  1  6
 10 11  1  0
 10 26  1  1
 12 11  1  0
 11 20  1  6
 13 14  1  0
 13 28  1  6
 13 29  1  0
 14 15  1  0
 14 30  1  1
 15 16  1  0
 15 22  1  1
 16 17  1  0
 16 31  1  6
 17 18  1  6
 17 29  1  0
 18 32  1  0
M  CHG  5  19   1  20   1  21   1  22   1  33   1
M  END
$$$$
