
     RDKit          3D

 33 35  0  0  0  0  0  0  0  0999 V2000
  107.0299  -16.1980   -7.6119 C   0  0  2  0  0  0  0  0  0  0  0  0
  106.9921  -17.7099   -7.8001 C   0  0  1  0  0  0  0  0  0  0  0  0
  105.5972  -18.2005   -7.5205 C   0  0  2  0  0  0  0  0  0  0  0  0
  104.6598  -17.4663   -8.4447 C   0  0  1  0  0  0  0  0  0  0  0  0
  104.8091  -15.9875   -8.2303 C   0  0  1  0  0  0  0  0  0  0  0  0
  104.2290  -15.5152   -6.9247 C   0  0  0  0  0  0  0  0  0  0  0  0
  109.9117  -11.9455   -8.4974 C   0  0  1  0  0  0  0  0  0  0  0  0
  110.2758  -12.8524   -7.3439 C   0  0  1  0  0  0  0  0  0  0  0  0
  109.1465  -13.7588   -6.9486 C   0  0  2  0  0  0  0  0  0  0  0  0
  108.3052  -14.2875   -8.0285 C   0  0  1  0  0  0  0  0  0  0  0  0
  108.5726  -13.8687   -9.4194 C   0  0  2  0  0  0  0  0  0  0  0  0
  109.6139  -12.8495   -9.6574 C   0  0  0  0  0  0  0  0  0  0  0  0
  112.4379  -13.4448   -6.7251 C   0  0  1  0  0  0  0  0  0  0  0  0
  113.7211  -13.1565   -7.3997 C   0  0  1  0  0  0  0  0  0  0  0  0
  114.9475  -13.6514   -6.7282 C   0  0  2  0  0  0  0  0  0  0  0  0
  114.7376  -14.7901   -5.7779 C   0  0  1  0  0  0  0  0  0  0  0  0
  113.3879  -14.7809   -5.1108 C   0  0  1  0  0  0  0  0  0  0  0  0
  113.3613  -13.9168   -3.8855 C   0  0  0  0  0  0  0  0  0  0  0  0
  102.8947  -15.9960   -6.7184 N   0  0  0  0  0  4  0  0  0  0  0  0
  107.3494  -13.4186  -10.1093 N   0  0  0  0  0  4  0  0  0  0  0  0
  108.8848  -11.0068   -8.1943 N   0  0  0  0  0  4  0  0  0  0  0  0
  115.6849  -12.5917   -6.0638 N   0  0  0  0  0  4  0  0  0  0  0  0
  106.0964  -15.5654   -8.3987 O   0  0  0  0  0  0  0  0  0  0  0  0
  105.2900  -18.0393   -6.1837 O   0  0  0  0  0  0  0  0  0  0  0  0
  105.0956  -17.7355   -9.7546 O   0  0  0  0  0  0  0  0  0  0  0  0
  108.2761  -15.6906   -7.9255 O   0  0  0  0  0  0  0  0  0  0  0  0
  108.3983  -13.0515   -5.9726 O   0  0  0  0  0  0  0  0  0  0  0  0
  111.4196  -13.5414   -7.7064 O   0  0  0  0  0  0  0  0  0  0  0  0
  112.3596  -14.5932   -5.9920 O   0  0  0  0  0  0  0  0  0  0  0  0
  113.6336  -13.6147   -8.7353 O   0  0  0  0  0  0  0  0  0  0  0  0
  114.9112  -16.0284   -6.4067 O   0  0  0  0  0  0  0  0  0  0  0  0
  112.3560  -14.1816   -2.9954 O   0  0  0  0  0  0  0  0  0  0  0  0
  107.4895  -18.1052   -9.0857 N   0  0  0  0  0  4  0  0  0  0  0  0
  1  2  1  0
  1 23  1  0
  1 26  1  6
  2  3  1  0
  2 33  1  6
  3  4  1  0
  3 24  1  1
  5  4  1  0
  4 25  1  6
  5  6  1  1
 23  5  1  0
  6 19  1  0
  8  7  1  0
  7 12  1  0
  7 21  1  1
  8  9  1  0
  8 28  1  6
  9 10  1  0
  9 27  1  1
 10 11  1  0
 10 26  1  6
 12 11  1  0
 11 20  1  1
 13 14  1  0
 13 28  1  6
 13 29  1  0
 14 15  1  0
 14 30  1  6
 15 16  1  0
 15 22  1  1
 16 17  1  0
 16 31  1  6
 17 18  1  1
 17 29  1  0
 18 32  1  0
M  CHG  5  19   1  20   1  21   1  22   1  33   1
M  END
$$$$
