
     RDKit          3D

 33 35  0  0  0  0  0  0  0  0999 V2000
  106.6204  -14.9670  -10.2237 C   0  0  2  0  0  0  0  0  0  0  0  0
  106.2238  -15.9220  -11.3433 C   0  0  1  0  0  0  0  0  0  0  0  0
  104.7954  -15.6508  -11.7313 C   0  0  2  0  0  0  0  0  0  0  0  0
  104.6965  -14.2003  -12.1291 C   0  0  1  0  0  0  0  0  0  0  0  0
  105.1618  -13.3404  -10.9893 C   0  0  1  0  0  0  0  0  0  0  0  0
  104.1951  -13.3082   -9.8367 C   0  0  0  0  0  0  0  0  0  0  0  0
  110.4373  -13.2252   -7.1961 C   0  0  1  0  0  0  0  0  0  0  0  0
  109.4681  -14.3193   -6.8098 C   0  0  1  0  0  0  0  0  0  0  0  0
  108.2608  -14.3567   -7.7009 C   0  0  2  0  0  0  0  0  0  0  0  0
  108.4717  -14.0655   -9.1237 C   0  0  1  0  0  0  0  0  0  0  0  0
  109.8257  -13.7054   -9.5913 C   0  0  2  0  0  0  0  0  0  0  0  0
  110.8967  -13.5505   -8.5870 C   0  0  0  0  0  0  0  0  0  0  0  0
  110.4362  -15.9714   -5.4899 C   0  0  1  0  0  0  0  0  0  0  0  0
  111.7833  -16.5792   -5.4621 C   0  0  1  0  0  0  0  0  0  0  0  0
  112.0015  -17.6594   -4.4694 C   0  0  2  0  0  0  0  0  0  0  0  0
  110.7595  -18.3526   -3.9996 C   0  0  1  0  0  0  0  0  0  0  0  0
  109.5397  -17.4700   -3.9919 C   0  0  1  0  0  0  0  0  0  0  0  0
  109.4208  -16.6696   -2.7295 C   0  0  0  0  0  0  0  0  0  0  0  0
  103.6866  -11.9908   -9.5919 N   0  0  0  0  0  4  0  0  0  0  0  0
  109.8211  -12.4872  -10.4223 N   0  0  0  0  0  4  0  0  0  0  0  0
  109.9201  -11.9088   -7.0317 N   0  0  0  0  0  4  0  0  0  0  0  0
  112.7748  -17.2151   -3.3237 N   0  0  0  0  0  4  0  0  0  0  0  0
  106.4274  -13.6543  -10.5846 O   0  0  0  0  0  0  0  0  0  0  0  0
  103.9434  -15.9979  -10.7012 O   0  0  0  0  0  0  0  0  0  0  0  0
  105.6084  -14.0105  -13.1831 O   0  0  0  0  0  0  0  0  0  0  0  0
  107.9484  -15.1307   -9.8797 O   0  0  0  0  0  0  0  0  0  0  0  0
  107.3056  -13.4938   -7.1047 O   0  0  0  0  0  0  0  0  0  0  0  0
  110.1721  -15.5105   -6.8040 O   0  0  0  0  0  0  0  0  0  0  0  0
  109.3815  -16.7702   -5.1558 O   0  0  0  0  0  0  0  0  0  0  0  0
  112.1086  -16.9987   -6.7734 O   0  0  0  0  0  0  0  0  0  0  0  0
  110.4781  -19.4884   -4.7675 O   0  0  0  0  0  0  0  0  0  0  0  0
  108.1465  -16.3391   -2.3553 O   0  0  0  0  0  0  0  0  0  0  0  0
  107.1363  -15.8652  -12.4480 N   0  0  0  0  0  4  0  0  0  0  0  0
  1  2  1  0
  1 23  1  0
  1 26  1  6
  2  3  1  0
  2 33  1  6
  3  4  1  0
  3 24  1  1
  5  4  1  0
  4 25  1  6
  5  6  1  1
 23  5  1  0
  6 19  1  0
  8  7  1  0
  7 12  1  0
  7 21  1  6
  8  9  1  0
  8 28  1  6
  9 10  1  0
  9 27  1  1
 10 11  1  0
 10 26  1  6
 12 11  1  0
 11 20  1  1
 13 14  1  0
 13 28  1  6
 13 29  1  0
 14 15  1  0
 14 30  1  6
 15 16  1  0
 15 22  1  1
 16 17  1  0
 16 31  1  6
 17 18  1  1
 17 29  1  0
 18 32  1  0
M  CHG  5  19   1  20   1  21   1  22   1  33   1
M  END
$$$$
