
     RDKit          3D

 33 35  0  0  0  0  0  0  0  0999 V2000
  111.5714  -15.8465   -6.7668 C   0  0  2  0  0  0  0  0  0  0  0  0
  110.5866  -16.8280   -6.1426 C   0  0  1  0  0  0  0  0  0  0  0  0
  111.0287  -17.1335   -4.7371 C   0  0  2  0  0  0  0  0  0  0  0  0
  111.1148  -15.8273   -3.9900 C   0  0  1  0  0  0  0  0  0  0  0  0
  112.0587  -14.9063   -4.7083 C   0  0  1  0  0  0  0  0  0  0  0  0
  113.5008  -15.3164   -4.5806 C   0  0  0  0  0  0  0  0  0  0  0  0
  109.5184  -12.1148   -9.7611 C   0  0  1  0  0  0  0  0  0  0  0  0
  110.7410  -12.8205  -10.3023 C   0  0  1  0  0  0  0  0  0  0  0  0
  111.5308  -13.5060   -9.2256 C   0  0  2  0  0  0  0  0  0  0  0  0
  110.7720  -14.1347   -8.1381 C   0  0  1  0  0  0  0  0  0  0  0  0
  109.2995  -14.0194   -8.1282 C   0  0  2  0  0  0  0  0  0  0  0  0
  108.6542  -13.1844   -9.1607 C   0  0  0  0  0  0  0  0  0  0  0  0
  111.2058  -13.7294  -12.3919 C   0  0  1  0  0  0  0  0  0  0  0  0
  110.4196  -13.7008  -13.6433 C   0  0  1  0  0  0  0  0  0  0  0  0
  111.0224  -14.3747  -14.8189 C   0  0  2  0  0  0  0  0  0  0  0  0
  112.0494  -15.4170  -14.4981 C   0  0  1  0  0  0  0  0  0  0  0  0
  112.8162  -15.1416  -13.2320 C   0  0  1  0  0  0  0  0  0  0  0  0
  113.9886  -14.2348  -13.4591 C   0  0  0  0  0  0  0  0  0  0  0  0
  114.3897  -14.1929   -4.6183 N   0  0  0  0  0  4  0  0  0  0  0  0
  108.7853  -13.5771   -6.8188 N   0  0  0  0  0  4  0  0  0  0  0  0
  109.8151  -11.0288   -8.8892 N   0  0  0  0  0  4  0  0  0  0  0  0
  111.5669  -13.4341  -15.7817 N   0  0  0  0  0  4  0  0  0  0  0  0
  111.6991  -14.7057   -6.0100 O   0  0  0  0  0  0  0  0  0  0  0  0
  112.2158  -17.8395   -4.7493 O   0  0  0  0  0  0  0  0  0  0  0  0
  109.8386  -15.2403   -4.0601 O   0  0  0  0  0  0  0  0  0  0  0  0
  111.1690  -15.4808   -8.0369 O   0  0  0  0  0  0  0  0  0  0  0  0
  112.4655  -12.5486   -8.7540 O   0  0  0  0  0  0  0  0  0  0  0  0
  110.3124  -13.6870  -11.2922 O   0  0  0  0  0  0  0  0  0  0  0  0
  112.0069  -14.8136  -12.1800 O   0  0  0  0  0  0  0  0  0  0  0  0
  109.1229  -14.1930  -13.3646 O   0  0  0  0  0  0  0  0  0  0  0  0
  111.4807  -16.6922  -14.4017 O   0  0  0  0  0  0  0  0  0  0  0  0
  115.0044  -14.3402  -12.5481 O   0  0  0  0  0  0  0  0  0  0  0  0
  109.2337  -16.3603   -6.2268 N   0  0  0  0  0  4  0  0  0  0  0  0
  1  2  1  0
  1 23  1  0
  1 26  1  6
  2  3  1  0
  2 33  1  1
  3  4  1  0
  3 24  1  6
  5  4  1  0
  4 25  1  6
  5  6  1  6
 23  5  1  0
  6 19  1  0
  8  7  1  0
  7 12  1  0
  7 21  1  1
  8  9  1  0
  8 28  1  6
  9 10  1  0
  9 27  1  1
 10 11  1  0
 10 26  1  6
 12 11  1  0
 11 20  1  1
 13 14  1  0
 13 28  1  1
 13 29  1  0
 14 15  1  0
 14 30  1  1
 15 16  1  0
 15 22  1  6
 16 17  1  0
 16 31  1  1
 17 18  1  6
 17 29  1  0
 18 32  1  0
M  CHG  5  19   1  20   1  21   1  22   1  33   1
M  END
$$$$
