
     RDKit          3D

 33 35  0  0  0  0  0  0  0  0999 V2000
  107.5332  -14.1063   -9.3808 C   0  0  2  0  0  0  0  0  0  0  0  0
  106.9588  -15.4691   -9.7489 C   0  0  1  0  0  0  0  0  0  0  0  0
  105.4744  -15.4543   -9.5028 C   0  0  2  0  0  0  0  0  0  0  0  0
  104.8871  -14.3271  -10.3130 C   0  0  1  0  0  0  0  0  0  0  0  0
  105.5528  -13.0381   -9.9252 C   0  0  1  0  0  0  0  0  0  0  0  0
  105.1491  -12.5483   -8.5609 C   0  0  0  0  0  0  0  0  0  0  0  0
  111.8939  -12.9030   -7.0734 C   0  0  1  0  0  0  0  0  0  0  0  0
  110.9035  -14.0046   -6.7714 C   0  0  1  0  0  0  0  0  0  0  0  0
  109.5795  -13.7853   -7.4436 C   0  0  2  0  0  0  0  0  0  0  0  0
  109.6024  -13.2014   -8.7897 C   0  0  1  0  0  0  0  0  0  0  0  0
  110.8983  -12.8168   -9.3850 C   0  0  2  0  0  0  0  0  0  0  0  0
  112.1146  -12.9393   -8.5571 C   0  0  0  0  0  0  0  0  0  0  0  0
  111.7038  -16.0517   -6.0113 C   0  0  1  0  0  0  0  0  0  0  0  0
  111.6937  -17.4551   -6.4750 C   0  0  1  0  0  0  0  0  0  0  0  0
  111.2348  -18.4717   -5.4973 C   0  0  2  0  0  0  0  0  0  0  0  0
  110.3688  -17.9477   -4.3932 C   0  0  1  0  0  0  0  0  0  0  0  0
  110.6724  -16.5237   -4.0096 C   0  0  1  0  0  0  0  0  0  0  0  0
  111.7882  -16.4253   -3.0127 C   0  0  0  0  0  0  0  0  0  0  0  0
  104.9196  -11.1338   -8.5384 N   0  0  0  0  0  4  0  0  0  0  0  0
  110.8740  -11.4478   -9.9327 N   0  0  0  0  0  4  0  0  0  0  0  0
  111.5191  -11.6298   -6.5575 N   0  0  0  0  0  4  0  0  0  0  0  0
  112.3319  -19.2382   -4.9343 N   0  0  0  0  0  4  0  0  0  0  0  0
  106.9097  -13.0909  -10.0670 O   0  0  0  0  0  0  0  0  0  0  0  0
  105.2124  -15.3542   -8.1504 O   0  0  0  0  0  0  0  0  0  0  0  0
  105.2294  -14.5766  -11.6542 O   0  0  0  0  0  0  0  0  0  0  0  0
  108.8859  -14.0479   -9.6558 O   0  0  0  0  0  0  0  0  0  0  0  0
  108.7983  -13.0263   -6.5346 O   0  0  0  0  0  0  0  0  0  0  0  0
  111.4979  -15.2023   -7.1273 O   0  0  0  0  0  0  0  0  0  0  0  0
  110.7653  -15.6898   -5.0891 O   0  0  0  0  0  0  0  0  0  0  0  0
  110.9584  -17.5191   -7.6819 O   0  0  0  0  0  0  0  0  0  0  0  0
  109.0093  -18.0387   -4.7134 O   0  0  0  0  0  0  0  0  0  0  0  0
  111.4341  -15.9753   -1.7697 O   0  0  0  0  0  0  0  0  0  0  0  0
  107.3127  -15.8603  -11.0824 N   0  0  0  0  0  4  0  0  0  0  0  0
  1  2  1  0
  1 23  1  0
  1 26  1  6
  2  3  1  0
  2 33  1  6
  3  4  1  0
  3 24  1  1
  5  4  1  0
  4 25  1  6
  5  6  1  1
 23  5  1  0
  6 19  1  0
  8  7  1  0
  7 12  1  0
  7 21  1  6
  8  9  1  0
  8 28  1  6
  9 10  1  0
  9 27  1  1
 10 11  1  0
 10 26  1  6
 12 11  1  0
 11 20  1  1
 13 14  1  0
 13 28  1  6
 13 29  1  0
 14 15  1  0
 14 30  1  6
 15 16  1  0
 15 22  1  1
 16 17  1  0
 16 31  1  6
 17 18  1  6
 17 29  1  0
 18 32  1  0
M  CHG  5  19   1  20   1  21   1  22   1  33   1
M  END
$$$$
