
     RDKit          3D

 33 35  0  0  0  0  0  0  0  0999 V2000
  112.5138  -13.4061   -8.2297 C   0  0  2  0  0  0  0  0  0  0  0  0
  113.5390  -13.3763   -9.3570 C   0  0  1  0  0  0  0  0  0  0  0  0
  114.8672  -12.9459   -8.7957 C   0  0  2  0  0  0  0  0  0  0  0  0
  115.2305  -13.9056   -7.6918 C   0  0  1  0  0  0  0  0  0  0  0  0
  114.1389  -13.9117   -6.6605 C   0  0  1  0  0  0  0  0  0  0  0  0
  114.0927  -12.6530   -5.8374 C   0  0  0  0  0  0  0  0  0  0  0  0
  108.6830  -16.8913   -7.6558 C   0  0  1  0  0  0  0  0  0  0  0  0
  108.2937  -15.4315   -7.7102 C   0  0  1  0  0  0  0  0  0  0  0  0
  109.4478  -14.5189   -7.4126 C   0  0  2  0  0  0  0  0  0  0  0  0
  110.7651  -14.9212   -7.9190 C   0  0  1  0  0  0  0  0  0  0  0  0
  110.8984  -16.2049   -8.6372 C   0  0  2  0  0  0  0  0  0  0  0  0
  109.7162  -17.0849   -8.7265 C   0  0  0  0  0  0  0  0  0  0  0  0
  106.5658  -14.3962   -8.8724 C   0  0  1  0  0  0  0  0  0  0  0  0
  105.6290  -14.8093   -9.9386 C   0  0  1  0  0  0  0  0  0  0  0  0
  104.7196  -13.7615  -10.4629 C   0  0  2  0  0  0  0  0  0  0  0  0
  105.1850  -12.3528  -10.2558 C   0  0  1  0  0  0  0  0  0  0  0  0
  106.0169  -12.1664   -9.0148 C   0  0  1  0  0  0  0  0  0  0  0  0
  105.1782  -11.9369   -7.7931 C   0  0  0  0  0  0  0  0  0  0  0  0
  114.1068  -12.9243   -4.4302 N   0  0  0  0  0  4  0  0  0  0  0  0
  112.0149  -17.0178   -8.1203 N   0  0  0  0  0  4  0  0  0  0  0  0
  109.0745  -17.3385   -6.3619 N   0  0  0  0  0  4  0  0  0  0  0  0
  103.3619  -13.9039   -9.9685 N   0  0  0  0  0  4  0  0  0  0  0  0
  112.9203  -14.2161   -7.1956 O   0  0  0  0  0  0  0  0  0  0  0  0
  114.8107  -11.6290   -8.3832 O   0  0  0  0  0  0  0  0  0  0  0  0
  115.2557  -15.1885   -8.2679 O   0  0  0  0  0  0  0  0  0  0  0  0
  111.2916  -13.8635   -8.6833 O   0  0  0  0  0  0  0  0  0  0  0  0
  109.4416  -14.3231   -6.0075 O   0  0  0  0  0  0  0  0  0  0  0  0
  107.7297  -15.2012   -8.9525 O   0  0  0  0  0  0  0  0  0  0  0  0
  107.0041  -13.1040   -8.8897 O   0  0  0  0  0  0  0  0  0  0  0  0
  106.3751  -15.4214  -10.9730 O   0  0  0  0  0  0  0  0  0  0  0  0
  105.9161  -11.8822  -11.3525 O   0  0  0  0  0  0  0  0  0  0  0  0
  105.2769  -10.6927   -7.2319 O   0  0  0  0  0  0  0  0  0  0  0  0
  113.5953  -14.6211  -10.0667 N   0  0  0  0  0  4  0  0  0  0  0  0
  1  2  1  0
  1 23  1  0
  1 26  1  6
  2  3  1  0
  2 33  1  1
  3  4  1  0
  3 24  1  1
  5  4  1  0
  4 25  1  6
  5  6  1  6
 23  5  1  0
  6 19  1  0
  8  7  1  0
  7 12  1  0
  7 21  1  1
  8  9  1  0
  8 28  1  6
  9 10  1  0
  9 27  1  1
 10 11  1  0
 10 26  1  6
 12 11  1  0
 11 20  1  1
 13 14  1  0
 13 28  1  6
 13 29  1  0
 14 15  1  0
 14 30  1  6
 15 16  1  0
 15 22  1  1
 16 17  1  0
 16 31  1  6
 17 18  1  1
 17 29  1  0
 18 32  1  0
M  CHG  5  19   1  20   1  21   1  22   1  33   1
M  END
$$$$
