
     RDKit          3D

 33 35  0  0  0  0  0  0  0  0999 V2000
  112.9648  -14.2634   -6.8192 C   0  0  2  0  0  0  0  0  0  0  0  0
  114.0901  -15.0863   -6.2035 C   0  0  1  0  0  0  0  0  0  0  0  0
  115.4043  -14.4212   -6.5116 C   0  0  2  0  0  0  0  0  0  0  0  0
  115.3413  -13.0132   -5.9774 C   0  0  1  0  0  0  0  0  0  0  0  0
  114.1715  -12.3008   -6.5931 C   0  0  1  0  0  0  0  0  0  0  0  0
  114.3781  -11.9650   -8.0453 C   0  0  0  0  0  0  0  0  0  0  0  0
  108.2527  -15.4809   -8.6172 C   0  0  1  0  0  0  0  0  0  0  0  0
  108.7921  -16.4212   -7.5634 C   0  0  1  0  0  0  0  0  0  0  0  0
  110.2882  -16.3648   -7.4564 C   0  0  2  0  0  0  0  0  0  0  0  0
  110.9210  -15.0517   -7.6263 C   0  0  1  0  0  0  0  0  0  0  0  0
  110.0763  -13.8814   -7.9403 C   0  0  2  0  0  0  0  0  0  0  0  0
  108.6349  -14.0991   -8.1745 C   0  0  0  0  0  0  0  0  0  0  0  0
  107.1720  -17.0800   -6.0304 C   0  0  1  0  0  0  0  0  0  0  0  0
  106.5083  -16.6553   -4.7798 C   0  0  1  0  0  0  0  0  0  0  0  0
  105.9760  -17.7353   -3.9137 C   0  0  2  0  0  0  0  0  0  0  0  0
  106.6045  -19.0801   -4.1139 C   0  0  1  0  0  0  0  0  0  0  0  0
  107.0814  -19.3219   -5.5215 C   0  0  1  0  0  0  0  0  0  0  0  0
  105.9918  -19.8365   -6.4140 C   0  0  0  0  0  0  0  0  0  0  0  0
  113.6396  -10.8033   -8.4439 N   0  0  0  0  0  4  0  0  0  0  0  0
  110.5973  -13.1107   -9.0845 N   0  0  0  0  0  4  0  0  0  0  0  0
  108.6466  -15.8118   -9.9449 N   0  0  0  0  0  4  0  0  0  0  0  0
  104.5314  -17.8551   -3.9970 N   0  0  0  0  0  4  0  0  0  0  0  0
  112.9938  -12.9591   -6.3846 O   0  0  0  0  0  0  0  0  0  0  0  0
  115.6691  -14.4843   -7.8657 O   0  0  0  0  0  0  0  0  0  0  0  0
  115.0768  -13.1184   -4.5999 O   0  0  0  0  0  0  0  0  0  0  0  0
  111.7303  -14.7975   -6.5036 O   0  0  0  0  0  0  0  0  0  0  0  0
  110.7841  -17.3300   -8.3703 O   0  0  0  0  0  0  0  0  0  0  0  0
  108.1539  -16.1172   -6.3740 O   0  0  0  0  0  0  0  0  0  0  0  0
  107.8165  -18.2828   -6.0205 O   0  0  0  0  0  0  0  0  0  0  0  0
  107.3919  -15.8051   -4.0744 O   0  0  0  0  0  0  0  0  0  0  0  0
  107.6801  -19.2843   -3.2419 O   0  0  0  0  0  0  0  0  0  0  0  0
  106.3790  -20.7534   -7.3533 O   0  0  0  0  0  0  0  0  0  0  0  0
  113.8827  -15.3201   -4.8039 N   0  0  0  0  0  4  0  0  0  0  0  0
  1  2  1  0
  1 23  1  0
  1 26  1  1
  2  3  1  0
  2 33  1  1
  3  4  1  0
  3 24  1  6
  5  4  1  0
  4 25  1  1
  5  6  1  6
 23  5  1  0
  6 19  1  0
  8  7  1  0
  7 12  1  0
  7 21  1  6
  8  9  1  0
  8 28  1  1
  9 10  1  0
  9 27  1  6
 10 11  1  0
 10 26  1  1
 12 11  1  0
 11 20  1  6
 13 14  1  0
 13 28  1  1
 13 29  1  0
 14 15  1  0
 14 30  1  1
 15 16  1  0
 15 22  1  6
 16 17  1  0
 16 31  1  1
 17 18  1  6
 17 29  1  0
 18 32  1  0
M  CHG  5  19   1  20   1  21   1  22   1  33   1
M  END
$$$$
