
     RDKit          3D

 33 35  0  0  0  0  0  0  0  0999 V2000
  108.0577  -16.6108   -5.7571 C   0  0  2  0  0  0  0  0  0  0  0  0
  106.7561  -17.2255   -6.2577 C   0  0  1  0  0  0  0  0  0  0  0  0
  106.2037  -18.1314   -5.1908 C   0  0  2  0  0  0  0  0  0  0  0  0
  106.0264  -17.3101   -3.9394 C   0  0  1  0  0  0  0  0  0  0  0  0
  107.3434  -16.6983   -3.5569 C   0  0  1  0  0  0  0  0  0  0  0  0
  108.3274  -17.6987   -3.0136 C   0  0  0  0  0  0  0  0  0  0  0  0
  112.0420  -13.5094   -6.9910 C   0  0  1  0  0  0  0  0  0  0  0  0
  111.8519  -14.8690   -7.6240 C   0  0  1  0  0  0  0  0  0  0  0  0
  110.8952  -15.7316   -6.8534 C   0  0  2  0  0  0  0  0  0  0  0  0
  109.7390  -15.0655   -6.2425 C   0  0  1  0  0  0  0  0  0  0  0  0
  109.6035  -13.6002   -6.3685 C   0  0  2  0  0  0  0  0  0  0  0  0
  110.6955  -12.8478   -7.0176 C   0  0  0  0  0  0  0  0  0  0  0  0
  112.4887  -14.0912   -9.7212 C   0  0  1  0  0  0  0  0  0  0  0  0
  111.9458  -13.7790  -11.0602 C   0  0  1  0  0  0  0  0  0  0  0  0
  112.9076  -13.8143  -12.1887 C   0  0  2  0  0  0  0  0  0  0  0  0
  114.1349  -14.6404  -11.9538 C   0  0  1  0  0  0  0  0  0  0  0  0
  114.5652  -14.6885  -10.5117 C   0  0  1  0  0  0  0  0  0  0  0  0
  115.4290  -13.5227  -10.1333 C   0  0  0  0  0  0  0  0  0  0  0  0
  109.2579  -17.1034   -2.1005 N   0  0  0  0  0  4  0  0  0  0  0  0
  109.3331  -12.9533   -5.0712 N   0  0  0  0  0  4  0  0  0  0  0  0
  112.6616  -13.5487   -5.7095 N   0  0  0  0  0  4  0  0  0  0  0  0
  113.2915  -12.4871  -12.6351 N   0  0  0  0  0  4  0  0  0  0  0  0
  107.8808  -15.9500   -4.5643 O   0  0  0  0  0  0  0  0  0  0  0  0
  107.0263  -19.2273   -5.0175 O   0  0  0  0  0  0  0  0  0  0  0  0
  105.1650  -16.2499   -4.2743 O   0  0  0  0  0  0  0  0  0  0  0  0
  108.5688  -15.7152   -6.6767 O   0  0  0  0  0  0  0  0  0  0  0  0
  111.6794  -16.4383   -5.9057 O   0  0  0  0  0  0  0  0  0  0  0  0
  111.4575  -14.6624   -8.9341 O   0  0  0  0  0  0  0  0  0  0  0  0
  113.5343  -14.9657   -9.6574 O   0  0  0  0  0  0  0  0  0  0  0  0
  110.8315  -14.6185  -11.2946 O   0  0  0  0  0  0  0  0  0  0  0  0
  113.9708  -15.9533  -12.4099 O   0  0  0  0  0  0  0  0  0  0  0  0
  115.0162  -12.8095   -9.0407 O   0  0  0  0  0  0  0  0  0  0  0  0
  105.8245  -16.2286   -6.6991 N   0  0  0  0  0  4  0  0  0  0  0  0
  1  2  1  0
  1 23  1  0
  1 26  1  6
  2  3  1  0
  2 33  1  1
  3  4  1  0
  3 24  1  1
  5  4  1  0
  4 25  1  6
  5  6  1  6
 23  5  1  0
  6 19  1  0
  8  7  1  0
  7 12  1  0
  7 21  1  1
  8  9  1  0
  8 28  1  6
  9 10  1  0
  9 27  1  1
 10 11  1  0
 10 26  1  6
 12 11  1  0
 11 20  1  1
 13 14  1  0
 13 28  1  1
 13 29  1  0
 14 15  1  0
 14 30  1  6
 15 16  1  0
 15 22  1  1
 16 17  1  0
 16 31  1  1
 17 18  1  1
 17 29  1  0
 18 32  1  0
M  CHG  5  19   1  20   1  21   1  22   1  33   1
M  END
$$$$
