
     RDKit          3D

 33 35  0  0  0  0  0  0  0  0999 V2000
  111.8828  -15.6046   -7.0941 C   0  0  2  0  0  0  0  0  0  0  0  0
  113.0869  -16.0925   -6.2975 C   0  0  1  0  0  0  0  0  0  0  0  0
  114.3399  -15.5420   -6.9229 C   0  0  2  0  0  0  0  0  0  0  0  0
  114.2174  -14.0400   -6.9481 C   0  0  1  0  0  0  0  0  0  0  0  0
  112.9758  -13.6560   -7.7005 C   0  0  1  0  0  0  0  0  0  0  0  0
  113.0867  -13.8822   -9.1840 C   0  0  0  0  0  0  0  0  0  0  0  0
  106.8447  -14.5629   -6.5944 C   0  0  1  0  0  0  0  0  0  0  0  0
  107.1824  -16.0267   -6.4244 C   0  0  1  0  0  0  0  0  0  0  0  0
  108.4722  -16.3992   -7.0958 C   0  0  2  0  0  0  0  0  0  0  0  0
  109.5566  -15.4114   -7.0538 C   0  0  1  0  0  0  0  0  0  0  0  0
  109.3140  -14.1037   -6.4114 C   0  0  2  0  0  0  0  0  0  0  0  0
  107.9523  -13.8018   -5.9272 C   0  0  0  0  0  0  0  0  0  0  0  0
  106.0338  -17.0183   -4.6620 C   0  0  1  0  0  0  0  0  0  0  0  0
  106.2282  -18.4445   -4.9985 C   0  0  1  0  0  0  0  0  0  0  0  0
  105.0030  -19.2294   -5.2861 C   0  0  2  0  0  0  0  0  0  0  0  0
  103.8151  -18.4222   -5.7120 C   0  0  1  0  0  0  0  0  0  0  0  0
  103.7788  -17.0390   -5.1183 C   0  0  1  0  0  0  0  0  0  0  0  0
  103.1493  -17.0170   -3.7576 C   0  0  0  0  0  0  0  0  0  0  0  0
  113.7164  -12.7834   -9.8547 N   0  0  0  0  0  4  0  0  0  0  0  0
  109.7382  -12.9781   -7.2645 N   0  0  0  0  0  4  0  0  0  0  0  0
  106.5861  -14.1809   -7.9415 N   0  0  0  0  0  4  0  0  0  0  0  0
  104.6303  -20.1028   -4.1877 N   0  0  0  0  0  4  0  0  0  0  0  0
  111.8533  -14.2325   -7.1794 O   0  0  0  0  0  0  0  0  0  0  0  0
  114.5385  -16.0986   -8.1713 O   0  0  0  0  0  0  0  0  0  0  0  0
  114.0307  -13.6305   -5.6155 O   0  0  0  0  0  0  0  0  0  0  0  0
  110.7015  -16.0280   -6.5161 O   0  0  0  0  0  0  0  0  0  0  0  0
  108.1310  -16.7766   -8.4201 O   0  0  0  0  0  0  0  0  0  0  0  0
  107.1833  -16.2946   -5.0669 O   0  0  0  0  0  0  0  0  0  0  0  0
  104.9710  -16.3794   -5.2317 O   0  0  0  0  0  0  0  0  0  0  0  0
  107.1645  -18.5280   -6.0557 O   0  0  0  0  0  0  0  0  0  0  0  0
  103.7393  -18.3073   -7.1048 O   0  0  0  0  0  0  0  0  0  0  0  0
  101.8966  -16.4698   -3.6931 O   0  0  0  0  0  0  0  0  0  0  0  0
  112.9663  -15.7917   -4.9006 N   0  0  0  0  0  4  0  0  0  0  0  0
  1  2  1  0
  1 23  1  0
  1 26  1  1
  2  3  1  0
  2 33  1  1
  3  4  1  0
  3 24  1  6
  5  4  1  0
  4 25  1  1
  5  6  1  6
 23  5  1  0
  6 19  1  0
  8  7  1  0
  7 12  1  0
  7 21  1  6
  8  9  1  0
  8 28  1  1
  9 10  1  0
  9 27  1  6
 10 11  1  0
 10 26  1  1
 12 11  1  0
 11 20  1  6
 13 14  1  0
 13 28  1  6
 13 29  1  0
 14 15  1  0
 14 30  1  6
 15 16  1  0
 15 22  1  1
 16 17  1  0
 16 31  1  6
 17 18  1  1
 17 29  1  0
 18 32  1  0
M  CHG  5  19   1  20   1  21   1  22   1  33   1
M  END
$$$$
