
     RDKit          3D

 33 35  0  0  0  0  0  0  0  0999 V2000
  110.4959  -15.3018   -6.4147 C   0  0  2  0  0  0  0  0  0  0  0  0
  109.8520  -16.6223   -6.0097 C   0  0  1  0  0  0  0  0  0  0  0  0
  110.9363  -17.6312   -5.7433 C   0  0  2  0  0  0  0  0  0  0  0  0
  111.8390  -17.0627   -4.6785 C   0  0  1  0  0  0  0  0  0  0  0  0
  112.3779  -15.7391   -5.1397 C   0  0  1  0  0  0  0  0  0  0  0  0
  113.4003  -15.8640   -6.2366 C   0  0  0  0  0  0  0  0  0  0  0  0
  109.2507  -11.1250   -9.1962 C   0  0  1  0  0  0  0  0  0  0  0  0
  108.9158  -12.5486   -9.5793 C   0  0  1  0  0  0  0  0  0  0  0  0
  109.7119  -13.5545   -8.7998 C   0  0  2  0  0  0  0  0  0  0  0  0
  109.9844  -13.2441   -7.3916 C   0  0  1  0  0  0  0  0  0  0  0  0
  109.5166  -11.9585   -6.8348 C   0  0  2  0  0  0  0  0  0  0  0  0
  108.8819  -10.9877   -7.7483 C   0  0  0  0  0  0  0  0  0  0  0  0
  106.9767  -13.4660  -10.4774 C   0  0  1  0  0  0  0  0  0  0  0  0
  105.5131  -13.5225  -10.2784 C   0  0  1  0  0  0  0  0  0  0  0  0
  104.8202  -14.7252  -10.8011 C   0  0  2  0  0  0  0  0  0  0  0  0
  105.6886  -15.9324  -10.9810 C   0  0  1  0  0  0  0  0  0  0  0  0
  107.1197  -15.6043  -11.3146 C   0  0  1  0  0  0  0  0  0  0  0  0
  107.3296  -15.3884  -12.7836 C   0  0  0  0  0  0  0  0  0  0  0  0
  114.7085  -15.4669   -5.8066 N   0  0  0  0  0  4  0  0  0  0  0  0
  110.5837  -11.2466   -6.1073 N   0  0  0  0  0  4  0  0  0  0  0  0
  110.5848  -10.7391   -9.5107 N   0  0  0  0  0  4  0  0  0  0  0  0
  104.0939  -14.4598  -12.0299 N   0  0  0  0  0  4  0  0  0  0  0  0
  111.3861  -14.8591   -5.4649 O   0  0  0  0  0  0  0  0  0  0  0  0
  111.5976  -17.9464   -6.9141 O   0  0  0  0  0  0  0  0  0  0  0  0
  111.0266  -16.8057   -3.5594 O   0  0  0  0  0  0  0  0  0  0  0  0
  109.5406  -14.3217   -6.6030 O   0  0  0  0  0  0  0  0  0  0  0  0
  110.8969  -13.7812   -9.5460 O   0  0  0  0  0  0  0  0  0  0  0  0
  107.5497  -12.7061   -9.4270 O   0  0  0  0  0  0  0  0  0  0  0  0
  107.6531  -14.6511  -10.4923 O   0  0  0  0  0  0  0  0  0  0  0  0
  105.2432  -13.3173   -8.9050 O   0  0  0  0  0  0  0  0  0  0  0  0
  105.6763  -16.7532   -9.8474 O   0  0  0  0  0  0  0  0  0  0  0  0
  108.5480  -15.7763  -13.2714 O   0  0  0  0  0  0  0  0  0  0  0  0
  108.9389  -16.4630   -4.9154 N   0  0  0  0  0  4  0  0  0  0  0  0
  1  2  1  0
  1 23  1  0
  1 26  1  1
  2  3  1  0
  2 33  1  1
  3  4  1  0
  3 24  1  6
  5  4  1  0
  4 25  1  1
  5  6  1  6
 23  5  1  0
  6 19  1  0
  8  7  1  0
  7 12  1  0
  7 21  1  1
  8  9  1  0
  8 28  1  1
  9 10  1  0
  9 27  1  6
 10 11  1  0
 10 26  1  1
 12 11  1  0
 11 20  1  6
 13 14  1  0
 13 28  1  1
 13 29  1  0
 14 15  1  0
 14 30  1  1
 15 16  1  0
 15 22  1  6
 16 17  1  0
 16 31  1  1
 17 18  1  6
 17 29  1  0
 18 32  1  0
M  CHG  5  19   1  20   1  21   1  22   1  33   1
M  END
$$$$
