
     RDKit          3D

 33 35  0  0  0  0  0  0  0  0999 V2000
  110.9010  -14.0402   -6.4641 C   0  0  2  0  0  0  0  0  0  0  0  0
  110.6171  -12.7634   -7.2462 C   0  0  1  0  0  0  0  0  0  0  0  0
  111.7599  -11.8052   -7.0453 C   0  0  2  0  0  0  0  0  0  0  0  0
  113.0227  -12.4999   -7.4864 C   0  0  1  0  0  0  0  0  0  0  0  0
  113.1877  -13.7722   -6.7059 C   0  0  1  0  0  0  0  0  0  0  0  0
  113.5664  -13.5417   -5.2680 C   0  0  0  0  0  0  0  0  0  0  0  0
  109.7369  -19.0805   -7.1037 C   0  0  1  0  0  0  0  0  0  0  0  0
  109.1845  -18.3387   -5.9077 C   0  0  1  0  0  0  0  0  0  0  0  0
  109.9298  -17.0661   -5.6281 C   0  0  2  0  0  0  0  0  0  0  0  0
  110.3952  -16.2962   -6.7876 C   0  0  1  0  0  0  0  0  0  0  0  0
  110.1585  -16.8269   -8.1455 C   0  0  2  0  0  0  0  0  0  0  0  0
  109.5529  -18.1667   -8.2795 C   0  0  0  0  0  0  0  0  0  0  0  0
  107.0458  -18.4473   -5.0009 C   0  0  1  0  0  0  0  0  0  0  0  0
  105.6605  -18.7107   -5.4442 C   0  0  1  0  0  0  0  0  0  0  0  0
  104.5847  -18.4055   -4.4699 C   0  0  2  0  0  0  0  0  0  0  0  0
  104.9504  -17.4154   -3.4070 C   0  0  1  0  0  0  0  0  0  0  0  0
  106.4087  -17.4399   -3.0330 C   0  0  1  0  0  0  0  0  0  0  0  0
  106.7159  -18.4787   -1.9961 C   0  0  0  0  0  0  0  0  0  0  0  0
  114.7680  -14.2338   -4.9059 N   0  0  0  0  0  4  0  0  0  0  0  0
  111.3816  -16.8117   -8.9693 N   0  0  0  0  0  4  0  0  0  0  0  0
  111.0652  -19.5610   -6.9243 N   0  0  0  0  0  4  0  0  0  0  0  0
  104.0349  -19.6002   -3.8547 N   0  0  0  0  0  4  0  0  0  0  0  0
  112.1061  -14.5971   -6.8224 O   0  0  0  0  0  0  0  0  0  0  0  0
  111.7995  -11.3724   -5.7343 O   0  0  0  0  0  0  0  0  0  0  0  0
  112.8300  -12.8670   -8.8304 O   0  0  0  0  0  0  0  0  0  0  0  0
  109.9104  -14.9803   -6.6734 O   0  0  0  0  0  0  0  0  0  0  0  0
  110.9857  -17.4147   -4.7471 O   0  0  0  0  0  0  0  0  0  0  0  0
  107.8351  -18.1352   -6.1361 O   0  0  0  0  0  0  0  0  0  0  0  0
  107.2376  -17.4228   -4.1201 O   0  0  0  0  0  0  0  0  0  0  0  0
  105.4549  -18.0478   -6.6770 O   0  0  0  0  0  0  0  0  0  0  0  0
  104.6111  -16.1090   -3.7770 O   0  0  0  0  0  0  0  0  0  0  0  0
  107.7933  -18.2151   -1.1944 O   0  0  0  0  0  0  0  0  0  0  0  0
  110.3306  -13.0293   -8.6259 N   0  0  0  0  0  4  0  0  0  0  0  0
  1  2  1  0
  1 23  1  0
  1 26  1  6
  2  3  1  0
  2 33  1  6
  3  4  1  0
  3 24  1  1
  5  4  1  0
  4 25  1  6
  5  6  1  1
 23  5  1  0
  6 19  1  0
  8  7  1  0
  7 12  1  0
  7 21  1  1
  8  9  1  0
  8 28  1  6
  9 10  1  0
  9 27  1  1
 10 11  1  0
 10 26  1  6
 12 11  1  0
 11 20  1  1
 13 14  1  0
 13 28  1  6
 13 29  1  0
 14 15  1  0
 14 30  1  6
 15 16  1  0
 15 22  1  1
 16 17  1  0
 16 31  1  6
 17 18  1  6
 17 29  1  0
 18 32  1  0
M  CHG  5  19   1  20   1  21   1  22   1  33   1
M  END
$$$$
