
     RDKit          3D

 24 26  0  0  0  0  0  0  0  0999 V2000
    4.2338   -3.3775    0.2182 O   0  0  0  0  0  0  0  0  0  0  0  0
    4.2134   -3.8791   -1.0906 C   0  0  1  0  0  0  0  0  0  0  0  0
    3.2472   -5.0316   -1.1889 C   0  0  0  0  0  0  0  0  0  0  0  0
    3.7206   -2.7931   -2.0331 C   0  0  0  0  0  0  0  0  0  0  0  0
    5.5641   -4.3315   -1.4312 C   0  0  0  0  0  0  0  0  0  0  0  0
    6.4214   -4.7431   -0.4419 C   0  0  0  0  0  0  0  0  0  0  0  0
    7.6883   -5.1659   -0.7826 C   0  0  0  0  0  0  0  0  0  0  0  0
    8.1666   -5.2062   -2.0727 C   0  0  0  0  0  0  0  0  0  0  0  0
    9.5169   -5.6634   -2.3760 C   0  0  0  0  0  0  0  0  0  0  0  0
   10.3184   -5.0428   -3.3129 C   0  0  0  0  0  0  0  0  0  0  0  0
   11.5948   -5.4733   -3.6019 C   0  0  0  0  0  0  0  0  0  0  0  0
   12.4135   -4.7995   -4.6016 C   0  0  1  0  0  0  0  0  0  0  0  0
   12.1855   -5.1882   -6.0049 C   0  0  0  0  0  0  0  0  0  0  0  0
   11.8664   -6.5681   -6.2951 N   0  0  0  0  0  0  0  0  0  0  0  0
   12.2548   -4.3987   -7.0003 N   0  0  0  0  0  4  0  0  0  0  0  0
   12.2356   -3.2670   -4.4700 C   0  0  0  0  0  0  0  0  0  0  0  0
   13.6843   -3.1997   -4.9789 C   0  0  0  0  0  0  0  0  0  0  0  0
   13.8455   -4.5615   -4.2837 C   0  0  0  0  0  0  0  0  0  0  0  0
   12.0827   -6.5652   -2.9262 C   0  0  0  0  0  0  0  0  0  0  0  0
   11.3210   -7.2338   -1.9687 C   0  0  0  0  0  0  0  0  0  0  0  0
   11.9644   -8.6209   -1.1224 Cl  0  0  0  0  0  0  0  0  0  0  0  0
   10.0533   -6.7532   -1.7266 C   0  0  0  0  0  0  0  0  0  0  0  0
    7.3021   -4.7922   -3.0604 C   0  0  0  0  0  0  0  0  0  0  0  0
    6.0293   -4.3640   -2.7503 C   0  0  0  0  0  0  0  0  0  0  0  0
  2  1  1  1
  3  2  1  1
  4  2  1  1
  2  5  1  0
  5 24  2  0
  5  6  1  0
  6  7  2  0
  7  8  1  0
  8  9  1  0
  8 23  2  0
  9 22  1  0
  9 10  2  0
 10 11  1  0
 12 11  1  1
 11 19  2  0
 12 18  1  0
 12 13  1  0
 16 12  1  6
 13 14  1  0
 13 15  2  3
 17 16  1  6
 18 17  1  1
 19 20  1  0
 20 21  1  0
 20 22  2  0
 23 24  1  0
M  CHG  1  15   1
M  END
$$$$
