
     RDKit          3D

 24 26  0  0  0  0  0  0  0  0999 V2000
   10.4548  -17.7876    4.4457 O   0  0  0  0  0  0  0  0  0  0  0  0
    9.5726  -18.5764    5.1970 C   0  0  1  0  0  0  0  0  0  0  0  0
    8.4595  -19.0884    4.3193 C   0  0  0  0  0  0  0  0  0  0  0  0
   10.3195  -19.7866    5.7337 C   0  0  0  0  0  0  0  0  0  0  0  0
    9.0186  -17.7506    6.2723 C   0  0  0  0  0  0  0  0  0  0  0  0
    9.1419  -16.3848    6.2236 C   0  0  0  0  0  0  0  0  0  0  0  0
    8.6134  -15.6248    7.2448 C   0  0  0  0  0  0  0  0  0  0  0  0
    7.9560  -16.1486    8.3348 C   0  0  0  0  0  0  0  0  0  0  0  0
    7.4160  -15.2966    9.3869 C   0  0  0  0  0  0  0  0  0  0  0  0
    8.0786  -14.1779    9.8501 C   0  0  0  0  0  0  0  0  0  0  0  0
    7.5708  -13.3711   10.8448 C   0  0  0  0  0  0  0  0  0  0  0  0
    8.2986  -12.1999   11.3160 C   0  0  1  0  0  0  0  0  0  0  0  0
    8.0687  -10.9453   10.5773 C   0  0  0  0  0  0  0  0  0  0  0  0
    6.7286  -10.4041   10.5375 N   0  0  0  0  0  0  0  0  0  0  0  0
    8.9651  -10.2916    9.9545 N   0  0  0  0  0  4  0  0  0  0  0  0
    7.9875  -11.9644   12.8143 C   0  0  0  0  0  0  0  0  0  0  0  0
    9.4100  -11.3854   12.8708 C   0  0  0  0  0  0  0  0  0  0  0  0
    9.7114  -12.3815   11.7391 C   0  0  0  0  0  0  0  0  0  0  0  0
    6.3550  -13.7002   11.3932 C   0  0  0  0  0  0  0  0  0  0  0  0
    5.6383  -14.8177   10.9671 C   0  0  0  0  0  0  0  0  0  0  0  0
    4.0933  -15.2153   11.6807 Cl  0  0  0  0  0  0  0  0  0  0  0  0
    6.2011  -15.5824    9.9696 C   0  0  0  0  0  0  0  0  0  0  0  0
    7.8356  -17.5190    8.3779 C   0  0  0  0  0  0  0  0  0  0  0  0
    8.3538  -18.3050    7.3715 C   0  0  0  0  0  0  0  0  0  0  0  0
  2  1  1  6
  3  2  1  1
  4  2  1  1
  2  5  1  0
  5 24  2  0
  5  6  1  0
  6  7  2  0
  7  8  1  0
  8  9  1  0
  8 23  2  0
  9 22  1  0
  9 10  2  0
 10 11  1  0
 12 11  1  6
 11 19  2  0
 12 18  1  0
 12 13  1  0
 16 12  1  6
 13 14  1  0
 13 15  2  3
 17 16  1  6
 18 17  1  1
 19 20  1  0
 20 21  1  0
 20 22  2  0
 23 24  1  0
M  CHG  1  15   1
M  END
$$$$
