
     RDKit          3D

 24 26  0  0  0  0  0  0  0  0999 V2000
   11.6619  -15.7081   18.2024 O   0  0  0  0  0  0  0  0  0  0  0  0
   10.5516  -16.5638   18.1988 C   0  0  1  0  0  0  0  0  0  0  0  0
   10.9666  -17.9495   17.7755 C   0  0  0  0  0  0  0  0  0  0  0  0
    9.9980  -16.6680   19.6107 C   0  0  0  0  0  0  0  0  0  0  0  0
    9.5631  -16.0312   17.2584 C   0  0  0  0  0  0  0  0  0  0  0  0
    9.8420  -15.9940   15.9153 C   0  0  0  0  0  0  0  0  0  0  0  0
    8.8986  -15.4898   15.0461 C   0  0  0  0  0  0  0  0  0  0  0  0
    7.6691  -15.0100   15.4366 C   0  0  0  0  0  0  0  0  0  0  0  0
    6.7083  -14.4877   14.4729 C   0  0  0  0  0  0  0  0  0  0  0  0
    6.4954  -15.0764   13.2428 C   0  0  0  0  0  0  0  0  0  0  0  0
    5.5884  -14.5845   12.3297 C   0  0  0  0  0  0  0  0  0  0  0  0
    5.3915  -15.2262   11.0362 C   0  0  1  0  0  0  0  0  0  0  0  0
    6.5976  -15.4216   10.2119 C   0  0  0  0  0  0  0  0  0  0  0  0
    7.1549  -14.2790    9.5234 N   0  0  0  0  0  0  0  0  0  0  0  0
    7.1950  -16.5327   10.0464 N   0  0  0  0  0  4  0  0  0  0  0  0
    4.6936  -16.5936   11.2369 C   0  0  0  0  0  0  0  0  0  0  0  0
    4.0863  -16.3251    9.8508 C   0  0  0  0  0  0  0  0  0  0  0  0
    4.1945  -14.8425   10.2435 C   0  0  0  0  0  0  0  0  0  0  0  0
    4.8707  -13.4621   12.6645 C   0  0  0  0  0  0  0  0  0  0  0  0
    5.0415  -12.8231   13.8919 C   0  0  0  0  0  0  0  0  0  0  0  0
    4.1162  -11.3962   14.2943 Cl  0  0  0  0  0  0  0  0  0  0  0  0
    5.9634  -13.3651   14.7596 C   0  0  0  0  0  0  0  0  0  0  0  0
    7.3952  -15.0499   16.7848 C   0  0  0  0  0  0  0  0  0  0  0  0
    8.3188  -15.5485   17.6781 C   0  0  0  0  0  0  0  0  0  0  0  0
  2  1  1  1
  3  2  1  1
  4  2  1  1
  2  5  1  0
  5 24  2  0
  5  6  1  0
  6  7  2  0
  7  8  1  0
  8  9  1  0
  8 23  2  0
  9 22  1  0
  9 10  2  0
 10 11  1  0
 12 11  1  1
 11 19  2  0
 12 18  1  0
 12 13  1  0
 16 12  1  6
 13 14  1  0
 13 15  2  3
 17 16  1  6
 18 17  1  1
 19 20  1  0
 20 21  1  0
 20 22  2  0
 23 24  1  0
M  CHG  1  15   1
M  END
$$$$
