
     RDKit          3D

 24 26  0  0  0  0  0  0  0  0999 V2000
   18.7667   -5.7516   -2.5336 O   0  0  0  0  0  0  0  0  0  0  0  0
   18.1043   -4.6261   -3.0430 C   0  0  1  0  0  0  0  0  0  0  0  0
   18.2051   -3.4805   -2.0688 C   0  0  0  0  0  0  0  0  0  0  0  0
   18.7839   -4.1876   -4.3300 C   0  0  0  0  0  0  0  0  0  0  0  0
   16.6981   -4.9765   -3.2554 C   0  0  0  0  0  0  0  0  0  0  0  0
   15.7424   -3.9925   -3.2932 C   0  0  0  0  0  0  0  0  0  0  0  0
   14.4245   -4.3422   -3.4947 C   0  0  0  0  0  0  0  0  0  0  0  0
   13.9877   -5.6364   -3.6647 C   0  0  0  0  0  0  0  0  0  0  0  0
   12.5797   -5.9491   -3.8750 C   0  0  0  0  0  0  0  0  0  0  0  0
   11.5780   -5.0146   -3.7065 C   0  0  0  0  0  0  0  0  0  0  0  0
   10.2464   -5.3077   -3.9041 C   0  0  0  0  0  0  0  0  0  0  0  0
    9.2120   -4.2994   -3.7117 C   0  0  1  0  0  0  0  0  0  0  0  0
    8.7526   -3.5936   -4.9214 C   0  0  0  0  0  0  0  0  0  0  0  0
    9.0522   -2.1854   -5.0537 N   0  0  0  0  0  0  0  0  0  0  0  0
    8.0963   -4.1275   -5.8716 N   0  0  0  0  0  4  0  0  0  0  0  0
    7.9894   -4.9386   -3.0088 C   0  0  0  0  0  0  0  0  0  0  0  0
    7.7833   -3.5385   -2.4093 C   0  0  0  0  0  0  0  0  0  0  0  0
    9.3121   -3.4175   -2.5199 C   0  0  0  0  0  0  0  0  0  0  0  0
    9.9098   -6.5841   -4.2839 C   0  0  0  0  0  0  0  0  0  0  0  0
   10.8766   -7.5714   -4.4701 C   0  0  0  0  0  0  0  0  0  0  0  0
   10.4228   -9.1884   -4.9536 Cl  0  0  0  0  0  0  0  0  0  0  0  0
   12.1892   -7.2137   -4.2565 C   0  0  0  0  0  0  0  0  0  0  0  0
   14.9509   -6.6187   -3.6257 C   0  0  0  0  0  0  0  0  0  0  0  0
   16.2767   -6.2997   -3.4258 C   0  0  0  0  0  0  0  0  0  0  0  0
  2  1  1  1
  3  2  1  1
  4  2  1  1
  2  5  1  0
  5 24  2  0
  5  6  1  0
  6  7  2  0
  7  8  1  0
  8  9  1  0
  8 23  2  0
  9 22  1  0
  9 10  2  0
 10 11  1  0
 12 11  1  6
 11 19  2  0
 12 18  1  0
 12 13  1  0
 16 12  1  6
 13 14  1  0
 13 15  2  3
 17 16  1  6
 18 17  1  1
 19 20  1  0
 20 21  1  0
 20 22  2  0
 23 24  1  0
M  CHG  1  15   1
M  END
$$$$
