
     RDKit          3D

 24 26  0  0  0  0  0  0  0  0999 V2000
    6.5987  -14.5027   17.7053 O   0  0  0  0  0  0  0  0  0  0  0  0
    5.6569  -13.6773   17.0756 C   0  0  1  0  0  0  0  0  0  0  0  0
    4.3033  -13.8541   17.7146 C   0  0  0  0  0  0  0  0  0  0  0  0
    6.0613  -12.2243   17.2656 C   0  0  0  0  0  0  0  0  0  0  0  0
    5.5916  -14.0494   15.6606 C   0  0  0  0  0  0  0  0  0  0  0  0
    4.8366  -13.3065   14.7882 C   0  0  0  0  0  0  0  0  0  0  0  0
    4.7884  -13.6724   13.4602 C   0  0  0  0  0  0  0  0  0  0  0  0
    5.4579  -14.7537   12.9338 C   0  0  0  0  0  0  0  0  0  0  0  0
    5.3713  -15.0948   11.5193 C   0  0  0  0  0  0  0  0  0  0  0  0
    6.4850  -15.3724   10.7526 C   0  0  0  0  0  0  0  0  0  0  0  0
    6.4060  -15.6945    9.4154 C   0  0  0  0  0  0  0  0  0  0  0  0
    7.6020  -15.9764    8.6320 C   0  0  1  0  0  0  0  0  0  0  0  0
    7.7592  -17.3610    8.1520 C   0  0  0  0  0  0  0  0  0  0  0  0
    8.3925  -18.3252    9.0235 N   0  0  0  0  0  0  0  0  0  0  0  0
    7.3846  -17.7841    7.0120 N   0  0  0  0  0  4  0  0  0  0  0  0
    7.6663  -15.0147    7.4202 C   0  0  0  0  0  0  0  0  0  0  0  0
    9.1892  -15.1534    7.5738 C   0  0  0  0  0  0  0  0  0  0  0  0
    8.8810  -15.3569    9.0663 C   0  0  0  0  0  0  0  0  0  0  0  0
    5.1649  -15.7392    8.8284 C   0  0  0  0  0  0  0  0  0  0  0  0
    4.0034  -15.4688    9.5507 C   0  0  0  0  0  0  0  0  0  0  0  0
    2.4357  -15.5321    8.7808 Cl  0  0  0  0  0  0  0  0  0  0  0  0
    4.1511  -15.1534   10.8831 C   0  0  0  0  0  0  0  0  0  0  0  0
    6.2134  -15.4949   13.8136 C   0  0  0  0  0  0  0  0  0  0  0  0
    6.2810  -15.1534   15.1471 C   0  0  0  0  0  0  0  0  0  0  0  0
  2  1  1  1
  3  2  1  1
  4  2  1  1
  2  5  1  0
  5 24  2  0
  5  6  1  0
  6  7  2  0
  7  8  1  0
  8  9  1  0
  8 23  2  0
  9 22  1  0
  9 10  2  0
 10 11  1  0
 12 11  1  1
 11 19  2  0
 12 18  1  0
 12 13  1  0
 16 12  1  6
 13 14  1  0
 13 15  2  3
 17 16  1  6
 18 17  1  1
 19 20  1  0
 20 21  1  0
 20 22  2  0
 23 24  1  0
M  CHG  1  15   1
M  END
$$$$
