
     RDKit          3D

 24 26  0  0  0  0  0  0  0  0999 V2000
    9.5456  -15.8334    5.2343 O   0  0  0  0  0  0  0  0  0  0  0  0
    9.2330  -16.9875    5.9660 C   0  0  1  0  0  0  0  0  0  0  0  0
    8.3966  -17.9210    5.1291 C   0  0  0  0  0  0  0  0  0  0  0  0
   10.5183  -17.7202    6.3147 C   0  0  0  0  0  0  0  0  0  0  0  0
    8.4868  -16.5868    7.1609 C   0  0  0  0  0  0  0  0  0  0  0  0
    8.3252  -17.4698    8.1989 C   0  0  0  0  0  0  0  0  0  0  0  0
    7.6203  -17.0739    9.3152 C   0  0  0  0  0  0  0  0  0  0  0  0
    7.0539  -15.8287    9.4677 C   0  0  0  0  0  0  0  0  0  0  0  0
    6.3183  -15.4632   10.6718 C   0  0  0  0  0  0  0  0  0  0  0  0
    6.9447  -15.0206   11.8193 C   0  0  0  0  0  0  0  0  0  0  0  0
    6.2519  -14.6750   12.9590 C   0  0  0  0  0  0  0  0  0  0  0  0
    6.9439  -14.2169   14.1568 C   0  0  1  0  0  0  0  0  0  0  0  0
    6.8534  -12.7763   14.4548 C   0  0  0  0  0  0  0  0  0  0  0  0
    7.8889  -11.9017   13.9517 N   0  0  0  0  0  0  0  0  0  0  0  0
    5.9283  -12.2298   15.1362 N   0  0  0  0  0  4  0  0  0  0  0  0
    6.4405  -15.0159   15.3838 C   0  0  0  0  0  0  0  0  0  0  0  0
    7.8590  -14.7917   15.9313 C   0  0  0  0  0  0  0  0  0  0  0  0
    8.2807  -14.7947   14.4527 C   0  0  0  0  0  0  0  0  0  0  0  0
    4.8822  -14.7778   12.9449 C   0  0  0  0  0  0  0  0  0  0  0  0
    4.1928  -15.2183   11.8159 C   0  0  0  0  0  0  0  0  0  0  0  0
    2.4494  -15.3406   11.8230 Cl  0  0  0  0  0  0  0  0  0  0  0  0
    4.9440  -15.5481   10.7098 C   0  0  0  0  0  0  0  0  0  0  0  0
    7.2194  -14.9477    8.4234 C   0  0  0  0  0  0  0  0  0  0  0  0
    7.9193  -15.3150    7.2944 C   0  0  0  0  0  0  0  0  0  0  0  0
  2  1  1  6
  3  2  1  1
  4  2  1  1
  2  5  1  0
  5 24  2  0
  5  6  1  0
  6  7  2  0
  7  8  1  0
  8  9  1  0
  8 23  2  0
  9 22  1  0
  9 10  2  0
 10 11  1  0
 12 11  1  6
 11 19  2  0
 12 18  1  0
 12 13  1  0
 16 12  1  6
 13 14  1  0
 13 15  2  3
 17 16  1  6
 18 17  1  1
 19 20  1  0
 20 21  1  0
 20 22  2  0
 23 24  1  0
M  CHG  1  15   1
M  END
$$$$
