
     RDKit          3D

 24 26  0  0  0  0  0  0  0  0999 V2000
   11.5301  -15.9815   14.8803 O   0  0  0  0  0  0  0  0  0  0  0  0
   11.2709  -16.4841   13.5977 C   0  0  1  0  0  0  0  0  0  0  0  0
   12.2354  -15.8899   12.6036 C   0  0  0  0  0  0  0  0  0  0  0  0
   11.4899  -17.9883   13.5980 C   0  0  0  0  0  0  0  0  0  0  0  0
    9.8978  -16.1284   13.2326 C   0  0  0  0  0  0  0  0  0  0  0  0
    9.3911  -16.5038   12.0139 C   0  0  0  0  0  0  0  0  0  0  0  0
    8.0964  -16.1601   11.6890 C   0  0  0  0  0  0  0  0  0  0  0  0
    7.2560  -15.4514   12.5173 C   0  0  0  0  0  0  0  0  0  0  0  0
    5.8940  -15.1152   12.1219 C   0  0  0  0  0  0  0  0  0  0  0  0
    5.5079  -15.0125   10.8007 C   0  0  0  0  0  0  0  0  0  0  0  0
    4.2214  -14.6943   10.4242 C   0  0  0  0  0  0  0  0  0  0  0  0
    3.8473  -14.5876    9.0198 C   0  0  1  0  0  0  0  0  0  0  0  0
    2.8489  -13.5565    8.6847 C   0  0  0  0  0  0  0  0  0  0  0  0
    1.9844  -13.0665    9.7349 N   0  0  0  0  0  0  0  0  0  0  0  0
    2.6759  -13.0586    7.5267 N   0  0  0  0  0  4  0  0  0  0  0  0
    5.1152  -14.3563    8.1618 C   0  0  0  0  0  0  0  0  0  0  0  0
    4.3408  -15.1136    7.0715 C   0  0  0  0  0  0  0  0  0  0  0  0
    3.6740  -15.8454    8.2478 C   0  0  0  0  0  0  0  0  0  0  0  0
    3.2906  -14.4714   11.4096 C   0  0  0  0  0  0  0  0  0  0  0  0
    3.6202  -14.5606   12.7614 C   0  0  0  0  0  0  0  0  0  0  0  0
    2.4178  -14.2724   13.9965 Cl  0  0  0  0  0  0  0  0  0  0  0  0
    4.9230  -14.8825   13.0707 C   0  0  0  0  0  0  0  0  0  0  0  0
    7.7700  -15.0777   13.7381 C   0  0  0  0  0  0  0  0  0  0  0  0
    9.0609  -15.4070   14.0910 C   0  0  0  0  0  0  0  0  0  0  0  0
  2  1  1  1
  3  2  1  1
  4  2  1  1
  2  5  1  0
  5 24  2  0
  5  6  1  0
  6  7  2  0
  7  8  1  0
  8  9  1  0
  8 23  2  0
  9 22  1  0
  9 10  2  0
 10 11  1  0
 12 11  1  1
 11 19  2  0
 12 18  1  0
 12 13  1  0
 16 12  1  6
 13 14  1  0
 13 15  2  3
 17 16  1  6
 18 17  1  1
 19 20  1  0
 20 21  1  0
 20 22  2  0
 23 24  1  0
M  CHG  1  15   1
M  END
$$$$
