
     RDKit          3D

 24 26  0  0  0  0  0  0  0  0999 V2000
   13.7214  -17.6563    7.7446 O   0  0  0  0  0  0  0  0  0  0  0  0
   13.2692  -17.1602    6.5141 C   0  0  1  0  0  0  0  0  0  0  0  0
   13.7330  -15.7385    6.3264 C   0  0  0  0  0  0  0  0  0  0  0  0
   13.8744  -17.9863    5.3907 C   0  0  0  0  0  0  0  0  0  0  0  0
   11.8055  -17.2112    6.5071 C   0  0  0  0  0  0  0  0  0  0  0  0
   11.1217  -17.4933    7.6629 C   0  0  0  0  0  0  0  0  0  0  0  0
    9.7443  -17.5361    7.6362 C   0  0  0  0  0  0  0  0  0  0  0  0
    8.9878  -17.3113    6.5085 C   0  0  0  0  0  0  0  0  0  0  0  0
    7.5316  -17.3691    6.5378 C   0  0  0  0  0  0  0  0  0  0  0  0
    6.7704  -16.5249    7.3207 C   0  0  0  0  0  0  0  0  0  0  0  0
    5.3940  -16.5777    7.3508 C   0  0  0  0  0  0  0  0  0  0  0  0
    4.6193  -15.6758    8.1935 C   0  0  1  0  0  0  0  0  0  0  0  0
    4.2457  -16.1835    9.5257 C   0  0  0  0  0  0  0  0  0  0  0  0
    4.2552  -17.6123    9.7468 N   0  0  0  0  0  0  0  0  0  0  0  0
    3.9019  -15.4573   10.5123 N   0  0  0  0  0  4  0  0  0  0  0  0
    5.3830  -14.3395    8.3616 C   0  0  0  0  0  0  0  0  0  0  0  0
    3.9816  -13.7185    8.4737 C   0  0  0  0  0  0  0  0  0  0  0  0
    3.5489  -14.8698    7.5510 C   0  0  0  0  0  0  0  0  0  0  0  0
    4.7607  -17.5113    6.5670 C   0  0  0  0  0  0  0  0  0  0  0  0
    5.4752  -18.3913    5.7551 C   0  0  0  0  0  0  0  0  0  0  0  0
    4.6461  -19.5705    4.7669 Cl  0  0  0  0  0  0  0  0  0  0  0  0
    6.8483  -18.2865    5.7707 C   0  0  0  0  0  0  0  0  0  0  0  0
    9.6793  -17.0289    5.3525 C   0  0  0  0  0  0  0  0  0  0  0  0
   11.0566  -16.9792    5.3483 C   0  0  0  0  0  0  0  0  0  0  0  0
  2  1  1  1
  3  2  1  1
  4  2  1  1
  2  5  1  0
  5 24  2  0
  5  6  1  0
  6  7  2  0
  7  8  1  0
  8  9  1  0
  8 23  2  0
  9 22  1  0
  9 10  2  0
 10 11  1  0
 12 11  1  6
 11 19  2  0
 12 18  1  0
 12 13  1  0
 16 12  1  6
 13 14  1  0
 13 15  2  3
 17 16  1  6
 18 17  1  1
 19 20  1  0
 20 21  1  0
 20 22  2  0
 23 24  1  0
M  CHG  1  15   1
M  END
$$$$
