
     RDKit          3D

 24 26  0  0  0  0  0  0  0  0999 V2000
    6.5395  -13.1207   17.5870 O   0  0  0  0  0  0  0  0  0  0  0  0
    7.5486  -13.8872   16.9876 C   0  0  1  0  0  0  0  0  0  0  0  0
    8.8193  -13.0831   16.8864 C   0  0  0  0  0  0  0  0  0  0  0  0
    7.8446  -15.0940   17.8631 C   0  0  0  0  0  0  0  0  0  0  0  0
    7.0978  -14.2759   15.6494 C   0  0  0  0  0  0  0  0  0  0  0  0
    7.8333  -15.1657   14.9075 C   0  0  0  0  0  0  0  0  0  0  0  0
    7.3922  -15.5196   13.6505 C   0  0  0  0  0  0  0  0  0  0  0  0
    6.2412  -15.0341   13.0724 C   0  0  0  0  0  0  0  0  0  0  0  0
    5.8217  -15.4436   11.7379 C   0  0  0  0  0  0  0  0  0  0  0  0
    6.7219  -15.7319   10.7321 C   0  0  0  0  0  0  0  0  0  0  0  0
    6.3281  -16.1186    9.4697 C   0  0  0  0  0  0  0  0  0  0  0  0
    7.3041  -16.4102    8.4276 C   0  0  1  0  0  0  0  0  0  0  0  0
    7.5938  -17.8342    8.1817 C   0  0  0  0  0  0  0  0  0  0  0  0
    6.4910  -18.7213    7.8862 N   0  0  0  0  0  0  0  0  0  0  0  0
    8.7524  -18.3587    8.2162 N   0  0  0  0  0  4  0  0  0  0  0  0
    6.8562  -15.7524    7.0994 C   0  0  0  0  0  0  0  0  0  0  0  0
    8.3621  -15.6474    6.8105 C   0  0  0  0  0  0  0  0  0  0  0  0
    8.5070  -15.5424    8.3375 C   0  0  0  0  0  0  0  0  0  0  0  0
    4.9831  -16.2187    9.2091 C   0  0  0  0  0  0  0  0  0  0  0  0
    4.0259  -15.9407   10.1841 C   0  0  0  0  0  0  0  0  0  0  0  0
    2.3203  -16.0755    9.8276 Cl  0  0  0  0  0  0  0  0  0  0  0  0
    4.4854  -15.5595   11.4251 C   0  0  0  0  0  0  0  0  0  0  0  0
    5.5080  -14.1421   13.8214 C   0  0  0  0  0  0  0  0  0  0  0  0
    5.9237  -13.7694   15.0814 C   0  0  0  0  0  0  0  0  0  0  0  0
  2  1  1  1
  3  2  1  1
  4  2  1  1
  2  5  1  0
  5 24  2  0
  5  6  1  0
  6  7  2  0
  7  8  1  0
  8  9  1  0
  8 23  2  0
  9 22  1  0
  9 10  2  0
 10 11  1  0
 12 11  1  1
 11 19  2  0
 12 18  1  0
 12 13  1  0
 16 12  1  6
 13 14  1  0
 13 15  2  3
 17 16  1  6
 18 17  1  1
 19 20  1  0
 20 21  1  0
 20 22  2  0
 23 24  1  0
M  CHG  1  15   1
M  END
$$$$
