
     RDKit          3D

 24 26  0  0  0  0  0  0  0  0999 V2000
    5.9493  -15.4075   16.6250 O   0  0  0  0  0  0  0  0  0  0  0  0
    5.5549  -14.2164   16.0000 C   0  0  1  0  0  0  0  0  0  0  0  0
    4.2367  -13.7485   16.5612 C   0  0  0  0  0  0  0  0  0  0  0  0
    6.5820  -13.1351   16.2941 C   0  0  0  0  0  0  0  0  0  0  0  0
    5.4216  -14.4723   14.5640 C   0  0  0  0  0  0  0  0  0  0  0  0
    5.4764  -13.4310   13.6720 C   0  0  0  0  0  0  0  0  0  0  0  0
    5.3495  -13.6922   12.3246 C   0  0  0  0  0  0  0  0  0  0  0  0
    5.1677  -14.9505   11.7971 C   0  0  0  0  0  0  0  0  0  0  0  0
    5.0397  -15.1691   10.3617 C   0  0  0  0  0  0  0  0  0  0  0  0
    6.0461  -15.7326    9.6035 C   0  0  0  0  0  0  0  0  0  0  0  0
    5.9280  -15.9398    8.2465 C   0  0  0  0  0  0  0  0  0  0  0  0
    7.0121  -16.5317    7.4732 C   0  0  1  0  0  0  0  0  0  0  0  0
    7.2544  -17.9707    7.6805 C   0  0  0  0  0  0  0  0  0  0  0  0
    8.2125  -18.3707    8.6867 N   0  0  0  0  0  0  0  0  0  0  0  0
    6.6869  -18.9063    7.0313 N   0  0  0  0  0  4  0  0  0  0  0  0
    6.7732  -16.2751    5.9651 C   0  0  0  0  0  0  0  0  0  0  0  0
    8.3070  -16.2793    5.8683 C   0  0  0  0  0  0  0  0  0  0  0  0
    8.2612  -15.7438    7.3089 C   0  0  0  0  0  0  0  0  0  0  0  0
    4.7581  -15.5676    7.6302 C   0  0  0  0  0  0  0  0  0  0  0  0
    3.7059  -14.9938    8.3426 C   0  0  0  0  0  0  0  0  0  0  0  0
    2.2272  -14.5287    7.5353 Cl  0  0  0  0  0  0  0  0  0  0  0  0
    3.8875  -14.8139    9.6958 C   0  0  0  0  0  0  0  0  0  0  0  0
    5.1136  -15.9906   12.6968 C   0  0  0  0  0  0  0  0  0  0  0  0
    5.2373  -15.7604   14.0499 C   0  0  0  0  0  0  0  0  0  0  0  0
  2  1  1  1
  3  2  1  1
  4  2  1  1
  2  5  1  0
  5 24  2  0
  5  6  1  0
  6  7  2  0
  7  8  1  0
  8  9  1  0
  8 23  2  0
  9 22  1  0
  9 10  2  0
 10 11  1  0
 12 11  1  1
 11 19  2  0
 12 18  1  0
 12 13  1  0
 16 12  1  6
 13 14  1  0
 13 15  2  3
 17 16  1  6
 18 17  1  1
 19 20  1  0
 20 21  1  0
 20 22  2  0
 23 24  1  0
M  CHG  1  15   1
M  END
$$$$
