
     RDKit          3D

 24 26  0  0  0  0  0  0  0  0999 V2000
    7.3197  -12.6062   15.1021 O   0  0  0  0  0  0  0  0  0  0  0  0
    6.0675  -13.2217   15.2367 C   0  0  1  0  0  0  0  0  0  0  0  0
    6.1640  -14.3916   16.1819 C   0  0  0  0  0  0  0  0  0  0  0  0
    5.0870  -12.2301   15.8416 C   0  0  0  0  0  0  0  0  0  0  0  0
    5.6374  -13.6838   13.9151 C   0  0  0  0  0  0  0  0  0  0  0  0
    6.1805  -13.1306   12.7828 C   0  0  0  0  0  0  0  0  0  0  0  0
    5.7632  -13.5793   11.5482 C   0  0  0  0  0  0  0  0  0  0  0  0
    4.8197  -14.5646   11.3646 C   0  0  0  0  0  0  0  0  0  0  0  0
    4.4156  -15.0011   10.0339 C   0  0  0  0  0  0  0  0  0  0  0  0
    4.3726  -16.3318    9.6699 C   0  0  0  0  0  0  0  0  0  0  0  0
    3.9917  -16.7471    8.4127 C   0  0  0  0  0  0  0  0  0  0  0  0
    3.9628  -18.1602    8.0579 C   0  0  1  0  0  0  0  0  0  0  0  0
    2.6921  -18.8687    8.2940 C   0  0  0  0  0  0  0  0  0  0  0  0
    1.9126  -18.5168    9.4597 N   0  0  0  0  0  0  0  0  0  0  0  0
    2.2196  -19.7856    7.5491 N   0  0  0  0  0  4  0  0  0  0  0  0
    4.3634  -18.3298    6.5719 C   0  0  0  0  0  0  0  0  0  0  0  0
    4.9232  -19.6869    7.0268 C   0  0  0  0  0  0  0  0  0  0  0  0
    5.1603  -18.9819    8.3724 C   0  0  0  0  0  0  0  0  0  0  0  0
    3.6420  -15.7920    7.4893 C   0  0  0  0  0  0  0  0  0  0  0  0
    3.6654  -14.4325    7.7978 C   0  0  0  0  0  0  0  0  0  0  0  0
    3.2159  -13.2365    6.6053 Cl  0  0  0  0  0  0  0  0  0  0  0  0
    4.0554  -14.0838    9.0717 C   0  0  0  0  0  0  0  0  0  0  0  0
    4.2787  -15.1154   12.5040 C   0  0  0  0  0  0  0  0  0  0  0  0
    4.6761  -14.6873   13.7522 C   0  0  0  0  0  0  0  0  0  0  0  0
  2  1  1  6
  3  2  1  1
  4  2  1  1
  2  5  1  0
  5 24  2  0
  5  6  1  0
  6  7  2  0
  7  8  1  0
  8  9  1  0
  8 23  2  0
  9 22  1  0
  9 10  2  0
 10 11  1  0
 12 11  1  1
 11 19  2  0
 12 18  1  0
 12 13  1  0
 16 12  1  6
 13 14  1  0
 13 15  2  3
 17 16  1  6
 18 17  1  1
 19 20  1  0
 20 21  1  0
 20 22  2  0
 23 24  1  0
M  CHG  1  15   1
M  END
$$$$
