
     RDKit          3D

 24 26  0  0  0  0  0  0  0  0999 V2000
   -0.0885  -15.2931   18.9369 O   0  0  0  0  0  0  0  0  0  0  0  0
    0.3987  -14.1449   19.5764 C   0  0  1  0  0  0  0  0  0  0  0  0
   -0.1618  -12.9091   18.9205 C   0  0  0  0  0  0  0  0  0  0  0  0
   -0.0701  -14.1426   21.0224 C   0  0  0  0  0  0  0  0  0  0  0  0
    1.8596  -14.1446   19.4720 C   0  0  0  0  0  0  0  0  0  0  0  0
    2.5749  -15.2592   19.8315 C   0  0  0  0  0  0  0  0  0  0  0  0
    3.9490  -15.2397   19.7255 C   0  0  0  0  0  0  0  0  0  0  0  0
    4.6722  -14.1586   19.2750 C   0  0  0  0  0  0  0  0  0  0  0  0
    6.1264  -14.1933   19.1830 C   0  0  0  0  0  0  0  0  0  0  0  0
    6.8925  -15.1125   19.8710 C   0  0  0  0  0  0  0  0  0  0  0  0
    8.2672  -15.1473   19.7863 C   0  0  0  0  0  0  0  0  0  0  0  0
    9.0478  -16.1271   20.5307 C   0  0  1  0  0  0  0  0  0  0  0  0
    8.9224  -16.0856   21.9986 C   0  0  0  0  0  0  0  0  0  0  0  0
    9.5143  -14.9749   22.7101 N   0  0  0  0  0  0  0  0  0  0  0  0
    8.3333  -16.9648   22.7049 N   0  0  0  0  0  4  0  0  0  0  0  0
    8.6972  -17.5522   20.0371 C   0  0  0  0  0  0  0  0  0  0  0  0
   10.1496  -17.8846   20.4142 C   0  0  0  0  0  0  0  0  0  0  0  0
   10.4305  -16.4133   20.0675 C   0  0  0  0  0  0  0  0  0  0  0  0
    8.8937  -14.2262   18.9824 C   0  0  0  0  0  0  0  0  0  0  0  0
    8.1741  -13.2731   18.2628 C   0  0  0  0  0  0  0  0  0  0  0  0
    8.9946  -12.1117   17.2468 Cl  0  0  0  0  0  0  0  0  0  0  0  0
    6.8031  -13.2921   18.3911 C   0  0  0  0  0  0  0  0  0  0  0  0
    3.9492  -13.0438   18.9161 C   0  0  0  0  0  0  0  0  0  0  0  0
    2.5743  -13.0336   19.0111 C   0  0  0  0  0  0  0  0  0  0  0  0
  2  1  1  6
  3  2  1  1
  4  2  1  1
  2  5  1  0
  5 24  2  0
  5  6  1  0
  6  7  2  0
  7  8  1  0
  8  9  1  0
  8 23  2  0
  9 22  1  0
  9 10  2  0
 10 11  1  0
 12 11  1  6
 11 19  2  0
 12 18  1  0
 12 13  1  0
 16 12  1  6
 13 14  1  0
 13 15  2  3
 17 16  1  6
 18 17  1  1
 19 20  1  0
 20 21  1  0
 20 22  2  0
 23 24  1  0
M  CHG  1  15   1
M  END
$$$$
