
     RDKit          3D

 24 26  0  0  0  0  0  0  0  0999 V2000
    7.1184  -18.1909    5.0093 O   0  0  0  0  0  0  0  0  0  0  0  0
    8.1834  -17.7252    5.7927 C   0  0  1  0  0  0  0  0  0  0  0  0
    9.1319  -18.8548    6.1021 C   0  0  0  0  0  0  0  0  0  0  0  0
    8.9616  -16.6824    5.0069 C   0  0  0  0  0  0  0  0  0  0  0  0
    7.6356  -17.1803    7.0370 C   0  0  0  0  0  0  0  0  0  0  0  0
    6.3080  -17.3534    7.3378 C   0  0  0  0  0  0  0  0  0  0  0  0
    5.8114  -16.8337    8.5139 C   0  0  0  0  0  0  0  0  0  0  0  0
    6.5681  -16.1379    9.4293 C   0  0  0  0  0  0  0  0  0  0  0  0
    5.9901  -15.6100   10.6589 C   0  0  0  0  0  0  0  0  0  0  0  0
    6.7609  -15.0833   11.6756 C   0  0  0  0  0  0  0  0  0  0  0  0
    6.2173  -14.5843   12.8390 C   0  0  0  0  0  0  0  0  0  0  0  0
    7.0595  -14.0404   13.8966 C   0  0  1  0  0  0  0  0  0  0  0  0
    7.9926  -14.9825   14.5402 C   0  0  0  0  0  0  0  0  0  0  0  0
    7.4592  -15.9593   15.4629 N   0  0  0  0  0  0  0  0  0  0  0  0
    9.2511  -15.0031   14.3543 N   0  0  0  0  0  4  0  0  0  0  0  0
    7.8613  -12.8333   13.3514 C   0  0  0  0  0  0  0  0  0  0  0  0
    7.7780  -12.3099   14.7941 C   0  0  0  0  0  0  0  0  0  0  0  0
    6.4472  -13.0779   14.8489 C   0  0  0  0  0  0  0  0  0  0  0  0
    4.8518  -14.6157   12.9858 C   0  0  0  0  0  0  0  0  0  0  0  0
    4.0208  -15.1350   11.9940 C   0  0  0  0  0  0  0  0  0  0  0  0
    2.2861  -15.1638   12.2046 Cl  0  0  0  0  0  0  0  0  0  0  0  0
    4.6269  -15.6179   10.8556 C   0  0  0  0  0  0  0  0  0  0  0  0
    7.8988  -15.9676    9.1220 C   0  0  0  0  0  0  0  0  0  0  0  0
    8.4239  -16.4759    7.9535 C   0  0  0  0  0  0  0  0  0  0  0  0
  2  1  1  6
  3  2  1  1
  4  2  1  1
  2  5  1  0
  5 24  2  0
  5  6  1  0
  6  7  2  0
  7  8  1  0
  8  9  1  0
  8 23  2  0
  9 22  1  0
  9 10  2  0
 10 11  1  0
 12 11  1  6
 11 19  2  0
 12 18  1  0
 12 13  1  0
 16 12  1  6
 13 14  1  0
 13 15  2  3
 17 16  1  6
 18 17  1  1
 19 20  1  0
 20 21  1  0
 20 22  2  0
 23 24  1  0
M  CHG  1  15   1
M  END
$$$$
