
     RDKit          3D

 24 26  0  0  0  0  0  0  0  0999 V2000
    9.6724  -17.0723    5.7994 O   0  0  0  0  0  0  0  0  0  0  0  0
    8.2921  -17.1180    5.5594 C   0  0  1  0  0  0  0  0  0  0  0  0
    7.9412  -16.2430    4.3835 C   0  0  0  0  0  0  0  0  0  0  0  0
    7.8954  -18.5407    5.2000 C   0  0  0  0  0  0  0  0  0  0  0  0
    7.6003  -16.6406    6.7589 C   0  0  0  0  0  0  0  0  0  0  0  0
    6.2347  -16.7394    6.8503 C   0  0  0  0  0  0  0  0  0  0  0  0
    5.6020  -16.2850    7.9874 C   0  0  0  0  0  0  0  0  0  0  0  0
    6.2557  -15.7267    9.0624 C   0  0  0  0  0  0  0  0  0  0  0  0
    5.5352  -15.2626   10.2414 C   0  0  0  0  0  0  0  0  0  0  0  0
    6.1702  -14.9630   11.4298 C   0  0  0  0  0  0  0  0  0  0  0  0
    5.4916  -14.5248   12.5459 C   0  0  0  0  0  0  0  0  0  0  0  0
    6.1912  -14.2226   13.7880 C   0  0  1  0  0  0  0  0  0  0  0  0
    5.8416  -15.0523   14.9549 C   0  0  0  0  0  0  0  0  0  0  0  0
    5.4468  -16.4251   14.7316 N   0  0  0  0  0  0  0  0  0  0  0  0
    5.8509  -14.6521   16.1627 N   0  0  0  0  0  4  0  0  0  0  0  0
    7.7198  -14.3031   13.5547 C   0  0  0  0  0  0  0  0  0  0  0  0
    7.7986  -13.2274   14.6496 C   0  0  0  0  0  0  0  0  0  0  0  0
    6.4179  -12.7944   14.1300 C   0  0  0  0  0  0  0  0  0  0  0  0
    4.1277  -14.3830   12.4649 C   0  0  0  0  0  0  0  0  0  0  0  0
    3.4303  -14.6698   11.2922 C   0  0  0  0  0  0  0  0  0  0  0  0
    1.6945  -14.4813   11.2145 Cl  0  0  0  0  0  0  0  0  0  0  0  0
    4.1674  -15.1035   10.2128 C   0  0  0  0  0  0  0  0  0  0  0  0
    7.6252  -15.6304    8.9648 C   0  0  0  0  0  0  0  0  0  0  0  0
    8.2856  -16.0761    7.8402 C   0  0  0  0  0  0  0  0  0  0  0  0
  2  1  1  1
  3  2  1  1
  4  2  1  1
  2  5  1  0
  5 24  2  0
  5  6  1  0
  6  7  2  0
  7  8  1  0
  8  9  1  0
  8 23  2  0
  9 22  1  0
  9 10  2  0
 10 11  1  0
 12 11  1  6
 11 19  2  0
 12 18  1  0
 12 13  1  0
 16 12  1  6
 13 14  1  0
 13 15  2  3
 17 16  1  6
 18 17  1  1
 19 20  1  0
 20 21  1  0
 20 22  2  0
 23 24  1  0
M  CHG  1  15   1
M  END
$$$$
