
     RDKit          3D

 24 26  0  0  0  0  0  0  0  0999 V2000
   10.9800   -3.8827   -2.2356 O   0  0  0  0  0  0  0  0  0  0  0  0
   10.2821   -4.5561   -3.2478 C   0  0  1  0  0  0  0  0  0  0  0  0
   10.3626   -3.7801   -4.5373 C   0  0  0  0  0  0  0  0  0  0  0  0
   10.9358   -5.9069   -3.4903 C   0  0  0  0  0  0  0  0  0  0  0  0
    8.8837   -4.6885   -2.8331 C   0  0  0  0  0  0  0  0  0  0  0  0
    8.4939   -4.2705   -1.5855 C   0  0  0  0  0  0  0  0  0  0  0  0
    7.1733   -4.4029   -1.2138 C   0  0  0  0  0  0  0  0  0  0  0  0
    6.1948   -4.9361   -2.0219 C   0  0  0  0  0  0  0  0  0  0  0  0
    4.8117   -5.0520   -1.5769 C   0  0  0  0  0  0  0  0  0  0  0  0
    3.7423   -4.7037   -2.3771 C   0  0  0  0  0  0  0  0  0  0  0  0
    2.4340   -4.8116   -1.9589 C   0  0  0  0  0  0  0  0  0  0  0  0
    1.3272   -4.4295   -2.8263 C   0  0  1  0  0  0  0  0  0  0  0  0
    0.9180   -5.4183   -3.8398 C   0  0  0  0  0  0  0  0  0  0  0  0
    0.4648   -6.7165   -3.3931 N   0  0  0  0  0  0  0  0  0  0  0  0
    0.9381   -5.2243   -5.0971 N   0  0  0  0  0  4  0  0  0  0  0  0
    0.0970   -4.0569   -1.9632 C   0  0  0  0  0  0  0  0  0  0  0  0
   -0.2409   -3.0977   -3.1156 C   0  0  0  0  0  0  0  0  0  0  0  0
    1.2813   -3.0289   -3.3207 C   0  0  0  0  0  0  0  0  0  0  0  0
    2.1921   -5.2859   -0.6926 C   0  0  0  0  0  0  0  0  0  0  0  0
    3.2305   -5.6538    0.1621 C   0  0  0  0  0  0  0  0  0  0  0  0
    2.8966   -6.2545    1.7690 Cl  0  0  0  0  0  0  0  0  0  0  0  0
    4.5150   -5.5219   -0.3167 C   0  0  0  0  0  0  0  0  0  0  0  0
    6.5919   -5.3535   -3.2719 C   0  0  0  0  0  0  0  0  0  0  0  0
    7.9054   -5.2339   -3.6716 C   0  0  0  0  0  0  0  0  0  0  0  0
  2  1  1  1
  3  2  1  1
  4  2  1  1
  2  5  1  0
  5 24  2  0
  5  6  1  0
  6  7  2  0
  7  8  1  0
  8  9  1  0
  8 23  2  0
  9 22  1  0
  9 10  2  0
 10 11  1  0
 12 11  1  1
 11 19  2  0
 12 18  1  0
 12 13  1  0
 16 12  1  6
 13 14  1  0
 13 15  2  3
 17 16  1  6
 18 17  1  1
 19 20  1  0
 20 21  1  0
 20 22  2  0
 23 24  1  0
M  CHG  1  15   1
M  END
$$$$
