
     RDKit          3D

 24 26  0  0  0  0  0  0  0  0999 V2000
   12.0924  -20.3129    9.6044 O   0  0  0  0  0  0  0  0  0  0  0  0
   11.8828  -19.3669    8.5914 C   0  0  1  0  0  0  0  0  0  0  0  0
   12.8727  -18.2382    8.7234 C   0  0  0  0  0  0  0  0  0  0  0  0
   12.1202  -20.0221    7.2405 C   0  0  0  0  0  0  0  0  0  0  0  0
   10.5184  -18.8499    8.7196 C   0  0  0  0  0  0  0  0  0  0  0  0
    9.6603  -19.3949    9.6414 C   0  0  0  0  0  0  0  0  0  0  0  0
    8.3805  -18.8942    9.7474 C   0  0  0  0  0  0  0  0  0  0  0  0
    7.8898  -17.8637    8.9782 C   0  0  0  0  0  0  0  0  0  0  0  0
    6.5260  -17.3731    9.1332 C   0  0  0  0  0  0  0  0  0  0  0  0
    6.2416  -16.0904    9.5561 C   0  0  0  0  0  0  0  0  0  0  0  0
    4.9536  -15.6243    9.7041 C   0  0  0  0  0  0  0  0  0  0  0  0
    4.6869  -14.2657   10.1588 C   0  0  1  0  0  0  0  0  0  0  0  0
    4.4265  -13.2635    9.1099 C   0  0  0  0  0  0  0  0  0  0  0  0
    5.5317  -12.4642    8.6303 N   0  0  0  0  0  0  0  0  0  0  0  0
    3.2892  -13.0335    8.5879 N   0  0  0  0  0  4  0  0  0  0  0  0
    3.4979  -14.2750   11.1505 C   0  0  0  0  0  0  0  0  0  0  0  0
    4.2055  -13.0683   11.7869 C   0  0  0  0  0  0  0  0  0  0  0  0
    5.4965  -13.7375   11.2874 C   0  0  0  0  0  0  0  0  0  0  0  0
    3.9154  -16.4769    9.4173 C   0  0  0  0  0  0  0  0  0  0  0  0
    4.1394  -17.7838    8.9860 C   0  0  0  0  0  0  0  0  0  0  0  0
    2.8014  -18.8494    8.6274 Cl  0  0  0  0  0  0  0  0  0  0  0  0
    5.4498  -18.1876    8.8586 C   0  0  0  0  0  0  0  0  0  0  0  0
    8.7552  -17.3212    8.0556 C   0  0  0  0  0  0  0  0  0  0  0  0
   10.0407  -17.8009    7.9266 C   0  0  0  0  0  0  0  0  0  0  0  0
  2  1  1  1
  3  2  1  1
  4  2  1  1
  2  5  1  0
  5 24  2  0
  5  6  1  0
  6  7  2  0
  7  8  1  0
  8  9  1  0
  8 23  2  0
  9 22  1  0
  9 10  2  0
 10 11  1  0
 12 11  1  6
 11 19  2  0
 12 18  1  0
 12 13  1  0
 16 12  1  6
 13 14  1  0
 13 15  2  3
 17 16  1  6
 18 17  1  1
 19 20  1  0
 20 21  1  0
 20 22  2  0
 23 24  1  0
M  CHG  1  15   1
M  END
$$$$
