
     RDKit          3D

 24 26  0  0  0  0  0  0  0  0999 V2000
    8.6978   -1.6687   -9.4825 O   0  0  0  0  0  0  0  0  0  0  0  0
    8.0822   -1.7676   -8.2271 C   0  0  1  0  0  0  0  0  0  0  0  0
    8.0678   -0.4215   -7.5494 C   0  0  0  0  0  0  0  0  0  0  0  0
    6.6358   -2.1965   -8.4134 C   0  0  0  0  0  0  0  0  0  0  0  0
    8.8395   -2.7245   -7.4171 C   0  0  0  0  0  0  0  0  0  0  0  0
    8.4085   -3.0505   -6.1558 C   0  0  0  0  0  0  0  0  0  0  0  0
    9.1345   -3.9535   -5.4093 C   0  0  0  0  0  0  0  0  0  0  0  0
   10.2868   -4.5658   -5.8474 C   0  0  0  0  0  0  0  0  0  0  0  0
   11.0153   -5.5146   -5.0146 C   0  0  0  0  0  0  0  0  0  0  0  0
   11.4622   -5.2001   -3.7471 C   0  0  0  0  0  0  0  0  0  0  0  0
   12.1515   -6.0947   -2.9581 C   0  0  0  0  0  0  0  0  0  0  0  0
   12.6155   -5.7293   -1.6259 C   0  0  1  0  0  0  0  0  0  0  0  0
   14.0585   -5.4646   -1.4848 C   0  0  0  0  0  0  0  0  0  0  0  0
   14.4911   -4.1037   -1.2584 N   0  0  0  0  0  0  0  0  0  0  0  0
   14.9717   -6.3478   -1.5546 N   0  0  0  0  0  4  0  0  0  0  0  0
   11.8272   -4.4951   -1.1230 C   0  0  0  0  0  0  0  0  0  0  0  0
   12.0498   -5.1009    0.2719 C   0  0  0  0  0  0  0  0  0  0  0  0
   12.0346   -6.4508   -0.4639 C   0  0  0  0  0  0  0  0  0  0  0  0
   12.4004   -7.3489   -3.4602 C   0  0  0  0  0  0  0  0  0  0  0  0
   11.9741   -7.7255   -4.7332 C   0  0  0  0  0  0  0  0  0  0  0  0
   12.3032   -9.3274   -5.3496 Cl  0  0  0  0  0  0  0  0  0  0  0  0
   11.2904   -6.7848   -5.4708 C   0  0  0  0  0  0  0  0  0  0  0  0
   10.7140   -4.2347   -7.1132 C   0  0  0  0  0  0  0  0  0  0  0  0
   10.0089   -3.3350   -7.8831 C   0  0  0  0  0  0  0  0  0  0  0  0
  2  1  1  6
  3  2  1  1
  4  2  1  1
  2  5  1  0
  5 24  2  0
  5  6  1  0
  6  7  2  0
  7  8  1  0
  8  9  1  0
  8 23  2  0
  9 22  1  0
  9 10  2  0
 10 11  1  0
 12 11  1  6
 11 19  2  0
 12 18  1  0
 12 13  1  0
 16 12  1  6
 13 14  1  0
 13 15  2  3
 17 16  1  6
 18 17  1  1
 19 20  1  0
 20 21  1  0
 20 22  2  0
 23 24  1  0
M  CHG  1  15   1
M  END
$$$$
