
     RDKit          3D

 24 26  0  0  0  0  0  0  0  0999 V2000
    6.8601  -12.8030   14.4063 O   0  0  0  0  0  0  0  0  0  0  0  0
    5.9742  -13.8467   14.7075 C   0  0  1  0  0  0  0  0  0  0  0  0
    6.6297  -14.8288   15.6442 C   0  0  0  0  0  0  0  0  0  0  0  0
    4.7597  -13.2787   15.4238 C   0  0  0  0  0  0  0  0  0  0  0  0
    5.6113  -14.5177   13.4572 C   0  0  0  0  0  0  0  0  0  0  0  0
    6.1070  -14.0602   12.2622 C   0  0  0  0  0  0  0  0  0  0  0  0
    5.7544  -14.7055   11.0964 C   0  0  0  0  0  0  0  0  0  0  0  0
    4.9221  -15.8005   11.0429 C   0  0  0  0  0  0  0  0  0  0  0  0
    4.5825  -16.4446    9.7803 C   0  0  0  0  0  0  0  0  0  0  0  0
    4.5077  -15.7512    8.5892 C   0  0  0  0  0  0  0  0  0  0  0  0
    4.1863  -16.3574    7.3944 C   0  0  0  0  0  0  0  0  0  0  0  0
    4.1096  -15.5954    6.1547 C   0  0  1  0  0  0  0  0  0  0  0  0
    2.7680  -15.1403    5.7478 C   0  0  0  0  0  0  0  0  0  0  0  0
    1.8575  -16.1051    5.1730 N   0  0  0  0  0  0  0  0  0  0  0  0
    2.3398  -13.9470    5.8547 N   0  0  0  0  0  4  0  0  0  0  0  0
    5.0509  -14.3691    6.2408 C   0  0  0  0  0  0  0  0  0  0  0  0
    5.1855  -14.5461    4.7201 C   0  0  0  0  0  0  0  0  0  0  0  0
    4.9510  -16.0373    5.0123 C   0  0  0  0  0  0  0  0  0  0  0  0
    3.9313  -17.7072    7.3968 C   0  0  0  0  0  0  0  0  0  0  0  0
    3.9913  -18.4614    8.5679 C   0  0  0  0  0  0  0  0  0  0  0  0
    3.6625  -20.1777    8.5448 Cl  0  0  0  0  0  0  0  0  0  0  0  0
    4.3180  -17.7954    9.7282 C   0  0  0  0  0  0  0  0  0  0  0  0
    4.4281  -16.2546   12.2446 C   0  0  0  0  0  0  0  0  0  0  0  0
    4.7630  -15.6299   13.4266 C   0  0  0  0  0  0  0  0  0  0  0  0
  2  1  1  6
  3  2  1  1
  4  2  1  1
  2  5  1  0
  5 24  2  0
  5  6  1  0
  6  7  2  0
  7  8  1  0
  8  9  1  0
  8 23  2  0
  9 22  1  0
  9 10  2  0
 10 11  1  0
 12 11  1  1
 11 19  2  0
 12 18  1  0
 12 13  1  0
 16 12  1  6
 13 14  1  0
 13 15  2  3
 17 16  1  6
 18 17  1  1
 19 20  1  0
 20 21  1  0
 20 22  2  0
 23 24  1  0
M  CHG  1  15   1
M  END
$$$$
