
     RDKit          3D

 11 10  0  0  0  0  0  0  0  0999 V2000
  -29.4564  -37.5664   37.0604 C   0  0  0  0  0  0  0  0  0  0  0  0
  -28.9451  -38.6452   36.1420 C   0  0  0  0  0  0  0  0  0  0  0  0
  -27.4372  -38.6974   36.2801 C   0  0  0  0  0  0  0  0  0  0  0  0
  -25.9691  -39.7503   34.8090 C   0  0  0  0  0  0  0  0  0  0  0  0
  -24.5212  -39.3782   35.0166 C   0  0  0  0  0  0  0  0  0  0  0  0
  -23.6018  -40.0260   34.0349 C   0  0  0  0  0  0  0  0  0  0  0  0
  -22.2259  -39.4153   34.0067 C   0  0  0  0  0  0  0  0  0  0  0  0
  -21.3020  -40.1051   33.0476 C   0  0  0  0  0  0  0  0  0  0  0  0
  -30.9042  -37.5540   37.1488 N   0  0  0  0  0  4  0  0  0  0  0  0
  -26.8492  -38.6095   34.9681 N   0  0  0  0  0  4  0  0  0  0  0  0
  -19.6594  -39.3113   33.2227 S   0  0  0  0  0  0  0  0  0  0  0  0
  2  1  1  0
  1  9  1  0
  3  2  1  0
 10  3  1  0
  4  5  1  0
  4 10  1  0
  5  6  1  0
  6  7  1  0
  7  8  1  0
  8 11  1  0
M  CHG  2   9   1  10   1
M  END
$$$$
