
     RDKit          3D

 11 10  0  0  0  0  0  0  0  0999 V2000
   -3.0948  -12.3537   39.1355 C   0  0  0  0  0  0  0  0  0  0  0  0
   -1.7446  -12.8190   39.6144 C   0  0  0  0  0  0  0  0  0  0  0  0
   -1.8105  -14.3207   39.8038 C   0  0  0  0  0  0  0  0  0  0  0  0
   -0.1455  -15.5967   38.7901 C   0  0  0  0  0  0  0  0  0  0  0  0
    0.3315  -16.3396   37.5659 C   0  0  0  0  0  0  0  0  0  0  0  0
    1.6581  -16.9968   37.7575 C   0  0  0  0  0  0  0  0  0  0  0  0
    2.1437  -17.7368   36.5396 C   0  0  0  0  0  0  0  0  0  0  0  0
    3.4569  -18.4263   36.7619 C   0  0  0  0  0  0  0  0  0  0  0  0
   -3.1659  -10.9119   38.9936 N   0  0  0  0  0  4  0  0  0  0  0  0
   -1.4291  -14.9598   38.5706 N   0  0  0  0  0  4  0  0  0  0  0  0
    3.8656  -19.3118   35.2103 S   0  0  0  0  0  0  0  0  0  0  0  0
  2  1  1  0
  1  9  1  0
  3  2  1  0
 10  3  1  0
  4  5  1  0
  4 10  1  0
  5  6  1  0
  6  7  1  0
  7  8  1  0
  8 11  1  0
M  CHG  2   9   1  10   1
M  END
$$$$
