
     RDKit          3D

 11 10  0  0  0  0  0  0  0  0999 V2000
  -20.0721  -39.9783   33.7521 C   0  0  0  0  0  0  0  0  0  0  0  0
  -21.3028  -39.1269   33.5812 C   0  0  0  0  0  0  0  0  0  0  0  0
  -22.5068  -39.9717   33.9446 C   0  0  0  0  0  0  0  0  0  0  0  0
  -24.4813  -38.8009   34.3435 C   0  0  0  0  0  0  0  0  0  0  0  0
  -25.7106  -39.4337   34.9487 C   0  0  0  0  0  0  0  0  0  0  0  0
  -26.9421  -39.2239   34.1313 C   0  0  0  0  0  0  0  0  0  0  0  0
  -27.6062  -40.5061   33.7052 C   0  0  0  0  0  0  0  0  0  0  0  0
  -28.8528  -40.2779   32.9032 C   0  0  0  0  0  0  0  0  0  0  0  0
  -18.8621  -39.2923   33.3409 N   0  0  0  0  0  4  0  0  0  0  0  0
  -23.2630  -39.2863   34.9612 N   0  0  0  0  0  4  0  0  0  0  0  0
  -29.3328  -41.8959   32.1887 S   0  0  0  0  0  0  0  0  0  0  0  0
  2  1  1  0
  1  9  1  0
  3  2  1  0
 10  3  1  0
  4  5  1  0
  4 10  1  0
  5  6  1  0
  6  7  1  0
  7  8  1  0
  8 11  1  0
M  CHG  2   9   1  10   1
M  END
$$$$
