
     RDKit          3D

 11 10  0  0  0  0  0  0  0  0999 V2000
  -29.6320  -38.8673   36.6848 C   0  0  0  0  0  0  0  0  0  0  0  0
  -28.7928  -38.0700   35.7210 C   0  0  0  0  0  0  0  0  0  0  0  0
  -27.9840  -39.0460   34.8911 C   0  0  0  0  0  0  0  0  0  0  0  0
  -25.8543  -38.2327   34.4104 C   0  0  0  0  0  0  0  0  0  0  0  0
  -24.7763  -39.0452   33.7353 C   0  0  0  0  0  0  0  0  0  0  0  0
  -23.6758  -39.4454   34.6613 C   0  0  0  0  0  0  0  0  0  0  0  0
  -22.5202  -40.1158   33.9672 C   0  0  0  0  0  0  0  0  0  0  0  0
  -21.2084  -39.4401   34.2349 C   0  0  0  0  0  0  0  0  0  0  0  0
  -29.7492  -38.2251   37.9801 N   0  0  0  0  0  4  0  0  0  0  0  0
  -26.6196  -39.0256   35.3523 N   0  0  0  0  0  4  0  0  0  0  0  0
  -20.0800  -39.9011   32.8664 S   0  0  0  0  0  0  0  0  0  0  0  0
  2  1  1  0
  1  9  1  0
  3  2  1  0
 10  3  1  0
  4  5  1  0
  4 10  1  0
  5  6  1  0
  6  7  1  0
  7  8  1  0
  8 11  1  0
M  CHG  2   9   1  10   1
M  END
$$$$
