
     RDKit          3D

 11 10  0  0  0  0  0  0  0  0999 V2000
  -19.8214  -39.5031   33.7136 C   0  0  0  0  0  0  0  0  0  0  0  0
  -20.8639  -39.6070   34.7958 C   0  0  0  0  0  0  0  0  0  0  0  0
  -21.9116  -38.5439   34.5358 C   0  0  0  0  0  0  0  0  0  0  0  0
  -24.1138  -38.9039   35.2057 C   0  0  0  0  0  0  0  0  0  0  0  0
  -25.4759  -38.5917   34.6355 C   0  0  0  0  0  0  0  0  0  0  0  0
  -26.5645  -39.4266   35.2242 C   0  0  0  0  0  0  0  0  0  0  0  0
  -27.8934  -39.2519   34.5386 C   0  0  0  0  0  0  0  0  0  0  0  0
  -28.9584  -40.1493   35.0949 C   0  0  0  0  0  0  0  0  0  0  0  0
  -19.9735  -40.5270   32.6974 N   0  0  0  0  0  4  0  0  0  0  0  0
  -23.1447  -39.1902   34.1663 N   0  0  0  0  0  4  0  0  0  0  0  0
  -30.4934  -39.8045   34.1548 S   0  0  0  0  0  0  0  0  0  0  0  0
  2  1  1  0
  1  9  1  0
  3  2  1  0
 10  3  1  0
  4  5  1  0
  4 10  1  0
  5  6  1  0
  6  7  1  0
  7  8  1  0
  8 11  1  0
M  CHG  2   9   1  10   1
M  END
$$$$
