
     RDKit          3D

 11 10  0  0  0  0  0  0  0  0999 V2000
  -20.4457  -39.5764   33.8265 C   0  0  0  0  0  0  0  0  0  0  0  0
  -21.7250  -39.6624   33.0362 C   0  0  0  0  0  0  0  0  0  0  0  0
  -22.6895  -38.6389   33.5999 C   0  0  0  0  0  0  0  0  0  0  0  0
  -24.3064  -38.9532   35.2476 C   0  0  0  0  0  0  0  0  0  0  0  0
  -25.0514  -39.6056   34.1087 C   0  0  0  0  0  0  0  0  0  0  0  0
  -26.5194  -39.7184   34.3553 C   0  0  0  0  0  0  0  0  0  0  0  0
  -27.2609  -40.4292   33.2545 C   0  0  0  0  0  0  0  0  0  0  0  0
  -28.7251  -40.5801   33.5415 C   0  0  0  0  0  0  0  0  0  0  0  0
  -19.3389  -40.2391   33.1632 N   0  0  0  0  0  4  0  0  0  0  0  0
  -22.8783  -38.9048   35.0029 N   0  0  0  0  0  4  0  0  0  0  0  0
  -29.4386  -41.5714   32.1751 S   0  0  0  0  0  0  0  0  0  0  0  0
  2  1  1  0
  1  9  1  0
  3  2  1  0
 10  3  1  0
  4  5  1  0
  4 10  1  0
  5  6  1  0
  6  7  1  0
  7  8  1  0
  8 11  1  0
M  CHG  2   9   1  10   1
M  END
$$$$
