
     RDKit          3D

 11 10  0  0  0  0  0  0  0  0999 V2000
   -1.7278  -17.6260   38.7517 C   0  0  0  0  0  0  0  0  0  0  0  0
   -2.7553  -17.7027   37.6530 C   0  0  0  0  0  0  0  0  0  0  0  0
   -2.2829  -18.7311   36.6456 C   0  0  0  0  0  0  0  0  0  0  0  0
   -2.5242  -20.9632   36.0233 C   0  0  0  0  0  0  0  0  0  0  0  0
   -3.1759  -21.3355   34.7137 C   0  0  0  0  0  0  0  0  0  0  0  0
   -4.2916  -22.3149   34.8705 C   0  0  0  0  0  0  0  0  0  0  0  0
   -4.5670  -23.1164   33.6261 C   0  0  0  0  0  0  0  0  0  0  0  0
   -4.4888  -24.5961   33.8570 C   0  0  0  0  0  0  0  0  0  0  0  0
   -2.0383  -16.6013   39.7302 N   0  0  0  0  0  4  0  0  0  0  0  0
   -3.1931  -19.8474   36.6626 N   0  0  0  0  0  4  0  0  0  0  0  0
   -5.2757  -25.4052   32.4131 S   0  0  0  0  0  0  0  0  0  0  0  0
  2  1  1  0
  1  9  1  0
  3  2  1  0
 10  3  1  0
  4  5  1  0
  4 10  1  0
  5  6  1  0
  6  7  1  0
  7  8  1  0
  8 11  1  0
M  CHG  2   9   1  10   1
M  END
$$$$
