
     RDKit          3D

 11 10  0  0  0  0  0  0  0  0999 V2000
  -29.3932  -37.6089   37.4401 C   0  0  0  0  0  0  0  0  0  0  0  0
  -28.1856  -38.5037   37.3418 C   0  0  0  0  0  0  0  0  0  0  0  0
  -27.6804  -38.4478   35.9145 C   0  0  0  0  0  0  0  0  0  0  0  0
  -26.0613  -39.2204   34.4279 C   0  0  0  0  0  0  0  0  0  0  0  0
  -24.6261  -38.7595   34.3526 C   0  0  0  0  0  0  0  0  0  0  0  0
  -23.6657  -39.8707   34.0851 C   0  0  0  0  0  0  0  0  0  0  0  0
  -22.2224  -39.4491   34.1617 C   0  0  0  0  0  0  0  0  0  0  0  0
  -21.2721  -40.5632   33.8379 C   0  0  0  0  0  0  0  0  0  0  0  0
  -29.7324  -37.2846   38.8126 N   0  0  0  0  0  4  0  0  0  0  0  0
  -26.5306  -39.3075   35.7967 N   0  0  0  0  0  4  0  0  0  0  0  0
  -19.6483  -39.7936   33.4776 S   0  0  0  0  0  0  0  0  0  0  0  0
  2  1  1  0
  1  9  1  0
  3  2  1  0
 10  3  1  0
  4  5  1  0
  4 10  1  0
  5  6  1  0
  6  7  1  0
  7  8  1  0
  8 11  1  0
M  CHG  2   9   1  10   1
M  END
$$$$
