
     RDKit          3D

 11 10  0  0  0  0  0  0  0  0999 V2000
  -30.4653  -38.6698   35.7710 C   0  0  0  0  0  0  0  0  0  0  0  0
  -29.5784  -38.3506   34.5961 C   0  0  0  0  0  0  0  0  0  0  0  0
  -28.1894  -38.0606   35.1273 C   0  0  0  0  0  0  0  0  0  0  0  0
  -26.1514  -39.1796   34.9765 C   0  0  0  0  0  0  0  0  0  0  0  0
  -24.9106  -39.4058   34.1476 C   0  0  0  0  0  0  0  0  0  0  0  0
  -23.7843  -40.0001   34.9267 C   0  0  0  0  0  0  0  0  0  0  0  0
  -22.6035  -40.3865   34.0763 C   0  0  0  0  0  0  0  0  0  0  0  0
  -21.3115  -39.8141   34.5787 C   0  0  0  0  0  0  0  0  0  0  0  0
  -31.3216  -39.8143   35.5242 N   0  0  0  0  0  4  0  0  0  0  0  0
  -27.2205  -38.5845   34.1991 N   0  0  0  0  0  4  0  0  0  0  0  0
  -20.2021  -39.6448   33.1298 S   0  0  0  0  0  0  0  0  0  0  0  0
  2  1  1  0
  1  9  1  0
  3  2  1  0
 10  3  1  0
  4  5  1  0
  4 10  1  0
  5  6  1  0
  6  7  1  0
  7  8  1  0
  8 11  1  0
M  CHG  2   9   1  10   1
M  END
$$$$
