
     RDKit          3D

 11 10  0  0  0  0  0  0  0  0999 V2000
  -29.8702  -39.5370   33.6042 C   0  0  0  0  0  0  0  0  0  0  0  0
  -28.6879  -38.6378   33.8541 C   0  0  0  0  0  0  0  0  0  0  0  0
  -27.5207  -39.5093   34.2708 C   0  0  0  0  0  0  0  0  0  0  0  0
  -25.5912  -39.6232   35.5716 C   0  0  0  0  0  0  0  0  0  0  0  0
  -24.5047  -39.5039   34.5308 C   0  0  0  0  0  0  0  0  0  0  0  0
  -23.2871  -40.3031   34.8586 C   0  0  0  0  0  0  0  0  0  0  0  0
  -22.2036  -40.2017   33.8181 C   0  0  0  0  0  0  0  0  0  0  0  0
  -20.8843  -39.7762   34.3904 C   0  0  0  0  0  0  0  0  0  0  0  0
  -30.9800  -38.8350   32.9881 N   0  0  0  0  0  4  0  0  0  0  0  0
  -26.7402  -38.7993   35.2513 N   0  0  0  0  0  4  0  0  0  0  0  0
  -19.6651  -39.8323   33.0233 S   0  0  0  0  0  0  0  0  0  0  0  0
  2  1  1  0
  1  9  1  0
  3  2  1  0
 10  3  1  0
  4  5  1  0
  4 10  1  0
  5  6  1  0
  6  7  1  0
  7  8  1  0
  8 11  1  0
M  CHG  2   9   1  10   1
M  END
$$$$
