
     RDKit          3D

 11 10  0  0  0  0  0  0  0  0999 V2000
  -29.6664  -38.1504   33.9906 C   0  0  0  0  0  0  0  0  0  0  0  0
  -28.7313  -39.2346   33.5225 C   0  0  0  0  0  0  0  0  0  0  0  0
  -27.3185  -38.8122   33.8703 C   0  0  0  0  0  0  0  0  0  0  0  0
  -25.6303  -39.0029   35.4647 C   0  0  0  0  0  0  0  0  0  0  0  0
  -24.8104  -39.5789   34.3361 C   0  0  0  0  0  0  0  0  0  0  0  0
  -23.4575  -40.0388   34.7684 C   0  0  0  0  0  0  0  0  0  0  0  0
  -22.3420  -39.5287   33.8954 C   0  0  0  0  0  0  0  0  0  0  0  0
  -21.0050  -40.0978   34.2665 C   0  0  0  0  0  0  0  0  0  0  0  0
  -30.6634  -38.6425   34.9221 N   0  0  0  0  0  4  0  0  0  0  0  0
  -27.0527  -39.1698   35.2401 N   0  0  0  0  0  4  0  0  0  0  0  0
  -19.7705  -39.3392   33.1442 S   0  0  0  0  0  0  0  0  0  0  0  0
  2  1  1  0
  1  9  1  0
  3  2  1  0
 10  3  1  0
  4  5  1  0
  4 10  1  0
  5  6  1  0
  6  7  1  0
  7  8  1  0
  8 11  1  0
M  CHG  2   9   1  10   1
M  END
$$$$
