
     RDKit          3D

 11 10  0  0  0  0  0  0  0  0999 V2000
  -20.7805  -39.3210   33.1220 C   0  0  0  0  0  0  0  0  0  0  0  0
  -21.7635  -40.1139   33.9428 C   0  0  0  0  0  0  0  0  0  0  0  0
  -23.0954  -39.3932   33.8972 C   0  0  0  0  0  0  0  0  0  0  0  0
  -24.7414  -39.3167   35.5442 C   0  0  0  0  0  0  0  0  0  0  0  0
  -25.4878  -38.2648   36.3280 C   0  0  0  0  0  0  0  0  0  0  0  0
  -26.8889  -38.6615   36.6570 C   0  0  0  0  0  0  0  0  0  0  0  0
  -27.5801  -37.7058   37.5928 C   0  0  0  0  0  0  0  0  0  0  0  0
  -29.0000  -38.0946   37.8784 C   0  0  0  0  0  0  0  0  0  0  0  0
  -19.6095  -38.9311   33.8841 N   0  0  0  0  0  4  0  0  0  0  0  0
  -23.3954  -38.8918   35.2137 N   0  0  0  0  0  4  0  0  0  0  0  0
  -29.6497  -36.8902   39.0974 S   0  0  0  0  0  0  0  0  0  0  0  0
  2  1  1  0
  1  9  1  0
  3  2  1  0
 10  3  1  0
  4  5  1  0
  4 10  1  0
  5  6  1  0
  6  7  1  0
  7  8  1  0
  8 11  1  0
M  CHG  2   9   1  10   1
M  END
$$$$
