
     RDKit          3D

 11 10  0  0  0  0  0  0  0  0999 V2000
   13.0702  -11.3718   16.6876 C   0  0  0  0  0  0  0  0  0  0  0  0
   12.3194  -12.6736   16.7888 C   0  0  0  0  0  0  0  0  0  0  0  0
   11.2440  -12.5095   17.8432 C   0  0  0  0  0  0  0  0  0  0  0  0
    9.6200  -14.1720   18.0073 C   0  0  0  0  0  0  0  0  0  0  0  0
    8.1768  -14.1479   18.4486 C   0  0  0  0  0  0  0  0  0  0  0  0
    7.4573  -15.4268   18.1739 C   0  0  0  0  0  0  0  0  0  0  0  0
    6.0912  -15.2305   17.5722 C   0  0  0  0  0  0  0  0  0  0  0  0
    5.3562  -16.5207   17.3624 C   0  0  0  0  0  0  0  0  0  0  0  0
   13.5936  -10.9329   17.9673 N   0  0  0  0  0  4  0  0  0  0  0  0
    9.9896  -12.9624   17.2991 N   0  0  0  0  0  4  0  0  0  0  0  0
    3.7089  -16.0935   16.6822 S   0  0  0  0  0  0  0  0  0  0  0  0
  2  1  1  0
  1  9  1  0
  3  2  1  0
 10  3  1  0
  4  5  1  0
  4 10  1  0
  5  6  1  0
  6  7  1  0
  7  8  1  0
  8 11  1  0
M  CHG  2   9   1  10   1
M  END
$$$$
