
     RDKit          3D

 11 10  0  0  0  0  0  0  0  0999 V2000
  -30.3202  -38.0057   35.5284 C   0  0  0  0  0  0  0  0  0  0  0  0
  -29.0197  -38.2049   34.7952 C   0  0  0  0  0  0  0  0  0  0  0  0
  -28.0328  -38.8299   35.7600 C   0  0  0  0  0  0  0  0  0  0  0  0
  -25.9166  -38.8943   34.7877 C   0  0  0  0  0  0  0  0  0  0  0  0
  -24.8577  -39.7044   34.0801 C   0  0  0  0  0  0  0  0  0  0  0  0
  -23.4751  -39.4110   34.5606 C   0  0  0  0  0  0  0  0  0  0  0  0
  -22.3984  -39.9078   33.6329 C   0  0  0  0  0  0  0  0  0  0  0  0
  -21.0179  -39.5560   34.1013 C   0  0  0  0  0  0  0  0  0  0  0  0
  -31.4045  -38.7792   34.9540 N   0  0  0  0  0  4  0  0  0  0  0  0
  -27.1237  -39.6638   35.0165 N   0  0  0  0  0  4  0  0  0  0  0  0
  -19.8455  -40.2282   32.8633 S   0  0  0  0  0  0  0  0  0  0  0  0
  2  1  1  0
  1  9  1  0
  3  2  1  0
 10  3  1  0
  4  5  1  0
  4 10  1  0
  5  6  1  0
  6  7  1  0
  7  8  1  0
  8 11  1  0
M  CHG  2   9   1  10   1
M  END
$$$$
