
     RDKit          3D

 11 10  0  0  0  0  0  0  0  0999 V2000
   14.8437  -11.0002   15.8338 C   0  0  0  0  0  0  0  0  0  0  0  0
   14.1068  -11.1184   17.1422 C   0  0  0  0  0  0  0  0  0  0  0  0
   12.9809  -12.1143   16.9534 C   0  0  0  0  0  0  0  0  0  0  0  0
   11.1249  -13.1108   17.9487 C   0  0  0  0  0  0  0  0  0  0  0  0
   11.5592  -14.5550   18.0077 C   0  0  0  0  0  0  0  0  0  0  0  0
   10.9155  -15.3170   19.1184 C   0  0  0  0  0  0  0  0  0  0  0  0
   10.1908  -16.5536   18.6578 C   0  0  0  0  0  0  0  0  0  0  0  0
   10.5403  -17.7683   19.4650 C   0  0  0  0  0  0  0  0  0  0  0  0
   15.8914   -9.9979   15.8763 N   0  0  0  0  0  4  0  0  0  0  0  0
   12.2312  -12.2031   18.1802 N   0  0  0  0  0  4  0  0  0  0  0  0
    9.2823  -17.9102   20.7902 S   0  0  0  0  0  0  0  0  0  0  0  0
  2  1  1  0
  1  9  1  0
  3  2  1  0
 10  3  1  0
  4  5  1  0
  4 10  1  0
  5  6  1  0
  6  7  1  0
  7  8  1  0
  8 11  1  0
M  CHG  2   9   1  10   1
M  END
$$$$
