
     RDKit          3D

 11 10  0  0  0  0  0  0  0  0999 V2000
   -1.2369  -11.1858   41.9167 C   0  0  0  0  0  0  0  0  0  0  0  0
   -2.5994  -11.7855   41.6872 C   0  0  0  0  0  0  0  0  0  0  0  0
   -2.4541  -13.2933   41.7127 C   0  0  0  0  0  0  0  0  0  0  0  0
   -1.4673  -15.0365   40.5228 C   0  0  0  0  0  0  0  0  0  0  0  0
   -1.1101  -15.6303   39.1820 C   0  0  0  0  0  0  0  0  0  0  0  0
   -0.4737  -16.9767   39.2869 C   0  0  0  0  0  0  0  0  0  0  0  0
   -0.2684  -17.6496   37.9558 C   0  0  0  0  0  0  0  0  0  0  0  0
    0.6992  -18.7934   38.0244 C   0  0  0  0  0  0  0  0  0  0  0  0
   -1.2403   -9.7402   41.7971 N   0  0  0  0  0  4  0  0  0  0  0  0
   -2.1182  -13.7482   40.3880 N   0  0  0  0  0  4  0  0  0  0  0  0
    2.1763  -18.3033   37.0564 S   0  0  0  0  0  0  0  0  0  0  0  0
  2  1  1  0
  1  9  1  0
  3  2  1  0
 10  3  1  0
  4  5  1  0
  4 10  1  0
  5  6  1  0
  6  7  1  0
  7  8  1  0
  8 11  1  0
M  CHG  2   9   1  10   1
M  END
$$$$
