
     RDKit          3D

 77 79  0  0  0  0  0  0  0  0999 V2000
  -16.5224   -3.1442  -15.1015 N   0  0  0  0  0  0  0  0  0  0  0  0
  -16.3451   -2.1936  -14.0863 C   0  0  0  0  0  0  0  0  0  0  0  0
  -16.5485   -2.5111  -12.8932 O   0  0  0  0  0  0  0  0  0  0  0  0
  -15.4246   -3.8146  -15.8096 C   0  0  1  0  0  0  0  0  0  0  0  0
  -14.7113   -2.7475  -16.5805 C   0  0  0  0  0  0  0  0  0  0  0  0
  -15.5255   -1.5021  -16.7918 C   0  0  0  0  0  0  0  0  0  0  0  0
  -15.3795   -0.7970  -18.4369 S   0  0  0  0  0  0  0  0  0  0  0  0
  -16.4325    0.6966  -18.5910 C   0  0  0  0  0  0  0  0  0  0  0  0
  -14.5740   -4.5441  -14.8260 C   0  0  0  0  0  0  0  0  0  0  0  0
  -14.0725   -3.9037  -13.8775 O   0  0  0  0  0  0  0  0  0  0  0  0
  -14.3468   -5.9175  -14.9707 N   0  0  0  0  0  0  0  0  0  0  0  0
  -13.2929   -6.6324  -14.3317 C   0  0  2  0  0  0  0  0  0  0  0  0
  -13.7417   -7.7193  -13.4349 C   0  0  0  0  0  0  0  0  0  0  0  0
  -13.0579   -8.7721  -13.3858 O   0  0  0  0  0  0  0  0  0  0  0  0
  -12.2713   -5.7858  -13.6306 C   0  0  0  0  0  0  0  0  0  0  0  0
  -11.0490   -6.4739  -13.1543 C   0  0  0  0  0  0  0  0  0  0  0  0
  -10.5453   -6.0740  -11.7982 C   0  0  0  0  0  0  0  0  0  0  0  0
   -9.7085   -4.9066  -11.9634 N   0  0  0  0  0  0  0  0  0  0  0  0
   -8.3080   -4.9030  -12.0687 C   0  0  0  0  0  0  0  0  0  0  0  0
   -7.6221   -4.8148  -13.3108 N   0  0  0  0  0  0  0  0  0  0  0  0
   -7.6100   -4.9868  -10.9682 N   0  0  0  0  0  0  0  0  0  0  0  0
  -14.9042   -7.6726  -12.6120 N   0  0  0  0  0  0  0  0  0  0  0  0
  -15.6277   -8.8103  -12.1276 C   0  0  2  0  0  0  0  0  0  0  0  0
  -16.3510   -9.5683  -13.2068 C   0  0  0  0  0  0  0  0  0  0  0  0
  -17.2200  -10.3895  -12.8540 O   0  0  0  0  0  0  0  0  0  0  0  0
  -16.5697   -8.3941  -11.0421 C   0  0  2  0  0  0  0  0  0  0  0  0
  -17.3406   -9.5018  -10.6158 O   0  0  0  0  0  0  0  0  0  0  0  0
  -17.5368   -7.3786  -11.5896 C   0  0  0  0  0  0  0  0  0  0  0  0
  -16.0586   -9.3580  -14.5564 N   0  0  0  0  0  0  0  0  0  0  0  0
  -16.9282   -9.6826  -15.6433 C   0  0  0  0  0  0  0  0  0  0  0  0
  -18.0338   -8.6911  -15.8439 C   0  0  0  0  0  0  0  0  0  0  0  0
  -18.0993   -7.7858  -14.9907 O   0  0  0  0  0  0  0  0  0  0  0  0
  -18.9252   -8.7709  -16.9142 N   0  0  0  0  0  0  0  0  0  0  0  0
  -19.8185   -7.7762  -17.4164 C   0  0  2  0  0  0  0  0  0  0  0  0
  -20.4027   -6.9383  -16.3469 C   0  0  0  0  0  0  0  0  0  0  0  0
  -21.6386   -6.7281  -16.2384 O   0  0  0  0  0  0  0  0  0  0  0  0
  -20.9285   -8.3573  -18.3003 C   0  0  0  0  0  0  0  0  0  0  0  0
  -21.8349   -9.1381  -17.4510 C   0  0  0  0  0  0  0  0  0  0  0  0
  -22.8529   -9.7309  -17.8952 O   0  0  0  0  0  0  0  0  0  0  0  0
  -21.5962   -9.2650  -16.0524 N   0  0  0  0  0  0  0  0  0  0  0  0
  -19.4910   -6.3713  -15.4177 N   0  0  0  0  0  0  0  0  0  0  0  0
  -19.8126   -5.4735  -14.3675 C   0  0  2  0  0  0  0  0  0  0  0  0
  -18.6772   -4.8990  -13.6276 C   0  0  0  0  0  0  0  0  0  0  0  0
  -18.1246   -3.8453  -14.1036 O   0  0  0  0  0  0  0  0  0  0  0  0
  -20.6500   -6.2260  -13.3113 C   0  0  0  0  0  0  0  0  0  0  0  0
  -18.1455   -5.4131  -12.4378 N   0  0  0  0  0  0  0  0  0  0  0  0
  -17.1103   -4.6521  -11.7062 C   0  0  2  0  0  0  0  0  0  0  0  0
  -16.7325   -5.5776  -10.5769 C   0  0  0  0  0  0  0  0  0  0  0  0
  -16.2257   -6.6757  -10.8906 O   0  0  0  0  0  0  0  0  0  0  0  0
  -17.6766   -3.3648  -11.2838 C   0  0  0  0  0  0  0  0  0  0  0  0
  -18.0493   -3.3692   -9.8445 C   0  0  0  0  0  0  0  0  0  0  0  0
  -19.2862   -3.3888   -9.5101 O   0  0  0  0  0  0  0  0  0  0  0  0
  -17.1371   -3.3495   -8.8185 O   0  0  0  0  0  0  0  0  0  0  0  0
  -14.9748   -6.4830   -7.7373 O   0  0  0  0  0  0  0  0  0  0  0  0
  -16.4589   -6.3160   -7.9037 P   0  0  1  0  0  5  0  0  0  0  0  0
  -17.0497   -5.6783   -6.4118 O   0  0  0  0  0  0  0  0  0  0  0  0
  -16.9197   -5.2844   -9.2118 N   0  0  0  0  0  0  0  0  0  0  0  0
  -17.1446   -7.8699   -8.0032 O   0  0  0  0  0  0  0  0  0  0  0  0
  -18.4866   -7.8065   -8.3016 C   0  0  0  0  0  0  0  0  0  0  0  0
  -19.2807   -8.2202   -7.0768 C   0  0  2  0  0  0  0  0  0  0  0  0
  -20.4132   -7.2528   -6.8789 C   0  0  1  0  0  0  0  0  0  0  0  0
  -21.5470   -7.8465   -7.4650 O   0  0  0  0  0  0  0  0  0  0  0  0
  -20.5615   -7.1984   -5.3802 C   0  0  1  0  0  0  0  0  0  0  0  0
  -21.6256   -7.9858   -4.9412 O   0  0  0  0  0  0  0  0  0  0  0  0
  -19.2430   -7.6826   -4.8852 C   0  0  1  0  0  0  0  0  0  0  0  0
  -18.5510   -8.2183   -5.9360 O   0  0  0  0  0  0  0  0  0  0  0  0
  -18.4931   -6.6645   -4.1909 N   0  0  0  0  0  0  0  0  0  0  0  0
  -18.8477   -6.1366   -3.0112 C   0  0  0  0  0  0  0  0  0  0  0  0
  -17.9046   -5.2016   -2.6615 C   0  0  0  0  0  0  0  0  0  0  0  0
  -16.9841   -5.1619   -3.6228 N   0  0  0  0  0  0  0  0  0  0  0  0
  -17.3549   -6.0744   -4.5730 C   0  0  0  0  0  0  0  0  0  0  0  0
  -19.8879   -6.3784   -2.2180 N   0  0  0  0  0  0  0  0  0  0  0  0
  -20.0018   -5.6931   -1.0699 C   0  0  0  0  0  0  0  0  0  0  0  0
  -19.0813   -4.7618   -0.7028 N   0  0  0  0  0  0  0  0  0  0  0  0
  -18.0168   -4.4957   -1.4841 C   0  0  0  0  0  0  0  0  0  0  0  0
  -17.0884   -3.5139   -1.0497 N   0  0  0  0  0  0  0  0  0  0  0  0
   -8.0953   -4.9165  -10.0481 H   0  0  0  0  0  0  0  0  0  0  0  0
  1  2  1  0
  4  1  1  1
  2  3  2  0
  4  5  1  0
  9  4  1  0
  5  6  1  6
  6  7  1  6
  8  7  1  6
  9 10  2  0
 11  9  1  0
 12 11  1  1
 13 12  1  0
 15 12  1  1
 13 14  2  0
 22 13  1  0
 15 16  1  0
 16 17  1  6
 17 18  1  6
 18 19  1  0
 19 20  1  0
 19 21  2  0
 23 22  1  6
 24 23  1  0
 23 26  1  0
 24 25  2  0
 29 24  1  0
 26 27  1  6
 28 26  1  6
 30 29  1  1
 31 30  1  0
 31 32  2  0
 33 31  1  0
 34 33  1  1
 35 34  1  0
 34 37  1  0
 35 36  2  0
 41 35  1  0
 37 38  1  6
 38 39  2  0
 38 40  1  0
 42 41  1  6
 43 42  1  0
 45 42  1  6
 43 44  2  0
 46 43  1  0
 47 46  1  6
 48 47  1  0
 47 50  1  0
 48 49  2  0
 57 48  1  0
 50 51  1  6
 51 52  2  0
 51 53  1  0
 55 54  2  0
 55 56  1  1
 55 57  1  0
 55 58  1  0
 59 58  1  1
 59 60  1  0
 60 61  1  0
 60 66  1  1
 61 62  1  6
 61 63  1  0
 63 64  1  6
 63 65  1  0
 65 66  1  0
 65 67  1  6
 67 68  1  0
 67 71  1  0
 68 69  2  0
 68 72  1  0
 69 70  1  0
 69 75  1  0
 70 71  2  0
 72 73  2  0
 73 74  1  0
 74 75  2  0
 75 76  1  0
 21 77  1  0
M  END
$$$$
