
     RDKit          3D

 77 79  0  0  0  0  0  0  0  0999 V2000
  -12.3703    7.8579  -37.9836 N   0  0  0  0  0  0  0  0  0  0  0  0
  -12.2413    9.0646  -37.2536 C   0  0  0  0  0  0  0  0  0  0  0  0
  -13.2337    9.7117  -36.8339 O   0  0  0  0  0  0  0  0  0  0  0  0
  -11.1997    7.1005  -38.3669 C   0  0  1  0  0  0  0  0  0  0  0  0
  -10.6594    6.3721  -37.1506 C   0  0  0  0  0  0  0  0  0  0  0  0
   -9.4637    5.5608  -37.5869 C   0  0  0  0  0  0  0  0  0  0  0  0
   -8.8255    4.5535  -36.2124 S   0  0  0  0  0  0  0  0  0  0  0  0
   -7.9093    3.1688  -36.9855 C   0  0  0  0  0  0  0  0  0  0  0  0
  -11.6402    6.1236  -39.4037 C   0  0  0  0  0  0  0  0  0  0  0  0
  -11.1904    4.9536  -39.4500 O   0  0  0  0  0  0  0  0  0  0  0  0
  -12.6072    6.4776  -40.4156 N   0  0  0  0  0  0  0  0  0  0  0  0
  -13.2670    5.4920  -41.2152 C   0  0  2  0  0  0  0  0  0  0  0  0
  -13.1572    5.9205  -42.6853 C   0  0  0  0  0  0  0  0  0  0  0  0
  -13.3008    7.1174  -42.9474 O   0  0  0  0  0  0  0  0  0  0  0  0
  -14.6683    5.2562  -40.8547 C   0  0  0  0  0  0  0  0  0  0  0  0
  -15.4890    4.1931  -41.4427 C   0  0  0  0  0  0  0  0  0  0  0  0
  -16.9537    4.3636  -41.6079 C   0  0  0  0  0  0  0  0  0  0  0  0
  -17.4737    5.6844  -41.5127 N   0  0  0  0  0  0  0  0  0  0  0  0
  -18.0662    6.1773  -40.3203 C   0  0  0  0  0  0  0  0  0  0  0  0
  -18.9690    5.3632  -39.5901 N   0  0  0  0  0  0  0  0  0  0  0  0
  -17.7953    7.3483  -39.8972 N   0  0  0  0  0  0  0  0  0  0  0  0
  -12.8992    4.9803  -43.7097 N   0  0  0  0  0  0  0  0  0  0  0  0
  -12.3703    5.3201  -45.0111 C   0  0  2  0  0  0  0  0  0  0  0  0
  -12.2067    4.0783  -45.8447 C   0  0  0  0  0  0  0  0  0  0  0  0
  -11.8624    4.1743  -47.0335 O   0  0  0  0  0  0  0  0  0  0  0  0
  -11.1409    6.1707  -44.9975 C   0  0  2  0  0  0  0  0  0  0  0  0
   -9.9512    5.5308  -44.7989 O   0  0  0  0  0  0  0  0  0  0  0  0
  -11.2414    7.2427  -43.9003 C   0  0  0  0  0  0  0  0  0  0  0  0
  -12.4440    2.8046  -45.2770 N   0  0  0  0  0  0  0  0  0  0  0  0
  -12.3954    1.5451  -45.9596 C   0  0  0  0  0  0  0  0  0  0  0  0
  -12.4473    0.3748  -45.0947 C   0  0  0  0  0  0  0  0  0  0  0  0
  -13.5504   -0.2509  -44.9807 O   0  0  0  0  0  0  0  0  0  0  0  0
  -11.3546   -0.1463  -44.3489 N   0  0  0  0  0  0  0  0  0  0  0  0
  -11.5880   -1.2147  -43.3818 C   0  0  2  0  0  0  0  0  0  0  0  0
  -11.5038   -0.6856  -41.9954 C   0  0  0  0  0  0  0  0  0  0  0  0
  -10.5412   -1.0141  -41.2843 O   0  0  0  0  0  0  0  0  0  0  0  0
  -10.6916   -2.3778  -43.6193 C   0  0  0  0  0  0  0  0  0  0  0  0
   -9.4584   -2.3442  -42.7921 C   0  0  0  0  0  0  0  0  0  0  0  0
   -8.6031   -1.4478  -42.8199 O   0  0  0  0  0  0  0  0  0  0  0  0
   -9.2348   -3.4232  -41.8934 N   0  0  0  0  0  0  0  0  0  0  0  0
  -12.4978    0.1792  -41.4925 N   0  0  0  0  0  0  0  0  0  0  0  0
  -12.4359    0.6975  -40.1198 C   0  0  2  0  0  0  0  0  0  0  0  0
  -13.6562    1.4007  -39.7492 C   0  0  0  0  0  0  0  0  0  0  0  0
  -14.7672    1.0217  -40.2341 O   0  0  0  0  0  0  0  0  0  0  0  0
  -11.2011    1.5887  -39.9870 C   0  0  0  0  0  0  0  0  0  0  0  0
  -13.7333    2.5046  -38.8703 N   0  0  0  0  0  0  0  0  0  0  0  0
  -14.9942    3.1709  -38.5137 C   0  0  2  0  0  0  0  0  0  0  0  0
  -14.5812    4.3076  -37.6585 C   0  0  0  0  0  0  0  0  0  0  0  0
  -14.4790    4.1569  -36.4276 O   0  0  0  0  0  0  0  0  0  0  0  0
  -15.9102    2.1934  -37.8379 C   0  0  0  0  0  0  0  0  0  0  0  0
  -17.0457    2.8819  -37.2134 C   0  0  0  0  0  0  0  0  0  0  0  0
  -17.9819    2.2821  -36.6500 O   0  0  0  0  0  0  0  0  0  0  0  0
  -17.1175    4.3010  -37.2316 O   0  0  0  0  0  0  0  0  0  0  0  0
  -13.3129    8.0858  -37.5880 O   0  0  0  0  0  0  0  0  0  0  0  0
  -13.0416    6.6242  -37.3995 P   0  0  1  0  0  5  0  0  0  0  0  0
  -13.1269    6.3342  -35.7110 O   0  0  0  0  0  0  0  0  0  0  0  0
  -14.2742    5.6191  -38.1458 N   0  0  0  0  0  0  0  0  0  0  0  0
  -11.4839    6.1721  -37.8504 O   0  0  0  0  0  0  0  0  0  0  0  0
  -10.5927    7.2074  -37.9645 C   0  0  0  0  0  0  0  0  0  0  0  0
  -10.9776    7.9514  -39.2492 C   0  0  2  0  0  0  0  0  0  0  0  0
  -10.1923    7.3894  -40.4152 C   0  0  1  0  0  0  0  0  0  0  0  0
  -10.9729    7.0707  -41.4984 O   0  0  0  0  0  0  0  0  0  0  0  0
   -9.2026    8.4890  -40.7138 C   0  0  1  0  0  0  0  0  0  0  0  0
   -8.9623    8.5482  -42.0610 O   0  0  0  0  0  0  0  0  0  0  0  0
   -9.8855    9.7062  -40.1476 C   0  0  1  0  0  0  0  0  0  0  0  0
  -10.7650    9.2987  -39.1798 O   0  0  0  0  0  0  0  0  0  0  0  0
   -8.9186   10.6732  -39.6570 N   0  0  0  0  0  0  0  0  0  0  0  0
   -8.9530   11.9821  -39.8625 C   0  0  0  0  0  0  0  0  0  0  0  0
   -7.8724   12.5417  -39.2412 C   0  0  0  0  0  0  0  0  0  0  0  0
   -7.1955   11.5517  -38.6645 N   0  0  0  0  0  0  0  0  0  0  0  0
   -7.8348   10.3947  -38.9163 C   0  0  0  0  0  0  0  0  0  0  0  0
   -9.8223   12.7544  -40.5339 N   0  0  0  0  0  0  0  0  0  0  0  0
   -9.6205   14.0648  -40.5874 C   0  0  0  0  0  0  0  0  0  0  0  0
   -8.5562   14.6467  -39.9795 N   0  0  0  0  0  0  0  0  0  0  0  0
   -7.6802   13.8930  -39.3061 C   0  0  0  0  0  0  0  0  0  0  0  0
   -6.5763   14.5509  -38.6806 N   0  0  0  0  0  0  0  0  0  0  0  0
  -16.9372    7.8790  -40.1500 H   0  0  0  0  0  0  0  0  0  0  0  0
  1  2  1  0
  4  1  1  0
  2  3  2  0
  4  5  1  1
  9  4  1  0
  5  6  1  0
  6  7  1  0
  7  8  1  0
  9 10  2  0
 11  9  1  0
 12 11  1  0
 13 12  1  0
 12 15  1  1
 13 14  2  0
 22 13  1  0
 15 16  1  0
 16 17  1  0
 17 18  1  0
 18 19  1  0
 19 20  1  0
 19 21  2  0
 23 22  1  1
 24 23  1  0
 23 26  1  0
 24 25  2  0
 29 24  1  0
 26 27  1  0
 26 28  1  1
 30 29  1  0
 31 30  1  0
 31 32  2  0
 33 31  1  0
 34 33  1  0
 35 34  1  0
 34 37  1  1
 35 36  2  0
 41 35  1  0
 37 38  1  0
 38 39  2  0
 38 40  1  0
 42 41  1  0
 43 42  1  0
 42 45  1  6
 43 44  2  0
 46 43  1  0
 47 46  1  0
 48 47  1  0
 47 50  1  1
 48 49  2  0
 57 48  1  0
 50 51  1  0
 51 52  2  0
 51 53  1  0
 55 54  2  0
 55 56  1  1
 55 57  1  0
 55 58  1  0
 58 59  1  0
 60 59  1  1
 60 61  1  0
 60 66  1  0
 61 62  1  6
 61 63  1  0
 63 64  1  6
 63 65  1  0
 65 66  1  0
 65 67  1  1
 67 68  1  0
 67 71  1  0
 68 69  2  0
 68 72  1  0
 69 70  1  0
 69 75  1  0
 70 71  2  0
 72 73  2  0
 73 74  1  0
 74 75  2  0
 75 76  1  0
 21 77  1  0
M  END
$$$$
