
     RDKit          3D

 77 79  0  0  0  0  0  0  0  0999 V2000
  -17.7672    1.8190  -38.4035 N   0  0  0  0  0  0  0  0  0  0  0  0
  -18.9968    1.1205  -38.3280 C   0  0  0  0  0  0  0  0  0  0  0  0
  -20.0838    1.6900  -38.0563 O   0  0  0  0  0  0  0  0  0  0  0  0
  -16.5200    1.1480  -38.1114 C   0  0  1  0  0  0  0  0  0  0  0  0
  -15.5235    1.4499  -39.2150 C   0  0  0  0  0  0  0  0  0  0  0  0
  -16.0356    0.8229  -40.4889 C   0  0  0  0  0  0  0  0  0  0  0  0
  -15.8866   -0.9895  -40.4266 S   0  0  0  0  0  0  0  0  0  0  0  0
  -15.6317   -1.5341  -42.1565 C   0  0  0  0  0  0  0  0  0  0  0  0
  -16.0341    1.6911  -36.8106 C   0  0  0  0  0  0  0  0  0  0  0  0
  -14.8391    1.5778  -36.4464 O   0  0  0  0  0  0  0  0  0  0  0  0
  -16.9194    2.3732  -35.8966 N   0  0  0  0  0  0  0  0  0  0  0  0
  -16.4469    2.9807  -34.6907 C   0  0  2  0  0  0  0  0  0  0  0  0
  -15.0619    3.5808  -34.9711 C   0  0  0  0  0  0  0  0  0  0  0  0
  -14.1353    3.2633  -34.2210 O   0  0  0  0  0  0  0  0  0  0  0  0
  -16.3887    2.0771  -33.5379 C   0  0  0  0  0  0  0  0  0  0  0  0
  -17.5359    1.3010  -33.0571 C   0  0  0  0  0  0  0  0  0  0  0  0
  -17.4022    0.3776  -31.9034 C   0  0  0  0  0  0  0  0  0  0  0  0
  -16.9052   -0.9294  -32.1654 N   0  0  0  0  0  0  0  0  0  0  0  0
  -17.7616   -2.0045  -32.5212 C   0  0  0  0  0  0  0  0  0  0  0  0
  -19.0945   -2.0367  -32.0382 N   0  0  0  0  0  0  0  0  0  0  0  0
  -17.3441   -2.9453  -33.2723 N   0  0  0  0  0  0  0  0  0  0  0  0
  -14.8480    4.4674  -36.0518 N   0  0  0  0  0  0  0  0  0  0  0  0
  -13.5864    5.1125  -36.3370 C   0  0  2  0  0  0  0  0  0  0  0  0
  -13.6776    5.8823  -37.6265 C   0  0  0  0  0  0  0  0  0  0  0  0
  -12.6597    6.0528  -38.3164 O   0  0  0  0  0  0  0  0  0  0  0  0
  -12.3876    4.2209  -36.2822 C   0  0  2  0  0  0  0  0  0  0  0  0
  -12.3621    3.1686  -37.1518 O   0  0  0  0  0  0  0  0  0  0  0  0
  -12.2282    3.6209  -34.8759 C   0  0  0  0  0  0  0  0  0  0  0  0
  -14.9186    6.4106  -38.0528 N   0  0  0  0  0  0  0  0  0  0  0  0
  -15.1134    7.5494  -38.9013 C   0  0  0  0  0  0  0  0  0  0  0  0
  -14.8102    7.3269  -40.3081 C   0  0  0  0  0  0  0  0  0  0  0  0
  -15.3176    8.1116  -41.1729 O   0  0  0  0  0  0  0  0  0  0  0  0
  -13.9800    6.2906  -40.8169 N   0  0  0  0  0  0  0  0  0  0  0  0
  -13.6977    6.2325  -42.2480 C   0  0  2  0  0  0  0  0  0  0  0  0
  -14.9350    5.9136  -43.0073 C   0  0  0  0  0  0  0  0  0  0  0  0
  -15.6972    5.0358  -42.5727 O   0  0  0  0  0  0  0  0  0  0  0  0
  -12.5717    5.3083  -42.5500 C   0  0  0  0  0  0  0  0  0  0  0  0
  -11.6828    5.8035  -43.6319 C   0  0  0  0  0  0  0  0  0  0  0  0
  -11.3255    5.1470  -44.6204 O   0  0  0  0  0  0  0  0  0  0  0  0
  -11.1996    7.1372  -43.5328 N   0  0  0  0  0  0  0  0  0  0  0  0
  -15.2441    6.5973  -44.2013 N   0  0  0  0  0  0  0  0  0  0  0  0
  -16.5746    6.4988  -44.8152 C   0  0  2  0  0  0  0  0  0  0  0  0
  -17.4756    5.6679  -44.0286 C   0  0  0  0  0  0  0  0  0  0  0  0
  -18.7251    5.8928  -44.0658 O   0  0  0  0  0  0  0  0  0  0  0  0
  -16.4186    5.9774  -46.2436 C   0  0  0  0  0  0  0  0  0  0  0  0
  -17.0863    4.5946  -43.1959 N   0  0  0  0  0  0  0  0  0  0  0  0
  -18.0407    3.6854  -42.5452 C   0  0  2  0  0  0  0  0  0  0  0  0
  -17.3226    2.3922  -42.4665 C   0  0  0  0  0  0  0  0  0  0  0  0
  -17.5787    1.5915  -41.5492 O   0  0  0  0  0  0  0  0  0  0  0  0
  -19.3135    3.6350  -43.3380 C   0  0  0  0  0  0  0  0  0  0  0  0
  -19.3734    2.4211  -44.1603 C   0  0  0  0  0  0  0  0  0  0  0  0
  -19.6021    1.2892  -43.6913 O   0  0  0  0  0  0  0  0  0  0  0  0
  -19.1652    2.4990  -45.5639 O   0  0  0  0  0  0  0  0  0  0  0  0
  -14.5401    1.6052  -41.3879 O   0  0  0  0  0  0  0  0  0  0  0  0
  -14.7120    1.4838  -42.8716 P   0  0  1  0  0  5  0  0  0  0  0  0
  -14.5545   -0.1845  -43.2380 O   0  0  0  0  0  0  0  0  0  0  0  0
  -16.3188    1.9646  -43.3947 N   0  0  0  0  0  0  0  0  0  0  0  0
  -13.4951    2.2488  -43.7480 O   0  0  0  0  0  0  0  0  0  0  0  0
  -12.2750    2.2922  -43.1248 C   0  0  0  0  0  0  0  0  0  0  0  0
  -11.2370    2.0028  -44.2161 C   0  0  2  0  0  0  0  0  0  0  0  0
  -10.1174    1.1617  -43.6406 C   0  0  1  0  0  0  0  0  0  0  0  0
   -9.8191    0.0556  -44.3968 O   0  0  0  0  0  0  0  0  0  0  0  0
   -8.9705    2.1394  -43.5611 C   0  0  1  0  0  0  0  0  0  0  0  0
   -7.7879    1.4933  -43.8064 O   0  0  0  0  0  0  0  0  0  0  0  0
   -9.3457    3.1684  -44.5951 C   0  0  1  0  0  0  0  0  0  0  0  0
  -10.7037    3.1315  -44.7701 O   0  0  0  0  0  0  0  0  0  0  0  0
   -8.8624    4.4877  -44.2259 N   0  0  0  0  0  0  0  0  0  0  0  0
   -7.6101    4.9122  -44.3173 C   0  0  0  0  0  0  0  0  0  0  0  0
   -7.5624    6.2039  -43.8744 C   0  0  0  0  0  0  0  0  0  0  0  0
   -8.7993    6.5424  -43.5187 N   0  0  0  0  0  0  0  0  0  0  0  0
   -9.6081    5.4884  -43.7327 C   0  0  0  0  0  0  0  0  0  0  0  0
   -6.4931    4.3020  -44.7446 N   0  0  0  0  0  0  0  0  0  0  0  0
   -5.3443    4.9659  -44.7319 C   0  0  0  0  0  0  0  0  0  0  0  0
   -5.2684    6.2491  -44.2976 N   0  0  0  0  0  0  0  0  0  0  0  0
   -6.3709    6.8729  -43.8685 C   0  0  0  0  0  0  0  0  0  0  0  0
   -6.2420    8.2247  -43.4228 N   0  0  0  0  0  0  0  0  0  0  0  0
  -16.3947   -2.9798  -33.6958 H   0  0  0  0  0  0  0  0  0  0  0  0
  1  2  1  0
  4  1  1  0
  2  3  2  0
  4  5  1  6
  9  4  1  0
  5  6  1  0
  6  7  1  0
  7  8  1  0
  9 10  2  0
 11  9  1  0
 12 11  1  0
 13 12  1  0
 12 15  1  1
 13 14  2  0
 22 13  1  0
 15 16  1  0
 16 17  1  0
 17 18  1  0
 18 19  1  0
 19 20  1  0
 19 21  2  0
 23 22  1  6
 24 23  1  0
 23 26  1  0
 24 25  2  0
 29 24  1  0
 26 27  1  0
 26 28  1  1
 30 29  1  0
 31 30  1  0
 31 32  2  0
 33 31  1  0
 34 33  1  0
 35 34  1  0
 34 37  1  1
 35 36  2  0
 41 35  1  0
 37 38  1  0
 38 39  2  0
 38 40  1  0
 42 41  1  0
 43 42  1  0
 42 45  1  6
 43 44  2  0
 46 43  1  0
 47 46  1  0
 48 47  1  0
 47 50  1  6
 48 49  2  0
 57 48  1  0
 50 51  1  0
 51 52  2  0
 51 53  1  0
 55 54  2  0
 55 56  1  1
 55 57  1  0
 55 58  1  0
 58 59  1  0
 60 59  1  1
 60 61  1  0
 60 66  1  0
 61 62  1  6
 61 63  1  0
 63 64  1  6
 63 65  1  0
 65 66  1  0
 65 67  1  1
 67 68  1  0
 67 71  1  0
 68 69  2  0
 68 72  1  0
 69 70  1  0
 69 75  1  0
 70 71  2  0
 72 73  2  0
 73 74  1  0
 74 75  2  0
 75 76  1  0
 21 77  1  0
M  END
$$$$
