
     RDKit          3D

 77 79  0  0  0  0  0  0  0  0999 V2000
   -8.6585    9.4203  -35.3976 N   0  0  0  0  0  0  0  0  0  0  0  0
   -9.0010   10.7939  -35.3599 C   0  0  0  0  0  0  0  0  0  0  0  0
   -9.4685   11.3475  -34.3329 O   0  0  0  0  0  0  0  0  0  0  0  0
   -8.1918    8.8112  -36.6233 C   0  0  1  0  0  0  0  0  0  0  0  0
   -7.8888    7.3469  -36.3660 C   0  0  0  0  0  0  0  0  0  0  0  0
   -7.8097    7.1434  -34.8725 C   0  0  0  0  0  0  0  0  0  0  0  0
   -7.5182    5.3929  -34.4698 S   0  0  0  0  0  0  0  0  0  0  0  0
   -7.3266    5.3196  -32.6499 C   0  0  0  0  0  0  0  0  0  0  0  0
   -9.2949    8.9460  -37.6174 C   0  0  0  0  0  0  0  0  0  0  0  0
  -10.2774    9.7014  -37.4235 O   0  0  0  0  0  0  0  0  0  0  0  0
   -9.2917    8.2064  -38.8572 N   0  0  0  0  0  0  0  0  0  0  0  0
  -10.3319    8.3464  -39.8293 C   0  0  2  0  0  0  0  0  0  0  0  0
  -11.5455    7.5391  -39.3472 C   0  0  0  0  0  0  0  0  0  0  0  0
  -11.7901    7.5357  -38.1380 O   0  0  0  0  0  0  0  0  0  0  0  0
   -9.9538    7.9400  -41.1861 C   0  0  0  0  0  0  0  0  0  0  0  0
   -9.5011    8.8788  -42.2172 C   0  0  0  0  0  0  0  0  0  0  0  0
   -9.1205   10.2698  -41.8679 C   0  0  0  0  0  0  0  0  0  0  0  0
   -8.1856   10.9253  -42.7166 N   0  0  0  0  0  0  0  0  0  0  0  0
   -7.1982   10.2107  -43.4446 C   0  0  0  0  0  0  0  0  0  0  0  0
   -7.2194    8.7929  -43.4615 N   0  0  0  0  0  0  0  0  0  0  0  0
   -6.2885   10.8316  -44.0855 N   0  0  0  0  0  0  0  0  0  0  0  0
  -12.3606    6.8220  -40.2534 N   0  0  0  0  0  0  0  0  0  0  0  0
  -13.5384    6.0759  -39.8726 C   0  0  2  0  0  0  0  0  0  0  0  0
  -14.2654    5.5936  -41.0984 C   0  0  0  0  0  0  0  0  0  0  0  0
  -15.3292    4.9652  -40.9774 O   0  0  0  0  0  0  0  0  0  0  0  0
  -14.4422    6.7637  -38.9004 C   0  0  2  0  0  0  0  0  0  0  0  0
  -15.2208    7.7726  -39.3906 O   0  0  0  0  0  0  0  0  0  0  0  0
  -13.6277    7.3706  -37.7465 C   0  0  0  0  0  0  0  0  0  0  0  0
  -13.7399    5.8549  -42.3854 N   0  0  0  0  0  0  0  0  0  0  0  0
  -14.1294    5.2193  -43.6098 C   0  0  0  0  0  0  0  0  0  0  0  0
  -15.3105    4.3729  -43.5143 C   0  0  0  0  0  0  0  0  0  0  0  0
  -16.4296    4.8416  -43.9005 O   0  0  0  0  0  0  0  0  0  0  0  0
  -15.3299    3.0402  -43.0189 N   0  0  0  0  0  0  0  0  0  0  0  0
  -16.5642    2.2640  -43.0903 C   0  0  2  0  0  0  0  0  0  0  0  0
  -17.6251    2.9015  -42.2673 C   0  0  0  0  0  0  0  0  0  0  0  0
  -18.2159    2.2193  -41.4154 O   0  0  0  0  0  0  0  0  0  0  0  0
  -16.3366    0.8348  -42.7461 C   0  0  0  0  0  0  0  0  0  0  0  0
  -17.5893    0.0385  -42.6972 C   0  0  0  0  0  0  0  0  0  0  0  0
  -18.4054    0.0459  -41.7646 O   0  0  0  0  0  0  0  0  0  0  0  0
  -17.8829   -0.8018  -43.8061 N   0  0  0  0  0  0  0  0  0  0  0  0
  -17.9560    4.2607  -42.4453 N   0  0  0  0  0  0  0  0  0  0  0  0
  -19.0201    4.8970  -41.6582 C   0  0  2  0  0  0  0  0  0  0  0  0
  -19.0100    4.4521  -40.2715 C   0  0  0  0  0  0  0  0  0  0  0  0
  -19.7747    5.0164  -39.4289 O   0  0  0  0  0  0  0  0  0  0  0  0
  -20.3626    4.6226  -42.3356 C   0  0  0  0  0  0  0  0  0  0  0  0
  -18.2051    3.4156  -39.7474 N   0  0  0  0  0  0  0  0  0  0  0  0
  -18.1860    3.0438  -38.3252 C   0  0  2  0  0  0  0  0  0  0  0  0
  -16.7691    3.2004  -37.9225 C   0  0  0  0  0  0  0  0  0  0  0  0
  -16.1685    4.2648  -38.1559 O   0  0  0  0  0  0  0  0  0  0  0  0
  -18.7231    1.6529  -38.1580 C   0  0  0  0  0  0  0  0  0  0  0  0
  -20.1039    1.5600  -38.6458 C   0  0  0  0  0  0  0  0  0  0  0  0
  -20.6250    2.4155  -39.3876 O   0  0  0  0  0  0  0  0  0  0  0  0
  -20.9186    0.4560  -38.2761 O   0  0  0  0  0  0  0  0  0  0  0  0
  -14.4535    3.9385  -35.8866 O   0  0  0  0  0  0  0  0  0  0  0  0
  -14.4739    2.5566  -36.4660 P   0  0  1  0  0  5  0  0  0  0  0  0
  -14.3387    1.4778  -35.1392 O   0  0  0  0  0  0  0  0  0  0  0  0
  -15.9991    2.1919  -37.2580 N   0  0  0  0  0  0  0  0  0  0  0  0
  -13.1456    2.2255  -37.4459 O   0  0  0  0  0  0  0  0  0  0  0  0
  -13.0851    2.9580  -38.6030 C   0  0  0  0  0  0  0  0  0  0  0  0
  -12.2799    2.1088  -39.5943 C   0  0  2  0  0  0  0  0  0  0  0  0
  -12.7260    0.6649  -39.5041 C   0  0  1  0  0  0  0  0  0  0  0  0
  -13.0127    0.1030  -40.7233 O   0  0  0  0  0  0  0  0  0  0  0  0
  -11.5618   -0.0032  -38.8142 C   0  0  1  0  0  0  0  0  0  0  0  0
  -11.4042   -1.2772  -39.2918 O   0  0  0  0  0  0  0  0  0  0  0  0
  -10.4189    0.9266  -39.1273 C   0  0  1  0  0  0  0  0  0  0  0  0
  -10.9310    2.1696  -39.3895 O   0  0  0  0  0  0  0  0  0  0  0  0
   -9.4388    0.9374  -38.0551 N   0  0  0  0  0  0  0  0  0  0  0  0
   -8.1233    1.0036  -38.2029 C   0  0  0  0  0  0  0  0  0  0  0  0
   -7.5517    0.9899  -36.9620 C   0  0  0  0  0  0  0  0  0  0  0  0
   -8.5412    0.9148  -36.0752 N   0  0  0  0  0  0  0  0  0  0  0  0
   -9.7096    0.8820  -36.7420 C   0  0  0  0  0  0  0  0  0  0  0  0
   -7.3542    1.0749  -39.3011 N   0  0  0  0  0  0  0  0  0  0  0  0
   -6.0351    1.1316  -39.1683 C   0  0  0  0  0  0  0  0  0  0  0  0
   -5.4413    1.1198  -37.9484 N   0  0  0  0  0  0  0  0  0  0  0  0
   -6.1916    1.0494  -36.8435 C   0  0  0  0  0  0  0  0  0  0  0  0
   -5.5215    1.0422  -35.5812 N   0  0  0  0  0  0  0  0  0  0  0  0
   -5.6362   10.3828  -44.7599 H   0  0  0  0  0  0  0  0  0  0  0  0
  1  2  1  0
  4  1  1  0
  2  3  2  0
  4  5  1  1
  9  4  1  0
  5  6  1  0
  6  7  1  0
  7  8  1  0
  9 10  2  0
 11  9  1  0
 12 11  1  0
 13 12  1  0
 12 15  1  6
 13 14  2  0
 22 13  1  0
 15 16  1  0
 16 17  1  0
 17 18  1  0
 18 19  1  0
 19 20  1  0
 19 21  2  0
 23 22  1  6
 24 23  1  0
 23 26  1  0
 24 25  2  0
 29 24  1  0
 26 27  1  0
 26 28  1  1
 30 29  1  0
 31 30  1  0
 31 32  2  0
 33 31  1  0
 34 33  1  0
 35 34  1  0
 34 37  1  1
 35 36  2  0
 41 35  1  0
 37 38  1  0
 38 39  2  0
 38 40  1  0
 42 41  1  0
 43 42  1  0
 42 45  1  6
 43 44  2  0
 46 43  1  0
 47 46  1  0
 48 47  1  0
 47 50  1  6
 48 49  2  0
 57 48  1  0
 50 51  1  0
 51 52  2  0
 51 53  1  0
 55 54  2  0
 55 56  1  1
 55 57  1  0
 55 58  1  0
 58 59  1  0
 60 59  1  1
 60 61  1  0
 60 66  1  0
 61 62  1  6
 61 63  1  0
 63 64  1  6
 63 65  1  0
 65 66  1  0
 65 67  1  1
 67 68  1  0
 67 71  1  0
 68 69  2  0
 68 72  1  0
 69 70  1  0
 69 75  1  0
 70 71  2  0
 72 73  2  0
 73 74  1  0
 74 75  2  0
 75 76  1  0
 21 77  1  0
M  END
$$$$
