
     RDKit          3D

 77 79  0  0  0  0  0  0  0  0999 V2000
  -21.6354    6.6693  -30.1643 N   0  0  0  0  0  0  0  0  0  0  0  0
  -23.0319    6.7737  -30.2322 C   0  0  0  0  0  0  0  0  0  0  0  0
  -23.6218    6.5462  -31.3119 O   0  0  0  0  0  0  0  0  0  0  0  0
  -20.7465    6.6734  -31.3329 C   0  0  1  0  0  0  0  0  0  0  0  0
  -19.4217    7.1754  -30.8485 C   0  0  0  0  0  0  0  0  0  0  0  0
  -19.1960    8.6394  -31.1023 C   0  0  0  0  0  0  0  0  0  0  0  0
  -19.5763    9.6970  -29.7017 S   0  0  0  0  0  0  0  0  0  0  0  0
  -19.2563   11.4541  -30.1184 C   0  0  0  0  0  0  0  0  0  0  0  0
  -20.7119    5.3088  -31.9330 C   0  0  0  0  0  0  0  0  0  0  0  0
  -19.7436    4.9989  -32.6593 O   0  0  0  0  0  0  0  0  0  0  0  0
  -21.7474    4.4011  -31.6831 N   0  0  0  0  0  0  0  0  0  0  0  0
  -21.8487    3.1097  -32.2764 C   0  0  2  0  0  0  0  0  0  0  0  0
  -21.0847    2.9476  -33.5322 C   0  0  0  0  0  0  0  0  0  0  0  0
  -21.6609    3.2068  -34.6181 O   0  0  0  0  0  0  0  0  0  0  0  0
  -23.2452    2.5925  -32.4621 C   0  0  0  0  0  0  0  0  0  0  0  0
  -23.3890    1.3050  -33.1803 C   0  0  0  0  0  0  0  0  0  0  0  0
  -24.5612    0.4526  -32.7908 C   0  0  0  0  0  0  0  0  0  0  0  0
  -24.4417    0.1527  -31.3816 N   0  0  0  0  0  0  0  0  0  0  0  0
  -24.3806   -1.1300  -30.8128 C   0  0  0  0  0  0  0  0  0  0  0  0
  -23.1769   -1.8799  -30.7136 N   0  0  0  0  0  0  0  0  0  0  0  0
  -25.4875   -1.6522  -30.3572 N   0  0  0  0  0  0  0  0  0  0  0  0
  -19.7303    2.5121  -33.6147 N   0  0  0  0  0  0  0  0  0  0  0  0
  -18.9580    2.4174  -34.8177 C   0  0  2  0  0  0  0  0  0  0  0  0
  -17.7224    1.5714  -34.6752 C   0  0  0  0  0  0  0  0  0  0  0  0
  -17.0897    1.6474  -33.6039 O   0  0  0  0  0  0  0  0  0  0  0  0
  -18.6154    3.7862  -35.3156 C   0  0  2  0  0  0  0  0  0  0  0  0
  -17.7879    3.6946  -36.4601 O   0  0  0  0  0  0  0  0  0  0  0  0
  -17.8193    4.5102  -34.2627 C   0  0  0  0  0  0  0  0  0  0  0  0
  -17.3006    0.7304  -35.7076 N   0  0  0  0  0  0  0  0  0  0  0  0
  -16.4457    1.1207  -36.7846 C   0  0  0  0  0  0  0  0  0  0  0  0
  -15.6007    2.3191  -36.4757 C   0  0  0  0  0  0  0  0  0  0  0  0
  -15.4454    2.5641  -35.2643 O   0  0  0  0  0  0  0  0  0  0  0  0
  -15.0222    3.1038  -37.4738 N   0  0  0  0  0  0  0  0  0  0  0  0
  -13.7750    2.9266  -38.1469 C   0  0  2  0  0  0  0  0  0  0  0  0
  -13.1201    1.6437  -37.8117 C   0  0  0  0  0  0  0  0  0  0  0  0
  -13.4773    0.9240  -36.8432 O   0  0  0  0  0  0  0  0  0  0  0  0
  -12.8029    4.0916  -37.9260 C   0  0  0  0  0  0  0  0  0  0  0  0
  -12.8714    4.4901  -36.5157 C   0  0  0  0  0  0  0  0  0  0  0  0
  -13.9488    4.5358  -35.8659 O   0  0  0  0  0  0  0  0  0  0  0  0
  -11.6928    4.8497  -35.8011 N   0  0  0  0  0  0  0  0  0  0  0  0
  -12.0492    1.2409  -38.6524 N   0  0  0  0  0  0  0  0  0  0  0  0
  -11.9212   -0.0111  -39.3070 C   0  0  2  0  0  0  0  0  0  0  0  0
  -12.4188   -0.0795  -40.6905 C   0  0  0  0  0  0  0  0  0  0  0  0
  -12.3659   -1.2108  -41.2902 O   0  0  0  0  0  0  0  0  0  0  0  0
  -12.7372   -1.0639  -38.5267 C   0  0  0  0  0  0  0  0  0  0  0  0
  -12.9485    0.9981  -41.4124 N   0  0  0  0  0  0  0  0  0  0  0  0
  -12.3286    1.4006  -42.6929 C   0  0  2  0  0  0  0  0  0  0  0  0
  -13.5010    1.8840  -43.5092 C   0  0  0  0  0  0  0  0  0  0  0  0
  -13.7051    1.3112  -44.6007 O   0  0  0  0  0  0  0  0  0  0  0  0
  -11.6174    0.2476  -43.2597 C   0  0  0  0  0  0  0  0  0  0  0  0
  -12.4487   -0.4820  -44.2533 C   0  0  0  0  0  0  0  0  0  0  0  0
  -11.9374   -0.8262  -45.3768 O   0  0  0  0  0  0  0  0  0  0  0  0
  -13.7637   -0.8197  -44.0490 O   0  0  0  0  0  0  0  0  0  0  0  0
  -15.1245    5.4333  -43.8606 O   0  0  0  0  0  0  0  0  0  0  0  0
  -14.0073    4.6146  -43.2779 P   0  0  1  0  0  5  0  0  0  0  0  0
  -13.6622    5.2910  -41.7272 O   0  0  0  0  0  0  0  0  0  0  0  0
  -14.3618    2.9299  -43.1229 N   0  0  0  0  0  0  0  0  0  0  0  0
  -12.6090    4.9224  -44.1969 O   0  0  0  0  0  0  0  0  0  0  0  0
  -12.0679    6.1499  -43.8889 C   0  0  0  0  0  0  0  0  0  0  0  0
  -11.6859    6.8539  -45.1774 C   0  0  2  0  0  0  0  0  0  0  0  0
  -11.5190    5.8290  -46.2635 C   0  0  1  0  0  0  0  0  0  0  0  0
  -12.7355    5.8017  -46.9712 O   0  0  0  0  0  0  0  0  0  0  0  0
  -10.4235    6.4100  -47.1196 C   0  0  1  0  0  0  0  0  0  0  0  0
  -10.9362    7.0213  -48.2636 O   0  0  0  0  0  0  0  0  0  0  0  0
   -9.7452    7.3715  -46.2067 C   0  0  1  0  0  0  0  0  0  0  0  0
  -10.5201    7.5377  -45.0923 O   0  0  0  0  0  0  0  0  0  0  0  0
   -8.3923    6.9864  -45.8870 N   0  0  0  0  0  0  0  0  0  0  0  0
   -7.3013    7.6519  -46.2907 C   0  0  0  0  0  0  0  0  0  0  0  0
   -6.1973    6.9969  -45.8029 C   0  0  0  0  0  0  0  0  0  0  0  0
   -6.6152    5.9407  -45.1083 N   0  0  0  0  0  0  0  0  0  0  0  0
   -7.9828    5.9382  -45.1635 C   0  0  0  0  0  0  0  0  0  0  0  0
   -7.1658    8.7520  -47.0263 N   0  0  0  0  0  0  0  0  0  0  0  0
   -5.9320    9.2117  -47.2853 C   0  0  0  0  0  0  0  0  0  0  0  0
   -4.8237    8.5798  -46.8142 N   0  0  0  0  0  0  0  0  0  0  0  0
   -4.9287    7.4648  -46.0658 C   0  0  0  0  0  0  0  0  0  0  0  0
   -3.7376    6.8484  -45.6011 N   0  0  0  0  0  0  0  0  0  0  0  0
  -26.3752   -1.1099  -30.4262 H   0  0  0  0  0  0  0  0  0  0  0  0
  1  2  1  0
  4  1  1  1
  2  3  2  0
  4  5  1  0
  9  4  1  0
  5  6  1  6
  6  7  1  6
  8  7  1  6
  9 10  2  0
 11  9  1  0
 12 11  1  6
 13 12  1  0
 15 12  1  1
 13 14  2  0
 22 13  1  0
 15 16  1  0
 16 17  1  6
 17 18  1  6
 18 19  1  0
 19 20  1  0
 19 21  2  0
 23 22  1  1
 24 23  1  0
 23 26  1  0
 24 25  2  0
 29 24  1  0
 26 27  1  6
 28 26  1  6
 30 29  1  1
 31 30  1  0
 31 32  2  0
 33 31  1  0
 34 33  1  1
 35 34  1  0
 34 37  1  0
 35 36  2  0
 41 35  1  0
 37 38  1  6
 38 39  2  0
 38 40  1  0
 42 41  1  1
 43 42  1  0
 45 42  1  6
 43 44  2  0
 46 43  1  0
 47 46  1  1
 48 47  1  0
 47 50  1  0
 48 49  2  0
 57 48  1  0
 50 51  1  6
 51 52  2  0
 51 53  1  0
 55 54  2  0
 55 56  1  1
 55 57  1  0
 55 58  1  0
 59 58  1  1
 59 60  1  0
 60 61  1  0
 60 66  1  1
 61 62  1  6
 61 63  1  0
 63 64  1  6
 63 65  1  0
 65 66  1  0
 65 67  1  1
 67 68  1  0
 67 71  1  0
 68 69  2  0
 68 72  1  0
 69 70  1  0
 69 75  1  0
 70 71  2  0
 72 73  2  0
 73 74  1  0
 74 75  2  0
 75 76  1  0
 21 77  1  0
M  END
$$$$
