
     RDKit          3D

 77 79  0  0  0  0  0  0  0  0999 V2000
  -18.4003   -3.8308  -14.2582 N   0  0  0  0  0  0  0  0  0  0  0  0
  -17.5429   -3.7104  -13.1375 C   0  0  0  0  0  0  0  0  0  0  0  0
  -17.7607   -2.8995  -12.2021 O   0  0  0  0  0  0  0  0  0  0  0  0
  -18.0942   -4.7603  -15.3228 C   0  0  1  0  0  0  0  0  0  0  0  0
  -19.0760   -4.5525  -16.4608 C   0  0  0  0  0  0  0  0  0  0  0  0
  -19.3885   -3.0781  -16.5426 C   0  0  0  0  0  0  0  0  0  0  0  0
  -20.5238   -2.7300  -17.9213 S   0  0  0  0  0  0  0  0  0  0  0  0
  -20.8400   -0.9268  -17.8709 C   0  0  0  0  0  0  0  0  0  0  0  0
  -16.7057   -4.4561  -15.7731 C   0  0  0  0  0  0  0  0  0  0  0  0
  -15.9855   -5.3145  -16.3369 O   0  0  0  0  0  0  0  0  0  0  0  0
  -16.1142   -3.1538  -15.5772 N   0  0  0  0  0  0  0  0  0  0  0  0
  -14.8005   -2.8366  -16.0462 C   0  0  2  0  0  0  0  0  0  0  0  0
  -13.7868   -3.5538  -15.1435 C   0  0  0  0  0  0  0  0  0  0  0  0
  -12.5957   -3.4989  -15.4599 O   0  0  0  0  0  0  0  0  0  0  0  0
  -14.5069   -1.4015  -16.1053 C   0  0  0  0  0  0  0  0  0  0  0  0
  -14.7424   -0.4791  -14.9903 C   0  0  0  0  0  0  0  0  0  0  0  0
  -16.0511    0.2008  -14.8266 C   0  0  0  0  0  0  0  0  0  0  0  0
  -16.2419    0.9789  -13.6510 N   0  0  0  0  0  0  0  0  0  0  0  0
  -16.4914    2.3756  -13.7035 C   0  0  0  0  0  0  0  0  0  0  0  0
  -16.2089    3.1875  -12.5757 N   0  0  0  0  0  0  0  0  0  0  0  0
  -16.9689    2.9102  -14.7569 N   0  0  0  0  0  0  0  0  0  0  0  0
  -14.1975   -4.2547  -13.9860 N   0  0  0  0  0  0  0  0  0  0  0  0
  -13.3141   -5.0407  -13.1550 C   0  0  2  0  0  0  0  0  0  0  0  0
  -13.2866   -6.4675  -13.6319 C   0  0  0  0  0  0  0  0  0  0  0  0
  -12.3722   -7.2229  -13.2652 O   0  0  0  0  0  0  0  0  0  0  0  0
  -13.5562   -4.9299  -11.6839 C   0  0  2  0  0  0  0  0  0  0  0  0
  -14.8069   -5.2499  -11.2395 O   0  0  0  0  0  0  0  0  0  0  0  0
  -13.2815   -3.4966  -11.2007 C   0  0  0  0  0  0  0  0  0  0  0  0
  -14.2988   -6.9481  -14.4951 N   0  0  0  0  0  0  0  0  0  0  0  0
  -14.7181   -8.3111  -14.6405 C   0  0  0  0  0  0  0  0  0  0  0  0
  -16.1528   -8.4986  -14.8051 C   0  0  0  0  0  0  0  0  0  0  0  0
  -16.5758   -9.0718  -15.8604 O   0  0  0  0  0  0  0  0  0  0  0  0
  -17.1478   -8.0920  -13.8743 N   0  0  0  0  0  0  0  0  0  0  0  0
  -18.5105   -8.5975  -14.0113 C   0  0  2  0  0  0  0  0  0  0  0  0
  -18.7682   -9.6686  -13.0136 C   0  0  0  0  0  0  0  0  0  0  0  0
  -19.2124  -10.7595  -13.4045 O   0  0  0  0  0  0  0  0  0  0  0  0
  -18.8046   -9.0163  -15.4082 C   0  0  0  0  0  0  0  0  0  0  0  0
  -20.2438   -9.2979  -15.6435 C   0  0  0  0  0  0  0  0  0  0  0  0
  -21.1624   -8.4748  -15.5230 O   0  0  0  0  0  0  0  0  0  0  0  0
  -20.6042  -10.6152  -16.0394 N   0  0  0  0  0  0  0  0  0  0  0  0
  -18.5102   -9.4547  -11.6439 N   0  0  0  0  0  0  0  0  0  0  0  0
  -18.7225  -10.5166  -10.6518 C   0  0  2  0  0  0  0  0  0  0  0  0
  -18.3982  -10.0727   -9.3032 C   0  0  0  0  0  0  0  0  0  0  0  0
  -18.3935  -10.9151   -8.3527 O   0  0  0  0  0  0  0  0  0  0  0  0
  -17.9048  -11.7414  -11.0614 C   0  0  0  0  0  0  0  0  0  0  0  0
  -18.0750   -8.7487   -8.9298 N   0  0  0  0  0  0  0  0  0  0  0  0
  -17.3041   -8.4112   -7.7245 C   0  0  2  0  0  0  0  0  0  0  0  0
  -18.1538   -7.4338   -7.0055 C   0  0  0  0  0  0  0  0  0  0  0  0
  -19.3624   -7.6701   -6.8278 O   0  0  0  0  0  0  0  0  0  0  0  0
  -15.9558   -7.8828   -8.1169 C   0  0  0  0  0  0  0  0  0  0  0  0
  -15.1322   -8.9377   -8.7187 C   0  0  0  0  0  0  0  0  0  0  0  0
  -14.8392   -9.9956   -8.1282 O   0  0  0  0  0  0  0  0  0  0  0  0
  -14.6248   -8.7823  -10.0369 O   0  0  0  0  0  0  0  0  0  0  0  0
  -19.2979   -6.3735   -4.3083 O   0  0  0  0  0  0  0  0  0  0  0  0
  -18.4573   -5.4161   -5.0973 P   0  0  1  0  0  5  0  0  0  0  0  0
  -17.1985   -4.9065   -4.0493 O   0  0  0  0  0  0  0  0  0  0  0  0
  -17.6849   -6.1896   -6.4727 N   0  0  0  0  0  0  0  0  0  0  0  0
  -19.2755   -4.0091   -5.5271 O   0  0  0  0  0  0  0  0  0  0  0  0
  -18.4932   -3.0367   -6.0941 C   0  0  0  0  0  0  0  0  0  0  0  0
  -19.1317   -2.7254   -7.4533 C   0  0  2  0  0  0  0  0  0  0  0  0
  -18.0958   -2.8777   -8.5468 C   0  0  1  0  0  0  0  0  0  0  0  0
  -18.5180   -3.6546   -9.5968 O   0  0  0  0  0  0  0  0  0  0  0  0
  -17.8233   -1.4496   -8.9516 C   0  0  1  0  0  0  0  0  0  0  0  0
  -17.5661   -1.3858  -10.2955 O   0  0  0  0  0  0  0  0  0  0  0  0
  -19.0821   -0.7423   -8.5229 C   0  0  1  0  0  0  0  0  0  0  0  0
  -19.6709   -1.4727   -7.5248 O   0  0  0  0  0  0  0  0  0  0  0  0
  -18.8087    0.6290   -8.1291 N   0  0  0  0  0  0  0  0  0  0  0  0
  -18.4641    1.6185   -8.9408 C   0  0  0  0  0  0  0  0  0  0  0  0
  -18.2959    2.7485   -8.1913 C   0  0  0  0  0  0  0  0  0  0  0  0
  -18.5440    2.4201   -6.9257 N   0  0  0  0  0  0  0  0  0  0  0  0
  -18.8614    1.1132   -6.8787 C   0  0  0  0  0  0  0  0  0  0  0  0
  -18.2767    1.6543  -10.2698 N   0  0  0  0  0  0  0  0  0  0  0  0
  -17.9267    2.7971  -10.8463 C   0  0  0  0  0  0  0  0  0  0  0  0
  -17.7532    3.9339  -10.1262 N   0  0  0  0  0  0  0  0  0  0  0  0
  -17.9358    3.9170   -8.8014 C   0  0  0  0  0  0  0  0  0  0  0  0
  -17.7437    5.1391   -8.0857 N   0  0  0  0  0  0  0  0  0  0  0  0
  -17.1779    3.9243  -14.8565 H   0  0  0  0  0  0  0  0  0  0  0  0
  1  2  1  0
  4  1  1  0
  2  3  2  0
  4  5  1  6
  9  4  1  0
  5  6  1  0
  6  7  1  0
  7  8  1  0
  9 10  2  0
 11  9  1  0
 12 11  1  0
 13 12  1  0
 12 15  1  1
 13 14  2  0
 22 13  1  0
 15 16  1  0
 16 17  1  0
 17 18  1  0
 18 19  1  0
 19 20  1  0
 19 21  2  0
 23 22  1  6
 24 23  1  0
 23 26  1  0
 24 25  2  0
 29 24  1  0
 26 27  1  0
 26 28  1  6
 30 29  1  0
 31 30  1  0
 31 32  2  0
 33 31  1  0
 34 33  1  0
 35 34  1  0
 34 37  1  6
 35 36  2  0
 41 35  1  0
 37 38  1  0
 38 39  2  0
 38 40  1  0
 42 41  1  0
 43 42  1  0
 42 45  1  6
 43 44  2  0
 46 43  1  0
 47 46  1  0
 48 47  1  0
 47 50  1  6
 48 49  2  0
 57 48  1  0
 50 51  1  0
 51 52  2  0
 51 53  1  0
 55 54  2  0
 55 56  1  1
 55 57  1  0
 55 58  1  0
 58 59  1  0
 60 59  1  1
 60 61  1  0
 60 66  1  0
 61 62  1  6
 61 63  1  0
 63 64  1  6
 63 65  1  0
 65 66  1  0
 65 67  1  1
 67 68  1  0
 67 71  1  0
 68 69  2  0
 68 72  1  0
 69 70  1  0
 69 75  1  0
 70 71  2  0
 72 73  2  0
 73 74  1  0
 74 75  2  0
 75 76  1  0
 21 77  1  0
M  END
$$$$
