
     RDKit          3D

 77 79  0  0  0  0  0  0  0  0999 V2000
  -19.1655    0.7506  -11.2341 N   0  0  0  0  0  0  0  0  0  0  0  0
  -20.5420    0.8699  -10.9960 C   0  0  0  0  0  0  0  0  0  0  0  0
  -21.1388    1.9248  -11.3068 O   0  0  0  0  0  0  0  0  0  0  0  0
  -18.5086    1.1122  -12.4964 C   0  0  1  0  0  0  0  0  0  0  0  0
  -17.2962    1.9077  -12.1236 C   0  0  0  0  0  0  0  0  0  0  0  0
  -17.4876    2.7773  -10.9129 C   0  0  0  0  0  0  0  0  0  0  0  0
  -16.0712    3.8067  -10.5141 S   0  0  0  0  0  0  0  0  0  0  0  0
  -16.2358    4.4983   -8.8235 C   0  0  0  0  0  0  0  0  0  0  0  0
  -18.2235   -0.1252  -13.2780 C   0  0  0  0  0  0  0  0  0  0  0  0
  -17.0670   -0.3029  -13.7163 O   0  0  0  0  0  0  0  0  0  0  0  0
  -19.2367   -1.0620  -13.5114 N   0  0  0  0  0  0  0  0  0  0  0  0
  -19.0484   -2.3021  -14.1874 C   0  0  2  0  0  0  0  0  0  0  0  0
  -19.4870   -2.3061  -15.5997 C   0  0  0  0  0  0  0  0  0  0  0  0
  -20.0202   -1.2663  -16.0611 O   0  0  0  0  0  0  0  0  0  0  0  0
  -19.5939   -3.5100  -13.4836 C   0  0  0  0  0  0  0  0  0  0  0  0
  -19.2912   -4.8275  -14.0893 C   0  0  0  0  0  0  0  0  0  0  0  0
  -19.8670   -6.0274  -13.3956 C   0  0  0  0  0  0  0  0  0  0  0  0
  -18.7666   -6.8155  -12.8874 N   0  0  0  0  0  0  0  0  0  0  0  0
  -18.2425   -6.7587  -11.5857 C   0  0  0  0  0  0  0  0  0  0  0  0
  -16.9357   -7.2092  -11.2534 N   0  0  0  0  0  0  0  0  0  0  0  0
  -18.9991   -6.2687  -10.6408 N   0  0  0  0  0  0  0  0  0  0  0  0
  -19.3564   -3.4085  -16.4932 N   0  0  0  0  0  0  0  0  0  0  0  0
  -19.7153   -3.4033  -17.8802 C   0  0  2  0  0  0  0  0  0  0  0  0
  -19.7485   -4.7739  -18.4990 C   0  0  0  0  0  0  0  0  0  0  0  0
  -20.0280   -4.8547  -19.7111 O   0  0  0  0  0  0  0  0  0  0  0  0
  -18.8034   -2.4936  -18.6418 C   0  0  2  0  0  0  0  0  0  0  0  0
  -17.4558   -2.8771  -18.4418 O   0  0  0  0  0  0  0  0  0  0  0  0
  -18.9396   -1.0941  -18.1041 C   0  0  0  0  0  0  0  0  0  0  0  0
  -19.4749   -5.9148  -17.7410 N   0  0  0  0  0  0  0  0  0  0  0  0
  -18.2477   -6.6468  -17.7761 C   0  0  0  0  0  0  0  0  0  0  0  0
  -18.1149   -7.6486  -16.6695 C   0  0  0  0  0  0  0  0  0  0  0  0
  -16.9791   -8.1406  -16.5293 O   0  0  0  0  0  0  0  0  0  0  0  0
  -19.1859   -8.0025  -15.8483 N   0  0  0  0  0  0  0  0  0  0  0  0
  -19.1806   -8.7743  -14.6466 C   0  0  2  0  0  0  0  0  0  0  0  0
  -17.8198   -8.9863  -14.1077 C   0  0  0  0  0  0  0  0  0  0  0  0
  -17.1566  -10.0357  -14.3135 O   0  0  0  0  0  0  0  0  0  0  0  0
  -19.9082  -10.1161  -14.7918 C   0  0  0  0  0  0  0  0  0  0  0  0
  -21.3527   -9.8689  -14.7229 C   0  0  0  0  0  0  0  0  0  0  0  0
  -22.1917  -10.4982  -15.4195 O   0  0  0  0  0  0  0  0  0  0  0  0
  -21.8830   -8.8833  -13.8418 N   0  0  0  0  0  0  0  0  0  0  0  0
  -17.2729   -7.9281  -13.3350 N   0  0  0  0  0  0  0  0  0  0  0  0
  -15.9981   -7.9152  -12.7127 C   0  0  2  0  0  0  0  0  0  0  0  0
  -15.6287   -6.6790  -12.0044 C   0  0  0  0  0  0  0  0  0  0  0  0
  -14.3817   -6.4321  -11.8423 O   0  0  0  0  0  0  0  0  0  0  0  0
  -14.9156   -8.1043  -13.7968 C   0  0  0  0  0  0  0  0  0  0  0  0
  -16.5341   -5.7430  -11.4878 N   0  0  0  0  0  0  0  0  0  0  0  0
  -16.1425   -4.8977  -10.3396 C   0  0  2  0  0  0  0  0  0  0  0  0
  -15.9122   -5.8983   -9.2348 C   0  0  0  0  0  0  0  0  0  0  0  0
  -16.5436   -6.9741   -9.3050 O   0  0  0  0  0  0  0  0  0  0  0  0
  -17.2125   -3.9268  -10.0775 C   0  0  0  0  0  0  0  0  0  0  0  0
  -16.9936   -2.6507  -10.8086 C   0  0  0  0  0  0  0  0  0  0  0  0
  -17.5414   -1.5738  -10.3818 O   0  0  0  0  0  0  0  0  0  0  0  0
  -16.2279   -2.5412  -11.9429 O   0  0  0  0  0  0  0  0  0  0  0  0
  -15.0724   -6.1143   -5.4572 O   0  0  0  0  0  0  0  0  0  0  0  0
  -14.8742   -6.7638   -6.7977 P   0  0  1  0  0  5  0  0  0  0  0  0
  -16.0378   -8.0352   -6.9023 O   0  0  0  0  0  0  0  0  0  0  0  0
  -15.0460   -5.6924   -8.1432 N   0  0  0  0  0  0  0  0  0  0  0  0
  -13.3725   -7.5631   -6.7662 O   0  0  0  0  0  0  0  0  0  0  0  0
  -12.4895   -7.0045   -7.6619 C   0  0  0  0  0  0  0  0  0  0  0  0
  -11.1757   -7.7600   -7.5904 C   0  0  2  0  0  0  0  0  0  0  0  0
  -11.1454   -8.7923   -8.6819 C   0  0  1  0  0  0  0  0  0  0  0  0
  -10.4308   -8.2173   -9.7497 O   0  0  0  0  0  0  0  0  0  0  0  0
  -10.3581   -9.9204   -8.0669 C   0  0  1  0  0  0  0  0  0  0  0  0
   -9.0362   -9.9253   -8.5115 O   0  0  0  0  0  0  0  0  0  0  0  0
  -10.4737   -9.6649   -6.6043 C   0  0  1  0  0  0  0  0  0  0  0  0
  -10.9936   -8.4138   -6.4185 O   0  0  0  0  0  0  0  0  0  0  0  0
  -11.2240  -10.6839   -5.9118 N   0  0  0  0  0  0  0  0  0  0  0  0
  -10.7586  -11.9104   -5.6374 C   0  0  0  0  0  0  0  0  0  0  0  0
  -11.7437  -12.6024   -4.9766 C   0  0  0  0  0  0  0  0  0  0  0  0
  -12.8000  -11.8016   -4.8512 N   0  0  0  0  0  0  0  0  0  0  0  0
  -12.4718  -10.6080   -5.4351 C   0  0  0  0  0  0  0  0  0  0  0  0
   -9.5859  -12.4829   -5.8958 N   0  0  0  0  0  0  0  0  0  0  0  0
   -9.3807  -13.7488   -5.5011 C   0  0  0  0  0  0  0  0  0  0  0  0
  -10.3412  -14.4546   -4.8462 N   0  0  0  0  0  0  0  0  0  0  0  0
  -11.5379  -13.9020   -4.5692 C   0  0  0  0  0  0  0  0  0  0  0  0
  -12.5016  -14.6861   -3.8829 N   0  0  0  0  0  0  0  0  0  0  0  0
  -18.5551   -5.8405   -9.8003 H   0  0  0  0  0  0  0  0  0  0  0  0
  1  2  1  0
  4  1  1  1
  2  3  2  0
  4  5  1  0
  9  4  1  0
  5  6  1  6
  6  7  1  6
  8  7  1  6
  9 10  2  0
 11  9  1  0
 12 11  1  1
 13 12  1  0
 15 12  1  1
 13 14  2  0
 22 13  1  0
 15 16  1  0
 16 17  1  6
 17 18  1  6
 18 19  1  0
 19 20  1  0
 19 21  2  0
 23 22  1  1
 24 23  1  0
 23 26  1  0
 24 25  2  0
 29 24  1  0
 26 27  1  1
 28 26  1  6
 30 29  1  1
 31 30  1  0
 31 32  2  0
 33 31  1  0
 34 33  1  6
 35 34  1  0
 34 37  1  0
 35 36  2  0
 41 35  1  0
 37 38  1  6
 38 39  2  0
 38 40  1  0
 42 41  1  6
 43 42  1  0
 45 42  1  6
 43 44  2  0
 46 43  1  0
 47 46  1  6
 48 47  1  0
 47 50  1  0
 48 49  2  0
 57 48  1  0
 50 51  1  6
 51 52  2  0
 51 53  1  0
 55 54  2  0
 55 56  1  6
 55 57  1  0
 55 58  1  0
 59 58  1  1
 59 60  1  0
 60 61  1  0
 60 66  1  1
 61 62  1  6
 61 63  1  0
 63 64  1  6
 63 65  1  0
 65 66  1  0
 65 67  1  6
 67 68  1  0
 67 71  1  0
 68 69  2  0
 68 72  1  0
 69 70  1  0
 69 75  1  0
 70 71  2  0
 72 73  2  0
 73 74  1  0
 74 75  2  0
 75 76  1  0
 21 77  1  0
M  END
$$$$
