
     RDKit          3D

 77 79  0  0  0  0  0  0  0  0999 V2000
  -13.0586   10.3913  -33.2033 N   0  0  0  0  0  0  0  0  0  0  0  0
  -11.6949   10.4972  -32.8366 C   0  0  0  0  0  0  0  0  0  0  0  0
  -11.1232   11.6035  -32.6663 O   0  0  0  0  0  0  0  0  0  0  0  0
  -13.6877    9.0958  -33.3334 C   0  0  1  0  0  0  0  0  0  0  0  0
  -15.1506    9.2875  -33.6872 C   0  0  0  0  0  0  0  0  0  0  0  0
  -15.8613    9.8093  -32.4621 C   0  0  0  0  0  0  0  0  0  0  0  0
  -16.3078    8.4477  -31.3406 S   0  0  0  0  0  0  0  0  0  0  0  0
  -17.6217    9.1055  -30.2473 C   0  0  0  0  0  0  0  0  0  0  0  0
  -12.9772    8.3815  -34.4326 C   0  0  0  0  0  0  0  0  0  0  0  0
  -13.5196    7.4588  -35.0868 O   0  0  0  0  0  0  0  0  0  0  0  0
  -11.6204    8.7126  -34.7983 N   0  0  0  0  0  0  0  0  0  0  0  0
  -10.9103    7.9981  -35.8139 C   0  0  2  0  0  0  0  0  0  0  0  0
  -11.7468    8.0428  -37.1005 C   0  0  0  0  0  0  0  0  0  0  0  0
  -12.9740    7.9824  -36.9905 O   0  0  0  0  0  0  0  0  0  0  0  0
  -10.5823    6.6125  -35.4652 C   0  0  0  0  0  0  0  0  0  0  0  0
   -9.8979    5.6878  -36.3742 C   0  0  0  0  0  0  0  0  0  0  0  0
   -9.5956    4.2955  -35.9600 C   0  0  0  0  0  0  0  0  0  0  0  0
   -8.4083    3.7032  -36.4731 N   0  0  0  0  0  0  0  0  0  0  0  0
   -7.2191    4.4519  -36.6761 C   0  0  0  0  0  0  0  0  0  0  0  0
   -6.8869    4.9133  -37.9752 N   0  0  0  0  0  0  0  0  0  0  0  0
   -6.4432    4.7146  -35.7001 N   0  0  0  0  0  0  0  0  0  0  0  0
  -11.1376    8.1507  -38.3721 N   0  0  0  0  0  0  0  0  0  0  0  0
  -11.8647    8.2067  -39.6200 C   0  0  2  0  0  0  0  0  0  0  0  0
  -12.9858    7.2033  -39.6124 C   0  0  0  0  0  0  0  0  0  0  0  0
  -12.7496    6.0125  -39.8720 O   0  0  0  0  0  0  0  0  0  0  0  0
  -11.0232    8.1205  -40.8526 C   0  0  2  0  0  0  0  0  0  0  0  0
  -11.6584    7.7688  -42.0090 O   0  0  0  0  0  0  0  0  0  0  0  0
   -9.8883    7.1020  -40.6582 C   0  0  0  0  0  0  0  0  0  0  0  0
  -14.3052    7.6139  -39.3103 N   0  0  0  0  0  0  0  0  0  0  0  0
  -15.3004    8.0416  -40.2491 C   0  0  0  0  0  0  0  0  0  0  0  0
  -15.5687    7.1038  -41.3304 C   0  0  0  0  0  0  0  0  0  0  0  0
  -16.7230    7.1065  -41.8677 O   0  0  0  0  0  0  0  0  0  0  0  0
  -14.6389    6.1642  -41.8542 N   0  0  0  0  0  0  0  0  0  0  0  0
  -14.8804    5.5668  -43.1642 C   0  0  2  0  0  0  0  0  0  0  0  0
  -15.4216    4.1907  -43.0139 C   0  0  0  0  0  0  0  0  0  0  0  0
  -15.7644    3.5656  -44.0298 O   0  0  0  0  0  0  0  0  0  0  0  0
  -13.6715    5.6286  -44.0289 C   0  0  0  0  0  0  0  0  0  0  0  0
  -13.8455    4.9300  -45.3280 C   0  0  0  0  0  0  0  0  0  0  0  0
  -13.6478    3.7221  -45.5223 O   0  0  0  0  0  0  0  0  0  0  0  0
  -14.2735    5.7023  -46.4426 N   0  0  0  0  0  0  0  0  0  0  0  0
  -15.5423    3.5991  -41.7395 N   0  0  0  0  0  0  0  0  0  0  0  0
  -16.4167    2.4408  -41.5150 C   0  0  2  0  0  0  0  0  0  0  0  0
  -16.7566    1.7673  -42.7607 C   0  0  0  0  0  0  0  0  0  0  0  0
  -16.6106    2.3815  -43.8628 O   0  0  0  0  0  0  0  0  0  0  0  0
  -17.6617    2.9050  -40.7593 C   0  0  0  0  0  0  0  0  0  0  0  0
  -17.2510    0.4482  -42.8728 N   0  0  0  0  0  0  0  0  0  0  0  0
  -16.6178   -0.5876  -43.7018 C   0  0  2  0  0  0  0  0  0  0  0  0
  -16.8364   -0.1301  -45.0936 C   0  0  0  0  0  0  0  0  0  0  0  0
  -17.4009    0.9571  -45.3112 O   0  0  0  0  0  0  0  0  0  0  0  0
  -17.2230   -1.9250  -43.3915 C   0  0  0  0  0  0  0  0  0  0  0  0
  -18.3752   -1.7853  -42.4937 C   0  0  0  0  0  0  0  0  0  0  0  0
  -19.4501   -2.3936  -42.6625 O   0  0  0  0  0  0  0  0  0  0  0  0
  -18.3011   -0.9237  -41.3661 O   0  0  0  0  0  0  0  0  0  0  0  0
  -17.7418   -0.7003  -48.6231 O   0  0  0  0  0  0  0  0  0  0  0  0
  -16.5558   -0.1753  -47.8727 P   0  0  1  0  0  5  0  0  0  0  0  0
  -16.8201    1.5079  -47.6740 O   0  0  0  0  0  0  0  0  0  0  0  0
  -16.4356   -0.8599  -46.2591 N   0  0  0  0  0  0  0  0  0  0  0  0
  -15.1142   -0.3008  -48.7331 O   0  0  0  0  0  0  0  0  0  0  0  0
  -14.8076    0.7878  -49.5077 C   0  0  0  0  0  0  0  0  0  0  0  0
  -13.5587    0.3949  -50.3064 C   0  0  2  0  0  0  0  0  0  0  0  0
  -12.3383    0.4828  -49.4147 C   0  0  1  0  0  0  0  0  0  0  0  0
  -11.5507   -0.6409  -49.4520 O   0  0  0  0  0  0  0  0  0  0  0  0
  -11.6294    1.7086  -49.9367 C   0  0  1  0  0  0  0  0  0  0  0  0
  -10.2734    1.5408  -49.8400 O   0  0  0  0  0  0  0  0  0  0  0  0
  -12.1467    1.8095  -51.3476 C   0  0  1  0  0  0  0  0  0  0  0  0
  -13.3564    1.1702  -51.4123 O   0  0  0  0  0  0  0  0  0  0  0  0
  -12.2182    3.1928  -51.7856 N   0  0  0  0  0  0  0  0  0  0  0  0
  -11.2234    3.8977  -52.3055 C   0  0  0  0  0  0  0  0  0  0  0  0
  -11.6882    5.1512  -52.5873 C   0  0  0  0  0  0  0  0  0  0  0  0
  -12.9695    5.1840  -52.2292 N   0  0  0  0  0  0  0  0  0  0  0  0
  -13.3046    3.9787  -51.7333 C   0  0  0  0  0  0  0  0  0  0  0  0
   -9.9463    3.5754  -52.5660 N   0  0  0  0  0  0  0  0  0  0  0  0
   -9.1418    4.4863  -53.0989 C   0  0  0  0  0  0  0  0  0  0  0  0
   -9.5771    5.7382  -53.3888 N   0  0  0  0  0  0  0  0  0  0  0  0
  -10.8462    6.0768  -53.1364 C   0  0  0  0  0  0  0  0  0  0  0  0
  -11.2592    7.4060  -53.4608 N   0  0  0  0  0  0  0  0  0  0  0  0
   -6.4596    4.2157  -34.7875 H   0  0  0  0  0  0  0  0  0  0  0  0
  1  2  1  0
  4  1  1  0
  2  3  2  0
  4  5  1  6
  9  4  1  0
  5  6  1  0
  6  7  1  0
  7  8  1  0
  9 10  2  0
 11  9  1  0
 12 11  1  0
 13 12  1  0
 12 15  1  1
 13 14  2  0
 22 13  1  0
 15 16  1  0
 16 17  1  0
 17 18  1  0
 18 19  1  0
 19 20  1  0
 19 21  2  0
 23 22  1  1
 24 23  1  0
 23 26  1  0
 24 25  2  0
 29 24  1  0
 26 27  1  0
 26 28  1  1
 30 29  1  0
 31 30  1  0
 31 32  2  0
 33 31  1  0
 34 33  1  0
 35 34  1  0
 34 37  1  6
 35 36  2  0
 41 35  1  0
 37 38  1  0
 38 39  2  0
 38 40  1  0
 42 41  1  0
 43 42  1  0
 42 45  1  6
 43 44  2  0
 46 43  1  0
 47 46  1  0
 48 47  1  0
 47 50  1  6
 48 49  2  0
 57 48  1  0
 50 51  1  0
 51 52  2  0
 51 53  1  0
 55 54  2  0
 55 56  1  1
 55 57  1  0
 55 58  1  0
 58 59  1  0
 60 59  1  1
 60 61  1  0
 60 66  1  0
 61 62  1  6
 61 63  1  0
 63 64  1  6
 63 65  1  0
 65 66  1  0
 65 67  1  1
 67 68  1  0
 67 71  1  0
 68 69  2  0
 68 72  1  0
 69 70  1  0
 69 75  1  0
 70 71  2  0
 72 73  2  0
 73 74  1  0
 74 75  2  0
 75 76  1  0
 21 77  1  0
M  END
$$$$
