
     RDKit          3D

 77 79  0  0  0  0  0  0  0  0999 V2000
   -9.9048    2.6834  -45.9113 N   0  0  0  0  0  0  0  0  0  0  0  0
  -10.1984    1.7463  -46.9316 C   0  0  0  0  0  0  0  0  0  0  0  0
  -11.3018    1.1489  -47.0057 O   0  0  0  0  0  0  0  0  0  0  0  0
  -10.9646    3.4286  -45.2689 C   0  0  1  0  0  0  0  0  0  0  0  0
  -10.4098    4.7488  -44.7676 C   0  0  0  0  0  0  0  0  0  0  0  0
   -9.2927    4.4465  -43.7986 C   0  0  0  0  0  0  0  0  0  0  0  0
   -8.5935    5.9806  -43.1140 S   0  0  0  0  0  0  0  0  0  0  0  0
   -9.9687    6.8141  -42.2376 C   0  0  0  0  0  0  0  0  0  0  0  0
  -12.0119    3.6651  -46.3035 C   0  0  0  0  0  0  0  0  0  0  0  0
  -11.8428    4.4704  -47.2503 O   0  0  0  0  0  0  0  0  0  0  0  0
  -13.2825    2.9806  -46.2653 N   0  0  0  0  0  0  0  0  0  0  0  0
  -14.3597    3.3267  -47.1407 C   0  0  2  0  0  0  0  0  0  0  0  0
  -14.6505    4.8243  -46.9684 C   0  0  0  0  0  0  0  0  0  0  0  0
  -13.8583    5.6252  -47.4713 O   0  0  0  0  0  0  0  0  0  0  0  0
  -15.5816    2.5422  -46.9395 C   0  0  0  0  0  0  0  0  0  0  0  0
  -15.8453    1.2656  -47.6105 C   0  0  0  0  0  0  0  0  0  0  0  0
  -16.8487    0.3142  -47.0723 C   0  0  0  0  0  0  0  0  0  0  0  0
  -18.2110    0.5349  -47.4177 N   0  0  0  0  0  0  0  0  0  0  0  0
  -18.7056    0.2942  -48.7266 C   0  0  0  0  0  0  0  0  0  0  0  0
  -17.8415    0.4216  -49.8438 N   0  0  0  0  0  0  0  0  0  0  0  0
  -19.9226   -0.0358  -48.9098 N   0  0  0  0  0  0  0  0  0  0  0  0
  -15.7869    5.2774  -46.2593 N   0  0  0  0  0  0  0  0  0  0  0  0
  -16.6562    6.3406  -46.7099 C   0  0  2  0  0  0  0  0  0  0  0  0
  -17.7471    6.5807  -45.7020 C   0  0  0  0  0  0  0  0  0  0  0  0
  -18.4916    7.5668  -45.8221 O   0  0  0  0  0  0  0  0  0  0  0  0
  -17.1811    6.1883  -48.1014 C   0  0  2  0  0  0  0  0  0  0  0  0
  -18.0872    5.1889  -48.3121 O   0  0  0  0  0  0  0  0  0  0  0  0
  -16.0277    5.9382  -49.0864 C   0  0  0  0  0  0  0  0  0  0  0  0
  -17.9252    5.6865  -44.6206 N   0  0  0  0  0  0  0  0  0  0  0  0
  -18.2872    6.0347  -43.2780 C   0  0  0  0  0  0  0  0  0  0  0  0
  -17.2136    5.9158  -42.3014 C   0  0  0  0  0  0  0  0  0  0  0  0
  -17.4753    6.1445  -41.0764 O   0  0  0  0  0  0  0  0  0  0  0  0
  -15.8692    5.5589  -42.5960 N   0  0  0  0  0  0  0  0  0  0  0  0
  -14.8728    5.5652  -41.5290 C   0  0  2  0  0  0  0  0  0  0  0  0
  -15.1248    4.4504  -40.5788 C   0  0  0  0  0  0  0  0  0  0  0  0
  -15.5219    3.3613  -41.0220 O   0  0  0  0  0  0  0  0  0  0  0  0
  -14.7873    6.8929  -40.8634 C   0  0  0  0  0  0  0  0  0  0  0  0
  -15.8782    7.1269  -39.8831 C   0  0  0  0  0  0  0  0  0  0  0  0
  -16.9634    7.6690  -40.1368 O   0  0  0  0  0  0  0  0  0  0  0  0
  -15.6682    6.6966  -38.5442 N   0  0  0  0  0  0  0  0  0  0  0  0
  -14.9140    4.6216  -39.1950 N   0  0  0  0  0  0  0  0  0  0  0  0
  -15.0001    3.4893  -38.2636 C   0  0  2  0  0  0  0  0  0  0  0  0
  -13.6844    2.9701  -37.9167 C   0  0  0  0  0  0  0  0  0  0  0  0
  -13.5319    2.3307  -36.8299 O   0  0  0  0  0  0  0  0  0  0  0  0
  -15.8936    2.4134  -38.8805 C   0  0  0  0  0  0  0  0  0  0  0  0
  -12.5144    3.1100  -38.6968 N   0  0  0  0  0  0  0  0  0  0  0  0
  -11.1999    2.5954  -38.2867 C   0  0  2  0  0  0  0  0  0  0  0  0
  -10.2392    3.2882  -39.1763 C   0  0  0  0  0  0  0  0  0  0  0  0
   -9.6572    2.6574  -40.0772 O   0  0  0  0  0  0  0  0  0  0  0  0
  -11.1812    1.1000  -38.4067 C   0  0  0  0  0  0  0  0  0  0  0  0
   -9.8567    0.5621  -38.0755 C   0  0  0  0  0  0  0  0  0  0  0  0
   -8.9054    1.2740  -37.6988 O   0  0  0  0  0  0  0  0  0  0  0  0
   -9.6072   -0.8331  -38.1774 O   0  0  0  0  0  0  0  0  0  0  0  0
   -9.2104    5.0121  -41.6797 O   0  0  0  0  0  0  0  0  0  0  0  0
   -9.8322    5.7098  -40.5083 P   0  0  1  0  0  5  0  0  0  0  0  0
  -11.4522    6.0510  -40.9575 O   0  0  0  0  0  0  0  0  0  0  0  0
   -9.9102    4.6794  -39.0875 N   0  0  0  0  0  0  0  0  0  0  0  0
   -9.1369    7.2072  -40.1789 O   0  0  0  0  0  0  0  0  0  0  0  0
   -9.9958    8.1405  -39.6590 C   0  0  0  0  0  0  0  0  0  0  0  0
   -9.2349    8.8164  -38.5116 C   0  0  2  0  0  0  0  0  0  0  0  0
  -10.2176    9.5013  -37.5857 C   0  0  1  0  0  0  0  0  0  0  0  0
  -10.0285    9.1931  -36.2615 O   0  0  0  0  0  0  0  0  0  0  0  0
   -9.9927   10.9641  -37.8811 C   0  0  1  0  0  0  0  0  0  0  0  0
  -10.1591   11.7023  -36.7394 O   0  0  0  0  0  0  0  0  0  0  0  0
   -8.5911   10.9747  -38.4324 C   0  0  1  0  0  0  0  0  0  0  0  0
   -8.3144    9.7315  -38.9364 O   0  0  0  0  0  0  0  0  0  0  0  0
   -8.4188   12.0305  -39.4153 N   0  0  0  0  0  0  0  0  0  0  0  0
   -7.7657   13.1687  -39.2294 C   0  0  0  0  0  0  0  0  0  0  0  0
   -7.8288   13.8927  -40.3864 C   0  0  0  0  0  0  0  0  0  0  0  0
   -8.5264   13.1728  -41.2618 N   0  0  0  0  0  0  0  0  0  0  0  0
   -8.8943   12.0216  -40.6701 C   0  0  0  0  0  0  0  0  0  0  0  0
   -7.1151   13.6565  -38.1609 N   0  0  0  0  0  0  0  0  0  0  0  0
   -6.5353   14.8474  -38.2409 C   0  0  0  0  0  0  0  0  0  0  0  0
   -6.5823   15.5872  -39.3773 N   0  0  0  0  0  0  0  0  0  0  0  0
   -7.2257   15.1171  -40.4515 C   0  0  0  0  0  0  0  0  0  0  0  0
   -7.2463   15.9311  -41.6261 N   0  0  0  0  0  0  0  0  0  0  0  0
  -20.6992    0.2045  -48.2608 H   0  0  0  0  0  0  0  0  0  0  0  0
  1  2  1  0
  4  1  1  0
  2  3  2  0
  4  5  1  6
  9  4  1  0
  5  6  1  0
  6  7  1  0
  7  8  1  0
  9 10  2  0
 11  9  1  0
 12 11  1  0
 13 12  1  0
 12 15  1  1
 13 14  2  0
 22 13  1  0
 15 16  1  0
 16 17  1  0
 17 18  1  0
 18 19  1  0
 19 20  1  0
 19 21  2  0
 23 22  1  1
 24 23  1  0
 23 26  1  0
 24 25  2  0
 29 24  1  0
 26 27  1  0
 26 28  1  6
 30 29  1  0
 31 30  1  0
 31 32  2  0
 33 31  1  0
 34 33  1  0
 35 34  1  0
 34 37  1  1
 35 36  2  0
 41 35  1  0
 37 38  1  0
 38 39  2  0
 38 40  1  0
 42 41  1  0
 43 42  1  0
 42 45  1  6
 43 44  2  0
 46 43  1  0
 47 46  1  0
 48 47  1  0
 47 50  1  6
 48 49  2  0
 57 48  1  0
 50 51  1  0
 51 52  2  0
 51 53  1  0
 55 54  2  0
 55 56  1  6
 55 57  1  0
 55 58  1  0
 58 59  1  0
 60 59  1  6
 60 61  1  0
 60 66  1  0
 61 62  1  1
 61 63  1  0
 63 64  1  1
 63 65  1  0
 65 66  1  0
 65 67  1  6
 67 68  1  0
 67 71  1  0
 68 69  2  0
 68 72  1  0
 69 70  1  0
 69 75  1  0
 70 71  2  0
 72 73  2  0
 73 74  1  0
 74 75  2  0
 75 76  1  0
 21 77  1  0
M  END
$$$$
