
     RDKit          3D

 77 79  0  0  0  0  0  0  0  0999 V2000
  -16.4260   13.6670  -33.9747 N   0  0  0  0  0  0  0  0  0  0  0  0
  -17.6366   14.3255  -33.7164 C   0  0  0  0  0  0  0  0  0  0  0  0
  -18.1152   14.3185  -32.5603 O   0  0  0  0  0  0  0  0  0  0  0  0
  -15.8186   12.6703  -33.0840 C   0  0  1  0  0  0  0  0  0  0  0  0
  -15.7987   13.2862  -31.7195 C   0  0  0  0  0  0  0  0  0  0  0  0
  -15.0382   12.4845  -30.7009 C   0  0  0  0  0  0  0  0  0  0  0  0
  -15.0832   13.1695  -29.0415 S   0  0  0  0  0  0  0  0  0  0  0  0
  -15.3385   11.8395  -27.8047 C   0  0  0  0  0  0  0  0  0  0  0  0
  -16.5817   11.3927  -33.1777 C   0  0  0  0  0  0  0  0  0  0  0  0
  -16.0842   10.3606  -32.6793 O   0  0  0  0  0  0  0  0  0  0  0  0
  -17.8280   11.3597  -33.8135 N   0  0  0  0  0  0  0  0  0  0  0  0
  -18.2695   10.3093  -34.6691 C   0  0  2  0  0  0  0  0  0  0  0  0
  -17.2840    9.2258  -34.8724 C   0  0  0  0  0  0  0  0  0  0  0  0
  -16.1649    9.5218  -35.3607 O   0  0  0  0  0  0  0  0  0  0  0  0
  -18.8237   10.7459  -35.9937 C   0  0  0  0  0  0  0  0  0  0  0  0
  -20.2955   10.8849  -36.0870 C   0  0  0  0  0  0  0  0  0  0  0  0
  -20.9690   11.6080  -34.9573 C   0  0  0  0  0  0  0  0  0  0  0  0
  -22.3648   11.7631  -35.3007 N   0  0  0  0  0  0  0  0  0  0  0  0
  -22.9194   11.6261  -36.5837 C   0  0  0  0  0  0  0  0  0  0  0  0
  -23.5503   10.4347  -37.0349 N   0  0  0  0  0  0  0  0  0  0  0  0
  -22.8464   12.6465  -37.3955 N   0  0  0  0  0  0  0  0  0  0  0  0
  -17.5022    7.8528  -34.5591 N   0  0  0  0  0  0  0  0  0  0  0  0
  -16.5569    6.7939  -34.7533 C   0  0  2  0  0  0  0  0  0  0  0  0
  -16.2840    6.4881  -36.2006 C   0  0  0  0  0  0  0  0  0  0  0  0
  -16.9794    5.6099  -36.7474 O   0  0  0  0  0  0  0  0  0  0  0  0
  -17.0039    5.5676  -34.0218 C   0  0  2  0  0  0  0  0  0  0  0  0
  -17.8964    5.9200  -32.9814 O   0  0  0  0  0  0  0  0  0  0  0  0
  -15.8122    4.9196  -33.3689 C   0  0  0  0  0  0  0  0  0  0  0  0
  -15.2865    7.1655  -36.9057 N   0  0  0  0  0  0  0  0  0  0  0  0
  -14.5041    6.6035  -37.9616 C   0  0  0  0  0  0  0  0  0  0  0  0
  -13.3142    5.8301  -37.4803 C   0  0  0  0  0  0  0  0  0  0  0  0
  -13.5727    4.8497  -36.7567 O   0  0  0  0  0  0  0  0  0  0  0  0
  -12.0072    6.1785  -37.8226 N   0  0  0  0  0  0  0  0  0  0  0  0
  -11.0991    5.5107  -38.6996 C   0  0  2  0  0  0  0  0  0  0  0  0
  -11.6042    5.4199  -40.0866 C   0  0  0  0  0  0  0  0  0  0  0  0
  -12.1165    4.3738  -40.5627 O   0  0  0  0  0  0  0  0  0  0  0  0
  -10.6868    4.1232  -38.1937 C   0  0  0  0  0  0  0  0  0  0  0  0
   -9.2267    4.0126  -38.2851 C   0  0  0  0  0  0  0  0  0  0  0  0
   -8.5817    4.2763  -39.3336 O   0  0  0  0  0  0  0  0  0  0  0  0
   -8.4551    3.5937  -37.1634 N   0  0  0  0  0  0  0  0  0  0  0  0
  -11.4929    6.5928  -40.8790 N   0  0  0  0  0  0  0  0  0  0  0  0
  -10.9342    6.6768  -42.1802 C   0  0  2  0  0  0  0  0  0  0  0  0
  -10.8200    5.4128  -42.9256 C   0  0  0  0  0  0  0  0  0  0  0  0
  -10.4588    5.4729  -44.1536 O   0  0  0  0  0  0  0  0  0  0  0  0
   -9.4922    7.2159  -42.0663 C   0  0  0  0  0  0  0  0  0  0  0  0
  -11.0764    4.1395  -42.4003 N   0  0  0  0  0  0  0  0  0  0  0  0
  -11.0273    2.9559  -43.2850 C   0  0  2  0  0  0  0  0  0  0  0  0
  -12.3019    2.2213  -42.9528 C   0  0  0  0  0  0  0  0  0  0  0  0
  -12.7808    2.4055  -41.8137 O   0  0  0  0  0  0  0  0  0  0  0  0
   -9.7950    2.2067  -43.0084 C   0  0  0  0  0  0  0  0  0  0  0  0
   -9.9557    0.7548  -43.2851 C   0  0  0  0  0  0  0  0  0  0  0  0
   -8.9974    0.1041  -43.8330 O   0  0  0  0  0  0  0  0  0  0  0  0
  -11.0913    0.0416  -42.9906 O   0  0  0  0  0  0  0  0  0  0  0  0
  -14.1459   -1.0960  -43.6579 O   0  0  0  0  0  0  0  0  0  0  0  0
  -14.3367    0.3754  -43.4200 P   0  0  1  0  0  5  0  0  0  0  0  0
  -14.7043    0.5562  -41.7427 O   0  0  0  0  0  0  0  0  0  0  0  0
  -12.9702    1.3493  -43.8345 N   0  0  0  0  0  0  0  0  0  0  0  0
  -15.7619    0.8465  -44.2210 O   0  0  0  0  0  0  0  0  0  0  0  0
  -15.5588    1.9756  -44.9814 C   0  0  0  0  0  0  0  0  0  0  0  0
  -15.4709    1.5733  -46.4416 C   0  0  2  0  0  0  0  0  0  0  0  0
  -14.1596    0.8792  -46.6793 C   0  0  1  0  0  0  0  0  0  0  0  0
  -14.4248   -0.5015  -46.6080 O   0  0  0  0  0  0  0  0  0  0  0  0
  -13.8103    1.2771  -48.0901 C   0  0  1  0  0  0  0  0  0  0  0  0
  -14.1082    0.2614  -48.9982 O   0  0  0  0  0  0  0  0  0  0  0  0
  -14.6215    2.5061  -48.3130 C   0  0  1  0  0  0  0  0  0  0  0  0
  -15.5258    2.6242  -47.2940 O   0  0  0  0  0  0  0  0  0  0  0  0
  -13.8156    3.6912  -48.4771 N   0  0  0  0  0  0  0  0  0  0  0  0
  -13.6766    4.3570  -49.6319 C   0  0  0  0  0  0  0  0  0  0  0  0
  -12.8390    5.4227  -49.4116 C   0  0  0  0  0  0  0  0  0  0  0  0
  -12.4716    5.4036  -48.1320 N   0  0  0  0  0  0  0  0  0  0  0  0
  -13.0821    4.3236  -47.5541 C   0  0  0  0  0  0  0  0  0  0  0  0
  -14.1936    4.1402  -50.8383 N   0  0  0  0  0  0  0  0  0  0  0  0
  -13.8828    4.9796  -51.8380 C   0  0  0  0  0  0  0  0  0  0  0  0
  -13.0549    6.0411  -51.6446 N   0  0  0  0  0  0  0  0  0  0  0  0
  -12.5170    6.2873  -50.4345 C   0  0  0  0  0  0  0  0  0  0  0  0
  -11.6604    7.4100  -50.2916 N   0  0  0  0  0  0  0  0  0  0  0  0
  -23.5155   12.7152  -38.1921 H   0  0  0  0  0  0  0  0  0  0  0  0
  1  2  1  0
  4  1  1  6
  2  3  2  0
  4  5  1  0
  9  4  1  0
  5  6  1  6
  6  7  1  6
  8  7  1  6
  9 10  2  0
 11  9  1  0
 12 11  1  6
 13 12  1  0
 15 12  1  1
 13 14  2  0
 22 13  1  0
 15 16  1  0
 16 17  1  6
 17 18  1  6
 18 19  1  0
 19 20  1  0
 19 21  2  0
 23 22  1  6
 24 23  1  0
 23 26  1  0
 24 25  2  0
 29 24  1  0
 26 27  1  1
 28 26  1  6
 30 29  1  1
 31 30  1  0
 31 32  2  0
 33 31  1  0
 34 33  1  1
 35 34  1  0
 34 37  1  0
 35 36  2  0
 41 35  1  0
 37 38  1  6
 38 39  2  0
 38 40  1  0
 42 41  1  1
 43 42  1  0
 45 42  1  6
 43 44  2  0
 46 43  1  0
 47 46  1  1
 48 47  1  0
 47 50  1  0
 48 49  2  0
 57 48  1  0
 50 51  1  6
 51 52  2  0
 51 53  1  0
 55 54  2  0
 55 56  1  1
 55 57  1  0
 55 58  1  0
 59 58  1  1
 59 60  1  0
 60 61  1  0
 60 66  1  6
 61 62  1  6
 61 63  1  0
 63 64  1  6
 63 65  1  0
 65 66  1  0
 65 67  1  1
 67 68  1  0
 67 71  1  0
 68 69  2  0
 68 72  1  0
 69 70  1  0
 69 75  1  0
 70 71  2  0
 72 73  2  0
 73 74  1  0
 74 75  2  0
 75 76  1  0
 21 77  1  0
M  END
$$$$
