
     RDKit          3D

 77 79  0  0  0  0  0  0  0  0999 V2000
  -14.1850  -10.8443   -9.7883 N   0  0  0  0  0  0  0  0  0  0  0  0
  -12.8449  -10.5140   -9.5414 C   0  0  0  0  0  0  0  0  0  0  0  0
  -12.3897  -10.5859   -8.3781 O   0  0  0  0  0  0  0  0  0  0  0  0
  -15.3327  -10.0715   -9.2970 C   0  0  1  0  0  0  0  0  0  0  0  0
  -14.8958   -9.4486   -8.0075 C   0  0  0  0  0  0  0  0  0  0  0  0
  -16.0177   -8.8371   -7.2162 C   0  0  0  0  0  0  0  0  0  0  0  0
  -15.5630   -8.3511   -5.5483 S   0  0  0  0  0  0  0  0  0  0  0  0
  -16.4834   -6.8469   -5.0445 C   0  0  0  0  0  0  0  0  0  0  0  0
  -15.7588   -9.0989  -10.3437 C   0  0  0  0  0  0  0  0  0  0  0  0
  -14.9945   -8.1520  -10.6274 O   0  0  0  0  0  0  0  0  0  0  0  0
  -16.9914   -9.2508  -10.9889 N   0  0  0  0  0  0  0  0  0  0  0  0
  -17.4788   -8.3858  -12.0109 C   0  0  2  0  0  0  0  0  0  0  0  0
  -16.5133   -8.1105  -13.0966 C   0  0  0  0  0  0  0  0  0  0  0  0
  -16.1819   -6.9178  -13.3112 O   0  0  0  0  0  0  0  0  0  0  0  0
  -18.0846   -7.0989  -11.5325 C   0  0  0  0  0  0  0  0  0  0  0  0
  -18.9134   -7.1677  -10.3067 C   0  0  0  0  0  0  0  0  0  0  0  0
  -20.0738   -6.2187  -10.2333 C   0  0  0  0  0  0  0  0  0  0  0  0
  -19.7369   -5.1799   -9.2859 N   0  0  0  0  0  0  0  0  0  0  0  0
  -19.3814   -3.8584   -9.6016 C   0  0  0  0  0  0  0  0  0  0  0  0
  -18.2660   -3.5272  -10.4184 N   0  0  0  0  0  0  0  0  0  0  0  0
  -20.1151   -2.8933   -9.1160 N   0  0  0  0  0  0  0  0  0  0  0  0
  -15.9210   -9.0995  -13.9343 N   0  0  0  0  0  0  0  0  0  0  0  0
  -15.0494   -8.8398  -15.0413 C   0  0  2  0  0  0  0  0  0  0  0  0
  -15.2674   -7.4939  -15.6767 C   0  0  0  0  0  0  0  0  0  0  0  0
  -16.0131   -7.4390  -16.6740 O   0  0  0  0  0  0  0  0  0  0  0  0
  -15.1668   -9.9354  -16.0536 C   0  0  2  0  0  0  0  0  0  0  0  0
  -16.5299  -10.2140  -16.3131 O   0  0  0  0  0  0  0  0  0  0  0  0
  -14.5671  -11.1958  -15.4896 C   0  0  0  0  0  0  0  0  0  0  0  0
  -14.6555   -6.3470  -15.1656 N   0  0  0  0  0  0  0  0  0  0  0  0
  -14.7538   -5.0414  -15.7390 C   0  0  0  0  0  0  0  0  0  0  0  0
  -14.7799   -3.9403  -14.7228 C   0  0  0  0  0  0  0  0  0  0  0  0
  -13.6849   -3.6825  -14.1877 O   0  0  0  0  0  0  0  0  0  0  0  0
  -15.9469   -3.2466  -14.4012 N   0  0  0  0  0  0  0  0  0  0  0  0
  -16.8005   -2.4800  -15.2519 C   0  0  2  0  0  0  0  0  0  0  0  0
  -17.7699   -3.3151  -15.9936 C   0  0  0  0  0  0  0  0  0  0  0  0
  -17.4401   -4.0613  -16.9517 O   0  0  0  0  0  0  0  0  0  0  0  0
  -16.0282   -1.5770  -16.2210 C   0  0  0  0  0  0  0  0  0  0  0  0
  -16.3697   -0.1814  -15.9244 C   0  0  0  0  0  0  0  0  0  0  0  0
  -16.5692    0.2441  -14.7564 O   0  0  0  0  0  0  0  0  0  0  0  0
  -16.4914    0.7781  -16.9702 N   0  0  0  0  0  0  0  0  0  0  0  0
  -19.1221   -3.2462  -15.5662 N   0  0  0  0  0  0  0  0  0  0  0  0
  -19.6350   -3.7067  -14.3263 C   0  0  2  0  0  0  0  0  0  0  0  0
  -18.7106   -3.6679  -13.1815 C   0  0  0  0  0  0  0  0  0  0  0  0
  -18.0514   -2.5874  -12.9811 O   0  0  0  0  0  0  0  0  0  0  0  0
  -20.0375   -5.1894  -14.4766 C   0  0  0  0  0  0  0  0  0  0  0  0
  -18.4890   -4.7227  -12.2865 N   0  0  0  0  0  0  0  0  0  0  0  0
  -19.5633   -5.7050  -12.0276 C   0  0  2  0  0  0  0  0  0  0  0  0
  -19.2301   -6.2295  -10.6534 C   0  0  0  0  0  0  0  0  0  0  0  0
  -19.3636   -5.4364   -9.6972 O   0  0  0  0  0  0  0  0  0  0  0  0
  -19.5493   -6.7160  -13.0924 C   0  0  0  0  0  0  0  0  0  0  0  0
  -18.2151   -7.3577  -13.2294 C   0  0  0  0  0  0  0  0  0  0  0  0
  -18.0837   -8.6072  -12.9772 O   0  0  0  0  0  0  0  0  0  0  0  0
  -17.0804   -6.6873  -13.6141 O   0  0  0  0  0  0  0  0  0  0  0  0
  -19.6229   -8.7058   -8.0836 O   0  0  0  0  0  0  0  0  0  0  0  0
  -18.4278   -8.1671   -8.8181 P   0  0  1  0  0  5  0  0  0  0  0  0
  -17.3014   -9.4699   -8.9417 O   0  0  0  0  0  0  0  0  0  0  0  0
  -18.7788   -7.5375  -10.3892 N   0  0  0  0  0  0  0  0  0  0  0  0
  -17.6628   -7.0385   -7.8004 O   0  0  0  0  0  0  0  0  0  0  0  0
  -16.4426   -6.6538   -8.3077 C   0  0  0  0  0  0  0  0  0  0  0  0
  -15.6043   -6.0768   -7.1825 C   0  0  2  0  0  0  0  0  0  0  0  0
  -16.0055   -4.6462   -6.9581 C   0  0  1  0  0  0  0  0  0  0  0  0
  -16.9222   -4.6558   -5.8899 O   0  0  0  0  0  0  0  0  0  0  0  0
  -14.7157   -3.9884   -6.5405 C   0  0  1  0  0  0  0  0  0  0  0  0
  -14.6517   -3.8166   -5.1580 O   0  0  0  0  0  0  0  0  0  0  0  0
  -13.6719   -4.9178   -7.0551 C   0  0  1  0  0  0  0  0  0  0  0  0
  -14.2755   -6.0816   -7.4438 O   0  0  0  0  0  0  0  0  0  0  0  0
  -12.8661   -4.3368   -8.1011 N   0  0  0  0  0  0  0  0  0  0  0  0
  -11.5694   -4.0239   -7.9711 C   0  0  0  0  0  0  0  0  0  0  0  0
  -11.1375   -3.4927   -9.1616 C   0  0  0  0  0  0  0  0  0  0  0  0
  -12.1651   -3.4827  -10.0081 N   0  0  0  0  0  0  0  0  0  0  0  0
  -13.2394   -4.0091   -9.3433 C   0  0  0  0  0  0  0  0  0  0  0  0
  -10.7343   -4.1502   -6.9433 N   0  0  0  0  0  0  0  0  0  0  0  0
   -9.4620   -3.7491   -7.0878 C   0  0  0  0  0  0  0  0  0  0  0  0
   -9.0112   -3.2192   -8.2564 N   0  0  0  0  0  0  0  0  0  0  0  0
   -9.8324   -3.0797   -9.3150 C   0  0  0  0  0  0  0  0  0  0  0  0
   -9.3066   -2.5207  -10.5090 N   0  0  0  0  0  0  0  0  0  0  0  0
  -21.0151   -2.6504   -9.5829 H   0  0  0  0  0  0  0  0  0  0  0  0
  1  2  1  0
  4  1  1  6
  2  3  2  0
  4  5  1  0
  9  4  1  0
  5  6  1  6
  6  7  1  6
  8  7  1  6
  9 10  2  0
 11  9  1  0
 12 11  1  1
 13 12  1  0
 15 12  1  1
 13 14  2  0
 22 13  1  0
 15 16  1  0
 16 17  1  6
 17 18  1  6
 18 19  1  0
 19 20  1  0
 19 21  2  0
 23 22  1  1
 24 23  1  0
 23 26  1  0
 24 25  2  0
 29 24  1  0
 26 27  1  1
 28 26  1  6
 30 29  1  1
 31 30  1  0
 31 32  2  0
 33 31  1  0
 34 33  1  6
 35 34  1  0
 34 37  1  0
 35 36  2  0
 41 35  1  0
 37 38  1  6
 38 39  2  0
 38 40  1  0
 42 41  1  6
 43 42  1  0
 45 42  1  6
 43 44  2  0
 46 43  1  0
 47 46  1  6
 48 47  1  0
 47 50  1  0
 48 49  2  0
 57 48  1  0
 50 51  1  6
 51 52  2  0
 51 53  1  0
 55 54  2  0
 55 56  1  6
 55 57  1  0
 55 58  1  0
 59 58  1  1
 59 60  1  0
 60 61  1  0
 60 66  1  6
 61 62  1  1
 61 63  1  0
 63 64  1  1
 63 65  1  0
 65 66  1  0
 65 67  1  6
 67 68  1  0
 67 71  1  0
 68 69  2  0
 68 72  1  0
 69 70  1  0
 69 75  1  0
 70 71  2  0
 72 73  2  0
 73 74  1  0
 74 75  2  0
 75 76  1  0
 21 77  1  0
M  END
$$$$
