
     RDKit          3D

 77 79  0  0  0  0  0  0  0  0999 V2000
  -16.6756   -0.8722   -5.7860 N   0  0  0  0  0  0  0  0  0  0  0  0
  -16.7268   -2.0840   -5.0551 C   0  0  0  0  0  0  0  0  0  0  0  0
  -17.7089   -2.4014   -4.3377 O   0  0  0  0  0  0  0  0  0  0  0  0
  -15.6281   -0.6409   -6.7557 C   0  0  1  0  0  0  0  0  0  0  0  0
  -14.9522    0.6827   -6.4502 C   0  0  0  0  0  0  0  0  0  0  0  0
  -15.5042    1.1965   -5.1428 C   0  0  0  0  0  0  0  0  0  0  0  0
  -14.6885    2.7493   -4.6585 S   0  0  0  0  0  0  0  0  0  0  0  0
  -15.8595    3.6067   -3.5415 C   0  0  0  0  0  0  0  0  0  0  0  0
  -14.6573   -1.7639   -6.6158 C   0  0  0  0  0  0  0  0  0  0  0  0
  -13.6739   -1.7012   -5.8396 O   0  0  0  0  0  0  0  0  0  0  0  0
  -14.7966   -2.9844   -7.3743 N   0  0  0  0  0  0  0  0  0  0  0  0
  -13.6801   -3.6221   -8.0013 C   0  0  2  0  0  0  0  0  0  0  0  0
  -14.1058   -4.0454   -9.4143 C   0  0  0  0  0  0  0  0  0  0  0  0
  -13.3308   -4.7563  -10.0593 O   0  0  0  0  0  0  0  0  0  0  0  0
  -13.1432   -4.7697   -7.2638 C   0  0  0  0  0  0  0  0  0  0  0  0
  -13.6723   -5.2243   -5.9742 C   0  0  0  0  0  0  0  0  0  0  0  0
  -14.5457   -6.4207   -5.8875 C   0  0  0  0  0  0  0  0  0  0  0  0
  -14.6180   -7.2627   -7.0319 N   0  0  0  0  0  0  0  0  0  0  0  0
  -13.8003   -8.4146   -7.1733 C   0  0  0  0  0  0  0  0  0  0  0  0
  -13.4289   -9.1635   -6.0278 N   0  0  0  0  0  0  0  0  0  0  0  0
  -13.3939   -8.7847   -8.3229 N   0  0  0  0  0  0  0  0  0  0  0  0
  -15.3436   -3.6387   -9.9639 N   0  0  0  0  0  0  0  0  0  0  0  0
  -15.8453   -4.0730  -11.2479 C   0  0  2  0  0  0  0  0  0  0  0  0
  -14.7108   -4.2190  -12.2254 C   0  0  0  0  0  0  0  0  0  0  0  0
  -13.5737   -3.8308  -11.9131 O   0  0  0  0  0  0  0  0  0  0  0  0
  -16.9775   -3.2654  -11.7964 C   0  0  2  0  0  0  0  0  0  0  0  0
  -16.7317   -1.9443  -12.0381 O   0  0  0  0  0  0  0  0  0  0  0  0
  -18.1819   -3.3114  -10.8421 C   0  0  0  0  0  0  0  0  0  0  0  0
  -14.9375   -4.7967  -13.4965 N   0  0  0  0  0  0  0  0  0  0  0  0
  -14.1218   -4.6340  -14.6639 C   0  0  0  0  0  0  0  0  0  0  0  0
  -14.8412   -4.2356  -15.8657 C   0  0  0  0  0  0  0  0  0  0  0  0
  -14.1989   -4.1540  -16.9621 O   0  0  0  0  0  0  0  0  0  0  0  0
  -16.2268   -3.9228  -15.9296 N   0  0  0  0  0  0  0  0  0  0  0  0
  -16.8969   -3.8856  -17.2260 C   0  0  2  0  0  0  0  0  0  0  0  0
  -17.2139   -5.2634  -17.6847 C   0  0  0  0  0  0  0  0  0  0  0  0
  -16.2955   -6.0934  -17.7732 O   0  0  0  0  0  0  0  0  0  0  0  0
  -16.1217   -3.1009  -18.2242 C   0  0  0  0  0  0  0  0  0  0  0  0
  -16.8551   -1.9130  -18.7312 C   0  0  0  0  0  0  0  0  0  0  0  0
  -17.8675   -1.4222  -18.2115 O   0  0  0  0  0  0  0  0  0  0  0  0
  -16.3618   -1.2827  -19.9064 N   0  0  0  0  0  0  0  0  0  0  0  0
  -18.5364   -5.6276  -18.0119 N   0  0  0  0  0  0  0  0  0  0  0  0
  -18.8951   -7.0219  -18.3017 C   0  0  2  0  0  0  0  0  0  0  0  0
  -19.1765   -7.7741  -17.0869 C   0  0  0  0  0  0  0  0  0  0  0  0
  -20.3688   -7.8381  -16.6540 O   0  0  0  0  0  0  0  0  0  0  0  0
  -17.7708   -7.6580  -19.1191 C   0  0  0  0  0  0  0  0  0  0  0  0
  -18.2210   -8.4679  -16.3106 N   0  0  0  0  0  0  0  0  0  0  0  0
  -18.5529   -9.1989  -15.0791 C   0  0  2  0  0  0  0  0  0  0  0  0
  -18.0817   -8.3150  -13.9877 C   0  0  0  0  0  0  0  0  0  0  0  0
  -18.0242   -8.7419  -12.8204 O   0  0  0  0  0  0  0  0  0  0  0  0
  -17.9014  -10.5502  -15.1009 C   0  0  0  0  0  0  0  0  0  0  0  0
  -18.0811  -11.2415  -13.8191 C   0  0  0  0  0  0  0  0  0  0  0  0
  -17.9544  -12.4742  -13.6844 O   0  0  0  0  0  0  0  0  0  0  0  0
  -18.4169  -10.5043  -12.6516 O   0  0  0  0  0  0  0  0  0  0  0  0
  -16.6620   -4.8570  -12.7869 O   0  0  0  0  0  0  0  0  0  0  0  0
  -17.8600   -5.7494  -12.9046 P   0  0  1  0  0  5  0  0  0  0  0  0
  -19.1637   -4.7422  -13.3823 O   0  0  0  0  0  0  0  0  0  0  0  0
  -17.6671   -6.9557  -14.1673 N   0  0  0  0  0  0  0  0  0  0  0  0
  -18.3341   -6.4251  -11.4373 O   0  0  0  0  0  0  0  0  0  0  0  0
  -18.9970   -7.6206  -11.5398 C   0  0  0  0  0  0  0  0  0  0  0  0
  -19.2744   -8.0701  -10.1000 C   0  0  2  0  0  0  0  0  0  0  0  0
  -18.3589   -9.2219   -9.7432 C   0  0  1  0  0  0  0  0  0  0  0  0
  -17.6998   -9.0487   -8.5516 O   0  0  0  0  0  0  0  0  0  0  0  0
  -19.2983  -10.4029   -9.7228 C   0  0  1  0  0  0  0  0  0  0  0  0
  -18.9089  -11.2930   -8.7574 O   0  0  0  0  0  0  0  0  0  0  0  0
  -20.6340   -9.7540   -9.4713 C   0  0  1  0  0  0  0  0  0  0  0  0
  -20.5690   -8.4518   -9.8912 O   0  0  0  0  0  0  0  0  0  0  0  0
  -21.7091  -10.4961  -10.1067 N   0  0  0  0  0  0  0  0  0  0  0  0
  -22.3720  -11.5142   -9.5768 C   0  0  0  0  0  0  0  0  0  0  0  0
  -23.3017  -11.9386  -10.4838 C   0  0  0  0  0  0  0  0  0  0  0  0
  -23.1841  -11.1622  -11.5582 N   0  0  0  0  0  0  0  0  0  0  0  0
  -22.2031  -10.2689  -11.3335 C   0  0  0  0  0  0  0  0  0  0  0  0
  -22.2621  -12.1235   -8.3854 N   0  0  0  0  0  0  0  0  0  0  0  0
  -23.0646  -13.1407   -8.0991 C   0  0  0  0  0  0  0  0  0  0  0  0
  -23.9965  -13.5824   -8.9809 N   0  0  0  0  0  0  0  0  0  0  0  0
  -24.1203  -12.9873  -10.1723 C   0  0  0  0  0  0  0  0  0  0  0  0
  -25.1172  -13.4861  -11.0668 N   0  0  0  0  0  0  0  0  0  0  0  0
  -13.5382   -8.2418   -9.1984 H   0  0  0  0  0  0  0  0  0  0  0  0
  1  2  1  0
  4  1  1  0
  2  3  2  0
  4  5  1  1
  9  4  1  0
  5  6  1  0
  6  7  1  0
  7  8  1  0
  9 10  2  0
 11  9  1  0
 12 11  1  0
 13 12  1  0
 12 15  1  1
 13 14  2  0
 22 13  1  0
 15 16  1  0
 16 17  1  0
 17 18  1  0
 18 19  1  0
 19 20  1  0
 19 21  2  0
 23 22  1  1
 24 23  1  0
 23 26  1  0
 24 25  2  0
 29 24  1  0
 26 27  1  0
 26 28  1  1
 30 29  1  0
 31 30  1  0
 31 32  2  0
 33 31  1  0
 34 33  1  0
 35 34  1  0
 34 37  1  6
 35 36  2  0
 41 35  1  0
 37 38  1  0
 38 39  2  0
 38 40  1  0
 42 41  1  0
 43 42  1  0
 42 45  1  1
 43 44  2  0
 46 43  1  0
 47 46  1  0
 48 47  1  0
 47 50  1  6
 48 49  2  0
 57 48  1  0
 50 51  1  0
 51 52  2  0
 51 53  1  0
 55 54  2  0
 55 56  1  6
 55 57  1  0
 55 58  1  0
 58 59  1  0
 60 59  1  6
 60 61  1  0
 60 66  1  0
 61 62  1  1
 61 63  1  0
 63 64  1  1
 63 65  1  0
 65 66  1  0
 65 67  1  6
 67 68  1  0
 67 71  1  0
 68 69  2  0
 68 72  1  0
 69 70  1  0
 69 75  1  0
 70 71  2  0
 72 73  2  0
 73 74  1  0
 74 75  2  0
 75 76  1  0
 21 77  1  0
M  END
$$$$
