
     RDKit          3D

 77 79  0  0  0  0  0  0  0  0999 V2000
  -19.7410    4.1001  -12.7998 N   0  0  0  0  0  0  0  0  0  0  0  0
  -20.8647    3.4844  -12.1965 C   0  0  0  0  0  0  0  0  0  0  0  0
  -21.7965    4.1432  -11.6697 O   0  0  0  0  0  0  0  0  0  0  0  0
  -18.7198    3.3017  -13.4408 C   0  0  1  0  0  0  0  0  0  0  0  0
  -17.5825    4.2068  -13.8760 C   0  0  0  0  0  0  0  0  0  0  0  0
  -16.8719    3.5399  -15.0286 C   0  0  0  0  0  0  0  0  0  0  0  0
  -17.9026    3.5626  -16.5280 S   0  0  0  0  0  0  0  0  0  0  0  0
  -16.8975    2.7778  -17.8425 C   0  0  0  0  0  0  0  0  0  0  0  0
  -18.2421    2.3193  -12.4260 C   0  0  0  0  0  0  0  0  0  0  0  0
  -18.9165    1.3111  -12.1062 O   0  0  0  0  0  0  0  0  0  0  0  0
  -16.9758    2.4817  -11.7520 N   0  0  0  0  0  0  0  0  0  0  0  0
  -16.4826    1.5182  -10.8168 C   0  0  2  0  0  0  0  0  0  0  0  0
  -16.1694    0.2264  -11.5851 C   0  0  0  0  0  0  0  0  0  0  0  0
  -15.4398   -0.6049  -11.0385 O   0  0  0  0  0  0  0  0  0  0  0  0
  -17.3871    1.2404   -9.6970 C   0  0  0  0  0  0  0  0  0  0  0  0
  -18.0034    2.2856   -8.8740 C   0  0  0  0  0  0  0  0  0  0  0  0
  -18.8458    1.9367   -7.7034 C   0  0  0  0  0  0  0  0  0  0  0  0
  -19.4226    3.0099   -6.9690 N   0  0  0  0  0  0  0  0  0  0  0  0
  -20.0087    2.8191   -5.6900 C   0  0  0  0  0  0  0  0  0  0  0  0
  -20.1861    1.5072   -5.1817 N   0  0  0  0  0  0  0  0  0  0  0  0
  -20.3794    3.8177   -4.9907 N   0  0  0  0  0  0  0  0  0  0  0  0
  -16.6969   -0.0098  -12.8757 N   0  0  0  0  0  0  0  0  0  0  0  0
  -16.4403   -1.2004  -13.6538 C   0  0  2  0  0  0  0  0  0  0  0  0
  -17.0529   -1.0679  -15.0216 C   0  0  0  0  0  0  0  0  0  0  0  0
  -18.2490   -1.3536  -15.1920 O   0  0  0  0  0  0  0  0  0  0  0  0
  -16.7980   -2.4886  -12.9849 C   0  0  2  0  0  0  0  0  0  0  0  0
  -16.6880   -3.6239  -13.7355 O   0  0  0  0  0  0  0  0  0  0  0  0
  -18.2490   -2.4463  -12.4787 C   0  0  0  0  0  0  0  0  0  0  0  0
  -16.2700   -0.6192  -16.1108 N   0  0  0  0  0  0  0  0  0  0  0  0
  -15.1663   -1.3113  -16.7088 C   0  0  0  0  0  0  0  0  0  0  0  0
  -15.4828   -2.6292  -17.2412 C   0  0  0  0  0  0  0  0  0  0  0  0
  -14.5429   -3.3258  -17.7439 O   0  0  0  0  0  0  0  0  0  0  0  0
  -16.7742   -3.2242  -17.2511 N   0  0  0  0  0  0  0  0  0  0  0  0
  -16.9004   -4.6663  -17.4395 C   0  0  2  0  0  0  0  0  0  0  0  0
  -15.9984   -5.3912  -16.5068 C   0  0  0  0  0  0  0  0  0  0  0  0
  -14.8565   -5.6927  -16.8881 O   0  0  0  0  0  0  0  0  0  0  0  0
  -16.7053   -5.0549  -18.8622 C   0  0  0  0  0  0  0  0  0  0  0  0
  -17.7082   -4.4508  -19.7761 C   0  0  0  0  0  0  0  0  0  0  0  0
  -18.9376   -4.5466  -19.6523 O   0  0  0  0  0  0  0  0  0  0  0  0
  -17.2267   -3.7006  -20.8839 N   0  0  0  0  0  0  0  0  0  0  0  0
  -16.4275   -5.7302  -15.2070 N   0  0  0  0  0  0  0  0  0  0  0  0
  -15.5749   -6.5100  -14.3004 C   0  0  2  0  0  0  0  0  0  0  0  0
  -16.2595   -6.8356  -13.0569 C   0  0  0  0  0  0  0  0  0  0  0  0
  -17.4042   -7.3843  -13.0993 O   0  0  0  0  0  0  0  0  0  0  0  0
  -14.2819   -5.7330  -14.0532 C   0  0  0  0  0  0  0  0  0  0  0  0
  -15.7603   -6.5945  -11.7570 N   0  0  0  0  0  0  0  0  0  0  0  0
  -16.5861   -6.6737  -10.5434 C   0  0  2  0  0  0  0  0  0  0  0  0
  -17.9280   -7.0627  -11.0358 C   0  0  0  0  0  0  0  0  0  0  0  0
  -18.9246   -6.9259  -10.3035 O   0  0  0  0  0  0  0  0  0  0  0  0
  -16.5530   -5.3590   -9.8213 C   0  0  0  0  0  0  0  0  0  0  0  0
  -17.4296   -5.3828   -8.6448 C   0  0  0  0  0  0  0  0  0  0  0  0
  -18.1738   -4.4342   -8.3285 O   0  0  0  0  0  0  0  0  0  0  0  0
  -17.4593   -6.5250   -7.8000 O   0  0  0  0  0  0  0  0  0  0  0  0
  -20.7625   -7.6838  -13.1679 O   0  0  0  0  0  0  0  0  0  0  0  0
  -19.6338   -8.5411  -12.6816 P   0  0  1  0  0  5  0  0  0  0  0  0
  -19.2382   -9.5940  -13.9767 O   0  0  0  0  0  0  0  0  0  0  0  0
  -18.1891   -7.6028  -12.3365 N   0  0  0  0  0  0  0  0  0  0  0  0
  -20.0655   -9.5494  -11.4044 O   0  0  0  0  0  0  0  0  0  0  0  0
  -19.0462  -10.3190  -10.9066 C   0  0  0  0  0  0  0  0  0  0  0  0
  -19.6856  -11.2277   -9.8495 C   0  0  2  0  0  0  0  0  0  0  0  0
  -20.7804  -10.4720   -9.1266 C   0  0  1  0  0  0  0  0  0  0  0  0
  -21.9669  -11.1590   -9.0585 O   0  0  0  0  0  0  0  0  0  0  0  0
  -20.1737  -10.2213   -7.7677 C   0  0  1  0  0  0  0  0  0  0  0  0
  -21.1473  -10.2680   -6.8055 O   0  0  0  0  0  0  0  0  0  0  0  0
  -19.1411  -11.3129   -7.6642 C   0  0  1  0  0  0  0  0  0  0  0  0
  -18.7933  -11.7017   -8.9307 O   0  0  0  0  0  0  0  0  0  0  0  0
  -17.9993  -10.8858   -6.8741 N   0  0  0  0  0  0  0  0  0  0  0  0
  -17.8022  -11.1414   -5.5886 C   0  0  0  0  0  0  0  0  0  0  0  0
  -16.6182  -10.5708   -5.2151 C   0  0  0  0  0  0  0  0  0  0  0  0
  -16.1139   -9.9733   -6.2920 N   0  0  0  0  0  0  0  0  0  0  0  0
  -16.9605  -10.1631   -7.3206 C   0  0  0  0  0  0  0  0  0  0  0  0
  -18.5385  -11.8192   -4.6935 N   0  0  0  0  0  0  0  0  0  0  0  0
  -18.1046  -11.9283   -3.4442 C   0  0  0  0  0  0  0  0  0  0  0  0
  -16.9328  -11.3718   -3.0464 N   0  0  0  0  0  0  0  0  0  0  0  0
  -16.1862  -10.6934   -3.9245 C   0  0  0  0  0  0  0  0  0  0  0  0
  -14.9590  -10.1271   -3.4598 N   0  0  0  0  0  0  0  0  0  0  0  0
  -20.2144    4.8107   -5.2530 H   0  0  0  0  0  0  0  0  0  0  0  0
  1  2  1  0
  4  1  1  0
  2  3  2  0
  4  5  1  1
  9  4  1  0
  5  6  1  0
  6  7  1  0
  7  8  1  0
  9 10  2  0
 11  9  1  0
 12 11  1  0
 13 12  1  0
 12 15  1  1
 13 14  2  0
 22 13  1  0
 15 16  1  0
 16 17  1  0
 17 18  1  0
 18 19  1  0
 19 20  1  0
 19 21  2  0
 23 22  1  1
 24 23  1  0
 23 26  1  0
 24 25  2  0
 29 24  1  0
 26 27  1  0
 26 28  1  6
 30 29  1  0
 31 30  1  0
 31 32  2  0
 33 31  1  0
 34 33  1  0
 35 34  1  0
 34 37  1  6
 35 36  2  0
 41 35  1  0
 37 38  1  0
 38 39  2  0
 38 40  1  0
 42 41  1  0
 43 42  1  0
 42 45  1  1
 43 44  2  0
 46 43  1  0
 47 46  1  0
 48 47  1  0
 47 50  1  6
 48 49  2  0
 57 48  1  0
 50 51  1  0
 51 52  2  0
 51 53  1  0
 55 54  2  0
 55 56  1  6
 55 57  1  0
 55 58  1  0
 58 59  1  0
 60 59  1  6
 60 61  1  0
 60 66  1  0
 61 62  1  1
 61 63  1  0
 63 64  1  1
 63 65  1  0
 65 66  1  0
 65 67  1  6
 67 68  1  0
 67 71  1  0
 68 69  2  0
 68 72  1  0
 69 70  1  0
 69 75  1  0
 70 71  2  0
 72 73  2  0
 73 74  1  0
 74 75  2  0
 75 76  1  0
 21 77  1  0
M  END
$$$$
