
     RDKit          3D

 77 79  0  0  0  0  0  0  0  0999 V2000
  -17.8794    5.3999  -51.8082 N   0  0  0  0  0  0  0  0  0  0  0  0
  -18.4249    5.7161  -53.0604 C   0  0  0  0  0  0  0  0  0  0  0  0
  -19.0972    4.8623  -53.6806 O   0  0  0  0  0  0  0  0  0  0  0  0
  -17.1231    4.1750  -51.5193 C   0  0  1  0  0  0  0  0  0  0  0  0
  -15.8825    4.2431  -52.3547 C   0  0  0  0  0  0  0  0  0  0  0  0
  -14.9524    3.0789  -52.1590 C   0  0  0  0  0  0  0  0  0  0  0  0
  -15.0082    1.8618  -53.4783 S   0  0  0  0  0  0  0  0  0  0  0  0
  -13.6543    0.6403  -53.2825 C   0  0  0  0  0  0  0  0  0  0  0  0
  -16.8791    4.0788  -50.0515 C   0  0  0  0  0  0  0  0  0  0  0  0
  -16.5262    2.9793  -49.5743 O   0  0  0  0  0  0  0  0  0  0  0  0
  -17.0454    5.2018  -49.2330 N   0  0  0  0  0  0  0  0  0  0  0  0
  -16.7041    5.2499  -47.8504 C   0  0  2  0  0  0  0  0  0  0  0  0
  -17.8280    4.9762  -46.9291 C   0  0  0  0  0  0  0  0  0  0  0  0
  -17.5874    4.9129  -45.6977 O   0  0  0  0  0  0  0  0  0  0  0  0
  -15.9751    6.4848  -47.4082 C   0  0  0  0  0  0  0  0  0  0  0  0
  -16.4165    7.0991  -46.1346 C   0  0  0  0  0  0  0  0  0  0  0  0
  -16.1006    8.5550  -45.9529 C   0  0  0  0  0  0  0  0  0  0  0  0
  -14.7547    8.6546  -45.4344 N   0  0  0  0  0  0  0  0  0  0  0  0
  -14.3240    8.2263  -44.1681 C   0  0  0  0  0  0  0  0  0  0  0  0
  -13.3768    7.1828  -43.9810 N   0  0  0  0  0  0  0  0  0  0  0  0
  -14.8239    8.8191  -43.1174 N   0  0  0  0  0  0  0  0  0  0  0  0
  -19.1808    4.7719  -47.3279 N   0  0  0  0  0  0  0  0  0  0  0  0
  -20.1005    3.8594  -46.7161 C   0  0  2  0  0  0  0  0  0  0  0  0
  -19.8265    2.4173  -47.0445 C   0  0  0  0  0  0  0  0  0  0  0  0
  -20.4500    1.9128  -47.9988 O   0  0  0  0  0  0  0  0  0  0  0  0
  -21.5052    4.2324  -47.0721 C   0  0  2  0  0  0  0  0  0  0  0  0
  -22.4198    3.4509  -46.3265 O   0  0  0  0  0  0  0  0  0  0  0  0
  -21.7479    3.9155  -48.5237 C   0  0  0  0  0  0  0  0  0  0  0  0
  -18.9053    1.6713  -46.3057 N   0  0  0  0  0  0  0  0  0  0  0  0
  -18.6202    0.2859  -46.5114 C   0  0  0  0  0  0  0  0  0  0  0  0
  -17.8774   -0.3489  -45.3751 C   0  0  0  0  0  0  0  0  0  0  0  0
  -18.3043   -1.4623  -45.0148 O   0  0  0  0  0  0  0  0  0  0  0  0
  -16.7800    0.2602  -44.7656 N   0  0  0  0  0  0  0  0  0  0  0  0
  -15.4961   -0.2905  -44.4689 C   0  0  2  0  0  0  0  0  0  0  0  0
  -14.3849    0.6031  -44.8612 C   0  0  0  0  0  0  0  0  0  0  0  0
  -13.8213    0.5439  -45.9848 O   0  0  0  0  0  0  0  0  0  0  0  0
  -15.2893   -1.6873  -45.0665 C   0  0  0  0  0  0  0  0  0  0  0  0
  -16.2999   -2.5871  -44.4997 C   0  0  0  0  0  0  0  0  0  0  0  0
  -16.3820   -2.8405  -43.2691 O   0  0  0  0  0  0  0  0  0  0  0  0
  -17.2579   -3.2281  -45.3367 N   0  0  0  0  0  0  0  0  0  0  0  0
  -13.9727    1.5614  -43.8980 N   0  0  0  0  0  0  0  0  0  0  0  0
  -12.9761    2.5551  -44.0758 C   0  0  2  0  0  0  0  0  0  0  0  0
  -13.3123    3.9095  -43.6078 C   0  0  0  0  0  0  0  0  0  0  0  0
  -12.3520    4.7429  -43.4481 O   0  0  0  0  0  0  0  0  0  0  0  0
  -12.6885    2.7038  -45.5852 C   0  0  0  0  0  0  0  0  0  0  0  0
  -14.6048    4.3665  -43.3191 N   0  0  0  0  0  0  0  0  0  0  0  0
  -14.7916    5.5154  -42.4074 C   0  0  2  0  0  0  0  0  0  0  0  0
  -13.5743    5.4548  -41.5190 C   0  0  0  0  0  0  0  0  0  0  0  0
  -12.5926    6.1502  -41.8561 O   0  0  0  0  0  0  0  0  0  0  0  0
  -16.0731    5.3626  -41.7069 C   0  0  0  0  0  0  0  0  0  0  0  0
  -16.1733    6.2680  -40.5318 C   0  0  0  0  0  0  0  0  0  0  0  0
  -16.2420    5.7709  -39.3527 O   0  0  0  0  0  0  0  0  0  0  0  0
  -16.2021    7.6376  -40.6223 O   0  0  0  0  0  0  0  0  0  0  0  0
  -10.8645    5.1049  -39.7449 O   0  0  0  0  0  0  0  0  0  0  0  0
  -12.2195    4.7915  -39.1758 P   0  0  1  0  0  5  0  0  0  0  0  0
  -12.5820    6.0520  -38.0528 O   0  0  0  0  0  0  0  0  0  0  0  0
  -13.4783    4.6688  -40.3540 N   0  0  0  0  0  0  0  0  0  0  0  0
  -12.0647    3.3966  -38.2140 O   0  0  0  0  0  0  0  0  0  0  0  0
  -13.2825    2.9964  -37.7132 C   0  0  0  0  0  0  0  0  0  0  0  0
  -13.1031    2.5769  -36.2663 C   0  0  2  0  0  0  0  0  0  0  0  0
  -14.4165    2.7177  -35.5500 C   0  0  1  0  0  0  0  0  0  0  0  0
  -15.0064    1.4396  -35.5517 O   0  0  0  0  0  0  0  0  0  0  0  0
  -14.0068    3.1079  -34.1533 C   0  0  1  0  0  0  0  0  0  0  0  0
  -14.0524    2.0195  -33.2825 O   0  0  0  0  0  0  0  0  0  0  0  0
  -12.6292    3.6440  -34.3348 C   0  0  1  0  0  0  0  0  0  0  0  0
  -12.2003    3.3307  -35.5950 O   0  0  0  0  0  0  0  0  0  0  0  0
  -12.5319    5.0553  -34.0526 N   0  0  0  0  0  0  0  0  0  0  0  0
  -12.5509    5.5830  -32.8208 C   0  0  0  0  0  0  0  0  0  0  0  0
  -12.4411    6.9468  -32.9394 C   0  0  0  0  0  0  0  0  0  0  0  0
  -12.3567    7.2448  -34.2343 N   0  0  0  0  0  0  0  0  0  0  0  0
  -12.4138    6.0638  -34.9237 C   0  0  0  0  0  0  0  0  0  0  0  0
  -12.6510    5.0134  -31.6228 N   0  0  0  0  0  0  0  0  0  0  0  0
  -12.6440    5.7932  -30.5308 C   0  0  0  0  0  0  0  0  0  0  0  0
  -12.5373    7.1459  -30.6229 N   0  0  0  0  0  0  0  0  0  0  0  0
  -12.4332    7.7515  -31.8215 C   0  0  0  0  0  0  0  0  0  0  0  0
  -12.3241    9.1663  -31.8565 N   0  0  0  0  0  0  0  0  0  0  0  0
  -15.3434    9.7155  -43.2345 H   0  0  0  0  0  0  0  0  0  0  0  0
  1  2  1  0
  4  1  1  1
  2  3  2  0
  4  5  1  0
  9  4  1  0
  5  6  1  6
  6  7  1  6
  8  7  1  6
  9 10  2  0
 11  9  1  0
 12 11  1  6
 13 12  1  0
 15 12  1  1
 13 14  2  0
 22 13  1  0
 15 16  1  0
 16 17  1  6
 17 18  1  6
 18 19  1  0
 19 20  1  0
 19 21  2  0
 23 22  1  6
 24 23  1  0
 23 26  1  0
 24 25  2  0
 29 24  1  0
 26 27  1  1
 28 26  1  6
 30 29  1  1
 31 30  1  0
 31 32  2  0
 33 31  1  0
 34 33  1  6
 35 34  1  0
 34 37  1  0
 35 36  2  0
 41 35  1  0
 37 38  1  6
 38 39  2  0
 38 40  1  0
 42 41  1  6
 43 42  1  0
 45 42  1  6
 43 44  2  0
 46 43  1  0
 47 46  1  6
 48 47  1  0
 47 50  1  0
 48 49  2  0
 57 48  1  0
 50 51  1  6
 51 52  2  0
 51 53  1  0
 55 54  2  0
 55 56  1  1
 55 57  1  0
 55 58  1  0
 59 58  1  1
 59 60  1  0
 60 61  1  0
 60 66  1  1
 61 62  1  1
 61 63  1  0
 63 64  1  1
 63 65  1  0
 65 66  1  0
 65 67  1  6
 67 68  1  0
 67 71  1  0
 68 69  2  0
 68 72  1  0
 69 70  1  0
 69 75  1  0
 70 71  2  0
 72 73  2  0
 73 74  1  0
 74 75  2  0
 75 76  1  0
 21 77  1  0
M  END
$$$$
