
     RDKit          3D

 77 79  0  0  0  0  0  0  0  0999 V2000
  -16.9452    0.4264  -10.7514 N   0  0  0  0  0  0  0  0  0  0  0  0
  -18.2861    0.7442  -11.0778 C   0  0  0  0  0  0  0  0  0  0  0  0
  -18.5875    1.5482  -11.9956 O   0  0  0  0  0  0  0  0  0  0  0  0
  -16.6471   -0.4856   -9.6695 C   0  0  1  0  0  0  0  0  0  0  0  0
  -17.1445    0.1108   -8.3660 C   0  0  0  0  0  0  0  0  0  0  0  0
  -16.7314   -0.8112   -7.2446 C   0  0  0  0  0  0  0  0  0  0  0  0
  -17.2550   -0.1489   -5.6327 S   0  0  0  0  0  0  0  0  0  0  0  0
  -16.5714   -1.2893   -4.3732 C   0  0  0  0  0  0  0  0  0  0  0  0
  -17.3682   -1.7563   -9.9674 C   0  0  0  0  0  0  0  0  0  0  0  0
  -18.5800   -1.7741  -10.2911 O   0  0  0  0  0  0  0  0  0  0  0  0
  -16.7073   -3.0376   -9.8926 N   0  0  0  0  0  0  0  0  0  0  0  0
  -17.2666   -4.2174  -10.4771 C   0  0  2  0  0  0  0  0  0  0  0  0
  -17.1916   -5.3448   -9.4378 C   0  0  0  0  0  0  0  0  0  0  0  0
  -16.8164   -6.4558   -9.8211 O   0  0  0  0  0  0  0  0  0  0  0  0
  -16.6307   -4.6343  -11.7305 C   0  0  0  0  0  0  0  0  0  0  0  0
  -17.0139   -5.8393  -12.4725 C   0  0  0  0  0  0  0  0  0  0  0  0
  -17.5707   -5.7450  -13.8447 C   0  0  0  0  0  0  0  0  0  0  0  0
  -18.9595   -6.0073  -14.0069 N   0  0  0  0  0  0  0  0  0  0  0  0
  -19.4417   -6.9741  -14.9280 C   0  0  0  0  0  0  0  0  0  0  0  0
  -18.6433   -8.0995  -15.2552 N   0  0  0  0  0  0  0  0  0  0  0  0
  -20.5886   -6.8413  -15.4671 N   0  0  0  0  0  0  0  0  0  0  0  0
  -17.5384   -5.1241   -8.0848 N   0  0  0  0  0  0  0  0  0  0  0  0
  -17.5022   -6.1421   -7.0594 C   0  0  2  0  0  0  0  0  0  0  0  0
  -18.4070   -7.2851   -7.4315 C   0  0  0  0  0  0  0  0  0  0  0  0
  -19.5557   -7.3400   -6.9638 O   0  0  0  0  0  0  0  0  0  0  0  0
  -17.7360   -5.6525   -5.6664 C   0  0  2  0  0  0  0  0  0  0  0  0
  -17.7089   -6.5878   -4.6720 O   0  0  0  0  0  0  0  0  0  0  0  0
  -19.1021   -4.9551   -5.5641 C   0  0  0  0  0  0  0  0  0  0  0  0
  -17.9519   -8.2947   -8.3115 N   0  0  0  0  0  0  0  0  0  0  0  0
  -18.6744   -9.4670   -8.7097 C   0  0  0  0  0  0  0  0  0  0  0  0
  -19.4224   -9.3355   -9.9521 C   0  0  0  0  0  0  0  0  0  0  0  0
  -19.9605  -10.3752  -10.4530 O   0  0  0  0  0  0  0  0  0  0  0  0
  -19.6125   -8.1253  -10.6740 N   0  0  0  0  0  0  0  0  0  0  0  0
  -20.6965   -8.0308  -11.6473 C   0  0  2  0  0  0  0  0  0  0  0  0
  -20.1607   -8.1297  -13.0302 C   0  0  0  0  0  0  0  0  0  0  0  0
  -20.9240   -7.9222  -13.9865 O   0  0  0  0  0  0  0  0  0  0  0  0
  -21.5292   -6.8178  -11.4280 C   0  0  0  0  0  0  0  0  0  0  0  0
  -22.6762   -6.7185  -12.3663 C   0  0  0  0  0  0  0  0  0  0  0  0
  -23.5139   -5.8052  -12.3774 O   0  0  0  0  0  0  0  0  0  0  0  0
  -22.8319   -7.7500  -13.3325 N   0  0  0  0  0  0  0  0  0  0  0  0
  -18.8064   -8.4504  -13.2570 N   0  0  0  0  0  0  0  0  0  0  0  0
  -18.4155   -9.4457  -14.2637 C   0  0  2  0  0  0  0  0  0  0  0  0
  -18.5205   -8.9191  -15.6174 C   0  0  0  0  0  0  0  0  0  0  0  0
  -18.0951   -9.6132  -16.5923 O   0  0  0  0  0  0  0  0  0  0  0  0
  -19.2688  -10.6993  -14.0714 C   0  0  0  0  0  0  0  0  0  0  0  0
  -19.0696   -7.6659  -15.9709 N   0  0  0  0  0  0  0  0  0  0  0  0
  -19.0013   -7.1041  -17.3277 C   0  0  2  0  0  0  0  0  0  0  0  0
  -18.4200   -5.7547  -17.1388 C   0  0  0  0  0  0  0  0  0  0  0  0
  -18.5938   -4.8747  -18.0012 O   0  0  0  0  0  0  0  0  0  0  0  0
  -20.3686   -7.1041  -17.9454 C   0  0  0  0  0  0  0  0  0  0  0  0
  -21.2360   -8.0983  -17.3032 C   0  0  0  0  0  0  0  0  0  0  0  0
  -21.8150   -7.8995  -16.2174 O   0  0  0  0  0  0  0  0  0  0  0  0
  -21.4506   -9.3614  -17.9178 O   0  0  0  0  0  0  0  0  0  0  0  0
  -16.1960   -3.6212  -17.4861 O   0  0  0  0  0  0  0  0  0  0  0  0
  -16.2556   -4.2928  -16.1479 P   0  0  1  0  0  5  0  0  0  0  0  0
  -16.4702   -3.0430  -14.9927 O   0  0  0  0  0  0  0  0  0  0  0  0
  -17.6452   -5.3578  -16.0014 N   0  0  0  0  0  0  0  0  0  0  0  0
  -14.8157   -5.0525  -15.7191 O   0  0  0  0  0  0  0  0  0  0  0  0
  -13.9867   -4.3091  -14.9197 C   0  0  0  0  0  0  0  0  0  0  0  0
  -12.6078   -4.9738  -15.0137 C   0  0  2  0  0  0  0  0  0  0  0  0
  -12.6743   -6.3654  -14.4211 C   0  0  1  0  0  0  0  0  0  0  0  0
  -12.1414   -7.3335  -15.2354 O   0  0  0  0  0  0  0  0  0  0  0  0
  -11.9176   -6.2139  -13.1241 C   0  0  1  0  0  0  0  0  0  0  0  0
  -11.2348   -7.3678  -12.8441 O   0  0  0  0  0  0  0  0  0  0  0  0
  -11.0405   -5.0198  -13.3948 C   0  0  1  0  0  0  0  0  0  0  0  0
  -11.6224   -4.2698  -14.3824 O   0  0  0  0  0  0  0  0  0  0  0  0
  -10.7962   -4.2589  -12.1817 N   0  0  0  0  0  0  0  0  0  0  0  0
   -9.8416   -4.4950  -11.2930 C   0  0  0  0  0  0  0  0  0  0  0  0
   -9.9421   -3.5635  -10.2986 C   0  0  0  0  0  0  0  0  0  0  0  0
  -10.9666   -2.7714  -10.6055 N   0  0  0  0  0  0  0  0  0  0  0  0
  -11.4993   -3.1939  -11.7667 C   0  0  0  0  0  0  0  0  0  0  0  0
   -8.8841   -5.4351  -11.2450 N   0  0  0  0  0  0  0  0  0  0  0  0
   -8.0382   -5.4495  -10.2227 C   0  0  0  0  0  0  0  0  0  0  0  0
   -8.1152   -4.5365   -9.2220 N   0  0  0  0  0  0  0  0  0  0  0  0
   -9.0624   -3.5927   -9.2534 C   0  0  0  0  0  0  0  0  0  0  0  0
   -9.1026   -2.6518   -8.1785 N   0  0  0  0  0  0  0  0  0  0  0  0
  -21.0918   -5.9356  -15.5589 H   0  0  0  0  0  0  0  0  0  0  0  0
  1  2  1  0
  4  1  1  0
  2  3  2  0
  4  5  1  1
  9  4  1  0
  5  6  1  0
  6  7  1  0
  7  8  1  0
  9 10  2  0
 11  9  1  0
 12 11  1  0
 13 12  1  0
 12 15  1  6
 13 14  2  0
 22 13  1  0
 15 16  1  0
 16 17  1  0
 17 18  1  0
 18 19  1  0
 19 20  1  0
 19 21  2  0
 23 22  1  6
 24 23  1  0
 23 26  1  0
 24 25  2  0
 29 24  1  0
 26 27  1  0
 26 28  1  6
 30 29  1  0
 31 30  1  0
 31 32  2  0
 33 31  1  0
 34 33  1  0
 35 34  1  0
 34 37  1  6
 35 36  2  0
 41 35  1  0
 37 38  1  0
 38 39  2  0
 38 40  1  0
 42 41  1  0
 43 42  1  0
 42 45  1  6
 43 44  2  0
 46 43  1  0
 47 46  1  0
 48 47  1  0
 47 50  1  1
 48 49  2  0
 57 48  1  0
 50 51  1  0
 51 52  2  0
 51 53  1  0
 55 54  2  0
 55 56  1  1
 55 57  1  0
 55 58  1  0
 58 59  1  0
 60 59  1  1
 60 61  1  0
 60 66  1  0
 61 62  1  6
 61 63  1  0
 63 64  1  6
 63 65  1  0
 65 66  1  0
 65 67  1  1
 67 68  1  0
 67 71  1  0
 68 69  2  0
 68 72  1  0
 69 70  1  0
 69 75  1  0
 70 71  2  0
 72 73  2  0
 73 74  1  0
 74 75  2  0
 75 76  1  0
 21 77  1  0
M  END
$$$$
