
     RDKit          3D

 77 79  0  0  0  0  0  0  0  0999 V2000
  -18.2275   -7.5893  -19.8214 N   0  0  0  0  0  0  0  0  0  0  0  0
  -18.9754   -8.3501  -20.7311 C   0  0  0  0  0  0  0  0  0  0  0  0
  -20.1871   -8.5708  -20.5105 O   0  0  0  0  0  0  0  0  0  0  0  0
  -16.8051   -7.2642  -19.9858 C   0  0  1  0  0  0  0  0  0  0  0  0
  -16.6808   -6.5954  -21.3195 C   0  0  0  0  0  0  0  0  0  0  0  0
  -15.2612   -6.3495  -21.7470 C   0  0  0  0  0  0  0  0  0  0  0  0
  -15.1017   -5.5535  -23.3489 S   0  0  0  0  0  0  0  0  0  0  0  0
  -13.3383   -5.2218  -23.7282 C   0  0  0  0  0  0  0  0  0  0  0  0
  -16.3501   -6.4373  -18.8314 C   0  0  0  0  0  0  0  0  0  0  0  0
  -15.1230   -6.2874  -18.6496 O   0  0  0  0  0  0  0  0  0  0  0  0
  -17.2851   -5.8460  -17.9743 N   0  0  0  0  0  0  0  0  0  0  0  0
  -16.9505   -5.0913  -16.8130 C   0  0  2  0  0  0  0  0  0  0  0  0
  -18.0542   -4.9352  -15.8412 C   0  0  0  0  0  0  0  0  0  0  0  0
  -18.9304   -4.0642  -16.0691 O   0  0  0  0  0  0  0  0  0  0  0  0
  -16.3104   -3.7589  -17.0716 C   0  0  0  0  0  0  0  0  0  0  0  0
  -16.6788   -2.6538  -16.1567 C   0  0  0  0  0  0  0  0  0  0  0  0
  -15.7295   -2.3803  -15.0268 C   0  0  0  0  0  0  0  0  0  0  0  0
  -14.9238   -1.2369  -15.3924 N   0  0  0  0  0  0  0  0  0  0  0  0
  -14.7920   -0.6986  -16.6830 C   0  0  0  0  0  0  0  0  0  0  0  0
  -13.7774    0.2320  -17.0373 N   0  0  0  0  0  0  0  0  0  0  0  0
  -15.6478   -1.0751  -17.5947 N   0  0  0  0  0  0  0  0  0  0  0  0
  -18.2073   -5.6996  -14.6482 N   0  0  0  0  0  0  0  0  0  0  0  0
  -18.4820   -7.1044  -14.5889 C   0  0  2  0  0  0  0  0  0  0  0  0
  -17.2643   -7.9454  -14.3196 C   0  0  0  0  0  0  0  0  0  0  0  0
  -16.1545   -7.3780  -14.3344 O   0  0  0  0  0  0  0  0  0  0  0  0
  -19.1709   -7.5450  -15.8420 C   0  0  2  0  0  0  0  0  0  0  0  0
  -18.2149   -7.8970  -16.8245 O   0  0  0  0  0  0  0  0  0  0  0  0
  -19.9629   -6.3934  -16.4016 C   0  0  0  0  0  0  0  0  0  0  0  0
  -17.3750   -9.3138  -14.0617 N   0  0  0  0  0  0  0  0  0  0  0  0
  -16.6583  -10.0161  -13.0438 C   0  0  0  0  0  0  0  0  0  0  0  0
  -16.8468   -9.4420  -11.6725 C   0  0  0  0  0  0  0  0  0  0  0  0
  -17.9755   -8.9671  -11.4438 O   0  0  0  0  0  0  0  0  0  0  0  0
  -15.8320   -9.4435  -10.7150 N   0  0  0  0  0  0  0  0  0  0  0  0
  -15.8151   -8.8373   -9.4219 C   0  0  2  0  0  0  0  0  0  0  0  0
  -14.5899   -9.1540   -8.6566 C   0  0  0  0  0  0  0  0  0  0  0  0
  -13.9204  -10.2039   -8.8378 O   0  0  0  0  0  0  0  0  0  0  0  0
  -17.0600   -9.1652   -8.5889 C   0  0  0  0  0  0  0  0  0  0  0  0
  -16.9647  -10.5601   -8.1443 C   0  0  0  0  0  0  0  0  0  0  0  0
  -17.8140  -11.0998   -7.3876 O   0  0  0  0  0  0  0  0  0  0  0  0
  -15.8818  -11.3864   -8.5609 N   0  0  0  0  0  0  0  0  0  0  0  0
  -14.1830   -8.1979   -7.6889 N   0  0  0  0  0  0  0  0  0  0  0  0
  -12.9968   -8.2426   -6.9122 C   0  0  2  0  0  0  0  0  0  0  0  0
  -13.1495   -8.6589   -5.5087 C   0  0  0  0  0  0  0  0  0  0  0  0
  -12.0861   -8.9204   -4.8430 O   0  0  0  0  0  0  0  0  0  0  0  0
  -12.3889   -6.8248   -6.8541 C   0  0  0  0  0  0  0  0  0  0  0  0
  -14.3704   -8.7952   -4.8351 N   0  0  0  0  0  0  0  0  0  0  0  0
  -14.6506   -7.9626   -3.6458 C   0  0  2  0  0  0  0  0  0  0  0  0
  -15.8935   -7.2039   -4.0385 C   0  0  0  0  0  0  0  0  0  0  0  0
  -15.8298   -5.9565   -4.0036 O   0  0  0  0  0  0  0  0  0  0  0  0
  -13.4789   -7.1225   -3.3671 C   0  0  0  0  0  0  0  0  0  0  0  0
  -12.5499   -7.7698   -2.4035 C   0  0  0  0  0  0  0  0  0  0  0  0
  -11.3716   -8.1004   -2.7834 O   0  0  0  0  0  0  0  0  0  0  0  0
  -12.8748   -8.0502   -1.0993 O   0  0  0  0  0  0  0  0  0  0  0  0
  -18.5786   -5.5243   -4.4543 O   0  0  0  0  0  0  0  0  0  0  0  0
  -18.5293   -6.9557   -4.9087 P   0  0  1  0  0  5  0  0  0  0  0  0
  -18.6504   -6.9268   -6.6308 O   0  0  0  0  0  0  0  0  0  0  0  0
  -17.1040   -7.8086   -4.4301 N   0  0  0  0  0  0  0  0  0  0  0  0
  -19.9650   -7.7098   -4.3939 O   0  0  0  0  0  0  0  0  0  0  0  0
  -20.1568   -7.5495   -3.0405 C   0  0  0  0  0  0  0  0  0  0  0  0
  -19.5722   -8.7484   -2.3176 C   0  0  2  0  0  0  0  0  0  0  0  0
  -20.2690   -8.9099   -0.9961 C   0  0  1  0  0  0  0  0  0  0  0  0
  -21.2733   -9.8762   -1.1945 O   0  0  0  0  0  0  0  0  0  0  0  0
  -19.1856   -9.4515   -0.0997 C   0  0  1  0  0  0  0  0  0  0  0  0
  -19.3029  -10.8306    0.0712 O   0  0  0  0  0  0  0  0  0  0  0  0
  -17.9307   -9.0619   -0.8008 C   0  0  1  0  0  0  0  0  0  0  0  0
  -18.2486   -8.6280   -2.0580 O   0  0  0  0  0  0  0  0  0  0  0  0
  -17.1495   -8.0983   -0.0644 N   0  0  0  0  0  0  0  0  0  0  0  0
  -16.3449   -8.4039    0.9628 C   0  0  0  0  0  0  0  0  0  0  0  0
  -15.7707   -7.2413    1.4153 C   0  0  0  0  0  0  0  0  0  0  0  0
  -16.2243   -6.2369    0.6681 N   0  0  0  0  0  0  0  0  0  0  0  0
  -17.0826   -6.7754   -0.2519 C   0  0  0  0  0  0  0  0  0  0  0  0
  -16.0603   -9.5685    1.5393 N   0  0  0  0  0  0  0  0  0  0  0  0
  -15.2033   -9.5895    2.5716 C   0  0  0  0  0  0  0  0  0  0  0  0
  -14.6230   -8.4514    3.0380 N   0  0  0  0  0  0  0  0  0  0  0  0
  -14.8902   -7.2575    2.4744 C   0  0  0  0  0  0  0  0  0  0  0  0
  -14.2549   -6.1036    3.0029 N   0  0  0  0  0  0  0  0  0  0  0  0
  -16.2752   -1.8856  -17.4039 H   0  0  0  0  0  0  0  0  0  0  0  0
  1  2  1  0
  4  1  1  1
  2  3  2  0
  4  5  1  0
  9  4  1  0
  5  6  1  6
  6  7  1  6
  8  7  1  6
  9 10  2  0
 11  9  1  0
 12 11  1  6
 13 12  1  0
 15 12  1  1
 13 14  2  0
 22 13  1  0
 15 16  1  0
 16 17  1  6
 17 18  1  6
 18 19  1  0
 19 20  1  0
 19 21  2  0
 23 22  1  6
 24 23  1  0
 23 26  1  0
 24 25  2  0
 29 24  1  0
 26 27  1  6
 28 26  1  6
 30 29  1  1
 31 30  1  0
 31 32  2  0
 33 31  1  0
 34 33  1  6
 35 34  1  0
 34 37  1  0
 35 36  2  0
 41 35  1  0
 37 38  1  6
 38 39  2  0
 38 40  1  0
 42 41  1  1
 43 42  1  0
 45 42  1  6
 43 44  2  0
 46 43  1  0
 47 46  1  6
 48 47  1  0
 47 50  1  0
 48 49  2  0
 57 48  1  0
 50 51  1  6
 51 52  2  0
 51 53  1  0
 55 54  2  0
 55 56  1  6
 55 57  1  0
 55 58  1  0
 59 58  1  1
 59 60  1  0
 60 61  1  0
 60 66  1  1
 61 62  1  6
 61 63  1  0
 63 64  1  6
 63 65  1  0
 65 66  1  0
 65 67  1  1
 67 68  1  0
 67 71  1  0
 68 69  2  0
 68 72  1  0
 69 70  1  0
 69 75  1  0
 70 71  2  0
 72 73  2  0
 73 74  1  0
 74 75  2  0
 75 76  1  0
 21 77  1  0
M  END
$$$$
