
     RDKit          3D

 77 79  0  0  0  0  0  0  0  0999 V2000
  -23.8547    3.8945  -30.9407 N   0  0  0  0  0  0  0  0  0  0  0  0
  -23.9347    4.6775  -29.7634 C   0  0  0  0  0  0  0  0  0  0  0  0
  -22.9619    4.8264  -28.9815 O   0  0  0  0  0  0  0  0  0  0  0  0
  -22.8834    2.8290  -31.0517 C   0  0  1  0  0  0  0  0  0  0  0  0
  -23.5877    1.5589  -31.4910 C   0  0  0  0  0  0  0  0  0  0  0  0
  -22.6495    0.4006  -31.2542 C   0  0  0  0  0  0  0  0  0  0  0  0
  -23.4821   -1.1856  -31.5732 S   0  0  0  0  0  0  0  0  0  0  0  0
  -24.6294   -0.8811  -32.9679 C   0  0  0  0  0  0  0  0  0  0  0  0
  -21.8929    3.2559  -32.0812 C   0  0  0  0  0  0  0  0  0  0  0  0
  -21.4415    2.4615  -32.9407 O   0  0  0  0  0  0  0  0  0  0  0  0
  -21.3958    4.6101  -32.1384 N   0  0  0  0  0  0  0  0  0  0  0  0
  -21.1919    5.2940  -33.3781 C   0  0  2  0  0  0  0  0  0  0  0  0
  -19.7811    4.9570  -33.8811 C   0  0  0  0  0  0  0  0  0  0  0  0
  -19.3162    5.6456  -34.7931 O   0  0  0  0  0  0  0  0  0  0  0  0
  -21.3762    6.7466  -33.3079 C   0  0  0  0  0  0  0  0  0  0  0  0
  -22.0387    7.5315  -34.3541 C   0  0  0  0  0  0  0  0  0  0  0  0
  -22.3096    8.9782  -34.1657 C   0  0  0  0  0  0  0  0  0  0  0  0
  -23.6292    9.3534  -33.7895 N   0  0  0  0  0  0  0  0  0  0  0  0
  -24.6962    9.3977  -34.7252 C   0  0  0  0  0  0  0  0  0  0  0  0
  -24.6851    8.5368  -35.8520 N   0  0  0  0  0  0  0  0  0  0  0  0
  -25.6677   10.2062  -34.5636 N   0  0  0  0  0  0  0  0  0  0  0  0
  -19.0334    3.8950  -33.3216 N   0  0  0  0  0  0  0  0  0  0  0  0
  -17.8363    3.3428  -33.9141 C   0  0  2  0  0  0  0  0  0  0  0  0
  -16.9120    4.4497  -34.3432 C   0  0  0  0  0  0  0  0  0  0  0  0
  -17.2341    5.6326  -34.1482 O   0  0  0  0  0  0  0  0  0  0  0  0
  -18.0661    2.3336  -34.9929 C   0  0  2  0  0  0  0  0  0  0  0  0
  -19.3302    2.2536  -35.5027 O   0  0  0  0  0  0  0  0  0  0  0  0
  -17.7135    0.9233  -34.4933 C   0  0  0  0  0  0  0  0  0  0  0  0
  -15.6795    4.1450  -34.9668 N   0  0  0  0  0  0  0  0  0  0  0  0
  -14.7777    3.0921  -34.6024 C   0  0  0  0  0  0  0  0  0  0  0  0
  -13.5033    3.1031  -35.3068 C   0  0  0  0  0  0  0  0  0  0  0  0
  -12.4340    3.2480  -34.6309 O   0  0  0  0  0  0  0  0  0  0  0  0
  -13.3387    2.9629  -36.7122 N   0  0  0  0  0  0  0  0  0  0  0  0
  -14.4921    2.6264  -37.5415 C   0  0  2  0  0  0  0  0  0  0  0  0
  -15.6905    3.3826  -37.0931 C   0  0  0  0  0  0  0  0  0  0  0  0
  -15.7441    3.7826  -35.9195 O   0  0  0  0  0  0  0  0  0  0  0  0
  -14.7167    1.1571  -37.6022 C   0  0  0  0  0  0  0  0  0  0  0  0
  -13.4595    0.3698  -37.5284 C   0  0  0  0  0  0  0  0  0  0  0  0
  -12.4121    0.6367  -38.1348 O   0  0  0  0  0  0  0  0  0  0  0  0
  -13.4488   -0.7836  -36.6969 N   0  0  0  0  0  0  0  0  0  0  0  0
  -16.7509    3.6471  -37.9844 N   0  0  0  0  0  0  0  0  0  0  0  0
  -16.8359    4.9186  -38.7143 C   0  0  2  0  0  0  0  0  0  0  0  0
  -16.3869    4.7844  -40.0932 C   0  0  0  0  0  0  0  0  0  0  0  0
  -17.0699    4.0892  -40.9076 O   0  0  0  0  0  0  0  0  0  0  0  0
  -16.0350    5.9754  -37.9538 C   0  0  0  0  0  0  0  0  0  0  0  0
  -15.2235    5.3723  -40.6390 N   0  0  0  0  0  0  0  0  0  0  0  0
  -15.1950    6.0588  -41.9386 C   0  0  2  0  0  0  0  0  0  0  0  0
  -13.8613    6.7018  -41.9863 C   0  0  0  0  0  0  0  0  0  0  0  0
  -13.5436    7.4070  -42.9610 O   0  0  0  0  0  0  0  0  0  0  0  0
  -16.3444    7.0188  -42.0298 C   0  0  0  0  0  0  0  0  0  0  0  0
  -16.2805    7.7996  -43.2705 C   0  0  0  0  0  0  0  0  0  0  0  0
  -16.4405    7.2995  -44.4010 O   0  0  0  0  0  0  0  0  0  0  0  0
  -16.0252    9.1967  -43.2222 O   0  0  0  0  0  0  0  0  0  0  0  0
  -10.2754    6.0229  -40.4130 O   0  0  0  0  0  0  0  0  0  0  0  0
  -11.4828    5.5084  -41.1363 P   0  0  1  0  0  5  0  0  0  0  0  0
  -11.9067    4.0320  -40.3729 O   0  0  0  0  0  0  0  0  0  0  0  0
  -12.8652    6.5790  -40.9644 N   0  0  0  0  0  0  0  0  0  0  0  0
  -11.1765    5.1071  -42.7423 O   0  0  0  0  0  0  0  0  0  0  0  0
  -10.6698    6.1268  -43.5055 C   0  0  0  0  0  0  0  0  0  0  0  0
  -10.4367    5.5306  -44.8992 C   0  0  2  0  0  0  0  0  0  0  0  0
   -9.4775    4.3637  -44.7974 C   0  0  1  0  0  0  0  0  0  0  0  0
   -9.9239    3.2310  -45.4315 O   0  0  0  0  0  0  0  0  0  0  0  0
   -8.2133    4.9145  -45.4106 C   0  0  1  0  0  0  0  0  0  0  0  0
   -7.5491    3.9226  -46.0822 O   0  0  0  0  0  0  0  0  0  0  0  0
   -8.7317    6.0234  -46.2882 C   0  0  1  0  0  0  0  0  0  0  0  0
   -9.9441    6.4321  -45.7991 O   0  0  0  0  0  0  0  0  0  0  0  0
   -7.7716    7.1090  -46.3890 N   0  0  0  0  0  0  0  0  0  0  0  0
   -6.8657    7.2615  -47.3444 C   0  0  0  0  0  0  0  0  0  0  0  0
   -6.1573    8.4007  -47.0851 C   0  0  0  0  0  0  0  0  0  0  0  0
   -6.6517    8.9235  -45.9655 N   0  0  0  0  0  0  0  0  0  0  0  0
   -7.6488    8.1321  -45.5294 C   0  0  0  0  0  0  0  0  0  0  0  0
   -6.5799    6.5186  -48.4257 N   0  0  0  0  0  0  0  0  0  0  0  0
   -5.6034    6.9022  -49.2381 C   0  0  0  0  0  0  0  0  0  0  0  0
   -4.8843    8.0289  -49.0047 N   0  0  0  0  0  0  0  0  0  0  0  0
   -5.1553    8.7812  -47.9326 C   0  0  0  0  0  0  0  0  0  0  0  0
   -4.3728    9.9598  -47.7295 N   0  0  0  0  0  0  0  0  0  0  0  0
  -25.7469   10.8767  -33.7723 H   0  0  0  0  0  0  0  0  0  0  0  0
  1  2  1  0
  4  1  1  0
  2  3  2  0
  4  5  1  6
  9  4  1  0
  5  6  1  0
  6  7  1  0
  7  8  1  0
  9 10  2  0
 11  9  1  0
 12 11  1  0
 13 12  1  0
 12 15  1  1
 13 14  2  0
 22 13  1  0
 15 16  1  0
 16 17  1  0
 17 18  1  0
 18 19  1  0
 19 20  1  0
 19 21  2  0
 23 22  1  6
 24 23  1  0
 23 26  1  0
 24 25  2  0
 29 24  1  0
 26 27  1  0
 26 28  1  1
 30 29  1  0
 31 30  1  0
 31 32  2  0
 33 31  1  0
 34 33  1  0
 35 34  1  0
 34 37  1  1
 35 36  2  0
 41 35  1  0
 37 38  1  0
 38 39  2  0
 38 40  1  0
 42 41  1  0
 43 42  1  0
 42 45  1  1
 43 44  2  0
 46 43  1  0
 47 46  1  0
 48 47  1  0
 47 50  1  1
 48 49  2  0
 57 48  1  0
 50 51  1  0
 51 52  2  0
 51 53  1  0
 55 54  2  0
 55 56  1  1
 55 57  1  0
 55 58  1  0
 58 59  1  0
 60 59  1  1
 60 61  1  0
 60 66  1  0
 61 62  1  6
 61 63  1  0
 63 64  1  6
 63 65  1  0
 65 66  1  0
 65 67  1  1
 67 68  1  0
 67 71  1  0
 68 69  2  0
 68 72  1  0
 69 70  1  0
 69 75  1  0
 70 71  2  0
 72 73  2  0
 73 74  1  0
 74 75  2  0
 75 76  1  0
 21 77  1  0
M  END
$$$$
