
     RDKit          3D

 77 79  0  0  0  0  0  0  0  0999 V2000
   -6.9197    2.6252  -40.1570 N   0  0  0  0  0  0  0  0  0  0  0  0
   -5.5259    2.7624  -40.0927 C   0  0  0  0  0  0  0  0  0  0  0  0
   -4.8928    3.1658  -41.0938 O   0  0  0  0  0  0  0  0  0  0  0  0
   -7.6845    1.5940  -39.4445 C   0  0  1  0  0  0  0  0  0  0  0  0
   -7.3951    1.7902  -37.9887 C   0  0  0  0  0  0  0  0  0  0  0  0
   -7.6447    3.1900  -37.5019 C   0  0  0  0  0  0  0  0  0  0  0  0
   -7.2566    3.4468  -35.7675 S   0  0  0  0  0  0  0  0  0  0  0  0
   -8.3187    2.3910  -34.7088 C   0  0  0  0  0  0  0  0  0  0  0  0
   -9.1254    1.7045  -39.8118 C   0  0  0  0  0  0  0  0  0  0  0  0
   -9.9745    1.1615  -39.0733 O   0  0  0  0  0  0  0  0  0  0  0  0
   -9.5093    2.4030  -40.9622 N   0  0  0  0  0  0  0  0  0  0  0  0
  -10.8530    2.5274  -41.4195 C   0  0  2  0  0  0  0  0  0  0  0  0
  -11.1962    3.8575  -41.9672 C   0  0  0  0  0  0  0  0  0  0  0  0
  -11.4589    4.7844  -41.1608 O   0  0  0  0  0  0  0  0  0  0  0  0
  -11.9089    2.0920  -40.4460 C   0  0  0  0  0  0  0  0  0  0  0  0
  -11.6209    0.8761  -39.6503 C   0  0  0  0  0  0  0  0  0  0  0  0
  -12.7882   -0.0213  -39.3596 C   0  0  0  0  0  0  0  0  0  0  0  0
  -13.5925    0.6146  -38.3402 N   0  0  0  0  0  0  0  0  0  0  0  0
  -14.4260    1.7301  -38.5229 C   0  0  0  0  0  0  0  0  0  0  0  0
  -15.8451    1.6467  -38.5346 N   0  0  0  0  0  0  0  0  0  0  0  0
  -13.8621    2.8960  -38.6911 N   0  0  0  0  0  0  0  0  0  0  0  0
  -11.2579    4.1794  -43.3540 N   0  0  0  0  0  0  0  0  0  0  0  0
  -11.6925    5.4308  -43.8998 C   0  0  2  0  0  0  0  0  0  0  0  0
  -13.1255    5.7607  -43.5834 C   0  0  0  0  0  0  0  0  0  0  0  0
  -13.9632    4.8416  -43.6687 O   0  0  0  0  0  0  0  0  0  0  0  0
  -11.4501    5.4575  -45.3761 C   0  0  2  0  0  0  0  0  0  0  0  0
  -10.4819    4.4869  -45.7277 O   0  0  0  0  0  0  0  0  0  0  0  0
  -10.8793    6.7969  -45.7590 C   0  0  0  0  0  0  0  0  0  0  0  0
  -13.5026    7.0519  -43.2068 N   0  0  0  0  0  0  0  0  0  0  0  0
  -14.8164    7.4339  -42.7932 C   0  0  0  0  0  0  0  0  0  0  0  0
  -14.8609    8.0447  -41.4255 C   0  0  0  0  0  0  0  0  0  0  0  0
  -14.5989    9.2615  -41.3763 O   0  0  0  0  0  0  0  0  0  0  0  0
  -15.1793    7.3053  -40.2860 N   0  0  0  0  0  0  0  0  0  0  0  0
  -15.4039    7.7620  -38.9515 C   0  0  2  0  0  0  0  0  0  0  0  0
  -14.8814    6.8281  -37.9308 C   0  0  0  0  0  0  0  0  0  0  0  0
  -14.6240    5.6206  -38.1738 O   0  0  0  0  0  0  0  0  0  0  0  0
  -16.8751    8.0880  -38.6682 C   0  0  0  0  0  0  0  0  0  0  0  0
  -17.6929    6.9503  -39.1032 C   0  0  0  0  0  0  0  0  0  0  0  0
  -18.3050    6.9245  -40.2031 O   0  0  0  0  0  0  0  0  0  0  0  0
  -17.8325    5.7953  -38.2812 N   0  0  0  0  0  0  0  0  0  0  0  0
  -14.6682    7.3633  -36.6330 N   0  0  0  0  0  0  0  0  0  0  0  0
  -14.4369    6.6208  -35.4465 C   0  0  2  0  0  0  0  0  0  0  0  0
  -15.5396    5.7603  -34.9882 C   0  0  0  0  0  0  0  0  0  0  0  0
  -16.6756    6.3106  -34.7668 O   0  0  0  0  0  0  0  0  0  0  0  0
  -14.1790    7.6070  -34.2873 C   0  0  0  0  0  0  0  0  0  0  0  0
  -15.4495    4.3792  -34.7712 N   0  0  0  0  0  0  0  0  0  0  0  0
  -16.4941    3.6892  -33.9845 C   0  0  2  0  0  0  0  0  0  0  0  0
  -16.7233    2.4134  -34.7556 C   0  0  0  0  0  0  0  0  0  0  0  0
  -17.5776    1.6231  -34.3011 O   0  0  0  0  0  0  0  0  0  0  0  0
  -17.6679    4.5655  -33.8815 C   0  0  0  0  0  0  0  0  0  0  0  0
  -18.8495    3.8466  -33.3358 C   0  0  0  0  0  0  0  0  0  0  0  0
  -18.7045    3.0533  -32.3400 O   0  0  0  0  0  0  0  0  0  0  0  0
  -20.1205    3.9726  -33.8393 O   0  0  0  0  0  0  0  0  0  0  0  0
  -16.9456    1.0092  -38.2717 O   0  0  0  0  0  0  0  0  0  0  0  0
  -16.3899    0.6828  -36.9143 P   0  0  1  0  0  5  0  0  0  0  0  0
  -14.9516   -0.2342  -37.1820 O   0  0  0  0  0  0  0  0  0  0  0  0
  -16.0379    2.0632  -35.9355 N   0  0  0  0  0  0  0  0  0  0  0  0
  -17.4591   -0.4110  -36.1690 O   0  0  0  0  0  0  0  0  0  0  0  0
  -18.6449    0.2002  -35.8307 C   0  0  0  0  0  0  0  0  0  0  0  0
  -18.7611    0.2406  -34.3186 C   0  0  2  0  0  0  0  0  0  0  0  0
  -19.0579   -1.1433  -33.8140 C   0  0  1  0  0  0  0  0  0  0  0  0
  -17.8234   -1.6940  -33.4214 O   0  0  0  0  0  0  0  0  0  0  0  0
  -19.9297   -0.8914  -32.6109 C   0  0  1  0  0  0  0  0  0  0  0  0
  -19.2069   -0.9964  -31.4228 O   0  0  0  0  0  0  0  0  0  0  0  0
  -20.4551    0.4821  -32.8469 C   0  0  1  0  0  0  0  0  0  0  0  0
  -19.7545    1.0477  -33.8761 O   0  0  0  0  0  0  0  0  0  0  0  0
  -21.8804    0.5101  -33.0671 N   0  0  0  0  0  0  0  0  0  0  0  0
  -22.7950    0.5854  -32.0904 C   0  0  0  0  0  0  0  0  0  0  0  0
  -24.0396    0.5866  -32.6707 C   0  0  0  0  0  0  0  0  0  0  0  0
  -23.8816    0.5121  -33.9906 N   0  0  0  0  0  0  0  0  0  0  0  0
  -22.5354    0.4646  -34.2328 C   0  0  0  0  0  0  0  0  0  0  0  0
  -22.6643    0.6530  -30.7682 N   0  0  0  0  0  0  0  0  0  0  0  0
  -23.7690    0.7216  -30.0095 C   0  0  0  0  0  0  0  0  0  0  0  0
  -25.0121    0.7234  -30.5611 N   0  0  0  0  0  0  0  0  0  0  0  0
  -25.1766    0.6571  -31.8963 C   0  0  0  0  0  0  0  0  0  0  0  0
  -26.4976    0.6630  -32.4155 N   0  0  0  0  0  0  0  0  0  0  0  0
  -12.9794    3.1155  -38.1816 H   0  0  0  0  0  0  0  0  0  0  0  0
  1  2  1  0
  4  1  1  6
  2  3  2  0
  4  5  1  0
  9  4  1  0
  5  6  1  6
  6  7  1  6
  8  7  1  6
  9 10  2  0
 11  9  1  0
 12 11  1  1
 13 12  1  0
 15 12  1  1
 13 14  2  0
 22 13  1  0
 15 16  1  0
 16 17  1  6
 17 18  1  6
 18 19  1  0
 19 20  1  0
 19 21  2  0
 23 22  1  6
 24 23  1  0
 23 26  1  0
 24 25  2  0
 29 24  1  0
 26 27  1  1
 28 26  1  6
 30 29  1  1
 31 30  1  0
 31 32  2  0
 33 31  1  0
 34 33  1  6
 35 34  1  0
 34 37  1  0
 35 36  2  0
 41 35  1  0
 37 38  1  6
 38 39  2  0
 38 40  1  0
 42 41  1  6
 43 42  1  0
 45 42  1  6
 43 44  2  0
 46 43  1  0
 47 46  1  6
 48 47  1  0
 47 50  1  0
 48 49  2  0
 57 48  1  0
 50 51  1  6
 51 52  2  0
 51 53  1  0
 55 54  2  0
 55 56  1  6
 55 57  1  0
 55 58  1  0
 59 58  1  1
 59 60  1  0
 60 61  1  0
 60 66  1  6
 61 62  1  1
 61 63  1  0
 63 64  1  1
 63 65  1  0
 65 66  1  0
 65 67  1  6
 67 68  1  0
 67 71  1  0
 68 69  2  0
 68 72  1  0
 69 70  1  0
 69 75  1  0
 70 71  2  0
 72 73  2  0
 73 74  1  0
 74 75  2  0
 75 76  1  0
 21 77  1  0
M  END
$$$$
