
     RDKit          3D

 77 79  0  0  0  0  0  0  0  0999 V2000
  -16.0107    4.1274  -53.0057 N   0  0  0  0  0  0  0  0  0  0  0  0
  -15.9669    2.7403  -53.2877 C   0  0  0  0  0  0  0  0  0  0  0  0
  -16.3929    2.2545  -54.3659 O   0  0  0  0  0  0  0  0  0  0  0  0
  -15.4862    4.6425  -51.7604 C   0  0  1  0  0  0  0  0  0  0  0  0
  -16.0141    6.0482  -51.5429 C   0  0  0  0  0  0  0  0  0  0  0  0
  -15.4177    6.9390  -52.6055 C   0  0  0  0  0  0  0  0  0  0  0  0
  -15.8147    8.6859  -52.2868 S   0  0  0  0  0  0  0  0  0  0  0  0
  -17.6191    8.8497  -52.5546 C   0  0  0  0  0  0  0  0  0  0  0  0
  -15.9700    3.7338  -50.6817 C   0  0  0  0  0  0  0  0  0  0  0  0
  -17.1514    3.3139  -50.6448 O   0  0  0  0  0  0  0  0  0  0  0  0
  -15.1011    3.2932  -49.6162 N   0  0  0  0  0  0  0  0  0  0  0  0
  -15.5753    2.4926  -48.5298 C   0  0  2  0  0  0  0  0  0  0  0  0
  -16.3013    3.4150  -47.5403 C   0  0  0  0  0  0  0  0  0  0  0  0
  -15.6144    4.1757  -46.8536 O   0  0  0  0  0  0  0  0  0  0  0  0
  -14.5336    1.7239  -47.8420 C   0  0  0  0  0  0  0  0  0  0  0  0
  -14.3341    1.7473  -46.3896 C   0  0  0  0  0  0  0  0  0  0  0  0
  -13.3322    2.6509  -45.7720 C   0  0  0  0  0  0  0  0  0  0  0  0
  -12.9889    2.4152  -44.4117 N   0  0  0  0  0  0  0  0  0  0  0  0
  -11.9476    3.1291  -43.7623 C   0  0  0  0  0  0  0  0  0  0  0  0
  -11.4483    4.3272  -44.3334 N   0  0  0  0  0  0  0  0  0  0  0  0
  -11.4538    2.7033  -42.6675 N   0  0  0  0  0  0  0  0  0  0  0  0
  -17.7098    3.3993  -47.4158 N   0  0  0  0  0  0  0  0  0  0  0  0
  -18.4504    4.1885  -46.4579 C   0  0  2  0  0  0  0  0  0  0  0  0
  -18.3410    3.5772  -45.0874 C   0  0  0  0  0  0  0  0  0  0  0  0
  -19.0820    2.6323  -44.7726 O   0  0  0  0  0  0  0  0  0  0  0  0
  -19.8627    4.4953  -46.8405 C   0  0  2  0  0  0  0  0  0  0  0  0
  -20.4575    3.6486  -47.7313 O   0  0  0  0  0  0  0  0  0  0  0  0
  -19.9600    5.9019  -47.4529 C   0  0  0  0  0  0  0  0  0  0  0  0
  -17.3971    4.0764  -44.1597 N   0  0  0  0  0  0  0  0  0  0  0  0
  -17.1890    3.6086  -42.8208 C   0  0  0  0  0  0  0  0  0  0  0  0
  -16.2041    4.3584  -42.0539 C   0  0  0  0  0  0  0  0  0  0  0  0
  -16.3408    4.4297  -40.7899 O   0  0  0  0  0  0  0  0  0  0  0  0
  -15.0773    5.0334  -42.5986 N   0  0  0  0  0  0  0  0  0  0  0  0
  -14.1524    5.7253  -41.7058 C   0  0  2  0  0  0  0  0  0  0  0  0
  -14.7708    6.9725  -41.1851 C   0  0  0  0  0  0  0  0  0  0  0  0
  -14.5359    7.3170  -40.0162 O   0  0  0  0  0  0  0  0  0  0  0  0
  -12.8311    5.9526  -42.3505 C   0  0  0  0  0  0  0  0  0  0  0  0
  -11.9877    4.7312  -42.4019 C   0  0  0  0  0  0  0  0  0  0  0  0
  -12.3221    3.6133  -41.9845 O   0  0  0  0  0  0  0  0  0  0  0  0
  -10.6914    4.8458  -42.9750 N   0  0  0  0  0  0  0  0  0  0  0  0
  -15.6091    7.7572  -42.0036 N   0  0  0  0  0  0  0  0  0  0  0  0
  -16.2796    8.9559  -41.4835 C   0  0  2  0  0  0  0  0  0  0  0  0
  -16.4374    8.9052  -40.0366 C   0  0  0  0  0  0  0  0  0  0  0  0
  -16.9053    9.9144  -39.4236 O   0  0  0  0  0  0  0  0  0  0  0  0
  -17.6211    9.1169  -42.1984 C   0  0  0  0  0  0  0  0  0  0  0  0
  -16.1108    7.8044  -39.2129 N   0  0  0  0  0  0  0  0  0  0  0  0
  -16.3468    7.7789  -37.7621 C   0  0  2  0  0  0  0  0  0  0  0  0
  -14.9900    7.7409  -37.1688 C   0  0  0  0  0  0  0  0  0  0  0  0
  -14.7165    8.4606  -36.1913 O   0  0  0  0  0  0  0  0  0  0  0  0
  -17.2058    6.6004  -37.4092 C   0  0  0  0  0  0  0  0  0  0  0  0
  -17.4477    6.5400  -35.9632 C   0  0  0  0  0  0  0  0  0  0  0  0
  -17.2267    7.4951  -35.1934 O   0  0  0  0  0  0  0  0  0  0  0  0
  -17.9578    5.3517  -35.3740 O   0  0  0  0  0  0  0  0  0  0  0  0
  -11.4462    5.8414  -37.4248 O   0  0  0  0  0  0  0  0  0  0  0  0
  -12.5126    6.5574  -36.6530 P   0  0  1  0  0  5  0  0  0  0  0  0
  -11.8413    8.0680  -36.1950 O   0  0  0  0  0  0  0  0  0  0  0  0
  -13.9218    6.9114  -37.6407 N   0  0  0  0  0  0  0  0  0  0  0  0
  -12.9160    5.7933  -35.2081 O   0  0  0  0  0  0  0  0  0  0  0  0
  -14.0142    4.9756  -35.2746 C   0  0  0  0  0  0  0  0  0  0  0  0
  -14.2013    4.4103  -33.8613 C   0  0  2  0  0  0  0  0  0  0  0  0
  -12.8928    4.4939  -33.1045 C   0  0  1  0  0  0  0  0  0  0  0  0
  -13.0140    5.0655  -31.8624 O   0  0  0  0  0  0  0  0  0  0  0  0
  -12.4494    3.0526  -33.0415 C   0  0  1  0  0  0  0  0  0  0  0  0
  -11.7983    2.8153  -31.8600 O   0  0  0  0  0  0  0  0  0  0  0  0
  -13.7467    2.3041  -33.2006 C   0  0  1  0  0  0  0  0  0  0  0  0
  -14.6390    3.1167  -33.8484 O   0  0  0  0  0  0  0  0  0  0  0  0
  -13.5443    1.0366  -33.8811 N   0  0  0  0  0  0  0  0  0  0  0  0
  -14.0510   -0.1326  -33.5167 C   0  0  0  0  0  0  0  0  0  0  0  0
  -13.6312   -1.0782  -34.4091 C   0  0  0  0  0  0  0  0  0  0  0  0
  -12.8696   -0.4586  -35.3076 N   0  0  0  0  0  0  0  0  0  0  0  0
  -12.8109    0.8474  -34.9888 C   0  0  0  0  0  0  0  0  0  0  0  0
  -14.8432   -0.4772  -32.4888 N   0  0  0  0  0  0  0  0  0  0  0  0
  -15.2131   -1.7439  -32.3494 C   0  0  0  0  0  0  0  0  0  0  0  0
  -14.8110   -2.7029  -33.2209 N   0  0  0  0  0  0  0  0  0  0  0  0
  -14.0219   -2.3780  -34.2508 C   0  0  0  0  0  0  0  0  0  0  0  0
  -13.6262   -3.4217  -35.1434 N   0  0  0  0  0  0  0  0  0  0  0  0
  -11.8068    1.8736  -42.1488 H   0  0  0  0  0  0  0  0  0  0  0  0
  1  2  1  0
  4  1  1  0
  2  3  2  0
  4  5  1  1
  9  4  1  0
  5  6  1  0
  6  7  1  0
  7  8  1  0
  9 10  2  0
 11  9  1  0
 12 11  1  0
 13 12  1  0
 12 15  1  1
 13 14  2  0
 22 13  1  0
 15 16  1  0
 16 17  1  0
 17 18  1  0
 18 19  1  0
 19 20  1  0
 19 21  2  0
 23 22  1  6
 24 23  1  0
 23 26  1  0
 24 25  2  0
 29 24  1  0
 26 27  1  0
 26 28  1  6
 30 29  1  0
 31 30  1  0
 31 32  2  0
 33 31  1  0
 34 33  1  0
 35 34  1  0
 34 37  1  6
 35 36  2  0
 41 35  1  0
 37 38  1  0
 38 39  2  0
 38 40  1  0
 42 41  1  0
 43 42  1  0
 42 45  1  6
 43 44  2  0
 46 43  1  0
 47 46  1  0
 48 47  1  0
 47 50  1  6
 48 49  2  0
 57 48  1  0
 50 51  1  0
 51 52  2  0
 51 53  1  0
 55 54  2  0
 55 56  1  1
 55 57  1  0
 55 58  1  0
 58 59  1  0
 60 59  1  6
 60 61  1  0
 60 66  1  0
 61 62  1  1
 61 63  1  0
 63 64  1  1
 63 65  1  0
 65 66  1  0
 65 67  1  6
 67 68  1  0
 67 71  1  0
 68 69  2  0
 68 72  1  0
 69 70  1  0
 69 75  1  0
 70 71  2  0
 72 73  2  0
 73 74  1  0
 74 75  2  0
 75 76  1  0
 21 77  1  0
M  END
$$$$
