
     RDKit          3D

 77 79  0  0  0  0  0  0  0  0999 V2000
  -12.0837   -8.1166   -4.9417 N   0  0  0  0  0  0  0  0  0  0  0  0
  -11.5213   -7.8077   -6.1883 C   0  0  0  0  0  0  0  0  0  0  0  0
  -10.7609   -8.6280   -6.7492 O   0  0  0  0  0  0  0  0  0  0  0  0
  -12.9613   -9.2667   -4.6909 C   0  0  1  0  0  0  0  0  0  0  0  0
  -12.8151   -9.5947   -3.2374 C   0  0  0  0  0  0  0  0  0  0  0  0
  -11.3917   -9.7954   -2.7990 C   0  0  0  0  0  0  0  0  0  0  0  0
  -11.2045  -10.1684   -1.0524 S   0  0  0  0  0  0  0  0  0  0  0  0
  -12.3012  -11.5575   -0.5714 C   0  0  0  0  0  0  0  0  0  0  0  0
  -14.3507   -8.9307   -5.1152 C   0  0  0  0  0  0  0  0  0  0  0  0
  -15.2962   -9.6072   -4.6575 O   0  0  0  0  0  0  0  0  0  0  0  0
  -14.5811   -7.8783   -6.0085 N   0  0  0  0  0  0  0  0  0  0  0  0
  -15.7070   -7.7898   -6.8773 C   0  0  2  0  0  0  0  0  0  0  0  0
  -16.2348   -9.0929   -7.3357 C   0  0  0  0  0  0  0  0  0  0  0  0
  -15.7904   -9.5718   -8.4088 O   0  0  0  0  0  0  0  0  0  0  0  0
  -15.5464   -6.8669   -8.0497 C   0  0  0  0  0  0  0  0  0  0  0  0
  -16.5777   -6.9505   -9.1097 C   0  0  0  0  0  0  0  0  0  0  0  0
  -16.3682   -6.0780  -10.3128 C   0  0  0  0  0  0  0  0  0  0  0  0
  -16.7821   -4.7372   -9.9648 N   0  0  0  0  0  0  0  0  0  0  0  0
  -18.0174   -4.1471  -10.2782 C   0  0  0  0  0  0  0  0  0  0  0  0
  -18.7131   -4.3979  -11.4923 N   0  0  0  0  0  0  0  0  0  0  0  0
  -18.5445   -3.3286   -9.4077 N   0  0  0  0  0  0  0  0  0  0  0  0
  -17.2227   -9.8606   -6.6533 N   0  0  0  0  0  0  0  0  0  0  0  0
  -18.6361   -9.7845   -6.8749 C   0  0  2  0  0  0  0  0  0  0  0  0
  -19.1550   -8.3763   -6.9758 C   0  0  0  0  0  0  0  0  0  0  0  0
  -18.3600   -7.4922   -7.3502 O   0  0  0  0  0  0  0  0  0  0  0  0
  -19.3628  -10.5483   -5.8131 C   0  0  2  0  0  0  0  0  0  0  0  0
  -18.5920  -10.5852   -4.6266 O   0  0  0  0  0  0  0  0  0  0  0  0
  -19.5359  -11.9750   -6.2614 C   0  0  0  0  0  0  0  0  0  0  0  0
  -20.4815   -8.0716   -6.6614 N   0  0  0  0  0  0  0  0  0  0  0  0
  -21.4340   -7.5211   -7.5738 C   0  0  0  0  0  0  0  0  0  0  0  0
  -20.8191   -6.6641   -8.6384 C   0  0  0  0  0  0  0  0  0  0  0  0
  -21.4747   -6.5723   -9.6936 O   0  0  0  0  0  0  0  0  0  0  0  0
  -19.6003   -6.0090   -8.4600 N   0  0  0  0  0  0  0  0  0  0  0  0
  -19.0076   -4.9808   -9.2545 C   0  0  2  0  0  0  0  0  0  0  0  0
  -18.0110   -5.5017  -10.2150 C   0  0  0  0  0  0  0  0  0  0  0  0
  -16.8274   -5.0781  -10.2725 O   0  0  0  0  0  0  0  0  0  0  0  0
  -18.3962   -3.8517   -8.4164 C   0  0  0  0  0  0  0  0  0  0  0  0
  -17.8639   -4.4311   -7.1781 C   0  0  0  0  0  0  0  0  0  0  0  0
  -16.7865   -5.0808   -7.1309 O   0  0  0  0  0  0  0  0  0  0  0  0
  -18.5583   -4.2785   -5.9438 N   0  0  0  0  0  0  0  0  0  0  0  0
  -18.4510   -6.5315  -11.0880 N   0  0  0  0  0  0  0  0  0  0  0  0
  -18.3179   -6.5484  -12.5002 C   0  0  2  0  0  0  0  0  0  0  0  0
  -16.9771   -6.8500  -13.0271 C   0  0  0  0  0  0  0  0  0  0  0  0
  -15.9676   -6.3524  -12.4143 O   0  0  0  0  0  0  0  0  0  0  0  0
  -18.6666   -5.1478  -13.0476 C   0  0  0  0  0  0  0  0  0  0  0  0
  -16.7106   -7.6412  -14.1522 N   0  0  0  0  0  0  0  0  0  0  0  0
  -15.3118   -7.8887  -14.5620 C   0  0  2  0  0  0  0  0  0  0  0  0
  -15.2619   -7.3491  -15.9695 C   0  0  0  0  0  0  0  0  0  0  0  0
  -14.8073   -8.1088  -16.8511 O   0  0  0  0  0  0  0  0  0  0  0  0
  -15.0289   -9.3248  -14.4430 C   0  0  0  0  0  0  0  0  0  0  0  0
  -14.9530   -9.7584  -13.0229 C   0  0  0  0  0  0  0  0  0  0  0  0
  -13.9000   -9.5047  -12.3381 O   0  0  0  0  0  0  0  0  0  0  0  0
  -15.9575  -10.4340  -12.3752 O   0  0  0  0  0  0  0  0  0  0  0  0
  -15.5430   -6.1104  -19.0565 O   0  0  0  0  0  0  0  0  0  0  0  0
  -16.3504   -5.6377  -17.8806 P   0  0  1  0  0  5  0  0  0  0  0  0
  -17.9215   -6.3325  -18.0548 O   0  0  0  0  0  0  0  0  0  0  0  0
  -15.6850   -6.0580  -16.3417 N   0  0  0  0  0  0  0  0  0  0  0  0
  -16.6019   -3.9653  -18.0668 O   0  0  0  0  0  0  0  0  0  0  0  0
  -15.8588   -3.2436  -17.1606 C   0  0  0  0  0  0  0  0  0  0  0  0
  -16.0167   -1.7656  -17.4645 C   0  0  2  0  0  0  0  0  0  0  0  0
  -14.7716   -1.0425  -17.0345 C   0  0  1  0  0  0  0  0  0  0  0  0
  -13.9764   -0.9051  -18.1878 O   0  0  0  0  0  0  0  0  0  0  0  0
  -15.2902    0.3002  -16.5882 C   0  0  1  0  0  0  0  0  0  0  0  0
  -15.0939    1.2763  -17.5648 O   0  0  0  0  0  0  0  0  0  0  0  0
  -16.7308    0.0401  -16.3141 C   0  0  1  0  0  0  0  0  0  0  0  0
  -17.0562   -1.1902  -16.8146 O   0  0  0  0  0  0  0  0  0  0  0  0
  -17.0729    0.1777  -14.9195 N   0  0  0  0  0  0  0  0  0  0  0  0
  -17.7155    1.2325  -14.3993 C   0  0  0  0  0  0  0  0  0  0  0  0
  -17.8644    1.0186  -13.0509 C   0  0  0  0  0  0  0  0  0  0  0  0
  -17.3154   -0.1576  -12.7547 N   0  0  0  0  0  0  0  0  0  0  0  0
  -16.8237   -0.6775  -13.9214 C   0  0  0  0  0  0  0  0  0  0  0  0
  -18.1800    2.3439  -14.9639 N   0  0  0  0  0  0  0  0  0  0  0  0
  -18.7962    3.2542  -14.1943 C   0  0  0  0  0  0  0  0  0  0  0  0
  -18.9547    3.0653  -12.8569 N   0  0  0  0  0  0  0  0  0  0  0  0
  -18.4963    1.9499  -12.2567 C   0  0  0  0  0  0  0  0  0  0  0  0
  -18.6906    1.8067  -10.8580 N   0  0  0  0  0  0  0  0  0  0  0  0
  -18.0541   -3.1583   -8.5035 H   0  0  0  0  0  0  0  0  0  0  0  0
  1  2  1  0
  4  1  1  1
  2  3  2  0
  4  5  1  0
  9  4  1  0
  5  6  1  6
  6  7  1  6
  8  7  1  6
  9 10  2  0
 11  9  1  0
 12 11  1  6
 13 12  1  0
 15 12  1  1
 13 14  2  0
 22 13  1  0
 15 16  1  0
 16 17  1  6
 17 18  1  6
 18 19  1  0
 19 20  1  0
 19 21  2  0
 23 22  1  1
 24 23  1  0
 23 26  1  0
 24 25  2  0
 29 24  1  0
 26 27  1  1
 28 26  1  6
 30 29  1  1
 31 30  1  0
 31 32  2  0
 33 31  1  0
 34 33  1  1
 35 34  1  0
 34 37  1  0
 35 36  2  0
 41 35  1  0
 37 38  1  6
 38 39  2  0
 38 40  1  0
 42 41  1  1
 43 42  1  0
 45 42  1  6
 43 44  2  0
 46 43  1  0
 47 46  1  6
 48 47  1  0
 47 50  1  0
 48 49  2  0
 57 48  1  0
 50 51  1  6
 51 52  2  0
 51 53  1  0
 55 54  2  0
 55 56  1  6
 55 57  1  0
 55 58  1  0
 59 58  1  1
 59 60  1  0
 60 61  1  0
 60 66  1  1
 61 62  1  6
 61 63  1  0
 63 64  1  6
 63 65  1  0
 65 66  1  0
 65 67  1  1
 67 68  1  0
 67 71  1  0
 68 69  2  0
 68 72  1  0
 69 70  1  0
 69 75  1  0
 70 71  2  0
 72 73  2  0
 73 74  1  0
 74 75  2  0
 75 76  1  0
 21 77  1  0
M  END
$$$$
