
     RDKit          3D

 77 79  0  0  0  0  0  0  0  0999 V2000
  -17.6996   -8.1346   -6.4684 N   0  0  0  0  0  0  0  0  0  0  0  0
  -18.0748   -9.2218   -5.6421 C   0  0  0  0  0  0  0  0  0  0  0  0
  -18.0366   -9.1636   -4.3871 O   0  0  0  0  0  0  0  0  0  0  0  0
  -17.5512   -8.3116   -7.8959 C   0  0  1  0  0  0  0  0  0  0  0  0
  -17.8671   -7.0021   -8.5940 C   0  0  0  0  0  0  0  0  0  0  0  0
  -16.5630   -6.2913   -8.8626 C   0  0  0  0  0  0  0  0  0  0  0  0
  -16.8539   -4.6695   -9.6348 S   0  0  0  0  0  0  0  0  0  0  0  0
  -15.1974   -3.9915  -10.0226 C   0  0  0  0  0  0  0  0  0  0  0  0
  -16.1313   -8.6983   -8.1358 C   0  0  0  0  0  0  0  0  0  0  0  0
  -15.2903   -8.7540   -7.2067 O   0  0  0  0  0  0  0  0  0  0  0  0
  -15.6479   -9.0242   -9.4565 N   0  0  0  0  0  0  0  0  0  0  0  0
  -15.0670  -10.2953   -9.7618 C   0  0  2  0  0  0  0  0  0  0  0  0
  -14.7602  -10.3294  -11.2657 C   0  0  0  0  0  0  0  0  0  0  0  0
  -13.9320  -11.1520  -11.6649 O   0  0  0  0  0  0  0  0  0  0  0  0
  -15.8912  -11.4466   -9.3820 C   0  0  0  0  0  0  0  0  0  0  0  0
  -15.3638  -12.8060   -9.2284 C   0  0  0  0  0  0  0  0  0  0  0  0
  -14.1645  -13.0690   -8.3953 C   0  0  0  0  0  0  0  0  0  0  0  0
  -13.7945  -14.4274   -8.1912 N   0  0  0  0  0  0  0  0  0  0  0  0
  -12.7820  -14.8028   -7.2695 C   0  0  0  0  0  0  0  0  0  0  0  0
  -11.5398  -14.1188   -7.2659 N   0  0  0  0  0  0  0  0  0  0  0  0
  -12.9773  -15.7519   -6.4420 N   0  0  0  0  0  0  0  0  0  0  0  0
  -15.4026   -9.4511  -12.1689 N   0  0  0  0  0  0  0  0  0  0  0  0
  -15.0923   -9.3637  -13.5778 C   0  0  2  0  0  0  0  0  0  0  0  0
  -13.9664   -8.3910  -13.8014 C   0  0  0  0  0  0  0  0  0  0  0  0
  -13.8165   -7.8667  -14.9167 O   0  0  0  0  0  0  0  0  0  0  0  0
  -16.2615   -9.1070  -14.4734 C   0  0  2  0  0  0  0  0  0  0  0  0
  -17.3301   -8.4606  -13.9216 O   0  0  0  0  0  0  0  0  0  0  0  0
  -16.8041  -10.4287  -15.0406 C   0  0  0  0  0  0  0  0  0  0  0  0
  -13.0808   -8.0737  -12.7451 N   0  0  0  0  0  0  0  0  0  0  0  0
  -12.0302   -7.0990  -12.7779 C   0  0  0  0  0  0  0  0  0  0  0  0
  -12.4651   -5.7352  -13.0452 C   0  0  0  0  0  0  0  0  0  0  0  0
  -11.6216   -4.9082  -13.5203 O   0  0  0  0  0  0  0  0  0  0  0  0
  -13.7751   -5.2303  -12.8201 N   0  0  0  0  0  0  0  0  0  0  0  0
  -14.1299   -3.9038  -13.3158 C   0  0  2  0  0  0  0  0  0  0  0  0
  -15.2289   -4.0002  -14.3119 C   0  0  0  0  0  0  0  0  0  0  0  0
  -15.5775   -2.9777  -14.9227 O   0  0  0  0  0  0  0  0  0  0  0  0
  -12.9405   -3.1706  -13.8264 C   0  0  0  0  0  0  0  0  0  0  0  0
  -13.2394   -1.7676  -14.2115 C   0  0  0  0  0  0  0  0  0  0  0  0
  -12.4328   -0.9803  -14.7267 O   0  0  0  0  0  0  0  0  0  0  0  0
  -14.5545   -1.2819  -13.9735 N   0  0  0  0  0  0  0  0  0  0  0  0
  -15.8660   -5.2326  -14.5649 N   0  0  0  0  0  0  0  0  0  0  0  0
  -17.0454   -5.3179  -15.4358 C   0  0  2  0  0  0  0  0  0  0  0  0
  -18.2867   -5.2253  -14.6798 C   0  0  0  0  0  0  0  0  0  0  0  0
  -19.3598   -4.9030  -15.2779 O   0  0  0  0  0  0  0  0  0  0  0  0
  -16.9654   -6.6123  -16.2449 C   0  0  0  0  0  0  0  0  0  0  0  0
  -18.4245   -5.4676  -13.2944 N   0  0  0  0  0  0  0  0  0  0  0  0
  -19.3679   -4.7395  -12.4336 C   0  0  2  0  0  0  0  0  0  0  0  0
  -19.6939   -3.5137  -13.1987 C   0  0  0  0  0  0  0  0  0  0  0  0
  -20.8233   -3.0003  -13.1022 O   0  0  0  0  0  0  0  0  0  0  0  0
  -18.7380   -4.4810  -11.0967 C   0  0  0  0  0  0  0  0  0  0  0  0
  -18.0220   -5.6675  -10.6143 C   0  0  0  0  0  0  0  0  0  0  0  0
  -16.9679   -5.6066   -9.9518 O   0  0  0  0  0  0  0  0  0  0  0  0
  -18.5230   -6.9671  -10.8963 O   0  0  0  0  0  0  0  0  0  0  0  0
  -18.0390   -0.7401  -15.6115 O   0  0  0  0  0  0  0  0  0  0  0  0
  -19.0538   -1.1848  -14.6026 P   0  0  1  0  0  5  0  0  0  0  0  0
  -20.5692   -1.1670  -15.4061 O   0  0  0  0  0  0  0  0  0  0  0  0
  -18.7835   -2.8385  -14.0744 N   0  0  0  0  0  0  0  0  0  0  0  0
  -19.2220   -0.1173  -13.3117 O   0  0  0  0  0  0  0  0  0  0  0  0
  -19.3580   -0.7126  -12.0844 C   0  0  0  0  0  0  0  0  0  0  0  0
  -18.5515    0.1525  -11.1080 C   0  0  2  0  0  0  0  0  0  0  0  0
  -19.1230    0.0097   -9.7133 C   0  0  1  0  0  0  0  0  0  0  0  0
  -18.1760   -0.2681   -8.7592 O   0  0  0  0  0  0  0  0  0  0  0  0
  -19.8008    1.3397   -9.4911 C   0  0  1  0  0  0  0  0  0  0  0  0
  -19.6982    1.7022   -8.1742 O   0  0  0  0  0  0  0  0  0  0  0  0
  -19.0674    2.2442  -10.4464 C   0  0  1  0  0  0  0  0  0  0  0  0
  -18.5313    1.4757  -11.4455 O   0  0  0  0  0  0  0  0  0  0  0  0
  -19.9354    3.2947  -10.9499 N   0  0  0  0  0  0  0  0  0  0  0  0
  -20.2090    4.4386  -10.3390 C   0  0  0  0  0  0  0  0  0  0  0  0
  -21.0610    5.1545  -11.1319 C   0  0  0  0  0  0  0  0  0  0  0  0
  -21.2909    4.4239  -12.2202 N   0  0  0  0  0  0  0  0  0  0  0  0
  -20.5996    3.2741  -12.1157 C   0  0  0  0  0  0  0  0  0  0  0  0
  -19.8008    4.9377   -9.1613 N   0  0  0  0  0  0  0  0  0  0  0  0
  -20.2335    6.1317   -8.7764 C   0  0  0  0  0  0  0  0  0  0  0  0
  -21.0795    6.8638   -9.5440 N   0  0  0  0  0  0  0  0  0  0  0  0
  -21.4962    6.3826  -10.7202 C   0  0  0  0  0  0  0  0  0  0  0  0
  -22.3850    7.1907  -11.4946 N   0  0  0  0  0  0  0  0  0  0  0  0
  -13.6585  -16.5246   -6.5865 H   0  0  0  0  0  0  0  0  0  0  0  0
  1  2  1  0
  4  1  1  0
  2  3  2  0
  4  5  1  6
  9  4  1  0
  5  6  1  0
  6  7  1  0
  7  8  1  0
  9 10  2  0
 11  9  1  0
 12 11  1  0
 13 12  1  0
 12 15  1  6
 13 14  2  0
 22 13  1  0
 15 16  1  0
 16 17  1  0
 17 18  1  0
 18 19  1  0
 19 20  1  0
 19 21  2  0
 23 22  1  1
 24 23  1  0
 23 26  1  0
 24 25  2  0
 29 24  1  0
 26 27  1  0
 26 28  1  1
 30 29  1  0
 31 30  1  0
 31 32  2  0
 33 31  1  0
 34 33  1  0
 35 34  1  0
 34 37  1  6
 35 36  2  0
 41 35  1  0
 37 38  1  0
 38 39  2  0
 38 40  1  0
 42 41  1  0
 43 42  1  0
 42 45  1  1
 43 44  2  0
 46 43  1  0
 47 46  1  0
 48 47  1  0
 47 50  1  1
 48 49  2  0
 57 48  1  0
 50 51  1  0
 51 52  2  0
 51 53  1  0
 55 54  2  0
 55 56  1  6
 55 57  1  0
 55 58  1  0
 58 59  1  0
 60 59  1  6
 60 61  1  0
 60 66  1  0
 61 62  1  1
 61 63  1  0
 63 64  1  1
 63 65  1  0
 65 66  1  0
 65 67  1  6
 67 68  1  0
 67 71  1  0
 68 69  2  0
 68 72  1  0
 69 70  1  0
 69 75  1  0
 70 71  2  0
 72 73  2  0
 73 74  1  0
 74 75  2  0
 75 76  1  0
 21 77  1  0
M  END
$$$$
