
     RDKit          3D

 77 79  0  0  0  0  0  0  0  0999 V2000
  -20.9558   -7.6163   -6.7938 N   0  0  0  0  0  0  0  0  0  0  0  0
  -21.8873   -7.8430   -5.7515 C   0  0  0  0  0  0  0  0  0  0  0  0
  -21.9944   -8.9510   -5.1678 O   0  0  0  0  0  0  0  0  0  0  0  0
  -20.8428   -6.3128   -7.4097 C   0  0  1  0  0  0  0  0  0  0  0  0
  -20.6392   -5.2685   -6.3279 C   0  0  0  0  0  0  0  0  0  0  0  0
  -19.1851   -4.8641   -6.3391 C   0  0  0  0  0  0  0  0  0  0  0  0
  -18.9464   -3.3233   -7.2772 S   0  0  0  0  0  0  0  0  0  0  0  0
  -20.6003   -2.8583   -7.9117 C   0  0  0  0  0  0  0  0  0  0  0  0
  -19.6560   -6.3647   -8.3109 C   0  0  0  0  0  0  0  0  0  0  0  0
  -19.3511   -5.4105   -9.0659 O   0  0  0  0  0  0  0  0  0  0  0  0
  -18.7964   -7.5233   -8.3653 N   0  0  0  0  0  0  0  0  0  0  0  0
  -17.7183   -7.6274   -9.2997 C   0  0  2  0  0  0  0  0  0  0  0  0
  -18.3121   -7.9562  -10.6768 C   0  0  0  0  0  0  0  0  0  0  0  0
  -18.3739   -9.1431  -11.0075 O   0  0  0  0  0  0  0  0  0  0  0  0
  -16.6932   -8.6106   -8.9371 C   0  0  0  0  0  0  0  0  0  0  0  0
  -16.6617   -9.3121   -7.6501 C   0  0  0  0  0  0  0  0  0  0  0  0
  -16.8161  -10.7863   -7.5812 C   0  0  0  0  0  0  0  0  0  0  0  0
  -16.9986  -11.4832   -8.8079 N   0  0  0  0  0  0  0  0  0  0  0  0
  -15.9607  -12.2485   -9.4019 C   0  0  0  0  0  0  0  0  0  0  0  0
  -15.8089  -13.6173   -9.0639 N   0  0  0  0  0  0  0  0  0  0  0  0
  -15.1600  -11.7169  -10.2385 N   0  0  0  0  0  0  0  0  0  0  0  0
  -18.7756   -6.9378  -11.5416 N   0  0  0  0  0  0  0  0  0  0  0  0
  -19.0418   -7.1255  -12.9497 C   0  0  2  0  0  0  0  0  0  0  0  0
  -19.2725   -5.7961  -13.6155 C   0  0  0  0  0  0  0  0  0  0  0  0
  -19.1537   -5.6942  -14.8470 O   0  0  0  0  0  0  0  0  0  0  0  0
  -20.1089   -8.1226  -13.2695 C   0  0  2  0  0  0  0  0  0  0  0  0
  -20.4495   -8.2601  -14.5845 O   0  0  0  0  0  0  0  0  0  0  0  0
  -21.4075   -7.7779  -12.5224 C   0  0  0  0  0  0  0  0  0  0  0  0
  -19.6238   -4.6652  -12.8420 N   0  0  0  0  0  0  0  0  0  0  0  0
  -20.0062   -3.3771  -13.3412 C   0  0  0  0  0  0  0  0  0  0  0  0
  -20.1711   -2.3479  -12.3243 C   0  0  0  0  0  0  0  0  0  0  0  0
  -20.9316   -1.3582  -12.5759 O   0  0  0  0  0  0  0  0  0  0  0  0
  -19.5474   -2.3465  -11.0465 N   0  0  0  0  0  0  0  0  0  0  0  0
  -18.4528   -1.4176  -10.7813 C   0  0  2  0  0  0  0  0  0  0  0  0
  -17.1826   -1.9381  -11.3511 C   0  0  0  0  0  0  0  0  0  0  0  0
  -16.1318   -1.3089  -11.1505 O   0  0  0  0  0  0  0  0  0  0  0  0
  -18.3517   -1.0843   -9.3350 C   0  0  0  0  0  0  0  0  0  0  0  0
  -18.5579    0.3591   -9.0518 C   0  0  0  0  0  0  0  0  0  0  0  0
  -19.4607    1.0599   -9.5310 O   0  0  0  0  0  0  0  0  0  0  0  0
  -17.6510    0.9945   -8.1598 N   0  0  0  0  0  0  0  0  0  0  0  0
  -17.1660   -3.1294  -12.1055 N   0  0  0  0  0  0  0  0  0  0  0  0
  -15.9093   -3.6933  -12.6150 C   0  0  2  0  0  0  0  0  0  0  0  0
  -15.8130   -3.5842  -14.0640 C   0  0  0  0  0  0  0  0  0  0  0  0
  -14.6687   -3.5106  -14.6102 O   0  0  0  0  0  0  0  0  0  0  0  0
  -15.7950   -5.1427  -12.1431 C   0  0  0  0  0  0  0  0  0  0  0  0
  -16.9057   -3.5512  -14.9595 N   0  0  0  0  0  0  0  0  0  0  0  0
  -16.7631   -3.3242  -16.4050 C   0  0  2  0  0  0  0  0  0  0  0  0
  -15.3557   -3.6820  -16.6970 C   0  0  0  0  0  0  0  0  0  0  0  0
  -15.0980   -4.6717  -17.4057 O   0  0  0  0  0  0  0  0  0  0  0  0
  -17.1173   -1.9034  -16.7321 C   0  0  0  0  0  0  0  0  0  0  0  0
  -17.5945   -1.7852  -18.1147 C   0  0  0  0  0  0  0  0  0  0  0  0
  -17.2717   -2.5803  -19.0188 O   0  0  0  0  0  0  0  0  0  0  0  0
  -18.4681   -0.7257  -18.4800 O   0  0  0  0  0  0  0  0  0  0  0  0
  -12.6518   -3.1531  -18.4135 O   0  0  0  0  0  0  0  0  0  0  0  0
  -12.6196   -3.1619  -16.9154 P   0  0  1  0  0  5  0  0  0  0  0  0
  -11.6985   -1.7927  -16.4472 O   0  0  0  0  0  0  0  0  0  0  0  0
  -14.2183   -2.9561  -16.2163 N   0  0  0  0  0  0  0  0  0  0  0  0
  -11.8037   -4.4875  -16.2743 O   0  0  0  0  0  0  0  0  0  0  0  0
  -11.9868   -4.6831  -14.9299 C   0  0  0  0  0  0  0  0  0  0  0  0
  -10.6233   -5.1206  -14.3810 C   0  0  2  0  0  0  0  0  0  0  0  0
  -10.4708   -6.6187  -14.5374 C   0  0  1  0  0  0  0  0  0  0  0  0
   -9.2868   -6.9904  -15.1242 O   0  0  0  0  0  0  0  0  0  0  0  0
  -10.6002   -7.1187  -13.1194 C   0  0  1  0  0  0  0  0  0  0  0  0
   -9.7913   -8.2082  -12.9324 O   0  0  0  0  0  0  0  0  0  0  0  0
  -10.2145   -5.9088  -12.3095 C   0  0  1  0  0  0  0  0  0  0  0  0
  -10.4358   -4.7906  -13.0691 O   0  0  0  0  0  0  0  0  0  0  0  0
  -10.9220   -5.8755  -11.0412 N   0  0  0  0  0  0  0  0  0  0  0  0
  -10.3700   -5.9574   -9.8389 C   0  0  0  0  0  0  0  0  0  0  0  0
  -11.3651   -5.8889   -8.9052 C   0  0  0  0  0  0  0  0  0  0  0  0
  -12.5142   -5.7656   -9.5650 N   0  0  0  0  0  0  0  0  0  0  0  0
  -12.2494   -5.7564  -10.8844 C   0  0  0  0  0  0  0  0  0  0  0  0
   -9.0898   -6.0863   -9.4550 N   0  0  0  0  0  0  0  0  0  0  0  0
   -8.8023   -6.1465   -8.1610 C   0  0  0  0  0  0  0  0  0  0  0  0
   -9.7705   -6.0807   -7.2128 N   0  0  0  0  0  0  0  0  0  0  0  0
  -11.0510   -5.9520   -7.5768 C   0  0  0  0  0  0  0  0  0  0  0  0
  -12.0351   -5.8846   -6.5426 N   0  0  0  0  0  0  0  0  0  0  0  0
  -14.5793  -10.8767  -10.0416 H   0  0  0  0  0  0  0  0  0  0  0  0
  1  2  1  0
  4  1  1  0
  2  3  2  0
  4  5  1  1
  9  4  1  0
  5  6  1  0
  6  7  1  0
  7  8  1  0
  9 10  2  0
 11  9  1  0
 12 11  1  0
 13 12  1  0
 12 15  1  1
 13 14  2  0
 22 13  1  0
 15 16  1  0
 16 17  1  0
 17 18  1  0
 18 19  1  0
 19 20  1  0
 19 21  2  0
 23 22  1  1
 24 23  1  0
 23 26  1  0
 24 25  2  0
 29 24  1  0
 26 27  1  0
 26 28  1  1
 30 29  1  0
 31 30  1  0
 31 32  2  0
 33 31  1  0
 34 33  1  0
 35 34  1  0
 34 37  1  1
 35 36  2  0
 41 35  1  0
 37 38  1  0
 38 39  2  0
 38 40  1  0
 42 41  1  0
 43 42  1  0
 42 45  1  6
 43 44  2  0
 46 43  1  0
 47 46  1  0
 48 47  1  0
 47 50  1  1
 48 49  2  0
 57 48  1  0
 50 51  1  0
 51 52  2  0
 51 53  1  0
 55 54  2  0
 55 56  1  1
 55 57  1  0
 55 58  1  0
 58 59  1  0
 60 59  1  1
 60 61  1  0
 60 66  1  0
 61 62  1  1
 61 63  1  0
 63 64  1  6
 63 65  1  0
 65 66  1  0
 65 67  1  1
 67 68  1  0
 67 71  1  0
 68 69  2  0
 68 72  1  0
 69 70  1  0
 69 75  1  0
 70 71  2  0
 72 73  2  0
 73 74  1  0
 74 75  2  0
 75 76  1  0
 21 77  1  0
M  END
$$$$
