
     RDKit          3D

 77 79  0  0  0  0  0  0  0  0999 V2000
  -19.7827   -7.1749  -17.6240 N   0  0  0  0  0  0  0  0  0  0  0  0
  -19.4253   -8.5374  -17.7704 C   0  0  0  0  0  0  0  0  0  0  0  0
  -18.9846   -9.0100  -18.8484 O   0  0  0  0  0  0  0  0  0  0  0  0
  -20.0174   -6.6121  -16.3128 C   0  0  1  0  0  0  0  0  0  0  0  0
  -19.4241   -5.2167  -16.2580 C   0  0  0  0  0  0  0  0  0  0  0  0
  -19.7399   -4.6295  -14.9039 C   0  0  0  0  0  0  0  0  0  0  0  0
  -19.0766   -2.9414  -14.7570 S   0  0  0  0  0  0  0  0  0  0  0  0
  -19.5699   -2.3488  -13.0958 C   0  0  0  0  0  0  0  0  0  0  0  0
  -21.4959   -6.5550  -16.1280 C   0  0  0  0  0  0  0  0  0  0  0  0
  -22.0186   -6.1414  -15.0654 O   0  0  0  0  0  0  0  0  0  0  0  0
  -22.4058   -6.9803  -17.1650 N   0  0  0  0  0  0  0  0  0  0  0  0
  -23.8235   -6.9930  -16.9750 C   0  0  2  0  0  0  0  0  0  0  0  0
  -24.1226   -7.7531  -15.6750 C   0  0  0  0  0  0  0  0  0  0  0  0
  -23.8054   -8.9440  -15.6196 O   0  0  0  0  0  0  0  0  0  0  0  0
  -24.5806   -7.5696  -18.0900 C   0  0  0  0  0  0  0  0  0  0  0  0
  -25.9595   -7.1921  -18.4151 C   0  0  0  0  0  0  0  0  0  0  0  0
  -26.6966   -7.8673  -19.5117 C   0  0  0  0  0  0  0  0  0  0  0  0
  -27.3478   -7.0404  -20.4688 N   0  0  0  0  0  0  0  0  0  0  0  0
  -28.5263   -6.3121  -20.1584 C   0  0  0  0  0  0  0  0  0  0  0  0
  -29.6022   -6.9562  -19.4963 N   0  0  0  0  0  0  0  0  0  0  0  0
  -28.6291   -5.0808  -20.4700 N   0  0  0  0  0  0  0  0  0  0  0  0
  -24.7397   -7.1155  -14.5739 N   0  0  0  0  0  0  0  0  0  0  0  0
  -25.1957   -7.8028  -13.3871 C   0  0  2  0  0  0  0  0  0  0  0  0
  -24.0266   -8.4025  -12.6539 C   0  0  0  0  0  0  0  0  0  0  0  0
  -24.0513   -8.4839  -11.4154 O   0  0  0  0  0  0  0  0  0  0  0  0
  -26.3036   -8.7829  -13.6038 C   0  0  2  0  0  0  0  0  0  0  0  0
  -26.2453   -9.5373  -14.7403 O   0  0  0  0  0  0  0  0  0  0  0  0
  -27.6606   -8.0613  -13.6355 C   0  0  0  0  0  0  0  0  0  0  0  0
  -22.9024   -8.8727  -13.3721 N   0  0  0  0  0  0  0  0  0  0  0  0
  -21.7736   -9.5684  -12.8276 C   0  0  0  0  0  0  0  0  0  0  0  0
  -20.5166   -8.8350  -12.8786 C   0  0  0  0  0  0  0  0  0  0  0  0
  -20.5327   -7.6236  -13.2704 O   0  0  0  0  0  0  0  0  0  0  0  0
  -19.2435   -9.3586  -12.5223 N   0  0  0  0  0  0  0  0  0  0  0  0
  -18.0475   -8.5490  -12.7350 C   0  0  2  0  0  0  0  0  0  0  0  0
  -17.8474   -8.2921  -14.1852 C   0  0  0  0  0  0  0  0  0  0  0  0
  -18.2746   -9.1188  -15.0064 O   0  0  0  0  0  0  0  0  0  0  0  0
  -16.8544   -9.1458  -12.0768 C   0  0  0  0  0  0  0  0  0  0  0  0
  -15.6228   -8.3344  -12.2521 C   0  0  0  0  0  0  0  0  0  0  0  0
  -15.4016   -7.2435  -11.7072 O   0  0  0  0  0  0  0  0  0  0  0  0
  -14.6116   -8.8439  -13.1122 N   0  0  0  0  0  0  0  0  0  0  0  0
  -17.1864   -7.1270  -14.6262 N   0  0  0  0  0  0  0  0  0  0  0  0
  -17.0591   -6.8160  -16.0558 C   0  0  2  0  0  0  0  0  0  0  0  0
  -16.3076   -5.5888  -16.2798 C   0  0  0  0  0  0  0  0  0  0  0  0
  -16.2747   -5.0801  -17.4431 O   0  0  0  0  0  0  0  0  0  0  0  0
  -18.4573   -6.7489  -16.6698 C   0  0  0  0  0  0  0  0  0  0  0  0
  -15.5834   -4.8781  -15.2963 N   0  0  0  0  0  0  0  0  0  0  0  0
  -14.2774   -4.2510  -15.5458 C   0  0  2  0  0  0  0  0  0  0  0  0
  -13.2914   -5.2784  -15.1380 C   0  0  0  0  0  0  0  0  0  0  0  0
  -12.4206   -5.6603  -15.9405 O   0  0  0  0  0  0  0  0  0  0  0  0
  -14.1784   -2.9648  -14.7796 C   0  0  0  0  0  0  0  0  0  0  0  0
  -14.5576   -3.1585  -13.3754 C   0  0  0  0  0  0  0  0  0  0  0  0
  -14.1957   -2.3953  -12.4588 O   0  0  0  0  0  0  0  0  0  0  0  0
  -15.3759   -4.2588  -13.0025 O   0  0  0  0  0  0  0  0  0  0  0  0
  -12.6544   -8.0507  -12.3237 O   0  0  0  0  0  0  0  0  0  0  0  0
  -12.1768   -7.2389  -13.4893 P   0  0  1  0  0  5  0  0  0  0  0  0
  -12.2248   -8.2804  -14.8514 O   0  0  0  0  0  0  0  0  0  0  0  0
  -13.2501   -5.8944  -13.8455 N   0  0  0  0  0  0  0  0  0  0  0  0
  -10.5689   -6.7589  -13.3526 O   0  0  0  0  0  0  0  0  0  0  0  0
  -10.3573   -5.6747  -12.5409 C   0  0  0  0  0  0  0  0  0  0  0  0
   -8.8955   -5.2663  -12.7608 C   0  0  2  0  0  0  0  0  0  0  0  0
   -7.9882   -6.4329  -12.4325 C   0  0  1  0  0  0  0  0  0  0  0  0
   -7.0652   -6.7017  -13.4124 O   0  0  0  0  0  0  0  0  0  0  0  0
   -7.3504   -6.0062  -11.1329 C   0  0  1  0  0  0  0  0  0  0  0  0
   -6.0618   -6.4664  -11.0715 O   0  0  0  0  0  0  0  0  0  0  0  0
   -7.4756   -4.5061  -11.1843 C   0  0  1  0  0  0  0  0  0  0  0  0
   -8.5163   -4.1864  -12.0156 O   0  0  0  0  0  0  0  0  0  0  0  0
   -7.6262   -3.9434   -9.8535 N   0  0  0  0  0  0  0  0  0  0  0  0
   -6.6404   -3.5909   -9.0407 C   0  0  0  0  0  0  0  0  0  0  0  0
   -7.1891   -3.1065   -7.8869 C   0  0  0  0  0  0  0  0  0  0  0  0
   -8.5112   -3.1749   -8.0226 N   0  0  0  0  0  0  0  0  0  0  0  0
   -8.7894   -3.6905   -9.2340 C   0  0  0  0  0  0  0  0  0  0  0  0
   -5.3066   -3.6419   -9.1860 N   0  0  0  0  0  0  0  0  0  0  0  0
   -4.5286   -3.2176   -8.1985 C   0  0  0  0  0  0  0  0  0  0  0  0
   -5.0467   -2.7317   -7.0424 N   0  0  0  0  0  0  0  0  0  0  0  0
   -6.3730   -2.6732   -6.8802 C   0  0  0  0  0  0  0  0  0  0  0  0
   -6.8720   -2.1518   -5.6466 N   0  0  0  0  0  0  0  0  0  0  0  0
  -27.8877   -4.5347  -20.9539 H   0  0  0  0  0  0  0  0  0  0  0  0
  1  2  1  0
  4  1  1  0
  2  3  2  0
  4  5  1  6
  9  4  1  0
  5  6  1  0
  6  7  1  0
  7  8  1  0
  9 10  2  0
 11  9  1  0
 12 11  1  0
 13 12  1  0
 12 15  1  6
 13 14  2  0
 22 13  1  0
 15 16  1  0
 16 17  1  0
 17 18  1  0
 18 19  1  0
 19 20  1  0
 19 21  2  0
 23 22  1  6
 24 23  1  0
 23 26  1  0
 24 25  2  0
 29 24  1  0
 26 27  1  0
 26 28  1  6
 30 29  1  0
 31 30  1  0
 31 32  2  0
 33 31  1  0
 34 33  1  0
 35 34  1  0
 34 37  1  6
 35 36  2  0
 41 35  1  0
 37 38  1  0
 38 39  2  0
 38 40  1  0
 42 41  1  0
 43 42  1  0
 42 45  1  1
 43 44  2  0
 46 43  1  0
 47 46  1  0
 48 47  1  0
 47 50  1  1
 48 49  2  0
 57 48  1  0
 50 51  1  0
 51 52  2  0
 51 53  1  0
 55 54  2  0
 55 56  1  6
 55 57  1  0
 55 58  1  0
 58 59  1  0
 60 59  1  1
 60 61  1  0
 60 66  1  0
 61 62  1  6
 61 63  1  0
 63 64  1  6
 63 65  1  0
 65 66  1  0
 65 67  1  1
 67 68  1  0
 67 71  1  0
 68 69  2  0
 68 72  1  0
 69 70  1  0
 69 75  1  0
 70 71  2  0
 72 73  2  0
 73 74  1  0
 74 75  2  0
 75 76  1  0
 21 77  1  0
M  END
$$$$
