
     RDKit          3D

 77 79  0  0  0  0  0  0  0  0999 V2000
  -13.9580    5.4633  -50.3373 N   0  0  0  0  0  0  0  0  0  0  0  0
  -12.6656    5.5002  -49.7950 C   0  0  0  0  0  0  0  0  0  0  0  0
  -12.2076    6.5758  -49.3491 O   0  0  0  0  0  0  0  0  0  0  0  0
  -14.6094    4.2491  -50.8444 C   0  0  1  0  0  0  0  0  0  0  0  0
  -14.9545    4.5264  -52.2747 C   0  0  0  0  0  0  0  0  0  0  0  0
  -15.4413    5.9265  -52.5229 C   0  0  0  0  0  0  0  0  0  0  0  0
  -14.3580    6.9089  -53.5651 S   0  0  0  0  0  0  0  0  0  0  0  0
  -15.1105    8.5453  -53.9108 C   0  0  0  0  0  0  0  0  0  0  0  0
  -13.7065    3.0805  -50.6387 C   0  0  0  0  0  0  0  0  0  0  0  0
  -12.6055    3.0637  -51.2293 O   0  0  0  0  0  0  0  0  0  0  0  0
  -14.0929    2.0286  -49.8003 N   0  0  0  0  0  0  0  0  0  0  0  0
  -13.4768    1.7239  -48.5522 C   0  0  2  0  0  0  0  0  0  0  0  0
  -14.4022    1.6978  -47.3990 C   0  0  0  0  0  0  0  0  0  0  0  0
  -13.9186    1.8018  -46.2442 O   0  0  0  0  0  0  0  0  0  0  0  0
  -12.2665    2.5437  -48.2128 C   0  0  0  0  0  0  0  0  0  0  0  0
  -11.6644    2.3217  -46.8777 C   0  0  0  0  0  0  0  0  0  0  0  0
  -11.1842    0.9298  -46.5869 C   0  0  0  0  0  0  0  0  0  0  0  0
  -11.7239    0.5340  -45.3054 N   0  0  0  0  0  0  0  0  0  0  0  0
  -10.9929    0.3663  -44.1180 C   0  0  0  0  0  0  0  0  0  0  0  0
   -9.6126    0.0266  -44.0963 N   0  0  0  0  0  0  0  0  0  0  0  0
  -11.6191    0.5305  -42.9839 N   0  0  0  0  0  0  0  0  0  0  0  0
  -15.8176    1.5593  -47.4897 N   0  0  0  0  0  0  0  0  0  0  0  0
  -16.6474    0.8600  -46.5543 C   0  0  2  0  0  0  0  0  0  0  0  0
  -16.4870    1.3333  -45.1355 C   0  0  0  0  0  0  0  0  0  0  0  0
  -17.1015    0.7131  -44.2458 O   0  0  0  0  0  0  0  0  0  0  0  0
  -16.4069   -0.6132  -46.6579 C   0  0  2  0  0  0  0  0  0  0  0  0
  -15.1320   -0.9360  -46.1348 O   0  0  0  0  0  0  0  0  0  0  0  0
  -16.3924   -1.0107  -48.1098 C   0  0  0  0  0  0  0  0  0  0  0  0
  -15.6772    2.4289  -44.8275 N   0  0  0  0  0  0  0  0  0  0  0  0
  -16.0975    3.5748  -44.0837 C   0  0  0  0  0  0  0  0  0  0  0  0
  -15.0099    4.5834  -43.8701 C   0  0  0  0  0  0  0  0  0  0  0  0
  -13.9248    4.3227  -44.4236 O   0  0  0  0  0  0  0  0  0  0  0  0
  -15.1991    5.7377  -43.1096 N   0  0  0  0  0  0  0  0  0  0  0  0
  -14.9857    5.9384  -41.7117 C   0  0  2  0  0  0  0  0  0  0  0  0
  -13.8890    5.1046  -41.1740 C   0  0  0  0  0  0  0  0  0  0  0  0
  -13.8152    3.8629  -41.3641 O   0  0  0  0  0  0  0  0  0  0  0  0
  -16.2570    5.7451  -40.8766 C   0  0  0  0  0  0  0  0  0  0  0  0
  -17.4160    6.0629  -41.7181 C   0  0  0  0  0  0  0  0  0  0  0  0
  -17.8009    5.3269  -42.6642 O   0  0  0  0  0  0  0  0  0  0  0  0
  -18.1770    7.2462  -41.4951 N   0  0  0  0  0  0  0  0  0  0  0  0
  -12.8916    5.7789  -40.4213 N   0  0  0  0  0  0  0  0  0  0  0  0
  -11.7179    5.1995  -39.8743 C   0  0  2  0  0  0  0  0  0  0  0  0
  -10.8240    6.1063  -39.1362 C   0  0  0  0  0  0  0  0  0  0  0  0
   -9.6352    5.6999  -38.8835 O   0  0  0  0  0  0  0  0  0  0  0  0
  -10.8626    4.6309  -41.0268 C   0  0  0  0  0  0  0  0  0  0  0  0
  -11.1677    7.3864  -38.6823 N   0  0  0  0  0  0  0  0  0  0  0  0
  -10.3873    8.0148  -37.5950 C   0  0  2  0  0  0  0  0  0  0  0  0
  -10.2989    9.4589  -38.0213 C   0  0  0  0  0  0  0  0  0  0  0  0
  -11.2152    9.8900  -38.7530 O   0  0  0  0  0  0  0  0  0  0  0  0
   -9.0950    7.3271  -37.4790 C   0  0  0  0  0  0  0  0  0  0  0  0
   -8.7834    6.5254  -38.6917 C   0  0  0  0  0  0  0  0  0  0  0  0
   -9.3512    5.3896  -38.8639 O   0  0  0  0  0  0  0  0  0  0  0  0
   -7.9027    6.9246  -39.6664 O   0  0  0  0  0  0  0  0  0  0  0  0
  -10.0171   11.9671  -35.6167 O   0  0  0  0  0  0  0  0  0  0  0  0
   -9.4792   11.9267  -37.0192 P   0  0  1  0  0  5  0  0  0  0  0  0
   -7.9703   12.7656  -36.9889 O   0  0  0  0  0  0  0  0  0  0  0  0
   -9.2581   10.3342  -37.6540 N   0  0  0  0  0  0  0  0  0  0  0  0
  -10.4869   12.8986  -37.9859 O   0  0  0  0  0  0  0  0  0  0  0  0
  -11.7780   12.4220  -38.0001 C   0  0  0  0  0  0  0  0  0  0  0  0
  -12.7348   13.5993  -37.9862 C   0  0  2  0  0  0  0  0  0  0  0  0
  -11.9558   14.8593  -37.7348 C   0  0  1  0  0  0  0  0  0  0  0  0
  -11.7149   15.4335  -38.9972 O   0  0  0  0  0  0  0  0  0  0  0  0
  -12.9187   15.7074  -36.9445 C   0  0  1  0  0  0  0  0  0  0  0  0
  -13.5334   16.6684  -37.7468 O   0  0  0  0  0  0  0  0  0  0  0  0
  -13.8819   14.7139  -36.3939 C   0  0  1  0  0  0  0  0  0  0  0  0
  -13.6788   13.5147  -37.0189 O   0  0  0  0  0  0  0  0  0  0  0  0
  -13.8203   14.6058  -34.9568 N   0  0  0  0  0  0  0  0  0  0  0  0
  -14.7226   15.1358  -34.1194 C   0  0  0  0  0  0  0  0  0  0  0  0
  -14.3400   14.8362  -32.8349 C   0  0  0  0  0  0  0  0  0  0  0  0
  -13.2129   14.1296  -32.8923 N   0  0  0  0  0  0  0  0  0  0  0  0
  -12.8931   13.9887  -34.2156 C   0  0  0  0  0  0  0  0  0  0  0  0
  -15.8269   15.8408  -34.3499 N   0  0  0  0  0  0  0  0  0  0  0  0
  -16.5615   16.2558  -33.3065 C   0  0  0  0  0  0  0  0  0  0  0  0
  -16.2025   15.9724  -32.0257 N   0  0  0  0  0  0  0  0  0  0  0  0
  -15.0907   15.2597  -31.7606 C   0  0  0  0  0  0  0  0  0  0  0  0
  -14.7659   14.9939  -30.4047 N   0  0  0  0  0  0  0  0  0  0  0  0
  -12.6136    0.2288  -42.9004 H   0  0  0  0  0  0  0  0  0  0  0  0
  1  2  1  0
  4  1  1  6
  2  3  2  0
  4  5  1  0
  9  4  1  0
  5  6  1  6
  6  7  1  6
  8  7  1  6
  9 10  2  0
 11  9  1  0
 12 11  1  6
 13 12  1  0
 15 12  1  1
 13 14  2  0
 22 13  1  0
 15 16  1  0
 16 17  1  6
 17 18  1  6
 18 19  1  0
 19 20  1  0
 19 21  2  0
 23 22  1  6
 24 23  1  0
 23 26  1  0
 24 25  2  0
 29 24  1  0
 26 27  1  6
 28 26  1  6
 30 29  1  1
 31 30  1  0
 31 32  2  0
 33 31  1  0
 34 33  1  6
 35 34  1  0
 34 37  1  0
 35 36  2  0
 41 35  1  0
 37 38  1  6
 38 39  2  0
 38 40  1  0
 42 41  1  6
 43 42  1  0
 45 42  1  6
 43 44  2  0
 46 43  1  0
 47 46  1  6
 48 47  1  0
 47 50  1  0
 48 49  2  0
 57 48  1  0
 50 51  1  6
 51 52  2  0
 51 53  1  0
 55 54  2  0
 55 56  1  1
 55 57  1  0
 55 58  1  0
 59 58  1  1
 59 60  1  0
 60 61  1  0
 60 66  1  1
 61 62  1  6
 61 63  1  0
 63 64  1  6
 63 65  1  0
 65 66  1  0
 65 67  1  1
 67 68  1  0
 67 71  1  0
 68 69  2  0
 68 72  1  0
 69 70  1  0
 69 75  1  0
 70 71  2  0
 72 73  2  0
 73 74  1  0
 74 75  2  0
 75 76  1  0
 21 77  1  0
M  END
$$$$
