
     RDKit          3D

 28 31  0  0  0  0  0  0  0  0999 V2000
  -14.9890 -102.4748   -3.3462 C   0  0  0  0  0  0  0  0  0  0  0  0
  -13.6163 -102.3787   -3.3787 C   0  0  0  0  0  0  0  0  0  0  0  0
  -12.8342 -103.4189   -2.9052 C   0  0  0  0  0  0  0  0  0  0  0  0
  -13.4277 -104.5170   -2.4164 N   0  0  0  0  0  0  0  0  0  0  0  0
  -15.5535 -103.5786   -2.8546 N   0  0  0  0  0  0  0  0  0  0  0  0
   -9.1526 -103.9329   -3.0525 C   0  0  0  0  0  0  0  0  0  0  0  0
  -10.6084 -104.2376   -2.9614 C   0  0  0  0  0  0  0  0  0  0  0  0
  -11.4260 -103.2435   -2.9731 N   0  0  0  0  0  0  0  0  0  0  0  0
  -14.7765 -104.5768   -2.4001 C   0  0  0  0  0  0  0  0  0  0  0  0
  -13.3526 -101.1428   -3.9320 C   0  0  0  0  0  0  0  0  0  0  0  0
  -14.5654 -100.5486   -4.2084 C   0  0  0  0  0  0  0  0  0  0  0  0
  -15.5525 -101.3759   -3.8443 N   0  0  0  0  0  0  0  0  0  0  0  0
  -16.9527 -101.0385   -4.0067 C   0  0  2  0  0  0  0  0  0  0  0  0
  -17.2748 -100.7229   -5.3238 O   0  0  0  0  0  0  0  0  0  0  0  0
  -17.3206  -99.7636   -3.2852 C   0  0  2  0  0  0  0  0  0  0  0  0
  -17.5470  -99.9753   -1.9295 O   0  0  0  0  0  0  0  0  0  0  0  0
  -18.6058  -99.3651   -4.0058 C   0  0  2  0  0  0  0  0  0  0  0  0
  -19.6645  -99.5297   -3.1225 O   0  0  0  0  0  0  0  0  0  0  0  0
  -18.6348 -100.3625   -5.1441 C   0  0  1  0  0  0  0  0  0  0  0  0
  -19.2095  -99.7020   -6.3583 C   0  0  2  0  0  0  0  0  0  0  0  0
  -18.2928  -98.8710   -6.9920 O   0  0  0  0  0  0  0  0  0  0  0  0
  -20.4885  -99.0817   -6.0322 C   0  0  0  0  0  0  0  0  0  0  0  0
  -20.6055  -97.7710   -5.6210 C   0  0  0  0  0  0  0  0  0  0  0  0
  -21.8476  -97.2627   -5.3272 C   0  0  0  0  0  0  0  0  0  0  0  0
  -23.0058  -98.0059   -5.4229 C   0  0  0  0  0  0  0  0  0  0  0  0
  -24.5884  -97.3444   -5.0444 Cl  0  0  0  0  0  0  0  0  0  0  0  0
  -22.8585  -99.3205   -5.8388 C   0  0  0  0  0  0  0  0  0  0  0  0
  -21.6425  -99.8621   -6.1397 C   0  0  0  0  0  0  0  0  0  0  0  0
  2  1  1  0
  1  5  2  0
  1 12  1  0
  3  2  2  0
  2 10  1  0
  3  4  1  0
  8  3  1  0
  4  9  2  0
  9  5  1  0
  7  6  1  0
  7  8  2  0
 10 11  2  0
 11 12  1  0
 13 12  1  6
 13 14  1  0
 13 15  1  0
 19 14  1  6
 15 16  1  1
 15 17  1  0
 17 18  1  1
 17 19  1  0
 19 20  1  0
 20 21  1  1
 20 22  1  0
 22 23  2  0
 22 28  1  0
 23 24  1  0
 24 25  2  0
 25 26  1  0
 25 27  1  0
 27 28  2  0
M  END
$$$$
