
     RDKit          3D

 28 31  0  0  0  0  0  0  0  0999 V2000
  -15.4856 -102.8819   -3.4391 C   0  0  0  0  0  0  0  0  0  0  0  0
  -14.2483 -102.9012   -4.0713 C   0  0  0  0  0  0  0  0  0  0  0  0
  -13.3110 -103.8650   -3.7262 C   0  0  0  0  0  0  0  0  0  0  0  0
  -13.6571 -104.7484   -2.7778 N   0  0  0  0  0  0  0  0  0  0  0  0
  -15.7389 -103.8026   -2.5071 N   0  0  0  0  0  0  0  0  0  0  0  0
   -9.6757 -103.8037   -4.3767 C   0  0  0  0  0  0  0  0  0  0  0  0
  -10.9893 -103.8147   -3.7114 C   0  0  0  0  0  0  0  0  0  0  0  0
  -12.0624 -103.8470   -4.3965 N   0  0  0  0  0  0  0  0  0  0  0  0
  -14.8493 -104.7451   -2.1555 C   0  0  0  0  0  0  0  0  0  0  0  0
  -14.2585 -101.8708   -4.9604 C   0  0  0  0  0  0  0  0  0  0  0  0
  -15.4741 -101.2613   -4.8519 C   0  0  0  0  0  0  0  0  0  0  0  0
  -16.2406 -101.8635   -3.9272 N   0  0  0  0  0  0  0  0  0  0  0  0
  -17.5654 -101.5217   -3.5291 C   0  0  2  0  0  0  0  0  0  0  0  0
  -18.4141 -101.2922   -4.6370 O   0  0  0  0  0  0  0  0  0  0  0  0
  -17.6525 -100.2143   -2.7859 C   0  0  2  0  0  0  0  0  0  0  0  0
  -17.5618 -100.4666   -1.4159 O   0  0  0  0  0  0  0  0  0  0  0  0
  -19.0723  -99.7451   -3.1329 C   0  0  2  0  0  0  0  0  0  0  0  0
  -19.7906  -99.6062   -1.9460 O   0  0  0  0  0  0  0  0  0  0  0  0
  -19.5776 -100.8987   -3.9595 C   0  0  1  0  0  0  0  0  0  0  0  0
  -20.6813 -100.5264   -4.9081 C   0  0  2  0  0  0  0  0  0  0  0  0
  -21.0085 -101.5228   -5.7910 O   0  0  0  0  0  0  0  0  0  0  0  0
  -20.3540  -99.2332   -5.5405 C   0  0  0  0  0  0  0  0  0  0  0  0
  -19.4565  -99.0923   -6.5799 C   0  0  0  0  0  0  0  0  0  0  0  0
  -19.1826  -97.8566   -7.1378 C   0  0  0  0  0  0  0  0  0  0  0  0
  -19.7872  -96.7241   -6.6853 C   0  0  0  0  0  0  0  0  0  0  0  0
  -19.4041  -95.1770   -7.4289 Cl  0  0  0  0  0  0  0  0  0  0  0  0
  -20.6847  -96.8317   -5.6527 C   0  0  0  0  0  0  0  0  0  0  0  0
  -20.9598  -98.0619   -5.0946 C   0  0  0  0  0  0  0  0  0  0  0  0
  2  1  1  0
  1  5  2  0
  1 12  1  0
  3  2  2  0
  2 10  1  0
  3  4  1  0
  8  3  1  0
  4  9  2  0
  9  5  1  0
  6  7  1  6
  7  8  2  0
 10 11  2  0
 11 12  1  0
 13 12  1  6
 13 14  1  0
 13 15  1  0
 19 14  1  6
 15 16  1  1
 15 17  1  0
 17 18  1  1
 17 19  1  0
 19 20  1  0
 20 21  1  6
 20 22  1  0
 22 23  2  0
 22 28  1  0
 23 24  1  0
 24 25  2  0
 25 26  1  0
 25 27  1  0
 27 28  2  0
M  END
$$$$
