
     RDKit          3D

 28 31  0  0  0  0  0  0  0  0999 V2000
  -15.2191 -102.5686   -3.2518 C   0  0  0  0  0  0  0  0  0  0  0  0
  -13.8477 -102.6100   -3.3627 C   0  0  0  0  0  0  0  0  0  0  0  0
  -13.1416 -103.6930   -2.8665 C   0  0  0  0  0  0  0  0  0  0  0  0
  -13.8070 -104.6974   -2.2788 N   0  0  0  0  0  0  0  0  0  0  0  0
  -15.8561 -103.5813   -2.6626 N   0  0  0  0  0  0  0  0  0  0  0  0
   -9.6825 -103.1885   -4.1314 C   0  0  0  0  0  0  0  0  0  0  0  0
  -11.1571 -103.0309   -3.9848 C   0  0  0  0  0  0  0  0  0  0  0  0
  -11.7295 -103.6611   -3.0194 N   0  0  0  0  0  0  0  0  0  0  0  0
  -15.1522 -104.6232   -2.1876 C   0  0  0  0  0  0  0  0  0  0  0  0
  -13.5007 -101.4399   -4.0059 C   0  0  0  0  0  0  0  0  0  0  0  0
  -14.6657 -100.7462   -4.2549 C   0  0  0  0  0  0  0  0  0  0  0  0
  -15.7040 -101.4501   -3.7879 N   0  0  0  0  0  0  0  0  0  0  0  0
  -17.0729 -100.9866   -3.8972 C   0  0  2  0  0  0  0  0  0  0  0  0
  -17.3734 -100.5106   -5.1705 O   0  0  0  0  0  0  0  0  0  0  0  0
  -17.3336  -99.7686   -3.0431 C   0  0  2  0  0  0  0  0  0  0  0  0
  -17.5711 -100.1017   -1.7139 O   0  0  0  0  0  0  0  0  0  0  0  0
  -18.5852  -99.1955   -3.7025 C   0  0  2  0  0  0  0  0  0  0  0  0
  -19.6503  -99.3661   -2.8282 O   0  0  0  0  0  0  0  0  0  0  0  0
  -18.6992 -100.0632   -4.9377 C   0  0  1  0  0  0  0  0  0  0  0  0
  -19.2233  -99.2358   -6.0698 C   0  0  2  0  0  0  0  0  0  0  0  0
  -18.5071  -98.0563   -6.2383 O   0  0  0  0  0  0  0  0  0  0  0  0
  -20.6671  -99.0734   -5.9440 C   0  0  0  0  0  0  0  0  0  0  0  0
  -21.5693 -100.0410   -6.3322 C   0  0  0  0  0  0  0  0  0  0  0  0
  -22.9154  -99.8084   -6.1855 C   0  0  0  0  0  0  0  0  0  0  0  0
  -23.4232  -98.6379   -5.6611 C   0  0  0  0  0  0  0  0  0  0  0  0
  -25.1467  -98.3524   -5.4785 Cl  0  0  0  0  0  0  0  0  0  0  0  0
  -22.4933  -97.6828   -5.2791 C   0  0  0  0  0  0  0  0  0  0  0  0
  -21.1486  -97.8760   -5.4088 C   0  0  0  0  0  0  0  0  0  0  0  0
  2  1  1  0
  1  5  2  0
  1 12  1  0
  3  2  2  0
  2 10  1  0
  3  4  1  0
  8  3  1  0
  4  9  2  0
  9  5  1  0
  7  6  1  0
  7  8  2  0
 10 11  2  0
 11 12  1  0
 13 12  1  6
 13 14  1  0
 13 15  1  0
 19 14  1  6
 15 16  1  1
 15 17  1  0
 17 18  1  1
 17 19  1  0
 19 20  1  0
 20 21  1  1
 20 22  1  0
 22 23  2  0
 22 28  1  0
 23 24  1  0
 24 25  2  0
 25 26  1  0
 25 27  1  0
 27 28  2  0
M  END
$$$$
