
     RDKit          3D

 28 31  0  0  0  0  0  0  0  0999 V2000
  -15.5323 -102.8228   -3.2939 C   0  0  0  0  0  0  0  0  0  0  0  0
  -14.3188 -102.8169   -3.9436 C   0  0  0  0  0  0  0  0  0  0  0  0
  -13.3615 -103.7702   -3.6392 C   0  0  0  0  0  0  0  0  0  0  0  0
  -13.6296 -104.6959   -2.7074 N   0  0  0  0  0  0  0  0  0  0  0  0
  -15.7729 -103.7551   -2.3711 N   0  0  0  0  0  0  0  0  0  0  0  0
  -10.2586 -102.6176   -5.3342 C   0  0  0  0  0  0  0  0  0  0  0  0
  -11.5970 -102.5745   -4.6804 C   0  0  0  0  0  0  0  0  0  0  0  0
  -12.1353 -103.6969   -4.3530 N   0  0  0  0  0  0  0  0  0  0  0  0
  -14.8304 -104.6714   -2.0904 C   0  0  0  0  0  0  0  0  0  0  0  0
  -14.3814 -101.7520   -4.8184 C   0  0  0  0  0  0  0  0  0  0  0  0
  -15.6185 -101.1639   -4.6628 C   0  0  0  0  0  0  0  0  0  0  0  0
  -16.3069 -101.8307   -3.7285 N   0  0  0  0  0  0  0  0  0  0  0  0
  -17.6505 -101.4563   -3.3340 C   0  0  2  0  0  0  0  0  0  0  0  0
  -18.5197 -101.3730   -4.4183 O   0  0  0  0  0  0  0  0  0  0  0  0
  -17.7129 -100.0527   -2.7800 C   0  0  2  0  0  0  0  0  0  0  0  0
  -17.3249  -99.9982   -1.4457 O   0  0  0  0  0  0  0  0  0  0  0  0
  -19.1957  -99.7274   -2.9392 C   0  0  2  0  0  0  0  0  0  0  0  0
  -19.7634  -99.6704   -1.6733 O   0  0  0  0  0  0  0  0  0  0  0  0
  -19.6801 -100.9150   -3.7433 C   0  0  1  0  0  0  0  0  0  0  0  0
  -20.7442 -100.4610   -4.6933 C   0  0  2  0  0  0  0  0  0  0  0  0
  -21.1920 -101.4883   -5.5158 O   0  0  0  0  0  0  0  0  0  0  0  0
  -20.3129  -99.2528   -5.3871 C   0  0  0  0  0  0  0  0  0  0  0  0
  -20.7228  -97.9885   -5.0209 C   0  0  0  0  0  0  0  0  0  0  0  0
  -20.2748  -96.9004   -5.7301 C   0  0  0  0  0  0  0  0  0  0  0  0
  -19.4212  -97.0057   -6.8087 C   0  0  0  0  0  0  0  0  0  0  0  0
  -18.8554  -95.6067   -7.7075 Cl  0  0  0  0  0  0  0  0  0  0  0  0
  -19.0253  -98.2889   -7.1545 C   0  0  0  0  0  0  0  0  0  0  0  0
  -19.4481  -99.3945   -6.4753 C   0  0  0  0  0  0  0  0  0  0  0  0
  2  1  1  0
  1  5  2  0
  1 12  1  0
  3  2  2  0
  2 10  1  0
  3  4  1  0
  8  3  1  0
  4  9  2  0
  9  5  1  0
  7  6  1  0
  7  8  2  0
 10 11  2  0
 11 12  1  0
 13 12  1  6
 13 14  1  0
 13 15  1  0
 19 14  1  6
 15 16  1  1
 15 17  1  0
 17 18  1  1
 17 19  1  0
 19 20  1  0
 20 21  1  6
 20 22  1  0
 22 23  2  0
 22 28  1  0
 23 24  1  0
 24 25  2  0
 25 26  1  0
 25 27  1  0
 27 28  2  0
M  END
$$$$
