
     RDKit          3D

 28 31  0  0  0  0  0  0  0  0999 V2000
  -22.2497  -88.2780  -10.6076 C   0  0  0  0  0  0  0  0  0  0  0  0
  -23.4733  -87.8393  -10.1162 C   0  0  0  0  0  0  0  0  0  0  0  0
  -23.8279  -86.5029  -10.2384 C   0  0  0  0  0  0  0  0  0  0  0  0
  -22.9499  -85.6855  -10.8388 N   0  0  0  0  0  0  0  0  0  0  0  0
  -21.4419  -87.3897  -11.1898 N   0  0  0  0  0  0  0  0  0  0  0  0
  -27.3057  -86.6003   -9.0042 C   0  0  0  0  0  0  0  0  0  0  0  0
  -25.9490  -86.9871   -9.4260 C   0  0  0  0  0  0  0  0  0  0  0  0
  -25.0850  -86.0997   -9.7230 N   0  0  0  0  0  0  0  0  0  0  0  0
  -21.7617  -86.0921  -11.3202 C   0  0  0  0  0  0  0  0  0  0  0  0
  -24.0842  -88.9326   -9.5837 C   0  0  0  0  0  0  0  0  0  0  0  0
  -23.2381  -89.9883   -9.7588 C   0  0  0  0  0  0  0  0  0  0  0  0
  -22.1099  -89.6104  -10.3831 N   0  0  0  0  0  0  0  0  0  0  0  0
  -20.9935  -90.4198  -10.7419 C   0  0  2  0  0  0  0  0  0  0  0  0
  -21.3122  -91.7978  -10.7479 O   0  0  0  0  0  0  0  0  0  0  0  0
  -19.8622  -90.3596   -9.7492 C   0  0  2  0  0  0  0  0  0  0  0  0
  -18.9655  -89.3660  -10.1459 O   0  0  0  0  0  0  0  0  0  0  0  0
  -19.2139  -91.7404   -9.9215 C   0  0  2  0  0  0  0  0  0  0  0  0
  -17.8875  -91.5567  -10.3098 O   0  0  0  0  0  0  0  0  0  0  0  0
  -20.0448  -92.3271  -11.0327 C   0  0  1  0  0  0  0  0  0  0  0  0
  -20.0549  -93.8292  -11.0531 C   0  0  2  0  0  0  0  0  0  0  0  0
  -20.6238  -94.3610  -12.1813 O   0  0  0  0  0  0  0  0  0  0  0  0
  -20.6329  -94.3219   -9.7872 C   0  0  0  0  0  0  0  0  0  0  0  0
  -21.9877  -94.3580   -9.5246 C   0  0  0  0  0  0  0  0  0  0  0  0
  -22.4797  -94.8279   -8.3203 C   0  0  0  0  0  0  0  0  0  0  0  0
  -21.6480  -95.2758   -7.3404 C   0  0  0  0  0  0  0  0  0  0  0  0
  -22.3241  -95.8633   -5.8268 Cl  0  0  0  0  0  0  0  0  0  0  0  0
  -20.2953  -95.2526   -7.5715 C   0  0  0  0  0  0  0  0  0  0  0  0
  -19.8020  -94.7848   -8.7708 C   0  0  0  0  0  0  0  0  0  0  0  0
  2  1  1  0
  1  5  2  0
  1 12  1  0
  3  2  2  0
  2 10  1  0
  3  4  1  0
  8  3  1  0
  4  9  2  0
  9  5  1  0
  6  7  1  6
  7  8  2  0
 10 11  2  0
 11 12  1  0
 13 12  1  1
 13 14  1  0
 13 15  1  0
 19 14  1  1
 15 16  1  6
 15 17  1  0
 17 18  1  6
 17 19  1  0
 19 20  1  0
 20 21  1  6
 20 22  1  0
 22 23  2  0
 22 28  1  0
 23 24  1  0
 24 25  2  0
 25 26  1  0
 25 27  1  0
 27 28  2  0
M  END
$$$$
