
     RDKit          3D

 28 31  0  0  0  0  0  0  0  0999 V2000
  -21.4481  -88.4945   -9.9226 C   0  0  0  0  0  0  0  0  0  0  0  0
  -21.9659  -87.5507  -10.8012 C   0  0  0  0  0  0  0  0  0  0  0  0
  -21.9637  -86.2072  -10.4522 C   0  0  0  0  0  0  0  0  0  0  0  0
  -21.4494  -85.8829   -9.2563 N   0  0  0  0  0  0  0  0  0  0  0  0
  -20.9579  -88.0756   -8.7544 N   0  0  0  0  0  0  0  0  0  0  0  0
  -24.3265  -84.4168  -12.6532 C   0  0  0  0  0  0  0  0  0  0  0  0
  -23.7508  -85.3013  -11.6263 C   0  0  0  0  0  0  0  0  0  0  0  0
  -22.5017  -85.2795  -11.3786 N   0  0  0  0  0  0  0  0  0  0  0  0
  -20.9442  -86.7823   -8.3935 C   0  0  0  0  0  0  0  0  0  0  0  0
  -22.3898  -88.2405  -11.8952 C   0  0  0  0  0  0  0  0  0  0  0  0
  -22.1266  -89.5587  -11.6632 C   0  0  0  0  0  0  0  0  0  0  0  0
  -21.5506  -89.7369  -10.4625 N   0  0  0  0  0  0  0  0  0  0  0  0
  -21.1298  -90.9601   -9.8650 C   0  0  2  0  0  0  0  0  0  0  0  0
  -20.4618  -91.8020  -10.7845 O   0  0  0  0  0  0  0  0  0  0  0  0
  -22.2707  -91.8308   -9.4078 C   0  0  2  0  0  0  0  0  0  0  0  0
  -22.5458  -91.5486   -8.0686 O   0  0  0  0  0  0  0  0  0  0  0  0
  -21.6655  -93.2366   -9.5267 C   0  0  2  0  0  0  0  0  0  0  0  0
  -21.6923  -93.8335   -8.2670 O   0  0  0  0  0  0  0  0  0  0  0  0
  -20.2592  -92.9233   -9.9663 C   0  0  1  0  0  0  0  0  0  0  0  0
  -19.5920  -94.0466  -10.7079 C   0  0  2  0  0  0  0  0  0  0  0  0
  -19.8738  -94.0651  -12.0494 O   0  0  0  0  0  0  0  0  0  0  0  0
  -19.8714  -95.3159  -10.0075 C   0  0  0  0  0  0  0  0  0  0  0  0
  -19.2535  -95.6967   -8.8332 C   0  0  0  0  0  0  0  0  0  0  0  0
  -19.5493  -96.8988   -8.2161 C   0  0  0  0  0  0  0  0  0  0  0  0
  -20.4639  -97.7596   -8.7408 C   0  0  0  0  0  0  0  0  0  0  0  0
  -20.8040  -99.2758   -7.9171 Cl  0  0  0  0  0  0  0  0  0  0  0  0
  -21.0953  -97.4090   -9.9079 C   0  0  0  0  0  0  0  0  0  0  0  0
  -20.8026  -96.2116  -10.5253 C   0  0  0  0  0  0  0  0  0  0  0  0
  2  1  1  0
  1  5  2  0
  1 12  1  0
  3  2  2  0
  2 10  1  0
  3  4  1  0
  8  3  1  0
  4  9  2  0
  9  5  1  0
  6  7  1  6
  7  8  2  0
 10 11  2  0
 11 12  1  0
 13 12  1  6
 13 14  1  0
 13 15  1  0
 19 14  1  6
 15 16  1  1
 15 17  1  0
 17 18  1  1
 17 19  1  0
 19 20  1  0
 20 21  1  6
 20 22  1  0
 22 23  2  0
 22 28  1  0
 23 24  1  0
 24 25  2  0
 25 26  1  0
 25 27  1  0
 27 28  2  0
M  END
$$$$
