
     RDKit          3D

 28 31  0  0  0  0  0  0  0  0999 V2000
  -15.0587 -102.9769   -4.3897 C   0  0  0  0  0  0  0  0  0  0  0  0
  -13.7632 -103.0382   -3.8909 C   0  0  0  0  0  0  0  0  0  0  0  0
  -13.0090 -104.1902   -4.0663 C   0  0  0  0  0  0  0  0  0  0  0  0
  -13.5841 -105.2082   -4.7241 N   0  0  0  0  0  0  0  0  0  0  0  0
  -15.5452 -104.0412   -5.0309 N   0  0  0  0  0  0  0  0  0  0  0  0
   -9.7994 -103.0542   -2.6575 C   0  0  0  0  0  0  0  0  0  0  0  0
  -11.2317 -103.1615   -2.9818 C   0  0  0  0  0  0  0  0  0  0  0  0
  -11.6928 -104.2087   -3.5411 N   0  0  0  0  0  0  0  0  0  0  0  0
  -14.8361 -105.1668   -5.2136 C   0  0  0  0  0  0  0  0  0  0  0  0
  -13.5273 -101.8379   -3.2943 C   0  0  0  0  0  0  0  0  0  0  0  0
  -14.6587 -101.0899   -3.4401 C   0  0  0  0  0  0  0  0  0  0  0  0
  -15.6083 -101.7672   -4.1072 N   0  0  0  0  0  0  0  0  0  0  0  0
  -16.9185 -101.3275   -4.4541 C   0  0  2  0  0  0  0  0  0  0  0  0
  -16.9093 -100.0553   -5.0719 O   0  0  0  0  0  0  0  0  0  0  0  0
  -17.8110 -101.0959   -3.2629 C   0  0  2  0  0  0  0  0  0  0  0  0
  -18.5304 -102.2638   -3.0036 O   0  0  0  0  0  0  0  0  0  0  0  0
  -18.7607 -100.0080   -3.7837 C   0  0  2  0  0  0  0  0  0  0  0  0
  -20.0647 -100.4972   -3.7202 O   0  0  0  0  0  0  0  0  0  0  0  0
  -18.2910  -99.8536   -5.2067 C   0  0  1  0  0  0  0  0  0  0  0  0
  -18.6072  -98.5132   -5.8068 C   0  0  2  0  0  0  0  0  0  0  0  0
  -18.2362  -97.4551   -5.0179 O   0  0  0  0  0  0  0  0  0  0  0  0
  -20.0232  -98.4969   -6.2242 C   0  0  0  0  0  0  0  0  0  0  0  0
  -20.4674  -98.9510   -7.4498 C   0  0  0  0  0  0  0  0  0  0  0  0
  -21.8064  -98.9127   -7.7944 C   0  0  0  0  0  0  0  0  0  0  0  0
  -22.7456  -98.4248   -6.9385 C   0  0  0  0  0  0  0  0  0  0  0  0
  -24.4356  -98.3979   -7.4248 Cl  0  0  0  0  0  0  0  0  0  0  0  0
  -22.3350  -97.9657   -5.7120 C   0  0  0  0  0  0  0  0  0  0  0  0
  -21.0011  -98.0027   -5.3657 C   0  0  0  0  0  0  0  0  0  0  0  0
  2  1  1  0
  1  5  2  0
  1 12  1  0
  3  2  2  0
  2 10  1  0
  3  4  1  0
  8  3  1  0
  4  9  2  0
  9  5  1  0
  6  7  1  6
  7  8  2  0
 10 11  2  0
 11 12  1  0
 13 12  1  1
 13 14  1  0
 13 15  1  0
 19 14  1  1
 15 16  1  6
 15 17  1  0
 17 18  1  6
 17 19  1  0
 19 20  1  0
 20 21  1  1
 20 22  1  0
 22 23  2  0
 22 28  1  0
 23 24  1  0
 24 25  2  0
 25 26  1  0
 25 27  1  0
 27 28  2  0
M  END
$$$$
