
     RDKit          3D

 28 31  0  0  0  0  0  0  0  0999 V2000
  -15.0199 -102.4617   -3.5895 C   0  0  0  0  0  0  0  0  0  0  0  0
  -13.6342 -102.5052   -3.6838 C   0  0  0  0  0  0  0  0  0  0  0  0
  -12.9401 -103.5900   -3.1662 C   0  0  0  0  0  0  0  0  0  0  0  0
  -13.6608 -104.5629   -2.5883 N   0  0  0  0  0  0  0  0  0  0  0  0
  -15.6500 -103.4775   -2.9965 N   0  0  0  0  0  0  0  0  0  0  0  0
   -9.4762 -102.5195   -3.8659 C   0  0  0  0  0  0  0  0  0  0  0  0
  -10.9460 -102.5888   -3.8098 C   0  0  0  0  0  0  0  0  0  0  0  0
  -11.5278 -103.5925   -3.2844 N   0  0  0  0  0  0  0  0  0  0  0  0
  -15.0017 -104.5379   -2.4881 C   0  0  0  0  0  0  0  0  0  0  0  0
  -13.2597 -101.3631   -4.3222 C   0  0  0  0  0  0  0  0  0  0  0  0
  -14.3998 -100.6659   -4.5960 C   0  0  0  0  0  0  0  0  0  0  0  0
  -15.4883 -101.3196   -4.1566 N   0  0  0  0  0  0  0  0  0  0  0  0
  -16.8516 -100.9171   -4.2549 C   0  0  2  0  0  0  0  0  0  0  0  0
  -17.2080 -100.5543   -5.5746 O   0  0  0  0  0  0  0  0  0  0  0  0
  -17.1660  -99.6616   -3.4842 C   0  0  2  0  0  0  0  0  0  0  0  0
  -17.6107 -100.0139   -2.2087 O   0  0  0  0  0  0  0  0  0  0  0  0
  -18.3301  -99.0742   -4.2943 C   0  0  2  0  0  0  0  0  0  0  0  0
  -19.4390  -98.9695   -3.4557 O   0  0  0  0  0  0  0  0  0  0  0  0
  -18.5263 -100.1306   -5.3501 C   0  0  1  0  0  0  0  0  0  0  0  0
  -19.1737  -99.6193   -6.6055 C   0  0  2  0  0  0  0  0  0  0  0  0
  -18.3467  -98.8420   -7.3745 O   0  0  0  0  0  0  0  0  0  0  0  0
  -20.4597  -98.9837   -6.2571 C   0  0  0  0  0  0  0  0  0  0  0  0
  -20.5831  -97.6665   -5.8627 C   0  0  0  0  0  0  0  0  0  0  0  0
  -21.8123  -97.1179   -5.5447 C   0  0  0  0  0  0  0  0  0  0  0  0
  -22.9555  -97.8541   -5.6070 C   0  0  0  0  0  0  0  0  0  0  0  0
  -24.4937  -97.1091   -5.1923 Cl  0  0  0  0  0  0  0  0  0  0  0  0
  -22.8654  -99.1672   -5.9960 C   0  0  0  0  0  0  0  0  0  0  0  0
  -21.6417  -99.7169   -6.3135 C   0  0  0  0  0  0  0  0  0  0  0  0
  2  1  1  0
  1  5  2  0
  1 12  1  0
  3  2  2  0
  2 10  1  0
  3  4  1  0
  8  3  1  0
  4  9  2  0
  9  5  1  0
  6  7  1  6
  7  8  2  0
 10 11  2  0
 11 12  1  0
 13 12  1  6
 13 14  1  0
 13 15  1  0
 19 14  1  6
 15 16  1  1
 15 17  1  0
 17 18  1  1
 17 19  1  0
 19 20  1  0
 20 21  1  1
 20 22  1  0
 22 23  2  0
 22 28  1  0
 23 24  1  0
 24 25  2  0
 25 26  1  0
 25 27  1  0
 27 28  2  0
M  END
$$$$
