
     RDKit          3D

 28 31  0  0  0  0  0  0  0  0999 V2000
  -15.3445 -102.4292   -3.2571 C   0  0  0  0  0  0  0  0  0  0  0  0
  -14.0962 -102.3334   -3.8600 C   0  0  0  0  0  0  0  0  0  0  0  0
  -13.0931 -103.2298   -3.5181 C   0  0  0  0  0  0  0  0  0  0  0  0
  -13.3886 -104.1640   -2.6017 N   0  0  0  0  0  0  0  0  0  0  0  0
  -15.5442 -103.3927   -2.3559 N   0  0  0  0  0  0  0  0  0  0  0  0
   -9.5814 -103.7957   -4.5128 C   0  0  0  0  0  0  0  0  0  0  0  0
  -10.9067 -103.9220   -3.8836 C   0  0  0  0  0  0  0  0  0  0  0  0
  -11.8357 -103.0950   -4.1577 N   0  0  0  0  0  0  0  0  0  0  0  0
  -14.5906 -104.2718   -2.0081 C   0  0  0  0  0  0  0  0  0  0  0  0
  -14.1687 -101.2824   -4.7216 C   0  0  0  0  0  0  0  0  0  0  0  0
  -15.4308 -100.7736   -4.6262 C   0  0  0  0  0  0  0  0  0  0  0  0
  -16.1671 -101.4600   -3.7361 N   0  0  0  0  0  0  0  0  0  0  0  0
  -17.5231 -101.2346   -3.3608 C   0  0  2  0  0  0  0  0  0  0  0  0
  -18.3571 -101.0084   -4.4805 O   0  0  0  0  0  0  0  0  0  0  0  0
  -17.7241  -99.9776   -2.5556 C   0  0  2  0  0  0  0  0  0  0  0  0
  -17.6511 -100.2943   -1.1980 O   0  0  0  0  0  0  0  0  0  0  0  0
  -19.1648  -99.5931   -2.9205 C   0  0  2  0  0  0  0  0  0  0  0  0
  -19.9219  -99.5680   -1.7500 O   0  0  0  0  0  0  0  0  0  0  0  0
  -19.5633 -100.7347   -3.8189 C   0  0  1  0  0  0  0  0  0  0  0  0
  -20.6661 -100.3927   -4.7799 C   0  0  2  0  0  0  0  0  0  0  0  0
  -21.0073 -101.4237   -5.6166 O   0  0  0  0  0  0  0  0  0  0  0  0
  -20.3268  -99.1326   -5.4701 C   0  0  0  0  0  0  0  0  0  0  0  0
  -19.4512  -99.0520   -6.5344 C   0  0  0  0  0  0  0  0  0  0  0  0
  -19.1646  -97.8453   -7.1467 C   0  0  0  0  0  0  0  0  0  0  0  0
  -19.7346  -96.6831   -6.7258 C   0  0  0  0  0  0  0  0  0  0  0  0
  -19.3368  -95.1749   -7.5384 Cl  0  0  0  0  0  0  0  0  0  0  0  0
  -20.6097  -96.7306   -5.6696 C   0  0  0  0  0  0  0  0  0  0  0  0
  -20.8972  -97.9318   -5.0572 C   0  0  0  0  0  0  0  0  0  0  0  0
  2  1  1  0
  1  5  2  0
  1 12  1  0
  3  2  2  0
  2 10  1  0
  3  4  1  0
  8  3  1  0
  4  9  2  0
  9  5  1  0
  6  7  1  6
  7  8  2  0
 10 11  2  0
 11 12  1  0
 13 12  1  6
 13 14  1  0
 13 15  1  0
 19 14  1  6
 15 16  1  1
 15 17  1  0
 17 18  1  1
 17 19  1  0
 19 20  1  0
 20 21  1  6
 20 22  1  0
 22 23  2  0
 22 28  1  0
 23 24  1  0
 24 25  2  0
 25 26  1  0
 25 27  1  0
 27 28  2  0
M  END
$$$$
