
     RDKit          3D

 28 31  0  0  0  0  0  0  0  0999 V2000
  -15.1222 -102.5087   -3.6353 C   0  0  0  0  0  0  0  0  0  0  0  0
  -13.7537 -102.4326   -3.7619 C   0  0  0  0  0  0  0  0  0  0  0  0
  -12.9543 -103.4708   -3.3134 C   0  0  0  0  0  0  0  0  0  0  0  0
  -13.5270 -104.5472   -2.7564 N   0  0  0  0  0  0  0  0  0  0  0  0
  -15.6659 -103.5911   -3.0773 N   0  0  0  0  0  0  0  0  0  0  0  0
   -9.3868 -103.8902   -4.2760 C   0  0  0  0  0  0  0  0  0  0  0  0
  -10.8274 -104.2064   -4.0636 C   0  0  0  0  0  0  0  0  0  0  0  0
  -11.5518 -103.3168   -3.4798 N   0  0  0  0  0  0  0  0  0  0  0  0
  -14.8724 -104.5877   -2.6485 C   0  0  0  0  0  0  0  0  0  0  0  0
  -13.5127 -101.2155   -4.3650 C   0  0  0  0  0  0  0  0  0  0  0  0
  -14.7340 -100.6120   -4.5761 C   0  0  0  0  0  0  0  0  0  0  0  0
  -15.7045 -101.4156   -4.1246 N   0  0  0  0  0  0  0  0  0  0  0  0
  -17.1082 -101.0631   -4.2024 C   0  0  2  0  0  0  0  0  0  0  0  0
  -17.4676 -100.5837   -5.4591 O   0  0  0  0  0  0  0  0  0  0  0  0
  -17.4529  -99.8907   -3.3149 C   0  0  2  0  0  0  0  0  0  0  0  0
  -17.6404 -100.2729   -1.9910 O   0  0  0  0  0  0  0  0  0  0  0  0
  -18.7578  -99.4066   -3.9417 C   0  0  2  0  0  0  0  0  0  0  0  0
  -19.7908  -99.6839   -3.0562 O   0  0  0  0  0  0  0  0  0  0  0  0
  -18.8213 -100.2518   -5.1959 C   0  0  1  0  0  0  0  0  0  0  0  0
  -19.4297  -99.4438   -6.2996 C   0  0  2  0  0  0  0  0  0  0  0  0
  -18.6667  -98.3267   -6.6195 O   0  0  0  0  0  0  0  0  0  0  0  0
  -20.8330  -99.1749   -6.0075 C   0  0  0  0  0  0  0  0  0  0  0  0
  -21.2603  -98.0409   -5.3499 C   0  0  0  0  0  0  0  0  0  0  0  0
  -22.6011  -97.8642   -5.1080 C   0  0  0  0  0  0  0  0  0  0  0  0
  -23.5613  -98.7763   -5.4944 C   0  0  0  0  0  0  0  0  0  0  0  0
  -25.2729  -98.5389   -5.1792 Cl  0  0  0  0  0  0  0  0  0  0  0  0
  -23.1032  -99.9070   -6.1536 C   0  0  0  0  0  0  0  0  0  0  0  0
  -21.7801 -100.1189   -6.4125 C   0  0  0  0  0  0  0  0  0  0  0  0
  2  1  1  0
  1  5  2  0
  1 12  1  0
  3  2  2  0
  2 10  1  0
  3  4  1  0
  8  3  1  0
  4  9  2  0
  9  5  1  0
  7  6  1  0
  7  8  2  0
 10 11  2  0
 11 12  1  0
 13 12  1  6
 13 14  1  0
 13 15  1  0
 19 14  1  6
 15 16  1  1
 15 17  1  0
 17 18  1  1
 17 19  1  0
 19 20  1  0
 20 21  1  1
 20 22  1  0
 22 23  2  0
 22 28  1  0
 23 24  1  0
 24 25  2  0
 25 26  1  0
 25 27  1  0
 27 28  2  0
M  END
$$$$
