
     RDKit          3D

 28 31  0  0  0  0  0  0  0  0999 V2000
  -21.7690  -88.9974  -11.2716 C   0  0  0  0  0  0  0  0  0  0  0  0
  -22.9870  -88.5066  -10.8591 C   0  0  0  0  0  0  0  0  0  0  0  0
  -23.5526  -87.4179  -11.5015 C   0  0  0  0  0  0  0  0  0  0  0  0
  -22.9021  -86.8494  -12.5266 N   0  0  0  0  0  0  0  0  0  0  0  0
  -21.1433  -88.4129  -12.2941 N   0  0  0  0  0  0  0  0  0  0  0  0
  -26.2783  -85.7854   -9.5707 C   0  0  0  0  0  0  0  0  0  0  0  0
  -24.9148  -86.0774  -10.0963 C   0  0  0  0  0  0  0  0  0  0  0  0
  -24.8111  -86.9711  -11.0167 N   0  0  0  0  0  0  0  0  0  0  0  0
  -21.7094  -87.3574  -12.9042 C   0  0  0  0  0  0  0  0  0  0  0  0
  -23.3637  -89.3118   -9.8042 C   0  0  0  0  0  0  0  0  0  0  0  0
  -22.3672  -90.2473   -9.6245 C   0  0  0  0  0  0  0  0  0  0  0  0
  -21.4024  -90.0400  -10.5288 N   0  0  0  0  0  0  0  0  0  0  0  0
  -20.2111  -90.8624  -10.6006 C   0  0  2  0  0  0  0  0  0  0  0  0
  -20.5062  -92.2194  -10.6971 O   0  0  0  0  0  0  0  0  0  0  0  0
  -19.4044  -90.8121   -9.3247 C   0  0  2  0  0  0  0  0  0  0  0  0
  -18.5982  -89.6808   -9.2586 O   0  0  0  0  0  0  0  0  0  0  0  0
  -18.5670  -92.0828   -9.4427 C   0  0  2  0  0  0  0  0  0  0  0  0
  -17.2457  -91.7109   -9.6525 O   0  0  0  0  0  0  0  0  0  0  0  0
  -19.1878  -92.7411  -10.6562 C   0  0  1  0  0  0  0  0  0  0  0  0
  -19.1734  -94.2262  -10.4677 C   0  0  2  0  0  0  0  0  0  0  0  0
  -19.0531  -94.9108  -11.6716 O   0  0  0  0  0  0  0  0  0  0  0  0
  -20.2950  -94.6349   -9.6299 C   0  0  0  0  0  0  0  0  0  0  0  0
  -21.5518  -94.8983  -10.1319 C   0  0  0  0  0  0  0  0  0  0  0  0
  -22.5575  -95.2736   -9.2744 C   0  0  0  0  0  0  0  0  0  0  0  0
  -22.3752  -95.4038   -7.9132 C   0  0  0  0  0  0  0  0  0  0  0  0
  -23.6693  -95.8843   -6.8271 Cl  0  0  0  0  0  0  0  0  0  0  0  0
  -21.1016  -95.1328   -7.4362 C   0  0  0  0  0  0  0  0  0  0  0  0
  -20.0767  -94.7575   -8.2554 C   0  0  0  0  0  0  0  0  0  0  0  0
  2  1  1  0
  1  5  2  0
  1 12  1  0
  3  2  2  0
  2 10  1  0
  3  4  1  0
  8  3  1  0
  4  9  2  0
  9  5  1  0
  7  6  1  0
  7  8  2  0
 10 11  2  0
 11 12  1  0
 13 12  1  1
 13 14  1  0
 13 15  1  0
 19 14  1  1
 15 16  1  6
 15 17  1  0
 17 18  1  6
 17 19  1  0
 19 20  1  0
 20 21  1  6
 20 22  1  0
 22 23  2  0
 22 28  1  0
 23 24  1  0
 24 25  2  0
 25 26  1  0
 25 27  1  0
 27 28  2  0
M  END
$$$$
