
     RDKit          3D

 28 31  0  0  0  0  0  0  0  0999 V2000
  -15.2295 -102.8304   -3.5063 C   0  0  0  0  0  0  0  0  0  0  0  0
  -13.8461 -102.8835   -3.6257 C   0  0  0  0  0  0  0  0  0  0  0  0
  -13.1445 -103.9430   -3.0675 C   0  0  0  0  0  0  0  0  0  0  0  0
  -13.8558 -104.8827   -2.4267 N   0  0  0  0  0  0  0  0  0  0  0  0
  -15.8501 -103.8126   -2.8500 N   0  0  0  0  0  0  0  0  0  0  0  0
   -9.7191 -103.0918   -4.1557 C   0  0  0  0  0  0  0  0  0  0  0  0
  -11.1791 -103.0904   -3.9638 C   0  0  0  0  0  0  0  0  0  0  0  0
  -11.7349 -103.9564   -3.2134 N   0  0  0  0  0  0  0  0  0  0  0  0
  -15.1944 -104.8480   -2.3012 C   0  0  0  0  0  0  0  0  0  0  0  0
  -13.4816 -101.7766   -4.3287 C   0  0  0  0  0  0  0  0  0  0  0  0
  -14.6252 -101.0903   -4.6150 C   0  0  0  0  0  0  0  0  0  0  0  0
  -15.7063 -101.7170   -4.1213 N   0  0  0  0  0  0  0  0  0  0  0  0
  -17.0704 -101.3152   -4.2129 C   0  0  2  0  0  0  0  0  0  0  0  0
  -17.4270 -100.9295   -5.5260 O   0  0  0  0  0  0  0  0  0  0  0  0
  -17.3872 -100.0743   -3.4200 C   0  0  2  0  0  0  0  0  0  0  0  0
  -17.8317 -100.4502   -2.1512 O   0  0  0  0  0  0  0  0  0  0  0  0
  -18.5521  -99.4746   -4.2198 C   0  0  2  0  0  0  0  0  0  0  0  0
  -19.6615  -99.3869   -3.3799 O   0  0  0  0  0  0  0  0  0  0  0  0
  -18.7461 -100.5123   -5.2944 C   0  0  1  0  0  0  0  0  0  0  0  0
  -19.3940  -99.9798   -6.5408 C   0  0  2  0  0  0  0  0  0  0  0  0
  -18.5428  -99.2620   -7.3405 O   0  0  0  0  0  0  0  0  0  0  0  0
  -20.6317  -99.2656   -6.1700 C   0  0  0  0  0  0  0  0  0  0  0  0
  -21.8826  -99.8495   -6.1644 C   0  0  0  0  0  0  0  0  0  0  0  0
  -23.0133  -99.1360   -5.8102 C   0  0  0  0  0  0  0  0  0  0  0  0
  -22.9415  -97.8250   -5.4512 C   0  0  0  0  0  0  0  0  0  0  0  0
  -24.4091  -96.9624   -5.0093 Cl  0  0  0  0  0  0  0  0  0  0  0  0
  -21.7115  -97.2162   -5.4468 C   0  0  0  0  0  0  0  0  0  0  0  0
  -20.5826  -97.9247   -5.7994 C   0  0  0  0  0  0  0  0  0  0  0  0
  2  1  1  0
  1  5  2  0
  1 12  1  0
  3  2  2  0
  2 10  1  0
  3  4  1  0
  8  3  1  0
  4  9  2  0
  9  5  1  0
  6  7  1  6
  7  8  2  0
 10 11  2  0
 11 12  1  0
 13 12  1  6
 13 14  1  0
 13 15  1  0
 19 14  1  6
 15 16  1  1
 15 17  1  0
 17 18  1  1
 17 19  1  0
 19 20  1  0
 20 21  1  1
 20 22  1  0
 22 23  2  0
 22 28  1  0
 23 24  1  0
 24 25  2  0
 25 26  1  0
 25 27  1  0
 27 28  2  0
M  END
$$$$
