
     RDKit          3D

 28 31  0  0  0  0  0  0  0  0999 V2000
  -15.3559 -102.6725   -3.0186 C   0  0  0  0  0  0  0  0  0  0  0  0
  -14.0841 -102.6190   -3.5422 C   0  0  0  0  0  0  0  0  0  0  0  0
  -13.1441 -103.5717   -3.1863 C   0  0  0  0  0  0  0  0  0  0  0  0
  -13.4862 -104.5435   -2.3287 N   0  0  0  0  0  0  0  0  0  0  0  0
  -15.6697 -103.6501   -2.1675 N   0  0  0  0  0  0  0  0  0  0  0  0
  -10.3457 -102.8482   -5.5054 C   0  0  0  0  0  0  0  0  0  0  0  0
  -11.6203 -102.6569   -4.7576 C   0  0  0  0  0  0  0  0  0  0  0  0
  -11.8544 -103.4477   -3.7693 N   0  0  0  0  0  0  0  0  0  0  0  0
  -14.7428 -104.5650   -1.8350 C   0  0  0  0  0  0  0  0  0  0  0  0
  -14.0792 -101.5155   -4.3701 C   0  0  0  0  0  0  0  0  0  0  0  0
  -15.3365 -100.9530   -4.3132 C   0  0  0  0  0  0  0  0  0  0  0  0
  -16.1020 -101.6723   -3.4837 N   0  0  0  0  0  0  0  0  0  0  0  0
  -17.4849 -101.3359   -3.2098 C   0  0  2  0  0  0  0  0  0  0  0  0
  -18.2494 -101.2413   -4.3695 O   0  0  0  0  0  0  0  0  0  0  0  0
  -17.6314  -99.9492   -2.6297 C   0  0  2  0  0  0  0  0  0  0  0  0
  -17.3727  -99.9225   -1.2636 O   0  0  0  0  0  0  0  0  0  0  0  0
  -19.0996  -99.6499   -2.9213 C   0  0  2  0  0  0  0  0  0  0  0  0
  -19.7856  -99.6383   -1.7141 O   0  0  0  0  0  0  0  0  0  0  0  0
  -19.4785 -100.8251   -3.7969 C   0  0  1  0  0  0  0  0  0  0  0  0
  -20.4580 -100.3675   -4.8324 C   0  0  2  0  0  0  0  0  0  0  0  0
  -20.7901 -101.3769   -5.7286 O   0  0  0  0  0  0  0  0  0  0  0  0
  -19.9991  -99.1235   -5.4397 C   0  0  0  0  0  0  0  0  0  0  0  0
  -19.0372  -99.0785   -6.4264 C   0  0  0  0  0  0  0  0  0  0  0  0
  -18.6556  -97.8643   -6.9438 C   0  0  0  0  0  0  0  0  0  0  0  0
  -19.1923  -96.6654   -6.5224 C   0  0  0  0  0  0  0  0  0  0  0  0
  -18.6959  -95.1192   -7.1919 Cl  0  0  0  0  0  0  0  0  0  0  0  0
  -20.1573  -96.7407   -5.5294 C   0  0  0  0  0  0  0  0  0  0  0  0
  -20.5631  -97.9269   -4.9902 C   0  0  0  0  0  0  0  0  0  0  0  0
  2  1  1  0
  1  5  2  0
  1 12  1  0
  3  2  2  0
  2 10  1  0
  3  4  1  0
  8  3  1  0
  4  9  2  0
  9  5  1  0
  7  6  1  0
  7  8  2  0
 10 11  2  0
 11 12  1  0
 13 12  1  6
 13 14  1  0
 13 15  1  0
 19 14  1  6
 15 16  1  1
 15 17  1  0
 17 18  1  1
 17 19  1  0
 19 20  1  0
 20 21  1  6
 20 22  1  0
 22 23  2  0
 22 28  1  0
 23 24  1  0
 24 25  2  0
 25 26  1  0
 25 27  1  0
 27 28  2  0
M  END
$$$$
