
     RDKit          3D

 28 31  0  0  0  0  0  0  0  0999 V2000
  -15.0558 -102.6072   -3.4014 C   0  0  0  0  0  0  0  0  0  0  0  0
  -13.6817 -102.5586   -3.3371 C   0  0  0  0  0  0  0  0  0  0  0  0
  -12.9657 -103.6615   -2.9027 C   0  0  0  0  0  0  0  0  0  0  0  0
  -13.6243 -104.7735   -2.5466 N   0  0  0  0  0  0  0  0  0  0  0  0
  -15.6858 -103.7261   -3.0412 N   0  0  0  0  0  0  0  0  0  0  0  0
   -9.4018 -103.3999   -3.8704 C   0  0  0  0  0  0  0  0  0  0  0  0
  -10.8002 -103.9137   -3.8379 C   0  0  0  0  0  0  0  0  0  0  0  0
  -11.5513 -103.5323   -2.8646 N   0  0  0  0  0  0  0  0  0  0  0  0
  -14.9724 -104.7854   -2.6224 C   0  0  0  0  0  0  0  0  0  0  0  0
  -13.3434 -101.2922   -3.7671 C   0  0  0  0  0  0  0  0  0  0  0  0
  -14.5160 -100.6339   -4.0706 C   0  0  0  0  0  0  0  0  0  0  0  0
  -15.5504 -101.4518   -3.8414 N   0  0  0  0  0  0  0  0  0  0  0  0
  -16.9254 -101.0517   -4.0652 C   0  0  2  0  0  0  0  0  0  0  0  0
  -17.1466 -100.6122   -5.3675 O   0  0  0  0  0  0  0  0  0  0  0  0
  -17.3037  -99.8316   -3.2594 C   0  0  2  0  0  0  0  0  0  0  0  0
  -17.6290 -100.1513   -1.9457 O   0  0  0  0  0  0  0  0  0  0  0  0
  -18.5239  -99.3266   -4.0249 C   0  0  2  0  0  0  0  0  0  0  0  0
  -19.6452  -99.5289   -3.2313 O   0  0  0  0  0  0  0  0  0  0  0  0
  -18.5044 -100.2203   -5.2465 C   0  0  1  0  0  0  0  0  0  0  0  0
  -18.9743  -99.4373   -6.4327 C   0  0  2  0  0  0  0  0  0  0  0  0
  -18.0614  -98.4624   -6.8180 O   0  0  0  0  0  0  0  0  0  0  0  0
  -20.3349  -98.9614   -6.2107 C   0  0  0  0  0  0  0  0  0  0  0  0
  -21.4428  -99.7751   -6.3165 C   0  0  0  0  0  0  0  0  0  0  0  0
  -22.6924  -99.2481   -6.0968 C   0  0  0  0  0  0  0  0  0  0  0  0
  -22.9032  -97.9246   -5.7699 C   0  0  0  0  0  0  0  0  0  0  0  0
  -24.5061  -97.2626   -5.4914 Cl  0  0  0  0  0  0  0  0  0  0  0  0
  -21.7714  -97.1297   -5.6703 C   0  0  0  0  0  0  0  0  0  0  0  0
  -20.5136  -97.6155   -5.8810 C   0  0  0  0  0  0  0  0  0  0  0  0
  2  1  1  0
  1  5  2  0
  1 12  1  0
  3  2  2  0
  2 10  1  0
  3  4  1  0
  8  3  1  0
  4  9  2  0
  9  5  1  0
  7  6  1  0
  7  8  2  0
 10 11  2  0
 11 12  1  0
 13 12  1  6
 13 14  1  0
 13 15  1  0
 19 14  1  6
 15 16  1  1
 15 17  1  0
 17 18  1  1
 17 19  1  0
 19 20  1  0
 20 21  1  1
 20 22  1  0
 22 23  2  0
 22 28  1  0
 23 24  1  0
 24 25  2  0
 25 26  1  0
 25 27  1  0
 27 28  2  0
M  END
$$$$
