
     RDKit          3D

 28 31  0  0  0  0  0  0  0  0999 V2000
  -14.9391 -102.8117   -3.5803 C   0  0  0  0  0  0  0  0  0  0  0  0
  -13.5721 -102.9166   -3.8071 C   0  0  0  0  0  0  0  0  0  0  0  0
  -12.8555 -103.9608   -3.2390 C   0  0  0  0  0  0  0  0  0  0  0  0
  -13.5365 -104.8348   -2.4827 N   0  0  0  0  0  0  0  0  0  0  0  0
  -15.5295 -103.7300   -2.8130 N   0  0  0  0  0  0  0  0  0  0  0  0
   -9.3038 -103.0183   -3.6111 C   0  0  0  0  0  0  0  0  0  0  0  0
  -10.7476 -102.9898   -3.3232 C   0  0  0  0  0  0  0  0  0  0  0  0
  -11.4637 -104.0286   -3.4969 N   0  0  0  0  0  0  0  0  0  0  0  0
  -14.8588 -104.7492   -2.2522 C   0  0  0  0  0  0  0  0  0  0  0  0
  -13.2373 -101.8686   -4.6083 C   0  0  0  0  0  0  0  0  0  0  0  0
  -14.3818 -101.1654   -4.8458 C   0  0  0  0  0  0  0  0  0  0  0  0
  -15.4350 -101.7246   -4.2265 N   0  0  0  0  0  0  0  0  0  0  0  0
  -16.7906 -101.2859   -4.2339 C   0  0  2  0  0  0  0  0  0  0  0  0
  -17.2608 -101.0249   -5.5420 O   0  0  0  0  0  0  0  0  0  0  0  0
  -16.9980  -99.9593   -3.5511 C   0  0  2  0  0  0  0  0  0  0  0  0
  -17.3290 -100.1864   -2.2140 O   0  0  0  0  0  0  0  0  0  0  0  0
  -18.2180  -99.4038   -4.2990 C   0  0  2  0  0  0  0  0  0  0  0  0
  -19.2395  -99.1905   -3.3744 O   0  0  0  0  0  0  0  0  0  0  0  0
  -18.5405 -100.5391   -5.2352 C   0  0  1  0  0  0  0  0  0  0  0  0
  -19.2904 -100.1149   -6.4659 C   0  0  2  0  0  0  0  0  0  0  0  0
  -18.4797  -99.6814   -7.4829 O   0  0  0  0  0  0  0  0  0  0  0  0
  -20.3472  -99.1600   -6.0779 C   0  0  0  0  0  0  0  0  0  0  0  0
  -21.6569  -99.5218   -5.8340 C   0  0  0  0  0  0  0  0  0  0  0  0
  -22.6114  -98.5875   -5.4744 C   0  0  0  0  0  0  0  0  0  0  0  0
  -22.3001  -97.2688   -5.3451 C   0  0  0  0  0  0  0  0  0  0  0  0
  -23.5507  -96.1207   -4.8854 Cl  0  0  0  0  0  0  0  0  0  0  0  0
  -21.0058  -96.8777   -5.5809 C   0  0  0  0  0  0  0  0  0  0  0  0
  -20.0523  -97.8066   -5.9396 C   0  0  0  0  0  0  0  0  0  0  0  0
  2  1  1  0
  1  5  2  0
  1 12  1  0
  3  2  2  0
  2 10  1  0
  3  4  1  0
  8  3  1  0
  4  9  2  0
  9  5  1  0
  6  7  1  6
  7  8  2  0
 10 11  2  0
 11 12  1  0
 13 12  1  6
 13 14  1  0
 13 15  1  0
 19 14  1  6
 15 16  1  1
 15 17  1  0
 17 18  1  1
 17 19  1  0
 19 20  1  0
 20 21  1  6
 20 22  1  0
 22 23  2  0
 22 28  1  0
 23 24  1  0
 24 25  2  0
 25 26  1  0
 25 27  1  0
 27 28  2  0
M  END
$$$$
