
     RDKit          3D

 28 31  0  0  0  0  0  0  0  0999 V2000
  -15.0499 -102.6618   -3.8070 C   0  0  0  0  0  0  0  0  0  0  0  0
  -13.7407 -102.8601   -4.2285 C   0  0  0  0  0  0  0  0  0  0  0  0
  -12.8946 -103.6789   -3.4935 C   0  0  0  0  0  0  0  0  0  0  0  0
  -13.3973 -104.2495   -2.3883 N   0  0  0  0  0  0  0  0  0  0  0  0
  -15.4598 -103.2725   -2.6937 N   0  0  0  0  0  0  0  0  0  0  0  0
   -9.2111 -103.6678   -3.6281 C   0  0  0  0  0  0  0  0  0  0  0  0
  -10.5997 -103.7297   -3.1420 C   0  0  0  0  0  0  0  0  0  0  0  0
  -11.5678 -103.8526   -3.9602 N   0  0  0  0  0  0  0  0  0  0  0  0
  -14.6611 -104.0691   -1.9652 C   0  0  0  0  0  0  0  0  0  0  0  0
  -13.5934 -102.1327   -5.3694 C   0  0  0  0  0  0  0  0  0  0  0  0
  -14.7889 -101.5219   -5.6112 C   0  0  0  0  0  0  0  0  0  0  0  0
  -15.6942 -101.8317   -4.6679 N   0  0  0  0  0  0  0  0  0  0  0  0
  -17.0466 -101.3931   -4.5734 C   0  0  2  0  0  0  0  0  0  0  0  0
  -17.5705 -101.0015   -5.8274 O   0  0  0  0  0  0  0  0  0  0  0  0
  -17.2179 -100.1417   -3.7525 C   0  0  2  0  0  0  0  0  0  0  0  0
  -17.4930 -100.5017   -2.4321 O   0  0  0  0  0  0  0  0  0  0  0  0
  -18.4656  -99.5127   -4.3882 C   0  0  2  0  0  0  0  0  0  0  0  0
  -19.4458  -99.3924   -3.4040 O   0  0  0  0  0  0  0  0  0  0  0  0
  -18.8334 -100.5478   -5.4190 C   0  0  1  0  0  0  0  0  0  0  0  0
  -19.6326 -100.0013   -6.5676 C   0  0  2  0  0  0  0  0  0  0  0  0
  -18.8663  -99.6086   -7.6344 O   0  0  0  0  0  0  0  0  0  0  0  0
  -20.5520  -98.9633   -6.0610 C   0  0  0  0  0  0  0  0  0  0  0  0
  -20.1820  -97.6519   -5.8394 C   0  0  0  0  0  0  0  0  0  0  0  0
  -21.0818  -96.7165   -5.3615 C   0  0  0  0  0  0  0  0  0  0  0  0
  -22.3732  -97.0489   -5.0887 C   0  0  0  0  0  0  0  0  0  0  0  0
  -23.4780  -95.8219   -4.4827 Cl  0  0  0  0  0  0  0  0  0  0  0  0
  -22.7716  -98.3453   -5.2990 C   0  0  0  0  0  0  0  0  0  0  0  0
  -21.8770  -99.2800   -5.7752 C   0  0  0  0  0  0  0  0  0  0  0  0
  2  1  1  0
  1  5  2  0
  1 12  1  0
  3  2  2  0
  2 10  1  0
  3  4  1  0
  8  3  1  0
  4  9  2  0
  9  5  1  0
  6  7  1  6
  7  8  2  0
 10 11  2  0
 11 12  1  0
 13 12  1  6
 13 14  1  0
 13 15  1  0
 19 14  1  6
 15 16  1  1
 15 17  1  0
 17 18  1  1
 17 19  1  0
 19 20  1  0
 20 21  1  6
 20 22  1  0
 22 23  2  0
 22 28  1  0
 23 24  1  0
 24 25  2  0
 25 26  1  0
 25 27  1  0
 27 28  2  0
M  END
$$$$
