
     RDKit          3D

 28 31  0  0  0  0  0  0  0  0999 V2000
  -15.4381 -102.7210   -3.1420 C   0  0  0  0  0  0  0  0  0  0  0  0
  -14.1496 -102.6180   -3.6150 C   0  0  0  0  0  0  0  0  0  0  0  0
  -13.2103 -103.5831   -3.2925 C   0  0  0  0  0  0  0  0  0  0  0  0
  -13.5695 -104.6157   -2.5168 N   0  0  0  0  0  0  0  0  0  0  0  0
  -15.7686 -103.7586   -2.3721 N   0  0  0  0  0  0  0  0  0  0  0  0
  -10.3754 -103.1729   -5.6255 C   0  0  0  0  0  0  0  0  0  0  0  0
  -11.6947 -102.9047   -4.9866 C   0  0  0  0  0  0  0  0  0  0  0  0
  -11.9029 -103.4055   -3.8193 N   0  0  0  0  0  0  0  0  0  0  0  0
  -14.8421 -104.6846   -2.0708 C   0  0  0  0  0  0  0  0  0  0  0  0
  -14.1302 -101.4596   -4.3641 C   0  0  0  0  0  0  0  0  0  0  0  0
  -15.3959 -100.9157   -4.3134 C   0  0  0  0  0  0  0  0  0  0  0  0
  -16.1804 -101.6989   -3.5633 N   0  0  0  0  0  0  0  0  0  0  0  0
  -17.5763 -101.3968   -3.3163 C   0  0  2  0  0  0  0  0  0  0  0  0
  -18.3223 -101.3310   -4.4898 O   0  0  0  0  0  0  0  0  0  0  0  0
  -17.7691 -100.0100   -2.7499 C   0  0  2  0  0  0  0  0  0  0  0  0
  -17.5354  -99.9663   -1.3797 O   0  0  0  0  0  0  0  0  0  0  0  0
  -19.2392  -99.7516   -3.0694 C   0  0  2  0  0  0  0  0  0  0  0  0
  -19.9465  -99.7489   -1.8746 O   0  0  0  0  0  0  0  0  0  0  0  0
  -19.5718 -100.9429   -3.9421 C   0  0  1  0  0  0  0  0  0  0  0  0
  -20.5445 -100.5190   -4.9981 C   0  0  2  0  0  0  0  0  0  0  0  0
  -20.7035 -101.4822   -5.9878 O   0  0  0  0  0  0  0  0  0  0  0  0
  -20.2100  -99.1834   -5.4790 C   0  0  0  0  0  0  0  0  0  0  0  0
  -20.8370  -98.0421   -5.0261 C   0  0  0  0  0  0  0  0  0  0  0  0
  -20.4671  -96.8204   -5.5340 C   0  0  0  0  0  0  0  0  0  0  0  0
  -19.4842  -96.6702   -6.4902 C   0  0  0  0  0  0  0  0  0  0  0  0
  -19.0202  -95.1023   -7.1319 Cl  0  0  0  0  0  0  0  0  0  0  0  0
  -18.8707  -97.8344   -6.9273 C   0  0  0  0  0  0  0  0  0  0  0  0
  -19.2098  -99.0662   -6.4475 C   0  0  0  0  0  0  0  0  0  0  0  0
  2  1  1  0
  1  5  2  0
  1 12  1  0
  3  2  2  0
  2 10  1  0
  3  4  1  0
  8  3  1  0
  4  9  2  0
  9  5  1  0
  7  6  1  0
  7  8  2  0
 10 11  2  0
 11 12  1  0
 13 12  1  6
 13 14  1  0
 13 15  1  0
 19 14  1  6
 15 16  1  1
 15 17  1  0
 17 18  1  1
 17 19  1  0
 19 20  1  0
 20 21  1  6
 20 22  1  0
 22 23  2  0
 22 28  1  0
 23 24  1  0
 24 25  2  0
 25 26  1  0
 25 27  1  0
 27 28  2  0
M  END
$$$$
