
     RDKit          3D

 28 31  0  0  0  0  0  0  0  0999 V2000
  -15.0629 -102.9204   -3.5196 C   0  0  0  0  0  0  0  0  0  0  0  0
  -13.6825 -103.0047   -3.6551 C   0  0  0  0  0  0  0  0  0  0  0  0
  -12.9952 -104.0649   -3.0805 C   0  0  0  0  0  0  0  0  0  0  0  0
  -13.7170 -104.9744   -2.4084 N   0  0  0  0  0  0  0  0  0  0  0  0
  -15.6946 -103.8738   -2.8322 N   0  0  0  0  0  0  0  0  0  0  0  0
   -9.5449 -103.1915   -4.0675 C   0  0  0  0  0  0  0  0  0  0  0  0
  -11.0029 -103.1643   -3.8631 C   0  0  0  0  0  0  0  0  0  0  0  0
  -11.5882 -104.1107   -3.2437 N   0  0  0  0  0  0  0  0  0  0  0  0
  -15.0529 -104.9091   -2.2671 C   0  0  0  0  0  0  0  0  0  0  0  0
  -13.3048 -101.9225   -4.3889 C   0  0  0  0  0  0  0  0  0  0  0  0
  -14.4380 -101.2198   -4.6772 C   0  0  0  0  0  0  0  0  0  0  0  0
  -15.5251 -101.8123   -4.1551 N   0  0  0  0  0  0  0  0  0  0  0  0
  -16.8817 -101.3849   -4.2392 C   0  0  2  0  0  0  0  0  0  0  0  0
  -17.2724 -101.1048   -5.5693 O   0  0  0  0  0  0  0  0  0  0  0  0
  -17.1436 -100.0725   -3.5478 C   0  0  2  0  0  0  0  0  0  0  0  0
  -17.5546 -100.3260   -2.2380 O   0  0  0  0  0  0  0  0  0  0  0  0
  -18.3202  -99.5141   -4.3605 C   0  0  2  0  0  0  0  0  0  0  0  0
  -19.3990  -99.3259   -3.4975 O   0  0  0  0  0  0  0  0  0  0  0  0
  -18.5732 -100.6353   -5.3343 C   0  0  1  0  0  0  0  0  0  0  0  0
  -19.2494 -100.1957   -6.6016 C   0  0  2  0  0  0  0  0  0  0  0  0
  -18.3883  -99.6792   -7.5349 O   0  0  0  0  0  0  0  0  0  0  0  0
  -20.3811  -99.3116   -6.2593 C   0  0  0  0  0  0  0  0  0  0  0  0
  -21.6579  -99.7658   -5.9963 C   0  0  0  0  0  0  0  0  0  0  0  0
  -22.6857  -98.8955   -5.6815 C   0  0  0  0  0  0  0  0  0  0  0  0
  -22.4824  -97.5511   -5.6172 C   0  0  0  0  0  0  0  0  0  0  0  0
  -23.8230  -96.4869   -5.2126 Cl  0  0  0  0  0  0  0  0  0  0  0  0
  -21.2234  -97.0686   -5.8736 C   0  0  0  0  0  0  0  0  0  0  0  0
  -20.1969  -97.9337   -6.1877 C   0  0  0  0  0  0  0  0  0  0  0  0
  2  1  1  0
  1  5  2  0
  1 12  1  0
  3  2  2  0
  2 10  1  0
  3  4  1  0
  8  3  1  0
  4  9  2  0
  9  5  1  0
  6  7  1  6
  7  8  2  0
 10 11  2  0
 11 12  1  0
 13 12  1  6
 13 14  1  0
 13 15  1  0
 19 14  1  6
 15 16  1  1
 15 17  1  0
 17 18  1  1
 17 19  1  0
 19 20  1  0
 20 21  1  6
 20 22  1  0
 22 23  2  0
 22 28  1  0
 23 24  1  0
 24 25  2  0
 25 26  1  0
 25 27  1  0
 27 28  2  0
M  END
$$$$
