
     RDKit          3D

 28 31  0  0  0  0  0  0  0  0999 V2000
  -15.0636 -102.6134   -3.5741 C   0  0  0  0  0  0  0  0  0  0  0  0
  -13.6994 -102.7125   -3.8193 C   0  0  0  0  0  0  0  0  0  0  0  0
  -12.9677 -103.7443   -3.2478 C   0  0  0  0  0  0  0  0  0  0  0  0
  -13.6319 -104.6125   -2.4701 N   0  0  0  0  0  0  0  0  0  0  0  0
  -15.6368 -103.5252   -2.7862 N   0  0  0  0  0  0  0  0  0  0  0  0
   -9.4187 -102.7974   -3.6351 C   0  0  0  0  0  0  0  0  0  0  0  0
  -10.8625 -102.7690   -3.3472 C   0  0  0  0  0  0  0  0  0  0  0  0
  -11.5793 -103.8066   -3.5250 N   0  0  0  0  0  0  0  0  0  0  0  0
  -14.9513 -104.5324   -2.2217 C   0  0  0  0  0  0  0  0  0  0  0  0
  -13.3832 -101.6732   -4.6392 C   0  0  0  0  0  0  0  0  0  0  0  0
  -14.5356 -100.9806   -4.8694 C   0  0  0  0  0  0  0  0  0  0  0  0
  -15.5760 -101.5383   -4.2275 N   0  0  0  0  0  0  0  0  0  0  0  0
  -16.9345 -101.1085   -4.2211 C   0  0  2  0  0  0  0  0  0  0  0  0
  -17.4368 -100.9046   -5.5274 O   0  0  0  0  0  0  0  0  0  0  0  0
  -17.1353  -99.7561   -3.5887 C   0  0  2  0  0  0  0  0  0  0  0  0
  -17.4335  -99.9298   -2.2361 O   0  0  0  0  0  0  0  0  0  0  0  0
  -18.3762  -99.2395   -4.3300 C   0  0  2  0  0  0  0  0  0  0  0  0
  -19.3774  -98.9943   -3.3912 O   0  0  0  0  0  0  0  0  0  0  0  0
  -18.7124 -100.4144   -5.2108 C   0  0  1  0  0  0  0  0  0  0  0  0
  -19.4937 -100.0460   -6.4399 C   0  0  2  0  0  0  0  0  0  0  0  0
  -18.7085  -99.6834   -7.5037 O   0  0  0  0  0  0  0  0  0  0  0  0
  -20.5228  -99.0529   -6.0739 C   0  0  0  0  0  0  0  0  0  0  0  0
  -21.8215  -99.3808   -5.7395 C   0  0  0  0  0  0  0  0  0  0  0  0
  -22.7499  -98.4116   -5.4052 C   0  0  0  0  0  0  0  0  0  0  0  0
  -22.4229  -97.0904   -5.3914 C   0  0  0  0  0  0  0  0  0  0  0  0
  -23.6406  -95.8972   -4.9592 Cl  0  0  0  0  0  0  0  0  0  0  0  0
  -21.1391  -96.7326   -5.7193 C   0  0  0  0  0  0  0  0  0  0  0  0
  -20.2114  -97.6963   -6.0529 C   0  0  0  0  0  0  0  0  0  0  0  0
  2  1  1  0
  1  5  2  0
  1 12  1  0
  3  2  2  0
  2 10  1  0
  3  4  1  0
  8  3  1  0
  4  9  2  0
  9  5  1  0
  6  7  1  6
  7  8  2  0
 10 11  2  0
 11 12  1  0
 13 12  1  6
 13 14  1  0
 13 15  1  0
 19 14  1  6
 15 16  1  1
 15 17  1  0
 17 18  1  1
 17 19  1  0
 19 20  1  0
 20 21  1  6
 20 22  1  0
 22 23  2  0
 22 28  1  0
 23 24  1  0
 24 25  2  0
 25 26  1  0
 25 27  1  0
 27 28  2  0
M  END
$$$$
