
     RDKit          3D

 28 31  0  0  0  0  0  0  0  0999 V2000
  -15.2330 -102.7169   -3.3357 C   0  0  0  0  0  0  0  0  0  0  0  0
  -14.0070 -102.7414   -3.9609 C   0  0  0  0  0  0  0  0  0  0  0  0
  -13.0560 -103.6781   -3.5920 C   0  0  0  0  0  0  0  0  0  0  0  0
  -13.3424 -104.5578   -2.6220 N   0  0  0  0  0  0  0  0  0  0  0  0
  -15.4918 -103.6036   -2.3737 N   0  0  0  0  0  0  0  0  0  0  0  0
   -9.5668 -102.9742   -4.6715 C   0  0  0  0  0  0  0  0  0  0  0  0
  -10.7915 -103.0101   -3.8233 C   0  0  0  0  0  0  0  0  0  0  0  0
  -11.8160 -103.6384   -4.2843 N   0  0  0  0  0  0  0  0  0  0  0  0
  -14.5551 -104.5045   -2.0306 C   0  0  0  0  0  0  0  0  0  0  0  0
  -14.0522 -101.7201   -4.8873 C   0  0  0  0  0  0  0  0  0  0  0  0
  -15.2921 -101.1262   -4.7846 C   0  0  0  0  0  0  0  0  0  0  0  0
  -15.9988 -101.7476   -3.8328 N   0  0  0  0  0  0  0  0  0  0  0  0
  -17.3498 -101.3556   -3.4834 C   0  0  2  0  0  0  0  0  0  0  0  0
  -18.1940 -101.3115   -4.5894 O   0  0  0  0  0  0  0  0  0  0  0  0
  -17.4205  -99.9319   -2.9844 C   0  0  2  0  0  0  0  0  0  0  0  0
  -17.0626  -99.8278   -1.6446 O   0  0  0  0  0  0  0  0  0  0  0  0
  -18.8984  -99.6097   -3.1894 C   0  0  2  0  0  0  0  0  0  0  0  0
  -19.4943  -99.5036   -1.9397 O   0  0  0  0  0  0  0  0  0  0  0  0
  -19.3680 -100.8258   -3.9587 C   0  0  1  0  0  0  0  0  0  0  0  0
  -20.4090 -100.4058   -4.9492 C   0  0  2  0  0  0  0  0  0  0  0  0
  -20.7075 -101.4116   -5.8611 O   0  0  0  0  0  0  0  0  0  0  0  0
  -20.0501  -99.1204   -5.5373 C   0  0  0  0  0  0  0  0  0  0  0  0
  -19.1404  -98.9915   -6.5653 C   0  0  0  0  0  0  0  0  0  0  0  0
  -18.8525  -97.7430   -7.0610 C   0  0  0  0  0  0  0  0  0  0  0  0
  -19.4348  -96.5896   -6.5775 C   0  0  0  0  0  0  0  0  0  0  0  0
  -19.0583  -94.9987   -7.2199 Cl  0  0  0  0  0  0  0  0  0  0  0  0
  -20.3456  -96.7490   -5.5441 C   0  0  0  0  0  0  0  0  0  0  0  0
  -20.6581  -97.9716   -5.0246 C   0  0  0  0  0  0  0  0  0  0  0  0
  2  1  1  0
  1  5  2  0
  1 12  1  0
  3  2  2  0
  2 10  1  0
  3  4  1  0
  8  3  1  0
  4  9  2  0
  9  5  1  0
  7  6  1  0
  7  8  2  0
 10 11  2  0
 11 12  1  0
 13 12  1  6
 13 14  1  0
 13 15  1  0
 19 14  1  6
 15 16  1  1
 15 17  1  0
 17 18  1  1
 17 19  1  0
 19 20  1  0
 20 21  1  6
 20 22  1  0
 22 23  2  0
 22 28  1  0
 23 24  1  0
 24 25  2  0
 25 26  1  0
 25 27  1  0
 27 28  2  0
M  END
$$$$
