
     RDKit          3D

 28 31  0  0  0  0  0  0  0  0999 V2000
  -15.2298 -102.6663   -3.4894 C   0  0  0  0  0  0  0  0  0  0  0  0
  -13.8537 -102.6572   -3.5204 C   0  0  0  0  0  0  0  0  0  0  0  0
  -13.1400 -103.7568   -3.0740 C   0  0  0  0  0  0  0  0  0  0  0  0
  -13.8029 -104.8268   -2.6126 N   0  0  0  0  0  0  0  0  0  0  0  0
  -15.8640 -103.7438   -3.0254 N   0  0  0  0  0  0  0  0  0  0  0  0
   -9.6217 -103.4507   -4.2267 C   0  0  0  0  0  0  0  0  0  0  0  0
  -11.1052 -103.3107   -4.2087 C   0  0  0  0  0  0  0  0  0  0  0  0
  -11.7234 -103.6699   -3.1384 N   0  0  0  0  0  0  0  0  0  0  0  0
  -15.1528 -104.8007   -2.5968 C   0  0  0  0  0  0  0  0  0  0  0  0
  -13.5112 -101.4270   -4.0426 C   0  0  0  0  0  0  0  0  0  0  0  0
  -14.6834 -100.7498   -4.3030 C   0  0  0  0  0  0  0  0  0  0  0  0
  -15.7216 -101.5215   -3.9592 N   0  0  0  0  0  0  0  0  0  0  0  0
  -17.0973 -101.0914   -4.1121 C   0  0  2  0  0  0  0  0  0  0  0  0
  -17.3970 -100.7214   -5.4203 O   0  0  0  0  0  0  0  0  0  0  0  0
  -17.3840  -99.8150   -3.3572 C   0  0  2  0  0  0  0  0  0  0  0  0
  -17.6251 -100.0474   -2.0074 O   0  0  0  0  0  0  0  0  0  0  0  0
  -18.6404  -99.3167   -4.0664 C   0  0  2  0  0  0  0  0  0  0  0  0
  -19.7085  -99.4366   -3.1873 O   0  0  0  0  0  0  0  0  0  0  0  0
  -18.7315 -100.2800   -5.2305 C   0  0  1  0  0  0  0  0  0  0  0  0
  -19.2615  -99.5525   -6.4267 C   0  0  2  0  0  0  0  0  0  0  0  0
  -18.4703  -98.4646   -6.7773 O   0  0  0  0  0  0  0  0  0  0  0  0
  -20.6783  -99.2578   -6.2456 C   0  0  0  0  0  0  0  0  0  0  0  0
  -21.6773 -100.1643   -6.5302 C   0  0  0  0  0  0  0  0  0  0  0  0
  -22.9898  -99.8070   -6.3371 C   0  0  0  0  0  0  0  0  0  0  0  0
  -23.3698  -98.5677   -5.8651 C   0  0  0  0  0  0  0  0  0  0  0  0
  -25.0516  -98.1227   -5.6224 Cl  0  0  0  0  0  0  0  0  0  0  0  0
  -22.3446  -97.6763   -5.5872 C   0  0  0  0  0  0  0  0  0  0  0  0
  -21.0293  -97.9934   -5.7658 C   0  0  0  0  0  0  0  0  0  0  0  0
  2  1  1  0
  1  5  2  0
  1 12  1  0
  3  2  2  0
  2 10  1  0
  3  4  1  0
  8  3  1  0
  4  9  2  0
  9  5  1  0
  7  6  1  0
  7  8  2  0
 10 11  2  0
 11 12  1  0
 13 12  1  6
 13 14  1  0
 13 15  1  0
 19 14  1  6
 15 16  1  1
 15 17  1  0
 17 18  1  1
 17 19  1  0
 19 20  1  0
 20 21  1  1
 20 22  1  0
 22 23  2  0
 22 28  1  0
 23 24  1  0
 24 25  2  0
 25 26  1  0
 25 27  1  0
 27 28  2  0
M  END
$$$$
