
     RDKit          3D

 28 31  0  0  0  0  0  0  0  0999 V2000
  -15.2499 -102.8425   -3.9514 C   0  0  0  0  0  0  0  0  0  0  0  0
  -13.8691 -102.8871   -4.1005 C   0  0  0  0  0  0  0  0  0  0  0  0
  -13.2005 -104.0982   -3.9864 C   0  0  0  0  0  0  0  0  0  0  0  0
  -13.9403 -105.1880   -3.7320 N   0  0  0  0  0  0  0  0  0  0  0  0
  -15.9003 -103.9801   -3.6997 N   0  0  0  0  0  0  0  0  0  0  0  0
   -9.6362 -103.1817   -3.6848 C   0  0  0  0  0  0  0  0  0  0  0  0
  -11.0919 -103.2670   -3.4803 C   0  0  0  0  0  0  0  0  0  0  0  0
  -11.7923 -104.0969   -4.1456 N   0  0  0  0  0  0  0  0  0  0  0  0
  -15.2769 -105.1639   -3.5848 C   0  0  0  0  0  0  0  0  0  0  0  0
  -13.4708 -101.6090   -4.3457 C   0  0  0  0  0  0  0  0  0  0  0  0
  -14.5925 -100.8328   -4.3404 C   0  0  0  0  0  0  0  0  0  0  0  0
  -15.6922 -101.5669   -4.1012 N   0  0  0  0  0  0  0  0  0  0  0  0
  -17.0429 -101.1207   -4.0183 C   0  0  2  0  0  0  0  0  0  0  0  0
  -17.3934 -100.2746   -5.0961 O   0  0  0  0  0  0  0  0  0  0  0  0
  -17.3153 -100.2439   -2.8242 C   0  0  2  0  0  0  0  0  0  0  0  0
  -17.7654 -101.0420   -1.7710 O   0  0  0  0  0  0  0  0  0  0  0  0
  -18.4642  -99.3619   -3.3327 C   0  0  2  0  0  0  0  0  0  0  0  0
  -19.5660  -99.5538   -2.5000 O   0  0  0  0  0  0  0  0  0  0  0  0
  -18.6971  -99.9327   -4.7072 C   0  0  1  0  0  0  0  0  0  0  0  0
  -19.3337  -98.9658   -5.6646 C   0  0  2  0  0  0  0  0  0  0  0  0
  -19.2181  -97.6546   -5.2817 O   0  0  0  0  0  0  0  0  0  0  0  0
  -20.7171  -99.4026   -5.9380 C   0  0  0  0  0  0  0  0  0  0  0  0
  -21.0561 -100.3048   -6.9264 C   0  0  0  0  0  0  0  0  0  0  0  0
  -22.3692 -100.6810   -7.1441 C   0  0  0  0  0  0  0  0  0  0  0  0
  -23.3857 -100.1772   -6.3920 C   0  0  0  0  0  0  0  0  0  0  0  0
  -25.0385 -100.6879   -6.7092 Cl  0  0  0  0  0  0  0  0  0  0  0  0
  -23.0805  -99.2778   -5.4012 C   0  0  0  0  0  0  0  0  0  0  0  0
  -21.7727  -98.9009   -5.1819 C   0  0  0  0  0  0  0  0  0  0  0  0
  2  1  1  0
  1  5  2  0
  1 12  1  0
  3  2  2  0
  2 10  1  0
  3  4  1  0
  8  3  1  0
  4  9  2  0
  9  5  1  0
  6  7  1  6
  7  8  2  0
 10 11  2  0
 11 12  1  0
 13 12  1  6
 13 14  1  0
 13 15  1  0
 19 14  1  6
 15 16  1  1
 15 17  1  0
 17 18  1  1
 17 19  1  0
 19 20  1  0
 20 21  1  1
 20 22  1  0
 22 23  2  0
 22 28  1  0
 23 24  1  0
 24 25  2  0
 25 26  1  0
 25 27  1  0
 27 28  2  0
M  END
$$$$
