
     RDKit          3D

 36 40  0  0  0  0  0  0  0  0999 V2000
  -16.3711   -0.6050  -10.3338 C   0  0  0  0  0  0  0  0  0  0  0  0
  -16.5987   -1.4476   -9.0838 C   0  0  0  0  0  0  0  0  0  0  0  0
  -15.3091   -1.8644   -8.4834 C   0  0  0  0  0  0  0  0  0  0  0  0
  -14.2436   -1.3390   -8.8964 O   0  0  0  0  0  0  0  0  0  0  0  0
  -15.2642   -2.8316   -7.4655 N   0  0  0  0  0  0  0  0  0  0  0  0
  -14.2388   -3.5616   -6.7521 C   0  0  0  0  0  0  0  0  0  0  0  0
  -15.1539   -3.5132   -5.5570 C   0  0  1  0  0  0  0  0  0  0  0  0
  -16.2300   -3.5452   -6.6631 C   0  0  0  0  0  0  0  0  0  0  0  0
  -15.1899   -4.6630   -4.6985 N   0  0  0  0  0  0  0  0  0  0  0  0
  -14.0306   -5.3856   -4.3226 C   0  0  0  0  0  0  0  0  0  0  0  0
  -12.9351   -4.9082   -4.7496 O   0  0  0  0  0  0  0  0  0  0  0  0
  -13.9837   -6.6081   -3.5002 C   0  0  0  0  0  0  0  0  0  0  0  0
  -12.7409   -7.3149   -3.6410 N   0  0  0  0  0  0  0  0  0  0  0  0
  -12.5339   -8.2269   -4.6260 C   0  0  0  0  0  0  0  0  0  0  0  0
  -11.2698   -8.7424   -4.5080 C   0  0  0  0  0  0  0  0  0  0  0  0
  -10.6678   -9.7617   -5.3977 C   0  0  0  0  0  0  0  0  0  0  0  0
  -11.3169  -10.8107   -5.6287 O   0  0  0  0  0  0  0  0  0  0  0  0
   -9.4047   -9.5864   -5.9833 N   0  0  0  0  0  0  0  0  0  0  0  0
   -8.8193  -10.6624   -6.7490 C   0  0  0  0  0  0  0  0  0  0  0  0
   -8.1675  -10.1516   -8.0163 C   0  0  0  0  0  0  0  0  0  0  0  0
   -7.1580   -9.1485   -7.5970 C   0  0  0  0  0  0  0  0  0  0  0  0
   -5.9443   -9.1170   -8.3018 C   0  0  0  0  0  0  0  0  0  0  0  0
   -5.8047  -10.0303   -9.3168 O   0  0  0  0  0  0  0  0  0  0  0  0
   -5.1918  -11.2665   -9.1756 C   0  0  0  0  0  0  0  0  0  0  0  0
   -5.0298   -8.1866   -7.9087 C   0  0  0  0  0  0  0  0  0  0  0  0
   -5.2750   -7.3127   -6.8682 C   0  0  0  0  0  0  0  0  0  0  0  0
   -6.4630   -7.3756   -6.2096 C   0  0  0  0  0  0  0  0  0  0  0  0
   -7.4200   -8.2976   -6.5686 C   0  0  0  0  0  0  0  0  0  0  0  0
   -8.7046   -8.3451   -5.8294 C   0  0  0  0  0  0  0  0  0  0  0  0
  -10.6860   -8.1330   -3.4244 C   0  0  0  0  0  0  0  0  0  0  0  0
   -9.4441   -8.2512   -2.8389 C   0  0  0  0  0  0  0  0  0  0  0  0
   -9.1572   -7.4795   -1.7336 C   0  0  0  0  0  0  0  0  0  0  0  0
   -7.4468   -7.6434   -0.9333 Br  0  0  0  0  0  0  0  0  0  0  0  0
  -10.0835   -6.5834   -1.1900 C   0  0  0  0  0  0  0  0  0  0  0  0
  -11.3162   -6.4862   -1.7969 C   0  0  0  0  0  0  0  0  0  0  0  0
  -11.6319   -7.2493   -2.9080 C   0  0  0  0  0  0  0  0  0  0  0  0
  1  2  1  0
  2  3  1  0
  3  4  2  0
  3  5  1  0
  5  6  1  0
  5  8  1  0
  6  7  1  0
  7  8  1  0
  7  9  1  1
  9 10  1  0
 10 11  2  0
 10 12  1  0
 12 13  1  0
 13 14  1  0
 13 36  1  0
 14 15  2  0
 15 16  1  0
 15 30  1  0
 16 17  2  0
 16 18  1  0
 18 19  1  0
 18 29  1  0
 19 20  1  0
 20 21  1  0
 21 22  2  0
 21 28  1  0
 22 23  1  0
 22 25  1  0
 23 24  1  0
 25 26  2  0
 26 27  1  0
 27 28  2  0
 28 29  1  0
 30 31  1  0
 30 36  2  0
 31 32  2  0
 32 33  1  0
 32 34  1  0
 34 35  2  0
 35 36  1  0
M  END
$$$$
