
     RDKit          3D

 36 40  0  0  0  0  0  0  0  0999 V2000
   -2.4475  -25.4143   17.3779 C   0  0  0  0  0  0  0  0  0  0  0  0
   -2.0302  -25.2414   15.9466 C   0  0  0  0  0  0  0  0  0  0  0  0
   -1.3547  -23.9718   15.6443 C   0  0  0  0  0  0  0  0  0  0  0  0
   -0.1010  -23.9051   15.8563 O   0  0  0  0  0  0  0  0  0  0  0  0
   -1.9909  -22.8136   15.1356 N   0  0  0  0  0  0  0  0  0  0  0  0
   -1.6060  -21.4117   15.0897 C   0  0  0  0  0  0  0  0  0  0  0  0
   -2.5096  -21.2066   13.9545 C   0  0  1  0  0  0  0  0  0  0  0  0
   -3.2135  -22.4404   14.4656 C   0  0  0  0  0  0  0  0  0  0  0  0
   -3.3536  -20.0622   13.8645 N   0  0  0  0  0  0  0  0  0  0  0  0
   -4.5703  -19.9861   13.1441 C   0  0  0  0  0  0  0  0  0  0  0  0
   -4.7741  -20.8612   12.2712 O   0  0  0  0  0  0  0  0  0  0  0  0
   -5.5609  -18.9143   13.4127 C   0  0  0  0  0  0  0  0  0  0  0  0
   -6.0899  -18.3083   12.2388 N   0  0  0  0  0  0  0  0  0  0  0  0
   -5.4560  -17.5086   11.3510 C   0  0  0  0  0  0  0  0  0  0  0  0
   -6.3242  -17.1420   10.3227 C   0  0  0  0  0  0  0  0  0  0  0  0
   -6.0430  -16.3106    9.1688 C   0  0  0  0  0  0  0  0  0  0  0  0
   -6.7596  -15.3240    8.9290 O   0  0  0  0  0  0  0  0  0  0  0  0
   -4.9588  -16.6229    8.3221 N   0  0  0  0  0  0  0  0  0  0  0  0
   -3.9835  -17.6623    8.6498 C   0  0  0  0  0  0  0  0  0  0  0  0
   -2.7213  -16.9409    9.0270 C   0  0  0  0  0  0  0  0  0  0  0  0
   -2.4002  -15.9453    7.9536 C   0  0  0  0  0  0  0  0  0  0  0  0
   -1.0732  -15.4843    7.9134 C   0  0  0  0  0  0  0  0  0  0  0  0
   -0.1515  -15.9580    8.8338 O   0  0  0  0  0  0  0  0  0  0  0  0
    0.7878  -16.9399    8.4736 C   0  0  0  0  0  0  0  0  0  0  0  0
   -0.6608  -14.5660    6.9737 C   0  0  0  0  0  0  0  0  0  0  0  0
   -1.6045  -14.1202    6.0764 C   0  0  0  0  0  0  0  0  0  0  0  0
   -2.9013  -14.5530    6.0941 C   0  0  0  0  0  0  0  0  0  0  0  0
   -3.3186  -15.4810    7.0433 C   0  0  0  0  0  0  0  0  0  0  0  0
   -4.7249  -15.9546    7.0602 C   0  0  0  0  0  0  0  0  0  0  0  0
   -7.5267  -17.7720   10.6469 C   0  0  0  0  0  0  0  0  0  0  0  0
   -8.7223  -17.7527    9.9778 C   0  0  0  0  0  0  0  0  0  0  0  0
   -9.7808  -18.4644   10.5047 C   0  0  0  0  0  0  0  0  0  0  0  0
  -11.4654  -18.4649    9.5992 Br  0  0  0  0  0  0  0  0  0  0  0  0
   -9.6468  -19.1774   11.6719 C   0  0  0  0  0  0  0  0  0  0  0  0
   -8.4427  -19.1834   12.3252 C   0  0  0  0  0  0  0  0  0  0  0  0
   -7.3647  -18.4716   11.8083 C   0  0  0  0  0  0  0  0  0  0  0  0
  1  2  1  6
  2  3  1  6
  3  4  2  0
  3  5  1  0
  6  5  1  1
  8  5  1  1
  6  7  1  0
  7  8  1  0
  7  9  1  1
  9 10  1  0
 10 11  2  0
 10 12  1  0
 12 13  1  6
 13 14  1  0
 13 36  1  0
 14 15  2  0
 15 16  1  0
 15 30  1  0
 16 17  2  0
 16 18  1  0
 19 18  1  1
 29 18  1  1
 19 20  1  0
 20 21  1  6
 21 22  2  0
 21 28  1  0
 22 23  1  0
 22 25  1  0
 24 23  1  6
 25 26  2  0
 26 27  1  0
 27 28  2  0
 28 29  1  0
 30 31  1  0
 30 36  2  0
 31 32  2  0
 32 33  1  0
 32 34  1  0
 34 35  2  0
 35 36  1  0
M  END
$$$$
