
     RDKit          3D

 36 40  0  0  0  0  0  0  0  0999 V2000
   -3.4641  -14.6336  -13.7333 C   0  0  0  0  0  0  0  0  0  0  0  0
   -4.1682  -14.0498  -12.5136 C   0  0  0  0  0  0  0  0  0  0  0  0
   -4.8660  -12.7882  -12.8576 C   0  0  0  0  0  0  0  0  0  0  0  0
   -4.5582  -12.1886  -13.9196 O   0  0  0  0  0  0  0  0  0  0  0  0
   -5.8601  -12.2591  -12.0177 N   0  0  0  0  0  0  0  0  0  0  0  0
   -6.4769  -12.6206  -10.7599 C   0  0  0  0  0  0  0  0  0  0  0  0
   -6.5996  -11.1437  -10.4918 C   0  0  1  0  0  0  0  0  0  0  0  0
   -6.7279  -11.1047  -12.0295 C   0  0  0  0  0  0  0  0  0  0  0  0
   -7.7787  -10.6855   -9.8134 N   0  0  0  0  0  0  0  0  0  0  0  0
   -7.7463  -10.0489   -8.5480 C   0  0  0  0  0  0  0  0  0  0  0  0
   -6.5883   -9.8892   -8.0539 O   0  0  0  0  0  0  0  0  0  0  0  0
   -8.9053   -9.5664   -7.7757 C   0  0  0  0  0  0  0  0  0  0  0  0
   -8.5188   -8.7263   -6.6762 N   0  0  0  0  0  0  0  0  0  0  0  0
   -8.2558   -9.2255   -5.4408 C   0  0  0  0  0  0  0  0  0  0  0  0
   -7.9232   -8.1976   -4.5979 C   0  0  0  0  0  0  0  0  0  0  0  0
   -7.5653   -8.3367   -3.1677 C   0  0  0  0  0  0  0  0  0  0  0  0
   -6.6565   -9.1441   -2.8555 O   0  0  0  0  0  0  0  0  0  0  0  0
   -8.2084   -7.5968   -2.1638 N   0  0  0  0  0  0  0  0  0  0  0  0
   -9.3264   -6.7496   -2.5090 C   0  0  0  0  0  0  0  0  0  0  0  0
  -10.4430   -6.8620   -1.4929 C   0  0  0  0  0  0  0  0  0  0  0  0
   -9.8548   -6.5054   -0.1783 C   0  0  0  0  0  0  0  0  0  0  0  0
  -10.6489   -5.7574    0.7054 C   0  0  0  0  0  0  0  0  0  0  0  0
  -11.9027   -5.4193    0.2612 O   0  0  0  0  0  0  0  0  0  0  0  0
  -13.0305   -5.3744    1.0673 C   0  0  0  0  0  0  0  0  0  0  0  0
  -10.0969   -5.4429    1.9107 C   0  0  0  0  0  0  0  0  0  0  0  0
   -8.8190   -5.8357    2.2559 C   0  0  0  0  0  0  0  0  0  0  0  0
   -8.0811   -6.5588    1.3717 C   0  0  0  0  0  0  0  0  0  0  0  0
   -8.5935   -6.9021    0.1411 C   0  0  0  0  0  0  0  0  0  0  0  0
   -7.7638   -7.6879   -0.8041 C   0  0  0  0  0  0  0  0  0  0  0  0
   -7.9837   -7.0389   -5.3327 C   0  0  0  0  0  0  0  0  0  0  0  0
   -7.7538   -5.7169   -5.0188 C   0  0  0  0  0  0  0  0  0  0  0  0
   -7.9024   -4.7666   -6.0060 C   0  0  0  0  0  0  0  0  0  0  0  0
   -7.5825   -2.9498   -5.5704 Br  0  0  0  0  0  0  0  0  0  0  0  0
   -8.2775   -5.1010   -7.3114 C   0  0  0  0  0  0  0  0  0  0  0  0
   -8.4996   -6.4304   -7.5957 C   0  0  0  0  0  0  0  0  0  0  0  0
   -8.3584   -7.4061   -6.6239 C   0  0  0  0  0  0  0  0  0  0  0  0
  1  2  1  0
  2  3  1  0
  3  4  2  0
  3  5  1  0
  5  6  1  0
  5  8  1  0
  6  7  1  0
  7  8  1  0
  7  9  1  1
  9 10  1  0
 10 11  2  0
 10 12  1  0
 12 13  1  0
 13 14  1  0
 13 36  1  0
 14 15  2  0
 15 16  1  0
 15 30  1  0
 16 17  2  0
 16 18  1  0
 18 19  1  0
 18 29  1  0
 19 20  1  0
 20 21  1  0
 21 22  2  0
 21 28  1  0
 22 23  1  0
 22 25  1  0
 23 24  1  0
 25 26  2  0
 26 27  1  0
 27 28  2  0
 28 29  1  0
 30 31  1  0
 30 36  2  0
 31 32  2  0
 32 33  1  0
 32 34  1  0
 34 35  2  0
 35 36  1  0
M  END
$$$$
