
     RDKit          3D

 36 40  0  0  0  0  0  0  0  0999 V2000
   -2.1648  -12.5467  -11.4199 C   0  0  0  0  0  0  0  0  0  0  0  0
   -3.2200  -11.5186  -11.8123 C   0  0  0  0  0  0  0  0  0  0  0  0
   -3.5414  -10.6274  -10.6724 C   0  0  0  0  0  0  0  0  0  0  0  0
   -2.6497   -9.8626  -10.2230 O   0  0  0  0  0  0  0  0  0  0  0  0
   -4.8214  -10.6268  -10.0931 N   0  0  0  0  0  0  0  0  0  0  0  0
   -5.5256   -9.8482   -9.0976 C   0  0  0  0  0  0  0  0  0  0  0  0
   -6.7723  -10.1000   -9.9040 C   0  0  1  0  0  0  0  0  0  0  0  0
   -6.0261  -11.4118  -10.2278 C   0  0  0  0  0  0  0  0  0  0  0  0
   -7.9985  -10.3081   -9.1874 N   0  0  0  0  0  0  0  0  0  0  0  0
   -8.3858   -9.5259   -8.0713 C   0  0  0  0  0  0  0  0  0  0  0  0
   -7.8108   -8.3985   -7.9770 O   0  0  0  0  0  0  0  0  0  0  0  0
   -9.3717   -9.8930   -7.0389 C   0  0  0  0  0  0  0  0  0  0  0  0
   -9.6723   -8.8002   -6.1560 N   0  0  0  0  0  0  0  0  0  0  0  0
  -10.6499   -7.8974   -6.4278 C   0  0  0  0  0  0  0  0  0  0  0  0
  -10.7033   -6.9701   -5.4203 C   0  0  0  0  0  0  0  0  0  0  0  0
  -11.6414   -5.8264   -5.3500 C   0  0  0  0  0  0  0  0  0  0  0  0
  -11.7895   -5.1122   -6.3713 O   0  0  0  0  0  0  0  0  0  0  0  0
  -12.3616   -5.5248   -4.1842 N   0  0  0  0  0  0  0  0  0  0  0  0
  -13.0686   -4.2686   -4.0889 C   0  0  0  0  0  0  0  0  0  0  0  0
  -14.4382   -4.4477   -3.4691 C   0  0  0  0  0  0  0  0  0  0  0  0
  -14.2218   -5.0711   -2.1403 C   0  0  0  0  0  0  0  0  0  0  0  0
  -15.0409   -4.6439   -1.0831 C   0  0  0  0  0  0  0  0  0  0  0  0
  -15.9677   -3.6768   -1.3822 O   0  0  0  0  0  0  0  0  0  0  0  0
  -15.9448   -2.3884   -0.8691 C   0  0  0  0  0  0  0  0  0  0  0  0
  -14.8340   -5.2299    0.1295 C   0  0  0  0  0  0  0  0  0  0  0  0
  -13.8677   -6.1976    0.3200 C   0  0  0  0  0  0  0  0  0  0  0  0
  -13.0938   -6.5838   -0.7294 C   0  0  0  0  0  0  0  0  0  0  0  0
  -13.2636   -6.0223   -1.9746 C   0  0  0  0  0  0  0  0  0  0  0  0
  -12.4020   -6.4606   -3.0991 C   0  0  0  0  0  0  0  0  0  0  0  0
   -9.7352   -7.3110   -4.5077 C   0  0  0  0  0  0  0  0  0  0  0  0
   -9.3348   -6.7524   -3.3133 C   0  0  0  0  0  0  0  0  0  0  0  0
   -8.3065   -7.3485   -2.6155 C   0  0  0  0  0  0  0  0  0  0  0  0
   -7.7609   -6.5782   -0.9718 Br  0  0  0  0  0  0  0  0  0  0  0  0
   -7.6594   -8.4982   -3.0800 C   0  0  0  0  0  0  0  0  0  0  0  0
   -8.0818   -9.0345   -4.2764 C   0  0  0  0  0  0  0  0  0  0  0  0
   -9.1118   -8.4567   -4.9987 C   0  0  0  0  0  0  0  0  0  0  0  0
  1  2  1  0
  2  3  1  0
  3  4  2  0
  3  5  1  0
  5  6  1  0
  5  8  1  0
  6  7  1  0
  7  8  1  0
  7  9  1  1
  9 10  1  0
 10 11  2  0
 10 12  1  0
 12 13  1  0
 13 14  1  0
 13 36  1  0
 14 15  2  0
 15 16  1  0
 15 30  1  0
 16 17  2  0
 16 18  1  0
 18 19  1  0
 18 29  1  0
 19 20  1  0
 20 21  1  0
 21 22  2  0
 21 28  1  0
 22 23  1  0
 22 25  1  0
 23 24  1  0
 25 26  2  0
 26 27  1  0
 27 28  2  0
 28 29  1  0
 30 31  1  0
 30 36  2  0
 31 32  2  0
 32 33  1  0
 32 34  1  0
 34 35  2  0
 35 36  1  0
M  END
$$$$
