
     RDKit          3D

 36 40  0  0  0  0  0  0  0  0999 V2000
   -1.9590  -10.1393  -15.3838 C   0  0  0  0  0  0  0  0  0  0  0  0
   -2.5913  -10.5801  -14.0684 C   0  0  0  0  0  0  0  0  0  0  0  0
   -4.0647  -10.6801  -14.1958 C   0  0  0  0  0  0  0  0  0  0  0  0
   -4.5915  -10.5449  -15.3299 O   0  0  0  0  0  0  0  0  0  0  0  0
   -4.8730  -10.9231  -13.0727 N   0  0  0  0  0  0  0  0  0  0  0  0
   -4.7094  -10.9080  -11.6353 C   0  0  0  0  0  0  0  0  0  0  0  0
   -6.1414  -10.4473  -11.5614 C   0  0  1  0  0  0  0  0  0  0  0  0
   -6.2466  -11.3044  -12.8408 C   0  0  0  0  0  0  0  0  0  0  0  0
   -6.9455  -10.9424  -10.4804 N   0  0  0  0  0  0  0  0  0  0  0  0
   -7.0527  -10.2843   -9.2302 C   0  0  0  0  0  0  0  0  0  0  0  0
   -6.7515   -9.0516   -9.2418 O   0  0  0  0  0  0  0  0  0  0  0  0
   -7.4736  -10.8861   -7.9521 C   0  0  0  0  0  0  0  0  0  0  0  0
   -8.1008   -9.9332   -7.0788 N   0  0  0  0  0  0  0  0  0  0  0  0
   -9.4443   -9.9064   -6.8816 C   0  0  0  0  0  0  0  0  0  0  0  0
   -9.7546   -8.8940   -6.0118 C   0  0  0  0  0  0  0  0  0  0  0  0
  -11.1158   -8.5460   -5.5440 C   0  0  0  0  0  0  0  0  0  0  0  0
  -12.0927   -8.8494   -6.2713 O   0  0  0  0  0  0  0  0  0  0  0  0
  -11.3392   -7.8940   -4.3218 N   0  0  0  0  0  0  0  0  0  0  0  0
  -10.2172   -7.5739   -3.4700 C   0  0  0  0  0  0  0  0  0  0  0  0
  -10.3460   -6.1857   -2.8801 C   0  0  0  0  0  0  0  0  0  0  0  0
  -11.6341   -6.1575   -2.1443 C   0  0  0  0  0  0  0  0  0  0  0  0
  -11.6722   -5.4515   -0.9315 C   0  0  0  0  0  0  0  0  0  0  0  0
  -10.5011   -4.8548   -0.5362 O   0  0  0  0  0  0  0  0  0  0  0  0
  -10.1907   -3.5214   -0.7586 C   0  0  0  0  0  0  0  0  0  0  0  0
  -12.8635   -5.4301   -0.2706 C   0  0  0  0  0  0  0  0  0  0  0  0
  -13.9849   -6.0690   -0.7612 C   0  0  0  0  0  0  0  0  0  0  0  0
  -13.9070   -6.7432   -1.9396 C   0  0  0  0  0  0  0  0  0  0  0  0
  -12.7265   -6.7946   -2.6455 C   0  0  0  0  0  0  0  0  0  0  0  0
  -12.6708   -7.5409   -3.9258 C   0  0  0  0  0  0  0  0  0  0  0  0
   -8.5736   -8.2838   -5.6665 C   0  0  0  0  0  0  0  0  0  0  0  0
   -8.2730   -7.2251   -4.8372 C   0  0  0  0  0  0  0  0  0  0  0  0
   -6.9551   -6.8462   -4.6986 C   0  0  0  0  0  0  0  0  0  0  0  0
   -6.5462   -5.3912   -3.5547 Br  0  0  0  0  0  0  0  0  0  0  0  0
   -5.9174   -7.5002   -5.3706 C   0  0  0  0  0  0  0  0  0  0  0  0
   -6.2481   -8.5554   -6.1920 C   0  0  0  0  0  0  0  0  0  0  0  0
   -7.5633   -8.9575   -6.3505 C   0  0  0  0  0  0  0  0  0  0  0  0
  1  2  1  0
  2  3  1  0
  3  4  2  0
  3  5  1  0
  5  6  1  0
  5  8  1  0
  6  7  1  0
  7  8  1  0
  7  9  1  1
  9 10  1  0
 10 11  2  0
 10 12  1  0
 12 13  1  0
 13 14  1  0
 13 36  1  0
 14 15  2  0
 15 16  1  0
 15 30  1  0
 16 17  2  0
 16 18  1  0
 18 19  1  0
 18 29  1  0
 19 20  1  0
 20 21  1  0
 21 22  2  0
 21 28  1  0
 22 23  1  0
 22 25  1  0
 23 24  1  0
 25 26  2  0
 26 27  1  0
 27 28  2  0
 28 29  1  0
 30 31  1  0
 30 36  2  0
 31 32  2  0
 32 33  1  0
 32 34  1  0
 34 35  2  0
 35 36  1  0
M  END
$$$$
