
     RDKit          3D

 36 40  0  0  0  0  0  0  0  0999 V2000
   -3.0112  -11.7690  -12.6368 C   0  0  0  0  0  0  0  0  0  0  0  0
   -4.0700  -11.9762  -11.5596 C   0  0  0  0  0  0  0  0  0  0  0  0
   -5.4116  -11.5838  -12.0527 C   0  0  0  0  0  0  0  0  0  0  0  0
   -5.8379  -12.0794  -13.1272 O   0  0  0  0  0  0  0  0  0  0  0  0
   -6.2067  -10.6720  -11.3382 N   0  0  0  0  0  0  0  0  0  0  0  0
   -7.5472  -10.1378  -11.4424 C   0  0  0  0  0  0  0  0  0  0  0  0
   -7.5523  -10.0840   -9.9373 C   0  0  1  0  0  0  0  0  0  0  0  0
   -6.0448   -9.8444  -10.1658 C   0  0  0  0  0  0  0  0  0  0  0  0
   -8.2139   -8.9737   -9.3128 N   0  0  0  0  0  0  0  0  0  0  0  0
   -8.2478   -8.7819   -7.9094 C   0  0  0  0  0  0  0  0  0  0  0  0
   -8.2339   -9.8465   -7.2188 O   0  0  0  0  0  0  0  0  0  0  0  0
   -8.2941   -7.4915   -7.1984 C   0  0  0  0  0  0  0  0  0  0  0  0
   -8.9015   -7.6029   -5.9012 N   0  0  0  0  0  0  0  0  0  0  0  0
  -10.2139   -7.3247   -5.6896 C   0  0  0  0  0  0  0  0  0  0  0  0
  -10.5084   -7.5089   -4.3640 C   0  0  0  0  0  0  0  0  0  0  0  0
  -11.8366   -7.3106   -3.7402 C   0  0  0  0  0  0  0  0  0  0  0  0
  -12.8550   -7.6800   -4.3740 O   0  0  0  0  0  0  0  0  0  0  0  0
  -11.9844   -6.7276   -2.4724 N   0  0  0  0  0  0  0  0  0  0  0  0
  -13.2941   -6.6633   -1.8664 C   0  0  0  0  0  0  0  0  0  0  0  0
  -13.2428   -7.0128   -0.3944 C   0  0  0  0  0  0  0  0  0  0  0  0
  -12.2886   -6.0647    0.2316 C   0  0  0  0  0  0  0  0  0  0  0  0
  -12.6011   -5.5818    1.5123 C   0  0  0  0  0  0  0  0  0  0  0  0
  -13.7737   -6.0330    2.0647 O   0  0  0  0  0  0  0  0  0  0  0  0
  -13.8795   -6.5739    3.3375 C   0  0  0  0  0  0  0  0  0  0  0  0
  -11.7123   -4.7165    2.0760 C   0  0  0  0  0  0  0  0  0  0  0  0
  -10.5575   -4.3268    1.4273 C   0  0  0  0  0  0  0  0  0  0  0  0
  -10.2909   -4.8163    0.1869 C   0  0  0  0  0  0  0  0  0  0  0  0
  -11.1571   -5.6933   -0.4257 C   0  0  0  0  0  0  0  0  0  0  0  0
  -10.8418   -6.2074   -1.7805 C   0  0  0  0  0  0  0  0  0  0  0  0
   -9.3491   -7.9096   -3.7461 C   0  0  0  0  0  0  0  0  0  0  0  0
   -9.0466   -8.2358   -2.4418 C   0  0  0  0  0  0  0  0  0  0  0  0
   -7.7557   -8.6089   -2.1351 C   0  0  0  0  0  0  0  0  0  0  0  0
   -7.3450   -9.0594   -0.3403 Br  0  0  0  0  0  0  0  0  0  0  0  0
   -6.7472   -8.6666   -3.1025 C   0  0  0  0  0  0  0  0  0  0  0  0
   -7.0794   -8.3358   -4.3978 C   0  0  0  0  0  0  0  0  0  0  0  0
   -8.3677   -7.9571   -4.7345 C   0  0  0  0  0  0  0  0  0  0  0  0
  1  2  1  0
  2  3  1  0
  3  4  2  0
  3  5  1  0
  5  6  1  0
  5  8  1  0
  6  7  1  0
  7  8  1  0
  7  9  1  6
  9 10  1  0
 10 11  2  0
 10 12  1  0
 12 13  1  0
 13 14  1  0
 13 36  1  0
 14 15  2  0
 15 16  1  0
 15 30  1  0
 16 17  2  0
 16 18  1  0
 18 19  1  0
 18 29  1  0
 19 20  1  0
 20 21  1  0
 21 22  2  0
 21 28  1  0
 22 23  1  0
 22 25  1  0
 23 24  1  0
 25 26  2  0
 26 27  1  0
 27 28  2  0
 28 29  1  0
 30 31  1  0
 30 36  2  0
 31 32  2  0
 32 33  1  0
 32 34  1  0
 34 35  2  0
 35 36  1  0
M  END
$$$$
