
     RDKit          3D

 36 40  0  0  0  0  0  0  0  0999 V2000
   -3.6436  -27.3973    3.8814 C   0  0  0  0  0  0  0  0  0  0  0  0
   -4.4102  -26.5263    4.8704 C   0  0  0  0  0  0  0  0  0  0  0  0
   -3.7182  -25.2332    5.0850 C   0  0  0  0  0  0  0  0  0  0  0  0
   -2.4832  -25.1551    4.8596 O   0  0  0  0  0  0  0  0  0  0  0  0
   -4.4211  -24.1022    5.5330 N   0  0  0  0  0  0  0  0  0  0  0  0
   -5.8009  -23.7580    5.7992 C   0  0  0  0  0  0  0  0  0  0  0  0
   -5.2798  -22.8724    6.9002 C   0  0  1  0  0  0  0  0  0  0  0  0
   -4.0828  -22.7563    5.9326 C   0  0  0  0  0  0  0  0  0  0  0  0
   -5.9504  -21.6232    7.1240 N   0  0  0  0  0  0  0  0  0  0  0  0
   -6.4172  -21.2117    8.3969 C   0  0  0  0  0  0  0  0  0  0  0  0
   -5.9948  -21.9010    9.3752 O   0  0  0  0  0  0  0  0  0  0  0  0
   -7.3231  -20.0838    8.6797 C   0  0  0  0  0  0  0  0  0  0  0  0
   -6.6130  -18.8918    9.0526 N   0  0  0  0  0  0  0  0  0  0  0  0
   -6.7147  -17.7369    8.3452 C   0  0  0  0  0  0  0  0  0  0  0  0
   -5.9252  -16.7789    8.9254 C   0  0  0  0  0  0  0  0  0  0  0  0
   -5.7703  -15.3852    8.4496 C   0  0  0  0  0  0  0  0  0  0  0  0
   -6.8056  -14.7191    8.2055 O   0  0  0  0  0  0  0  0  0  0  0  0
   -4.5097  -14.7964    8.2675 N   0  0  0  0  0  0  0  0  0  0  0  0
   -3.3181  -15.5645    8.5449 C   0  0  0  0  0  0  0  0  0  0  0  0
   -2.2591  -15.3490    7.4849 C   0  0  0  0  0  0  0  0  0  0  0  0
   -1.9895  -13.8905    7.4478 C   0  0  0  0  0  0  0  0  0  0  0  0
   -0.6604  -13.4819    7.2546 C   0  0  0  0  0  0  0  0  0  0  0  0
    0.2717  -14.4808    7.1237 O   0  0  0  0  0  0  0  0  0  0  0  0
    0.7160  -15.2758    8.1698 C   0  0  0  0  0  0  0  0  0  0  0  0
   -0.4298  -12.1396    7.2172 C   0  0  0  0  0  0  0  0  0  0  0  0
   -1.4473  -11.2174    7.3616 C   0  0  0  0  0  0  0  0  0  0  0  0
   -2.7218  -11.6534    7.5478 C   0  0  0  0  0  0  0  0  0  0  0  0
   -3.0068  -12.9992    7.5930 C   0  0  0  0  0  0  0  0  0  0  0  0
   -4.4058  -13.4448    7.8013 C   0  0  0  0  0  0  0  0  0  0  0  0
   -5.3237  -17.3590   10.0153 C   0  0  0  0  0  0  0  0  0  0  0  0
   -4.4409  -16.8851   10.9614 C   0  0  0  0  0  0  0  0  0  0  0  0
   -4.0137  -17.7394   11.9550 C   0  0  0  0  0  0  0  0  0  0  0  0
   -2.8016  -17.0824   13.2557 Br  0  0  0  0  0  0  0  0  0  0  0  0
   -4.4466  -19.0672   12.0327 C   0  0  0  0  0  0  0  0  0  0  0  0
   -5.3296  -19.5125   11.0737 C   0  0  0  0  0  0  0  0  0  0  0  0
   -5.7751  -18.6767   10.0641 C   0  0  0  0  0  0  0  0  0  0  0  0
  1  2  1  0
  2  3  1  0
  3  4  2  0
  3  5  1  0
  5  6  1  0
  5  8  1  0
  6  7  1  0
  7  8  1  0
  7  9  1  6
  9 10  1  0
 10 11  2  0
 10 12  1  0
 12 13  1  0
 13 14  1  0
 13 36  1  0
 14 15  2  0
 15 16  1  0
 15 30  1  0
 16 17  2  0
 16 18  1  0
 18 19  1  0
 18 29  1  0
 19 20  1  0
 20 21  1  0
 21 22  2  0
 21 28  1  0
 22 23  1  0
 22 25  1  0
 23 24  1  0
 25 26  2  0
 26 27  1  0
 27 28  2  0
 28 29  1  0
 30 31  1  0
 30 36  2  0
 31 32  2  0
 32 33  1  0
 32 34  1  0
 34 35  2  0
 35 36  1  0
M  END
$$$$
