
     RDKit          3D

 36 40  0  0  0  0  0  0  0  0999 V2000
  -19.0104   -6.6198   -2.6128 C   0  0  0  0  0  0  0  0  0  0  0  0
  -18.1450   -6.0461   -3.7292 C   0  0  0  0  0  0  0  0  0  0  0  0
  -18.5056   -6.6405   -5.0382 C   0  0  0  0  0  0  0  0  0  0  0  0
  -19.7062   -6.9392   -5.2648 O   0  0  0  0  0  0  0  0  0  0  0  0
  -17.5291   -6.8715   -6.0215 N   0  0  0  0  0  0  0  0  0  0  0  0
  -17.4406   -7.6066   -7.2645 C   0  0  0  0  0  0  0  0  0  0  0  0
  -16.5087   -6.5237   -7.7411 C   0  0  1  0  0  0  0  0  0  0  0  0
  -16.1565   -6.4786   -6.2389 C   0  0  0  0  0  0  0  0  0  0  0  0
  -15.4037   -6.9131   -8.5703 N   0  0  0  0  0  0  0  0  0  0  0  0
  -14.0753   -7.0226   -8.0898 C   0  0  0  0  0  0  0  0  0  0  0  0
  -13.9529   -6.9787   -6.8274 O   0  0  0  0  0  0  0  0  0  0  0  0
  -12.8557   -7.1808   -8.9024 C   0  0  0  0  0  0  0  0  0  0  0  0
  -11.6578   -7.0939   -8.1140 N   0  0  0  0  0  0  0  0  0  0  0  0
  -11.1032   -8.1804   -7.5170 C   0  0  0  0  0  0  0  0  0  0  0  0
   -9.9813   -7.7969   -6.8300 C   0  0  0  0  0  0  0  0  0  0  0  0
   -9.0977   -8.6949   -6.0518 C   0  0  0  0  0  0  0  0  0  0  0  0
   -9.3451   -8.8670   -4.8334 O   0  0  0  0  0  0  0  0  0  0  0  0
   -8.0036   -9.3519   -6.6352 N   0  0  0  0  0  0  0  0  0  0  0  0
   -7.9151   -9.4478   -8.0738 C   0  0  0  0  0  0  0  0  0  0  0  0
   -6.5062   -9.1868   -8.5622 C   0  0  0  0  0  0  0  0  0  0  0  0
   -5.6333  -10.1737   -7.8801 C   0  0  0  0  0  0  0  0  0  0  0  0
   -4.5809  -10.7310   -8.6237 C   0  0  0  0  0  0  0  0  0  0  0  0
   -4.4635  -10.3097   -9.9246 O   0  0  0  0  0  0  0  0  0  0  0  0
   -3.3006   -9.7920  -10.4755 C   0  0  0  0  0  0  0  0  0  0  0  0
   -3.7848  -11.6313   -7.9816 C   0  0  0  0  0  0  0  0  0  0  0  0
   -3.9948  -11.9856   -6.6638 C   0  0  0  0  0  0  0  0  0  0  0  0
   -5.0258  -11.4239   -5.9777 C   0  0  0  0  0  0  0  0  0  0  0  0
   -5.8586  -10.5091   -6.5812 C   0  0  0  0  0  0  0  0  0  0  0  0
   -6.9772   -9.9162   -5.8089 C   0  0  0  0  0  0  0  0  0  0  0  0
   -9.8433   -6.4421   -7.0088 C   0  0  0  0  0  0  0  0  0  0  0  0
   -8.9145   -5.5275   -6.5617 C   0  0  0  0  0  0  0  0  0  0  0  0
   -9.0582   -4.2061   -6.9262 C   0  0  0  0  0  0  0  0  0  0  0  0
   -7.7768   -2.9521   -6.3111 Br  0  0  0  0  0  0  0  0  0  0  0  0
  -10.1129   -3.7663   -7.7327 C   0  0  0  0  0  0  0  0  0  0  0  0
  -11.0253   -4.7033   -8.1651 C   0  0  0  0  0  0  0  0  0  0  0  0
  -10.9061   -6.0372   -7.8143 C   0  0  0  0  0  0  0  0  0  0  0  0
  1  2  1  0
  2  3  1  0
  3  4  2  0
  3  5  1  0
  5  6  1  0
  5  8  1  0
  6  7  1  0
  7  8  1  0
  7  9  1  6
  9 10  1  0
 10 11  2  0
 10 12  1  0
 12 13  1  0
 13 14  1  0
 13 36  1  0
 14 15  2  0
 15 16  1  0
 15 30  1  0
 16 17  2  0
 16 18  1  0
 18 19  1  0
 18 29  1  0
 19 20  1  0
 20 21  1  0
 21 22  2  0
 21 28  1  0
 22 23  1  0
 22 25  1  0
 23 24  1  0
 25 26  2  0
 26 27  1  0
 27 28  2  0
 28 29  1  0
 30 31  1  0
 30 36  2  0
 31 32  2  0
 32 33  1  0
 32 34  1  0
 34 35  2  0
 35 36  1  0
M  END
$$$$
