
     RDKit          3D

 36 40  0  0  0  0  0  0  0  0999 V2000
  -11.2697  -26.8891   10.4041 C   0  0  0  0  0  0  0  0  0  0  0  0
  -10.4473  -26.6038    9.1524 C   0  0  0  0  0  0  0  0  0  0  0  0
  -10.9192  -25.3713    8.4777 C   0  0  0  0  0  0  0  0  0  0  0  0
  -11.8869  -25.4437    7.6776 O   0  0  0  0  0  0  0  0  0  0  0  0
  -10.3028  -24.1324    8.7207 N   0  0  0  0  0  0  0  0  0  0  0  0
   -8.9892  -23.6694    9.1125 C   0  0  0  0  0  0  0  0  0  0  0  0
   -9.2522  -22.4595    8.2550 C   0  0  1  0  0  0  0  0  0  0  0  0
  -10.7047  -22.7455    8.6920 C   0  0  0  0  0  0  0  0  0  0  0  0
   -8.7598  -21.1939    8.7199 N   0  0  0  0  0  0  0  0  0  0  0  0
   -7.3955  -20.8186    8.6450 C   0  0  0  0  0  0  0  0  0  0  0  0
   -6.7524  -21.3141    7.6696 O   0  0  0  0  0  0  0  0  0  0  0  0
   -6.6760  -19.9265    9.5719 C   0  0  0  0  0  0  0  0  0  0  0  0
   -5.8171  -19.0018    8.8854 N   0  0  0  0  0  0  0  0  0  0  0  0
   -4.4636  -19.1097    8.9177 C   0  0  0  0  0  0  0  0  0  0  0  0
   -3.9102  -18.0919    8.1859 C   0  0  0  0  0  0  0  0  0  0  0  0
   -2.4611  -17.8687    7.9778 C   0  0  0  0  0  0  0  0  0  0  0  0
   -1.7771  -18.8019    7.4916 O   0  0  0  0  0  0  0  0  0  0  0  0
   -1.8402  -16.6538    8.3056 N   0  0  0  0  0  0  0  0  0  0  0  0
   -0.4631  -16.4335    7.9292 C   0  0  0  0  0  0  0  0  0  0  0  0
   -0.2513  -15.0344    7.3912 C   0  0  0  0  0  0  0  0  0  0  0  0
   -0.6975  -14.1012    8.4548 C   0  0  0  0  0  0  0  0  0  0  0  0
    0.0490  -12.9270    8.6417 C   0  0  0  0  0  0  0  0  0  0  0  0
    1.1341  -12.7568    7.8185 O   0  0  0  0  0  0  0  0  0  0  0  0
    2.0800  -11.7540    7.9713 C   0  0  0  0  0  0  0  0  0  0  0  0
   -0.3767  -12.0775    9.6182 C   0  0  0  0  0  0  0  0  0  0  0  0
   -1.4871  -12.3493   10.3925 C   0  0  0  0  0  0  0  0  0  0  0  0
   -2.1833  -13.4982   10.1811 C   0  0  0  0  0  0  0  0  0  0  0  0
   -1.7940  -14.3890    9.2066 C   0  0  0  0  0  0  0  0  0  0  0  0
   -2.5706  -15.6356    9.0018 C   0  0  0  0  0  0  0  0  0  0  0  0
   -4.9483  -17.3402    7.6924 C   0  0  0  0  0  0  0  0  0  0  0  0
   -4.9960  -16.2126    6.9017 C   0  0  0  0  0  0  0  0  0  0  0  0
   -6.2267  -15.6867    6.5723 C   0  0  0  0  0  0  0  0  0  0  0  0
   -6.2874  -14.1372    5.4823 Br  0  0  0  0  0  0  0  0  0  0  0  0
   -7.4239  -16.2596    7.0136 C   0  0  0  0  0  0  0  0  0  0  0  0
   -7.3449  -17.3866    7.8017 C   0  0  0  0  0  0  0  0  0  0  0  0
   -6.1226  -17.9363    8.1486 C   0  0  0  0  0  0  0  0  0  0  0  0
  1  2  1  0
  2  3  1  0
  3  4  2  0
  3  5  1  0
  5  6  1  0
  5  8  1  0
  6  7  1  0
  7  8  1  0
  7  9  1  1
  9 10  1  0
 10 11  2  0
 10 12  1  0
 12 13  1  0
 13 14  1  0
 13 36  1  0
 14 15  2  0
 15 16  1  0
 15 30  1  0
 16 17  2  0
 16 18  1  0
 18 19  1  0
 18 29  1  0
 19 20  1  0
 20 21  1  0
 21 22  2  0
 21 28  1  0
 22 23  1  0
 22 25  1  0
 23 24  1  0
 25 26  2  0
 26 27  1  0
 27 28  2  0
 28 29  1  0
 30 31  1  0
 30 36  2  0
 31 32  2  0
 32 33  1  0
 32 34  1  0
 34 35  2  0
 35 36  1  0
M  END
$$$$
