
     RDKit          3D

 36 40  0  0  0  0  0  0  0  0999 V2000
   -4.7185   -9.5290  -11.9745 C   0  0  0  0  0  0  0  0  0  0  0  0
   -5.7444  -10.6367  -12.1861 C   0  0  0  0  0  0  0  0  0  0  0  0
   -7.0206  -10.3147  -11.5044 C   0  0  0  0  0  0  0  0  0  0  0  0
   -7.9946   -9.9088  -12.1888 O   0  0  0  0  0  0  0  0  0  0  0  0
   -7.1535  -10.4574  -10.1131 N   0  0  0  0  0  0  0  0  0  0  0  0
   -6.2662  -10.6300   -8.9834 C   0  0  0  0  0  0  0  0  0  0  0  0
   -7.2631   -9.8313   -8.1856 C   0  0  1  0  0  0  0  0  0  0  0  0
   -8.2465  -10.4995   -9.1700 C   0  0  0  0  0  0  0  0  0  0  0  0
   -7.4822  -10.2133   -6.8194 N   0  0  0  0  0  0  0  0  0  0  0  0
   -8.4891   -9.6373   -6.0060 C   0  0  0  0  0  0  0  0  0  0  0  0
   -8.6918   -8.3987   -6.1941 O   0  0  0  0  0  0  0  0  0  0  0  0
   -9.3022  -10.3292   -4.9897 C   0  0  0  0  0  0  0  0  0  0  0  0
   -9.4974   -9.5328   -3.8099 N   0  0  0  0  0  0  0  0  0  0  0  0
  -10.5294   -8.6582   -3.6890 C   0  0  0  0  0  0  0  0  0  0  0  0
  -10.4571   -8.0375   -2.4695 C   0  0  0  0  0  0  0  0  0  0  0  0
  -11.4055   -7.0194   -1.9626 C   0  0  0  0  0  0  0  0  0  0  0  0
  -12.2924   -7.3813   -1.1517 O   0  0  0  0  0  0  0  0  0  0  0  0
  -11.3381   -5.6755   -2.3603 N   0  0  0  0  0  0  0  0  0  0  0  0
  -10.3492   -5.2690   -3.3316 C   0  0  0  0  0  0  0  0  0  0  0  0
  -10.9306   -4.3092   -4.3478 C   0  0  0  0  0  0  0  0  0  0  0  0
  -11.4694   -3.1586   -3.5817 C   0  0  0  0  0  0  0  0  0  0  0  0
  -11.3110   -1.8790   -4.1371 C   0  0  0  0  0  0  0  0  0  0  0  0
  -10.6610   -1.8145   -5.3442 O   0  0  0  0  0  0  0  0  0  0  0  0
   -9.5424   -1.0313   -5.5875 C   0  0  0  0  0  0  0  0  0  0  0  0
  -11.8162   -0.8334   -3.4244 C   0  0  0  0  0  0  0  0  0  0  0  0
  -12.4544   -1.0129   -2.2133 C   0  0  0  0  0  0  0  0  0  0  0  0
  -12.5871   -2.2685   -1.7083 C   0  0  0  0  0  0  0  0  0  0  0  0
  -12.0941   -3.3580   -2.3898 C   0  0  0  0  0  0  0  0  0  0  0  0
  -12.2502   -4.7149   -1.8123 C   0  0  0  0  0  0  0  0  0  0  0  0
   -9.3540   -8.5424   -1.8257 C   0  0  0  0  0  0  0  0  0  0  0  0
   -8.7947   -8.2954   -0.5906 C   0  0  0  0  0  0  0  0  0  0  0  0
   -7.6573   -8.9847   -0.2292 C   0  0  0  0  0  0  0  0  0  0  0  0
   -6.8931   -8.6436    1.4715 Br  0  0  0  0  0  0  0  0  0  0  0  0
   -7.0554   -9.9235   -1.0734 C   0  0  0  0  0  0  0  0  0  0  0  0
   -7.6373  -10.1501   -2.3012 C   0  0  0  0  0  0  0  0  0  0  0  0
   -8.7796   -9.4720   -2.6908 C   0  0  0  0  0  0  0  0  0  0  0  0
  1  2  1  0
  2  3  1  0
  3  4  2  0
  3  5  1  0
  5  6  1  0
  5  8  1  0
  6  7  1  0
  7  8  1  0
  7  9  1  1
  9 10  1  0
 10 11  2  0
 10 12  1  0
 12 13  1  0
 13 14  1  0
 13 36  1  0
 14 15  2  0
 15 16  1  0
 15 30  1  0
 16 17  2  0
 16 18  1  0
 18 19  1  0
 18 29  1  0
 19 20  1  0
 20 21  1  0
 21 22  2  0
 21 28  1  0
 22 23  1  0
 22 25  1  0
 23 24  1  0
 25 26  2  0
 26 27  1  0
 27 28  2  0
 28 29  1  0
 30 31  1  0
 30 36  2  0
 31 32  2  0
 32 33  1  0
 32 34  1  0
 34 35  2  0
 35 36  1  0
M  END
$$$$
