
     RDKit          3D

 36 40  0  0  0  0  0  0  0  0999 V2000
   -6.8218  -13.0450  -15.5397 C   0  0  0  0  0  0  0  0  0  0  0  0
   -7.7050  -13.4083  -14.3819 C   0  0  0  0  0  0  0  0  0  0  0  0
   -6.9982  -13.6949  -13.1258 C   0  0  0  0  0  0  0  0  0  0  0  0
   -6.2583  -14.7303  -13.0877 O   0  0  0  0  0  0  0  0  0  0  0  0
   -7.0768  -12.9080  -11.9511 N   0  0  0  0  0  0  0  0  0  0  0  0
   -7.8616  -11.7364  -11.5949 C   0  0  0  0  0  0  0  0  0  0  0  0
   -7.7078  -12.0716  -10.1767 C   0  0  1  0  0  0  0  0  0  0  0  0
   -6.4967  -12.8496  -10.6309 C   0  0  0  0  0  0  0  0  0  0  0  0
   -7.4158  -11.0779   -9.1982 N   0  0  0  0  0  0  0  0  0  0  0  0
   -8.3393  -10.1473   -8.6631 C   0  0  0  0  0  0  0  0  0  0  0  0
   -9.5455  -10.4845   -8.6441 O   0  0  0  0  0  0  0  0  0  0  0  0
   -7.8953   -8.8286   -8.1472 C   0  0  0  0  0  0  0  0  0  0  0  0
   -8.6020   -8.3918   -6.9918 N   0  0  0  0  0  0  0  0  0  0  0  0
   -9.9294   -8.1695   -6.8565 C   0  0  0  0  0  0  0  0  0  0  0  0
  -10.2237   -7.7716   -5.5524 C   0  0  0  0  0  0  0  0  0  0  0  0
  -11.5193   -7.4513   -4.9863 C   0  0  0  0  0  0  0  0  0  0  0  0
  -12.4598   -8.2554   -5.1021 O   0  0  0  0  0  0  0  0  0  0  0  0
  -11.7095   -6.2298   -4.3067 N   0  0  0  0  0  0  0  0  0  0  0  0
  -10.6421   -5.5841   -3.5433 C   0  0  0  0  0  0  0  0  0  0  0  0
  -10.9981   -5.7702   -2.0960 C   0  0  0  0  0  0  0  0  0  0  0  0
  -12.4162   -5.3302   -1.8916 C   0  0  0  0  0  0  0  0  0  0  0  0
  -12.7888   -5.0363   -0.5689 C   0  0  0  0  0  0  0  0  0  0  0  0
  -11.8590   -5.1582    0.4518 O   0  0  0  0  0  0  0  0  0  0  0  0
  -12.0862   -6.0257    1.5344 C   0  0  0  0  0  0  0  0  0  0  0  0
  -14.0658   -4.6256   -0.2576 C   0  0  0  0  0  0  0  0  0  0  0  0
  -14.9602   -4.5156   -1.2980 C   0  0  0  0  0  0  0  0  0  0  0  0
  -14.6228   -4.7952   -2.5931 C   0  0  0  0  0  0  0  0  0  0  0  0
  -13.3325   -5.2101   -2.9083 C   0  0  0  0  0  0  0  0  0  0  0  0
  -12.9644   -5.5094   -4.3144 C   0  0  0  0  0  0  0  0  0  0  0  0
   -8.9863   -7.7666   -4.9067 C   0  0  0  0  0  0  0  0  0  0  0  0
   -8.6891   -7.4514   -3.6068 C   0  0  0  0  0  0  0  0  0  0  0  0
   -7.3727   -7.5225   -3.1987 C   0  0  0  0  0  0  0  0  0  0  0  0
   -6.9173   -7.0931   -1.3916 Br  0  0  0  0  0  0  0  0  0  0  0  0
   -6.3783   -7.8991   -4.0694 C   0  0  0  0  0  0  0  0  0  0  0  0
   -6.6970   -8.2099   -5.3649 C   0  0  0  0  0  0  0  0  0  0  0  0
   -8.0190   -8.1439   -5.7936 C   0  0  0  0  0  0  0  0  0  0  0  0
  1  2  1  6
  2  3  1  6
  3  4  2  0
  3  5  1  0
  6  5  1  1
  8  5  1  1
  6  7  1  0
  7  8  1  0
  7  9  1  1
  9 10  1  0
 10 11  2  0
 10 12  1  0
 12 13  1  6
 13 14  1  0
 13 36  1  0
 14 15  2  0
 15 16  1  0
 15 30  1  0
 16 17  2  0
 16 18  1  0
 19 18  1  1
 29 18  1  1
 19 20  1  0
 20 21  1  6
 21 22  2  0
 21 28  1  0
 22 23  1  0
 22 25  1  0
 24 23  1  6
 25 26  2  0
 26 27  1  0
 27 28  2  0
 28 29  1  0
 30 31  1  0
 30 36  2  0
 31 32  2  0
 32 33  1  0
 32 34  1  0
 34 35  2  0
 35 36  1  0
M  END
$$$$
