
     RDKit          3D

 36 40  0  0  0  0  0  0  0  0999 V2000
   -2.1525  -27.0489    5.0011 C   0  0  0  0  0  0  0  0  0  0  0  0
   -3.0098  -25.8255    4.8563 C   0  0  0  0  0  0  0  0  0  0  0  0
   -4.2067  -25.7999    5.7085 C   0  0  0  0  0  0  0  0  0  0  0  0
   -5.0951  -26.6890    5.5055 O   0  0  0  0  0  0  0  0  0  0  0  0
   -4.4504  -24.8604    6.7397 N   0  0  0  0  0  0  0  0  0  0  0  0
   -3.7931  -23.6218    7.1263 C   0  0  0  0  0  0  0  0  0  0  0  0
   -5.0284  -23.1758    7.7761 C   0  0  1  0  0  0  0  0  0  0  0  0
   -5.3709  -24.6450    7.8301 C   0  0  0  0  0  0  0  0  0  0  0  0
   -5.0184  -22.5432    9.0528 N   0  0  0  0  0  0  0  0  0  0  0  0
   -4.5896  -21.2197    9.3168 C   0  0  0  0  0  0  0  0  0  0  0  0
   -4.9683  -20.3266    8.5242 O   0  0  0  0  0  0  0  0  0  0  0  0
   -3.7277  -20.9057   10.4834 C   0  0  0  0  0  0  0  0  0  0  0  0
   -3.2192  -19.5766   10.4856 N   0  0  0  0  0  0  0  0  0  0  0  0
   -3.8715  -18.4301   10.1862 C   0  0  0  0  0  0  0  0  0  0  0  0
   -3.0198  -17.3353   10.3332 C   0  0  0  0  0  0  0  0  0  0  0  0
   -3.3231  -15.9326   10.1276 C   0  0  0  0  0  0  0  0  0  0  0  0
   -3.7103  -15.2379   11.0826 O   0  0  0  0  0  0  0  0  0  0  0  0
   -3.1789  -15.3604    8.8463 N   0  0  0  0  0  0  0  0  0  0  0  0
   -2.1711  -15.8213    7.8918 C   0  0  0  0  0  0  0  0  0  0  0  0
   -1.1224  -14.7470    7.8468 C   0  0  0  0  0  0  0  0  0  0  0  0
   -1.7978  -13.4281    7.6214 C   0  0  0  0  0  0  0  0  0  0  0  0
   -0.9829  -12.3893    7.1401 C   0  0  0  0  0  0  0  0  0  0  0  0
    0.3618  -12.6240    6.8995 O   0  0  0  0  0  0  0  0  0  0  0  0
    0.7820  -13.2680    5.7226 C   0  0  0  0  0  0  0  0  0  0  0  0
   -1.4907  -11.1324    6.8981 C   0  0  0  0  0  0  0  0  0  0  0  0
   -2.8304  -10.9386    7.1480 C   0  0  0  0  0  0  0  0  0  0  0  0
   -3.6444  -11.9323    7.6161 C   0  0  0  0  0  0  0  0  0  0  0  0
   -3.1319  -13.2027    7.8606 C   0  0  0  0  0  0  0  0  0  0  0  0
   -4.0159  -14.2829    8.3643 C   0  0  0  0  0  0  0  0  0  0  0  0
   -1.8078  -17.8946   10.7407 C   0  0  0  0  0  0  0  0  0  0  0  0
   -0.6212  -17.2736   11.0298 C   0  0  0  0  0  0  0  0  0  0  0  0
    0.4503  -18.0526   11.4167 C   0  0  0  0  0  0  0  0  0  0  0  0
    2.1229  -17.2234   11.8315 Br  0  0  0  0  0  0  0  0  0  0  0  0
    0.3375  -19.4190   11.5119 C   0  0  0  0  0  0  0  0  0  0  0  0
   -0.8579  -20.0201   11.2182 C   0  0  0  0  0  0  0  0  0  0  0  0
   -1.9487  -19.2501   10.8266 C   0  0  0  0  0  0  0  0  0  0  0  0
  1  2  1  6
  2  3  1  6
  3  4  2  0
  3  5  1  0
  6  5  1  1
  8  5  1  1
  6  7  1  0
  7  8  1  0
  7  9  1  1
  9 10  1  0
 10 11  2  0
 10 12  1  0
 12 13  1  6
 13 14  1  0
 13 36  1  0
 14 15  2  0
 15 16  1  0
 15 30  1  0
 16 17  2  0
 16 18  1  0
 19 18  1  1
 29 18  1  1
 19 20  1  0
 20 21  1  6
 21 22  2  0
 21 28  1  0
 22 23  1  0
 22 25  1  0
 24 23  1  6
 25 26  2  0
 26 27  1  0
 27 28  2  0
 28 29  1  0
 30 31  1  0
 30 36  2  0
 31 32  2  0
 32 33  1  0
 32 34  1  0
 34 35  2  0
 35 36  1  0
M  END
$$$$
