
     RDKit          3D

 36 40  0  0  0  0  0  0  0  0999 V2000
  -13.8473   -5.0328  -13.5105 C   0  0  0  0  0  0  0  0  0  0  0  0
  -14.7838   -4.9258  -12.3123 C   0  0  0  0  0  0  0  0  0  0  0  0
  -14.0491   -4.4837  -11.1032 C   0  0  0  0  0  0  0  0  0  0  0  0
  -13.5364   -3.3354  -11.0843 O   0  0  0  0  0  0  0  0  0  0  0  0
  -13.9208   -5.3263   -9.9863 N   0  0  0  0  0  0  0  0  0  0  0  0
  -13.2659   -5.2727   -8.6974 C   0  0  0  0  0  0  0  0  0  0  0  0
  -14.4156   -6.0921   -8.1730 C   0  0  1  0  0  0  0  0  0  0  0  0
  -14.3866   -6.6420   -9.6150 C   0  0  0  0  0  0  0  0  0  0  0  0
  -14.1258   -7.0883   -7.1811 N   0  0  0  0  0  0  0  0  0  0  0  0
  -13.2529   -6.8623   -6.0881 C   0  0  0  0  0  0  0  0  0  0  0  0
  -12.8932   -5.6562   -5.9254 O   0  0  0  0  0  0  0  0  0  0  0  0
  -12.7408   -7.8745   -5.1469 C   0  0  0  0  0  0  0  0  0  0  0  0
  -11.3758   -7.6309   -4.7707 N   0  0  0  0  0  0  0  0  0  0  0  0
  -10.3704   -7.5845   -5.6826 C   0  0  0  0  0  0  0  0  0  0  0  0
   -9.1847   -7.3464   -5.0383 C   0  0  0  0  0  0  0  0  0  0  0  0
   -7.8599   -7.2223   -5.6883 C   0  0  0  0  0  0  0  0  0  0  0  0
   -7.2134   -6.1587   -5.5276 O   0  0  0  0  0  0  0  0  0  0  0  0
   -7.3145   -8.2522   -6.4699 N   0  0  0  0  0  0  0  0  0  0  0  0
   -8.0700   -9.4661   -6.6759 C   0  0  0  0  0  0  0  0  0  0  0  0
   -7.9832   -9.9373   -8.1120 C   0  0  0  0  0  0  0  0  0  0  0  0
   -6.5411  -10.1172   -8.4108 C   0  0  0  0  0  0  0  0  0  0  0  0
   -6.1773  -11.2092   -9.2147 C   0  0  0  0  0  0  0  0  0  0  0  0
   -7.2001  -12.0166   -9.6458 O   0  0  0  0  0  0  0  0  0  0  0  0
   -7.0359  -13.0920  -10.5061 C   0  0  0  0  0  0  0  0  0  0  0  0
   -4.8501  -11.3576   -9.4848 C   0  0  0  0  0  0  0  0  0  0  0  0
   -3.9008  -10.4822   -8.9960 C   0  0  0  0  0  0  0  0  0  0  0  0
   -4.2935   -9.4369   -8.2200 C   0  0  0  0  0  0  0  0  0  0  0  0
   -5.6225   -9.2432   -7.9183 C   0  0  0  0  0  0  0  0  0  0  0  0
   -6.0203   -8.0966   -7.0662 C   0  0  0  0  0  0  0  0  0  0  0  0
   -9.4681   -7.2445   -3.6983 C   0  0  0  0  0  0  0  0  0  0  0  0
   -8.6835   -7.0132   -2.5893 C   0  0  0  0  0  0  0  0  0  0  0  0
   -9.2856   -6.9672   -1.3503 C   0  0  0  0  0  0  0  0  0  0  0  0
   -8.2028   -6.6462    0.1719 Br  0  0  0  0  0  0  0  0  0  0  0  0
  -10.6627   -7.1470   -1.1843 C   0  0  0  0  0  0  0  0  0  0  0  0
  -11.4215   -7.3755   -2.3110 C   0  0  0  0  0  0  0  0  0  0  0  0
  -10.8435   -7.4274   -3.5679 C   0  0  0  0  0  0  0  0  0  0  0  0
  1  2  1  0
  2  3  1  0
  3  4  2  0
  3  5  1  0
  5  6  1  0
  5  8  1  0
  6  7  1  0
  7  8  1  0
  7  9  1  1
  9 10  1  0
 10 11  2  0
 10 12  1  0
 12 13  1  0
 13 14  1  0
 13 36  1  0
 14 15  2  0
 15 16  1  0
 15 30  1  0
 16 17  2  0
 16 18  1  0
 18 19  1  0
 18 29  1  0
 19 20  1  0
 20 21  1  0
 21 22  2  0
 21 28  1  0
 22 23  1  0
 22 25  1  0
 23 24  1  0
 25 26  2  0
 26 27  1  0
 27 28  2  0
 28 29  1  0
 30 31  1  0
 30 36  2  0
 31 32  2  0
 32 33  1  0
 32 34  1  0
 34 35  2  0
 35 36  1  0
M  END
$$$$
