
     RDKit          3D

 36 40  0  0  0  0  0  0  0  0999 V2000
   -1.0915  -11.6009  -13.2865 C   0  0  0  0  0  0  0  0  0  0  0  0
   -1.8817  -11.6822  -12.0131 C   0  0  0  0  0  0  0  0  0  0  0  0
   -2.2573  -10.3866  -11.4300 C   0  0  0  0  0  0  0  0  0  0  0  0
   -1.3583   -9.4878  -11.3602 O   0  0  0  0  0  0  0  0  0  0  0  0
   -3.5440  -10.0594  -10.9375 N   0  0  0  0  0  0  0  0  0  0  0  0
   -4.7749  -10.8220  -10.7996 C   0  0  0  0  0  0  0  0  0  0  0  0
   -5.2190   -9.9041   -9.7472 C   0  0  1  0  0  0  0  0  0  0  0  0
   -4.2462   -8.9329  -10.3711 C   0  0  0  0  0  0  0  0  0  0  0  0
   -6.5570   -9.4177   -9.6914 N   0  0  0  0  0  0  0  0  0  0  0  0
   -7.5743   -9.8918   -8.8279 C   0  0  0  0  0  0  0  0  0  0  0  0
   -7.2112  -10.5200   -7.8068 O   0  0  0  0  0  0  0  0  0  0  0  0
   -9.0093   -9.6541   -9.1219 C   0  0  0  0  0  0  0  0  0  0  0  0
   -9.8531   -9.7229   -7.9780 N   0  0  0  0  0  0  0  0  0  0  0  0
   -9.9111   -8.8722   -6.9280 C   0  0  0  0  0  0  0  0  0  0  0  0
  -10.8918   -9.2828   -6.0252 C   0  0  0  0  0  0  0  0  0  0  0  0
  -11.2854   -8.6479   -4.7826 C   0  0  0  0  0  0  0  0  0  0  0  0
  -12.1093   -9.2056   -4.0379 O   0  0  0  0  0  0  0  0  0  0  0  0
  -10.7336   -7.4006   -4.4224 N   0  0  0  0  0  0  0  0  0  0  0  0
   -9.5054   -6.8841   -5.0256 C   0  0  0  0  0  0  0  0  0  0  0  0
   -8.4455   -6.9981   -3.9675 C   0  0  0  0  0  0  0  0  0  0  0  0
   -8.9610   -6.3762   -2.7050 C   0  0  0  0  0  0  0  0  0  0  0  0
   -7.9928   -6.0141   -1.7529 C   0  0  0  0  0  0  0  0  0  0  0  0
   -6.6504   -6.2367   -2.0169 O   0  0  0  0  0  0  0  0  0  0  0  0
   -5.9544   -7.2806   -1.3827 C   0  0  0  0  0  0  0  0  0  0  0  0
   -8.3465   -5.4376   -0.5534 C   0  0  0  0  0  0  0  0  0  0  0  0
   -9.6887   -5.2316   -0.3284 C   0  0  0  0  0  0  0  0  0  0  0  0
  -10.6500   -5.5745   -1.2381 C   0  0  0  0  0  0  0  0  0  0  0  0
  -10.2932   -6.1569   -2.4504 C   0  0  0  0  0  0  0  0  0  0  0  0
  -11.3358   -6.5252   -3.4401 C   0  0  0  0  0  0  0  0  0  0  0  0
  -11.4238  -10.4393   -6.5975 C   0  0  0  0  0  0  0  0  0  0  0  0
  -12.4210  -11.2558   -6.1325 C   0  0  0  0  0  0  0  0  0  0  0  0
  -12.7751  -12.3551   -6.8880 C   0  0  0  0  0  0  0  0  0  0  0  0
  -14.1642  -13.5177   -6.2747 Br  0  0  0  0  0  0  0  0  0  0  0  0
  -12.1470  -12.6308   -8.0790 C   0  0  0  0  0  0  0  0  0  0  0  0
  -11.1523  -11.8016   -8.5257 C   0  0  0  0  0  0  0  0  0  0  0  0
  -10.7825  -10.6887   -7.7770 C   0  0  0  0  0  0  0  0  0  0  0  0
  1  2  1  6
  2  3  1  6
  3  4  2  0
  3  5  1  0
  6  5  1  1
  8  5  1  1
  6  7  1  0
  7  8  1  0
  7  9  1  6
  9 10  1  0
 10 11  2  0
 10 12  1  0
 12 13  1  6
 13 14  1  0
 13 36  1  0
 14 15  2  0
 15 16  1  0
 15 30  1  0
 16 17  2  0
 16 18  1  0
 19 18  1  1
 29 18  1  1
 19 20  1  0
 20 21  1  6
 21 22  2  0
 21 28  1  0
 22 23  1  0
 22 25  1  0
 24 23  1  6
 25 26  2  0
 26 27  1  0
 27 28  2  0
 28 29  1  0
 30 31  1  0
 30 36  2  0
 31 32  2  0
 32 33  1  0
 32 34  1  0
 34 35  2  0
 35 36  1  0
M  END
$$$$
