
     RDKit          3D

 36 40  0  0  0  0  0  0  0  0999 V2000
    1.2378  -23.7954    7.9513 C   0  0  0  0  0  0  0  0  0  0  0  0
   -0.0794  -23.7943    8.6706 C   0  0  0  0  0  0  0  0  0  0  0  0
   -0.1446  -22.9178    9.8484 C   0  0  0  0  0  0  0  0  0  0  0  0
    0.9137  -22.7831   10.5433 O   0  0  0  0  0  0  0  0  0  0  0  0
   -1.2957  -22.2105   10.2725 N   0  0  0  0  0  0  0  0  0  0  0  0
   -2.6846  -22.2297    9.8408 C   0  0  0  0  0  0  0  0  0  0  0  0
   -3.0927  -21.7136   11.1502 C   0  0  1  0  0  0  0  0  0  0  0  0
   -1.6718  -21.2128   11.2450 C   0  0  0  0  0  0  0  0  0  0  0  0
   -4.0714  -20.6863   11.2798 N   0  0  0  0  0  0  0  0  0  0  0  0
   -5.0974  -20.6395   12.2547 C   0  0  0  0  0  0  0  0  0  0  0  0
   -4.7926  -20.9742   13.4227 O   0  0  0  0  0  0  0  0  0  0  0  0
   -6.4751  -20.2123   11.9057 C   0  0  0  0  0  0  0  0  0  0  0  0
   -6.5300  -19.0507   11.0854 N   0  0  0  0  0  0  0  0  0  0  0  0
   -5.8091  -17.9117   11.1975 C   0  0  0  0  0  0  0  0  0  0  0  0
   -6.1471  -17.0219   10.1779 C   0  0  0  0  0  0  0  0  0  0  0  0
   -5.6021  -15.7023    9.9257 C   0  0  0  0  0  0  0  0  0  0  0  0
   -5.7799  -14.7922   10.7530 O   0  0  0  0  0  0  0  0  0  0  0  0
   -4.8729  -15.4546    8.7438 N   0  0  0  0  0  0  0  0  0  0  0  0
   -4.0707  -16.4868    8.0879 C   0  0  0  0  0  0  0  0  0  0  0  0
   -2.6368  -16.1256    8.3513 C   0  0  0  0  0  0  0  0  0  0  0  0
   -2.4294  -14.6884    7.9799 C   0  0  0  0  0  0  0  0  0  0  0  0
   -1.0994  -14.2915    7.7595 C   0  0  0  0  0  0  0  0  0  0  0  0
   -0.0747  -15.2162    7.8866 O   0  0  0  0  0  0  0  0  0  0  0  0
    0.5361  -15.7762    6.7510 C   0  0  0  0  0  0  0  0  0  0  0  0
   -0.7849  -12.9956    7.4162 C   0  0  0  0  0  0  0  0  0  0  0  0
   -1.8295  -12.1070    7.2986 C   0  0  0  0  0  0  0  0  0  0  0  0
   -3.1316  -12.4678    7.5075 C   0  0  0  0  0  0  0  0  0  0  0  0
   -3.4501  -13.7773    7.8542 C   0  0  0  0  0  0  0  0  0  0  0  0
   -4.8635  -14.1706    8.0767 C   0  0  0  0  0  0  0  0  0  0  0  0
   -7.1212  -17.6971    9.4409 C   0  0  0  0  0  0  0  0  0  0  0  0
   -7.8030  -17.2862    8.3256 C   0  0  0  0  0  0  0  0  0  0  0  0
   -8.7304  -18.1441    7.7702 C   0  0  0  0  0  0  0  0  0  0  0  0
   -9.7007  -17.6088    6.2115 Br  0  0  0  0  0  0  0  0  0  0  0  0
   -8.9702  -19.3819    8.3170 C   0  0  0  0  0  0  0  0  0  0  0  0
   -8.2778  -19.7731    9.4324 C   0  0  0  0  0  0  0  0  0  0  0  0
   -7.3389  -18.9212   10.0056 C   0  0  0  0  0  0  0  0  0  0  0  0
  1  2  1  6
  2  3  1  6
  3  4  2  0
  3  5  1  0
  6  5  1  1
  8  5  1  1
  6  7  1  0
  7  8  1  0
  7  9  1  6
  9 10  1  0
 10 11  2  0
 10 12  1  0
 12 13  1  6
 13 14  1  0
 13 36  1  0
 14 15  2  0
 15 16  1  0
 15 30  1  0
 16 17  2  0
 16 18  1  0
 19 18  1  1
 29 18  1  1
 19 20  1  0
 20 21  1  6
 21 22  2  0
 21 28  1  0
 22 23  1  0
 22 25  1  0
 24 23  1  6
 25 26  2  0
 26 27  1  0
 27 28  2  0
 28 29  1  0
 30 31  1  0
 30 36  2  0
 31 32  2  0
 32 33  1  0
 32 34  1  0
 34 35  2  0
 35 36  1  0
M  END
$$$$
