
     RDKit          3D

 36 40  0  0  0  0  0  0  0  0999 V2000
   -4.0971  -10.1823  -14.8902 C   0  0  0  0  0  0  0  0  0  0  0  0
   -5.2639  -10.0133  -13.9236 C   0  0  0  0  0  0  0  0  0  0  0  0
   -5.1653  -10.9752  -12.8002 C   0  0  0  0  0  0  0  0  0  0  0  0
   -4.6034  -12.0841  -12.9916 O   0  0  0  0  0  0  0  0  0  0  0  0
   -5.6875  -10.6642  -11.5336 N   0  0  0  0  0  0  0  0  0  0  0  0
   -6.4070   -9.5616  -10.9338 C   0  0  0  0  0  0  0  0  0  0  0  0
   -7.0968  -10.5887  -10.0751 C   0  0  1  0  0  0  0  0  0  0  0  0
   -5.7418  -11.3087  -10.2423 C   0  0  0  0  0  0  0  0  0  0  0  0
   -7.3855  -10.2341   -8.7145 N   0  0  0  0  0  0  0  0  0  0  0  0
   -7.9665   -8.9963   -8.3431 C   0  0  0  0  0  0  0  0  0  0  0  0
   -9.0620   -8.7196   -8.9208 O   0  0  0  0  0  0  0  0  0  0  0  0
   -7.4285   -8.0281   -7.3706 C   0  0  0  0  0  0  0  0  0  0  0  0
   -8.2006   -7.9821   -6.1598 N   0  0  0  0  0  0  0  0  0  0  0  0
   -9.5544   -8.0902   -6.1597 C   0  0  0  0  0  0  0  0  0  0  0  0
  -10.0159   -8.0037   -4.8723 C   0  0  0  0  0  0  0  0  0  0  0  0
  -11.4355   -8.0814   -4.4581 C   0  0  0  0  0  0  0  0  0  0  0  0
  -12.0801   -9.1237   -4.7287 O   0  0  0  0  0  0  0  0  0  0  0  0
  -12.0712   -7.0317   -3.7777 N   0  0  0  0  0  0  0  0  0  0  0  0
  -11.4097   -5.7526   -3.6644 C   0  0  0  0  0  0  0  0  0  0  0  0
  -12.3716   -4.6071   -3.8980 C   0  0  0  0  0  0  0  0  0  0  0  0
  -13.4630   -4.7634   -2.9051 C   0  0  0  0  0  0  0  0  0  0  0  0
  -13.9817   -3.5958   -2.3233 C   0  0  0  0  0  0  0  0  0  0  0  0
  -13.4194   -2.4110   -2.7282 O   0  0  0  0  0  0  0  0  0  0  0  0
  -12.7589   -1.5315   -1.8833 C   0  0  0  0  0  0  0  0  0  0  0  0
  -14.9873   -3.7554   -1.4178 C   0  0  0  0  0  0  0  0  0  0  0  0
  -15.4792   -5.0009   -1.0815 C   0  0  0  0  0  0  0  0  0  0  0  0
  -14.9494   -6.1081   -1.6669 C   0  0  0  0  0  0  0  0  0  0  0  0
  -13.9322   -6.0001   -2.5878 C   0  0  0  0  0  0  0  0  0  0  0  0
  -13.3716   -7.2257   -3.2067 C   0  0  0  0  0  0  0  0  0  0  0  0
   -8.9194   -7.8381   -4.0619 C   0  0  0  0  0  0  0  0  0  0  0  0
   -8.7741   -7.6969   -2.6989 C   0  0  0  0  0  0  0  0  0  0  0  0
   -7.5060   -7.5460   -2.1805 C   0  0  0  0  0  0  0  0  0  0  0  0
   -7.3107   -7.3548   -0.3048 Br  0  0  0  0  0  0  0  0  0  0  0  0
   -6.3665   -7.5321   -2.9915 C   0  0  0  0  0  0  0  0  0  0  0  0
   -6.5428   -7.6762   -4.3500 C   0  0  0  0  0  0  0  0  0  0  0  0
   -7.8047   -7.8290   -4.8984 C   0  0  0  0  0  0  0  0  0  0  0  0
  1  2  1  0
  2  3  1  0
  3  4  2  0
  3  5  1  0
  5  6  1  0
  5  8  1  0
  6  7  1  0
  7  8  1  0
  7  9  1  1
  9 10  1  0
 10 11  2  0
 10 12  1  0
 12 13  1  0
 13 14  1  0
 13 36  1  0
 14 15  2  0
 15 16  1  0
 15 30  1  0
 16 17  2  0
 16 18  1  0
 18 19  1  0
 18 29  1  0
 19 20  1  0
 20 21  1  0
 21 22  2  0
 21 28  1  0
 22 23  1  0
 22 25  1  0
 23 24  1  0
 25 26  2  0
 26 27  1  0
 27 28  2  0
 28 29  1  0
 30 31  1  0
 30 36  2  0
 31 32  2  0
 32 33  1  0
 32 34  1  0
 34 35  2  0
 35 36  1  0
M  END
$$$$
