
     RDKit          3D

 36 40  0  0  0  0  0  0  0  0999 V2000
  -12.2786  -22.4515    3.9091 C   0  0  0  0  0  0  0  0  0  0  0  0
  -11.4361  -21.6688    4.8735 C   0  0  0  0  0  0  0  0  0  0  0  0
  -11.8358  -21.7822    6.2832 C   0  0  0  0  0  0  0  0  0  0  0  0
  -12.8843  -22.4543    6.5472 O   0  0  0  0  0  0  0  0  0  0  0  0
  -11.1447  -21.1998    7.3733 N   0  0  0  0  0  0  0  0  0  0  0  0
  -11.2957  -21.3127    8.8155 C   0  0  0  0  0  0  0  0  0  0  0  0
   -9.8982  -20.9070    8.9879 C   0  0  1  0  0  0  0  0  0  0  0  0
  -10.0483  -20.2935    7.6169 C   0  0  0  0  0  0  0  0  0  0  0  0
   -9.5059  -19.9753    9.9920 N   0  0  0  0  0  0  0  0  0  0  0  0
   -8.9075  -18.7129    9.7606 C   0  0  0  0  0  0  0  0  0  0  0  0
   -8.6428  -18.4141    8.5733 O   0  0  0  0  0  0  0  0  0  0  0  0
   -8.6070  -17.7845   10.8786 C   0  0  0  0  0  0  0  0  0  0  0  0
   -7.2347  -17.4200   10.9748 N   0  0  0  0  0  0  0  0  0  0  0  0
   -6.2411  -17.6581   10.0884 C   0  0  0  0  0  0  0  0  0  0  0  0
   -5.0415  -17.1144   10.5475 C   0  0  0  0  0  0  0  0  0  0  0  0
   -3.7454  -17.1322    9.8981 C   0  0  0  0  0  0  0  0  0  0  0  0
   -3.1239  -16.0691    9.7305 O   0  0  0  0  0  0  0  0  0  0  0  0
   -3.1937  -18.3537    9.4583 N   0  0  0  0  0  0  0  0  0  0  0  0
   -3.4936  -19.6281   10.1102 C   0  0  0  0  0  0  0  0  0  0  0  0
   -2.2503  -20.0112   10.8607 C   0  0  0  0  0  0  0  0  0  0  0  0
   -1.0811  -19.9216    9.9272 C   0  0  0  0  0  0  0  0  0  0  0  0
    0.0728  -20.6262   10.3105 C   0  0  0  0  0  0  0  0  0  0  0  0
    0.0765  -21.3512   11.4919 O   0  0  0  0  0  0  0  0  0  0  0  0
    0.6315  -22.6417   11.5442 C   0  0  0  0  0  0  0  0  0  0  0  0
    1.2106  -20.6158    9.5349 C   0  0  0  0  0  0  0  0  0  0  0  0
    1.1680  -19.8856    8.3688 C   0  0  0  0  0  0  0  0  0  0  0  0
    0.0581  -19.1919    7.9735 C   0  0  0  0  0  0  0  0  0  0  0  0
   -1.0920  -19.2022    8.7567 C   0  0  0  0  0  0  0  0  0  0  0  0
   -2.2984  -18.4531    8.3259 C   0  0  0  0  0  0  0  0  0  0  0  0
   -5.3739  -16.5319   11.7714 C   0  0  0  0  0  0  0  0  0  0  0  0
   -4.5734  -15.8565   12.6549 C   0  0  0  0  0  0  0  0  0  0  0  0
   -5.1415  -15.3672   13.8136 C   0  0  0  0  0  0  0  0  0  0  0  0
   -4.0583  -14.4165   15.0707 Br  0  0  0  0  0  0  0  0  0  0  0  0
   -6.4770  -15.5493   14.0820 C   0  0  0  0  0  0  0  0  0  0  0  0
   -7.2596  -16.2276   13.1854 C   0  0  0  0  0  0  0  0  0  0  0  0
   -6.7037  -16.7277   12.0120 C   0  0  0  0  0  0  0  0  0  0  0  0
  1  2  1  6
  2  3  1  6
  3  4  2  0
  3  5  1  0
  6  5  1  1
  8  5  1  1
  6  7  1  0
  7  8  1  0
  7  9  1  1
  9 10  1  0
 10 11  2  0
 10 12  1  0
 12 13  1  6
 13 14  1  0
 13 36  1  0
 14 15  2  0
 15 16  1  0
 15 30  1  0
 16 17  2  0
 16 18  1  0
 19 18  1  1
 29 18  1  1
 19 20  1  0
 20 21  1  6
 21 22  2  0
 21 28  1  0
 22 23  1  0
 22 25  1  0
 24 23  1  6
 25 26  2  0
 26 27  1  0
 27 28  2  0
 28 29  1  0
 30 31  1  0
 30 36  2  0
 31 32  2  0
 32 33  1  0
 32 34  1  0
 34 35  2  0
 35 36  1  0
M  END
$$$$
