
     RDKit          3D

 36 40  0  0  0  0  0  0  0  0999 V2000
   -1.2642  -26.9911   -0.7670 C   0  0  0  0  0  0  0  0  0  0  0  0
   -0.8992  -25.9766    0.2771 C   0  0  0  0  0  0  0  0  0  0  0  0
   -1.5534  -26.1615    1.5801 C   0  0  0  0  0  0  0  0  0  0  0  0
   -1.3248  -27.2459    2.2067 O   0  0  0  0  0  0  0  0  0  0  0  0
   -2.4211  -25.2258    2.1939 N   0  0  0  0  0  0  0  0  0  0  0  0
   -3.1081  -25.2054    3.4758 C   0  0  0  0  0  0  0  0  0  0  0  0
   -3.1835  -23.7437    3.4057 C   0  0  1  0  0  0  0  0  0  0  0  0
   -3.0186  -23.9414    1.9183 C   0  0  0  0  0  0  0  0  0  0  0  0
   -4.3677  -23.0356    3.7611 N   0  0  0  0  0  0  0  0  0  0  0  0
   -4.4169  -21.7986    4.4486 C   0  0  0  0  0  0  0  0  0  0  0  0
   -3.3233  -21.2563    4.7298 O   0  0  0  0  0  0  0  0  0  0  0  0
   -5.7102  -21.1726    4.8198 C   0  0  0  0  0  0  0  0  0  0  0  0
   -5.5793  -19.8965    5.4360 N   0  0  0  0  0  0  0  0  0  0  0  0
   -5.2090  -19.6140    6.7059 C   0  0  0  0  0  0  0  0  0  0  0  0
   -5.1819  -18.2340    6.9072 C   0  0  0  0  0  0  0  0  0  0  0  0
   -4.8253  -17.5133    8.1136 C   0  0  0  0  0  0  0  0  0  0  0  0
   -5.0910  -18.0005    9.2255 O   0  0  0  0  0  0  0  0  0  0  0  0
   -4.1791  -16.2626    8.0228 N   0  0  0  0  0  0  0  0  0  0  0  0
   -3.4021  -15.8661    6.8489 C   0  0  0  0  0  0  0  0  0  0  0  0
   -1.9611  -15.9215    7.2688 C   0  0  0  0  0  0  0  0  0  0  0  0
   -1.8050  -15.1530    8.5460 C   0  0  0  0  0  0  0  0  0  0  0  0
   -0.4998  -14.7418    8.8658 C   0  0  0  0  0  0  0  0  0  0  0  0
    0.5480  -15.0509    8.0127 O   0  0  0  0  0  0  0  0  0  0  0  0
    0.9859  -16.3780    7.8599 C   0  0  0  0  0  0  0  0  0  0  0  0
   -0.2324  -14.0321   10.0152 C   0  0  0  0  0  0  0  0  0  0  0  0
   -1.2988  -13.7434   10.8362 C   0  0  0  0  0  0  0  0  0  0  0  0
   -2.5777  -14.1317   10.5479 C   0  0  0  0  0  0  0  0  0  0  0  0
   -2.8485  -14.8486    9.3865 C   0  0  0  0  0  0  0  0  0  0  0  0
   -4.2370  -15.2664    9.0707 C   0  0  0  0  0  0  0  0  0  0  0  0
   -5.5612  -17.6991    5.6752 C   0  0  0  0  0  0  0  0  0  0  0  0
   -5.7022  -16.3868    5.3074 C   0  0  0  0  0  0  0  0  0  0  0  0
   -6.0937  -16.1060    4.0141 C   0  0  0  0  0  0  0  0  0  0  0  0
   -6.2992  -14.2868    3.4610 Br  0  0  0  0  0  0  0  0  0  0  0  0
   -6.3383  -17.1130    3.1113 C   0  0  0  0  0  0  0  0  0  0  0  0
   -6.1915  -18.4184    3.4996 C   0  0  0  0  0  0  0  0  0  0  0  0
   -5.7974  -18.7199    4.7995 C   0  0  0  0  0  0  0  0  0  0  0  0
  1  2  1  6
  2  3  1  6
  3  4  2  0
  3  5  1  0
  6  5  1  1
  8  5  1  1
  6  7  1  0
  7  8  1  0
  7  9  1  6
  9 10  1  0
 10 11  2  0
 10 12  1  0
 12 13  1  6
 13 14  1  0
 13 36  1  0
 14 15  2  0
 15 16  1  0
 15 30  1  0
 16 17  2  0
 16 18  1  0
 19 18  1  1
 29 18  1  1
 19 20  1  0
 20 21  1  6
 21 22  2  0
 21 28  1  0
 22 23  1  0
 22 25  1  0
 24 23  1  6
 25 26  2  0
 26 27  1  0
 27 28  2  0
 28 29  1  0
 30 31  1  0
 30 36  2  0
 31 32  2  0
 32 33  1  0
 32 34  1  0
 34 35  2  0
 35 36  1  0
M  END
$$$$
