
     RDKit          3D

 36 40  0  0  0  0  0  0  0  0999 V2000
   -8.0460   -5.6843   -7.3428 C   0  0  0  0  0  0  0  0  0  0  0  0
   -8.3703   -6.6302   -6.2237 C   0  0  0  0  0  0  0  0  0  0  0  0
   -7.3134   -6.7859   -5.2144 C   0  0  0  0  0  0  0  0  0  0  0  0
   -6.1877   -6.2396   -5.4494 O   0  0  0  0  0  0  0  0  0  0  0  0
   -7.4493   -7.4989   -3.9985 N   0  0  0  0  0  0  0  0  0  0  0  0
   -8.5902   -8.0988   -3.3247 C   0  0  0  0  0  0  0  0  0  0  0  0
   -7.6855   -9.0041   -2.6112 C   0  0  1  0  0  0  0  0  0  0  0  0
   -6.6315   -7.9640   -2.9042 C   0  0  0  0  0  0  0  0  0  0  0  0
   -7.8441   -9.2829   -1.2229 N   0  0  0  0  0  0  0  0  0  0  0  0
   -6.9215   -9.9845   -0.4094 C   0  0  0  0  0  0  0  0  0  0  0  0
   -5.7545  -10.1117   -0.8466 O   0  0  0  0  0  0  0  0  0  0  0  0
   -7.3219  -10.5452    0.9050 C   0  0  0  0  0  0  0  0  0  0  0  0
   -6.4343  -11.5391    1.4044 N   0  0  0  0  0  0  0  0  0  0  0  0
   -5.4501  -11.3981    2.3215 C   0  0  0  0  0  0  0  0  0  0  0  0
   -4.8247  -12.6231    2.5536 C   0  0  0  0  0  0  0  0  0  0  0  0
   -3.7377  -12.9130    3.4679 C   0  0  0  0  0  0  0  0  0  0  0  0
   -2.5701  -12.9591    3.0446 O   0  0  0  0  0  0  0  0  0  0  0  0
   -4.0070  -13.1421    4.8336 N   0  0  0  0  0  0  0  0  0  0  0  0
   -5.1154  -12.4927    5.5327 C   0  0  0  0  0  0  0  0  0  0  0  0
   -4.4913  -11.4639    6.4316 C   0  0  0  0  0  0  0  0  0  0  0  0
   -3.4050  -12.1206    7.2285 C   0  0  0  0  0  0  0  0  0  0  0  0
   -2.9994  -11.4485    8.3941 C   0  0  0  0  0  0  0  0  0  0  0  0
   -3.6045  -10.2518    8.7450 O   0  0  0  0  0  0  0  0  0  0  0  0
   -3.0040   -9.0206    8.4293 C   0  0  0  0  0  0  0  0  0  0  0  0
   -2.0076  -11.9533    9.2051 C   0  0  0  0  0  0  0  0  0  0  0  0
   -1.4316  -13.1441    8.8242 C   0  0  0  0  0  0  0  0  0  0  0  0
   -1.8082  -13.8175    7.6955 C   0  0  0  0  0  0  0  0  0  0  0  0
   -2.8104  -13.3079    6.8757 C   0  0  0  0  0  0  0  0  0  0  0  0
   -3.2227  -14.0407    5.6528 C   0  0  0  0  0  0  0  0  0  0  0  0
   -5.4949  -13.5157    1.7155 C   0  0  0  0  0  0  0  0  0  0  0  0
   -5.2895  -14.8589    1.5397 C   0  0  0  0  0  0  0  0  0  0  0  0
   -6.0916  -15.5336    0.6419 C   0  0  0  0  0  0  0  0  0  0  0  0
   -5.8384  -17.4096    0.3701 Br  0  0  0  0  0  0  0  0  0  0  0  0
   -7.0744  -14.8807   -0.0628 C   0  0  0  0  0  0  0  0  0  0  0  0
   -7.2630  -13.5373    0.1279 C   0  0  0  0  0  0  0  0  0  0  0  0
   -6.4637  -12.8412    1.0292 C   0  0  0  0  0  0  0  0  0  0  0  0
  1  2  1  6
  2  3  1  6
  3  4  2  0
  3  5  1  0
  6  5  1  1
  8  5  1  1
  6  7  1  0
  7  8  1  0
  7  9  1  1
  9 10  1  0
 10 11  2  0
 10 12  1  0
 12 13  1  6
 13 14  1  0
 13 36  1  0
 14 15  2  0
 15 16  1  0
 15 30  1  0
 16 17  2  0
 16 18  1  0
 19 18  1  1
 29 18  1  1
 19 20  1  0
 20 21  1  6
 21 22  2  0
 21 28  1  0
 22 23  1  0
 22 25  1  0
 24 23  1  6
 25 26  2  0
 26 27  1  0
 27 28  2  0
 28 29  1  0
 30 31  1  0
 30 36  2  0
 31 32  2  0
 32 33  1  0
 32 34  1  0
 34 35  2  0
 35 36  1  0
M  END
$$$$
