
     RDKit          3D

 36 40  0  0  0  0  0  0  0  0999 V2000
   -1.3971  -26.6580    5.1030 C   0  0  0  0  0  0  0  0  0  0  0  0
   -2.8684  -26.3645    5.1424 C   0  0  0  0  0  0  0  0  0  0  0  0
   -3.4531  -26.2938    6.4888 C   0  0  0  0  0  0  0  0  0  0  0  0
   -2.9771  -27.0680    7.3804 O   0  0  0  0  0  0  0  0  0  0  0  0
   -4.5079  -25.4305    6.8726 N   0  0  0  0  0  0  0  0  0  0  0  0
   -4.5713  -24.0018    7.1380 C   0  0  0  0  0  0  0  0  0  0  0  0
   -6.0075  -24.0174    6.8476 C   0  0  1  0  0  0  0  0  0  0  0  0
   -5.9192  -25.4898    7.1686 C   0  0  0  0  0  0  0  0  0  0  0  0
   -6.9441  -23.3106    7.6560 N   0  0  0  0  0  0  0  0  0  0  0  0
   -7.2345  -21.9274    7.5683 C   0  0  0  0  0  0  0  0  0  0  0  0
   -6.8551  -21.3274    6.5362 O   0  0  0  0  0  0  0  0  0  0  0  0
   -7.9573  -21.2200    8.6542 C   0  0  0  0  0  0  0  0  0  0  0  0
   -7.6267  -19.8403    8.7658 N   0  0  0  0  0  0  0  0  0  0  0  0
   -6.6011  -19.1756    8.1862 C   0  0  0  0  0  0  0  0  0  0  0  0
   -6.6424  -17.8248    8.5313 C   0  0  0  0  0  0  0  0  0  0  0  0
   -5.7421  -16.7676    8.1145 C   0  0  0  0  0  0  0  0  0  0  0  0
   -6.1999  -15.7343    7.5978 O   0  0  0  0  0  0  0  0  0  0  0  0
   -4.3508  -16.9140    8.2958 N   0  0  0  0  0  0  0  0  0  0  0  0
   -3.7823  -17.8075    9.3045 C   0  0  0  0  0  0  0  0  0  0  0  0
   -3.2373  -16.9178   10.3849 C   0  0  0  0  0  0  0  0  0  0  0  0
   -2.3652  -15.8759    9.7522 C   0  0  0  0  0  0  0  0  0  0  0  0
   -1.4534  -15.2306   10.6048 C   0  0  0  0  0  0  0  0  0  0  0  0
   -1.4001  -15.5777   11.9457 O   0  0  0  0  0  0  0  0  0  0  0  0
   -0.3686  -16.3961   12.4381 C   0  0  0  0  0  0  0  0  0  0  0  0
   -0.6026  -14.2536   10.1380 C   0  0  0  0  0  0  0  0  0  0  0  0
   -0.6845  -13.9373    8.8008 C   0  0  0  0  0  0  0  0  0  0  0  0
   -1.5624  -14.5503    7.9506 C   0  0  0  0  0  0  0  0  0  0  0  0
   -2.4222  -15.5377    8.4217 C   0  0  0  0  0  0  0  0  0  0  0  0
   -3.3722  -16.2065    7.4985 C   0  0  0  0  0  0  0  0  0  0  0  0
   -7.7607  -17.7152    9.3592 C   0  0  0  0  0  0  0  0  0  0  0  0
   -8.2703  -16.6074    9.9840 C   0  0  0  0  0  0  0  0  0  0  0  0
   -9.4013  -16.7543   10.7612 C   0  0  0  0  0  0  0  0  0  0  0  0
  -10.1451  -15.2316   11.6477 Br  0  0  0  0  0  0  0  0  0  0  0  0
  -10.0072  -17.9789   10.9098 C   0  0  0  0  0  0  0  0  0  0  0  0
   -9.4813  -19.0738   10.2764 C   0  0  0  0  0  0  0  0  0  0  0  0
   -8.3417  -18.9442    9.4888 C   0  0  0  0  0  0  0  0  0  0  0  0
  1  2  1  6
  2  3  1  6
  3  4  2  0
  3  5  1  0
  6  5  1  1
  8  5  1  1
  6  7  1  0
  7  8  1  0
  7  9  1  1
  9 10  1  0
 10 11  2  0
 10 12  1  0
 12 13  1  6
 13 14  1  0
 13 36  1  0
 14 15  2  0
 15 16  1  0
 15 30  1  0
 16 17  2  0
 16 18  1  0
 19 18  1  1
 29 18  1  1
 19 20  1  0
 20 21  1  6
 21 22  2  0
 21 28  1  0
 22 23  1  0
 22 25  1  0
 24 23  1  6
 25 26  2  0
 26 27  1  0
 27 28  2  0
 28 29  1  0
 30 31  1  0
 30 36  2  0
 31 32  2  0
 32 33  1  0
 32 34  1  0
 34 35  2  0
 35 36  1  0
M  END
$$$$
