
     RDKit          3D

 36 40  0  0  0  0  0  0  0  0999 V2000
   -0.5776  -11.1292  -13.4661 C   0  0  0  0  0  0  0  0  0  0  0  0
   -1.9900  -11.4980  -13.8147 C   0  0  0  0  0  0  0  0  0  0  0  0
   -2.7730  -12.0739  -12.7124 C   0  0  0  0  0  0  0  0  0  0  0  0
   -2.4402  -13.2288  -12.2925 O   0  0  0  0  0  0  0  0  0  0  0  0
   -3.8720  -11.4435  -12.0801 N   0  0  0  0  0  0  0  0  0  0  0  0
   -4.6981  -11.8045  -10.9386 C   0  0  0  0  0  0  0  0  0  0  0  0
   -5.0454  -10.3933  -10.7510 C   0  0  1  0  0  0  0  0  0  0  0  0
   -4.6691  -10.2469  -12.2055 C   0  0  0  0  0  0  0  0  0  0  0  0
   -6.3779   -9.9808  -10.4603 N   0  0  0  0  0  0  0  0  0  0  0  0
   -6.7998   -9.3153   -9.2837 C   0  0  0  0  0  0  0  0  0  0  0  0
   -5.9128   -8.9887   -8.4617 O   0  0  0  0  0  0  0  0  0  0  0  0
   -8.2326   -9.0185   -9.0363 C   0  0  0  0  0  0  0  0  0  0  0  0
   -8.4734   -8.2877   -7.8391 N   0  0  0  0  0  0  0  0  0  0  0  0
   -8.2189   -8.6617   -6.5643 C   0  0  0  0  0  0  0  0  0  0  0  0
   -8.5809   -7.6458   -5.6797 C   0  0  0  0  0  0  0  0  0  0  0  0
   -8.4607   -7.6334   -4.2350 C   0  0  0  0  0  0  0  0  0  0  0  0
   -7.4257   -8.0630   -3.6976 O   0  0  0  0  0  0  0  0  0  0  0  0
   -9.5168   -7.1349   -3.4438 N   0  0  0  0  0  0  0  0  0  0  0  0
   -9.4823   -5.8029   -2.8408 C   0  0  0  0  0  0  0  0  0  0  0  0
   -9.2634   -6.0201   -1.3708 C   0  0  0  0  0  0  0  0  0  0  0  0
  -10.2648   -7.0217   -0.8808 C   0  0  0  0  0  0  0  0  0  0  0  0
  -10.4935   -7.0415    0.5057 C   0  0  0  0  0  0  0  0  0  0  0  0
   -9.8094   -6.1610    1.3291 O   0  0  0  0  0  0  0  0  0  0  0  0
   -9.6908   -4.8017    0.9907 C   0  0  0  0  0  0  0  0  0  0  0  0
  -11.3888   -7.9207    1.0728 C   0  0  0  0  0  0  0  0  0  0  0  0
  -12.0494   -8.7784    0.2227 C   0  0  0  0  0  0  0  0  0  0  0  0
  -11.8451   -8.7792   -1.1292 C   0  0  0  0  0  0  0  0  0  0  0  0
  -10.9406   -7.8908   -1.7028 C   0  0  0  0  0  0  0  0  0  0  0  0
  -10.7218   -7.8881   -3.1706 C   0  0  0  0  0  0  0  0  0  0  0  0
   -9.0725   -6.6317   -6.5031 C   0  0  0  0  0  0  0  0  0  0  0  0
   -9.5672   -5.4010   -6.1597 C   0  0  0  0  0  0  0  0  0  0  0  0
   -9.9986   -4.5625   -7.1675 C   0  0  0  0  0  0  0  0  0  0  0  0
  -10.6932   -2.8353   -6.7296 Br  0  0  0  0  0  0  0  0  0  0  0  0
   -9.9370   -4.9459   -8.4858 C   0  0  0  0  0  0  0  0  0  0  0  0
   -9.4390   -6.1808   -8.8074 C   0  0  0  0  0  0  0  0  0  0  0  0
   -8.9994   -7.0390   -7.8044 C   0  0  0  0  0  0  0  0  0  0  0  0
  1  2  1  6
  2  3  1  6
  3  4  2  0
  3  5  1  0
  6  5  1  1
  8  5  1  1
  6  7  1  0
  7  8  1  0
  7  9  1  6
  9 10  1  0
 10 11  2  0
 10 12  1  0
 12 13  1  6
 13 14  1  0
 13 36  1  0
 14 15  2  0
 15 16  1  0
 15 30  1  0
 16 17  2  0
 16 18  1  0
 19 18  1  1
 29 18  1  1
 19 20  1  0
 20 21  1  6
 21 22  2  0
 21 28  1  0
 22 23  1  0
 22 25  1  0
 24 23  1  6
 25 26  2  0
 26 27  1  0
 27 28  2  0
 28 29  1  0
 30 31  1  0
 30 36  2  0
 31 32  2  0
 32 33  1  0
 32 34  1  0
 34 35  2  0
 35 36  1  0
M  END
$$$$
