
     RDKit          3D

 36 40  0  0  0  0  0  0  0  0999 V2000
   -4.8879  -19.1150    0.1929 C   0  0  0  0  0  0  0  0  0  0  0  0
   -3.8408  -19.6955    1.1368 C   0  0  0  0  0  0  0  0  0  0  0  0
   -4.1138  -19.3001    2.5390 C   0  0  0  0  0  0  0  0  0  0  0  0
   -5.2986  -19.0634    2.8886 O   0  0  0  0  0  0  0  0  0  0  0  0
   -3.0720  -19.1885    3.4750 N   0  0  0  0  0  0  0  0  0  0  0  0
   -2.9330  -19.2878    4.9117 C   0  0  0  0  0  0  0  0  0  0  0  0
   -1.5595  -19.8501    4.6557 C   0  0  1  0  0  0  0  0  0  0  0  0
   -1.6539  -18.9191    3.4281 C   0  0  0  0  0  0  0  0  0  0  0  0
   -0.5102  -19.4845    5.5643 N   0  0  0  0  0  0  0  0  0  0  0  0
   -0.7445  -18.8059    6.7858 C   0  0  0  0  0  0  0  0  0  0  0  0
   -1.7019  -19.2632    7.4820 O   0  0  0  0  0  0  0  0  0  0  0  0
    0.0051  -17.6489    7.3077 C   0  0  0  0  0  0  0  0  0  0  0  0
   -0.8389  -16.7207    8.0078 N   0  0  0  0  0  0  0  0  0  0  0  0
   -1.6417  -17.1038    9.0342 C   0  0  0  0  0  0  0  0  0  0  0  0
   -2.3324  -16.0158    9.4999 C   0  0  0  0  0  0  0  0  0  0  0  0
   -3.3053  -16.0253   10.6162 C   0  0  0  0  0  0  0  0  0  0  0  0
   -2.9264  -15.6194   11.7417 O   0  0  0  0  0  0  0  0  0  0  0  0
   -4.6255  -16.4705   10.4496 N   0  0  0  0  0  0  0  0  0  0  0  0
   -5.4952  -16.5664   11.5991 C   0  0  0  0  0  0  0  0  0  0  0  0
   -6.8839  -16.0494   11.2895 C   0  0  0  0  0  0  0  0  0  0  0  0
   -7.3839  -16.8444   10.1409 C   0  0  0  0  0  0  0  0  0  0  0  0
   -8.7416  -17.2017   10.1422 C   0  0  0  0  0  0  0  0  0  0  0  0
   -9.4815  -16.7824   11.2195 O   0  0  0  0  0  0  0  0  0  0  0  0
  -10.4298  -17.5614   11.8657 C   0  0  0  0  0  0  0  0  0  0  0  0
   -9.1868  -17.9266    9.0778 C   0  0  0  0  0  0  0  0  0  0  0  0
   -8.3511  -18.2973    8.0432 C   0  0  0  0  0  0  0  0  0  0  0  0
   -7.0416  -17.9324    8.0793 C   0  0  0  0  0  0  0  0  0  0  0  0
   -6.5430  -17.1996    9.1324 C   0  0  0  0  0  0  0  0  0  0  0  0
   -5.1096  -16.8195    9.1463 C   0  0  0  0  0  0  0  0  0  0  0  0
   -1.9451  -14.9383    8.7413 C   0  0  0  0  0  0  0  0  0  0  0  0
   -2.2999  -13.6068    8.7545 C   0  0  0  0  0  0  0  0  0  0  0  0
   -1.7160  -12.7571    7.8398 C   0  0  0  0  0  0  0  0  0  0  0  0
   -2.2049  -10.9259    7.8634 Br  0  0  0  0  0  0  0  0  0  0  0  0
   -0.7781  -13.2023    6.9025 C   0  0  0  0  0  0  0  0  0  0  0  0
   -0.4425  -14.5382    6.9138 C   0  0  0  0  0  0  0  0  0  0  0  0
   -1.0134  -15.4146    7.8208 C   0  0  0  0  0  0  0  0  0  0  0  0
  1  2  1  0
  2  3  1  0
  3  4  2  0
  3  5  1  0
  5  6  1  0
  5  8  1  0
  6  7  1  0
  7  8  1  0
  7  9  1  1
  9 10  1  0
 10 11  2  0
 10 12  1  0
 12 13  1  0
 13 14  1  0
 13 36  1  0
 14 15  2  0
 15 16  1  0
 15 30  1  0
 16 17  2  0
 16 18  1  0
 18 19  1  0
 18 29  1  0
 19 20  1  0
 20 21  1  0
 21 22  2  0
 21 28  1  0
 22 23  1  0
 22 25  1  0
 23 24  1  0
 25 26  2  0
 26 27  1  0
 27 28  2  0
 28 29  1  0
 30 31  1  0
 30 36  2  0
 31 32  2  0
 32 33  1  0
 32 34  1  0
 34 35  2  0
 35 36  1  0
M  END
$$$$
