
     RDKit          3D

 36 40  0  0  0  0  0  0  0  0999 V2000
   -7.3908   -5.1194   -7.3073 C   0  0  0  0  0  0  0  0  0  0  0  0
   -8.2282   -5.7150   -8.4012 C   0  0  0  0  0  0  0  0  0  0  0  0
   -8.5326   -7.1441   -8.2439 C   0  0  0  0  0  0  0  0  0  0  0  0
   -8.8057   -7.8087   -9.2950 O   0  0  0  0  0  0  0  0  0  0  0  0
   -8.5470   -7.8413   -7.0115 N   0  0  0  0  0  0  0  0  0  0  0  0
   -8.9582   -9.1859   -6.6392 C   0  0  0  0  0  0  0  0  0  0  0  0
   -8.0839   -9.1220   -5.4649 C   0  0  1  0  0  0  0  0  0  0  0  0
   -8.2010   -7.6258   -5.6270 C   0  0  0  0  0  0  0  0  0  0  0  0
   -8.5060   -9.5942   -4.1886 N   0  0  0  0  0  0  0  0  0  0  0  0
   -7.6864   -9.7208   -3.0409 C   0  0  0  0  0  0  0  0  0  0  0  0
   -6.4858   -9.3816   -3.1549 O   0  0  0  0  0  0  0  0  0  0  0  0
   -8.2280  -10.2340   -1.7582 C   0  0  0  0  0  0  0  0  0  0  0  0
   -7.2286  -10.6188   -0.8210 N   0  0  0  0  0  0  0  0  0  0  0  0
   -6.5734  -11.7989   -0.7329 C   0  0  0  0  0  0  0  0  0  0  0  0
   -5.6511  -11.7643    0.3129 C   0  0  0  0  0  0  0  0  0  0  0  0
   -4.7397  -12.8093    0.7362 C   0  0  0  0  0  0  0  0  0  0  0  0
   -4.0408  -13.3979   -0.1062 O   0  0  0  0  0  0  0  0  0  0  0  0
   -4.6486  -13.1555    2.1007 N   0  0  0  0  0  0  0  0  0  0  0  0
   -3.4081  -13.6416    2.7040 C   0  0  0  0  0  0  0  0  0  0  0  0
   -3.6150  -15.1089    2.9493 C   0  0  0  0  0  0  0  0  0  0  0  0
   -4.9092  -15.2937    3.6823 C   0  0  0  0  0  0  0  0  0  0  0  0
   -5.0699  -16.5161    4.3566 C   0  0  0  0  0  0  0  0  0  0  0  0
   -4.0572  -17.4618    4.3187 O   0  0  0  0  0  0  0  0  0  0  0  0
   -3.3299  -17.7862    5.4772 C   0  0  0  0  0  0  0  0  0  0  0  0
   -6.2179  -16.8012    5.0617 C   0  0  0  0  0  0  0  0  0  0  0  0
   -7.2001  -15.8369    5.0769 C   0  0  0  0  0  0  0  0  0  0  0  0
   -7.0683  -14.6399    4.4294 C   0  0  0  0  0  0  0  0  0  0  0  0
   -5.9084  -14.3513    3.7169 C   0  0  0  0  0  0  0  0  0  0  0  0
   -5.7630  -13.0505    3.0177 C   0  0  0  0  0  0  0  0  0  0  0  0
   -5.7916  -10.4851    0.8533 C   0  0  0  0  0  0  0  0  0  0  0  0
   -5.1274   -9.9120    1.9058 C   0  0  0  0  0  0  0  0  0  0  0  0
   -5.4469   -8.6159    2.2561 C   0  0  0  0  0  0  0  0  0  0  0  0
   -4.5404   -7.7793    3.7176 Br  0  0  0  0  0  0  0  0  0  0  0  0
   -6.4070   -7.9108    1.5707 C   0  0  0  0  0  0  0  0  0  0  0  0
   -7.0593   -8.5026    0.5215 C   0  0  0  0  0  0  0  0  0  0  0  0
   -6.7499   -9.8085    0.1544 C   0  0  0  0  0  0  0  0  0  0  0  0
  1  2  1  6
  2  3  1  6
  3  4  2  0
  3  5  1  0
  6  5  1  1
  8  5  1  1
  6  7  1  0
  7  8  1  0
  7  9  1  1
  9 10  1  0
 10 11  2  0
 10 12  1  0
 12 13  1  6
 13 14  1  0
 13 36  1  0
 14 15  2  0
 15 16  1  0
 15 30  1  0
 16 17  2  0
 16 18  1  0
 19 18  1  1
 29 18  1  1
 19 20  1  0
 20 21  1  6
 21 22  2  0
 21 28  1  0
 22 23  1  0
 22 25  1  0
 24 23  1  6
 25 26  2  0
 26 27  1  0
 27 28  2  0
 28 29  1  0
 30 31  1  0
 30 36  2  0
 31 32  2  0
 32 33  1  0
 32 34  1  0
 34 35  2  0
 35 36  1  0
M  END
$$$$
