
     RDKit          3D

 36 40  0  0  0  0  0  0  0  0999 V2000
   -5.7533  -18.7530  -10.8151 C   0  0  0  0  0  0  0  0  0  0  0  0
   -6.2749  -17.3467  -10.8670 C   0  0  0  0  0  0  0  0  0  0  0  0
   -7.6483  -17.2106  -11.3720 C   0  0  0  0  0  0  0  0  0  0  0  0
   -8.1375  -18.1890  -12.0233 O   0  0  0  0  0  0  0  0  0  0  0  0
   -8.4718  -16.0729  -11.1911 N   0  0  0  0  0  0  0  0  0  0  0  0
   -9.8639  -15.7973  -11.5103 C   0  0  0  0  0  0  0  0  0  0  0  0
   -9.8888  -14.7577  -10.4779 C   0  0  1  0  0  0  0  0  0  0  0  0
   -8.3899  -14.7355  -10.6550 C   0  0  0  0  0  0  0  0  0  0  0  0
  -10.5101  -13.4948  -10.6997 N   0  0  0  0  0  0  0  0  0  0  0  0
  -10.5769  -12.4306   -9.7679 C   0  0  0  0  0  0  0  0  0  0  0  0
   -9.9018  -12.5454   -8.7190 O   0  0  0  0  0  0  0  0  0  0  0  0
  -11.4120  -11.2311  -10.0244 C   0  0  0  0  0  0  0  0  0  0  0  0
  -10.7938  -10.0051   -9.6501 N   0  0  0  0  0  0  0  0  0  0  0  0
   -9.6996   -9.8213   -8.8765 C   0  0  0  0  0  0  0  0  0  0  0  0
   -9.4036   -8.4623   -8.7707 C   0  0  0  0  0  0  0  0  0  0  0  0
   -8.3105   -7.8388   -8.0509 C   0  0  0  0  0  0  0  0  0  0  0  0
   -7.6790   -6.9052   -8.5746 O   0  0  0  0  0  0  0  0  0  0  0  0
   -7.9662   -8.2924   -6.7603 N   0  0  0  0  0  0  0  0  0  0  0  0
   -8.8449   -9.1581   -5.9744 C   0  0  0  0  0  0  0  0  0  0  0  0
   -9.4075   -8.2940   -4.8823 C   0  0  0  0  0  0  0  0  0  0  0  0
   -8.2757   -7.5852   -4.2019 C   0  0  0  0  0  0  0  0  0  0  0  0
   -8.5455   -7.0744   -2.9209 C   0  0  0  0  0  0  0  0  0  0  0  0
   -9.8019   -7.2469   -2.3613 O   0  0  0  0  0  0  0  0  0  0  0  0
  -10.6514   -6.1481   -2.1441 C   0  0  0  0  0  0  0  0  0  0  0  0
   -7.5847   -6.4013   -2.1997 C   0  0  0  0  0  0  0  0  0  0  0  0
   -6.3495   -6.2511   -2.7883 C   0  0  0  0  0  0  0  0  0  0  0  0
   -6.0616   -6.7386   -4.0328 C   0  0  0  0  0  0  0  0  0  0  0  0
   -7.0320   -7.4190   -4.7619 C   0  0  0  0  0  0  0  0  0  0  0  0
   -6.7187   -7.9523   -6.1108 C   0  0  0  0  0  0  0  0  0  0  0  0
  -10.3916   -7.8349   -9.5310 C   0  0  0  0  0  0  0  0  0  0  0  0
  -10.5813   -6.4995   -9.7721 C   0  0  0  0  0  0  0  0  0  0  0  0
  -11.6442   -6.1204  -10.5666 C   0  0  0  0  0  0  0  0  0  0  0  0
  -11.9412   -4.2662  -10.9291 Br  0  0  0  0  0  0  0  0  0  0  0  0
  -12.4963   -7.0539  -11.1061 C   0  0  0  0  0  0  0  0  0  0  0  0
  -12.2889   -8.3840  -10.8524 C   0  0  0  0  0  0  0  0  0  0  0  0
  -11.2222   -8.7843  -10.0538 C   0  0  0  0  0  0  0  0  0  0  0  0
  1  2  1  6
  2  3  1  6
  3  4  2  0
  3  5  1  0
  6  5  1  1
  8  5  1  1
  6  7  1  0
  7  8  1  0
  7  9  1  6
  9 10  1  0
 10 11  2  0
 10 12  1  0
 12 13  1  6
 13 14  1  0
 13 36  1  0
 14 15  2  0
 15 16  1  0
 15 30  1  0
 16 17  2  0
 16 18  1  0
 19 18  1  1
 29 18  1  1
 19 20  1  0
 20 21  1  6
 21 22  2  0
 21 28  1  0
 22 23  1  0
 22 25  1  0
 24 23  1  6
 25 26  2  0
 26 27  1  0
 27 28  2  0
 28 29  1  0
 30 31  1  0
 30 36  2  0
 31 32  2  0
 32 33  1  0
 32 34  1  0
 34 35  2  0
 35 36  1  0
M  END
$$$$
