
     RDKit          3D

 36 40  0  0  0  0  0  0  0  0999 V2000
  -10.5524  -23.1290   10.5889 C   0  0  0  0  0  0  0  0  0  0  0  0
  -10.9503  -21.6868   10.7073 C   0  0  0  0  0  0  0  0  0  0  0  0
  -10.8139  -20.9001    9.4735 C   0  0  0  0  0  0  0  0  0  0  0  0
  -11.6212  -21.1507    8.5214 O   0  0  0  0  0  0  0  0  0  0  0  0
   -9.8515  -19.8836    9.2600 N   0  0  0  0  0  0  0  0  0  0  0  0
   -9.0404  -19.0824   10.1632 C   0  0  0  0  0  0  0  0  0  0  0  0
   -8.0733  -18.8569    9.0856 C   0  0  1  0  0  0  0  0  0  0  0  0
   -9.2264  -19.1794    8.1663 C   0  0  0  0  0  0  0  0  0  0  0  0
   -7.4959  -17.5755    8.8517 N   0  0  0  0  0  0  0  0  0  0  0  0
   -6.2902  -17.0956    9.4183 C   0  0  0  0  0  0  0  0  0  0  0  0
   -5.6263  -17.8976   10.1148 O   0  0  0  0  0  0  0  0  0  0  0  0
   -5.8339  -15.7012    9.1956 C   0  0  0  0  0  0  0  0  0  0  0  0
   -4.4335  -15.5795    8.9730 N   0  0  0  0  0  0  0  0  0  0  0  0
   -3.4488  -16.4256    9.3525 C   0  0  0  0  0  0  0  0  0  0  0  0
   -2.2102  -15.9540    8.9178 C   0  0  0  0  0  0  0  0  0  0  0  0
   -0.9074  -16.5634    9.0997 C   0  0  0  0  0  0  0  0  0  0  0  0
   -0.3797  -17.1846    8.1615 O   0  0  0  0  0  0  0  0  0  0  0  0
   -0.2430  -16.4506   10.3389 N   0  0  0  0  0  0  0  0  0  0  0  0
    1.2027  -16.6283   10.4713 C   0  0  0  0  0  0  0  0  0  0  0  0
    1.3959  -17.9526   11.1530 C   0  0  0  0  0  0  0  0  0  0  0  0
    0.5366  -17.9888   12.3804 C   0  0  0  0  0  0  0  0  0  0  0  0
    0.8851  -18.9420   13.3525 C   0  0  0  0  0  0  0  0  0  0  0  0
    1.9733  -19.7743   13.1417 O   0  0  0  0  0  0  0  0  0  0  0  0
    3.2192  -19.4951   13.7297 C   0  0  0  0  0  0  0  0  0  0  0  0
    0.1674  -19.0711   14.5205 C   0  0  0  0  0  0  0  0  0  0  0  0
   -0.9053  -18.2262   14.6940 C   0  0  0  0  0  0  0  0  0  0  0  0
   -1.2649  -17.2906   13.7641 C   0  0  0  0  0  0  0  0  0  0  0  0
   -0.5399  -17.1596   12.5836 C   0  0  0  0  0  0  0  0  0  0  0  0
   -0.9270  -16.1413   11.5759 C   0  0  0  0  0  0  0  0  0  0  0  0
   -2.5097  -14.7653    8.2504 C   0  0  0  0  0  0  0  0  0  0  0  0
   -1.6646  -13.8871    7.6243 C   0  0  0  0  0  0  0  0  0  0  0  0
   -2.2066  -12.7668    7.0278 C   0  0  0  0  0  0  0  0  0  0  0  0
   -1.0608  -11.5182    6.1414 Br  0  0  0  0  0  0  0  0  0  0  0  0
   -3.5602  -12.5307    7.0571 C   0  0  0  0  0  0  0  0  0  0  0  0
   -4.3875  -13.4215    7.6885 C   0  0  0  0  0  0  0  0  0  0  0  0
   -3.8584  -14.5564    8.2951 C   0  0  0  0  0  0  0  0  0  0  0  0
  1  2  1  6
  2  3  1  6
  3  4  2  0
  3  5  1  0
  6  5  1  1
  8  5  1  1
  6  7  1  0
  7  8  1  0
  7  9  1  6
  9 10  1  0
 10 11  2  0
 10 12  1  0
 12 13  1  6
 13 14  1  0
 13 36  1  0
 14 15  2  0
 15 16  1  0
 15 30  1  0
 16 17  2  0
 16 18  1  0
 19 18  1  1
 29 18  1  1
 19 20  1  0
 20 21  1  6
 21 22  2  0
 21 28  1  0
 22 23  1  0
 22 25  1  0
 24 23  1  6
 25 26  2  0
 26 27  1  0
 27 28  2  0
 28 29  1  0
 30 31  1  0
 30 36  2  0
 31 32  2  0
 32 33  1  0
 32 34  1  0
 34 35  2  0
 35 36  1  0
M  END
$$$$
