
     RDKit          3D

 36 40  0  0  0  0  0  0  0  0999 V2000
   -3.8819  -11.1713  -18.3517 C   0  0  0  0  0  0  0  0  0  0  0  0
   -3.3207  -10.6438  -17.0636 C   0  0  0  0  0  0  0  0  0  0  0  0
   -2.8721  -11.6710  -16.1132 C   0  0  0  0  0  0  0  0  0  0  0  0
   -2.0726  -12.5639  -16.5429 O   0  0  0  0  0  0  0  0  0  0  0  0
   -3.2615  -11.7462  -14.7539 N   0  0  0  0  0  0  0  0  0  0  0  0
   -4.0072  -10.8479  -13.8863 C   0  0  0  0  0  0  0  0  0  0  0  0
   -4.3635  -11.9813  -13.0285 C   0  0  1  0  0  0  0  0  0  0  0  0
   -3.1483  -12.6447  -13.6301 C   0  0  0  0  0  0  0  0  0  0  0  0
   -4.3205  -11.8892  -11.6073 N   0  0  0  0  0  0  0  0  0  0  0  0
   -5.3828  -11.4631  -10.7735 C   0  0  0  0  0  0  0  0  0  0  0  0
   -6.5095  -11.3309  -11.3048 O   0  0  0  0  0  0  0  0  0  0  0  0
   -5.1686  -11.1849   -9.3317 C   0  0  0  0  0  0  0  0  0  0  0  0
   -6.3217  -10.6894   -8.6607 N   0  0  0  0  0  0  0  0  0  0  0  0
   -7.6224  -10.8820   -8.9781 C   0  0  0  0  0  0  0  0  0  0  0  0
   -8.4469  -10.2447   -8.0510 C   0  0  0  0  0  0  0  0  0  0  0  0
   -9.8960  -10.2149   -8.0151 C   0  0  0  0  0  0  0  0  0  0  0  0
  -10.5140  -11.0450   -7.3269 O   0  0  0  0  0  0  0  0  0  0  0  0
  -10.6000   -9.2459   -8.7603 N   0  0  0  0  0  0  0  0  0  0  0  0
   -9.9442   -8.0722   -9.3360 C   0  0  0  0  0  0  0  0  0  0  0  0
  -10.3852   -6.9024   -8.5036 C   0  0  0  0  0  0  0  0  0  0  0  0
  -11.8798   -6.9286   -8.3951 C   0  0  0  0  0  0  0  0  0  0  0  0
  -12.4952   -5.7204   -8.0257 C   0  0  0  0  0  0  0  0  0  0  0  0
  -11.7194   -4.5961   -7.7905 O   0  0  0  0  0  0  0  0  0  0  0  0
  -11.9043   -3.8220   -6.6317 C   0  0  0  0  0  0  0  0  0  0  0  0
  -13.8622   -5.6233   -7.8908 C   0  0  0  0  0  0  0  0  0  0  0  0
  -14.5986   -6.7606   -8.1337 C   0  0  0  0  0  0  0  0  0  0  0  0
  -14.0243   -7.9478   -8.4945 C   0  0  0  0  0  0  0  0  0  0  0  0
  -12.6431   -8.0464   -8.6311 C   0  0  0  0  0  0  0  0  0  0  0  0
  -12.0195   -9.3335   -9.0271 C   0  0  0  0  0  0  0  0  0  0  0  0
   -7.5595   -9.6525   -7.1512 C   0  0  0  0  0  0  0  0  0  0  0  0
   -7.8282   -8.8987   -6.0390 C   0  0  0  0  0  0  0  0  0  0  0  0
   -6.7667   -8.4175   -5.3000 C   0  0  0  0  0  0  0  0  0  0  0  0
   -7.1001   -7.3638   -3.7392 Br  0  0  0  0  0  0  0  0  0  0  0  0
   -5.4686   -8.6835   -5.6646 C   0  0  0  0  0  0  0  0  0  0  0  0
   -5.2218   -9.4391   -6.7803 C   0  0  0  0  0  0  0  0  0  0  0  0
   -6.2799   -9.9326   -7.5371 C   0  0  0  0  0  0  0  0  0  0  0  0
  1  2  1  6
  2  3  1  6
  3  4  2  0
  3  5  1  0
  6  5  1  1
  8  5  1  1
  6  7  1  0
  7  8  1  0
  7  9  1  1
  9 10  1  0
 10 11  2  0
 10 12  1  0
 12 13  1  6
 13 14  1  0
 13 36  1  0
 14 15  2  0
 15 16  1  0
 15 30  1  0
 16 17  2  0
 16 18  1  0
 19 18  1  1
 29 18  1  1
 19 20  1  0
 20 21  1  6
 21 22  2  0
 21 28  1  0
 22 23  1  0
 22 25  1  0
 24 23  1  6
 25 26  2  0
 26 27  1  0
 27 28  2  0
 28 29  1  0
 30 31  1  0
 30 36  2  0
 31 32  2  0
 32 33  1  0
 32 34  1  0
 34 35  2  0
 35 36  1  0
M  END
$$$$
