
     RDKit          3D

 36 40  0  0  0  0  0  0  0  0999 V2000
   -0.4641  -28.8613    6.5468 C   0  0  0  0  0  0  0  0  0  0  0  0
   -1.0986  -27.7320    7.3048 C   0  0  0  0  0  0  0  0  0  0  0  0
   -2.0204  -26.8973    6.5218 C   0  0  0  0  0  0  0  0  0  0  0  0
   -2.2041  -27.2065    5.3005 O   0  0  0  0  0  0  0  0  0  0  0  0
   -2.7211  -25.7723    7.0205 N   0  0  0  0  0  0  0  0  0  0  0  0
   -3.0347  -25.3178    8.3661 C   0  0  0  0  0  0  0  0  0  0  0  0
   -3.1774  -23.9485    7.8642 C   0  0  1  0  0  0  0  0  0  0  0  0
   -3.4156  -24.6074    6.5271 C   0  0  0  0  0  0  0  0  0  0  0  0
   -4.2447  -23.1029    8.2838 N   0  0  0  0  0  0  0  0  0  0  0  0
   -4.2037  -22.1968    9.3712 C   0  0  0  0  0  0  0  0  0  0  0  0
   -3.0897  -21.9980    9.9086 O   0  0  0  0  0  0  0  0  0  0  0  0
   -5.4294  -21.5129    9.8529 C   0  0  0  0  0  0  0  0  0  0  0  0
   -5.3755  -20.0940    9.7573 N   0  0  0  0  0  0  0  0  0  0  0  0
   -4.4713  -19.2516   10.3073 C   0  0  0  0  0  0  0  0  0  0  0  0
   -4.7591  -17.9335    9.9534 C   0  0  0  0  0  0  0  0  0  0  0  0
   -4.0342  -16.7316   10.3167 C   0  0  0  0  0  0  0  0  0  0  0  0
   -3.3754  -16.7022   11.3701 O   0  0  0  0  0  0  0  0  0  0  0  0
   -4.0785  -15.6001    9.4755 N   0  0  0  0  0  0  0  0  0  0  0  0
   -4.1968  -15.7092    8.0219 C   0  0  0  0  0  0  0  0  0  0  0  0
   -2.8502  -15.3397    7.4686 C   0  0  0  0  0  0  0  0  0  0  0  0
   -2.4250  -14.0365    8.0746 C   0  0  0  0  0  0  0  0  0  0  0  0
   -1.4204  -13.3331    7.3884 C   0  0  0  0  0  0  0  0  0  0  0  0
   -0.8892  -13.8558    6.2198 O   0  0  0  0  0  0  0  0  0  0  0  0
    0.2522  -14.6759    6.2503 C   0  0  0  0  0  0  0  0  0  0  0  0
   -0.9462  -12.1258    7.8509 C   0  0  0  0  0  0  0  0  0  0  0  0
   -1.4991  -11.6389    9.0136 C   0  0  0  0  0  0  0  0  0  0  0  0
   -2.4774  -12.3035    9.6997 C   0  0  0  0  0  0  0  0  0  0  0  0
   -2.9570  -13.5233    9.2327 C   0  0  0  0  0  0  0  0  0  0  0  0
   -4.0220  -14.2430    9.9745 C   0  0  0  0  0  0  0  0  0  0  0  0
   -5.8982  -18.0330    9.1532 C   0  0  0  0  0  0  0  0  0  0  0  0
   -6.6109  -17.0400    8.5339 C   0  0  0  0  0  0  0  0  0  0  0  0
   -7.7159  -17.3936    7.7866 C   0  0  0  0  0  0  0  0  0  0  0  0
   -8.7355  -16.0372    6.9043 Br  0  0  0  0  0  0  0  0  0  0  0  0
   -8.0987  -18.7076    7.6621 C   0  0  0  0  0  0  0  0  0  0  0  0
   -7.3723  -19.6849    8.2896 C   0  0  0  0  0  0  0  0  0  0  0  0
   -6.2552  -19.3467    9.0470 C   0  0  0  0  0  0  0  0  0  0  0  0
  1  2  1  6
  2  3  1  6
  3  4  2  0
  3  5  1  0
  6  5  1  1
  8  5  1  1
  6  7  1  0
  7  8  1  0
  7  9  1  1
  9 10  1  0
 10 11  2  0
 10 12  1  0
 12 13  1  6
 13 14  1  0
 13 36  1  0
 14 15  2  0
 15 16  1  0
 15 30  1  0
 16 17  2  0
 16 18  1  0
 19 18  1  1
 29 18  1  1
 19 20  1  0
 20 21  1  6
 21 22  2  0
 21 28  1  0
 22 23  1  0
 22 25  1  0
 24 23  1  6
 25 26  2  0
 26 27  1  0
 27 28  2  0
 28 29  1  0
 30 31  1  0
 30 36  2  0
 31 32  2  0
 32 33  1  0
 32 34  1  0
 34 35  2  0
 35 36  1  0
M  END
$$$$
