
     RDKit          3D

 31 35  0  0  0  0  0  0  0  0999 V2000
   10.3463   74.4282   18.1492 C   0  0  0  0  0  0  0  0  0  0  0  0
   10.5540   74.1189   19.4766 C   0  0  0  0  0  0  0  0  0  0  0  0
   11.3518   73.0538   19.8356 C   0  0  0  0  0  0  0  0  0  0  0  0
   12.3208   71.8447   16.5276 C   0  0  0  0  0  0  0  0  0  0  0  0
   13.1124   70.7677   16.9356 C   0  0  0  0  0  0  0  0  0  0  0  0
   13.3324   70.4396   18.2506 C   0  0  0  0  0  0  0  0  0  0  0  0
   12.7374   71.2189   19.2138 C   0  0  0  0  0  0  0  0  0  0  0  0
   12.4762   73.4536   14.7183 C   0  0  0  0  0  0  0  0  0  0  0  0
   11.4558   74.3554   14.5678 C   0  0  0  0  0  0  0  0  0  0  0  0
   12.9892   76.0515   13.9675 C   0  0  0  0  0  0  0  0  0  0  0  0
   13.2002   77.4567   13.5668 C   0  0  0  0  0  0  0  0  0  0  0  0
   14.9966   79.2697   13.9938 C   0  0  2  0  0  0  0  0  0  0  0  0
   16.4789   79.4048   14.1584 C   0  0  0  0  0  0  0  0  0  0  0  0
   16.1487   73.4636   14.4770 C   0  0  0  0  0  0  0  0  0  0  0  0
    9.8006   70.3622   12.8081 C   0  0  0  0  0  0  0  0  0  0  0  0
    9.4584   69.9466   14.1921 C   0  0  0  0  0  0  0  0  0  0  0  0
   11.9385   72.3041   18.8277 C   0  0  0  0  0  0  0  0  0  0  0  0
   11.7240   72.6236   17.4954 C   0  0  0  0  0  0  0  0  0  0  0  0
   10.9262   73.6873   17.1384 C   0  0  0  0  0  0  0  0  0  0  0  0
   12.1891   72.1349   15.1181 N   0  0  0  0  0  0  0  0  0  0  0  0
   11.7332   75.6313   14.1966 N   0  0  0  0  0  0  0  0  0  0  0  0
   14.5516   78.0115   13.3470 C   0  0  2  0  0  0  0  0  0  0  0  0
   14.5569   79.3161   12.5324 C   0  0  0  0  0  0  0  0  0  0  0  0
   17.2358   78.8888   13.3029 O   0  0  0  0  0  0  0  0  0  0  0  0
   17.0048   80.0816   15.2270 O   0  0  0  0  0  0  0  0  0  0  0  0
   12.2129   78.2240   13.4016 O   0  0  0  0  0  0  0  0  0  0  0  0
   13.9551   75.1616   14.1200 N   0  0  0  0  0  0  0  0  0  0  0  0
   13.7716   73.8876   14.4818 C   0  0  0  0  0  0  0  0  0  0  0  0
   14.8235   72.9894   14.6280 O   0  0  0  0  0  0  0  0  0  0  0  0
   11.7734   71.1279   14.1923 C   0  0  0  0  0  0  0  0  0  0  0  0
   10.2408   71.1763   13.9886 C   0  0  1  0  0  0  0  0  0  0  0  0
  1  2  2  0
 19  1  1  0
  3  2  1  0
 17  3  2  0
  4  5  2  0
  4 18  1  0
 20  4  1  0
  5  6  1  0
  6  7  2  0
 17  7  1  0
  8  9  2  0
 20  8  1  0
  8 28  1  0
  9 21  1  0
 10 11  1  0
 21 10  2  0
 27 10  1  0
 22 11  1  1
 11 26  2  0
 12 13  1  6
 22 12  1  0
 23 12  1  0
 13 24  2  0
 13 25  1  0
 29 14  1  0
 16 15  1  0
 31 15  1  0
 31 16  1  0
 18 17  1  0
 18 19  2  0
 30 20  1  0
 22 23  1  0
 28 27  2  0
 28 29  1  0
 31 30  1  1
M  END
$$$$
