
     RDKit          3D

 31 35  0  0  0  0  0  0  0  0999 V2000
    8.3029   69.2303   25.8523 C   0  0  0  0  0  0  0  0  0  0  0  0
    8.6148   70.3663   26.5657 C   0  0  0  0  0  0  0  0  0  0  0  0
    7.8326   71.4728   26.3841 C   0  0  0  0  0  0  0  0  0  0  0  0
    5.3877   70.2939   23.9206 C   0  0  0  0  0  0  0  0  0  0  0  0
    4.6550   71.4498   23.7829 C   0  0  0  0  0  0  0  0  0  0  0  0
    4.9499   72.6045   24.4879 C   0  0  0  0  0  0  0  0  0  0  0  0
    6.0119   72.6069   25.3604 C   0  0  0  0  0  0  0  0  0  0  0  0
    4.1154   68.1707   23.7757 C   0  0  0  0  0  0  0  0  0  0  0  0
    2.7807   68.2362   23.5232 C   0  0  0  0  0  0  0  0  0  0  0  0
    2.3567   66.3684   24.8650 C   0  0  0  0  0  0  0  0  0  0  0  0
    1.3912   65.4304   25.4214 C   0  0  0  0  0  0  0  0  0  0  0  0
    0.6444   63.2457   26.4259 C   0  0  2  0  0  0  0  0  0  0  0  0
    1.1341   61.8453   26.3540 C   0  0  0  0  0  0  0  0  0  0  0  0
    6.3910   65.9631   25.6062 C   0  0  0  0  0  0  0  0  0  0  0  0
    5.3078   70.4087   19.8875 C   0  0  0  0  0  0  0  0  0  0  0  0
    4.8241   69.0828   19.4482 C   0  0  0  0  0  0  0  0  0  0  0  0
    6.7598   71.4347   25.5033 C   0  0  0  0  0  0  0  0  0  0  0  0
    6.4564   70.2849   24.7920 C   0  0  0  0  0  0  0  0  0  0  0  0
    7.2459   69.1687   24.9744 C   0  0  0  0  0  0  0  0  0  0  0  0
    5.0253   69.0934   23.2051 N   0  0  0  0  0  0  0  0  0  0  0  0
    1.9119   67.3455   24.0617 N   0  0  0  0  0  0  0  0  0  0  0  0
    1.7563   64.3131   26.2948 C   0  0  2  0  0  0  0  0  0  0  0  0
    1.1262   64.0923   27.6105 C   0  0  0  0  0  0  0  0  0  0  0  0
    2.3511   61.5988   26.4847 O   0  0  0  0  0  0  0  0  0  0  0  0
    0.2324   60.8062   26.1402 O   0  0  0  0  0  0  0  0  0  0  0  0
    0.1553   65.5861   25.1343 O   0  0  0  0  0  0  0  0  0  0  0  0
    3.6791   66.2941   25.1220 N   0  0  0  0  0  0  0  0  0  0  0  0
    4.5658   67.1528   24.6106 C   0  0  0  0  0  0  0  0  0  0  0  0
    5.9233   67.0798   24.8726 O   0  0  0  0  0  0  0  0  0  0  0  0
    5.6331   68.8886   21.9226 C   0  0  0  0  0  0  0  0  0  0  0  0
    4.6563   69.5029   20.9054 C   0  0  1  0  0  0  0  0  0  0  0  0
  1  2  2  0
 19  1  1  0
  3  2  1  0
 17  3  2  0
  4  5  2  0
  4 18  1  0
 20  4  1  0
  5  6  1  0
  6  7  2  0
 17  7  1  0
  8  9  2  0
 20  8  1  0
  8 28  1  0
  9 21  1  0
 10 11  1  0
 21 10  2  0
 27 10  1  0
 22 11  1  6
 11 26  2  0
 12 13  1  1
 22 12  1  0
 23 12  1  1
 13 24  2  0
 13 25  1  0
 14 29  1  6
 16 15  1  1
 15 31  1  6
 31 16  1  0
 18 17  1  0
 18 19  2  0
 30 20  1  1
 22 23  1  0
 28 27  2  0
 28 29  1  0
 31 30  1  1
M  END
$$$$
