
     RDKit          3D

 31 35  0  0  0  0  0  0  0  0999 V2000
    8.0552   71.9543   18.4071 C   0  0  0  0  0  0  0  0  0  0  0  0
    8.1629   73.2294   17.8977 C   0  0  0  0  0  0  0  0  0  0  0  0
    8.1000   74.2774   18.7734 C   0  0  0  0  0  0  0  0  0  0  0  0
    7.6514   72.5723   21.9870 C   0  0  0  0  0  0  0  0  0  0  0  0
    7.5855   73.6775   22.8032 C   0  0  0  0  0  0  0  0  0  0  0  0
    7.6896   74.9689   22.3146 C   0  0  0  0  0  0  0  0  0  0  0  0
    7.8657   75.1653   20.9656 C   0  0  0  0  0  0  0  0  0  0  0  0
    6.3421   70.5676   22.6307 C   0  0  0  0  0  0  0  0  0  0  0  0
    6.1946   69.2769   22.2283 C   0  0  0  0  0  0  0  0  0  0  0  0
    3.9370   69.2635   22.8385 C   0  0  0  0  0  0  0  0  0  0  0  0
    2.6790   68.5355   22.9339 C   0  0  0  0  0  0  0  0  0  0  0  0
    0.4402   68.2288   24.0445 C   0  0  2  0  0  0  0  0  0  0  0  0
   -0.2515   68.8750   25.1890 C   0  0  0  0  0  0  0  0  0  0  0  0
    4.2300   73.1722   24.1063 C   0  0  0  0  0  0  0  0  0  0  0  0
    8.9976   68.9411   24.8728 C   0  0  0  0  0  0  0  0  0  0  0  0
    9.8655   70.0619   25.2919 C   0  0  0  0  0  0  0  0  0  0  0  0
    7.9326   74.0452   20.1321 C   0  0  0  0  0  0  0  0  0  0  0  0
    7.8263   72.7571   20.6317 C   0  0  0  0  0  0  0  0  0  0  0  0
    7.8889   71.6996   19.7484 C   0  0  0  0  0  0  0  0  0  0  0  0
    7.5855   71.2380   22.5345 N   0  0  0  0  0  0  0  0  0  0  0  0
    5.0059   68.6329   22.3310 N   0  0  0  0  0  0  0  0  0  0  0  0
    1.4015   69.1650   23.2748 C   0  0  2  0  0  0  0  0  0  0  0  0
    0.1269   68.7712   22.6446 C   0  0  0  0  0  0  0  0  0  0  0  0
   -0.3301   70.1195   25.2529 O   0  0  0  0  0  0  0  0  0  0  0  0
   -0.8131   68.0896   26.1921 O   0  0  0  0  0  0  0  0  0  0  0  0
    2.6847   67.2771   22.7091 O   0  0  0  0  0  0  0  0  0  0  0  0
    4.0724   70.5441   23.2410 N   0  0  0  0  0  0  0  0  0  0  0  0
    5.2263   71.2121   23.1558 C   0  0  0  0  0  0  0  0  0  0  0  0
    5.3685   72.5264   23.5674 O   0  0  0  0  0  0  0  0  0  0  0  0
    8.8175   70.6508   22.9747 C   0  0  0  0  0  0  0  0  0  0  0  0
    8.6126   70.3444   24.4681 C   0  0  1  0  0  0  0  0  0  0  0  0
  1  2  2  0
 19  1  1  0
  3  2  1  0
 17  3  2  0
  4  5  2  0
  4 18  1  0
 20  4  1  0
  5  6  1  0
  6  7  2  0
 17  7  1  0
  8  9  2  0
 20  8  1  0
  8 28  1  0
  9 21  1  0
 10 11  1  0
 21 10  2  0
 27 10  1  0
 22 11  1  6
 11 26  2  0
 12 13  1  1
 22 12  1  0
 23 12  1  1
 13 24  2  0
 13 25  1  0
 14 29  1  6
 16 15  1  1
 15 31  1  6
 31 16  1  0
 18 17  1  0
 18 19  2  0
 30 20  1  1
 22 23  1  0
 28 27  2  0
 28 29  1  0
 31 30  1  6
M  END
$$$$
