
     RDKit          3D

 31 35  0  0  0  0  0  0  0  0999 V2000
   -2.3648   50.4793   30.1885 C   0  0  0  0  0  0  0  0  0  0  0  0
   -3.4173   50.2366   31.0430 C   0  0  0  0  0  0  0  0  0  0  0  0
   -3.1423   50.0897   32.3740 C   0  0  0  0  0  0  0  0  0  0  0  0
    0.4982   50.5090   32.4609 C   0  0  0  0  0  0  0  0  0  0  0  0
    0.6967   50.3380   33.8112 C   0  0  0  0  0  0  0  0  0  0  0  0
   -0.3450   50.0917   34.6896 C   0  0  0  0  0  0  0  0  0  0  0  0
   -1.6289   50.0131   34.2052 C   0  0  0  0  0  0  0  0  0  0  0  0
    1.8620   52.1482   31.1958 C   0  0  0  0  0  0  0  0  0  0  0  0
    3.0331   52.5048   30.6034 C   0  0  0  0  0  0  0  0  0  0  0  0
    2.3572   54.7372   30.4342 C   0  0  0  0  0  0  0  0  0  0  0  0
    2.6576   56.0989   30.0134 C   0  0  0  0  0  0  0  0  0  0  0  0
    4.1651   58.0268   29.4214 C   0  0  2  0  0  0  0  0  0  0  0  0
    5.5447   58.4245   29.8017 C   0  0  0  0  0  0  0  0  0  0  0  0
   -1.1765   53.8301   32.3529 C   0  0  0  0  0  0  0  0  0  0  0  0
    2.8478   49.0652   28.6791 C   0  0  0  0  0  0  0  0  0  0  0  0
    2.0811   47.9272   29.2290 C   0  0  0  0  0  0  0  0  0  0  0  0
   -1.8354   50.1856   32.8335 C   0  0  0  0  0  0  0  0  0  0  0  0
   -0.7854   50.4309   31.9631 C   0  0  0  0  0  0  0  0  0  0  0  0
   -1.0626   50.5783   30.6201 C   0  0  0  0  0  0  0  0  0  0  0  0
    1.6008   50.8104   31.5789 N   0  0  0  0  0  0  0  0  0  0  0  0
    3.2774   53.7843   30.2273 N   0  0  0  0  0  0  0  0  0  0  0  0
    3.9284   56.4982   29.4050 C   0  0  2  0  0  0  0  0  0  0  0  0
    4.0036   57.2258   28.1236 C   0  0  0  0  0  0  0  0  0  0  0  0
    6.5077   57.6724   29.5450 O   0  0  0  0  0  0  0  0  0  0  0  0
    5.7627   59.6394   30.4459 O   0  0  0  0  0  0  0  0  0  0  0  0
    1.7663   56.9996   30.1825 O   0  0  0  0  0  0  0  0  0  0  0  0
    1.1917   54.3942   31.0210 N   0  0  0  0  0  0  0  0  0  0  0  0
    0.9143   53.1451   31.4055 C   0  0  0  0  0  0  0  0  0  0  0  0
   -0.2804   52.7899   32.0084 O   0  0  0  0  0  0  0  0  0  0  0  0
    2.3881   49.7050   31.1158 C   0  0  0  0  0  0  0  0  0  0  0  0
    1.8075   49.3389   29.7393 C   0  0  1  0  0  0  0  0  0  0  0  0
  1  2  2  0
 19  1  1  0
  3  2  1  0
 17  3  2  0
  4  5  2  0
  4 18  1  0
 20  4  1  0
  5  6  1  0
  6  7  2  0
 17  7  1  0
  8  9  2  0
 20  8  1  0
  8 28  1  0
  9 21  1  0
 10 11  1  0
 21 10  2  0
 27 10  1  0
 22 11  1  1
 11 26  2  0
 12 13  1  6
 22 12  1  0
 23 12  1  1
 13 24  2  0
 13 25  1  0
 14 29  1  6
 16 15  1  1
 15 31  1  6
 31 16  1  0
 18 17  1  0
 18 19  2  0
 30 20  1  1
 22 23  1  0
 28 27  2  0
 28 29  1  0
 31 30  1  1
M  END
$$$$
