
     RDKit          3D

 31 35  0  0  0  0  0  0  0  0999 V2000
   -3.3572   51.9214   32.0534 C   0  0  0  0  0  0  0  0  0  0  0  0
   -3.8375   51.6074   33.3055 C   0  0  0  0  0  0  0  0  0  0  0  0
   -3.0047   50.9465   34.1648 C   0  0  0  0  0  0  0  0  0  0  0  0
    0.0378   50.5708   32.1553 C   0  0  0  0  0  0  0  0  0  0  0  0
    0.8117   49.8964   33.0709 C   0  0  0  0  0  0  0  0  0  0  0  0
    0.3507   49.5684   34.3346 C   0  0  0  0  0  0  0  0  0  0  0  0
   -0.9259   49.9251   34.6983 C   0  0  0  0  0  0  0  0  0  0  0  0
    1.3283   52.1214   30.7137 C   0  0  0  0  0  0  0  0  0  0  0  0
    0.8003   53.2461   30.1606 C   0  0  0  0  0  0  0  0  0  0  0  0
    2.8026   54.4199   30.4468 C   0  0  0  0  0  0  0  0  0  0  0  0
    3.5506   55.6598   30.2894 C   0  0  0  0  0  0  0  0  0  0  0  0
    4.1510   57.8105   29.1259 C   0  0  2  0  0  0  0  0  0  0  0  0
    3.9903   58.3257   27.7421 C   0  0  0  0  0  0  0  0  0  0  0  0
    4.5022   51.1235   32.2435 C   0  0  0  0  0  0  0  0  0  0  0  0
    1.2584   47.8707   28.8910 C   0  0  0  0  0  0  0  0  0  0  0  0
    1.9986   48.9296   28.1727 C   0  0  0  0  0  0  0  0  0  0  0  0
   -1.7164   50.6100   33.7710 C   0  0  0  0  0  0  0  0  0  0  0  0
   -1.2452   50.9325   32.5084 C   0  0  0  0  0  0  0  0  0  0  0  0
   -2.0855   51.5985   31.6409 C   0  0  0  0  0  0  0  0  0  0  0  0
    0.5649   50.9382   30.8623 N   0  0  0  0  0  0  0  0  0  0  0  0
    1.5292   54.3816   30.0288 N   0  0  0  0  0  0  0  0  0  0  0  0
    3.0409   56.8286   29.5692 C   0  0  2  0  0  0  0  0  0  0  0  0
    3.0652   58.1886   30.1408 C   0  0  0  0  0  0  0  0  0  0  0  0
    2.8495   58.5274   27.2764 O   0  0  0  0  0  0  0  0  0  0  0  0
    5.1155   58.5838   26.9640 O   0  0  0  0  0  0  0  0  0  0  0  0
    4.7172   55.7374   30.8061 O   0  0  0  0  0  0  0  0  0  0  0  0
    3.3362   53.3097   30.9973 N   0  0  0  0  0  0  0  0  0  0  0  0
    2.6505   52.1725   31.1441 C   0  0  0  0  0  0  0  0  0  0  0  0
    3.1951   51.0314   31.7080 O   0  0  0  0  0  0  0  0  0  0  0  0
    0.2685   50.0653   29.7640 C   0  0  0  0  0  0  0  0  0  0  0  0
    1.5155   49.1801   29.5983 C   0  0  1  0  0  0  0  0  0  0  0  0
  1  2  2  0
 19  1  1  0
  3  2  1  0
 17  3  2  0
  4  5  2  0
  4 18  1  0
 20  4  1  0
  5  6  1  0
  6  7  2  0
 17  7  1  0
  8  9  2  0
 20  8  1  0
  8 28  1  0
  9 21  1  0
 10 11  1  0
 21 10  2  0
 27 10  1  0
 22 11  1  1
 11 26  2  0
 12 13  1  6
 22 12  1  0
 23 12  1  1
 13 24  2  0
 13 25  1  0
 14 29  1  6
 16 15  1  1
 15 31  1  6
 31 16  1  0
 18 17  1  0
 18 19  2  0
 30 20  1  1
 22 23  1  0
 28 27  2  0
 28 29  1  0
 31 30  1  6
M  END
$$$$
