
     RDKit          3D

 31 35  0  0  0  0  0  0  0  0999 V2000
   11.1127   73.6309   36.5388 C   0  0  0  0  0  0  0  0  0  0  0  0
   11.7945   73.0098   35.5161 C   0  0  0  0  0  0  0  0  0  0  0  0
   12.6115   71.9608   35.8340 C   0  0  0  0  0  0  0  0  0  0  0  0
   12.2080   71.7428   39.4708 C   0  0  0  0  0  0  0  0  0  0  0  0
   13.0575   70.6885   39.7130 C   0  0  0  0  0  0  0  0  0  0  0  0
   13.7547   70.0491   38.7020 C   0  0  0  0  0  0  0  0  0  0  0  0
   13.5998   70.4754   37.4045 C   0  0  0  0  0  0  0  0  0  0  0  0
   10.2915   71.7359   41.0439 C   0  0  0  0  0  0  0  0  0  0  0  0
   10.3094   71.0019   42.1887 C   0  0  0  0  0  0  0  0  0  0  0  0
    8.0206   70.5501   42.0262 C   0  0  0  0  0  0  0  0  0  0  0  0
    6.8375   69.9071   42.5816 C   0  0  0  0  0  0  0  0  0  0  0  0
    4.4332   69.1742   42.7300 C   0  0  2  0  0  0  0  0  0  0  0  0
    3.1271   69.8814   42.7262 C   0  0  0  0  0  0  0  0  0  0  0  0
    7.7909   72.8392   38.6070 C   0  0  0  0  0  0  0  0  0  0  0  0
   14.0563   74.9735   40.5416 C   0  0  0  0  0  0  0  0  0  0  0  0
   14.3667   74.2530   41.7945 C   0  0  0  0  0  0  0  0  0  0  0  0
   12.7380   71.5470   37.1535 C   0  0  0  0  0  0  0  0  0  0  0  0
   12.0456   72.1803   38.1731 C   0  0  0  0  0  0  0  0  0  0  0  0
   11.2220   73.2392   37.8527 C   0  0  0  0  0  0  0  0  0  0  0  0
   11.4605   72.3576   40.5421 N   0  0  0  0  0  0  0  0  0  0  0  0
    9.1870   70.4161   42.6737 N   0  0  0  0  0  0  0  0  0  0  0  0
    5.5377   69.8792   41.9077 C   0  0  2  0  0  0  0  0  0  0  0  0
    4.9383   68.6363   41.3855 C   0  0  0  0  0  0  0  0  0  0  0  0
    3.0870   71.1243   42.6141 O   0  0  0  0  0  0  0  0  0  0  0  0
    1.9457   69.1549   42.8480 O   0  0  0  0  0  0  0  0  0  0  0  0
    6.9334   69.3340   43.7202 O   0  0  0  0  0  0  0  0  0  0  0  0
    7.9917   71.2764   40.8895 N   0  0  0  0  0  0  0  0  0  0  0  0
    9.0758   71.8684   40.3803 C   0  0  0  0  0  0  0  0  0  0  0  0
    9.0497   72.6138   39.2139 O   0  0  0  0  0  0  0  0  0  0  0  0
   11.9502   73.6071   41.0473 C   0  0  0  0  0  0  0  0  0  0  0  0
   13.4601   73.6021   40.7539 C   0  0  1  0  0  0  0  0  0  0  0  0
  1  2  2  0
 19  1  1  0
  3  2  1  0
 17  3  2  0
  4  5  2  0
  4 18  1  0
 20  4  1  0
  5  6  1  0
  6  7  2  0
 17  7  1  0
  8  9  2  0
 20  8  1  0
  8 28  1  0
  9 21  1  0
 10 11  1  0
 21 10  2  0
 27 10  1  0
 22 11  1  1
 11 26  2  0
 12 13  1  6
 22 12  1  0
 23 12  1  1
 13 24  2  0
 13 25  1  0
 14 29  1  6
 16 15  1  1
 15 31  1  6
 31 16  1  0
 18 17  1  0
 18 19  2  0
 30 20  1  1
 22 23  1  0
 28 27  2  0
 28 29  1  0
 31 30  1  1
M  END
$$$$
