
     RDKit          3D

 31 35  0  0  0  0  0  0  0  0999 V2000
   12.3991   71.7298   17.4110 C   0  0  0  0  0  0  0  0  0  0  0  0
   13.4560   72.0416   18.2395 C   0  0  0  0  0  0  0  0  0  0  0  0
   14.5103   72.8020   17.7811 C   0  0  0  0  0  0  0  0  0  0  0  0
   13.4266   73.3792   14.3407 C   0  0  0  0  0  0  0  0  0  0  0  0
   14.5204   74.1374   13.9142 C   0  0  0  0  0  0  0  0  0  0  0  0
   15.5845   74.4591   14.7202 C   0  0  0  0  0  0  0  0  0  0  0  0
   15.5654   74.0066   16.0179 C   0  0  0  0  0  0  0  0  0  0  0  0
   11.0742   73.6359   13.8056 C   0  0  0  0  0  0  0  0  0  0  0  0
   10.0369   72.7694   14.0298 C   0  0  0  0  0  0  0  0  0  0  0  0
    8.6007   74.5662   14.5754 C   0  0  0  0  0  0  0  0  0  0  0  0
    7.2526   75.0036   14.9888 C   0  0  0  0  0  0  0  0  0  0  0  0
    6.3709   76.9122   16.4974 C   0  0  2  0  0  0  0  0  0  0  0  0
    6.6252   78.3586   16.7900 C   0  0  0  0  0  0  0  0  0  0  0  0
   11.5642   77.2512   13.5267 C   0  0  0  0  0  0  0  0  0  0  0  0
   12.2571   70.1132   11.1821 C   0  0  0  0  0  0  0  0  0  0  0  0
   13.4656   69.9851   12.0357 C   0  0  0  0  0  0  0  0  0  0  0  0
   14.4786   73.2439   16.4673 C   0  0  0  0  0  0  0  0  0  0  0  0
   13.4107   72.9254   15.6421 C   0  0  0  0  0  0  0  0  0  0  0  0
   12.3587   72.1652   16.1010 C   0  0  0  0  0  0  0  0  0  0  0  0
   12.3337   73.1340   13.4277 N   0  0  0  0  0  0  0  0  0  0  0  0
    8.8258   73.2516   14.4087 N   0  0  0  0  0  0  0  0  0  0  0  0
    6.9275   76.4274   15.2111 C   0  0  2  0  0  0  0  0  0  0  0  0
    5.4188   76.7048   15.3220 C   0  0  0  0  0  0  0  0  0  0  0  0
    7.1521   79.0748   15.9066 O   0  0  0  0  0  0  0  0  0  0  0  0
    6.2886   78.8959   18.0043 O   0  0  0  0  0  0  0  0  0  0  0  0
    6.3362   74.1545   15.1631 O   0  0  0  0  0  0  0  0  0  0  0  0
    9.6184   75.3805   14.3528 N   0  0  0  0  0  0  0  0  0  0  0  0
   10.8414   74.9919   13.9777 C   0  0  0  0  0  0  0  0  0  0  0  0
   11.8797   75.8903   13.7552 O   0  0  0  0  0  0  0  0  0  0  0  0
   12.5343   72.4049   12.2143 C   0  0  0  0  0  0  0  0  0  0  0  0
   12.3825   70.8856   12.4618 C   0  0  1  0  0  0  0  0  0  0  0  0
  1  2  2  0
 19  1  1  0
  3  2  1  0
 17  3  2  0
  4  5  2  0
  4 18  1  0
 20  4  1  0
  5  6  1  0
  6  7  2  0
 17  7  1  0
  8  9  2  0
 20  8  1  0
  8 28  1  0
  9 21  1  0
 10 11  1  0
 21 10  2  0
 27 10  1  0
 22 11  1  1
 11 26  2  0
 12 13  1  6
 22 12  1  0
 23 12  1  0
 13 24  2  0
 13 25  1  0
 29 14  1  0
 16 15  1  0
 31 15  1  0
 31 16  1  0
 18 17  1  0
 18 19  2  0
 30 20  1  0
 22 23  1  0
 28 27  2  0
 28 29  1  0
 31 30  1  6
M  END
$$$$
