
     RDKit          3D

 31 35  0  0  0  0  0  0  0  0999 V2000
    0.2391   47.9238   33.3733 C   0  0  0  0  0  0  0  0  0  0  0  0
   -0.4504   47.7278   34.5493 C   0  0  0  0  0  0  0  0  0  0  0  0
   -1.5099   48.5495   34.8163 C   0  0  0  0  0  0  0  0  0  0  0  0
   -1.5472   50.7405   31.8778 C   0  0  0  0  0  0  0  0  0  0  0  0
   -2.6166   51.5343   32.2218 C   0  0  0  0  0  0  0  0  0  0  0  0
   -3.3242   51.3577   33.3988 C   0  0  0  0  0  0  0  0  0  0  0  0
   -2.9531   50.3551   34.2627 C   0  0  0  0  0  0  0  0  0  0  0  0
    0.0622   51.9842   30.4598 C   0  0  0  0  0  0  0  0  0  0  0  0
   -0.3232   53.2845   30.5615 C   0  0  0  0  0  0  0  0  0  0  0  0
    1.8544   54.0411   30.1684 C   0  0  0  0  0  0  0  0  0  0  0  0
    2.7744   55.1609   30.0226 C   0  0  0  0  0  0  0  0  0  0  0  0
    4.8894   56.3159   29.2927 C   0  0  2  0  0  0  0  0  0  0  0  0
    6.2127   56.5597   29.9215 C   0  0  0  0  0  0  0  0  0  0  0  0
    3.1947   50.1424   30.0442 C   0  0  0  0  0  0  0  0  0  0  0  0
   -2.1284   50.5758   27.2691 C   0  0  0  0  0  0  0  0  0  0  0  0
   -3.1576   49.7263   27.9049 C   0  0  0  0  0  0  0  0  0  0  0  0
   -1.8665   49.5462   33.9177 C   0  0  0  0  0  0  0  0  0  0  0  0
   -1.1647   49.7323   32.7374 C   0  0  0  0  0  0  0  0  0  0  0  0
   -0.0952   48.9040   32.4682 C   0  0  0  0  0  0  0  0  0  0  0  0
   -0.8597   50.9217   30.6212 N   0  0  0  0  0  0  0  0  0  0  0  0
    0.5627   54.3006   30.4173 N   0  0  0  0  0  0  0  0  0  0  0  0
    4.2042   55.0054   29.7467 C   0  0  2  0  0  0  0  0  0  0  0  0
    4.7654   55.0862   28.3846 C   0  0  0  0  0  0  0  0  0  0  0  0
    6.9208   55.5981   30.2860 O   0  0  0  0  0  0  0  0  0  0  0  0
    6.6630   57.8645   30.1041 O   0  0  0  0  0  0  0  0  0  0  0  0
    2.3138   56.3474   30.1415 O   0  0  0  0  0  0  0  0  0  0  0  0
    2.2475   52.7545   30.0658 N   0  0  0  0  0  0  0  0  0  0  0  0
    1.4048   51.7266   30.2013 C   0  0  0  0  0  0  0  0  0  0  0  0
    1.8047   50.4053   30.0961 O   0  0  0  0  0  0  0  0  0  0  0  0
   -1.1651   49.9956   29.5699 C   0  0  0  0  0  0  0  0  0  0  0  0
   -2.3027   50.6500   28.7675 C   0  0  1  0  0  0  0  0  0  0  0  0
  1  2  2  0
 19  1  1  0
  3  2  1  0
 17  3  2  0
  4  5  2  0
  4 18  1  0
 20  4  1  0
  5  6  1  0
  6  7  2  0
 17  7  1  0
  8  9  2  0
 20  8  1  0
  8 28  1  0
  9 21  1  0
 10 11  1  0
 21 10  2  0
 27 10  1  0
 22 11  1  6
 11 26  2  0
 12 13  1  1
 22 12  1  0
 23 12  1  1
 13 24  2  0
 13 25  1  0
 14 29  1  6
 16 15  1  1
 15 31  1  6
 31 16  1  0
 18 17  1  0
 18 19  2  0
 30 20  1  1
 22 23  1  0
 28 27  2  0
 28 29  1  0
 31 30  1  1
M  END
$$$$
