
     RDKit          3D

 31 35  0  0  0  0  0  0  0  0999 V2000
   10.3426   71.7140   17.0956 C   0  0  0  0  0  0  0  0  0  0  0  0
    9.1322   72.0813   17.6405 C   0  0  0  0  0  0  0  0  0  0  0  0
    8.8422   73.4150   17.7185 C   0  0  0  0  0  0  0  0  0  0  0  0
   11.8441   74.9436   16.2734 C   0  0  0  0  0  0  0  0  0  0  0  0
   11.4860   76.2659   16.3967 C   0  0  0  0  0  0  0  0  0  0  0  0
   10.2758   76.6598   16.9423 C   0  0  0  0  0  0  0  0  0  0  0  0
    9.3921   75.7024   17.3800 C   0  0  0  0  0  0  0  0  0  0  0  0
   13.1459   74.2686   14.2741 C   0  0  0  0  0  0  0  0  0  0  0  0
   13.6702   75.1448   13.3758 C   0  0  0  0  0  0  0  0  0  0  0  0
   13.2655   73.6822   11.5964 C   0  0  0  0  0  0  0  0  0  0  0  0
   13.3493   73.4081   10.1683 C   0  0  0  0  0  0  0  0  0  0  0  0
   13.4795   74.3261    7.8274 C   0  0  2  0  0  0  0  0  0  0  0  0
   13.5059   75.6920    7.2446 C   0  0  0  0  0  0  0  0  0  0  0  0
   11.4863   71.0087   14.1825 C   0  0  0  0  0  0  0  0  0  0  0  0
   15.6888   72.4009   16.7944 C   0  0  0  0  0  0  0  0  0  0  0  0
   15.2334   72.7345   18.1606 C   0  0  0  0  0  0  0  0  0  0  0  0
    9.7519   74.3573   17.2573 C   0  0  0  0  0  0  0  0  0  0  0  0
   10.9661   73.9742   16.7105 C   0  0  0  0  0  0  0  0  0  0  0  0
   11.2593   72.6288   16.6324 C   0  0  0  0  0  0  0  0  0  0  0  0
   13.0940   74.5654   15.6576 N   0  0  0  0  0  0  0  0  0  0  0  0
   13.7290   74.8547   12.0527 N   0  0  0  0  0  0  0  0  0  0  0  0
   14.1237   74.2233    9.2301 C   0  0  2  0  0  0  0  0  0  0  0  0
   14.8325   73.6466    8.0717 C   0  0  0  0  0  0  0  0  0  0  0  0
   13.8129   75.8568    6.0457 O   0  0  0  0  0  0  0  0  0  0  0  0
   13.1871   76.7902    8.0388 O   0  0  0  0  0  0  0  0  0  0  0  0
   12.7133   72.4017    9.7027 O   0  0  0  0  0  0  0  0  0  0  0  0
   12.7435   72.8055   12.4792 N   0  0  0  0  0  0  0  0  0  0  0  0
   12.6680   73.0550   13.7896 C   0  0  0  0  0  0  0  0  0  0  0  0
   12.1324   72.1579   14.6980 O   0  0  0  0  0  0  0  0  0  0  0  0
   14.2469   74.4977   16.5075 C   0  0  0  0  0  0  0  0  0  0  0  0
   14.3281   73.0327   16.9690 C   0  0  1  0  0  0  0  0  0  0  0  0
  1  2  2  0
 19  1  1  0
  3  2  1  0
 17  3  2  0
  4  5  2  0
  4 18  1  0
 20  4  1  0
  5  6  1  0
  6  7  2  0
 17  7  1  0
  8  9  2  0
 20  8  1  0
  8 28  1  0
  9 21  1  0
 10 11  1  0
 21 10  2  0
 27 10  1  0
 22 11  1  1
 11 26  2  0
 12 13  1  6
 22 12  1  0
 23 12  1  1
 13 24  2  0
 13 25  1  0
 14 29  1  6
 16 15  1  1
 15 31  1  6
 31 16  1  0
 18 17  1  0
 18 19  2  0
 30 20  1  1
 22 23  1  0
 28 27  2  0
 28 29  1  0
 31 30  1  6
M  END
$$$$
