
     RDKit          3D

 31 35  0  0  0  0  0  0  0  0999 V2000
    4.5629   54.4841   28.3848 C   0  0  0  0  0  0  0  0  0  0  0  0
    5.6176   53.7012   28.7989 C   0  0  0  0  0  0  0  0  0  0  0  0
    6.4374   54.1939   29.7757 C   0  0  0  0  0  0  0  0  0  0  0  0
    4.9392   57.4681   30.4621 C   0  0  0  0  0  0  0  0  0  0  0  0
    5.8142   57.8998   31.4316 C   0  0  0  0  0  0  0  0  0  0  0  0
    6.8823   57.1317   31.8632 C   0  0  0  0  0  0  0  0  0  0  0  0
    7.0852   55.8903   31.3092 C   0  0  0  0  0  0  0  0  0  0  0  0
    2.5157   57.9814   30.5649 C   0  0  0  0  0  0  0  0  0  0  0  0
    1.4004   58.5465   30.0296 C   0  0  0  0  0  0  0  0  0  0  0  0
    0.0097   57.3949   31.5158 C   0  0  0  0  0  0  0  0  0  0  0  0
   -1.3374   57.1085   31.9900 C   0  0  0  0  0  0  0  0  0  0  0  0
   -3.7397   57.7457   32.3931 C   0  0  2  0  0  0  0  0  0  0  0  0
   -4.4942   59.0251   32.3778 C   0  0  0  0  0  0  0  0  0  0  0  0
    3.3055   55.6965   33.3152 C   0  0  0  0  0  0  0  0  0  0  0  0
    2.9587   59.5408   26.8540 C   0  0  0  0  0  0  0  0  0  0  0  0
    4.4109   59.5738   26.5801 C   0  0  0  0  0  0  0  0  0  0  0  0
    6.1990   55.4475   30.3232 C   0  0  0  0  0  0  0  0  0  0  0  0
    5.1336   56.2249   29.8980 C   0  0  0  0  0  0  0  0  0  0  0  0
    4.3069   55.7285   28.9118 C   0  0  0  0  0  0  0  0  0  0  0  0
    3.8085   58.2746   30.0676 N   0  0  0  0  0  0  0  0  0  0  0  0
    0.1623   58.2565   30.4999 N   0  0  0  0  0  0  0  0  0  0  0  0
   -2.5443   57.7035   31.4122 C   0  0  2  0  0  0  0  0  0  0  0  0
   -3.7522   56.9140   31.1046 C   0  0  0  0  0  0  0  0  0  0  0  0
   -4.3765   59.8112   31.4150 O   0  0  0  0  0  0  0  0  0  0  0  0
   -5.3341   59.3467   33.4405 O   0  0  0  0  0  0  0  0  0  0  0  0
   -1.4800   56.2935   32.9645 O   0  0  0  0  0  0  0  0  0  0  0  0
    1.1095   56.8283   32.0541 N   0  0  0  0  0  0  0  0  0  0  0  0
    2.3455   57.0888   31.6186 C   0  0  0  0  0  0  0  0  0  0  0  0
    3.4762   56.5096   32.1690 O   0  0  0  0  0  0  0  0  0  0  0  0
    4.0614   59.3537   29.1577 C   0  0  0  0  0  0  0  0  0  0  0  0
    3.8822   58.7534   27.7529 C   0  0  1  0  0  0  0  0  0  0  0  0
  1  2  2  0
 19  1  1  0
  3  2  1  0
 17  3  2  0
  4  5  2  0
  4 18  1  0
 20  4  1  0
  5  6  1  0
  6  7  2  0
 17  7  1  0
  8  9  2  0
 20  8  1  0
  8 28  1  0
  9 21  1  0
 10 11  1  0
 21 10  2  0
 27 10  1  0
 22 11  1  1
 11 26  2  0
 12 13  1  6
 22 12  1  0
 23 12  1  1
 13 24  2  0
 13 25  1  0
 14 29  1  6
 16 15  1  1
 15 31  1  6
 31 16  1  0
 18 17  1  0
 18 19  2  0
 30 20  1  1
 22 23  1  0
 28 27  2  0
 28 29  1  0
 31 30  1  1
M  END
$$$$
