
     RDKit          3D

 31 35  0  0  0  0  0  0  0  0999 V2000
   27.3898   57.8685   21.0453 C   0  0  0  0  0  0  0  0  0  0  0  0
   27.4818   56.5391   20.6921 C   0  0  0  0  0  0  0  0  0  0  0  0
   26.8969   55.5615   21.4681 C   0  0  0  0  0  0  0  0  0  0  0  0
   25.4468   57.6301   24.1066 C   0  0  0  0  0  0  0  0  0  0  0  0
   24.8788   56.6064   24.8698 C   0  0  0  0  0  0  0  0  0  0  0  0
   24.9586   55.2762   24.5390 C   0  0  0  0  0  0  0  0  0  0  0  0
   25.6366   54.9406   23.3914 C   0  0  0  0  0  0  0  0  0  0  0  0
   26.4339   59.7218   24.8391 C   0  0  0  0  0  0  0  0  0  0  0  0
   26.5998   60.9972   24.3669 C   0  0  0  0  0  0  0  0  0  0  0  0
   28.6843   61.1767   25.4675 C   0  0  0  0  0  0  0  0  0  0  0  0
   29.8679   62.0063   25.7686 C   0  0  0  0  0  0  0  0  0  0  0  0
   31.9909   62.3813   27.1999 C   0  0  2  0  0  0  0  0  0  0  0  0
   32.7123   61.7821   28.3673 C   0  0  0  0  0  0  0  0  0  0  0  0
   28.3121   57.3527   26.9401 C   0  0  0  0  0  0  0  0  0  0  0  0
   21.5745   58.8483   24.9769 C   0  0  0  0  0  0  0  0  0  0  0  0
   21.7064   58.9136   23.4992 C   0  0  0  0  0  0  0  0  0  0  0  0
   26.2149   55.9509   22.6106 C   0  0  0  0  0  0  0  0  0  0  0  0
   26.1274   57.2908   22.9571 C   0  0  0  0  0  0  0  0  0  0  0  0
   26.7128   58.2660   22.1815 C   0  0  0  0  0  0  0  0  0  0  0  0
   25.2669   59.0042   24.5162 N   0  0  0  0  0  0  0  0  0  0  0  0
   27.7182   61.6954   24.6901 N   0  0  0  0  0  0  0  0  0  0  0  0
   31.0129   61.4819   26.5409 C   0  0  2  0  0  0  0  0  0  0  0  0
   32.3745   61.7339   25.8715 C   0  0  0  0  0  0  0  0  0  0  0  0
   32.5720   60.5600   28.6075 O   0  0  0  0  0  0  0  0  0  0  0  0
   33.5152   62.5546   29.1643 O   0  0  0  0  0  0  0  0  0  0  0  0
   29.9250   63.1998   25.3647 O   0  0  0  0  0  0  0  0  0  0  0  0
   28.4994   59.9446   25.9099 N   0  0  0  0  0  0  0  0  0  0  0  0
   27.4308   59.1873   25.6409 C   0  0  0  0  0  0  0  0  0  0  0  0
   27.2841   57.8940   26.1314 O   0  0  0  0  0  0  0  0  0  0  0  0
   23.9635   59.5859   24.5985 C   0  0  0  0  0  0  0  0  0  0  0  0
   22.8759   58.5261   24.3041 C   0  0  1  0  0  0  0  0  0  0  0  0
  1  2  2  0
 19  1  1  0
  3  2  1  0
 17  3  2  0
  4  5  2  0
  4 18  1  0
 20  4  1  0
  5  6  1  0
  6  7  2  0
 17  7  1  0
  8  9  2  0
 20  8  1  0
  8 28  1  0
  9 21  1  0
 10 11  1  0
 21 10  2  0
 27 10  1  0
 22 11  1  6
 11 26  2  0
 12 13  1  1
 22 12  1  0
 23 12  1  0
 13 24  2  0
 13 25  1  0
 29 14  1  0
 16 15  1  0
 31 15  1  0
 31 16  1  0
 18 17  1  0
 18 19  2  0
 30 20  1  0
 22 23  1  0
 28 27  2  0
 28 29  1  0
 31 30  1  1
M  END
$$$$
