
     RDKit          3D

 31 35  0  0  0  0  0  0  0  0999 V2000
    9.8325   76.6587   16.6613 C   0  0  0  0  0  0  0  0  0  0  0  0
   10.6495   77.6645   17.1320 C   0  0  0  0  0  0  0  0  0  0  0  0
   11.5796   77.4137   18.1179 C   0  0  0  0  0  0  0  0  0  0  0  0
   10.9654   73.8566   18.6782 C   0  0  0  0  0  0  0  0  0  0  0  0
   11.9135   73.6491   19.6838 C   0  0  0  0  0  0  0  0  0  0  0  0
   12.7366   74.6349   20.1694 C   0  0  0  0  0  0  0  0  0  0  0  0
   12.6156   75.8938   19.6312 C   0  0  0  0  0  0  0  0  0  0  0  0
    8.9865   72.4710   18.9013 C   0  0  0  0  0  0  0  0  0  0  0  0
    8.6391   71.1744   19.1760 C   0  0  0  0  0  0  0  0  0  0  0  0
    6.6810   71.8923   20.2892 C   0  0  0  0  0  0  0  0  0  0  0  0
    5.4586   71.5185   21.0278 C   0  0  0  0  0  0  0  0  0  0  0  0
    3.9723   69.7515   22.1961 C   0  0  2  0  0  0  0  0  0  0  0  0
    3.5000   68.3423   22.0128 C   0  0  0  0  0  0  0  0  0  0  0  0
    7.5833   75.8248   19.4801 C   0  0  0  0  0  0  0  0  0  0  0  0
   11.6919   69.7116   16.6503 C   0  0  0  0  0  0  0  0  0  0  0  0
   12.8263   70.6699   16.6540 C   0  0  0  0  0  0  0  0  0  0  0  0
   11.6709   76.1253   18.6218 C   0  0  0  0  0  0  0  0  0  0  0  0
   10.8450   75.1203   18.1412 C   0  0  0  0  0  0  0  0  0  0  0  0
    9.9160   75.3725   17.1570 C   0  0  0  0  0  0  0  0  0  0  0  0
   10.1785   72.7415   18.2035 N   0  0  0  0  0  0  0  0  0  0  0  0
    7.4971   70.9135   19.8619 N   0  0  0  0  0  0  0  0  0  0  0  0
    5.1682   70.1185   21.3994 C   0  0  2  0  0  0  0  0  0  0  0  0
    5.3228   69.8356   22.9033 C   0  0  0  0  0  0  0  0  0  0  0  0
    4.2687   67.5069   21.4816 O   0  0  0  0  0  0  0  0  0  0  0  0
    2.2465   67.9668   22.4182 O   0  0  0  0  0  0  0  0  0  0  0  0
    4.6240   72.4033   21.3617 O   0  0  0  0  0  0  0  0  0  0  0  0
    7.0395   73.1343   20.0111 N   0  0  0  0  0  0  0  0  0  0  0  0
    8.1442   73.4803   19.3423 C   0  0  0  0  0  0  0  0  0  0  0  0
    8.4764   74.8041   19.0745 O   0  0  0  0  0  0  0  0  0  0  0  0
   10.6093   71.9540   17.0907 C   0  0  0  0  0  0  0  0  0  0  0  0
   11.6744   70.9235   17.5340 C   0  0  1  0  0  0  0  0  0  0  0  0
  1  2  2  0
 19  1  1  0
  3  2  1  0
 17  3  2  0
  4  5  2  0
  4 18  1  0
 20  4  1  0
  5  6  1  0
  6  7  2  0
 17  7  1  0
  8  9  2  0
 20  8  1  0
  8 28  1  0
  9 21  1  0
 10 11  1  0
 21 10  2  0
 27 10  1  0
 22 11  1  1
 11 26  2  0
 12 13  1  6
 22 12  1  0
 23 12  1  0
 13 24  2  0
 13 25  1  0
 29 14  1  0
 16 15  1  0
 31 15  1  0
 31 16  1  0
 18 17  1  0
 18 19  2  0
 30 20  1  0
 22 23  1  0
 28 27  2  0
 28 29  1  0
 31 30  1  6
M  END
$$$$
