
     RDKit          3D

 31 35  0  0  0  0  0  0  0  0999 V2000
    3.9165   57.3990   26.4027 C   0  0  0  0  0  0  0  0  0  0  0  0
    3.3265   58.5509   25.9317 C   0  0  0  0  0  0  0  0  0  0  0  0
    2.7416   59.3895   26.8394 C   0  0  0  0  0  0  0  0  0  0  0  0
    3.3281   57.6328   30.0027 C   0  0  0  0  0  0  0  0  0  0  0  0
    2.7093   58.5197   30.8527 C   0  0  0  0  0  0  0  0  0  0  0  0
    2.1082   59.6832   30.4030 C   0  0  0  0  0  0  0  0  0  0  0  0
    2.1245   59.9726   29.0594 C   0  0  0  0  0  0  0  0  0  0  0  0
    3.2319   55.2939   30.8200 C   0  0  0  0  0  0  0  0  0  0  0  0
    2.7180   55.0893   32.0624 C   0  0  0  0  0  0  0  0  0  0  0  0
    1.7531   53.0603   31.4134 C   0  0  0  0  0  0  0  0  0  0  0  0
    0.9616   51.8901   31.7679 C   0  0  0  0  0  0  0  0  0  0  0  0
   -0.7262   50.9413   30.1583 C   0  0  2  0  0  0  0  0  0  0  0  0
   -0.7244   50.6440   28.7031 C   0  0  0  0  0  0  0  0  0  0  0  0
    3.3334   53.4938   27.6324 C   0  0  0  0  0  0  0  0  0  0  0  0
    7.1920   58.3513   30.8299 C   0  0  0  0  0  0  0  0  0  0  0  0
    6.8568   58.2633   29.3929 C   0  0  0  0  0  0  0  0  0  0  0  0
    2.7517   59.0739   28.1916 C   0  0  0  0  0  0  0  0  0  0  0  0
    3.3495   57.9119   28.6524 C   0  0  0  0  0  0  0  0  0  0  0  0
    3.9388   57.0653   27.7368 C   0  0  0  0  0  0  0  0  0  0  0  0
    3.9857   56.4517   30.5096 N   0  0  0  0  0  0  0  0  0  0  0  0
    1.9874   53.9854   32.3553 N   0  0  0  0  0  0  0  0  0  0  0  0
    0.6581   50.8031   30.8348 C   0  0  2  0  0  0  0  0  0  0  0  0
   -0.3768   49.7870   31.1058 C   0  0  0  0  0  0  0  0  0  0  0  0
    0.2102   49.9879   28.1980 O   0  0  0  0  0  0  0  0  0  0  0  0
   -1.7682   51.0988   27.9018 O   0  0  0  0  0  0  0  0  0  0  0  0
    0.5037   51.8020   32.9582 O   0  0  0  0  0  0  0  0  0  0  0  0
    2.2582   53.2536   30.1773 N   0  0  0  0  0  0  0  0  0  0  0  0
    2.9826   54.3276   29.8505 C   0  0  0  0  0  0  0  0  0  0  0  0
    3.5027   54.5287   28.5833 O   0  0  0  0  0  0  0  0  0  0  0  0
    5.4069   56.5206   30.6874 C   0  0  0  0  0  0  0  0  0  0  0  0
    5.7784   57.9923   30.4378 C   0  0  1  0  0  0  0  0  0  0  0  0
  1  2  2  0
 19  1  1  0
  3  2  1  0
 17  3  2  0
  4  5  2  0
  4 18  1  0
 20  4  1  0
  5  6  1  0
  6  7  2  0
 17  7  1  0
  8  9  2  0
 20  8  1  0
  8 28  1  0
  9 21  1  0
 10 11  1  0
 21 10  2  0
 27 10  1  0
 22 11  1  1
 11 26  2  0
 12 13  1  6
 22 12  1  0
 23 12  1  1
 13 24  2  0
 13 25  1  0
 14 29  1  6
 16 15  1  1
 15 31  1  6
 31 16  1  0
 18 17  1  0
 18 19  2  0
 30 20  1  1
 22 23  1  0
 28 27  2  0
 28 29  1  0
 31 30  1  1
M  END
$$$$
