
     RDKit          3D

 31 35  0  0  0  0  0  0  0  0999 V2000
   13.7753   72.8065   11.5387 C   0  0  0  0  0  0  0  0  0  0  0  0
   15.0830   72.4404   11.7763 C   0  0  0  0  0  0  0  0  0  0  0  0
   15.4400   71.8294   12.9592 C   0  0  0  0  0  0  0  0  0  0  0  0
   12.1892   71.7184   14.6214 C   0  0  0  0  0  0  0  0  0  0  0  0
   12.5966   71.1073   15.8104 C   0  0  0  0  0  0  0  0  0  0  0  0
   13.8925   70.7354   16.0701 C   0  0  0  0  0  0  0  0  0  0  0  0
   14.8362   70.9810   15.1013 C   0  0  0  0  0  0  0  0  0  0  0  0
   10.4804   73.3722   14.1403 C   0  0  0  0  0  0  0  0  0  0  0  0
    9.5994   73.6659   13.1330 C   0  0  0  0  0  0  0  0  0  0  0  0
    9.8169   75.9803   13.5629 C   0  0  0  0  0  0  0  0  0  0  0  0
    9.4223   77.3573   13.2054 C   0  0  0  0  0  0  0  0  0  0  0  0
    9.0281   79.4044   14.7385 C   0  0  2  0  0  0  0  0  0  0  0  0
    9.6951   80.1562   15.8486 C   0  0  0  0  0  0  0  0  0  0  0  0
   12.4818   75.2327   16.6075 C   0  0  0  0  0  0  0  0  0  0  0  0
    8.1158   70.7370   16.4118 C   0  0  0  0  0  0  0  0  0  0  0  0
    8.7934   69.4183   16.3265 C   0  0  0  0  0  0  0  0  0  0  0  0
   14.4503   71.5935   13.9010 C   0  0  0  0  0  0  0  0  0  0  0  0
   13.1376   71.9650   13.6523 C   0  0  0  0  0  0  0  0  0  0  0  0
   12.7827   72.5758   12.4707 C   0  0  0  0  0  0  0  0  0  0  0  0
   10.7916   72.0295   14.4260 N   0  0  0  0  0  0  0  0  0  0  0  0
    9.2874   74.9599   12.8665 N   0  0  0  0  0  0  0  0  0  0  0  0
    9.9277   78.5315   13.9459 C   0  0  2  0  0  0  0  0  0  0  0  0
    9.4700   79.8759   13.3553 C   0  0  0  0  0  0  0  0  0  0  0  0
   10.9201   79.9837   16.0504 O   0  0  0  0  0  0  0  0  0  0  0  0
    8.9810   81.0212   16.6349 O   0  0  0  0  0  0  0  0  0  0  0  0
    8.6322   77.5610   12.2436 O   0  0  0  0  0  0  0  0  0  0  0  0
   10.6639   75.6694   14.5294 N   0  0  0  0  0  0  0  0  0  0  0  0
   11.0263   74.4251   14.8583 C   0  0  0  0  0  0  0  0  0  0  0  0
   11.9235   74.1509   15.8852 O   0  0  0  0  0  0  0  0  0  0  0  0
    9.7873   71.0178   14.5353 C   0  0  0  0  0  0  0  0  0  0  0  0
    9.5594   70.6361   16.0169 C   0  0  1  0  0  0  0  0  0  0  0  0
  1  2  2  0
 19  1  1  0
  3  2  1  0
 17  3  2  0
  4  5  2  0
  4 18  1  0
 20  4  1  0
  5  6  1  0
  6  7  2  0
 17  7  1  0
  8  9  2  0
 20  8  1  0
  8 28  1  0
  9 21  1  0
 10 11  1  0
 21 10  2  0
 27 10  1  0
 22 11  1  6
 11 26  2  0
 12 13  1  1
 22 12  1  0
 23 12  1  0
 13 24  2  0
 13 25  1  0
 29 14  1  0
 16 15  1  0
 31 15  1  0
 31 16  1  0
 18 17  1  0
 18 19  2  0
 30 20  1  0
 22 23  1  0
 28 27  2  0
 28 29  1  0
 31 30  1  6
M  END
$$$$
