
     RDKit          3D

 31 35  0  0  0  0  0  0  0  0999 V2000
   11.1219   74.6089   19.3217 C   0  0  0  0  0  0  0  0  0  0  0  0
   11.6989   74.0626   20.4484 C   0  0  0  0  0  0  0  0  0  0  0  0
   12.3938   72.8743   20.3788 C   0  0  0  0  0  0  0  0  0  0  0  0
   12.0340   72.1374   16.8192 C   0  0  0  0  0  0  0  0  0  0  0  0
   12.7372   70.9299   16.7959 C   0  0  0  0  0  0  0  0  0  0  0  0
   13.3187   70.3659   17.9045 C   0  0  0  0  0  0  0  0  0  0  0  0
   13.1981   71.0324   19.1006 C   0  0  0  0  0  0  0  0  0  0  0  0
   12.3013   73.6033   14.9045 C   0  0  0  0  0  0  0  0  0  0  0  0
   11.9240   74.9196   14.8582 C   0  0  0  0  0  0  0  0  0  0  0  0
   13.8527   75.4702   13.6071 C   0  0  0  0  0  0  0  0  0  0  0  0
   14.6410   76.5171   12.9271 C   0  0  0  0  0  0  0  0  0  0  0  0
   16.9863   77.5298   12.5151 C   0  0  2  0  0  0  0  0  0  0  0  0
   18.4262   77.2629   12.8280 C   0  0  0  0  0  0  0  0  0  0  0  0
   15.1048   71.5515   13.6860 C   0  0  0  0  0  0  0  0  0  0  0  0
    8.9379   70.2669   14.2429 C   0  0  0  0  0  0  0  0  0  0  0  0
    9.7250   70.7320   13.0726 C   0  0  0  0  0  0  0  0  0  0  0  0
   12.4966   72.2451   19.1477 C   0  0  0  0  0  0  0  0  0  0  0  0
   11.9133   72.8029   18.0200 C   0  0  0  0  0  0  0  0  0  0  0  0
   11.2189   73.9895   18.0912 C   0  0  0  0  0  0  0  0  0  0  0  0
   11.4983   72.6706   15.5875 N   0  0  0  0  0  0  0  0  0  0  0  0
   12.7054   75.8223   14.2123 N   0  0  0  0  0  0  0  0  0  0  0  0
   16.0866   76.3606   12.6665 C   0  0  2  0  0  0  0  0  0  0  0  0
   16.5104   76.8075   11.2571 C   0  0  0  0  0  0  0  0  0  0  0  0
   18.8333   76.0777   12.8567 O   0  0  0  0  0  0  0  0  0  0  0  0
   19.2900   78.2958   13.0800 O   0  0  0  0  0  0  0  0  0  0  0  0
   14.0849   77.5842   12.5488 O   0  0  0  0  0  0  0  0  0  0  0  0
   14.1937   74.1941   13.6668 N   0  0  0  0  0  0  0  0  0  0  0  0
   13.4849   73.2406   14.2800 C   0  0  0  0  0  0  0  0  0  0  0  0
   13.8876   71.9098   14.3136 O   0  0  0  0  0  0  0  0  0  0  0  0
   10.2114   72.2727   15.1084 C   0  0  0  0  0  0  0  0  0  0  0  0
   10.2911   70.8888   14.4219 C   0  0  1  0  0  0  0  0  0  0  0  0
  1  2  2  0
 19  1  1  0
  3  2  1  0
 17  3  2  0
  4  5  2  0
  4 18  1  0
 20  4  1  0
  5  6  1  0
  6  7  2  0
 17  7  1  0
  8  9  2  0
 20  8  1  0
  8 28  1  0
  9 21  1  0
 10 11  1  0
 21 10  2  0
 27 10  1  0
 22 11  1  6
 11 26  2  0
 12 13  1  1
 22 12  1  0
 23 12  1  0
 13 24  2  0
 13 25  1  0
 29 14  1  0
 16 15  1  0
 31 15  1  0
 31 16  1  0
 18 17  1  0
 18 19  2  0
 30 20  1  0
 22 23  1  0
 28 27  2  0
 28 29  1  0
 31 30  1  1
M  END
$$$$
