
     RDKit          3D

 31 35  0  0  0  0  0  0  0  0999 V2000
    3.7577   58.6450   26.6380 C   0  0  0  0  0  0  0  0  0  0  0  0
    4.5420   59.7757   26.5803 C   0  0  0  0  0  0  0  0  0  0  0  0
    5.4347   59.9895   27.5934 C   0  0  0  0  0  0  0  0  0  0  0  0
    4.8654   57.0810   29.7505 C   0  0  0  0  0  0  0  0  0  0  0  0
    5.7779   57.3708   30.7381 C   0  0  0  0  0  0  0  0  0  0  0  0
    6.5763   58.5016   30.7030 C   0  0  0  0  0  0  0  0  0  0  0  0
    6.4611   59.3736   29.6468 C   0  0  0  0  0  0  0  0  0  0  0  0
    2.7936   55.8750   30.3832 C   0  0  0  0  0  0  0  0  0  0  0  0
    2.6098   56.1915   31.6930 C   0  0  0  0  0  0  0  0  0  0  0  0
    0.2953   55.9061   31.5171 C   0  0  0  0  0  0  0  0  0  0  0  0
   -1.0134   55.9362   32.1558 C   0  0  0  0  0  0  0  0  0  0  0  0
   -3.0552   54.5333   32.6059 C   0  0  2  0  0  0  0  0  0  0  0  0
   -4.5190   54.7594   32.4946 C   0  0  0  0  0  0  0  0  0  0  0  0
    0.7135   54.7979   27.5694 C   0  0  0  0  0  0  0  0  0  0  0  0
    5.8384   52.5926   30.1261 C   0  0  0  0  0  0  0  0  0  0  0  0
    6.8854   53.6362   30.1267 C   0  0  0  0  0  0  0  0  0  0  0  0
    5.5347   59.0836   28.6410 C   0  0  0  0  0  0  0  0  0  0  0  0
    4.7400   57.9493   28.6866 C   0  0  0  0  0  0  0  0  0  0  0  0
    3.8387   57.7339   27.6651 C   0  0  0  0  0  0  0  0  0  0  0  0
    4.0811   55.8696   29.7942 N   0  0  0  0  0  0  0  0  0  0  0  0
    1.3751   56.2066   32.2530 N   0  0  0  0  0  0  0  0  0  0  0  0
   -2.2121   55.3246   31.5783 C   0  0  2  0  0  0  0  0  0  0  0  0
   -2.3605   53.8660   31.4125 C   0  0  0  0  0  0  0  0  0  0  0  0
   -5.0329   55.0067   31.3838 O   0  0  0  0  0  0  0  0  0  0  0  0
   -5.3184   54.6950   33.6326 O   0  0  0  0  0  0  0  0  0  0  0  0
   -1.1278   56.5283   33.2830 O   0  0  0  0  0  0  0  0  0  0  0  0
    0.4664   55.5908   30.2164 N   0  0  0  0  0  0  0  0  0  0  0  0
    1.6661   55.5648   29.6291 C   0  0  0  0  0  0  0  0  0  0  0  0
    1.8453   55.2413   28.2949 O   0  0  0  0  0  0  0  0  0  0  0  0
    4.6704   54.6892   29.2325 C   0  0  0  0  0  0  0  0  0  0  0  0
    5.4332   54.0234   30.3904 C   0  0  1  0  0  0  0  0  0  0  0  0
  1  2  2  0
 19  1  1  0
  3  2  1  0
 17  3  2  0
  4  5  2  0
  4 18  1  0
 20  4  1  0
  5  6  1  0
  6  7  2  0
 17  7  1  0
  8  9  2  0
 20  8  1  0
  8 28  1  0
  9 21  1  0
 10 11  1  0
 21 10  2  0
 27 10  1  0
 22 11  1  1
 11 26  2  0
 12 13  1  6
 22 12  1  0
 23 12  1  1
 13 24  2  0
 13 25  1  0
 14 29  1  6
 16 15  1  1
 15 31  1  6
 31 16  1  0
 18 17  1  0
 18 19  2  0
 30 20  1  1
 22 23  1  0
 28 27  2  0
 28 29  1  0
 31 30  1  6
M  END
$$$$
