
     RDKit          3D

 31 35  0  0  0  0  0  0  0  0999 V2000
    6.2469   65.5468   27.4408 C   0  0  0  0  0  0  0  0  0  0  0  0
    6.4373   66.2199   26.2528 C   0  0  0  0  0  0  0  0  0  0  0  0
    5.5046   66.1415   25.2410 C   0  0  0  0  0  0  0  0  0  0  0  0
    3.0529   63.9337   26.8090 C   0  0  0  0  0  0  0  0  0  0  0  0
    2.1390   63.8729   25.7534 C   0  0  0  0  0  0  0  0  0  0  0  0
    2.3077   64.5329   24.5613 C   0  0  0  0  0  0  0  0  0  0  0  0
    3.4415   65.2942   24.4050 C   0  0  0  0  0  0  0  0  0  0  0  0
    3.4115   62.0064   28.2384 C   0  0  0  0  0  0  0  0  0  0  0  0
    4.5571   61.9551   28.9882 C   0  0  0  0  0  0  0  0  0  0  0  0
    4.7043   59.6163   28.6766 C   0  0  0  0  0  0  0  0  0  0  0  0
    5.4427   58.3665   28.9462 C   0  0  0  0  0  0  0  0  0  0  0  0
    5.2048   55.8010   29.1862 C   0  0  2  0  0  0  0  0  0  0  0  0
    4.2351   54.7016   28.8806 C   0  0  0  0  0  0  0  0  0  0  0  0
    1.2318   59.6264   26.4680 C   0  0  0  0  0  0  0  0  0  0  0  0
    2.3219   64.2202   31.4397 C   0  0  0  0  0  0  0  0  0  0  0  0
    1.0911   63.3892   31.4523 C   0  0  0  0  0  0  0  0  0  0  0  0
    4.3723   65.3692   25.4503 C   0  0  0  0  0  0  0  0  0  0  0  0
    4.1897   64.6965   26.6491 C   0  0  0  0  0  0  0  0  0  0  0  0
    5.1225   64.7751   27.6585 C   0  0  0  0  0  0  0  0  0  0  0  0
    2.7605   63.2388   28.0418 N   0  0  0  0  0  0  0  0  0  0  0  0
    5.1773   60.7647   29.1906 N   0  0  0  0  0  0  0  0  0  0  0  0
    4.9791   57.0601   28.4357 C   0  0  2  0  0  0  0  0  0  0  0  0
    6.1229   56.1241   28.0099 C   0  0  0  0  0  0  0  0  0  0  0  0
    3.5843   54.7441   27.8102 O   0  0  0  0  0  0  0  0  0  0  0  0
    4.0582   53.6623   29.7553 O   0  0  0  0  0  0  0  0  0  0  0  0
    6.5024   58.3911   29.6298 O   0  0  0  0  0  0  0  0  0  0  0  0
    3.5975   59.6937   27.9573 N   0  0  0  0  0  0  0  0  0  0  0  0
    2.9240   60.8215   27.7084 C   0  0  0  0  0  0  0  0  0  0  0  0
    1.7627   60.8495   26.9435 O   0  0  0  0  0  0  0  0  0  0  0  0
    1.8439   63.7808   28.9957 C   0  0  0  0  0  0  0  0  0  0  0  0
    2.0907   63.1690   30.3949 C   0  0  1  0  0  0  0  0  0  0  0  0
  1  2  2  0
 19  1  1  0
  3  2  1  0
 17  3  2  0
  4  5  2  0
  4 18  1  0
 20  4  1  0
  5  6  1  0
  6  7  2  0
 17  7  1  0
  8  9  2  0
 20  8  1  0
  8 28  1  0
  9 21  1  0
 10 11  1  0
 21 10  2  0
 27 10  1  0
 22 11  1  1
 11 26  2  0
 12 13  1  6
 22 12  1  0
 23 12  1  0
 13 24  2  0
 13 25  1  0
 29 14  1  0
 16 15  1  0
 31 15  1  0
 31 16  1  0
 18 17  1  0
 18 19  2  0
 30 20  1  0
 22 23  1  0
 28 27  2  0
 28 29  1  0
 31 30  1  6
M  END
$$$$
