
     RDKit          3D

 31 35  0  0  0  0  0  0  0  0999 V2000
    3.0416   70.4005   22.6996 C   0  0  0  0  0  0  0  0  0  0  0  0
    3.1197   70.7835   21.3790 C   0  0  0  0  0  0  0  0  0  0  0  0
    4.3409   70.7302   20.7667 C   0  0  0  0  0  0  0  0  0  0  0  0
    6.5026   69.5049   23.4616 C   0  0  0  0  0  0  0  0  0  0  0  0
    7.6978   69.4900   22.7810 C   0  0  0  0  0  0  0  0  0  0  0  0
    7.8017   69.8717   21.4541 C   0  0  0  0  0  0  0  0  0  0  0  0
    6.6751   70.2825   20.7823 C   0  0  0  0  0  0  0  0  0  0  0  0
    5.6879   67.8896   25.1571 C   0  0  0  0  0  0  0  0  0  0  0  0
    6.1510   66.6481   24.8508 C   0  0  0  0  0  0  0  0  0  0  0  0
    4.2767   65.6285   25.8083 C   0  0  0  0  0  0  0  0  0  0  0  0
    3.5597   64.4044   26.1383 C   0  0  0  0  0  0  0  0  0  0  0  0
    1.9783   63.0736   27.5763 C   0  0  2  0  0  0  0  0  0  0  0  0
    1.3653   63.2774   28.9138 C   0  0  0  0  0  0  0  0  0  0  0  0
    2.7754   69.3190   26.8579 C   0  0  0  0  0  0  0  0  0  0  0  0
    7.1279   72.3578   26.3230 C   0  0  0  0  0  0  0  0  0  0  0  0
    8.3447   72.1197   25.5181 C   0  0  0  0  0  0  0  0  0  0  0  0
    5.4583   70.3000   21.4700 C   0  0  0  0  0  0  0  0  0  0  0  0
    5.3658   69.9166   22.7984 C   0  0  0  0  0  0  0  0  0  0  0  0
    4.1340   69.9712   23.4165 C   0  0  0  0  0  0  0  0  0  0  0  0
    6.4206   69.0566   24.8316 N   0  0  0  0  0  0  0  0  0  0  0  0
    5.4533   65.5310   25.1726 N   0  0  0  0  0  0  0  0  0  0  0  0
    2.2532   64.3827   26.7994 C   0  0  2  0  0  0  0  0  0  0  0  0
    1.1523   63.5050   26.3583 C   0  0  0  0  0  0  0  0  0  0  0  0
    0.4838   64.1470   29.0739 O   0  0  0  0  0  0  0  0  0  0  0  0
    1.7761   62.4960   29.9904 O   0  0  0  0  0  0  0  0  0  0  0  0
    4.0962   63.2839   25.8368 O   0  0  0  0  0  0  0  0  0  0  0  0
    3.8082   66.8555   26.1171 N   0  0  0  0  0  0  0  0  0  0  0  0
    4.4660   67.9789   25.8167 C   0  0  0  0  0  0  0  0  0  0  0  0
    3.9879   69.2394   26.1316 O   0  0  0  0  0  0  0  0  0  0  0  0
    7.0959   69.8471   25.8192 C   0  0  0  0  0  0  0  0  0  0  0  0
    7.0952   71.2816   25.2639 C   0  0  1  0  0  0  0  0  0  0  0  0
  1  2  2  0
 19  1  1  0
  3  2  1  0
 17  3  2  0
  4  5  2  0
  4 18  1  0
 20  4  1  0
  5  6  1  0
  6  7  2  0
 17  7  1  0
  8  9  2  0
 20  8  1  0
  8 28  1  0
  9 21  1  0
 10 11  1  0
 21 10  2  0
 27 10  1  0
 22 11  1  6
 11 26  2  0
 12 13  1  1
 22 12  1  0
 23 12  1  1
 13 24  2  0
 13 25  1  0
 14 29  1  6
 16 15  1  1
 15 31  1  6
 31 16  1  0
 18 17  1  0
 18 19  2  0
 30 20  1  1
 22 23  1  0
 28 27  2  0
 28 29  1  0
 31 30  1  1
M  END
$$$$
