
     RDKit          3D

 31 35  0  0  0  0  0  0  0  0999 V2000
    4.8688   56.4931   26.3615 C   0  0  0  0  0  0  0  0  0  0  0  0
    5.9616   55.6905   26.6111 C   0  0  0  0  0  0  0  0  0  0  0  0
    6.7264   55.8730   27.7432 C   0  0  0  0  0  0  0  0  0  0  0  0
    4.9518   58.6824   29.2604 C   0  0  0  0  0  0  0  0  0  0  0  0
    5.7605   58.8398   30.3892 C   0  0  0  0  0  0  0  0  0  0  0  0
    6.8540   58.0541   30.6580 C   0  0  0  0  0  0  0  0  0  0  0  0
    7.1641   57.0590   29.7619 C   0  0  0  0  0  0  0  0  0  0  0  0
    2.6094   59.1121   29.7243 C   0  0  0  0  0  0  0  0  0  0  0  0
    1.4977   59.9117   29.6833 C   0  0  0  0  0  0  0  0  0  0  0  0
    0.2592   58.3221   30.9192 C   0  0  0  0  0  0  0  0  0  0  0  0
   -1.0285   57.9545   31.5410 C   0  0  0  0  0  0  0  0  0  0  0  0
   -3.2581   58.6823   32.6343 C   0  0  2  0  0  0  0  0  0  0  0  0
   -3.9382   59.9115   33.1527 C   0  0  0  0  0  0  0  0  0  0  0  0
    3.5238   55.8245   31.1064 C   0  0  0  0  0  0  0  0  0  0  0  0
    4.9866   62.9908   28.3586 C   0  0  0  0  0  0  0  0  0  0  0  0
    3.6688   63.2230   29.0028 C   0  0  0  0  0  0  0  0  0  0  0  0
    6.3672   56.8832   28.6222 C   0  0  0  0  0  0  0  0  0  0  0  0
    5.2658   57.6848   28.3627 C   0  0  0  0  0  0  0  0  0  0  0  0
    4.5034   57.5019   27.2310 C   0  0  0  0  0  0  0  0  0  0  0  0
    3.7949   59.5318   29.0921 N   0  0  0  0  0  0  0  0  0  0  0  0
    0.3497   59.5010   30.2800 N   0  0  0  0  0  0  0  0  0  0  0  0
   -2.1167   58.9370   31.7223 C   0  0  2  0  0  0  0  0  0  0  0  0
   -3.4629   58.4805   31.1348 C   0  0  0  0  0  0  0  0  0  0  0  0
   -3.8099   60.9888   32.5250 O   0  0  0  0  0  0  0  0  0  0  0  0
   -4.6910   59.8644   34.2963 O   0  0  0  0  0  0  0  0  0  0  0  0
   -1.2275   56.7734   31.9362 O   0  0  0  0  0  0  0  0  0  0  0  0
    1.3461   57.5697   30.9438 N   0  0  0  0  0  0  0  0  0  0  0  0
    2.5155   57.8961   30.3837 C   0  0  0  0  0  0  0  0  0  0  0  0
    3.6316   57.0679   30.4385 O   0  0  0  0  0  0  0  0  0  0  0  0
    3.8630   60.7259   28.3088 C   0  0  0  0  0  0  0  0  0  0  0  0
    4.3286   61.9191   29.1762 C   0  0  1  0  0  0  0  0  0  0  0  0
  1  2  2  0
 19  1  1  0
  3  2  1  0
 17  3  2  0
  4  5  2  0
  4 18  1  0
 20  4  1  0
  5  6  1  0
  6  7  2  0
 17  7  1  0
  8  9  2  0
 20  8  1  0
  8 28  1  0
  9 21  1  0
 10 11  1  0
 21 10  2  0
 27 10  1  0
 22 11  1  1
 11 26  2  0
 12 13  1  6
 22 12  1  0
 23 12  1  0
 13 24  2  0
 13 25  1  0
 29 14  1  0
 16 15  1  0
 31 15  1  0
 31 16  1  0
 18 17  1  0
 18 19  2  0
 30 20  1  0
 22 23  1  0
 28 27  2  0
 28 29  1  0
 31 30  1  6
M  END
$$$$
