
     RDKit          3D

 31 35  0  0  0  0  0  0  0  0999 V2000
   25.2726   52.8870   41.1750 C   0  0  0  0  0  0  0  0  0  0  0  0
   24.8758   53.2741   42.4357 C   0  0  0  0  0  0  0  0  0  0  0  0
   25.4983   52.6996   43.5088 C   0  0  0  0  0  0  0  0  0  0  0  0
   27.8802   50.4287   41.8946 C   0  0  0  0  0  0  0  0  0  0  0  0
   28.4509   49.8871   43.0229 C   0  0  0  0  0  0  0  0  0  0  0  0
   28.0679   50.2590   44.3004 C   0  0  0  0  0  0  0  0  0  0  0  0
   27.0820   51.2035   44.4588 C   0  0  0  0  0  0  0  0  0  0  0  0
   27.7644   48.9371   39.9174 C   0  0  0  0  0  0  0  0  0  0  0  0
   28.0381   47.6626   40.3052 C   0  0  0  0  0  0  0  0  0  0  0  0
   26.6408   46.7773   38.6521 C   0  0  0  0  0  0  0  0  0  0  0  0
   26.0637   45.6050   38.0086 C   0  0  0  0  0  0  0  0  0  0  0  0
   24.5062   44.3298   36.4961 C   0  0  2  0  0  0  0  0  0  0  0  0
   23.0756   44.4665   36.1208 C   0  0  0  0  0  0  0  0  0  0  0  0
   25.5132   50.5989   37.5699 C   0  0  0  0  0  0  0  0  0  0  0  0
   29.2934   53.3063   39.2904 C   0  0  0  0  0  0  0  0  0  0  0  0
   29.4258   52.5563   38.0235 C   0  0  0  0  0  0  0  0  0  0  0  0
   26.4987   51.7563   43.3152 C   0  0  0  0  0  0  0  0  0  0  0  0
   26.8890   51.3761   42.0411 C   0  0  0  0  0  0  0  0  0  0  0  0
   26.2605   51.9550   40.9584 C   0  0  0  0  0  0  0  0  0  0  0  0
   28.3348   50.0526   40.5769 N   0  0  0  0  0  0  0  0  0  0  0  0
   27.4828   46.5957   39.6796 N   0  0  0  0  0  0  0  0  0  0  0  0
   25.2060   45.6699   36.8234 C   0  0  2  0  0  0  0  0  0  0  0  0
   25.5364   44.9778   35.5629 C   0  0  0  0  0  0  0  0  0  0  0  0
   22.6272   45.5712   35.7499 O   0  0  0  0  0  0  0  0  0  0  0  0
   22.2341   43.3591   36.1832 O   0  0  0  0  0  0  0  0  0  0  0  0
   26.3162   44.4530   38.5019 O   0  0  0  0  0  0  0  0  0  0  0  0
   26.3621   48.0377   38.2594 N   0  0  0  0  0  0  0  0  0  0  0  0
   26.8894   49.1139   38.8502 C   0  0  0  0  0  0  0  0  0  0  0  0
   26.6060   50.4084   38.4494 O   0  0  0  0  0  0  0  0  0  0  0  0
   29.3782   50.8456   39.9948 C   0  0  0  0  0  0  0  0  0  0  0  0
   28.6577   51.9400   39.1890 C   0  0  1  0  0  0  0  0  0  0  0  0
  1  2  2  0
 19  1  1  0
  3  2  1  0
 17  3  2  0
  4  5  2  0
  4 18  1  0
 20  4  1  0
  5  6  1  0
  6  7  2  0
 17  7  1  0
  8  9  2  0
 20  8  1  0
  8 28  1  0
  9 21  1  0
 10 11  1  0
 21 10  2  0
 27 10  1  0
 22 11  1  1
 11 26  2  0
 12 13  1  6
 22 12  1  0
 23 12  1  1
 13 24  2  0
 13 25  1  0
 14 29  1  6
 16 15  1  1
 15 31  1  6
 31 16  1  0
 18 17  1  0
 18 19  2  0
 30 20  1  1
 22 23  1  0
 28 27  2  0
 28 29  1  0
 31 30  1  1
M  END
$$$$
