
     RDKit          3D

 31 35  0  0  0  0  0  0  0  0999 V2000
   -0.5855   49.3293   34.0623 C   0  0  0  0  0  0  0  0  0  0  0  0
   -1.4714   49.7240   35.0402 C   0  0  0  0  0  0  0  0  0  0  0  0
   -2.3170   50.7607   34.7592 C   0  0  0  0  0  0  0  0  0  0  0  0
   -1.3566   51.6325   31.3307 C   0  0  0  0  0  0  0  0  0  0  0  0
   -2.2304   52.6751   31.1271 C   0  0  0  0  0  0  0  0  0  0  0  0
   -3.1288   53.0910   32.0951 C   0  0  0  0  0  0  0  0  0  0  0  0
   -3.1573   52.4452   33.3081 C   0  0  0  0  0  0  0  0  0  0  0  0
    0.6914   51.9492   29.9696 C   0  0  0  0  0  0  0  0  0  0  0  0
    0.9077   52.4345   28.7176 C   0  0  0  0  0  0  0  0  0  0  0  0
    2.9208   53.4311   29.3681 C   0  0  0  0  0  0  0  0  0  0  0  0
    4.0893   54.2231   29.0090 C   0  0  0  0  0  0  0  0  0  0  0  0
    5.8795   55.9039   29.5656 C   0  0  2  0  0  0  0  0  0  0  0  0
    6.1128   56.8415   30.6937 C   0  0  0  0  0  0  0  0  0  0  0  0
    2.2550   52.2330   33.2607 C   0  0  0  0  0  0  0  0  0  0  0  0
   -1.3540   49.8529   27.0913 C   0  0  0  0  0  0  0  0  0  0  0  0
   -2.5675   49.3471   27.7671 C   0  0  0  0  0  0  0  0  0  0  0  0
   -2.2709   51.3854   33.5199 C   0  0  0  0  0  0  0  0  0  0  0  0
   -1.3751   50.9779   32.5443 C   0  0  0  0  0  0  0  0  0  0  0  0
   -0.5213   49.9325   32.8279 C   0  0  0  0  0  0  0  0  0  0  0  0
   -0.4643   51.1940   30.2838 N   0  0  0  0  0  0  0  0  0  0  0  0
    2.0095   53.1666   28.4208 N   0  0  0  0  0  0  0  0  0  0  0  0
    5.1317   54.6092   29.9623 C   0  0  2  0  0  0  0  0  0  0  0  0
    6.5701   54.5367   29.6416 C   0  0  0  0  0  0  0  0  0  0  0  0
    6.2066   56.4077   31.8607 O   0  0  0  0  0  0  0  0  0  0  0  0
    6.2270   58.2070   30.4473 O   0  0  0  0  0  0  0  0  0  0  0  0
    4.2168   54.6055   27.7959 O   0  0  0  0  0  0  0  0  0  0  0  0
    2.7159   52.9547   30.6137 N   0  0  0  0  0  0  0  0  0  0  0  0
    1.6434   52.2298   30.9447 C   0  0  0  0  0  0  0  0  0  0  0  0
    1.4304   51.7390   32.2216 O   0  0  0  0  0  0  0  0  0  0  0  0
   -0.8130   49.9881   29.5907 C   0  0  0  0  0  0  0  0  0  0  0  0
   -1.7271   50.4311   28.4357 C   0  0  1  0  0  0  0  0  0  0  0  0
  1  2  2  0
 19  1  1  0
  3  2  1  0
 17  3  2  0
  4  5  2  0
  4 18  1  0
 20  4  1  0
  5  6  1  0
  6  7  2  0
 17  7  1  0
  8  9  2  0
 20  8  1  0
  8 28  1  0
  9 21  1  0
 10 11  1  0
 21 10  2  0
 27 10  1  0
 22 11  1  6
 11 26  2  0
 12 13  1  1
 22 12  1  0
 23 12  1  1
 13 24  2  0
 13 25  1  0
 14 29  1  6
 16 15  1  1
 15 31  1  6
 31 16  1  0
 18 17  1  0
 18 19  2  0
 30 20  1  1
 22 23  1  0
 28 27  2  0
 28 29  1  0
 31 30  1  1
M  END
$$$$
