
     RDKit          3D

 31 35  0  0  0  0  0  0  0  0999 V2000
    8.4653   77.5696   19.3610 C   0  0  0  0  0  0  0  0  0  0  0  0
    9.3191   78.1350   20.2820 C   0  0  0  0  0  0  0  0  0  0  0  0
   10.5611   77.5830   20.4287 C   0  0  0  0  0  0  0  0  0  0  0  0
   10.4740   74.8317   18.0081 C   0  0  0  0  0  0  0  0  0  0  0  0
   11.7350   74.3253   18.2210 C   0  0  0  0  0  0  0  0  0  0  0  0
   12.6105   74.8754   19.1420 C   0  0  0  0  0  0  0  0  0  0  0  0
   12.2152   75.9681   19.8762 C   0  0  0  0  0  0  0  0  0  0  0  0
    8.8163   73.1252   17.3100 C   0  0  0  0  0  0  0  0  0  0  0  0
    7.4613   73.1985   17.4004 C   0  0  0  0  0  0  0  0  0  0  0  0
    7.2923   70.9149   17.8755 C   0  0  0  0  0  0  0  0  0  0  0  0
    6.4479   69.7654   18.1712 C   0  0  0  0  0  0  0  0  0  0  0  0
    4.2828   68.8150   19.0364 C   0  0  2  0  0  0  0  0  0  0  0  0
    3.0840   69.3902   19.6983 C   0  0  0  0  0  0  0  0  0  0  0  0
   11.3917   70.5480   17.6898 C   0  0  0  0  0  0  0  0  0  0  0  0
   10.1994   73.7803   13.4940 C   0  0  0  0  0  0  0  0  0  0  0  0
   11.1907   74.8646   13.6572 C   0  0  0  0  0  0  0  0  0  0  0  0
   10.9343   76.4858   19.6638 C   0  0  0  0  0  0  0  0  0  0  0  0
   10.0658   75.9269   18.7400 C   0  0  0  0  0  0  0  0  0  0  0  0
    8.8124   76.4831   18.5924 C   0  0  0  0  0  0  0  0  0  0  0  0
    9.6028   74.2629   17.0071 N   0  0  0  0  0  0  0  0  0  0  0  0
    6.7086   72.1060   17.6800 N   0  0  0  0  0  0  0  0  0  0  0  0
    4.9883   69.7798   18.0543 C   0  0  2  0  0  0  0  0  0  0  0  0
    4.2218   68.6408   17.5139 C   0  0  0  0  0  0  0  0  0  0  0  0
    2.1391   68.6487   20.0391 O   0  0  0  0  0  0  0  0  0  0  0  0
    3.0156   70.7599   19.9386 O   0  0  0  0  0  0  0  0  0  0  0  0
    7.0067   68.6816   18.5549 O   0  0  0  0  0  0  0  0  0  0  0  0
    8.6360   70.8310   17.7879 N   0  0  0  0  0  0  0  0  0  0  0  0
    9.4113   71.8843   17.5147 C   0  0  0  0  0  0  0  0  0  0  0  0
   10.7904   71.8018   17.4246 O   0  0  0  0  0  0  0  0  0  0  0  0
    9.5895   74.8924   15.7188 C   0  0  0  0  0  0  0  0  0  0  0  0
   10.6480   74.1460   14.8890 C   0  0  1  0  0  0  0  0  0  0  0  0
  1  2  2  0
 19  1  1  0
  3  2  1  0
 17  3  2  0
  4  5  2  0
  4 18  1  0
 20  4  1  0
  5  6  1  0
  6  7  2  0
 17  7  1  0
  8  9  2  0
 20  8  1  0
  8 28  1  0
  9 21  1  0
 10 11  1  0
 21 10  2  0
 27 10  1  0
 22 11  1  1
 11 26  2  0
 12 13  1  6
 22 12  1  0
 23 12  1  1
 13 24  2  0
 13 25  1  0
 14 29  1  6
 16 15  1  1
 15 31  1  6
 31 16  1  0
 18 17  1  0
 18 19  2  0
 30 20  1  1
 22 23  1  0
 28 27  2  0
 28 29  1  0
 31 30  1  1
M  END
$$$$
