
     RDKit          3D

 31 35  0  0  0  0  0  0  0  0999 V2000
    4.0617   61.8170   30.9334 C   0  0  0  0  0  0  0  0  0  0  0  0
    3.1509   62.7338   30.4573 C   0  0  0  0  0  0  0  0  0  0  0  0
    2.4834   62.4346   29.3023 C   0  0  0  0  0  0  0  0  0  0  0  0
    3.8663   59.1512   28.4401 C   0  0  0  0  0  0  0  0  0  0  0  0
    3.1647   58.9269   27.2784 C   0  0  0  0  0  0  0  0  0  0  0  0
    2.2453   59.8338   26.7792 C   0  0  0  0  0  0  0  0  0  0  0  0
    2.0173   61.0050   27.4616 C   0  0  0  0  0  0  0  0  0  0  0  0
    4.2933   57.0107   29.6162 C   0  0  0  0  0  0  0  0  0  0  0  0
    4.0848   56.9911   30.9600 C   0  0  0  0  0  0  0  0  0  0  0  0
    3.3216   54.7817   30.8873 C   0  0  0  0  0  0  0  0  0  0  0  0
    2.8054   53.6203   31.5989 C   0  0  0  0  0  0  0  0  0  0  0  0
    1.2157   51.6683   31.5551 C   0  0  2  0  0  0  0  0  0  0  0  0
    0.2719   51.1166   30.5496 C   0  0  0  0  0  0  0  0  0  0  0  0
    3.9090   54.6860   26.8108 C   0  0  0  0  0  0  0  0  0  0  0  0
    7.6442   58.6779   26.6940 C   0  0  0  0  0  0  0  0  0  0  0  0
    7.8796   57.2909   27.1478 C   0  0  0  0  0  0  0  0  0  0  0  0
    2.7283   61.2377   28.6423 C   0  0  0  0  0  0  0  0  0  0  0  0
    3.6470   60.3234   29.1325 C   0  0  0  0  0  0  0  0  0  0  0  0
    4.3212   60.6254   30.2973 C   0  0  0  0  0  0  0  0  0  0  0  0
    4.7840   58.1641   28.9577 N   0  0  0  0  0  0  0  0  0  0  0  0
    3.6047   55.8894   31.5877 N   0  0  0  0  0  0  0  0  0  0  0  0
    2.4599   52.3562   30.9454 C   0  0  2  0  0  0  0  0  0  0  0  0
    2.6172   51.0480   31.6092 C   0  0  0  0  0  0  0  0  0  0  0  0
    0.6672   50.8577   29.3939 O   0  0  0  0  0  0  0  0  0  0  0  0
   -1.0564   50.8881   30.8986 O   0  0  0  0  0  0  0  0  0  0  0  0
    2.6427   53.7038   32.8641 O   0  0  0  0  0  0  0  0  0  0  0  0
    3.5245   54.7905   29.5534 N   0  0  0  0  0  0  0  0  0  0  0  0
    3.9960   55.8558   28.8994 C   0  0  0  0  0  0  0  0  0  0  0  0
    4.2059   55.8680   27.5309 O   0  0  0  0  0  0  0  0  0  0  0  0
    6.1843   58.4181   28.7819 C   0  0  0  0  0  0  0  0  0  0  0  0
    6.5115   57.9327   27.3594 C   0  0  1  0  0  0  0  0  0  0  0  0
  1  2  2  0
 19  1  1  0
  3  2  1  0
 17  3  2  0
  4  5  2  0
  4 18  1  0
 20  4  1  0
  5  6  1  0
  6  7  2  0
 17  7  1  0
  8  9  2  0
 20  8  1  0
  8 28  1  0
  9 21  1  0
 10 11  1  0
 21 10  2  0
 27 10  1  0
 22 11  1  1
 11 26  2  0
 12 13  1  6
 22 12  1  0
 23 12  1  1
 13 24  2  0
 13 25  1  0
 14 29  1  6
 16 15  1  1
 15 31  1  6
 31 16  1  0
 18 17  1  0
 18 19  2  0
 30 20  1  1
 22 23  1  0
 28 27  2  0
 28 29  1  0
 31 30  1  1
M  END
$$$$
