
     RDKit          3D

 31 35  0  0  0  0  0  0  0  0999 V2000
    6.3126   71.9945   25.8104 C   0  0  0  0  0  0  0  0  0  0  0  0
    7.3788   71.6201   26.6001 C   0  0  0  0  0  0  0  0  0  0  0  0
    8.4347   70.9110   26.0688 C   0  0  0  0  0  0  0  0  0  0  0  0
    7.3186   70.6143   22.6032 C   0  0  0  0  0  0  0  0  0  0  0  0
    8.4038   69.8856   22.1086 C   0  0  0  0  0  0  0  0  0  0  0  0
    9.4754   69.5005   22.8756 C   0  0  0  0  0  0  0  0  0  0  0  0
    9.4736   69.8553   24.2035 C   0  0  0  0  0  0  0  0  0  0  0  0
    6.5046   72.1477   20.9085 C   0  0  0  0  0  0  0  0  0  0  0  0
    5.8644   72.2857   19.7051 C   0  0  0  0  0  0  0  0  0  0  0  0
    6.9253   74.3654   19.3334 C   0  0  0  0  0  0  0  0  0  0  0  0
    7.1098   75.5298   18.4447 C   0  0  0  0  0  0  0  0  0  0  0  0
    8.0129   77.9152   18.0087 C   0  0  2  0  0  0  0  0  0  0  0  0
    8.3926   79.1563   18.7557 C   0  0  0  0  0  0  0  0  0  0  0  0
    8.8104   74.1249   22.9851 C   0  0  0  0  0  0  0  0  0  0  0  0
    4.7881   67.8052   21.2198 C   0  0  0  0  0  0  0  0  0  0  0  0
    3.8946   68.4356   20.2150 C   0  0  0  0  0  0  0  0  0  0  0  0
    8.3953   70.5857   24.7216 C   0  0  0  0  0  0  0  0  0  0  0  0
    7.3186   70.9675   23.9355 C   0  0  0  0  0  0  0  0  0  0  0  0
    6.2643   71.6750   24.4677 C   0  0  0  0  0  0  0  0  0  0  0  0
    6.2607   71.0115   21.7026 N   0  0  0  0  0  0  0  0  0  0  0  0
    6.0878   73.3883   18.9454 N   0  0  0  0  0  0  0  0  0  0  0  0
    7.9436   76.6853   18.8345 C   0  0  2  0  0  0  0  0  0  0  0  0
    9.1564   76.9078   17.9151 C   0  0  0  0  0  0  0  0  0  0  0  0
    8.8937   79.0490   19.8996 O   0  0  0  0  0  0  0  0  0  0  0  0
    8.1969   80.3935   18.2011 O   0  0  0  0  0  0  0  0  0  0  0  0
    6.5491   75.5605   17.3153 O   0  0  0  0  0  0  0  0  0  0  0  0
    7.5300   74.2075   20.4986 N   0  0  0  0  0  0  0  0  0  0  0  0
    7.3684   73.1558   21.3083 C   0  0  0  0  0  0  0  0  0  0  0  0
    8.0298   73.0370   22.5261 O   0  0  0  0  0  0  0  0  0  0  0  0
    5.0299   70.2864   21.6435 C   0  0  0  0  0  0  0  0  0  0  0  0
    5.1260   69.1354   20.6145 C   0  0  1  0  0  0  0  0  0  0  0  0
  1  2  2  0
 19  1  1  0
  3  2  1  0
 17  3  2  0
  4  5  2  0
  4 18  1  0
 20  4  1  0
  5  6  1  0
  6  7  2  0
 17  7  1  0
  8  9  2  0
 20  8  1  0
  8 28  1  0
  9 21  1  0
 10 11  1  0
 21 10  2  0
 27 10  1  0
 22 11  1  6
 11 26  2  0
 12 13  1  1
 22 12  1  0
 23 12  1  0
 13 24  2  0
 13 25  1  0
 29 14  1  0
 16 15  1  0
 31 15  1  0
 31 16  1  0
 18 17  1  0
 18 19  2  0
 30 20  1  0
 22 23  1  0
 28 27  2  0
 28 29  1  0
 31 30  1  1
M  END
$$$$
