
     RDKit          3D

 31 35  0  0  0  0  0  0  0  0999 V2000
    6.4187   70.2752   20.5584 C   0  0  0  0  0  0  0  0  0  0  0  0
    7.2499   69.4001   19.8920 C   0  0  0  0  0  0  0  0  0  0  0  0
    8.4122   68.9472   20.4785 C   0  0  0  0  0  0  0  0  0  0  0  0
    8.2312   70.6985   23.6790 C   0  0  0  0  0  0  0  0  0  0  0  0
    9.4238   70.2233   24.2313 C   0  0  0  0  0  0  0  0  0  0  0  0
   10.2679   69.3532   23.5867 C   0  0  0  0  0  0  0  0  0  0  0  0
    9.9131   68.9302   22.3279 C   0  0  0  0  0  0  0  0  0  0  0  0
    6.1981   72.0119   23.8461 C   0  0  0  0  0  0  0  0  0  0  0  0
    5.0662   71.2455   23.9396 C   0  0  0  0  0  0  0  0  0  0  0  0
    3.8387   72.8345   22.6920 C   0  0  0  0  0  0  0  0  0  0  0  0
    2.5451   73.2209   22.0944 C   0  0  0  0  0  0  0  0  0  0  0  0
    1.2317   75.4172   21.7103 C   0  0  2  0  0  0  0  0  0  0  0  0
    1.4709   76.8591   21.3843 C   0  0  0  0  0  0  0  0  0  0  0  0
    7.1170   75.3308   22.5692 C   0  0  0  0  0  0  0  0  0  0  0  0
    7.9224   71.1164   28.1455 C   0  0  0  0  0  0  0  0  0  0  0  0
    6.5039   71.5325   28.0028 C   0  0  0  0  0  0  0  0  0  0  0  0
    8.7215   69.3944   21.7538 C   0  0  0  0  0  0  0  0  0  0  0  0
    7.8785   70.2741   22.4161 C   0  0  0  0  0  0  0  0  0  0  0  0
    6.7184   70.7262   21.8288 C   0  0  0  0  0  0  0  0  0  0  0  0
    7.3884   71.5764   24.4583 N   0  0  0  0  0  0  0  0  0  0  0  0
    3.9141   71.6718   23.3621 N   0  0  0  0  0  0  0  0  0  0  0  0
    2.3616   74.5095   21.3956 C   0  0  2  0  0  0  0  0  0  0  0  0
    1.1364   74.5372   20.4662 C   0  0  0  0  0  0  0  0  0  0  0  0
    2.6468   77.2928   21.3693 O   0  0  0  0  0  0  0  0  0  0  0  0
    0.4228   77.6960   21.1057 O   0  0  0  0  0  0  0  0  0  0  0  0
    1.5543   72.4441   22.1704 O   0  0  0  0  0  0  0  0  0  0  0  0
    4.9449   73.5548   22.6169 N   0  0  0  0  0  0  0  0  0  0  0  0
    6.1197   73.2111   23.1547 C   0  0  0  0  0  0  0  0  0  0  0  0
    7.2564   74.0054   23.0465 O   0  0  0  0  0  0  0  0  0  0  0  0
    7.7651   71.9845   25.7757 C   0  0  0  0  0  0  0  0  0  0  0  0
    7.2124   70.9963   26.8296 C   0  0  1  0  0  0  0  0  0  0  0  0
  1  2  2  0
 19  1  1  0
  3  2  1  0
 17  3  2  0
  4  5  2  0
  4 18  1  0
 20  4  1  0
  5  6  1  0
  6  7  2  0
 17  7  1  0
  8  9  2  0
 20  8  1  0
  8 28  1  0
  9 21  1  0
 10 11  1  0
 21 10  2  0
 27 10  1  0
 22 11  1  1
 11 26  2  0
 12 13  1  6
 22 12  1  0
 23 12  1  0
 13 24  2  0
 13 25  1  0
 29 14  1  0
 16 15  1  0
 31 15  1  0
 31 16  1  0
 18 17  1  0
 18 19  2  0
 30 20  1  0
 22 23  1  0
 28 27  2  0
 28 29  1  0
 31 30  1  6
M  END
$$$$
