
     RDKit          3D

 31 35  0  0  0  0  0  0  0  0999 V2000
    5.2468   72.1190   20.4049 C   0  0  0  0  0  0  0  0  0  0  0  0
    6.1916   72.4180   19.4485 C   0  0  0  0  0  0  0  0  0  0  0  0
    7.5038   72.4495   19.8309 C   0  0  0  0  0  0  0  0  0  0  0  0
    7.2877   71.6382   23.3990 C   0  0  0  0  0  0  0  0  0  0  0  0
    8.6263   71.7006   23.7095 C   0  0  0  0  0  0  0  0  0  0  0  0
    9.5943   72.0005   22.7660 C   0  0  0  0  0  0  0  0  0  0  0  0
    9.2149   72.2468   21.4680 C   0  0  0  0  0  0  0  0  0  0  0  0
    5.7721   69.9673   24.4278 C   0  0  0  0  0  0  0  0  0  0  0  0
    4.5026   69.7262   24.8517 C   0  0  0  0  0  0  0  0  0  0  0  0
    4.7275   67.4305   24.4668 C   0  0  0  0  0  0  0  0  0  0  0  0
    4.1355   66.1001   24.5006 C   0  0  0  0  0  0  0  0  0  0  0  0
    2.6383   64.2871   25.4012 C   0  0  2  0  0  0  0  0  0  0  0  0
    2.0760   63.9699   26.7389 C   0  0  0  0  0  0  0  0  0  0  0  0
    8.5511   68.0226   23.0477 C   0  0  0  0  0  0  0  0  0  0  0  0
    6.9250   73.3111   27.4445 C   0  0  0  0  0  0  0  0  0  0  0  0
    6.1106   72.1735   27.9218 C   0  0  0  0  0  0  0  0  0  0  0  0
    7.8556   72.1852   21.1478 C   0  0  0  0  0  0  0  0  0  0  0  0
    6.8950   71.8849   22.1003 C   0  0  0  0  0  0  0  0  0  0  0  0
    5.5710   71.8539   21.7150 C   0  0  0  0  0  0  0  0  0  0  0  0
    6.3084   71.2773   24.3966 N   0  0  0  0  0  0  0  0  0  0  0  0
    3.9868   68.4725   24.8709 N   0  0  0  0  0  0  0  0  0  0  0  0
    2.8573   65.7973   25.1479 C   0  0  2  0  0  0  0  0  0  0  0  0
    1.7560   65.1059   24.4508 C   0  0  0  0  0  0  0  0  0  0  0  0
    1.0219   64.5183   27.1223 O   0  0  0  0  0  0  0  0  0  0  0  0
    2.7274   63.0587   27.5658 O   0  0  0  0  0  0  0  0  0  0  0  0
    4.7623   65.1397   23.9358 O   0  0  0  0  0  0  0  0  0  0  0  0
    5.9883   67.6585   24.0440 N   0  0  0  0  0  0  0  0  0  0  0  0
    6.5317   68.8787   24.0107 C   0  0  0  0  0  0  0  0  0  0  0  0
    7.8252   69.1161   23.5780 O   0  0  0  0  0  0  0  0  0  0  0  0
    5.9115   72.2984   25.3219 C   0  0  0  0  0  0  0  0  0  0  0  0
    6.7979   72.0921   26.5619 C   0  0  1  0  0  0  0  0  0  0  0  0
  1  2  2  0
 19  1  1  0
  3  2  1  0
 17  3  2  0
  4  5  2  0
  4 18  1  0
 20  4  1  0
  5  6  1  0
  6  7  2  0
 17  7  1  0
  8  9  2  0
 20  8  1  0
  8 28  1  0
  9 21  1  0
 10 11  1  0
 21 10  2  0
 27 10  1  0
 22 11  1  6
 11 26  2  0
 12 13  1  1
 22 12  1  0
 23 12  1  1
 13 24  2  0
 13 25  1  0
 14 29  1  6
 16 15  1  1
 15 31  1  6
 31 16  1  0
 18 17  1  0
 18 19  2  0
 30 20  1  1
 22 23  1  0
 28 27  2  0
 28 29  1  0
 31 30  1  6
M  END
$$$$
