
     RDKit          3D

 31 35  0  0  0  0  0  0  0  0999 V2000
   -2.4495   54.1828   28.8666 C   0  0  0  0  0  0  0  0  0  0  0  0
   -3.4526   54.0324   29.8004 C   0  0  0  0  0  0  0  0  0  0  0  0
   -3.4305   54.7458   30.9796 C   0  0  0  0  0  0  0  0  0  0  0  0
   -0.3365   56.6327   30.5207 C   0  0  0  0  0  0  0  0  0  0  0  0
   -0.3477   57.3273   31.7333 C   0  0  0  0  0  0  0  0  0  0  0  0
   -1.3343   57.1929   32.6787 C   0  0  0  0  0  0  0  0  0  0  0  0
   -2.3655   56.3248   32.4099 C   0  0  0  0  0  0  0  0  0  0  0  0
    1.8644   56.0604   29.6754 C   0  0  0  0  0  0  0  0  0  0  0  0
    1.8479   54.8011   29.1361 C   0  0  0  0  0  0  0  0  0  0  0  0
    4.0783   54.4320   29.8270 C   0  0  0  0  0  0  0  0  0  0  0  0
    5.2323   53.5124   29.8768 C   0  0  0  0  0  0  0  0  0  0  0  0
    4.0843   51.2160   30.2001 C   0  0  2  0  0  0  0  0  0  0  0  0
    3.6821   50.0091   29.4101 C   0  0  0  0  0  0  0  0  0  0  0  0
    4.2508   58.1857   31.5037 C   0  0  0  0  0  0  0  0  0  0  0  0
    2.3327   59.6242   27.8721 C   0  0  0  0  0  0  0  0  0  0  0  0
    1.1918   60.4388   28.3624 C   0  0  0  0  0  0  0  0  0  0  0  0
   -2.3747   55.6169   31.2001 C   0  0  0  0  0  0  0  0  0  0  0  0
   -1.3709   55.7617   30.2543 C   0  0  0  0  0  0  0  0  0  0  0  0
   -1.3939   55.0479   29.0774 C   0  0  0  0  0  0  0  0  0  0  0  0
    0.7245   56.8795   29.5712 N   0  0  0  0  0  0  0  0  0  0  0  0
    2.9519   54.0160   29.2232 N   0  0  0  0  0  0  0  0  0  0  0  0
    5.1019   52.0775   29.5507 C   0  0  2  0  0  0  0  0  0  0  0  0
    5.5261   51.1442   30.6972 C   0  0  0  0  0  0  0  0  0  0  0  0
    3.7358   50.0551   28.1587 O   0  0  0  0  0  0  0  0  0  0  0  0
    3.2606   48.8688   30.0415 O   0  0  0  0  0  0  0  0  0  0  0  0
    6.3719   53.9423   30.2046 O   0  0  0  0  0  0  0  0  0  0  0  0
    4.0678   55.6511   30.3388 N   0  0  0  0  0  0  0  0  0  0  0  0
    3.0267   56.4891   30.2982 C   0  0  0  0  0  0  0  0  0  0  0  0
    3.0664   57.7637   30.8533 O   0  0  0  0  0  0  0  0  0  0  0  0
    0.6135   57.9153   28.5921 C   0  0  0  0  0  0  0  0  0  0  0  0
    1.4671   59.1400   28.9974 C   0  0  1  0  0  0  0  0  0  0  0  0
  1  2  2  0
 19  1  1  0
  3  2  1  0
 17  3  2  0
  4  5  2  0
  4 18  1  0
 20  4  1  0
  5  6  1  0
  6  7  2  0
 17  7  1  0
  8  9  2  0
 20  8  1  0
  8 28  1  0
  9 21  1  0
 10 11  1  0
 21 10  2  0
 27 10  1  0
 22 11  1  1
 11 26  2  0
 12 13  1  6
 22 12  1  0
 23 12  1  0
 13 24  2  0
 13 25  1  0
 29 14  1  0
 16 15  1  0
 31 15  1  0
 31 16  1  0
 18 17  1  0
 18 19  2  0
 30 20  1  0
 22 23  1  0
 28 27  2  0
 28 29  1  0
 31 30  1  6
M  END
$$$$
