
     RDKit          3D

 31 35  0  0  0  0  0  0  0  0999 V2000
    8.2268   68.4005   23.4430 C   0  0  0  0  0  0  0  0  0  0  0  0
    9.2870   68.7973   24.2276 C   0  0  0  0  0  0  0  0  0  0  0  0
    9.0212   69.5781   25.3178 C   0  0  0  0  0  0  0  0  0  0  0  0
    5.3786   69.9445   25.1355 C   0  0  0  0  0  0  0  0  0  0  0  0
    5.1924   70.7404   26.2418 C   0  0  0  0  0  0  0  0  0  0  0  0
    6.2422   71.1532   27.0448 C   0  0  0  0  0  0  0  0  0  0  0  0
    7.5218   70.7589   26.7344 C   0  0  0  0  0  0  0  0  0  0  0  0
    3.4491   68.4237   24.8009 C   0  0  0  0  0  0  0  0  0  0  0  0
    2.0917   68.4779   24.7374 C   0  0  0  0  0  0  0  0  0  0  0  0
    1.8859   66.3402   25.6631 C   0  0  0  0  0  0  0  0  0  0  0  0
    1.0212   65.2557   26.1078 C   0  0  0  0  0  0  0  0  0  0  0  0
    0.4729   63.3989   27.7176 C   0  0  2  0  0  0  0  0  0  0  0  0
    0.3963   61.9192   27.6133 C   0  0  0  0  0  0  0  0  0  0  0  0
    5.9855   66.0314   25.9259 C   0  0  0  0  0  0  0  0  0  0  0  0
    3.6812   69.3438   20.7001 C   0  0  0  0  0  0  0  0  0  0  0  0
    5.1132   69.7028   20.7754 C   0  0  0  0  0  0  0  0  0  0  0  0
    7.7160   69.9504   25.6107 C   0  0  0  0  0  0  0  0  0  0  0  0
    6.6581   69.5438   24.8134 C   0  0  0  0  0  0  0  0  0  0  0  0
    6.9261   68.7567   23.7129 C   0  0  0  0  0  0  0  0  0  0  0  0
    4.2571   69.4937   24.3459 N   0  0  0  0  0  0  0  0  0  0  0  0
    1.3196   67.4482   25.1637 N   0  0  0  0  0  0  0  0  0  0  0  0
    1.5127   64.0475   26.7735 C   0  0  2  0  0  0  0  0  0  0  0  0
    1.7935   63.9945   28.2210 C   0  0  0  0  0  0  0  0  0  0  0  0
    1.3800   61.2674   27.2054 O   0  0  0  0  0  0  0  0  0  0  0  0
   -0.7761   61.2593   27.9717 O   0  0  0  0  0  0  0  0  0  0  0  0
   -0.2372   65.3588   25.9082 O   0  0  0  0  0  0  0  0  0  0  0  0
    3.2319   66.2758   25.7304 N   0  0  0  0  0  0  0  0  0  0  0  0
    4.0260   67.2692   25.3208 C   0  0  0  0  0  0  0  0  0  0  0  0
    5.4074   67.2066   25.3890 O   0  0  0  0  0  0  0  0  0  0  0  0
    4.0221   70.1660   23.1013 C   0  0  0  0  0  0  0  0  0  0  0  0
    4.4068   69.1519   22.0107 C   0  0  1  0  0  0  0  0  0  0  0  0
  1  2  2  0
 19  1  1  0
  3  2  1  0
 17  3  2  0
  4  5  2  0
  4 18  1  0
 20  4  1  0
  5  6  1  0
  6  7  2  0
 17  7  1  0
  8  9  2  0
 20  8  1  0
  8 28  1  0
  9 21  1  0
 10 11  1  0
 21 10  2  0
 27 10  1  0
 22 11  1  1
 11 26  2  0
 12 13  1  6
 22 12  1  0
 23 12  1  1
 13 24  2  0
 13 25  1  0
 14 29  1  6
 16 15  1  1
 15 31  1  6
 31 16  1  0
 18 17  1  0
 18 19  2  0
 30 20  1  1
 22 23  1  0
 28 27  2  0
 28 29  1  0
 31 30  1  1
M  END
$$$$
