
     RDKit          3D

 31 35  0  0  0  0  0  0  0  0999 V2000
   13.1074   74.5042   20.4012 C   0  0  0  0  0  0  0  0  0  0  0  0
   13.6158   73.2322   20.2578 C   0  0  0  0  0  0  0  0  0  0  0  0
   12.7541   72.1787   20.3869 C   0  0  0  0  0  0  0  0  0  0  0  0
    9.5714   73.8639   21.0700 C   0  0  0  0  0  0  0  0  0  0  0  0
    8.7696   72.7536   21.1978 C   0  0  0  0  0  0  0  0  0  0  0  0
    9.2577   71.4652   21.0595 C   0  0  0  0  0  0  0  0  0  0  0  0
   10.5912   71.2772   20.7842 C   0  0  0  0  0  0  0  0  0  0  0  0
    8.1077   75.6669   20.2015 C   0  0  0  0  0  0  0  0  0  0  0  0
    6.8182   75.9615   20.5178 C   0  0  0  0  0  0  0  0  0  0  0  0
    6.3442   76.6023   18.3192 C   0  0  0  0  0  0  0  0  0  0  0  0
    5.3782   77.1028   17.3507 C   0  0  0  0  0  0  0  0  0  0  0  0
    5.0012   78.5307   15.3114 C   0  0  2  0  0  0  0  0  0  0  0  0
    5.8849   79.3172   14.4133 C   0  0  0  0  0  0  0  0  0  0  0  0
   10.2186   75.7502   17.2083 C   0  0  0  0  0  0  0  0  0  0  0  0
    7.0227   75.3270   22.7416 C   0  0  0  0  0  0  0  0  0  0  0  0
    7.8045   74.6492   23.7973 C   0  0  0  0  0  0  0  0  0  0  0  0
   11.4100   72.4025   20.6542 C   0  0  0  0  0  0  0  0  0  0  0  0
   10.9112   73.6876   20.7954 C   0  0  0  0  0  0  0  0  0  0  0  0
   11.7805   74.7505   20.6661 C   0  0  0  0  0  0  0  0  0  0  0  0
    9.0216   75.1948   21.1745 N   0  0  0  0  0  0  0  0  0  0  0  0
    5.9470   76.4236   19.5873 N   0  0  0  0  0  0  0  0  0  0  0  0
    5.6746   77.2818   15.9278 C   0  0  2  0  0  0  0  0  0  0  0  0
    4.6578   77.1014   14.8740 C   0  0  0  0  0  0  0  0  0  0  0  0
    6.8475   78.7660   13.8401 O   0  0  0  0  0  0  0  0  0  0  0  0
    5.6377   80.6724   14.2113 O   0  0  0  0  0  0  0  0  0  0  0  0
    4.2053   77.4044   17.7600 O   0  0  0  0  0  0  0  0  0  0  0  0
    7.6215   76.3133   17.9947 N   0  0  0  0  0  0  0  0  0  0  0  0
    8.5089   75.8561   18.8827 C   0  0  0  0  0  0  0  0  0  0  0  0
    9.8201   75.5581   18.5530 O   0  0  0  0  0  0  0  0  0  0  0  0
    9.4524   75.9944   22.2841 C   0  0  0  0  0  0  0  0  0  0  0  0
    8.2680   76.0022   23.2655 C   0  0  1  0  0  0  0  0  0  0  0  0
  1  2  2  0
 19  1  1  0
  3  2  1  0
 17  3  2  0
  4  5  2  0
  4 18  1  0
 20  4  1  0
  5  6  1  0
  6  7  2  0
 17  7  1  0
  8  9  2  0
 20  8  1  0
  8 28  1  0
  9 21  1  0
 10 11  1  0
 21 10  2  0
 27 10  1  0
 22 11  1  1
 11 26  2  0
 12 13  1  6
 22 12  1  0
 23 12  1  1
 13 24  2  0
 13 25  1  0
 14 29  1  6
 16 15  1  1
 15 31  1  6
 31 16  1  0
 18 17  1  0
 18 19  2  0
 30 20  1  1
 22 23  1  0
 28 27  2  0
 28 29  1  0
 31 30  1  6
M  END
$$$$
