
     RDKit          3D

 31 35  0  0  0  0  0  0  0  0999 V2000
   11.9451   72.8578   18.1533 C   0  0  0  0  0  0  0  0  0  0  0  0
   12.1818   71.5965   18.6532 C   0  0  0  0  0  0  0  0  0  0  0  0
   12.6169   70.6338   17.7856 C   0  0  0  0  0  0  0  0  0  0  0  0
   12.7634   72.4635   14.6127 C   0  0  0  0  0  0  0  0  0  0  0  0
   13.1911   71.4396   13.7999 C   0  0  0  0  0  0  0  0  0  0  0  0
   13.4342   70.1634   14.2788 C   0  0  0  0  0  0  0  0  0  0  0  0
   13.2446   69.8987   15.6142 C   0  0  0  0  0  0  0  0  0  0  0  0
   13.6104   74.7462   14.1442 C   0  0  0  0  0  0  0  0  0  0  0  0
   13.4457   75.9543   14.7467 C   0  0  0  0  0  0  0  0  0  0  0  0
   15.6473   76.5803   14.2670 C   0  0  0  0  0  0  0  0  0  0  0  0
   16.7032   77.5797   14.3552 C   0  0  0  0  0  0  0  0  0  0  0  0
   18.8258   78.5991   13.4636 C   0  0  2  0  0  0  0  0  0  0  0  0
   20.2107   78.7402   13.9816 C   0  0  0  0  0  0  0  0  0  0  0  0
   16.2934   72.9682   12.3943 C   0  0  0  0  0  0  0  0  0  0  0  0
   10.1184   73.8869   11.2628 C   0  0  0  0  0  0  0  0  0  0  0  0
   10.9984   75.0674   11.1328 C   0  0  0  0  0  0  0  0  0  0  0  0
   12.8094   70.9359   16.4440 C   0  0  0  0  0  0  0  0  0  0  0  0
   12.5682   72.2094   15.9540 C   0  0  0  0  0  0  0  0  0  0  0  0
   12.1284   73.1806   16.8290 C   0  0  0  0  0  0  0  0  0  0  0  0
   12.5634   73.7945   14.0902 N   0  0  0  0  0  0  0  0  0  0  0  0
   14.4524   76.8604   14.8070 N   0  0  0  0  0  0  0  0  0  0  0  0
   18.0906   77.3311   13.9581 C   0  0  2  0  0  0  0  0  0  0  0  0
   18.5409   77.3972   12.5546 C   0  0  0  0  0  0  0  0  0  0  0  0
   20.8126   77.7476   14.4413 O   0  0  0  0  0  0  0  0  0  0  0  0
   20.8375   79.9830   13.9535 O   0  0  0  0  0  0  0  0  0  0  0  0
   16.4081   78.7398   14.8039 O   0  0  0  0  0  0  0  0  0  0  0  0
   15.8215   75.3844   13.6670 N   0  0  0  0  0  0  0  0  0  0  0  0
   14.8543   74.4662   13.5872 C   0  0  0  0  0  0  0  0  0  0  0  0
   15.0296   73.2384   12.9719 O   0  0  0  0  0  0  0  0  0  0  0  0
   11.2737   74.0930   13.5390 C   0  0  0  0  0  0  0  0  0  0  0  0
   11.4250   73.9017   12.0202 C   0  0  1  0  0  0  0  0  0  0  0  0
  1  2  2  0
 19  1  1  0
  3  2  1  0
 17  3  2  0
  4  5  2  0
  4 18  1  0
 20  4  1  0
  5  6  1  0
  6  7  2  0
 17  7  1  0
  8  9  2  0
 20  8  1  0
  8 28  1  0
  9 21  1  0
 10 11  1  0
 21 10  2  0
 27 10  1  0
 22 11  1  6
 11 26  2  0
 12 13  1  1
 22 12  1  0
 23 12  1  1
 13 24  2  0
 13 25  1  0
 14 29  1  6
 16 15  1  1
 15 31  1  6
 31 16  1  0
 18 17  1  0
 18 19  2  0
 30 20  1  1
 22 23  1  0
 28 27  2  0
 28 29  1  0
 31 30  1  1
M  END
$$$$
