
     RDKit          3D

 31 35  0  0  0  0  0  0  0  0999 V2000
   -1.1925   50.3949   34.6737 C   0  0  0  0  0  0  0  0  0  0  0  0
   -2.5578   50.3356   34.4916 C   0  0  0  0  0  0  0  0  0  0  0  0
   -3.0979   50.2735   33.2250 C   0  0  0  0  0  0  0  0  0  0  0  0
   -0.0396   50.3364   31.2283 C   0  0  0  0  0  0  0  0  0  0  0  0
   -0.6296   50.2837   29.9625 C   0  0  0  0  0  0  0  0  0  0  0  0
   -1.9858   50.2256   29.7565 C   0  0  0  0  0  0  0  0  0  0  0  0
   -2.8024   50.2192   30.8622 C   0  0  0  0  0  0  0  0  0  0  0  0
    2.0545   51.5215   30.9174 C   0  0  0  0  0  0  0  0  0  0  0  0
    3.0566   51.4433   29.9864 C   0  0  0  0  0  0  0  0  0  0  0  0
    3.3418   53.7895   30.0372 C   0  0  0  0  0  0  0  0  0  0  0  0
    4.0695   54.9684   29.5269 C   0  0  0  0  0  0  0  0  0  0  0  0
    4.1920   57.5335   29.2081 C   0  0  2  0  0  0  0  0  0  0  0  0
    3.3506   58.7579   29.3957 C   0  0  0  0  0  0  0  0  0  0  0  0
    0.2457   54.1658   32.7252 C   0  0  0  0  0  0  0  0  0  0  0  0
    3.8847   47.9346   30.5702 C   0  0  0  0  0  0  0  0  0  0  0  0
    2.9458   46.8857   31.0431 C   0  0  0  0  0  0  0  0  0  0  0  0
   -2.2325   50.2721   32.1417 C   0  0  0  0  0  0  0  0  0  0  0  0
   -0.8607   50.3314   32.3353 C   0  0  0  0  0  0  0  0  0  0  0  0
   -0.3227   50.3942   33.6010 C   0  0  0  0  0  0  0  0  0  0  0  0
    1.4011   50.3486   31.3399 N   0  0  0  0  0  0  0  0  0  0  0  0
    3.6771   52.5756   29.5675 N   0  0  0  0  0  0  0  0  0  0  0  0
    3.7362   56.3403   29.9618 C   0  0  2  0  0  0  0  0  0  0  0  0
    4.9490   57.1361   30.4731 C   0  0  0  0  0  0  0  0  0  0  0  0
    2.6835   58.8825   30.4495 O   0  0  0  0  0  0  0  0  0  0  0  0
    3.3073   59.7308   28.4323 O   0  0  0  0  0  0  0  0  0  0  0  0
    5.0064   54.8240   28.6949 O   0  0  0  0  0  0  0  0  0  0  0  0
    2.3718   53.8370   30.9344 N   0  0  0  0  0  0  0  0  0  0  0  0
    1.7090   52.7739   31.4017 C   0  0  0  0  0  0  0  0  0  0  0  0
    0.6948   52.8775   32.3478 O   0  0  0  0  0  0  0  0  0  0  0  0
    2.1128   49.2145   31.8415 C   0  0  0  0  0  0  0  0  0  0  0  0
    2.4170   48.2156   30.7003 C   0  0  1  0  0  0  0  0  0  0  0  0
  1  2  2  0
 19  1  1  0
  3  2  1  0
 17  3  2  0
  4  5  2  0
  4 18  1  0
 20  4  1  0
  5  6  1  0
  6  7  2  0
 17  7  1  0
  8  9  2  0
 20  8  1  0
  8 28  1  0
  9 21  1  0
 10 11  1  0
 21 10  2  0
 27 10  1  0
 22 11  1  6
 11 26  2  0
 12 13  1  1
 22 12  1  0
 23 12  1  0
 13 24  2  0
 13 25  1  0
 29 14  1  0
 16 15  1  0
 31 15  1  0
 31 16  1  0
 18 17  1  0
 18 19  2  0
 30 20  1  0
 22 23  1  0
 28 27  2  0
 28 29  1  0
 31 30  1  1
M  END
$$$$
