
     RDKit          3D

 31 35  0  0  0  0  0  0  0  0999 V2000
    7.9062   69.8074   26.4268 C   0  0  0  0  0  0  0  0  0  0  0  0
    7.8691   70.9786   27.1532 C   0  0  0  0  0  0  0  0  0  0  0  0
    7.3002   72.1177   26.6253 C   0  0  0  0  0  0  0  0  0  0  0  0
    6.2746   70.8560   23.3541 C   0  0  0  0  0  0  0  0  0  0  0  0
    5.7180   72.0362   22.8535 C   0  0  0  0  0  0  0  0  0  0  0  0
    5.6711   73.2142   23.5572 C   0  0  0  0  0  0  0  0  0  0  0  0
    6.2032   73.2254   24.8245 C   0  0  0  0  0  0  0  0  0  0  0  0
    5.2705   68.6929   22.9083 C   0  0  0  0  0  0  0  0  0  0  0  0
    5.2942   67.4566   22.3184 C   0  0  0  0  0  0  0  0  0  0  0  0
    3.4278   66.7671   23.5950 C   0  0  0  0  0  0  0  0  0  0  0  0
    2.4673   65.6940   23.9200 C   0  0  0  0  0  0  0  0  0  0  0  0
    1.2202   64.7575   25.9850 C   0  0  2  0  0  0  0  0  0  0  0  0
    0.6606   65.2148   27.2965 C   0  0  0  0  0  0  0  0  0  0  0  0
    3.2670   70.4304   25.4619 C   0  0  0  0  0  0  0  0  0  0  0  0
    7.5012   70.6608   19.2648 C   0  0  0  0  0  0  0  0  0  0  0  0
    6.9503   69.3383   18.8735 C   0  0  0  0  0  0  0  0  0  0  0  0
    6.7673   72.0534   25.3469 C   0  0  0  0  0  0  0  0  0  0  0  0
    6.8089   70.8704   24.6246 C   0  0  0  0  0  0  0  0  0  0  0  0
    7.3782   69.7337   25.1529 C   0  0  0  0  0  0  0  0  0  0  0  0
    6.2334   69.6554   22.5510 N   0  0  0  0  0  0  0  0  0  0  0  0
    4.3750   66.5228   22.6732 N   0  0  0  0  0  0  0  0  0  0  0  0
    1.4713   65.8387   25.0014 C   0  0  2  0  0  0  0  0  0  0  0  0
    0.2390   64.9348   24.8288 C   0  0  0  0  0  0  0  0  0  0  0  0
    0.5055   66.4423   27.4973 O   0  0  0  0  0  0  0  0  0  0  0  0
    0.3215   64.3084   28.2661 O   0  0  0  0  0  0  0  0  0  0  0  0
    2.4791   64.6138   23.2688 O   0  0  0  0  0  0  0  0  0  0  0  0
    3.4273   67.9677   24.1488 N   0  0  0  0  0  0  0  0  0  0  0  0
    4.2931   68.9444   23.8591 C   0  0  0  0  0  0  0  0  0  0  0  0
    4.2494   70.1927   24.4709 O   0  0  0  0  0  0  0  0  0  0  0  0
    7.1402   69.4633   21.4625 C   0  0  0  0  0  0  0  0  0  0  0  0
    6.5089   69.9503   20.1370 C   0  0  1  0  0  0  0  0  0  0  0  0
  1  2  2  0
 19  1  1  0
  3  2  1  0
 17  3  2  0
  4  5  2  0
  4 18  1  0
 20  4  1  0
  5  6  1  0
  6  7  2  0
 17  7  1  0
  8  9  2  0
 20  8  1  0
  8 28  1  0
  9 21  1  0
 10 11  1  0
 21 10  2  0
 27 10  1  0
 22 11  1  6
 11 26  2  0
 12 13  1  1
 22 12  1  0
 23 12  1  0
 13 24  2  0
 13 25  1  0
 29 14  1  0
 16 15  1  0
 31 15  1  0
 31 16  1  0
 18 17  1  0
 18 19  2  0
 30 20  1  0
 22 23  1  0
 28 27  2  0
 28 29  1  0
 31 30  1  1
M  END
$$$$
