
     RDKit          3D

 23 24  0  0  0  0  0  0  0  0999 V2000
   -7.4767  -34.7251  -16.6019 C   0  0  2  0  0  0  0  0  0  0  0  0
   -7.8660  -36.1637  -16.2779 C   0  0  1  0  0  0  0  0  0  0  0  0
   -6.5887  -36.9639  -16.1964 C   0  0  2  0  0  0  0  0  0  0  0  0
   -5.7264  -36.5330  -17.3907 C   0  0  1  0  0  0  0  0  0  0  0  0
   -5.2736  -35.1183  -17.1609 C   0  0  1  0  0  0  0  0  0  0  0  0
   -5.1624  -34.3432  -18.4634 C   0  0  0  0  0  0  0  0  0  0  0  0
   -8.6317  -36.2429  -15.1288 O   0  0  0  0  0  0  0  0  0  0  0  0
   -6.8151  -38.3358  -16.2821 O   0  0  0  0  0  0  0  0  0  0  0  0
   -4.6231  -37.3836  -17.4555 O   0  0  0  0  0  0  0  0  0  0  0  0
   -6.1381  -34.4854  -16.2748 O   0  0  0  0  0  0  0  0  0  0  0  0
   -5.6878  -35.0630  -19.5278 O   0  0  0  0  0  0  0  0  0  0  0  0
   -7.2425  -30.6035  -12.1968 O   0  0  0  0  0  0  0  0  0  0  0  0
   -5.1190  -30.1560  -13.2139 C   0  0  0  0  0  0  0  0  0  0  0  0
   -4.4212  -31.1621  -12.5493 O   0  0  0  0  0  0  0  0  0  0  0  0
   -6.5683  -30.5409  -13.4039 C   0  0  1  0  0  0  0  0  0  0  0  0
   -6.6634  -31.7363  -14.0696 O   0  0  0  0  0  0  0  0  0  0  0  0
   -7.2953  -29.5980  -14.3224 C   0  0  1  0  0  0  0  0  0  0  0  0
   -6.5459  -29.2639  -15.4507 O   0  0  0  0  0  0  0  0  0  0  0  0
   -8.4825  -30.4362  -14.7480 C   0  0  2  0  0  0  0  0  0  0  0  0
   -9.5029  -30.2006  -13.8004 O   0  0  0  0  0  0  0  0  0  0  0  0
   -7.9458  -31.8460  -14.5988 C   0  0  1  0  0  0  0  0  0  0  0  0
   -7.8314  -32.5524  -15.9065 C   0  0  0  0  0  0  0  0  0  0  0  0
   -8.2247  -33.8725  -15.8102 O   0  0  0  0  0  0  0  0  0  0  0  0
  1  2  1  0
  1 10  1  0
  1 23  1  1
  2  3  1  0
  2  7  1  1
  3  4  1  0
  3  8  1  6
  5  4  1  0
  4  9  1  1
  5  6  1  0
  5 10  1  1
  6 11  1  6
 15 12  1  1
 13 14  1  1
 15 13  1  0
 16 15  1  0
 17 15  1  0
 21 16  1  6
 17 18  1  6
 19 17  1  0
 19 20  1  1
 21 19  1  0
 22 21  1  0
 22 23  1  6
M  END
$$$$
