
     RDKit          3D

 23 24  0  0  0  0  0  0  0  0999 V2000
   -7.3296  -34.5895  -17.0711 C   0  0  2  0  0  0  0  0  0  0  0  0
   -8.0457  -35.9324  -17.1715 C   0  0  1  0  0  0  0  0  0  0  0  0
   -7.1474  -36.9656  -16.5360 C   0  0  2  0  0  0  0  0  0  0  0  0
   -5.7280  -36.6844  -17.0478 C   0  0  1  0  0  0  0  0  0  0  0  0
   -5.2573  -35.3888  -16.4486 C   0  0  1  0  0  0  0  0  0  0  0  0
   -4.3534  -34.6228  -17.4003 C   0  0  0  0  0  0  0  0  0  0  0  0
   -9.3069  -35.8862  -16.6056 O   0  0  0  0  0  0  0  0  0  0  0  0
   -7.4997  -38.2658  -16.8907 O   0  0  0  0  0  0  0  0  0  0  0  0
   -4.9045  -37.7305  -16.6324 O   0  0  0  0  0  0  0  0  0  0  0  0
   -6.3522  -34.6196  -16.0711 O   0  0  0  0  0  0  0  0  0  0  0  0
   -4.1324  -33.3263  -16.9560 O   0  0  0  0  0  0  0  0  0  0  0  0
   -8.0644  -31.2327  -12.3672 O   0  0  0  0  0  0  0  0  0  0  0  0
   -5.6739  -31.3218  -12.5131 C   0  0  0  0  0  0  0  0  0  0  0  0
   -5.3023  -30.0880  -11.9835 O   0  0  0  0  0  0  0  0  0  0  0  0
   -6.9932  -31.2190  -13.2435 C   0  0  1  0  0  0  0  0  0  0  0  0
   -7.1120  -32.2298  -14.1629 O   0  0  0  0  0  0  0  0  0  0  0  0
   -7.0782  -29.9870  -14.1014 C   0  0  1  0  0  0  0  0  0  0  0  0
   -5.9048  -29.7504  -14.8181 O   0  0  0  0  0  0  0  0  0  0  0  0
   -8.1815  -30.3604  -15.0690 C   0  0  2  0  0  0  0  0  0  0  0  0
   -9.3955  -29.9532  -14.4730 O   0  0  0  0  0  0  0  0  0  0  0  0
   -8.0896  -31.8733  -15.0869 C   0  0  1  0  0  0  0  0  0  0  0  0
   -7.6646  -32.4016  -16.4146 C   0  0  0  0  0  0  0  0  0  0  0  0
   -8.2437  -33.6252  -16.6867 O   0  0  0  0  0  0  0  0  0  0  0  0
  1  2  1  0
  1 10  1  0
  1 23  1  1
  2  3  1  0
  2  7  1  1
  3  4  1  0
  3  8  1  6
  5  4  1  0
  4  9  1  1
  5  6  1  0
  5 10  1  6
  6 11  1  6
 15 12  1  1
 13 14  1  1
 15 13  1  0
 16 15  1  0
 17 15  1  0
 21 16  1  1
 17 18  1  6
 19 17  1  0
 19 20  1  1
 21 19  1  0
 22 21  1  0
 22 23  1  6
M  END
$$$$
