
     RDKit          3D

 23 24  0  0  0  0  0  0  0  0999 V2000
   -6.9131  -34.0584  -17.6575 C   0  0  2  0  0  0  0  0  0  0  0  0
   -8.0024  -34.9762  -18.1874 C   0  0  1  0  0  0  0  0  0  0  0  0
   -7.9325  -36.2556  -17.3819 C   0  0  2  0  0  0  0  0  0  0  0  0
   -6.5262  -36.7986  -17.5770 C   0  0  1  0  0  0  0  0  0  0  0  0
   -5.6149  -35.7674  -16.9539 C   0  0  1  0  0  0  0  0  0  0  0  0
   -4.2287  -36.2906  -16.7132 C   0  0  0  0  0  0  0  0  0  0  0  0
   -9.2212  -34.3502  -17.9605 O   0  0  0  0  0  0  0  0  0  0  0  0
   -8.9076  -37.1636  -17.7115 O   0  0  0  0  0  0  0  0  0  0  0  0
   -6.3686  -38.0565  -17.0263 O   0  0  0  0  0  0  0  0  0  0  0  0
   -5.6528  -34.6485  -17.7594 O   0  0  0  0  0  0  0  0  0  0  0  0
   -3.3377  -35.3213  -16.3131 O   0  0  0  0  0  0  0  0  0  0  0  0
   -6.7699  -31.5151  -11.6242 O   0  0  0  0  0  0  0  0  0  0  0  0
   -4.8693  -30.8688  -12.8316 C   0  0  0  0  0  0  0  0  0  0  0  0
   -4.1240  -31.9818  -13.2688 O   0  0  0  0  0  0  0  0  0  0  0  0
   -6.3248  -31.2670  -12.9353 C   0  0  1  0  0  0  0  0  0  0  0  0
   -6.4411  -32.4297  -13.6430 O   0  0  0  0  0  0  0  0  0  0  0  0
   -7.1808  -30.2074  -13.5421 C   0  0  1  0  0  0  0  0  0  0  0  0
   -6.4899  -29.3976  -14.4416 O   0  0  0  0  0  0  0  0  0  0  0  0
   -8.2236  -31.0364  -14.2652 C   0  0  2  0  0  0  0  0  0  0  0  0
   -9.3759  -31.2026  -13.5004 O   0  0  0  0  0  0  0  0  0  0  0  0
   -7.5259  -32.3571  -14.4999 C   0  0  1  0  0  0  0  0  0  0  0  0
   -7.1008  -32.4893  -15.9455 C   0  0  0  0  0  0  0  0  0  0  0  0
   -7.2237  -33.7973  -16.3355 O   0  0  0  0  0  0  0  0  0  0  0  0
  1  2  1  0
  1 10  1  0
  1 23  1  1
  2  3  1  0
  2  7  1  1
  3  4  1  0
  3  8  1  6
  5  4  1  0
  4  9  1  1
  5  6  1  6
 10  5  1  0
  6 11  1  0
 15 12  1  1
 13 14  1  0
 15 13  1  0
 16 15  1  0
 17 15  1  0
 21 16  1  0
 17 18  1  6
 19 17  1  0
 19 20  1  1
 21 19  1  0
 21 22  1  6
 22 23  1  0
M  END
$$$$
