
     RDKit          3D

 23 24  0  0  0  0  0  0  0  0999 V2000
   -7.6034  -32.3880  -14.8632 C   0  0  2  0  0  0  0  0  0  0  0  0
   -8.4607  -31.1948  -14.4538 C   0  0  1  0  0  0  0  0  0  0  0  0
   -7.5453  -30.1944  -13.7907 C   0  0  2  0  0  0  0  0  0  0  0  0
   -6.6383  -30.9928  -12.8442 C   0  0  1  0  0  0  0  0  0  0  0  0
   -5.7065  -31.8290  -13.6758 C   0  0  1  0  0  0  0  0  0  0  0  0
   -5.3850  -33.1533  -13.0031 C   0  0  0  0  0  0  0  0  0  0  0  0
   -9.1552  -30.6681  -15.5278 O   0  0  0  0  0  0  0  0  0  0  0  0
   -8.2443  -29.2478  -13.0452 O   0  0  0  0  0  0  0  0  0  0  0  0
   -5.9097  -30.0844  -12.0768 O   0  0  0  0  0  0  0  0  0  0  0  0
   -6.2536  -32.0294  -14.9382 O   0  0  0  0  0  0  0  0  0  0  0  0
   -5.0197  -32.9719  -11.6762 O   0  0  0  0  0  0  0  0  0  0  0  0
   -5.3105  -34.3546  -20.2127 O   0  0  0  0  0  0  0  0  0  0  0  0
   -4.8852  -36.5263  -19.2924 C   0  0  0  0  0  0  0  0  0  0  0  0
   -5.1760  -37.3412  -18.2005 O   0  0  0  0  0  0  0  0  0  0  0  0
   -5.7398  -35.2797  -19.2769 C   0  0  1  0  0  0  0  0  0  0  0  0
   -5.7535  -34.7236  -18.0233 O   0  0  0  0  0  0  0  0  0  0  0  0
   -7.1938  -35.5794  -19.5162 C   0  0  1  0  0  0  0  0  0  0  0  0
   -7.6361  -36.6939  -18.8030 O   0  0  0  0  0  0  0  0  0  0  0  0
   -7.8602  -34.3393  -18.9583 C   0  0  2  0  0  0  0  0  0  0  0  0
   -7.9408  -33.4122  -20.0207 O   0  0  0  0  0  0  0  0  0  0  0  0
   -6.8490  -33.8703  -17.9309 C   0  0  1  0  0  0  0  0  0  0  0  0
   -7.3705  -33.9607  -16.5373 C   0  0  0  0  0  0  0  0  0  0  0  0
   -7.9682  -32.7817  -16.1380 O   0  0  0  0  0  0  0  0  0  0  0  0
  1  2  1  0
  1 10  1  0
  1 23  1  6
  2  3  1  0
  2  7  1  6
  3  4  1  0
  3  8  1  1
  5  4  1  0
  4  9  1  6
  5  6  1  0
  5 10  1  6
  6 11  1  6
 15 12  1  6
 13 14  1  1
 15 13  1  0
 16 15  1  0
 17 15  1  0
 21 16  1  1
 17 18  1  1
 19 17  1  0
 19 20  1  6
 21 19  1  0
 22 21  1  0
 22 23  1  6
M  END
$$$$
