
     RDKit          3D

 23 24  0  0  0  0  0  0  0  0999 V2000
   -7.5661  -34.7278  -16.4732 C   0  0  2  0  0  0  0  0  0  0  0  0
   -7.8173  -36.1969  -16.1495 C   0  0  1  0  0  0  0  0  0  0  0  0
   -6.5052  -36.9226  -16.3233 C   0  0  2  0  0  0  0  0  0  0  0  0
   -5.8876  -36.4019  -17.6284 C   0  0  1  0  0  0  0  0  0  0  0  0
   -5.4763  -34.9714  -17.4190 C   0  0  1  0  0  0  0  0  0  0  0  0
   -5.6342  -34.1480  -18.6866 C   0  0  0  0  0  0  0  0  0  0  0  0
   -8.3661  -36.3595  -14.8904 O   0  0  0  0  0  0  0  0  0  0  0  0
   -6.6710  -38.3018  -16.4280 O   0  0  0  0  0  0  0  0  0  0  0  0
   -4.7695  -37.1833  -17.9184 O   0  0  0  0  0  0  0  0  0  0  0  0
   -6.2054  -34.4206  -16.3710 O   0  0  0  0  0  0  0  0  0  0  0  0
   -6.1374  -34.9141  -19.7290 O   0  0  0  0  0  0  0  0  0  0  0  0
   -7.3576  -30.5432  -12.1581 O   0  0  0  0  0  0  0  0  0  0  0  0
   -5.1394  -30.5612  -13.0654 C   0  0  0  0  0  0  0  0  0  0  0  0
   -4.4062  -31.1536  -14.0911 O   0  0  0  0  0  0  0  0  0  0  0  0
   -6.6236  -30.6857  -13.3228 C   0  0  1  0  0  0  0  0  0  0  0  0
   -6.9066  -31.8851  -13.9250 O   0  0  0  0  0  0  0  0  0  0  0  0
   -7.1145  -29.6889  -14.3360 C   0  0  1  0  0  0  0  0  0  0  0  0
   -6.2600  -29.5737  -15.4328 O   0  0  0  0  0  0  0  0  0  0  0  0
   -8.4144  -30.3217  -14.7866 C   0  0  2  0  0  0  0  0  0  0  0  0
   -9.4193  -29.8406  -13.9186 O   0  0  0  0  0  0  0  0  0  0  0  0
   -8.1586  -31.7929  -14.5256 C   0  0  1  0  0  0  0  0  0  0  0  0
   -8.1123  -32.5938  -15.7821 C   0  0  0  0  0  0  0  0  0  0  0  0
   -8.2085  -33.9477  -15.5288 O   0  0  0  0  0  0  0  0  0  0  0  0
  1  2  1  0
  1 10  1  0
  1 23  1  1
  2  3  1  0
  2  7  1  1
  3  4  1  0
  3  8  1  6
  5  4  1  0
  4  9  1  1
  5  6  1  0
  5 10  1  1
  6 11  1  6
 15 12  1  1
 13 14  1  1
 15 13  1  0
 16 15  1  0
 17 15  1  0
 21 16  1  6
 17 18  1  6
 19 17  1  0
 19 20  1  1
 21 19  1  0
 22 21  1  0
 22 23  1  6
M  END
$$$$
