
     RDKit          3D

 23 24  0  0  0  0  0  0  0  0999 V2000
   -6.7148  -32.3303  -14.4981 C   0  0  2  0  0  0  0  0  0  0  0  0
   -7.5734  -31.4790  -13.5684 C   0  0  1  0  0  0  0  0  0  0  0  0
   -7.9124  -30.2098  -14.3118 C   0  0  2  0  0  0  0  0  0  0  0  0
   -6.6172  -29.7411  -14.9890 C   0  0  1  0  0  0  0  0  0  0  0  0
   -6.2776  -30.7133  -16.0839 C   0  0  1  0  0  0  0  0  0  0  0  0
   -4.7754  -30.8709  -16.2521 C   0  0  0  0  0  0  0  0  0  0  0  0
   -8.6901  -32.1658  -13.1273 O   0  0  0  0  0  0  0  0  0  0  0  0
   -8.3617  -29.2010  -13.4627 O   0  0  0  0  0  0  0  0  0  0  0  0
   -6.8457  -28.4751  -15.5274 O   0  0  0  0  0  0  0  0  0  0  0  0
   -6.8836  -31.9386  -15.8301 O   0  0  0  0  0  0  0  0  0  0  0  0
   -4.0806  -30.1912  -15.2610 O   0  0  0  0  0  0  0  0  0  0  0  0
   -8.5894  -37.1489  -17.4719 O   0  0  0  0  0  0  0  0  0  0  0  0
   -7.8057  -35.6439  -19.1645 C   0  0  0  0  0  0  0  0  0  0  0  0
   -7.0409  -34.4929  -19.3405 O   0  0  0  0  0  0  0  0  0  0  0  0
   -7.6240  -36.2037  -17.7723 C   0  0  1  0  0  0  0  0  0  0  0  0
   -7.6357  -35.1938  -16.8444 O   0  0  0  0  0  0  0  0  0  0  0  0
   -6.2637  -36.8129  -17.5733 C   0  0  1  0  0  0  0  0  0  0  0  0
   -5.2415  -36.0299  -18.1104 O   0  0  0  0  0  0  0  0  0  0  0  0
   -6.1441  -36.8141  -16.0637 C   0  0  2  0  0  0  0  0  0  0  0  0
   -6.6889  -38.0381  -15.6169 O   0  0  0  0  0  0  0  0  0  0  0  0
   -7.0513  -35.6644  -15.6724 C   0  0  1  0  0  0  0  0  0  0  0  0
   -6.3011  -34.5310  -15.0599 C   0  0  0  0  0  0  0  0  0  0  0  0
   -7.1463  -33.6424  -14.4254 O   0  0  0  0  0  0  0  0  0  0  0  0
  1  2  1  0
  1 10  1  0
  1 23  1  6
  2  3  1  0
  2  7  1  6
  3  4  1  0
  3  8  1  1
  5  4  1  0
  4  9  1  6
  5  6  1  0
  5 10  1  1
  6 11  1  6
 15 12  1  1
 13 14  1  1
 15 13  1  0
 16 15  1  0
 17 15  1  0
 21 16  1  6
 17 18  1  6
 19 17  1  0
 19 20  1  1
 21 19  1  0
 22 21  1  0
 22 23  1  6
M  END
$$$$
