
     RDKit          3D

 23 24  0  0  0  0  0  0  0  0999 V2000
   -7.7545  -34.7742  -16.3702 C   0  0  2  0  0  0  0  0  0  0  0  0
   -7.7468  -36.2167  -15.8750 C   0  0  1  0  0  0  0  0  0  0  0  0
   -6.3890  -36.7919  -16.1973 C   0  0  2  0  0  0  0  0  0  0  0  0
   -6.0568  -36.3510  -17.6295 C   0  0  1  0  0  0  0  0  0  0  0  0
   -5.8209  -34.8666  -17.6246 C   0  0  1  0  0  0  0  0  0  0  0  0
   -6.2836  -34.2178  -18.9186 C   0  0  0  0  0  0  0  0  0  0  0  0
   -8.0685  -36.3012  -14.5324 O   0  0  0  0  0  0  0  0  0  0  0  0
   -6.3759  -38.1838  -16.1451 O   0  0  0  0  0  0  0  0  0  0  0  0
   -4.8988  -37.0180  -18.0285 O   0  0  0  0  0  0  0  0  0  0  0  0
   -6.4501  -34.2936  -16.5251 O   0  0  0  0  0  0  0  0  0  0  0  0
   -6.1318  -35.0767  -19.9985 O   0  0  0  0  0  0  0  0  0  0  0  0
   -6.9209  -30.3920  -12.3657 O   0  0  0  0  0  0  0  0  0  0  0  0
   -5.0354  -30.1071  -13.8175 C   0  0  0  0  0  0  0  0  0  0  0  0
   -4.3124  -31.1863  -14.3210 O   0  0  0  0  0  0  0  0  0  0  0  0
   -6.4999  -30.4559  -13.6826 C   0  0  1  0  0  0  0  0  0  0  0  0
   -6.7465  -31.6996  -14.2056 O   0  0  0  0  0  0  0  0  0  0  0  0
   -7.3789  -29.5698  -14.5212 C   0  0  1  0  0  0  0  0  0  0  0  0
   -6.8639  -29.3594  -15.8006 O   0  0  0  0  0  0  0  0  0  0  0  0
   -8.6416  -30.3992  -14.6270 C   0  0  2  0  0  0  0  0  0  0  0  0
   -9.4483  -30.0483  -13.5221 O   0  0  0  0  0  0  0  0  0  0  0  0
   -8.1104  -31.8090  -14.4597 C   0  0  1  0  0  0  0  0  0  0  0  0
   -8.2713  -32.6278  -15.6950 C   0  0  0  0  0  0  0  0  0  0  0  0
   -8.3466  -33.9763  -15.4080 O   0  0  0  0  0  0  0  0  0  0  0  0
  1  2  1  0
  1 10  1  0
  1 23  1  1
  2  3  1  0
  2  7  1  1
  3  4  1  0
  3  8  1  6
  5  4  1  0
  4  9  1  1
  5  6  1  0
  5 10  1  1
  6 11  1  6
 15 12  1  1
 13 14  1  1
 15 13  1  0
 16 15  1  0
 17 15  1  0
 21 16  1  6
 17 18  1  6
 19 17  1  0
 19 20  1  1
 21 19  1  0
 22 21  1  0
 22 23  1  6
M  END
$$$$
