
     RDKit          3D

 23 24  0  0  0  0  0  0  0  0999 V2000
   -6.8973  -32.5121  -14.2824 C   0  0  2  0  0  0  0  0  0  0  0  0
   -7.8215  -31.5843  -13.5007 C   0  0  1  0  0  0  0  0  0  0  0  0
   -7.9339  -30.3006  -14.2868 C   0  0  2  0  0  0  0  0  0  0  0  0
   -6.5136  -29.9449  -14.7474 C   0  0  1  0  0  0  0  0  0  0  0  0
   -6.0833  -30.9535  -15.7754 C   0  0  1  0  0  0  0  0  0  0  0  0
   -4.5913  -31.2328  -15.7014 C   0  0  0  0  0  0  0  0  0  0  0  0
   -9.0461  -32.1744  -13.2449 O   0  0  0  0  0  0  0  0  0  0  0  0
   -8.4298  -29.2494  -13.5190 O   0  0  0  0  0  0  0  0  0  0  0  0
   -6.5501  -28.6708  -15.3135 O   0  0  0  0  0  0  0  0  0  0  0  0
   -6.8191  -32.1234  -15.6236 O   0  0  0  0  0  0  0  0  0  0  0  0
   -3.8603  -30.0573  -15.5980 O   0  0  0  0  0  0  0  0  0  0  0  0
   -8.3737  -36.8389  -18.0085 O   0  0  0  0  0  0  0  0  0  0  0  0
   -6.6962  -35.6279  -19.2183 C   0  0  0  0  0  0  0  0  0  0  0  0
   -6.7715  -34.2373  -19.2531 O   0  0  0  0  0  0  0  0  0  0  0  0
   -7.1737  -36.1600  -17.8865 C   0  0  1  0  0  0  0  0  0  0  0  0
   -7.2892  -35.1403  -16.9766 O   0  0  0  0  0  0  0  0  0  0  0  0
   -6.1636  -37.0641  -17.2359 C   0  0  1  0  0  0  0  0  0  0  0  0
   -4.8635  -36.5654  -17.3215 O   0  0  0  0  0  0  0  0  0  0  0  0
   -6.6100  -37.0346  -15.7891 C   0  0  2  0  0  0  0  0  0  0  0  0
   -7.5498  -38.0776  -15.6356 O   0  0  0  0  0  0  0  0  0  0  0  0
   -7.3025  -35.6892  -15.6979 C   0  0  1  0  0  0  0  0  0  0  0  0
   -6.5874  -34.7414  -14.7965 C   0  0  0  0  0  0  0  0  0  0  0  0
   -7.4394  -33.7846  -14.2816 O   0  0  0  0  0  0  0  0  0  0  0  0
  1  2  1  0
  1 10  1  0
  1 23  1  6
  2  3  1  0
  2  7  1  6
  3  4  1  0
  3  8  1  1
  5  4  1  0
  4  9  1  6
  5  6  1  0
  5 10  1  1
  6 11  1  6
 15 12  1  6
 13 14  1  1
 15 13  1  0
 16 15  1  0
 17 15  1  0
 21 16  1  6
 17 18  1  1
 19 17  1  0
 19 20  1  6
 21 19  1  0
 22 21  1  0
 22 23  1  6
M  END
$$$$
