
     RDKit          3D

 23 24  0  0  0  0  0  0  0  0999 V2000
   -7.7430  -34.5130  -17.2150 C   0  0  2  0  0  0  0  0  0  0  0  0
   -8.1067  -35.9697  -16.9799 C   0  0  1  0  0  0  0  0  0  0  0  0
   -6.8843  -36.6408  -16.3917 C   0  0  2  0  0  0  0  0  0  0  0  0
   -5.7687  -36.4445  -17.4054 C   0  0  1  0  0  0  0  0  0  0  0  0
   -5.5408  -34.9520  -17.4575 C   0  0  1  0  0  0  0  0  0  0  0  0
   -4.2403  -34.5880  -18.1129 C   0  0  0  0  0  0  0  0  0  0  0  0
   -9.1419  -35.9963  -16.0544 O   0  0  0  0  0  0  0  0  0  0  0  0
   -7.0868  -37.9589  -16.0668 O   0  0  0  0  0  0  0  0  0  0  0  0
   -4.6276  -37.1500  -17.0728 O   0  0  0  0  0  0  0  0  0  0  0  0
   -6.6441  -34.3912  -18.0663 O   0  0  0  0  0  0  0  0  0  0  0  0
   -4.2399  -33.3305  -18.6716 O   0  0  0  0  0  0  0  0  0  0  0  0
   -6.3399  -30.5021  -12.1686 O   0  0  0  0  0  0  0  0  0  0  0  0
   -5.0556  -29.8388  -14.0122 C   0  0  0  0  0  0  0  0  0  0  0  0
   -4.4594  -30.6909  -14.9629 O   0  0  0  0  0  0  0  0  0  0  0  0
   -6.3332  -30.5206  -13.5752 C   0  0  1  0  0  0  0  0  0  0  0  0
   -6.3256  -31.8265  -13.9758 O   0  0  0  0  0  0  0  0  0  0  0  0
   -7.5620  -29.8370  -14.0717 C   0  0  1  0  0  0  0  0  0  0  0  0
   -7.3643  -29.1703  -15.2794 O   0  0  0  0  0  0  0  0  0  0  0  0
   -8.5064  -31.0078  -14.2587 C   0  0  2  0  0  0  0  0  0  0  0  0
   -9.3348  -31.1878  -13.1534 O   0  0  0  0  0  0  0  0  0  0  0  0
   -7.5773  -32.1860  -14.4454 C   0  0  1  0  0  0  0  0  0  0  0  0
   -7.5260  -32.6031  -15.8985 C   0  0  0  0  0  0  0  0  0  0  0  0
   -7.4615  -33.9699  -15.9749 O   0  0  0  0  0  0  0  0  0  0  0  0
  1  2  1  0
  1 10  1  0
  1 23  1  1
  2  3  1  0
  2  7  1  1
  3  4  1  0
  3  8  1  6
  5  4  1  0
  4  9  1  1
  5  6  1  6
 10  5  1  0
  6 11  1  0
 15 12  1  1
 13 14  1  0
 15 13  1  0
 16 15  1  0
 17 15  1  0
 21 16  1  0
 17 18  1  6
 19 17  1  0
 19 20  1  1
 21 19  1  0
 21 22  1  6
 22 23  1  0
M  END
$$$$
