
     RDKit          3D

 23 24  0  0  0  0  0  0  0  0999 V2000
   -7.7898  -34.2051  -16.9471 C   0  0  2  0  0  0  0  0  0  0  0  0
   -8.0364  -35.6533  -16.5581 C   0  0  1  0  0  0  0  0  0  0  0  0
   -6.7106  -36.2187  -16.0965 C   0  0  2  0  0  0  0  0  0  0  0  0
   -5.7536  -36.0536  -17.2659 C   0  0  1  0  0  0  0  0  0  0  0  0
   -5.6188  -34.5613  -17.4580 C   0  0  1  0  0  0  0  0  0  0  0  0
   -4.4402  -34.1921  -18.3112 C   0  0  0  0  0  0  0  0  0  0  0  0
   -8.9352  -35.6528  -15.4993 O   0  0  0  0  0  0  0  0  0  0  0  0
   -6.7936  -37.5144  -15.6513 O   0  0  0  0  0  0  0  0  0  0  0  0
   -4.5405  -36.6775  -17.0430 O   0  0  0  0  0  0  0  0  0  0  0  0
   -6.8233  -34.1018  -17.9483 O   0  0  0  0  0  0  0  0  0  0  0  0
   -3.4850  -35.1799  -18.3854 O   0  0  0  0  0  0  0  0  0  0  0  0
   -6.6702  -30.2615  -11.8761 O   0  0  0  0  0  0  0  0  0  0  0  0
   -5.1955  -29.6712  -13.5979 C   0  0  0  0  0  0  0  0  0  0  0  0
   -4.7027  -30.3911  -14.7044 O   0  0  0  0  0  0  0  0  0  0  0  0
   -6.5504  -30.2626  -13.2777 C   0  0  1  0  0  0  0  0  0  0  0  0
   -6.6046  -31.5603  -13.7007 O   0  0  0  0  0  0  0  0  0  0  0  0
   -7.6819  -29.4842  -13.8585 C   0  0  1  0  0  0  0  0  0  0  0  0
   -7.3389  -28.8185  -15.0338 O   0  0  0  0  0  0  0  0  0  0  0  0
   -8.6902  -30.5798  -14.1425 C   0  0  2  0  0  0  0  0  0  0  0  0
   -9.6167  -30.7124  -13.1109 O   0  0  0  0  0  0  0  0  0  0  0  0
   -7.8366  -31.8207  -14.2759 C   0  0  1  0  0  0  0  0  0  0  0  0
   -7.6974  -32.2219  -15.7277 C   0  0  0  0  0  0  0  0  0  0  0  0
   -7.3756  -33.5521  -15.8006 O   0  0  0  0  0  0  0  0  0  0  0  0
  1  2  1  0
  1 10  1  0
  1 23  1  1
  2  3  1  0
  2  7  1  1
  3  4  1  0
  3  8  1  6
  5  4  1  0
  4  9  1  1
  5  6  1  6
 10  5  1  0
  6 11  1  0
 15 12  1  1
 13 14  1  0
 15 13  1  0
 16 15  1  0
 17 15  1  0
 21 16  1  0
 17 18  1  6
 19 17  1  0
 19 20  1  1
 21 19  1  0
 21 22  1  6
 22 23  1  0
M  END
$$$$
