
     RDKit          3D

 23 24  0  0  0  0  0  0  0  0999 V2000
   -7.6301  -34.7453  -16.5331 C   0  0  2  0  0  0  0  0  0  0  0  0
   -7.6251  -36.1852  -16.0305 C   0  0  1  0  0  0  0  0  0  0  0  0
   -6.2565  -36.7533  -16.3179 C   0  0  2  0  0  0  0  0  0  0  0  0
   -5.8935  -36.3175  -17.7441 C   0  0  1  0  0  0  0  0  0  0  0  0
   -5.6670  -34.8316  -17.7413 C   0  0  1  0  0  0  0  0  0  0  0  0
   -6.1033  -34.1921  -19.0491 C   0  0  0  0  0  0  0  0  0  0  0  0
   -7.9777  -36.2651  -14.6954 O   0  0  0  0  0  0  0  0  0  0  0  0
   -6.2360  -38.1449  -16.2583 O   0  0  0  0  0  0  0  0  0  0  0  0
   -4.7223  -36.9791  -18.1125 O   0  0  0  0  0  0  0  0  0  0  0  0
   -6.3255  -34.2572  -16.6598 O   0  0  0  0  0  0  0  0  0  0  0  0
   -6.1920  -35.1313  -20.0674 O   0  0  0  0  0  0  0  0  0  0  0  0
   -7.0679  -30.4839  -12.3548 O   0  0  0  0  0  0  0  0  0  0  0  0
   -4.9661  -30.4248  -13.5051 C   0  0  0  0  0  0  0  0  0  0  0  0
   -4.3661  -30.6332  -14.7450 O   0  0  0  0  0  0  0  0  0  0  0  0
   -6.4638  -30.6092  -13.5938 C   0  0  1  0  0  0  0  0  0  0  0  0
   -6.7647  -31.8242  -14.1541 O   0  0  0  0  0  0  0  0  0  0  0  0
   -7.1039  -29.6418  -14.5506 C   0  0  1  0  0  0  0  0  0  0  0  0
   -6.3827  -29.5042  -15.7369 O   0  0  0  0  0  0  0  0  0  0  0  0
   -8.4200  -30.3287  -14.8492 C   0  0  2  0  0  0  0  0  0  0  0  0
   -9.3397  -29.8785  -13.8765 O   0  0  0  0  0  0  0  0  0  0  0  0
   -8.0787  -31.7863  -14.6109 C   0  0  1  0  0  0  0  0  0  0  0  0
   -8.1418  -32.5968  -15.8604 C   0  0  0  0  0  0  0  0  0  0  0  0
   -8.2497  -33.9464  -15.5891 O   0  0  0  0  0  0  0  0  0  0  0  0
  1  2  1  0
  1 10  1  0
  1 23  1  1
  2  3  1  0
  2  7  1  1
  3  4  1  0
  3  8  1  6
  5  4  1  0
  4  9  1  1
  5  6  1  0
  5 10  1  1
  6 11  1  6
 15 12  1  1
 13 14  1  1
 15 13  1  0
 16 15  1  0
 17 15  1  0
 21 16  1  6
 17 18  1  6
 19 17  1  0
 19 20  1  1
 21 19  1  0
 22 21  1  0
 22 23  1  6
M  END
$$$$
