
     RDKit          3D

 23 24  0  0  0  0  0  0  0  0999 V2000
   -7.4754  -34.6250  -16.7353 C   0  0  2  0  0  0  0  0  0  0  0  0
   -7.9956  -36.0502  -16.5792 C   0  0  1  0  0  0  0  0  0  0  0  0
   -6.7981  -36.9685  -16.6125 C   0  0  2  0  0  0  0  0  0  0  0  0
   -5.9039  -36.4785  -17.7598 C   0  0  1  0  0  0  0  0  0  0  0  0
   -5.3205  -35.1492  -17.3699 C   0  0  1  0  0  0  0  0  0  0  0  0
   -5.1425  -34.2370  -18.5723 C   0  0  0  0  0  0  0  0  0  0  0  0
   -8.7611  -36.1959  -15.4364 O   0  0  0  0  0  0  0  0  0  0  0  0
   -7.1516  -38.2934  -16.8577 O   0  0  0  0  0  0  0  0  0  0  0  0
   -4.8849  -37.4131  -17.9418 O   0  0  0  0  0  0  0  0  0  0  0  0
   -6.1190  -34.5504  -16.4020 O   0  0  0  0  0  0  0  0  0  0  0  0
   -4.3178  -34.8140  -19.5283 O   0  0  0  0  0  0  0  0  0  0  0  0
   -6.9298  -30.7521  -12.2423 O   0  0  0  0  0  0  0  0  0  0  0  0
   -4.7104  -30.9883  -13.1156 C   0  0  0  0  0  0  0  0  0  0  0  0
   -4.0778  -31.8614  -13.9978 O   0  0  0  0  0  0  0  0  0  0  0  0
   -6.1925  -30.9127  -13.4026 C   0  0  1  0  0  0  0  0  0  0  0  0
   -6.6063  -32.0288  -14.0838 O   0  0  0  0  0  0  0  0  0  0  0  0
   -6.5347  -29.8028  -14.3577 C   0  0  1  0  0  0  0  0  0  0  0  0
   -5.6479  -29.7271  -15.4320 O   0  0  0  0  0  0  0  0  0  0  0  0
   -7.8917  -30.2416  -14.8669 C   0  0  2  0  0  0  0  0  0  0  0  0
   -8.8496  -29.6940  -13.9854 O   0  0  0  0  0  0  0  0  0  0  0  0
   -7.8237  -31.7462  -14.6960 C   0  0  1  0  0  0  0  0  0  0  0  0
   -7.8473  -32.4684  -15.9999 C   0  0  0  0  0  0  0  0  0  0  0  0
   -8.1377  -33.8084  -15.8367 O   0  0  0  0  0  0  0  0  0  0  0  0
  1  2  1  0
  1 10  1  0
  1 23  1  1
  2  3  1  0
  2  7  1  1
  3  4  1  0
  3  8  1  6
  5  4  1  0
  4  9  1  1
  5  6  1  0
  5 10  1  1
  6 11  1  6
 15 12  1  1
 13 14  1  1
 15 13  1  0
 16 15  1  0
 17 15  1  0
 21 16  1  6
 17 18  1  6
 19 17  1  0
 19 20  1  1
 21 19  1  0
 22 21  1  0
 22 23  1  6
M  END
$$$$
