
     RDKit          3D

 23 24  0  0  0  0  0  0  0  0999 V2000
   -7.5235  -34.5425  -16.3738 C   0  0  2  0  0  0  0  0  0  0  0  0
   -7.9093  -35.9879  -16.0768 C   0  0  1  0  0  0  0  0  0  0  0  0
   -6.6308  -36.7884  -16.0210 C   0  0  2  0  0  0  0  0  0  0  0  0
   -5.7775  -36.3321  -17.2124 C   0  0  1  0  0  0  0  0  0  0  0  0
   -5.3242  -34.9220  -16.9568 C   0  0  1  0  0  0  0  0  0  0  0  0
   -5.2230  -34.1201  -18.2437 C   0  0  0  0  0  0  0  0  0  0  0  0
   -8.6666  -36.0915  -14.9240 O   0  0  0  0  0  0  0  0  0  0  0  0
   -6.8568  -38.1584  -16.1334 O   0  0  0  0  0  0  0  0  0  0  0  0
   -4.6741  -37.1802  -17.3027 O   0  0  0  0  0  0  0  0  0  0  0  0
   -6.1828  -34.3084  -16.0516 O   0  0  0  0  0  0  0  0  0  0  0  0
   -4.6492  -34.8679  -19.2628 O   0  0  0  0  0  0  0  0  0  0  0  0
   -7.8111  -30.4214  -11.9967 O   0  0  0  0  0  0  0  0  0  0  0  0
   -5.4646  -30.6430  -12.4310 C   0  0  0  0  0  0  0  0  0  0  0  0
   -4.6067  -31.3543  -13.2670 O   0  0  0  0  0  0  0  0  0  0  0  0
   -6.8689  -30.6252  -12.9898 C   0  0  1  0  0  0  0  0  0  0  0  0
   -7.1297  -31.7886  -13.6677 O   0  0  0  0  0  0  0  0  0  0  0  0
   -7.0475  -29.5800  -14.0561 C   0  0  1  0  0  0  0  0  0  0  0  0
   -5.9785  -29.5391  -14.9515 O   0  0  0  0  0  0  0  0  0  0  0  0
   -8.2788  -30.0844  -14.7792 C   0  0  2  0  0  0  0  0  0  0  0  0
   -9.3929  -29.5161  -14.1232 O   0  0  0  0  0  0  0  0  0  0  0  0
   -8.2174  -31.5748  -14.5092 C   0  0  1  0  0  0  0  0  0  0  0  0
   -7.9863  -32.3685  -15.7497 C   0  0  0  0  0  0  0  0  0  0  0  0
   -8.2664  -33.7071  -15.5594 O   0  0  0  0  0  0  0  0  0  0  0  0
  1  2  1  0
  1 10  1  0
  1 23  1  1
  2  3  1  0
  2  7  1  1
  3  4  1  0
  3  8  1  6
  5  4  1  0
  4  9  1  1
  5  6  1  0
  5 10  1  1
  6 11  1  6
 15 12  1  1
 13 14  1  1
 15 13  1  0
 16 15  1  0
 17 15  1  0
 21 16  1  1
 17 18  1  6
 19 17  1  0
 19 20  1  1
 21 19  1  0
 22 21  1  0
 22 23  1  6
M  END
$$$$
