
     RDKit          3D

 23 24  0  0  0  0  0  0  0  0999 V2000
   -6.5932  -32.4861  -14.0530 C   0  0  2  0  0  0  0  0  0  0  0  0
   -7.5294  -31.4729  -13.4154 C   0  0  1  0  0  0  0  0  0  0  0  0
   -8.0739  -30.6100  -14.5332 C   0  0  2  0  0  0  0  0  0  0  0  0
   -6.8641  -29.9850  -15.2087 C   0  0  1  0  0  0  0  0  0  0  0  0
   -6.1001  -31.1452  -15.8022 C   0  0  1  0  0  0  0  0  0  0  0  0
   -5.0855  -30.7099  -16.8192 C   0  0  0  0  0  0  0  0  0  0  0  0
   -8.5692  -32.1801  -12.8258 O   0  0  0  0  0  0  0  0  0  0  0  0
   -8.9907  -29.6803  -14.1099 O   0  0  0  0  0  0  0  0  0  0  0  0
   -7.2202  -29.0389  -16.1514 O   0  0  0  0  0  0  0  0  0  0  0  0
   -5.5612  -31.8594  -14.7525 O   0  0  0  0  0  0  0  0  0  0  0  0
   -4.1383  -29.8478  -16.3159 O   0  0  0  0  0  0  0  0  0  0  0  0
   -7.5722  -36.8481  -18.6870 O   0  0  0  0  0  0  0  0  0  0  0  0
   -5.3401  -36.7364  -17.9847 C   0  0  0  0  0  0  0  0  0  0  0  0
   -5.1336  -35.8023  -19.0192 O   0  0  0  0  0  0  0  0  0  0  0  0
   -6.7818  -36.5797  -17.5547 C   0  0  1  0  0  0  0  0  0  0  0  0
   -7.0181  -35.2885  -17.1767 O   0  0  0  0  0  0  0  0  0  0  0  0
   -7.1725  -37.5158  -16.4616 C   0  0  1  0  0  0  0  0  0  0  0  0
   -6.1066  -37.8615  -15.6332 O   0  0  0  0  0  0  0  0  0  0  0  0
   -8.1899  -36.6878  -15.7019 C   0  0  2  0  0  0  0  0  0  0  0  0
   -9.4937  -36.9762  -16.0984 O   0  0  0  0  0  0  0  0  0  0  0  0
   -7.8147  -35.2637  -16.0447 C   0  0  1  0  0  0  0  0  0  0  0  0
   -7.1076  -34.6014  -14.8832 C   0  0  0  0  0  0  0  0  0  0  0  0
   -7.3634  -33.2552  -14.9058 O   0  0  0  0  0  0  0  0  0  0  0  0
  1  2  1  0
  1 10  1  0
  1 23  1  6
  2  3  1  0
  2  7  1  6
  3  4  1  0
  3  8  1  1
  5  4  1  0
  4  9  1  6
  5  6  1  6
 10  5  1  0
  6 11  1  0
 15 12  1  6
 13 14  1  0
 15 13  1  0
 16 15  1  0
 17 15  1  0
 21 16  1  0
 17 18  1  1
 19 17  1  0
 19 20  1  6
 21 19  1  0
 21 22  1  1
 22 23  1  0
M  END
$$$$
