
     RDKit          3D

 23 24  0  0  0  0  0  0  0  0999 V2000
   -6.9364  -34.2308  -17.1465 C   0  0  2  0  0  0  0  0  0  0  0  0
   -7.8469  -35.3343  -17.6752 C   0  0  1  0  0  0  0  0  0  0  0  0
   -7.4875  -36.6010  -16.9373 C   0  0  2  0  0  0  0  0  0  0  0  0
   -5.9544  -36.6661  -16.9024 C   0  0  1  0  0  0  0  0  0  0  0  0
   -5.4553  -35.5748  -15.9971 C   0  0  1  0  0  0  0  0  0  0  0  0
   -4.1256  -35.0126  -16.4717 C   0  0  0  0  0  0  0  0  0  0  0  0
   -9.1835  -34.9978  -17.5590 O   0  0  0  0  0  0  0  0  0  0  0  0
   -7.9675  -37.7421  -17.5761 O   0  0  0  0  0  0  0  0  0  0  0  0
   -5.5869  -37.9126  -16.3963 O   0  0  0  0  0  0  0  0  0  0  0  0
   -6.4139  -34.5729  -15.8950 O   0  0  0  0  0  0  0  0  0  0  0  0
   -3.6569  -34.0274  -15.6134 O   0  0  0  0  0  0  0  0  0  0  0  0
   -8.7691  -31.2753  -12.4024 O   0  0  0  0  0  0  0  0  0  0  0  0
   -6.4583  -31.3506  -11.7710 C   0  0  0  0  0  0  0  0  0  0  0  0
   -5.1659  -31.4214  -12.2862 O   0  0  0  0  0  0  0  0  0  0  0  0
   -7.4728  -31.1956  -12.8808 C   0  0  1  0  0  0  0  0  0  0  0  0
   -7.2625  -32.1357  -13.8570 O   0  0  0  0  0  0  0  0  0  0  0  0
   -7.3066  -29.9035  -13.6318 C   0  0  1  0  0  0  0  0  0  0  0  0
   -5.9709  -29.6132  -13.9110 O   0  0  0  0  0  0  0  0  0  0  0  0
   -8.0282  -30.2055  -14.9285 C   0  0  2  0  0  0  0  0  0  0  0  0
   -9.3794  -29.8449  -14.7316 O   0  0  0  0  0  0  0  0  0  0  0  0
   -7.8975  -31.7129  -15.0210 C   0  0  1  0  0  0  0  0  0  0  0  0
   -7.0529  -32.1409  -16.1724 C   0  0  0  0  0  0  0  0  0  0  0  0
   -7.6902  -33.0880  -16.9492 O   0  0  0  0  0  0  0  0  0  0  0  0
  1  2  1  0
  1 10  1  0
  1 23  1  1
  2  3  1  0
  2  7  1  1
  3  4  1  0
  3  8  1  6
  5  4  1  0
  4  9  1  1
  5  6  1  0
  5 10  1  6
  6 11  1  6
 15 12  1  1
 13 14  1  1
 15 13  1  0
 16 15  1  0
 17 15  1  0
 21 16  1  1
 17 18  1  6
 19 17  1  0
 19 20  1  1
 21 19  1  0
 22 21  1  0
 22 23  1  6
M  END
$$$$
