
     RDKit          3D

 23 24  0  0  0  0  0  0  0  0999 V2000
   -6.2118  -32.4790  -14.4309 C   0  0  2  0  0  0  0  0  0  0  0  0
   -6.9911  -31.5771  -13.4881 C   0  0  1  0  0  0  0  0  0  0  0  0
   -8.1518  -31.0108  -14.2772 C   0  0  2  0  0  0  0  0  0  0  0  0
   -7.5382  -30.2768  -15.4585 C   0  0  1  0  0  0  0  0  0  0  0  0
   -6.8550  -31.3473  -16.2767 C   0  0  1  0  0  0  0  0  0  0  0  0
   -6.5138  -30.8857  -17.6637 C   0  0  0  0  0  0  0  0  0  0  0  0
   -7.4743  -32.3716  -12.4565 O   0  0  0  0  0  0  0  0  0  0  0  0
   -8.9869  -30.2185  -13.5297 O   0  0  0  0  0  0  0  0  0  0  0  0
   -8.4789  -29.5677  -16.1815 O   0  0  0  0  0  0  0  0  0  0  0  0
   -5.7638  -31.7807  -15.5529 O   0  0  0  0  0  0  0  0  0  0  0  0
   -7.5785  -30.9293  -18.5344 O   0  0  0  0  0  0  0  0  0  0  0  0
   -7.2464  -37.2950  -18.2732 O   0  0  0  0  0  0  0  0  0  0  0  0
   -5.0563  -36.4704  -18.1669 C   0  0  0  0  0  0  0  0  0  0  0  0
   -5.0892  -35.1100  -18.5324 O   0  0  0  0  0  0  0  0  0  0  0  0
   -6.3213  -36.7273  -17.3784 C   0  0  1  0  0  0  0  0  0  0  0  0
   -6.8418  -35.5453  -16.9334 O   0  0  0  0  0  0  0  0  0  0  0  0
   -6.1198  -37.6637  -16.2355 C   0  0  1  0  0  0  0  0  0  0  0  0
   -4.8282  -37.6172  -15.7142 O   0  0  0  0  0  0  0  0  0  0  0  0
   -7.1197  -37.1326  -15.2277 C   0  0  2  0  0  0  0  0  0  0  0  0
   -8.3269  -37.8256  -15.2798 O   0  0  0  0  0  0  0  0  0  0  0  0
   -7.2989  -35.6874  -15.6345 C   0  0  1  0  0  0  0  0  0  0  0  0
   -6.5643  -34.7680  -14.6841 C   0  0  0  0  0  0  0  0  0  0  0  0
   -7.0686  -33.4991  -14.8017 O   0  0  0  0  0  0  0  0  0  0  0  0
  1  2  1  0
  1 10  1  0
  1 23  1  6
  2  3  1  0
  2  7  1  1
  3  4  1  0
  3  8  1  1
  5  4  1  0
  4  9  1  6
  5  6  1  6
 10  5  1  0
  6 11  1  0
 15 12  1  6
 13 14  1  0
 15 13  1  0
 16 15  1  0
 17 15  1  0
 21 16  1  0
 17 18  1  1
 19 17  1  0
 19 20  1  6
 21 19  1  0
 21 22  1  1
 22 23  1  0
M  END
$$$$
