
     RDKit          3D

 23 24  0  0  0  0  0  0  0  0999 V2000
   -7.8054  -32.4268  -14.6728 C   0  0  2  0  0  0  0  0  0  0  0  0
   -8.4166  -31.1188  -14.1812 C   0  0  1  0  0  0  0  0  0  0  0  0
   -7.2749  -30.2109  -13.7931 C   0  0  2  0  0  0  0  0  0  0  0  0
   -6.2826  -31.0720  -12.9995 C   0  0  1  0  0  0  0  0  0  0  0  0
   -5.6487  -32.0547  -13.9438 C   0  0  1  0  0  0  0  0  0  0  0  0
   -5.3419  -33.3766  -13.2597 C   0  0  0  0  0  0  0  0  0  0  0  0
   -9.2603  -30.5593  -15.1236 O   0  0  0  0  0  0  0  0  0  0  0  0
   -7.6886  -29.1517  -12.9885 O   0  0  0  0  0  0  0  0  0  0  0  0
   -5.3102  -30.2273  -12.4647 O   0  0  0  0  0  0  0  0  0  0  0  0
   -6.4709  -32.2428  -15.0491 O   0  0  0  0  0  0  0  0  0  0  0  0
   -4.1304  -33.3280  -12.5838 O   0  0  0  0  0  0  0  0  0  0  0  0
   -7.1717  -34.1949  -20.2890 O   0  0  0  0  0  0  0  0  0  0  0  0
   -4.9712  -34.2245  -19.3399 C   0  0  0  0  0  0  0  0  0  0  0  0
   -4.2906  -34.2820  -18.1257 O   0  0  0  0  0  0  0  0  0  0  0  0
   -6.4493  -34.4704  -19.1410 C   0  0  1  0  0  0  0  0  0  0  0  0
   -6.9208  -33.7295  -18.0876 O   0  0  0  0  0  0  0  0  0  0  0  0
   -6.7416  -35.8794  -18.7049 C   0  0  1  0  0  0  0  0  0  0  0  0
   -5.8578  -36.3319  -17.7248 O   0  0  0  0  0  0  0  0  0  0  0  0
   -8.1211  -35.7343  -18.0973 C   0  0  2  0  0  0  0  0  0  0  0  0
   -9.0464  -35.9332  -19.1455 O   0  0  0  0  0  0  0  0  0  0  0  0
   -8.1261  -34.2816  -17.6642 C   0  0  1  0  0  0  0  0  0  0  0  0
   -8.1918  -34.1301  -16.1826 C   0  0  0  0  0  0  0  0  0  0  0  0
   -8.4748  -32.8299  -15.8140 O   0  0  0  0  0  0  0  0  0  0  0  0
  1  2  1  0
  1 10  1  0
  1 23  1  6
  2  3  1  0
  2  7  1  6
  3  4  1  0
  3  8  1  1
  5  4  1  0
  4  9  1  6
  5  6  1  0
  5 10  1  6
  6 11  1  6
 15 12  1  6
 13 14  1  1
 15 13  1  0
 16 15  1  0
 17 15  1  0
 21 16  1  1
 17 18  1  1
 19 17  1  0
 19 20  1  6
 21 19  1  0
 22 21  1  0
 22 23  1  6
M  END
$$$$
