
     RDKit          3D

 23 24  0  0  0  0  0  0  0  0999 V2000
   -6.8564  -34.1347  -17.3130 C   0  0  2  0  0  0  0  0  0  0  0  0
   -7.8624  -35.1400  -17.8487 C   0  0  1  0  0  0  0  0  0  0  0  0
   -7.8254  -36.3375  -16.9239 C   0  0  2  0  0  0  0  0  0  0  0  0
   -6.3904  -36.8384  -16.9425 C   0  0  1  0  0  0  0  0  0  0  0  0
   -5.5737  -35.7191  -16.3407 C   0  0  1  0  0  0  0  0  0  0  0  0
   -4.1992  -36.1618  -15.9308 C   0  0  0  0  0  0  0  0  0  0  0  0
   -9.1164  -34.5460  -17.7897 O   0  0  0  0  0  0  0  0  0  0  0  0
   -8.7365  -37.3103  -17.2517 O   0  0  0  0  0  0  0  0  0  0  0  0
   -6.2434  -38.0340  -16.2647 O   0  0  0  0  0  0  0  0  0  0  0  0
   -5.5736  -34.6799  -17.2477 O   0  0  0  0  0  0  0  0  0  0  0  0
   -3.3083  -35.1231  -15.7854 O   0  0  0  0  0  0  0  0  0  0  0  0
   -7.3402  -31.2436  -11.4982 O   0  0  0  0  0  0  0  0  0  0  0  0
   -5.2625  -30.8241  -12.4959 C   0  0  0  0  0  0  0  0  0  0  0  0
   -4.6806  -30.5691  -13.7536 O   0  0  0  0  0  0  0  0  0  0  0  0
   -6.7256  -31.1063  -12.7561 C   0  0  1  0  0  0  0  0  0  0  0  0
   -6.8611  -32.2930  -13.4190 O   0  0  0  0  0  0  0  0  0  0  0  0
   -7.4083  -30.0152  -13.5092 C   0  0  1  0  0  0  0  0  0  0  0  0
   -6.5488  -29.3163  -14.3547 O   0  0  0  0  0  0  0  0  0  0  0  0
   -8.4292  -30.7945  -14.3143 C   0  0  2  0  0  0  0  0  0  0  0  0
   -9.6727  -30.8224  -13.6871 O   0  0  0  0  0  0  0  0  0  0  0  0
   -7.8283  -32.1792  -14.4028 C   0  0  1  0  0  0  0  0  0  0  0  0
   -7.2515  -32.4261  -15.7792 C   0  0  0  0  0  0  0  0  0  0  0  0
   -7.2949  -33.7680  -16.0539 O   0  0  0  0  0  0  0  0  0  0  0  0
  1  2  1  0
  1 10  1  0
  1 23  1  1
  2  3  1  0
  2  7  1  1
  3  4  1  0
  3  8  1  6
  5  4  1  0
  4  9  1  1
  5  6  1  6
 10  5  1  0
  6 11  1  0
 15 12  1  1
 13 14  1  0
 15 13  1  0
 16 15  1  0
 17 15  1  0
 21 16  1  0
 17 18  1  6
 19 17  1  0
 19 20  1  1
 21 19  1  0
 21 22  1  6
 22 23  1  0
M  END
$$$$
