
     RDKit          3D

 23 24  0  0  0  0  0  0  0  0999 V2000
   -6.4850  -32.5310  -14.5475 C   0  0  2  0  0  0  0  0  0  0  0  0
   -7.2098  -31.6273  -13.5554 C   0  0  1  0  0  0  0  0  0  0  0  0
   -7.6605  -30.4028  -14.3142 C   0  0  2  0  0  0  0  0  0  0  0  0
   -6.4778  -29.9743  -15.1938 C   0  0  1  0  0  0  0  0  0  0  0  0
   -6.2892  -31.0078  -16.2687 C   0  0  1  0  0  0  0  0  0  0  0  0
   -4.8248  -31.1756  -16.6389 C   0  0  0  0  0  0  0  0  0  0  0  0
   -8.2475  -32.2871  -12.9220 O   0  0  0  0  0  0  0  0  0  0  0  0
   -7.9928  -29.3467  -13.4688 O   0  0  0  0  0  0  0  0  0  0  0  0
   -6.7900  -28.7412  -15.7656 O   0  0  0  0  0  0  0  0  0  0  0  0
   -6.8437  -32.2163  -15.8622 O   0  0  0  0  0  0  0  0  0  0  0  0
   -4.1517  -29.9620  -16.6060 O   0  0  0  0  0  0  0  0  0  0  0  0
   -8.2658  -37.3423  -17.6305 O   0  0  0  0  0  0  0  0  0  0  0  0
   -6.4688  -36.7190  -19.0886 C   0  0  0  0  0  0  0  0  0  0  0  0
   -5.6638  -35.5923  -19.2420 O   0  0  0  0  0  0  0  0  0  0  0  0
   -6.9829  -36.8247  -17.6711 C   0  0  1  0  0  0  0  0  0  0  0  0
   -6.9389  -35.6012  -17.0529 O   0  0  0  0  0  0  0  0  0  0  0  0
   -6.0890  -37.6624  -16.7990 C   0  0  1  0  0  0  0  0  0  0  0  0
   -4.7359  -37.3836  -16.9932 O   0  0  0  0  0  0  0  0  0  0  0  0
   -6.4939  -37.2054  -15.4133 C   0  0  2  0  0  0  0  0  0  0  0  0
   -7.5619  -38.0370  -15.0103 O   0  0  0  0  0  0  0  0  0  0  0  0
   -6.9966  -35.7998  -15.6767 C   0  0  1  0  0  0  0  0  0  0  0  0
   -6.1397  -34.7603  -15.0382 C   0  0  0  0  0  0  0  0  0  0  0  0
   -6.8917  -33.8366  -14.3398 O   0  0  0  0  0  0  0  0  0  0  0  0
  1  2  1  0
  1 10  1  0
  1 23  1  1
  2  3  1  0
  2  7  1  6
  3  4  1  0
  3  8  1  1
  5  4  1  0
  4  9  1  6
  5  6  1  0
  5 10  1  1
  6 11  1  6
 15 12  1  6
 13 14  1  1
 15 13  1  0
 16 15  1  0
 17 15  1  0
 21 16  1  6
 17 18  1  6
 19 17  1  0
 19 20  1  6
 21 19  1  0
 22 21  1  0
 22 23  1  6
M  END
$$$$
