
     RDKit          3D

 23 24  0  0  0  0  0  0  0  0999 V2000
   -7.4947  -33.0845  -18.0665 C   0  0  2  0  0  0  0  0  0  0  0  0
   -8.6099  -33.6508  -18.9393 C   0  0  1  0  0  0  0  0  0  0  0  0
   -8.2185  -35.0625  -19.3029 C   0  0  2  0  0  0  0  0  0  0  0  0
   -6.7339  -35.0181  -19.6903 C   0  0  1  0  0  0  0  0  0  0  0  0
   -5.9304  -34.7354  -18.4519 C   0  0  1  0  0  0  0  0  0  0  0  0
   -4.6977  -33.9009  -18.7578 C   0  0  0  0  0  0  0  0  0  0  0  0
   -9.8417  -33.5715  -18.3153 O   0  0  0  0  0  0  0  0  0  0  0  0
   -8.9467  -35.5536  -20.3842 O   0  0  0  0  0  0  0  0  0  0  0  0
   -6.3867  -36.2641  -20.2116 O   0  0  0  0  0  0  0  0  0  0  0  0
   -6.7326  -34.1127  -17.5023 O   0  0  0  0  0  0  0  0  0  0  0  0
   -3.9803  -33.6150  -17.6042 O   0  0  0  0  0  0  0  0  0  0  0  0
   -7.6599  -33.9631  -12.3946 O   0  0  0  0  0  0  0  0  0  0  0  0
   -5.6709  -35.0617  -13.1568 C   0  0  0  0  0  0  0  0  0  0  0  0
   -4.7246  -35.0544  -14.1792 O   0  0  0  0  0  0  0  0  0  0  0  0
   -6.5846  -33.8620  -13.2601 C   0  0  1  0  0  0  0  0  0  0  0  0
   -7.0204  -33.7012  -14.5506 O   0  0  0  0  0  0  0  0  0  0  0  0
   -5.8637  -32.5690  -12.9963 C   0  0  1  0  0  0  0  0  0  0  0  0
   -4.6203  -32.5100  -13.6262 O   0  0  0  0  0  0  0  0  0  0  0  0
   -6.7924  -31.5611  -13.6405 C   0  0  2  0  0  0  0  0  0  0  0  0
   -7.7193  -31.1746  -12.6476 O   0  0  0  0  0  0  0  0  0  0  0  0
   -7.4809  -32.3966  -14.7016 C   0  0  1  0  0  0  0  0  0  0  0  0
   -7.1361  -31.9574  -16.0838 C   0  0  0  0  0  0  0  0  0  0  0  0
   -8.0625  -32.4006  -17.0068 O   0  0  0  0  0  0  0  0  0  0  0  0
  1  2  1  0
  1 10  1  0
  1 23  1  1
  2  3  1  0
  2  7  1  1
  3  4  1  0
  3  8  1  6
  5  4  1  0
  4  9  1  1
  5  6  1  0
  5 10  1  1
  6 11  1  6
 15 12  1  1
 13 14  1  1
 15 13  1  0
 16 15  1  0
 17 15  1  0
 21 16  1  6
 17 18  1  6
 19 17  1  0
 19 20  1  1
 21 19  1  0
 22 21  1  0
 22 23  1  6
M  END
$$$$
