
     RDKit          3D

 23 24  0  0  0  0  0  0  0  0999 V2000
   -6.0524  -34.7476  -14.8783 C   0  0  2  0  0  0  0  0  0  0  0  0
   -4.8532  -34.9458  -15.7905 C   0  0  1  0  0  0  0  0  0  0  0  0
   -5.3920  -35.1549  -17.1893 C   0  0  2  0  0  0  0  0  0  0  0  0
   -6.3074  -36.3659  -17.1101 C   0  0  1  0  0  0  0  0  0  0  0  0
   -7.4372  -35.9477  -16.1986 C   0  0  1  0  0  0  0  0  0  0  0  0
   -8.6238  -36.8624  -16.2911 C   0  0  0  0  0  0  0  0  0  0  0  0
   -4.1028  -33.7778  -15.7515 O   0  0  0  0  0  0  0  0  0  0  0  0
   -4.4105  -35.2870  -18.1396 O   0  0  0  0  0  0  0  0  0  0  0  0
   -6.7461  -36.7741  -18.3556 O   0  0  0  0  0  0  0  0  0  0  0  0
   -6.9173  -35.8415  -14.9255 O   0  0  0  0  0  0  0  0  0  0  0  0
   -9.3556  -36.9319  -15.1278 O   0  0  0  0  0  0  0  0  0  0  0  0
   -6.8024  -28.5288  -14.8775 O   0  0  0  0  0  0  0  0  0  0  0  0
   -8.7580  -29.3053  -15.9074 C   0  0  0  0  0  0  0  0  0  0  0  0
   -8.1978  -29.5970  -17.1670 O   0  0  0  0  0  0  0  0  0  0  0  0
   -7.6886  -29.6212  -14.8854 C   0  0  1  0  0  0  0  0  0  0  0  0
   -6.9856  -30.7268  -15.2723 O   0  0  0  0  0  0  0  0  0  0  0  0
   -8.2308  -29.8116  -13.5093 C   0  0  1  0  0  0  0  0  0  0  0  0
   -9.5371  -30.2969  -13.5006 O   0  0  0  0  0  0  0  0  0  0  0  0
   -7.2755  -30.8454  -12.9468 C   0  0  2  0  0  0  0  0  0  0  0  0
   -6.2500  -30.2575  -12.2099 O   0  0  0  0  0  0  0  0  0  0  0  0
   -6.7382  -31.5385  -14.1786 C   0  0  1  0  0  0  0  0  0  0  0  0
   -7.3710  -32.9022  -14.3452 C   0  0  0  0  0  0  0  0  0  0  0  0
   -6.6931  -33.6007  -15.3100 O   0  0  0  0  0  0  0  0  0  0  0  0
  1  2  1  0
  1 10  1  0
  1 23  1  6
  2  3  1  0
  2  7  1  6
  3  4  1  0
  3  8  1  6
  5  4  1  0
  4  9  1  6
  5  6  1  1
 10  5  1  0
  6 11  1  0
 15 12  1  1
 13 14  1  0
 15 13  1  0
 16 15  1  0
 17 15  1  0
 21 16  1  0
 17 18  1  6
 19 17  1  0
 19 20  1  6
 21 19  1  0
 21 22  1  6
 22 23  1  0
M  END
$$$$
