
     RDKit          3D

 23 24  0  0  0  0  0  0  0  0999 V2000
   -7.1028  -34.3554  -17.2221 C   0  0  2  0  0  0  0  0  0  0  0  0
   -7.9181  -35.6276  -17.0597 C   0  0  1  0  0  0  0  0  0  0  0  0
   -7.1360  -36.5388  -16.1384 C   0  0  2  0  0  0  0  0  0  0  0  0
   -5.7886  -36.7566  -16.8075 C   0  0  1  0  0  0  0  0  0  0  0  0
   -5.1357  -35.3946  -16.8329 C   0  0  1  0  0  0  0  0  0  0  0  0
   -3.6622  -35.4647  -17.1109 C   0  0  0  0  0  0  0  0  0  0  0  0
   -9.1196  -35.2780  -16.4573 O   0  0  0  0  0  0  0  0  0  0  0  0
   -7.7860  -37.7125  -15.8486 O   0  0  0  0  0  0  0  0  0  0  0  0
   -5.0254  -37.7054  -16.1534 O   0  0  0  0  0  0  0  0  0  0  0  0
   -5.8342  -34.6232  -17.7380 O   0  0  0  0  0  0  0  0  0  0  0  0
   -3.3401  -35.2302  -18.4280 O   0  0  0  0  0  0  0  0  0  0  0  0
   -7.8076  -30.7469  -11.8650 O   0  0  0  0  0  0  0  0  0  0  0  0
   -5.6231  -30.3868  -12.6306 C   0  0  0  0  0  0  0  0  0  0  0  0
   -4.8610  -31.5612  -12.7901 O   0  0  0  0  0  0  0  0  0  0  0  0
   -7.0355  -30.7401  -13.0408 C   0  0  1  0  0  0  0  0  0  0  0  0
   -7.0668  -31.9998  -13.5684 O   0  0  0  0  0  0  0  0  0  0  0  0
   -7.6285  -29.7651  -14.0008 C   0  0  1  0  0  0  0  0  0  0  0  0
   -6.6752  -29.1454  -14.8066 O   0  0  0  0  0  0  0  0  0  0  0  0
   -8.5244  -30.6628  -14.8310 C   0  0  2  0  0  0  0  0  0  0  0  0
   -9.8388  -30.6533  -14.3699 O   0  0  0  0  0  0  0  0  0  0  0  0
   -7.8983  -32.0302  -14.6748 C   0  0  1  0  0  0  0  0  0  0  0  0
   -7.1428  -32.4198  -15.9260 C   0  0  0  0  0  0  0  0  0  0  0  0
   -7.0077  -33.7829  -15.9670 O   0  0  0  0  0  0  0  0  0  0  0  0
  1  2  1  0
  1 10  1  0
  1 23  1  1
  2  3  1  0
  2  7  1  1
  3  4  1  0
  3  8  1  6
  5  4  1  0
  4  9  1  1
  5  6  1  6
 10  5  1  0
  6 11  1  0
 15 12  1  1
 13 14  1  0
 15 13  1  0
 16 15  1  0
 17 15  1  0
 21 16  1  0
 17 18  1  6
 19 17  1  0
 19 20  1  1
 21 19  1  0
 21 22  1  6
 22 23  1  0
M  END
$$$$
