
     RDKit          3D

 23 24  0  0  0  0  0  0  0  0999 V2000
   -7.6226  -34.6937  -16.5422 C   0  0  2  0  0  0  0  0  0  0  0  0
   -7.8058  -36.1577  -16.1559 C   0  0  1  0  0  0  0  0  0  0  0  0
   -6.4974  -36.8586  -16.4301 C   0  0  2  0  0  0  0  0  0  0  0  0
   -6.0156  -36.3634  -17.8007 C   0  0  1  0  0  0  0  0  0  0  0  0
   -5.6231  -34.9184  -17.6702 C   0  0  1  0  0  0  0  0  0  0  0  0
   -5.9174  -34.1372  -18.9401 C   0  0  0  0  0  0  0  0  0  0  0  0
   -8.2324  -36.2948  -14.8473 O   0  0  0  0  0  0  0  0  0  0  0  0
   -6.6372  -38.2436  -16.4805 O   0  0  0  0  0  0  0  0  0  0  0  0
   -4.9095  -37.1278  -18.1711 O   0  0  0  0  0  0  0  0  0  0  0  0
   -6.2664  -34.3530  -16.5750 O   0  0  0  0  0  0  0  0  0  0  0  0
   -5.2142  -32.9408  -18.9734 O   0  0  0  0  0  0  0  0  0  0  0  0
   -7.1457  -30.5173  -12.2143 O   0  0  0  0  0  0  0  0  0  0  0  0
   -4.9720  -30.5234  -13.2237 C   0  0  0  0  0  0  0  0  0  0  0  0
   -4.2893  -31.4073  -14.0564 O   0  0  0  0  0  0  0  0  0  0  0  0
   -6.4663  -30.6507  -13.4127 C   0  0  1  0  0  0  0  0  0  0  0  0
   -6.7738  -31.8472  -14.0084 O   0  0  0  0  0  0  0  0  0  0  0  0
   -7.0064  -29.6492  -14.3958 C   0  0  1  0  0  0  0  0  0  0  0  0
   -6.2041  -29.5250  -15.5304 O   0  0  0  0  0  0  0  0  0  0  0  0
   -8.3241  -30.2831  -14.7894 C   0  0  2  0  0  0  0  0  0  0  0  0
   -9.2889  -29.8102  -13.8728 O   0  0  0  0  0  0  0  0  0  0  0  0
   -8.0526  -31.7551  -14.5496 C   0  0  1  0  0  0  0  0  0  0  0  0
   -8.0627  -32.5483  -15.8117 C   0  0  0  0  0  0  0  0  0  0  0  0
   -8.1950  -33.9003  -15.5644 O   0  0  0  0  0  0  0  0  0  0  0  0
  1  2  1  0
  1 10  1  0
  1 23  1  1
  2  3  1  0
  2  7  1  1
  3  4  1  0
  3  8  1  6
  5  4  1  0
  4  9  1  1
  5  6  1  0
  5 10  1  1
  6 11  1  6
 15 12  1  1
 13 14  1  1
 15 13  1  0
 16 15  1  0
 17 15  1  0
 21 16  1  6
 17 18  1  6
 19 17  1  0
 19 20  1  1
 21 19  1  0
 22 21  1  0
 22 23  1  6
M  END
$$$$
