
     RDKit          3D

 23 24  0  0  0  0  0  0  0  0999 V2000
   -7.6419  -34.4487  -16.3143 C   0  0  2  0  0  0  0  0  0  0  0  0
   -7.6292  -35.8647  -15.7478 C   0  0  1  0  0  0  0  0  0  0  0  0
   -6.3289  -36.5033  -16.1720 C   0  0  2  0  0  0  0  0  0  0  0  0
   -6.1284  -36.1450  -17.6509 C   0  0  1  0  0  0  0  0  0  0  0  0
   -5.8474  -34.6715  -17.7466 C   0  0  1  0  0  0  0  0  0  0  0  0
   -6.4173  -34.0703  -19.0207 C   0  0  0  0  0  0  0  0  0  0  0  0
   -7.8171  -35.8720  -14.3775 O   0  0  0  0  0  0  0  0  0  0  0  0
   -6.3536  -37.8906  -16.0489 O   0  0  0  0  0  0  0  0  0  0  0  0
   -5.0374  -36.8717  -18.1268 O   0  0  0  0  0  0  0  0  0  0  0  0
   -6.3454  -34.0234  -16.6218 O   0  0  0  0  0  0  0  0  0  0  0  0
   -6.1098  -34.8474  -20.1291 O   0  0  0  0  0  0  0  0  0  0  0  0
   -7.3527  -29.8728  -12.3390 O   0  0  0  0  0  0  0  0  0  0  0  0
   -5.1185  -30.0845  -13.1800 C   0  0  0  0  0  0  0  0  0  0  0  0
   -4.3788  -30.5562  -14.2622 O   0  0  0  0  0  0  0  0  0  0  0  0
   -6.6009  -30.1708  -13.4622 C   0  0  1  0  0  0  0  0  0  0  0  0
   -6.9259  -31.4141  -13.9415 O   0  0  0  0  0  0  0  0  0  0  0  0
   -7.0229  -29.2673  -14.5877 C   0  0  1  0  0  0  0  0  0  0  0  0
   -6.1403  -29.3074  -15.6674 O   0  0  0  0  0  0  0  0  0  0  0  0
   -8.3405  -29.8872  -15.0033 C   0  0  2  0  0  0  0  0  0  0  0  0
   -9.3408  -29.2727  -14.2181 O   0  0  0  0  0  0  0  0  0  0  0  0
   -8.1589  -31.3319  -14.5816 C   0  0  1  0  0  0  0  0  0  0  0  0
   -8.1224  -32.2636  -15.7447 C   0  0  0  0  0  0  0  0  0  0  0  0
   -8.1097  -33.5841  -15.3413 O   0  0  0  0  0  0  0  0  0  0  0  0
  1  2  1  0
  1 10  1  0
  1 23  1  1
  2  3  1  0
  2  7  1  1
  3  4  1  0
  3  8  1  6
  5  4  1  0
  4  9  1  1
  5  6  1  0
  5 10  1  1
  6 11  1  6
 15 12  1  1
 13 14  1  1
 15 13  1  0
 16 15  1  0
 17 15  1  0
 21 16  1  6
 17 18  1  6
 19 17  1  0
 19 20  1  1
 21 19  1  0
 22 21  1  0
 22 23  1  6
M  END
$$$$
