
     RDKit          3D

 23 24  0  0  0  0  0  0  0  0999 V2000
   -7.9737  -34.4140  -14.8873 C   0  0  2  0  0  0  0  0  0  0  0  0
   -7.9566  -33.3293  -13.8230 C   0  0  1  0  0  0  0  0  0  0  0  0
   -6.5542  -32.7612  -13.7937 C   0  0  2  0  0  0  0  0  0  0  0  0
   -5.6331  -33.9316  -13.4894 C   0  0  1  0  0  0  0  0  0  0  0  0
   -5.7699  -34.8597  -14.6735 C   0  0  1  0  0  0  0  0  0  0  0  0
   -4.6708  -35.8800  -14.7387 C   0  0  0  0  0  0  0  0  0  0  0  0
   -8.8495  -32.3424  -14.2201 O   0  0  0  0  0  0  0  0  0  0  0  0
   -6.4043  -31.7190  -12.9133 O   0  0  0  0  0  0  0  0  0  0  0  0
   -4.3289  -33.5297  -13.2707 O   0  0  0  0  0  0  0  0  0  0  0  0
   -7.0336  -35.4095  -14.6182 O   0  0  0  0  0  0  0  0  0  0  0  0
   -5.0917  -37.1133  -15.1808 O   0  0  0  0  0  0  0  0  0  0  0  0
   -6.3923  -33.1204  -21.0219 O   0  0  0  0  0  0  0  0  0  0  0  0
   -5.7297  -35.2638  -20.3478 C   0  0  0  0  0  0  0  0  0  0  0  0
   -4.7131  -35.0127  -19.4050 O   0  0  0  0  0  0  0  0  0  0  0  0
   -6.7589  -34.1711  -20.1615 C   0  0  1  0  0  0  0  0  0  0  0  0
   -6.7109  -33.6985  -18.8807 O   0  0  0  0  0  0  0  0  0  0  0  0
   -8.1447  -34.6075  -20.4974 C   0  0  1  0  0  0  0  0  0  0  0  0
   -8.3530  -35.9694  -20.2878 O   0  0  0  0  0  0  0  0  0  0  0  0
   -8.9661  -33.7875  -19.5224 C   0  0  2  0  0  0  0  0  0  0  0  0
   -9.4439  -32.6154  -20.1042 O   0  0  0  0  0  0  0  0  0  0  0  0
   -7.9934  -33.4878  -18.4043 C   0  0  1  0  0  0  0  0  0  0  0  0
   -8.2847  -34.3490  -17.1954 C   0  0  0  0  0  0  0  0  0  0  0  0
   -7.6946  -33.7926  -16.0907 O   0  0  0  0  0  0  0  0  0  0  0  0
  1  2  1  0
  1 10  1  0
  1 23  1  6
  2  3  1  0
  2  7  1  6
  3  4  1  0
  3  8  1  1
  5  4  1  0
  4  9  1  6
  5  6  1  1
 10  5  1  0
  6 11  1  0
 15 12  1  6
 13 14  1  0
 15 13  1  0
 16 15  1  0
 17 15  1  0
 21 16  1  0
 17 18  1  1
 19 17  1  0
 19 20  1  6
 21 19  1  0
 21 22  1  1
 22 23  1  0
M  END
$$$$
