
     RDKit          3D

 23 24  0  0  0  0  0  0  0  0999 V2000
   -6.9476  -34.2186  -17.3598 C   0  0  2  0  0  0  0  0  0  0  0  0
   -8.0202  -35.2725  -17.5796 C   0  0  1  0  0  0  0  0  0  0  0  0
   -7.6936  -36.4327  -16.6643 C   0  0  2  0  0  0  0  0  0  0  0  0
   -6.2967  -36.8916  -17.0498 C   0  0  1  0  0  0  0  0  0  0  0  0
   -5.3933  -35.7268  -16.7191 C   0  0  1  0  0  0  0  0  0  0  0  0
   -3.9434  -36.1132  -16.6773 C   0  0  0  0  0  0  0  0  0  0  0  0
   -9.2356  -34.7138  -17.2061 O   0  0  0  0  0  0  0  0  0  0  0  0
   -8.6210  -37.4436  -16.7100 O   0  0  0  0  0  0  0  0  0  0  0  0
   -5.9296  -38.0560  -16.4018 O   0  0  0  0  0  0  0  0  0  0  0  0
   -5.6734  -34.7230  -17.6226 O   0  0  0  0  0  0  0  0  0  0  0  0
   -3.2863  -35.6595  -15.5566 O   0  0  0  0  0  0  0  0  0  0  0  0
   -7.7647  -31.0505  -11.6917 O   0  0  0  0  0  0  0  0  0  0  0  0
   -5.5012  -30.8659  -12.2664 C   0  0  0  0  0  0  0  0  0  0  0  0
   -4.6606  -30.7392  -13.3901 O   0  0  0  0  0  0  0  0  0  0  0  0
   -6.9046  -31.0355  -12.8047 C   0  0  1  0  0  0  0  0  0  0  0  0
   -7.0190  -32.2407  -13.4375 O   0  0  0  0  0  0  0  0  0  0  0  0
   -7.3191  -29.9328  -13.7189 C   0  0  1  0  0  0  0  0  0  0  0  0
   -6.2477  -29.3575  -14.3995 O   0  0  0  0  0  0  0  0  0  0  0  0
   -8.2309  -30.6646  -14.6836 C   0  0  2  0  0  0  0  0  0  0  0  0
   -9.5704  -30.5515  -14.3185 O   0  0  0  0  0  0  0  0  0  0  0  0
   -7.7585  -32.0984  -14.5990 C   0  0  1  0  0  0  0  0  0  0  0  0
   -6.9483  -32.4688  -15.8215 C   0  0  0  0  0  0  0  0  0  0  0  0
   -7.0505  -33.8178  -16.0403 O   0  0  0  0  0  0  0  0  0  0  0  0
  1  2  1  0
  1 10  1  0
  1 23  1  1
  2  3  1  0
  2  7  1  1
  3  4  1  0
  3  8  1  6
  5  4  1  0
  4  9  1  1
  5  6  1  6
 10  5  1  0
  6 11  1  0
 15 12  1  1
 13 14  1  0
 15 13  1  0
 16 15  1  0
 17 15  1  0
 21 16  1  0
 17 18  1  6
 19 17  1  0
 19 20  1  1
 21 19  1  0
 21 22  1  6
 22 23  1  0
M  END
$$$$
