
     RDKit          3D

 23 24  0  0  0  0  0  0  0  0999 V2000
   -7.9715  -34.4628  -16.9529 C   0  0  2  0  0  0  0  0  0  0  0  0
   -8.2901  -35.9544  -16.9499 C   0  0  1  0  0  0  0  0  0  0  0  0
   -7.0742  -36.6713  -17.4848 C   0  0  2  0  0  0  0  0  0  0  0  0
   -6.6005  -35.8747  -18.7083 C   0  0  1  0  0  0  0  0  0  0  0  0
   -6.0546  -34.5575  -18.2325 C   0  0  1  0  0  0  0  0  0  0  0  0
   -6.3182  -33.4437  -19.2322 C   0  0  0  0  0  0  0  0  0  0  0  0
   -8.6742  -36.3957  -15.6966 O   0  0  0  0  0  0  0  0  0  0  0  0
   -7.3595  -37.9748  -17.8848 O   0  0  0  0  0  0  0  0  0  0  0  0
   -5.5963  -36.6089  -19.3387 O   0  0  0  0  0  0  0  0  0  0  0  0
   -6.5898  -34.2485  -16.9871 O   0  0  0  0  0  0  0  0  0  0  0  0
   -5.6710  -32.2713  -18.8668 O   0  0  0  0  0  0  0  0  0  0  0  0
   -6.4819  -31.8106  -11.8629 O   0  0  0  0  0  0  0  0  0  0  0  0
   -4.4705  -32.0329  -13.1469 C   0  0  0  0  0  0  0  0  0  0  0  0
   -4.0466  -32.4690  -14.4003 O   0  0  0  0  0  0  0  0  0  0  0  0
   -5.9588  -31.7687  -13.1436 C   0  0  1  0  0  0  0  0  0  0  0  0
   -6.6063  -32.6638  -13.9563 O   0  0  0  0  0  0  0  0  0  0  0  0
   -6.3070  -30.4476  -13.7717 C   0  0  1  0  0  0  0  0  0  0  0  0
   -5.5951  -30.2084  -14.9475 O   0  0  0  0  0  0  0  0  0  0  0  0
   -7.7698  -30.6434  -14.1109 C   0  0  2  0  0  0  0  0  0  0  0  0
   -8.5054  -30.2283  -12.9789 O   0  0  0  0  0  0  0  0  0  0  0  0
   -7.8603  -32.1482  -14.2700 C   0  0  1  0  0  0  0  0  0  0  0  0
   -8.1738  -32.5543  -15.6697 C   0  0  0  0  0  0  0  0  0  0  0  0
   -8.4173  -33.9100  -15.7659 O   0  0  0  0  0  0  0  0  0  0  0  0
  1  2  1  0
  1 10  1  0
  1 23  1  1
  2  3  1  0
  2  7  1  1
  3  4  1  0
  3  8  1  6
  5  4  1  0
  4  9  1  1
  5  6  1  0
  5 10  1  1
  6 11  1  6
 15 12  1  1
 13 14  1  1
 15 13  1  0
 16 15  1  0
 17 15  1  0
 21 16  1  6
 17 18  1  6
 19 17  1  0
 19 20  1  1
 21 19  1  0
 22 21  1  0
 22 23  1  6
M  END
$$$$
