
     RDKit          3D

 23 24  0  0  0  0  0  0  0  0999 V2000
   -7.6670  -34.4447  -17.2954 C   0  0  2  0  0  0  0  0  0  0  0  0
   -8.1325  -35.8738  -17.0707 C   0  0  1  0  0  0  0  0  0  0  0  0
   -7.0070  -36.5992  -16.3651 C   0  0  2  0  0  0  0  0  0  0  0  0
   -5.7969  -36.4861  -17.2781 C   0  0  1  0  0  0  0  0  0  0  0  0
   -5.4806  -35.0100  -17.3333 C   0  0  1  0  0  0  0  0  0  0  0  0
   -4.1088  -34.7323  -17.8756 C   0  0  0  0  0  0  0  0  0  0  0  0
   -9.2451  -35.8238  -16.2410 O   0  0  0  0  0  0  0  0  0  0  0  0
   -7.3122  -37.8970  -16.0388 O   0  0  0  0  0  0  0  0  0  0  0  0
   -4.7317  -37.2467  -16.8339 O   0  0  0  0  0  0  0  0  0  0  0  0
   -6.4921  -34.4017  -18.0469 O   0  0  0  0  0  0  0  0  0  0  0  0
   -4.0160  -34.8858  -19.2400 O   0  0  0  0  0  0  0  0  0  0  0  0
   -6.2768  -30.5680  -12.3272 O   0  0  0  0  0  0  0  0  0  0  0  0
   -5.3052  -29.8665  -14.3401 C   0  0  0  0  0  0  0  0  0  0  0  0
   -4.1764  -30.6560  -14.0438 O   0  0  0  0  0  0  0  0  0  0  0  0
   -6.4899  -30.5715  -13.7177 C   0  0  1  0  0  0  0  0  0  0  0  0
   -6.5282  -31.8730  -14.1311 O   0  0  0  0  0  0  0  0  0  0  0  0
   -7.7898  -29.9009  -14.0075 C   0  0  1  0  0  0  0  0  0  0  0  0
   -7.7920  -29.2188  -15.2227 O   0  0  0  0  0  0  0  0  0  0  0  0
   -8.7367  -31.0835  -14.0596 C   0  0  2  0  0  0  0  0  0  0  0  0
   -9.3798  -31.2872  -12.8409 O   0  0  0  0  0  0  0  0  0  0  0  0
   -7.8331  -32.2458  -14.4040 C   0  0  1  0  0  0  0  0  0  0  0  0
   -8.0042  -32.6468  -15.8524 C   0  0  0  0  0  0  0  0  0  0  0  0
   -7.4655  -33.8923  -16.0438 O   0  0  0  0  0  0  0  0  0  0  0  0
  1  2  1  0
  1 10  1  0
  1 23  1  1
  2  3  1  0
  2  7  1  1
  3  4  1  0
  3  8  1  6
  5  4  1  0
  4  9  1  1
  5  6  1  6
 10  5  1  0
  6 11  1  0
 15 12  1  1
 13 14  1  0
 15 13  1  0
 16 15  1  0
 17 15  1  0
 21 16  1  0
 17 18  1  6
 19 17  1  0
 19 20  1  1
 21 19  1  0
 21 22  1  6
 22 23  1  0
M  END
$$$$
