
     RDKit          3D

 23 24  0  0  0  0  0  0  0  0999 V2000
   -7.6665  -34.5631  -16.4378 C   0  0  2  0  0  0  0  0  0  0  0  0
   -7.7430  -36.0236  -16.0050 C   0  0  1  0  0  0  0  0  0  0  0  0
   -6.4108  -36.6551  -16.3287 C   0  0  2  0  0  0  0  0  0  0  0  0
   -6.0288  -36.1725  -17.7348 C   0  0  1  0  0  0  0  0  0  0  0  0
   -5.7165  -34.7040  -17.6620 C   0  0  1  0  0  0  0  0  0  0  0  0
   -6.1202  -33.9779  -18.9346 C   0  0  0  0  0  0  0  0  0  0  0  0
   -8.0943  -36.1474  -14.6730 O   0  0  0  0  0  0  0  0  0  0  0  0
   -6.4707  -38.0468  -16.3362 O   0  0  0  0  0  0  0  0  0  0  0  0
   -4.8994  -36.8819  -18.1424 O   0  0  0  0  0  0  0  0  0  0  0  0
   -6.3363  -34.1456  -16.5498 O   0  0  0  0  0  0  0  0  0  0  0  0
   -5.7904  -34.7142  -20.0643 O   0  0  0  0  0  0  0  0  0  0  0  0
   -7.3042  -30.4420  -12.0323 O   0  0  0  0  0  0  0  0  0  0  0  0
   -5.0825  -30.5099  -12.9288 C   0  0  0  0  0  0  0  0  0  0  0  0
   -4.3553  -30.8830  -14.0569 O   0  0  0  0  0  0  0  0  0  0  0  0
   -6.5683  -30.5896  -13.1952 C   0  0  1  0  0  0  0  0  0  0  0  0
   -6.8814  -31.7725  -13.8147 O   0  0  0  0  0  0  0  0  0  0  0  0
   -7.0258  -29.5661  -14.1974 C   0  0  1  0  0  0  0  0  0  0  0  0
   -6.1626  -29.4604  -15.2883 O   0  0  0  0  0  0  0  0  0  0  0  0
   -8.3404  -30.1564  -14.6627 C   0  0  2  0  0  0  0  0  0  0  0  0
   -9.3361  -29.6589  -13.7934 O   0  0  0  0  0  0  0  0  0  0  0  0
   -8.1271  -31.6374  -14.4201 C   0  0  1  0  0  0  0  0  0  0  0  0
   -8.0966  -32.4227  -15.6869 C   0  0  0  0  0  0  0  0  0  0  0  0
   -8.2349  -33.7764  -15.4524 O   0  0  0  0  0  0  0  0  0  0  0  0
  1  2  1  0
  1 10  1  0
  1 23  1  1
  2  3  1  0
  2  7  1  1
  3  4  1  0
  3  8  1  6
  5  4  1  0
  4  9  1  1
  5  6  1  0
  5 10  1  1
  6 11  1  6
 15 12  1  1
 13 14  1  1
 15 13  1  0
 16 15  1  0
 17 15  1  0
 21 16  1  6
 17 18  1  6
 19 17  1  0
 19 20  1  1
 21 19  1  0
 22 21  1  0
 22 23  1  6
M  END
$$$$
