
     RDKit          3D

 23 24  0  0  0  0  0  0  0  0999 V2000
   -6.4073  -32.1855  -14.0153 C   0  0  2  0  0  0  0  0  0  0  0  0
   -7.3054  -31.0949  -13.4555 C   0  0  1  0  0  0  0  0  0  0  0  0
   -7.6960  -30.2054  -14.6160 C   0  0  2  0  0  0  0  0  0  0  0  0
   -6.3941  -29.6847  -15.2029 C   0  0  1  0  0  0  0  0  0  0  0  0
   -5.6819  -30.9080  -15.7308 C   0  0  1  0  0  0  0  0  0  0  0  0
   -4.5637  -30.5652  -16.6717 C   0  0  0  0  0  0  0  0  0  0  0  0
   -8.4384  -31.7118  -12.9410 O   0  0  0  0  0  0  0  0  0  0  0  0
   -8.5655  -29.2020  -14.2679 O   0  0  0  0  0  0  0  0  0  0  0  0
   -6.6038  -28.7249  -16.1751 O   0  0  0  0  0  0  0  0  0  0  0  0
   -5.2802  -31.6497  -14.6396 O   0  0  0  0  0  0  0  0  0  0  0  0
   -3.3435  -31.0669  -16.2805 O   0  0  0  0  0  0  0  0  0  0  0  0
   -8.6039  -36.2255  -18.6344 O   0  0  0  0  0  0  0  0  0  0  0  0
   -6.3497  -35.6942  -18.9868 C   0  0  0  0  0  0  0  0  0  0  0  0
   -6.0992  -34.3095  -19.0589 O   0  0  0  0  0  0  0  0  0  0  0  0
   -7.4299  -35.8750  -17.9434 C   0  0  1  0  0  0  0  0  0  0  0  0
   -7.6606  -34.6917  -17.3010 O   0  0  0  0  0  0  0  0  0  0  0  0
   -7.1157  -36.9452  -16.9537 C   0  0  1  0  0  0  0  0  0  0  0  0
   -5.7476  -37.1145  -16.7500 O   0  0  0  0  0  0  0  0  0  0  0  0
   -7.7771  -36.4045  -15.7015 C   0  0  2  0  0  0  0  0  0  0  0  0
   -9.0527  -36.9334  -15.5188 O   0  0  0  0  0  0  0  0  0  0  0  0
   -7.8313  -34.9133  -15.9453 C   0  0  1  0  0  0  0  0  0  0  0  0
   -6.7775  -34.1981  -15.1292 C   0  0  0  0  0  0  0  0  0  0  0  0
   -7.1704  -32.9022  -14.9188 O   0  0  0  0  0  0  0  0  0  0  0  0
  1  2  1  0
  1 10  1  0
  1 23  1  6
  2  3  1  0
  2  7  1  6
  3  4  1  0
  3  8  1  1
  5  4  1  0
  4  9  1  6
  5  6  1  1
 10  5  1  0
  6 11  1  0
 15 12  1  6
 13 14  1  0
 15 13  1  0
 16 15  1  0
 17 15  1  0
 21 16  1  0
 17 18  1  1
 19 17  1  0
 19 20  1  6
 21 19  1  0
 21 22  1  1
 22 23  1  0
M  END
$$$$
