
     RDKit          3D

 23 24  0  0  0  0  0  0  0  0999 V2000
   -8.2322  -32.3480  -14.8568 C   0  0  2  0  0  0  0  0  0  0  0  0
   -8.7790  -31.0053  -15.3305 C   0  0  1  0  0  0  0  0  0  0  0  0
   -7.7577  -29.9547  -14.9679 C   0  0  2  0  0  0  0  0  0  0  0  0
   -7.3030  -30.2639  -13.5349 C   0  0  1  0  0  0  0  0  0  0  0  0
   -6.5075  -31.5390  -13.5560 C   0  0  1  0  0  0  0  0  0  0  0  0
   -6.7016  -32.3459  -12.2829 C   0  0  0  0  0  0  0  0  0  0  0  0
   -9.0867  -31.0223  -16.6789 O   0  0  0  0  0  0  0  0  0  0  0  0
   -8.2870  -28.6665  -14.9994 O   0  0  0  0  0  0  0  0  0  0  0  0
   -6.5027  -29.2081  -13.0990 O   0  0  0  0  0  0  0  0  0  0  0  0
   -6.8463  -32.2866  -14.6783 O   0  0  0  0  0  0  0  0  0  0  0  0
   -6.9307  -31.5209  -11.1902 O   0  0  0  0  0  0  0  0  0  0  0  0
   -6.0648  -35.9918  -19.1414 O   0  0  0  0  0  0  0  0  0  0  0  0
   -4.0876  -35.2572  -18.0033 C   0  0  0  0  0  0  0  0  0  0  0  0
   -3.7031  -34.5094  -16.8926 O   0  0  0  0  0  0  0  0  0  0  0  0
   -5.5408  -35.6613  -17.9038 C   0  0  1  0  0  0  0  0  0  0  0  0
   -6.2774  -34.6614  -17.3219 O   0  0  0  0  0  0  0  0  0  0  0  0
   -5.7514  -36.8125  -16.9596 C   0  0  1  0  0  0  0  0  0  0  0  0
   -5.0192  -36.6793  -15.7795 O   0  0  0  0  0  0  0  0  0  0  0  0
   -7.2267  -36.6856  -16.6428 C   0  0  2  0  0  0  0  0  0  0  0  0
   -7.9150  -37.4406  -17.6179 O   0  0  0  0  0  0  0  0  0  0  0  0
   -7.4717  -35.2053  -16.8589 C   0  0  1  0  0  0  0  0  0  0  0  0
   -7.8261  -34.4972  -15.5958 C   0  0  0  0  0  0  0  0  0  0  0  0
   -8.4513  -33.2914  -15.8443 O   0  0  0  0  0  0  0  0  0  0  0  0
  1  2  1  0
  1 10  1  0
  1 23  1  6
  2  3  1  0
  2  7  1  6
  3  4  1  0
  3  8  1  1
  5  4  1  0
  4  9  1  6
  5  6  1  0
  5 10  1  6
  6 11  1  6
 15 12  1  6
 13 14  1  1
 15 13  1  0
 16 15  1  0
 17 15  1  0
 21 16  1  1
 17 18  1  1
 19 17  1  0
 19 20  1  6
 21 19  1  0
 22 21  1  0
 22 23  1  6
M  END
$$$$
