
     RDKit          3D

 23 24  0  0  0  0  0  0  0  0999 V2000
   -7.2185  -34.4105  -16.4498 C   0  0  2  0  0  0  0  0  0  0  0  0
   -7.8783  -35.7504  -16.1409 C   0  0  1  0  0  0  0  0  0  0  0  0
   -6.9527  -36.8304  -16.6459 C   0  0  2  0  0  0  0  0  0  0  0  0
   -6.4764  -36.3832  -18.0348 C   0  0  1  0  0  0  0  0  0  0  0  0
   -5.5735  -35.1936  -17.8646 C   0  0  1  0  0  0  0  0  0  0  0  0
   -5.7003  -34.2191  -19.0239 C   0  0  0  0  0  0  0  0  0  0  0  0
   -8.1801  -35.8772  -14.7970 O   0  0  0  0  0  0  0  0  0  0  0  0
   -7.5913  -38.0623  -16.7690 O   0  0  0  0  0  0  0  0  0  0  0  0
   -5.7715  -37.4401  -18.6101 O   0  0  0  0  0  0  0  0  0  0  0  0
   -5.8436  -34.5672  -16.6531 O   0  0  0  0  0  0  0  0  0  0  0  0
   -5.7412  -34.8835  -20.2421 O   0  0  0  0  0  0  0  0  0  0  0  0
   -7.4991  -30.1134  -12.0855 O   0  0  0  0  0  0  0  0  0  0  0  0
   -5.2377  -30.0003  -12.8712 C   0  0  0  0  0  0  0  0  0  0  0  0
   -4.4054  -30.6724  -13.7637 O   0  0  0  0  0  0  0  0  0  0  0  0
   -6.6920  -30.2452  -13.2022 C   0  0  1  0  0  0  0  0  0  0  0  0
   -6.8528  -31.4846  -13.7673 O   0  0  0  0  0  0  0  0  0  0  0  0
   -7.1959  -29.3274  -14.2815 C   0  0  1  0  0  0  0  0  0  0  0  0
   -6.2914  -29.1908  -15.3349 O   0  0  0  0  0  0  0  0  0  0  0  0
   -8.4189  -30.0725  -14.7738 C   0  0  2  0  0  0  0  0  0  0  0  0
   -9.5035  -29.6349  -13.9821 O   0  0  0  0  0  0  0  0  0  0  0  0
   -8.0722  -31.5093  -14.4374 C   0  0  1  0  0  0  0  0  0  0  0  0
   -7.8971  -32.3521  -15.6545 C   0  0  0  0  0  0  0  0  0  0  0  0
   -7.3529  -33.5838  -15.3491 O   0  0  0  0  0  0  0  0  0  0  0  0
  1  2  1  0
  1 10  1  0
  1 23  1  1
  2  3  1  0
  2  7  1  1
  3  4  1  0
  3  8  1  6
  5  4  1  0
  4  9  1  1
  5  6  1  0
  5 10  1  1
  6 11  1  6
 15 12  1  1
 13 14  1  1
 15 13  1  0
 16 15  1  0
 17 15  1  0
 21 16  1  6
 17 18  1  6
 19 17  1  0
 19 20  1  1
 21 19  1  0
 22 21  1  0
 22 23  1  6
M  END
$$$$
