
     RDKit          3D

 23 24  0  0  0  0  0  0  0  0999 V2000
   -7.1638  -34.7827  -16.6825 C   0  0  2  0  0  0  0  0  0  0  0  0
   -8.0136  -35.9658  -17.1345 C   0  0  1  0  0  0  0  0  0  0  0  0
   -7.2431  -37.2208  -16.8035 C   0  0  2  0  0  0  0  0  0  0  0  0
   -5.7906  -36.9666  -17.2293 C   0  0  1  0  0  0  0  0  0  0  0  0
   -5.2012  -35.9356  -16.3079 C   0  0  1  0  0  0  0  0  0  0  0  0
   -4.2004  -35.0447  -17.0251 C   0  0  0  0  0  0  0  0  0  0  0  0
   -9.2759  -35.9376  -16.5699 O   0  0  0  0  0  0  0  0  0  0  0  0
   -7.7208  -38.3341  -17.4912 O   0  0  0  0  0  0  0  0  0  0  0  0
   -5.0907  -38.1674  -17.1135 O   0  0  0  0  0  0  0  0  0  0  0  0
   -6.2184  -35.1825  -15.7324 O   0  0  0  0  0  0  0  0  0  0  0  0
   -3.5682  -34.1800  -16.1422 O   0  0  0  0  0  0  0  0  0  0  0  0
   -8.5293  -30.6500  -12.4110 O   0  0  0  0  0  0  0  0  0  0  0  0
   -6.2328  -31.1282  -11.9199 C   0  0  0  0  0  0  0  0  0  0  0  0
   -5.0657  -31.6472  -12.4762 O   0  0  0  0  0  0  0  0  0  0  0  0
   -7.3038  -30.9617  -12.9735 C   0  0  1  0  0  0  0  0  0  0  0  0
   -7.4016  -32.0944  -13.7406 O   0  0  0  0  0  0  0  0  0  0  0  0
   -6.9495  -29.9105  -13.9887 C   0  0  1  0  0  0  0  0  0  0  0  0
   -5.6200  -29.9920  -14.4037 O   0  0  0  0  0  0  0  0  0  0  0  0
   -7.8521  -30.2830  -15.1462 C   0  0  2  0  0  0  0  0  0  0  0  0
   -9.0681  -29.5925  -14.9477 O   0  0  0  0  0  0  0  0  0  0  0  0
   -8.0531  -31.7693  -14.9266 C   0  0  1  0  0  0  0  0  0  0  0  0
   -7.4452  -32.5918  -16.0112 C   0  0  0  0  0  0  0  0  0  0  0  0
   -7.9808  -33.8638  -16.0491 O   0  0  0  0  0  0  0  0  0  0  0  0
  1  2  1  0
  1 10  1  0
  1 23  1  1
  2  3  1  0
  2  7  1  1
  3  4  1  0
  3  8  1  6
  5  4  1  0
  4  9  1  1
  5  6  1  0
  5 10  1  6
  6 11  1  6
 15 12  1  1
 13 14  1  1
 15 13  1  0
 16 15  1  0
 17 15  1  0
 21 16  1  1
 17 18  1  6
 19 17  1  0
 19 20  1  1
 21 19  1  0
 22 21  1  0
 22 23  1  6
M  END
$$$$
