
     RDKit          3D

 23 24  0  0  0  0  0  0  0  0999 V2000
   -6.6483  -33.5174  -17.6834 C   0  0  2  0  0  0  0  0  0  0  0  0
   -7.6747  -34.3988  -18.3755 C   0  0  1  0  0  0  0  0  0  0  0  0
   -7.6473  -35.7410  -17.6767 C   0  0  2  0  0  0  0  0  0  0  0  0
   -6.2204  -36.2501  -17.8010 C   0  0  1  0  0  0  0  0  0  0  0  0
   -5.3807  -35.2656  -17.0214 C   0  0  1  0  0  0  0  0  0  0  0  0
   -4.0093  -35.7921  -16.7128 C   0  0  0  0  0  0  0  0  0  0  0  0
   -8.9188  -33.8077  -18.1974 O   0  0  0  0  0  0  0  0  0  0  0  0
   -8.5764  -36.6284  -18.1597 O   0  0  0  0  0  0  0  0  0  0  0  0
   -6.0853  -37.5484  -17.3464 O   0  0  0  0  0  0  0  0  0  0  0  0
   -5.3735  -34.0829  -17.7309 O   0  0  0  0  0  0  0  0  0  0  0  0
   -3.1000  -34.8072  -16.4018 O   0  0  0  0  0  0  0  0  0  0  0  0
   -7.9810  -31.5681  -11.5549 O   0  0  0  0  0  0  0  0  0  0  0  0
   -5.6552  -31.5812  -11.8343 C   0  0  0  0  0  0  0  0  0  0  0  0
   -4.7625  -32.1155  -12.7846 O   0  0  0  0  0  0  0  0  0  0  0  0
   -6.9852  -31.4336  -12.5393 C   0  0  1  0  0  0  0  0  0  0  0  0
   -7.1500  -32.4462  -13.4413 O   0  0  0  0  0  0  0  0  0  0  0  0
   -7.1486  -30.1131  -13.2125 C   0  0  1  0  0  0  0  0  0  0  0  0
   -5.9389  -29.5597  -13.6276 O   0  0  0  0  0  0  0  0  0  0  0  0
   -8.0016  -30.4855  -14.4089 C   0  0  2  0  0  0  0  0  0  0  0  0
   -9.3563  -30.2682  -14.1680 O   0  0  0  0  0  0  0  0  0  0  0  0
   -7.7089  -31.9554  -14.6088 C   0  0  1  0  0  0  0  0  0  0  0  0
   -6.7913  -32.1629  -15.7932 C   0  0  0  0  0  0  0  0  0  0  0  0
   -7.0688  -33.3727  -16.3741 O   0  0  0  0  0  0  0  0  0  0  0  0
  1  2  1  0
  1 10  1  0
  1 23  1  1
  2  3  1  0
  2  7  1  1
  3  4  1  0
  3  8  1  6
  5  4  1  0
  4  9  1  1
  5  6  1  6
 10  5  1  0
  6 11  1  0
 15 12  1  1
 13 14  1  0
 15 13  1  0
 16 15  1  0
 17 15  1  0
 21 16  1  0
 17 18  1  6
 19 17  1  0
 19 20  1  1
 21 19  1  0
 21 22  1  6
 22 23  1  0
M  END
$$$$
