
     RDKit          3D

 23 25  0  0  0  0  0  0  0  0999 V2000
   27.6807    4.0802    8.4678 O   0  0  0  0  0  0  0  0  0  0  0  0
   27.1482    4.4005    9.5909 C   0  0  0  0  0  0  0  0  0  0  0  0
   26.8849    3.2622   10.4912 C   0  0  0  0  0  0  0  0  0  0  0  0
   27.2739    1.9389    9.8511 C   0  0  0  0  0  0  0  0  0  0  0  0
   26.8899    5.7550    9.8151 N   0  0  0  0  0  0  0  0  0  0  0  0
   26.9569    6.6929    8.6966 C   0  0  0  0  0  0  0  0  0  0  0  0
   25.6360    6.8315    8.0232 C   0  0  0  0  0  0  0  0  0  0  0  0
   25.2922    6.1924    6.9404 O   0  0  0  0  0  0  0  0  0  0  0  0
   24.0695    6.5189    6.5852 N   0  0  0  0  0  0  0  0  0  0  0  0
   23.5510    7.4019    7.4373 C   0  0  0  0  0  0  0  0  0  0  0  0
   22.2196    8.0693    7.4760 C   0  0  0  0  0  0  0  0  0  0  0  0
   24.5598    7.6190    8.3835 C   0  0  0  0  0  0  0  0  0  0  0  0
   26.5556    6.2919   11.0924 C   0  0  0  0  0  0  0  0  0  0  0  0
   27.3427    7.5874   11.9286 S   0  0  0  0  0  0  0  0  0  0  0  0
   26.3616    7.6186   13.3255 C   0  0  0  0  0  0  0  0  0  0  0  0
   25.4659    6.6073   13.0595 C   0  0  0  0  0  0  0  0  0  0  0  0
   25.6041    5.9783   11.9376 N   0  0  0  0  0  0  0  0  0  0  0  0
   24.3866    6.2505   14.0219 C   0  0  0  0  0  0  0  0  0  0  0  0
   24.4807    6.5759   15.3520 C   0  0  0  0  0  0  0  0  0  0  0  0
   23.4911    6.2505   16.2595 C   0  0  0  0  0  0  0  0  0  0  0  0
   22.3648    5.5812   15.8549 C   0  0  0  0  0  0  0  0  0  0  0  0
   22.2449    5.2387   14.5055 C   0  0  0  0  0  0  0  0  0  0  0  0
   23.2482    5.5782   13.6291 C   0  0  0  0  0  0  0  0  0  0  0  0
  1  2  2  0
  2  3  1  0
  2  5  1  0
  3  4  1  0
  5  6  1  0
  5 13  1  0
  6  7  1  0
  7  8  1  0
  7 12  2  0
  8  9  1  0
  9 10  2  0
 10 11  1  0
 10 12  1  0
 13 14  1  0
 13 17  2  0
 14 15  1  0
 15 16  2  0
 16 17  1  0
 16 18  1  0
 18 19  2  0
 18 23  1  0
 19 20  1  0
 20 21  2  0
 21 22  1  0
 22 23  2  0
M  END
$$$$
