
     RDKit          3D

 23 25  0  0  0  0  0  0  0  0999 V2000
   24.4554    4.3832    8.8869 O   0  0  0  0  0  0  0  0  0  0  0  0
   24.0925    4.6183   10.0955 C   0  0  0  0  0  0  0  0  0  0  0  0
   22.9375    3.8239   10.5543 C   0  0  0  0  0  0  0  0  0  0  0  0
   22.2947    3.0559    9.4101 C   0  0  0  0  0  0  0  0  0  0  0  0
   24.8189    5.5751   10.8086 N   0  0  0  0  0  0  0  0  0  0  0  0
   26.1073    6.0303   10.2908 C   0  0  0  0  0  0  0  0  0  0  0  0
   27.2342    5.2532   10.8770 C   0  0  0  0  0  0  0  0  0  0  0  0
   27.5911    4.0636   10.4812 O   0  0  0  0  0  0  0  0  0  0  0  0
   28.6158    3.6357   11.1847 N   0  0  0  0  0  0  0  0  0  0  0  0
   28.9804    4.5449   12.0875 C   0  0  0  0  0  0  0  0  0  0  0  0
   30.0675    4.5412   13.1060 C   0  0  0  0  0  0  0  0  0  0  0  0
   28.0891    5.6085   11.9022 C   0  0  0  0  0  0  0  0  0  0  0  0
   24.3730    6.1497   12.0343 C   0  0  0  0  0  0  0  0  0  0  0  0
   23.4677    7.6104   12.2445 S   0  0  0  0  0  0  0  0  0  0  0  0
   23.3349    7.5819   13.9463 C   0  0  0  0  0  0  0  0  0  0  0  0
   24.0105    6.4236   14.2592 C   0  0  0  0  0  0  0  0  0  0  0  0
   24.5079    5.7478   13.2746 N   0  0  0  0  0  0  0  0  0  0  0  0
   24.1648    5.9694   15.6692 C   0  0  0  0  0  0  0  0  0  0  0  0
   24.7345    4.7574   15.9700 C   0  0  0  0  0  0  0  0  0  0  0  0
   24.8830    4.3184   17.2714 C   0  0  0  0  0  0  0  0  0  0  0  0
   24.4594    5.0912   18.3220 C   0  0  0  0  0  0  0  0  0  0  0  0
   23.8761    6.3297   18.0422 C   0  0  0  0  0  0  0  0  0  0  0  0
   23.7440    6.7361   16.7356 C   0  0  0  0  0  0  0  0  0  0  0  0
  1  2  2  0
  2  3  1  0
  2  5  1  0
  3  4  1  0
  5  6  1  0
  5 13  1  0
  6  7  1  0
  7  8  1  0
  7 12  2  0
  8  9  1  0
  9 10  2  0
 10 11  1  0
 10 12  1  0
 13 14  1  0
 13 17  2  0
 14 15  1  0
 15 16  2  0
 16 17  1  0
 16 18  1  0
 18 19  2  0
 18 23  1  0
 19 20  1  0
 20 21  2  0
 21 22  1  0
 22 23  2  0
M  END
$$$$
