
     RDKit          3D

 23 25  0  0  0  0  0  0  0  0999 V2000
   27.5053    3.2634    6.7834 O   0  0  0  0  0  0  0  0  0  0  0  0
   27.1997    4.0185    7.7408 C   0  0  0  0  0  0  0  0  0  0  0  0
   27.2649    3.4862    9.1049 C   0  0  0  0  0  0  0  0  0  0  0  0
   28.1516    2.2399    9.1594 C   0  0  0  0  0  0  0  0  0  0  0  0
   26.7939    5.3741    7.5096 N   0  0  0  0  0  0  0  0  0  0  0  0
   26.7972    5.9792    6.2062 C   0  0  0  0  0  0  0  0  0  0  0  0
   28.0848    6.6762    5.9878 C   0  0  0  0  0  0  0  0  0  0  0  0
   29.3005    6.2096    6.0606 O   0  0  0  0  0  0  0  0  0  0  0  0
   30.1825    7.1266    5.8020 N   0  0  0  0  0  0  0  0  0  0  0  0
   29.5609    8.2887    5.5357 C   0  0  0  0  0  0  0  0  0  0  0  0
   30.1366    9.6106    5.1874 C   0  0  0  0  0  0  0  0  0  0  0  0
   28.2200    8.0256    5.6483 C   0  0  0  0  0  0  0  0  0  0  0  0
   26.3541    6.1638    8.6710 C   0  0  0  0  0  0  0  0  0  0  0  0
   26.4933    8.0646    8.5014 S   0  0  0  0  0  0  0  0  0  0  0  0
   25.8249    8.2490   10.1728 C   0  0  0  0  0  0  0  0  0  0  0  0
   25.6026    6.9997   10.6079 C   0  0  0  0  0  0  0  0  0  0  0  0
   25.9289    6.0714    9.7151 N   0  0  0  0  0  0  0  0  0  0  0  0
   25.0509    6.6966   11.9454 C   0  0  0  0  0  0  0  0  0  0  0  0
   24.8221    7.6503   12.9084 C   0  0  0  0  0  0  0  0  0  0  0  0
   24.3090    7.3638   14.1501 C   0  0  0  0  0  0  0  0  0  0  0  0
   24.0034    6.0601   14.4613 C   0  0  0  0  0  0  0  0  0  0  0  0
   24.2117    5.0560   13.5329 C   0  0  0  0  0  0  0  0  0  0  0  0
   24.7287    5.4055   12.3048 C   0  0  0  0  0  0  0  0  0  0  0  0
  1  2  2  0
  3  2  1  1
  2  5  1  0
  4  3  1  6
  6  5  1  1
  5 13  1  0
  6  7  1  0
  7  8  1  0
  7 12  2  0
  8  9  1  0
  9 10  2  0
 11 10  1  6
 10 12  1  0
 13 14  1  0
 13 17  2  0
 14 15  1  0
 15 16  2  0
 16 17  1  0
 16 18  1  0
 18 19  2  0
 18 23  1  0
 19 20  1  0
 20 21  2  0
 21 22  1  0
 22 23  2  0
M  END
$$$$
