
     RDKit          3D

 23 25  0  0  0  0  0  0  0  0999 V2000
   23.0393    5.7053    9.2669 O   0  0  0  0  0  0  0  0  0  0  0  0
   23.2564    5.9350   10.4836 C   0  0  0  0  0  0  0  0  0  0  0  0
   22.2309    5.5647   11.4632 C   0  0  0  0  0  0  0  0  0  0  0  0
   20.8737    5.3733   10.7822 C   0  0  0  0  0  0  0  0  0  0  0  0
   24.4805    6.5473   10.9109 N   0  0  0  0  0  0  0  0  0  0  0  0
   25.5610    6.8447   10.0113 C   0  0  0  0  0  0  0  0  0  0  0  0
   26.6140    5.8129   10.1450 C   0  0  0  0  0  0  0  0  0  0  0  0
   26.5627    4.5387    9.8718 O   0  0  0  0  0  0  0  0  0  0  0  0
   27.6927    3.9492   10.1196 N   0  0  0  0  0  0  0  0  0  0  0  0
   28.5774    4.8471   10.5873 C   0  0  0  0  0  0  0  0  0  0  0  0
   29.9875    4.6554   11.0059 C   0  0  0  0  0  0  0  0  0  0  0  0
   27.9110    6.0451   10.6124 C   0  0  0  0  0  0  0  0  0  0  0  0
   24.6159    6.8821   12.3376 C   0  0  0  0  0  0  0  0  0  0  0  0
   26.0980    7.9979   12.8061 S   0  0  0  0  0  0  0  0  0  0  0  0
   25.5837    7.9298   14.5396 C   0  0  0  0  0  0  0  0  0  0  0  0
   24.4835    7.1626   14.5554 C   0  0  0  0  0  0  0  0  0  0  0  0
   24.1400    6.7196   13.3508 N   0  0  0  0  0  0  0  0  0  0  0  0
   23.7361    6.8478   15.7913 C   0  0  0  0  0  0  0  0  0  0  0  0
   24.3010    6.8523   17.0444 C   0  0  0  0  0  0  0  0  0  0  0  0
   23.6024    6.5590   18.1903 C   0  0  0  0  0  0  0  0  0  0  0  0
   22.2680    6.2426   18.0957 C   0  0  0  0  0  0  0  0  0  0  0  0
   21.6437    6.2215   16.8615 C   0  0  0  0  0  0  0  0  0  0  0  0
   22.3969    6.5246   15.7486 C   0  0  0  0  0  0  0  0  0  0  0  0
  1  2  2  0
  3  2  1  1
  2  5  1  0
  4  3  1  6
  6  5  1  1
  5 13  1  0
  6  7  1  0
  7  8  1  0
  7 12  2  0
  8  9  1  0
  9 10  2  0
 11 10  1  6
 10 12  1  0
 13 14  1  0
 13 17  2  0
 14 15  1  0
 15 16  2  0
 16 17  1  0
 16 18  1  0
 18 19  2  0
 18 23  1  0
 19 20  1  0
 20 21  2  0
 21 22  1  0
 22 23  2  0
M  END
$$$$
