
     RDKit          3D

 23 25  0  0  0  0  0  0  0  0999 V2000
   27.4659    4.3893    9.3806 O   0  0  0  0  0  0  0  0  0  0  0  0
   26.7963    4.6126   10.4527 C   0  0  0  0  0  0  0  0  0  0  0  0
   27.2394    3.8351   11.6252 C   0  0  0  0  0  0  0  0  0  0  0  0
   28.4259    2.9445   11.2921 C   0  0  0  0  0  0  0  0  0  0  0  0
   25.7555    5.5414   10.3770 N   0  0  0  0  0  0  0  0  0  0  0  0
   25.6153    6.3658    9.1786 C   0  0  0  0  0  0  0  0  0  0  0  0
   26.2936    7.6814    9.3412 C   0  0  0  0  0  0  0  0  0  0  0  0
   27.5852    7.8376    9.4212 O   0  0  0  0  0  0  0  0  0  0  0  0
   27.8844    9.1101    9.5598 N   0  0  0  0  0  0  0  0  0  0  0  0
   26.7801    9.8550    9.5758 C   0  0  0  0  0  0  0  0  0  0  0  0
   26.5858   11.3263    9.7054 C   0  0  0  0  0  0  0  0  0  0  0  0
   25.7304    8.9393    9.4348 C   0  0  0  0  0  0  0  0  0  0  0  0
   24.7996    5.7392   11.4156 C   0  0  0  0  0  0  0  0  0  0  0  0
   23.1125    6.0863   11.2415 S   0  0  0  0  0  0  0  0  0  0  0  0
   22.6981    6.1588   12.8961 C   0  0  0  0  0  0  0  0  0  0  0  0
   23.9102    5.9057   13.4983 C   0  0  0  0  0  0  0  0  0  0  0  0
   24.9236    5.7041   12.7200 N   0  0  0  0  0  0  0  0  0  0  0  0
   24.0500    5.8683   14.9807 C   0  0  0  0  0  0  0  0  0  0  0  0
   25.1939    5.4006   15.5777 C   0  0  0  0  0  0  0  0  0  0  0  0
   25.3401    5.3557   16.9508 C   0  0  0  0  0  0  0  0  0  0  0  0
   24.3313    5.7836   17.7751 C   0  0  0  0  0  0  0  0  0  0  0  0
   23.1562    6.2647   17.1917 C   0  0  0  0  0  0  0  0  0  0  0  0
   23.0441    6.2959   15.8219 C   0  0  0  0  0  0  0  0  0  0  0  0
  1  2  2  0
  2  3  1  0
  2  5  1  0
  3  4  1  0
  5  6  1  0
  5 13  1  0
  6  7  1  0
  7  8  1  0
  7 12  2  0
  8  9  1  0
  9 10  2  0
 10 11  1  0
 10 12  1  0
 13 14  1  0
 13 17  2  0
 14 15  1  0
 15 16  2  0
 16 17  1  0
 16 18  1  0
 18 19  2  0
 18 23  1  0
 19 20  1  0
 20 21  2  0
 21 22  1  0
 22 23  2  0
M  END
$$$$
