
     RDKit          3D

 23 25  0  0  0  0  0  0  0  0999 V2000
   28.5030    3.0314    8.0954 O   0  0  0  0  0  0  0  0  0  0  0  0
   27.6661    3.6544    8.8431 C   0  0  0  0  0  0  0  0  0  0  0  0
   27.0359    2.8212    9.8844 C   0  0  0  0  0  0  0  0  0  0  0  0
   27.5651    1.3960    9.8590 C   0  0  0  0  0  0  0  0  0  0  0  0
   27.4607    5.0116    8.5833 N   0  0  0  0  0  0  0  0  0  0  0  0
   28.1925    5.6521    7.4926 C   0  0  0  0  0  0  0  0  0  0  0  0
   28.2039    7.1336    7.6417 C   0  0  0  0  0  0  0  0  0  0  0  0
   27.3350    7.9346    7.0917 O   0  0  0  0  0  0  0  0  0  0  0  0
   27.6020    9.1832    7.4040 N   0  0  0  0  0  0  0  0  0  0  0  0
   28.6772    9.2537    8.1873 C   0  0  0  0  0  0  0  0  0  0  0  0
   29.3721   10.4180    8.8044 C   0  0  0  0  0  0  0  0  0  0  0  0
   29.0849    7.9247    8.3533 C   0  0  0  0  0  0  0  0  0  0  0  0
   26.5618    5.8288    9.3287 C   0  0  0  0  0  0  0  0  0  0  0  0
   25.7092    7.2308    8.7767 S   0  0  0  0  0  0  0  0  0  0  0  0
   24.8699    7.5987   10.2170 C   0  0  0  0  0  0  0  0  0  0  0  0
   25.3052    6.5980   11.0566 C   0  0  0  0  0  0  0  0  0  0  0  0
   26.1452    5.7438   10.5685 N   0  0  0  0  0  0  0  0  0  0  0  0
   24.8326    6.5040   12.4660 C   0  0  0  0  0  0  0  0  0  0  0  0
   25.5892    5.8900   13.4326 C   0  0  0  0  0  0  0  0  0  0  0  0
   25.1657    5.7908   14.7439 C   0  0  0  0  0  0  0  0  0  0  0  0
   23.9565    6.3105   15.1287 C   0  0  0  0  0  0  0  0  0  0  0  0
   23.1674    6.9410   14.1632 C   0  0  0  0  0  0  0  0  0  0  0  0
   23.6193    7.0226   12.8674 C   0  0  0  0  0  0  0  0  0  0  0  0
  1  2  2  0
  2  3  1  0
  2  5  1  0
  3  4  1  0
  5  6  1  0
  5 13  1  0
  6  7  1  0
  7  8  1  0
  7 12  2  0
  8  9  1  0
  9 10  2  0
 10 11  1  0
 10 12  1  0
 13 14  1  0
 13 17  2  0
 14 15  1  0
 15 16  2  0
 16 17  1  0
 16 18  1  0
 18 19  2  0
 18 23  1  0
 19 20  1  0
 20 21  2  0
 21 22  1  0
 22 23  2  0
M  END
$$$$
