
     RDKit          3D

 23 25  0  0  0  0  0  0  0  0999 V2000
   23.0275    5.9272    8.9113 O   0  0  0  0  0  0  0  0  0  0  0  0
   23.0516    6.4588   10.0794 C   0  0  0  0  0  0  0  0  0  0  0  0
   22.0559    7.5269   10.2875 C   0  0  0  0  0  0  0  0  0  0  0  0
   21.1858    7.7303    9.0571 C   0  0  0  0  0  0  0  0  0  0  0  0
   23.9960    5.9717   10.9863 N   0  0  0  0  0  0  0  0  0  0  0  0
   24.8392    4.8405   10.6058 C   0  0  0  0  0  0  0  0  0  0  0  0
   26.1740    4.9125   11.2619 C   0  0  0  0  0  0  0  0  0  0  0  0
   26.4486    4.3988   12.4281 O   0  0  0  0  0  0  0  0  0  0  0  0
   27.7056    4.6216   12.7415 N   0  0  0  0  0  0  0  0  0  0  0  0
   28.3189    5.3028   11.7749 C   0  0  0  0  0  0  0  0  0  0  0  0
   29.7211    5.7903   11.6502 C   0  0  0  0  0  0  0  0  0  0  0  0
   27.3344    5.5027   10.7999 C   0  0  0  0  0  0  0  0  0  0  0  0
   24.1956    6.5208   12.2863 C   0  0  0  0  0  0  0  0  0  0  0  0
   24.8746    8.0625   12.6852 S   0  0  0  0  0  0  0  0  0  0  0  0
   24.7510    7.9603   14.3848 C   0  0  0  0  0  0  0  0  0  0  0  0
   24.1814    6.7174   14.5485 C   0  0  0  0  0  0  0  0  0  0  0  0
   23.9248    6.0415   13.4758 N   0  0  0  0  0  0  0  0  0  0  0  0
   23.8764    6.1731   15.9010 C   0  0  0  0  0  0  0  0  0  0  0  0
   24.1903    6.8731   17.0391 C   0  0  0  0  0  0  0  0  0  0  0  0
   23.9178    6.3828   18.3016 C   0  0  0  0  0  0  0  0  0  0  0  0
   23.3153    5.1614   18.4616 C   0  0  0  0  0  0  0  0  0  0  0  0
   22.9853    4.4291   17.3182 C   0  0  0  0  0  0  0  0  0  0  0  0
   23.2703    4.9468   16.0770 C   0  0  0  0  0  0  0  0  0  0  0  0
  1  2  2  0
  2  3  1  0
  2  5  1  0
  3  4  1  0
  5  6  1  0
  5 13  1  0
  6  7  1  0
  7  8  1  0
  7 12  2  0
  8  9  1  0
  9 10  2  0
 10 11  1  0
 10 12  1  0
 13 14  1  0
 13 17  2  0
 14 15  1  0
 15 16  2  0
 16 17  1  0
 16 18  1  0
 18 19  2  0
 18 23  1  0
 19 20  1  0
 20 21  2  0
 21 22  1  0
 22 23  2  0
M  END
$$$$
