
     RDKit          3D

 23 25  0  0  0  0  0  0  0  0999 V2000
   28.1131    4.2222    9.5829 O   0  0  0  0  0  0  0  0  0  0  0  0
   27.2595    4.5582   10.4807 C   0  0  0  0  0  0  0  0  0  0  0  0
   27.6120    4.1374   11.8497 C   0  0  0  0  0  0  0  0  0  0  0  0
   29.0052    3.5311   11.9091 C   0  0  0  0  0  0  0  0  0  0  0  0
   26.1294    5.2631   10.0593 N   0  0  0  0  0  0  0  0  0  0  0  0
   25.9877    5.6140    8.6479 C   0  0  0  0  0  0  0  0  0  0  0  0
   25.1768    4.6028    7.9149 C   0  0  0  0  0  0  0  0  0  0  0  0
   25.5045    3.3472    7.7911 O   0  0  0  0  0  0  0  0  0  0  0  0
   24.5948    2.7036    7.0938 N   0  0  0  0  0  0  0  0  0  0  0  0
   23.6141    3.5263    6.7253 C   0  0  0  0  0  0  0  0  0  0  0  0
   22.3716    3.2881    5.9385 C   0  0  0  0  0  0  0  0  0  0  0  0
   23.9767    4.7718    7.2519 C   0  0  0  0  0  0  0  0  0  0  0  0
   25.0819    5.6688   10.9366 C   0  0  0  0  0  0  0  0  0  0  0  0
   23.4788    6.1603   10.5058 S   0  0  0  0  0  0  0  0  0  0  0  0
   22.8757    6.4566   12.0752 C   0  0  0  0  0  0  0  0  0  0  0  0
   23.9687    6.1528   12.8557 C   0  0  0  0  0  0  0  0  0  0  0  0
   25.0405    5.7665   12.2431 N   0  0  0  0  0  0  0  0  0  0  0  0
   23.9208    6.2664   14.3400 C   0  0  0  0  0  0  0  0  0  0  0  0
   24.9780    5.8699   15.1203 C   0  0  0  0  0  0  0  0  0  0  0  0
   24.9502    5.9650   16.4982 C   0  0  0  0  0  0  0  0  0  0  0  0
   23.8480    6.4665   17.1418 C   0  0  0  0  0  0  0  0  0  0  0  0
   22.7582    6.8774   16.3697 C   0  0  0  0  0  0  0  0  0  0  0  0
   22.8194    6.7693   15.0006 C   0  0  0  0  0  0  0  0  0  0  0  0
  1  2  2  0
  2  3  1  0
  2  5  1  0
  3  4  1  0
  5  6  1  0
  5 13  1  0
  6  7  1  0
  7  8  1  0
  7 12  2  0
  8  9  1  0
  9 10  2  0
 10 11  1  0
 10 12  1  0
 13 14  1  0
 13 17  2  0
 14 15  1  0
 15 16  2  0
 16 17  1  0
 16 18  1  0
 18 19  2  0
 18 23  1  0
 19 20  1  0
 20 21  2  0
 21 22  1  0
 22 23  2  0
M  END
$$$$
