
     RDKit          3D

 23 25  0  0  0  0  0  0  0  0999 V2000
   24.3650    4.6185    9.5898 O   0  0  0  0  0  0  0  0  0  0  0  0
   24.2032    5.3967   10.5636 C   0  0  0  0  0  0  0  0  0  0  0  0
   22.8771    5.9808   10.7845 C   0  0  0  0  0  0  0  0  0  0  0  0
   21.9213    5.6014    9.6510 C   0  0  0  0  0  0  0  0  0  0  0  0
   25.2903    5.7113   11.4439 N   0  0  0  0  0  0  0  0  0  0  0  0
   26.6552    5.3675   11.1540 C   0  0  0  0  0  0  0  0  0  0  0  0
   27.3607    6.5534   10.6179 C   0  0  0  0  0  0  0  0  0  0  0  0
   27.7620    7.6277   11.2390 O   0  0  0  0  0  0  0  0  0  0  0  0
   28.3487    8.4577   10.4313 N   0  0  0  0  0  0  0  0  0  0  0  0
   28.3609    7.9457    9.1881 C   0  0  0  0  0  0  0  0  0  0  0  0
   28.9141    8.5166    7.9358 C   0  0  0  0  0  0  0  0  0  0  0  0
   27.7351    6.7294    9.2825 C   0  0  0  0  0  0  0  0  0  0  0  0
   24.9747    6.4215   12.6937 C   0  0  0  0  0  0  0  0  0  0  0  0
   25.2003    8.3214   12.6654 S   0  0  0  0  0  0  0  0  0  0  0  0
   24.6611    8.3974   14.3910 C   0  0  0  0  0  0  0  0  0  0  0  0
   24.4052    7.1280   14.7411 C   0  0  0  0  0  0  0  0  0  0  0  0
   24.6194    6.2627   13.7557 N   0  0  0  0  0  0  0  0  0  0  0  0
   23.9335    6.7410   16.0874 C   0  0  0  0  0  0  0  0  0  0  0  0
   23.3311    5.5373   16.3660 C   0  0  0  0  0  0  0  0  0  0  0  0
   22.8943    5.1819   17.6190 C   0  0  0  0  0  0  0  0  0  0  0  0
   23.0611    6.0650   18.6592 C   0  0  0  0  0  0  0  0  0  0  0  0
   23.6608    7.2922   18.4407 C   0  0  0  0  0  0  0  0  0  0  0  0
   24.0780    7.5916   17.1624 C   0  0  0  0  0  0  0  0  0  0  0  0
  1  2  2  0
  3  2  1  1
  2  5  1  0
  4  3  1  6
  6  5  1  1
  5 13  1  0
  6  7  1  0
  7  8  1  0
  7 12  2  0
  8  9  1  0
  9 10  2  0
 11 10  1  6
 10 12  1  0
 13 14  1  0
 13 17  2  0
 14 15  1  0
 15 16  2  0
 16 17  1  0
 16 18  1  0
 18 19  2  0
 18 23  1  0
 19 20  1  0
 20 21  2  0
 21 22  1  0
 22 23  2  0
M  END
$$$$
