
     RDKit          3D

 23 25  0  0  0  0  0  0  0  0999 V2000
   28.4261    3.1951    7.4709 O   0  0  0  0  0  0  0  0  0  0  0  0
   27.8226    3.8190    8.3801 C   0  0  0  0  0  0  0  0  0  0  0  0
   27.0139    3.0587    9.3375 C   0  0  0  0  0  0  0  0  0  0  0  0
   27.1697    1.5540    9.1052 C   0  0  0  0  0  0  0  0  0  0  0  0
   27.9187    5.2458    8.4835 N   0  0  0  0  0  0  0  0  0  0  0  0
   28.5323    6.0629    7.4732 C   0  0  0  0  0  0  0  0  0  0  0  0
   27.4818    6.7106    6.6557 C   0  0  0  0  0  0  0  0  0  0  0  0
   26.5726    6.1664    5.8953 O   0  0  0  0  0  0  0  0  0  0  0  0
   25.8207    7.0618    5.3309 N   0  0  0  0  0  0  0  0  0  0  0  0
   26.2176    8.2891    5.7104 C   0  0  0  0  0  0  0  0  0  0  0  0
   25.6735    9.6170    5.3348 C   0  0  0  0  0  0  0  0  0  0  0  0
   27.2775    8.0901    6.5570 C   0  0  0  0  0  0  0  0  0  0  0  0
   27.3546    5.8839    9.6838 C   0  0  0  0  0  0  0  0  0  0  0  0
   28.4907    7.1268   10.5924 S   0  0  0  0  0  0  0  0  0  0  0  0
   27.1813    7.4143   11.8077 C   0  0  0  0  0  0  0  0  0  0  0  0
   26.1623    6.6294   11.4267 C   0  0  0  0  0  0  0  0  0  0  0  0
   26.4281    5.9259   10.3313 N   0  0  0  0  0  0  0  0  0  0  0  0
   24.8789    6.5609   12.1569 C   0  0  0  0  0  0  0  0  0  0  0  0
   23.7383    5.9943   11.6397 C   0  0  0  0  0  0  0  0  0  0  0  0
   22.5476    5.9329   12.3221 C   0  0  0  0  0  0  0  0  0  0  0  0
   22.4768    6.4610   13.5894 C   0  0  0  0  0  0  0  0  0  0  0  0
   23.5919    7.0445   14.1633 C   0  0  0  0  0  0  0  0  0  0  0  0
   24.7574    7.0761   13.4296 C   0  0  0  0  0  0  0  0  0  0  0  0
  1  2  2  0
  3  2  1  1
  2  5  1  0
  4  3  1  6
  6  5  1  1
  5 13  1  0
  6  7  1  0
  7  8  1  0
  7 12  2  0
  8  9  1  0
  9 10  2  0
 11 10  1  6
 10 12  1  0
 13 14  1  0
 13 17  2  0
 14 15  1  0
 15 16  2  0
 16 17  1  0
 16 18  1  0
 18 19  2  0
 18 23  1  0
 19 20  1  0
 20 21  2  0
 21 22  1  0
 22 23  2  0
M  END
$$$$
