
     RDKit          3D

 23 25  0  0  0  0  0  0  0  0999 V2000
   27.9464    2.6608    7.1426 O   0  0  0  0  0  0  0  0  0  0  0  0
   27.5763    3.4528    8.0459 C   0  0  0  0  0  0  0  0  0  0  0  0
   28.0419    3.2233    9.4166 C   0  0  0  0  0  0  0  0  0  0  0  0
   29.1601    2.1787    9.4424 C   0  0  0  0  0  0  0  0  0  0  0  0
   26.7153    4.5599    7.7478 N   0  0  0  0  0  0  0  0  0  0  0  0
   26.1926    4.8114    6.4330 C   0  0  0  0  0  0  0  0  0  0  0  0
   24.7207    4.9510    6.5044 C   0  0  0  0  0  0  0  0  0  0  0  0
   23.8264    4.0882    6.9003 O   0  0  0  0  0  0  0  0  0  0  0  0
   22.6244    4.5726    6.8209 N   0  0  0  0  0  0  0  0  0  0  0  0
   22.6748    5.8305    6.3488 C   0  0  0  0  0  0  0  0  0  0  0  0
   21.5715    6.7866    6.0857 C   0  0  0  0  0  0  0  0  0  0  0  0
   24.0038    6.0943    6.1393 C   0  0  0  0  0  0  0  0  0  0  0  0
   26.3594    5.4658    8.8517 C   0  0  0  0  0  0  0  0  0  0  0  0
   27.2189    7.1753    8.8516 S   0  0  0  0  0  0  0  0  0  0  0  0
   26.3253    7.6094   10.3640 C   0  0  0  0  0  0  0  0  0  0  0  0
   25.5730    6.5373   10.6540 C   0  0  0  0  0  0  0  0  0  0  0  0
   25.7180    5.5474    9.7798 N   0  0  0  0  0  0  0  0  0  0  0  0
   24.6773    6.4730   11.8282 C   0  0  0  0  0  0  0  0  0  0  0  0
   23.7192    5.5029   12.0024 C   0  0  0  0  0  0  0  0  0  0  0  0
   22.8890    5.4471   13.0954 C   0  0  0  0  0  0  0  0  0  0  0  0
   23.0100    6.4041   14.0748 C   0  0  0  0  0  0  0  0  0  0  0  0
   23.9561    7.4061   13.9554 C   0  0  0  0  0  0  0  0  0  0  0  0
   24.7597    7.4092   12.8365 C   0  0  0  0  0  0  0  0  0  0  0  0
  1  2  2  0
  3  2  1  1
  2  5  1  0
  4  3  1  6
  6  5  1  1
  5 13  1  0
  6  7  1  0
  7  8  1  0
  7 12  2  0
  8  9  1  0
  9 10  2  0
 11 10  1  6
 10 12  1  0
 13 14  1  0
 13 17  2  0
 14 15  1  0
 15 16  2  0
 16 17  1  0
 16 18  1  0
 18 19  2  0
 18 23  1  0
 19 20  1  0
 20 21  2  0
 21 22  1  0
 22 23  2  0
M  END
$$$$
