
     RDKit          3D

 23 25  0  0  0  0  0  0  0  0999 V2000
   28.9117    3.8409    8.1569 O   0  0  0  0  0  0  0  0  0  0  0  0
   28.4894    4.2402    9.3014 C   0  0  0  0  0  0  0  0  0  0  0  0
   29.3086    3.7979   10.4455 C   0  0  0  0  0  0  0  0  0  0  0  0
   30.5482    3.0442    9.9898 C   0  0  0  0  0  0  0  0  0  0  0  0
   27.3336    5.0247    9.3206 N   0  0  0  0  0  0  0  0  0  0  0  0
   26.6944    5.3914    8.0587 C   0  0  0  0  0  0  0  0  0  0  0  0
   25.5951    4.4488    7.7119 C   0  0  0  0  0  0  0  0  0  0  0  0
   25.7642    3.1790    7.4708 O   0  0  0  0  0  0  0  0  0  0  0  0
   24.6126    2.6083    7.1952 N   0  0  0  0  0  0  0  0  0  0  0  0
   23.6218    3.4974    7.2459 C   0  0  0  0  0  0  0  0  0  0  0  0
   22.1564    3.3536    7.0198 C   0  0  0  0  0  0  0  0  0  0  0  0
   24.2441    4.7058    7.5815 C   0  0  0  0  0  0  0  0  0  0  0  0
   26.7234    5.4986   10.5183 C   0  0  0  0  0  0  0  0  0  0  0  0
   27.4943    5.8314   12.0323 S   0  0  0  0  0  0  0  0  0  0  0  0
   26.1222    6.3518   12.9047 C   0  0  0  0  0  0  0  0  0  0  0  0
   25.1294    6.2361   11.9576 C   0  0  0  0  0  0  0  0  0  0  0  0
   25.4785    5.8078   10.7880 N   0  0  0  0  0  0  0  0  0  0  0  0
   23.7149    6.5858   12.2663 C   0  0  0  0  0  0  0  0  0  0  0  0
   22.7336    6.4982   11.3106 C   0  0  0  0  0  0  0  0  0  0  0  0
   21.4173    6.8212   11.5778 C   0  0  0  0  0  0  0  0  0  0  0  0
   21.0419    7.2466   12.8263 C   0  0  0  0  0  0  0  0  0  0  0  0
   22.0224    7.3441   13.8170 C   0  0  0  0  0  0  0  0  0  0  0  0
   23.3229    7.0143   13.5172 C   0  0  0  0  0  0  0  0  0  0  0  0
  1  2  2  0
  2  3  1  0
  2  5  1  0
  3  4  1  0
  5  6  1  0
  5 13  1  0
  6  7  1  0
  7  8  1  0
  7 12  2  0
  8  9  1  0
  9 10  2  0
 10 11  1  0
 10 12  1  0
 13 14  1  0
 13 17  2  0
 14 15  1  0
 15 16  2  0
 16 17  1  0
 16 18  1  0
 18 19  2  0
 18 23  1  0
 19 20  1  0
 20 21  2  0
 21 22  1  0
 22 23  2  0
M  END
$$$$
