
     RDKit          3D

 23 25  0  0  0  0  0  0  0  0999 V2000
   25.1670    2.5470    6.4813 O   0  0  0  0  0  0  0  0  0  0  0  0
   24.6189    3.3857    7.2405 C   0  0  0  0  0  0  0  0  0  0  0  0
   23.1767    3.2806    7.4800 C   0  0  0  0  0  0  0  0  0  0  0  0
   22.4358    2.9302    6.1875 C   0  0  0  0  0  0  0  0  0  0  0  0
   25.3836    4.4271    7.8621 N   0  0  0  0  0  0  0  0  0  0  0  0
   26.7829    4.6291    7.6047 C   0  0  0  0  0  0  0  0  0  0  0  0
   27.5422    4.4983    8.8687 C   0  0  0  0  0  0  0  0  0  0  0  0
   28.8164    4.2878    9.0499 O   0  0  0  0  0  0  0  0  0  0  0  0
   29.1187    4.2322   10.3114 N   0  0  0  0  0  0  0  0  0  0  0  0
   28.0094    4.4113   11.0498 C   0  0  0  0  0  0  0  0  0  0  0  0
   27.8482    4.4310   12.5243 C   0  0  0  0  0  0  0  0  0  0  0  0
   26.9894    4.5833   10.1499 C   0  0  0  0  0  0  0  0  0  0  0  0
   24.6857    5.3214    8.7998 C   0  0  0  0  0  0  0  0  0  0  0  0
   23.3269    6.4392    8.0477 S   0  0  0  0  0  0  0  0  0  0  0  0
   23.0123    7.1365    9.6876 C   0  0  0  0  0  0  0  0  0  0  0  0
   23.8702    6.5147   10.5103 C   0  0  0  0  0  0  0  0  0  0  0  0
   24.6395    5.6284    9.8874 N   0  0  0  0  0  0  0  0  0  0  0  0
   23.9448    6.7936   11.9600 C   0  0  0  0  0  0  0  0  0  0  0  0
   23.4911    7.9563   12.5358 C   0  0  0  0  0  0  0  0  0  0  0  0
   23.5626    8.2110   13.8839 C   0  0  0  0  0  0  0  0  0  0  0  0
   24.1138    7.2637   14.7137 C   0  0  0  0  0  0  0  0  0  0  0  0
   24.5878    6.0733   14.1925 C   0  0  0  0  0  0  0  0  0  0  0  0
   24.4886    5.8756   12.8328 C   0  0  0  0  0  0  0  0  0  0  0  0
  1  2  2  0
  3  2  1  1
  2  5  1  0
  4  3  1  6
  6  5  1  1
  5 13  1  0
  6  7  1  0
  7  8  1  0
  7 12  2  0
  8  9  1  0
  9 10  2  0
 11 10  1  6
 10 12  1  0
 13 14  1  0
 13 17  2  0
 14 15  1  0
 15 16  2  0
 16 17  1  0
 16 18  1  0
 18 19  2  0
 18 23  1  0
 19 20  1  0
 20 21  2  0
 21 22  1  0
 22 23  2  0
M  END
$$$$
