
     RDKit          3D

 23 25  0  0  0  0  0  0  0  0999 V2000
   26.7397    4.1178    8.8287 O   0  0  0  0  0  0  0  0  0  0  0  0
   26.6644    4.6981    9.9711 C   0  0  0  0  0  0  0  0  0  0  0  0
   27.1798    3.9000   11.0993 C   0  0  0  0  0  0  0  0  0  0  0  0
   27.6788    2.5385   10.6416 C   0  0  0  0  0  0  0  0  0  0  0  0
   26.1161    5.9826   10.0030 N   0  0  0  0  0  0  0  0  0  0  0  0
   26.0036    6.7458    8.7618 C   0  0  0  0  0  0  0  0  0  0  0  0
   27.3144    7.3272    8.3605 C   0  0  0  0  0  0  0  0  0  0  0  0
   28.1648    6.7429    7.5639 O   0  0  0  0  0  0  0  0  0  0  0  0
   29.2274    7.4982    7.3957 N   0  0  0  0  0  0  0  0  0  0  0  0
   29.1150    8.6309    8.0877 C   0  0  0  0  0  0  0  0  0  0  0  0
   30.0319    9.7970    8.2247 C   0  0  0  0  0  0  0  0  0  0  0  0
   27.8720    8.5374    8.7251 C   0  0  0  0  0  0  0  0  0  0  0  0
   25.6469    6.6092   11.1941 C   0  0  0  0  0  0  0  0  0  0  0  0
   25.4061    8.3015   11.4689 S   0  0  0  0  0  0  0  0  0  0  0  0
   24.8376    8.2173   13.0765 C   0  0  0  0  0  0  0  0  0  0  0  0
   24.8673    6.8610   13.3120 C   0  0  0  0  0  0  0  0  0  0  0  0
   25.2771    6.1045   12.3459 N   0  0  0  0  0  0  0  0  0  0  0  0
   24.4489    6.2891   14.6221 C   0  0  0  0  0  0  0  0  0  0  0  0
   24.3004    7.0827   15.7320 C   0  0  0  0  0  0  0  0  0  0  0  0
   23.9161    6.5695   16.9557 C   0  0  0  0  0  0  0  0  0  0  0  0
   23.6667    5.2293   17.1040 C   0  0  0  0  0  0  0  0  0  0  0  0
   23.8107    4.3999   15.9887 C   0  0  0  0  0  0  0  0  0  0  0  0
   24.1942    4.9436   14.7857 C   0  0  0  0  0  0  0  0  0  0  0  0
  1  2  2  0
  2  3  1  0
  2  5  1  0
  3  4  1  0
  5  6  1  0
  5 13  1  0
  6  7  1  0
  7  8  1  0
  7 12  2  0
  8  9  1  0
  9 10  2  0
 10 11  1  0
 10 12  1  0
 13 14  1  0
 13 17  2  0
 14 15  1  0
 15 16  2  0
 16 17  1  0
 16 18  1  0
 18 19  2  0
 18 23  1  0
 19 20  1  0
 20 21  2  0
 21 22  1  0
 22 23  2  0
M  END
$$$$
