
     RDKit          3D

 23 25  0  0  0  0  0  0  0  0999 V2000
   26.6979    3.7177    7.7211 O   0  0  0  0  0  0  0  0  0  0  0  0
   26.0189    3.7311    8.8104 C   0  0  0  0  0  0  0  0  0  0  0  0
   25.9645    2.4364    9.5148 C   0  0  0  0  0  0  0  0  0  0  0  0
   26.8278    1.3884    8.8301 C   0  0  0  0  0  0  0  0  0  0  0  0
   25.4294    4.9414    9.1837 N   0  0  0  0  0  0  0  0  0  0  0  0
   25.7335    6.1521    8.4240 C   0  0  0  0  0  0  0  0  0  0  0  0
   26.5009    7.1300    9.2438 C   0  0  0  0  0  0  0  0  0  0  0  0
   25.9583    8.0706    9.9650 O   0  0  0  0  0  0  0  0  0  0  0  0
   26.8872    8.7730   10.5747 N   0  0  0  0  0  0  0  0  0  0  0  0
   28.1003    8.3125   10.2732 C   0  0  0  0  0  0  0  0  0  0  0  0
   29.4567    8.7545   10.7024 C   0  0  0  0  0  0  0  0  0  0  0  0
   27.8686    7.2395    9.4044 C   0  0  0  0  0  0  0  0  0  0  0  0
   24.5290    5.0733   10.2807 C   0  0  0  0  0  0  0  0  0  0  0  0
   22.7991    5.0237   10.2347 S   0  0  0  0  0  0  0  0  0  0  0  0
   22.4965    5.2364   11.9014 C   0  0  0  0  0  0  0  0  0  0  0  0
   23.7738    5.3352   12.4061 C   0  0  0  0  0  0  0  0  0  0  0  0
   24.7492    5.2483   11.5609 N   0  0  0  0  0  0  0  0  0  0  0  0
   24.0224    5.5363   13.8608 C   0  0  0  0  0  0  0  0  0  0  0  0
   25.2940    5.5146   14.3769 C   0  0  0  0  0  0  0  0  0  0  0  0
   25.5433    5.6961   15.7236 C   0  0  0  0  0  0  0  0  0  0  0  0
   24.5122    5.9070   16.6027 C   0  0  0  0  0  0  0  0  0  0  0  0
   23.2079    5.9338   16.1021 C   0  0  0  0  0  0  0  0  0  0  0  0
   22.9954    5.7500   14.7564 C   0  0  0  0  0  0  0  0  0  0  0  0
  1  2  2  0
  2  3  1  0
  2  5  1  0
  3  4  1  0
  5  6  1  0
  5 13  1  0
  6  7  1  0
  7  8  1  0
  7 12  2  0
  8  9  1  0
  9 10  2  0
 10 11  1  0
 10 12  1  0
 13 14  1  0
 13 17  2  0
 14 15  1  0
 15 16  2  0
 16 17  1  0
 16 18  1  0
 18 19  2  0
 18 23  1  0
 19 20  1  0
 20 21  2  0
 21 22  1  0
 22 23  2  0
M  END
$$$$
