
     RDKit          3D

 23 25  0  0  0  0  0  0  0  0999 V2000
   27.2102    4.3915    8.0267 O   0  0  0  0  0  0  0  0  0  0  0  0
   26.9684    4.7083    9.2188 C   0  0  0  0  0  0  0  0  0  0  0  0
   27.7944    4.1289   10.2820 C   0  0  0  0  0  0  0  0  0  0  0  0
   28.4620    2.8362    9.8072 C   0  0  0  0  0  0  0  0  0  0  0  0
   25.9067    5.6173    9.5388 N   0  0  0  0  0  0  0  0  0  0  0  0
   24.9881    6.1229    8.5561 C   0  0  0  0  0  0  0  0  0  0  0  0
   24.8787    7.5929    8.6915 C   0  0  0  0  0  0  0  0  0  0  0  0
   24.1338    8.2958    9.4989 O   0  0  0  0  0  0  0  0  0  0  0  0
   24.3096    9.5706    9.3261 N   0  0  0  0  0  0  0  0  0  0  0  0
   25.2174    9.7737    8.3553 C   0  0  0  0  0  0  0  0  0  0  0  0
   25.7450   11.0463    7.8054 C   0  0  0  0  0  0  0  0  0  0  0  0
   25.5953    8.5246    7.9347 C   0  0  0  0  0  0  0  0  0  0  0  0
   25.7653    6.0367   10.9424 C   0  0  0  0  0  0  0  0  0  0  0  0
   27.0902    7.2515   11.5983 S   0  0  0  0  0  0  0  0  0  0  0  0
   26.2708    7.2525   13.2116 C   0  0  0  0  0  0  0  0  0  0  0  0
   25.2182    6.4317   13.0778 C   0  0  0  0  0  0  0  0  0  0  0  0
   25.1192    5.9060   11.8616 N   0  0  0  0  0  0  0  0  0  0  0  0
   24.2709    6.1474   14.1763 C   0  0  0  0  0  0  0  0  0  0  0  0
   23.0905    5.4641   14.0057 C   0  0  0  0  0  0  0  0  0  0  0  0
   22.2132    5.2021   15.0298 C   0  0  0  0  0  0  0  0  0  0  0  0
   22.5170    5.6395   16.2971 C   0  0  0  0  0  0  0  0  0  0  0  0
   23.6909    6.3328   16.5311 C   0  0  0  0  0  0  0  0  0  0  0  0
   24.5306    6.5649   15.4640 C   0  0  0  0  0  0  0  0  0  0  0  0
  1  2  2  0
  3  2  1  1
  2  5  1  0
  4  3  1  6
  6  5  1  1
  5 13  1  0
  6  7  1  0
  7  8  1  0
  7 12  2  0
  8  9  1  0
  9 10  2  0
 11 10  1  6
 10 12  1  0
 13 14  1  0
 13 17  2  0
 14 15  1  0
 15 16  2  0
 16 17  1  0
 16 18  1  0
 18 19  2  0
 18 23  1  0
 19 20  1  0
 20 21  2  0
 21 22  1  0
 22 23  2  0
M  END
$$$$
