
     RDKit          3D

 23 25  0  0  0  0  0  0  0  0999 V2000
   26.8850    5.3756    9.4997 O   0  0  0  0  0  0  0  0  0  0  0  0
   26.5131    5.7156   10.6513 C   0  0  0  0  0  0  0  0  0  0  0  0
   27.0904    5.0265   11.8090 C   0  0  0  0  0  0  0  0  0  0  0  0
   28.2283    4.0989   11.3767 C   0  0  0  0  0  0  0  0  0  0  0  0
   25.5433    6.7556   10.8353 N   0  0  0  0  0  0  0  0  0  0  0  0
   24.9103    7.4366    9.7395 C   0  0  0  0  0  0  0  0  0  0  0  0
   23.5181    6.9545    9.5957 C   0  0  0  0  0  0  0  0  0  0  0  0
   22.4167    7.4486   10.0892 O   0  0  0  0  0  0  0  0  0  0  0  0
   21.3798    6.7474    9.7447 N   0  0  0  0  0  0  0  0  0  0  0  0
   21.7680    5.7152    8.9755 C   0  0  0  0  0  0  0  0  0  0  0  0
   20.9542    4.6468    8.3457 C   0  0  0  0  0  0  0  0  0  0  0  0
   23.1302    5.8266    8.8664 C   0  0  0  0  0  0  0  0  0  0  0  0
   25.1908    7.1255   12.2155 C   0  0  0  0  0  0  0  0  0  0  0  0
   25.5432    8.9371   12.7205 S   0  0  0  0  0  0  0  0  0  0  0  0
   24.8938    8.5884   14.3730 C   0  0  0  0  0  0  0  0  0  0  0  0
   24.5310    7.2972   14.3487 C   0  0  0  0  0  0  0  0  0  0  0  0
   24.7541    6.7156   13.1750 N   0  0  0  0  0  0  0  0  0  0  0  0
   23.9440    6.6011   15.5131 C   0  0  0  0  0  0  0  0  0  0  0  0
   23.5678    5.2791   15.4994 C   0  0  0  0  0  0  0  0  0  0  0  0
   23.0226    4.6364   16.5842 C   0  0  0  0  0  0  0  0  0  0  0  0
   22.8369    5.3381   17.7517 C   0  0  0  0  0  0  0  0  0  0  0  0
   23.1961    6.6718   17.8265 C   0  0  0  0  0  0  0  0  0  0  0  0
   23.7381    7.2612   16.7055 C   0  0  0  0  0  0  0  0  0  0  0  0
  1  2  2  0
  3  2  1  1
  2  5  1  0
  4  3  1  6
  6  5  1  1
  5 13  1  0
  6  7  1  0
  7  8  1  0
  7 12  2  0
  8  9  1  0
  9 10  2  0
 11 10  1  6
 10 12  1  0
 13 14  1  0
 13 17  2  0
 14 15  1  0
 15 16  2  0
 16 17  1  0
 16 18  1  0
 18 19  2  0
 18 23  1  0
 19 20  1  0
 20 21  2  0
 21 22  1  0
 22 23  2  0
M  END
$$$$
