
     RDKit          3D

 23 25  0  0  0  0  0  0  0  0999 V2000
   27.4236    4.1485    7.7657 O   0  0  0  0  0  0  0  0  0  0  0  0
   27.3247    4.2986    9.0366 C   0  0  0  0  0  0  0  0  0  0  0  0
   28.1835    3.3984    9.8289 C   0  0  0  0  0  0  0  0  0  0  0  0
   29.1075    2.5796    8.9414 C   0  0  0  0  0  0  0  0  0  0  0  0
   26.4366    5.2722    9.5002 N   0  0  0  0  0  0  0  0  0  0  0  0
   25.5414    5.9354    8.5546 C   0  0  0  0  0  0  0  0  0  0  0  0
   24.1452    5.4345    8.6847 C   0  0  0  0  0  0  0  0  0  0  0  0
   23.7811    4.2043    8.4543 O   0  0  0  0  0  0  0  0  0  0  0  0
   22.4893    4.0646    8.6534 N   0  0  0  0  0  0  0  0  0  0  0  0
   21.9428    5.2194    9.0306 C   0  0  0  0  0  0  0  0  0  0  0  0
   20.5386    5.5795    9.3738 C   0  0  0  0  0  0  0  0  0  0  0  0
   23.0089    6.1266    9.0562 C   0  0  0  0  0  0  0  0  0  0  0  0
   26.3441    5.6671   10.8666 C   0  0  0  0  0  0  0  0  0  0  0  0
   27.6371    6.1430   11.9148 S   0  0  0  0  0  0  0  0  0  0  0  0
   26.7195    6.4594   13.3193 C   0  0  0  0  0  0  0  0  0  0  0  0
   25.4433    6.1736   12.8886 C   0  0  0  0  0  0  0  0  0  0  0  0
   25.3092    5.7838   11.6625 N   0  0  0  0  0  0  0  0  0  0  0  0
   24.2685    6.3045   13.7948 C   0  0  0  0  0  0  0  0  0  0  0  0
   24.4266    6.5120   15.1423 C   0  0  0  0  0  0  0  0  0  0  0  0
   23.3490    6.6327   15.9982 C   0  0  0  0  0  0  0  0  0  0  0  0
   22.0658    6.5479   15.5222 C   0  0  0  0  0  0  0  0  0  0  0  0
   21.8780    6.3372   14.1537 C   0  0  0  0  0  0  0  0  0  0  0  0
   22.9726    6.2219   13.3300 C   0  0  0  0  0  0  0  0  0  0  0  0
  1  2  2  0
  2  3  1  0
  2  5  1  0
  3  4  1  0
  5  6  1  0
  5 13  1  0
  6  7  1  0
  7  8  1  0
  7 12  2  0
  8  9  1  0
  9 10  2  0
 10 11  1  0
 10 12  1  0
 13 14  1  0
 13 17  2  0
 14 15  1  0
 15 16  2  0
 16 17  1  0
 16 18  1  0
 18 19  2  0
 18 23  1  0
 19 20  1  0
 20 21  2  0
 21 22  1  0
 22 23  2  0
M  END
$$$$
