
     RDKit          3D

 23 25  0  0  0  0  0  0  0  0999 V2000
   23.6375    4.2763    8.2458 O   0  0  0  0  0  0  0  0  0  0  0  0
   23.5066    4.8963    9.3314 C   0  0  0  0  0  0  0  0  0  0  0  0
   22.1759    4.9739    9.9411 C   0  0  0  0  0  0  0  0  0  0  0  0
   21.1065    4.4524    8.9785 C   0  0  0  0  0  0  0  0  0  0  0  0
   24.6325    5.5181    9.9652 N   0  0  0  0  0  0  0  0  0  0  0  0
   25.9547    5.4990    9.4027 C   0  0  0  0  0  0  0  0  0  0  0  0
   26.9434    5.8343   10.4522 C   0  0  0  0  0  0  0  0  0  0  0  0
   27.3795    5.1043   11.4411 O   0  0  0  0  0  0  0  0  0  0  0  0
   28.2511    5.7430   12.1608 N   0  0  0  0  0  0  0  0  0  0  0  0
   28.4366    6.9756   11.6568 C   0  0  0  0  0  0  0  0  0  0  0  0
   29.3256    8.0657   12.1278 C   0  0  0  0  0  0  0  0  0  0  0  0
   27.6117    7.0570   10.5647 C   0  0  0  0  0  0  0  0  0  0  0  0
   24.4028    6.2047   11.2465 C   0  0  0  0  0  0  0  0  0  0  0  0
   24.0436    8.0814   11.1463 S   0  0  0  0  0  0  0  0  0  0  0  0
   23.8985    8.1360   12.9491 C   0  0  0  0  0  0  0  0  0  0  0  0
   24.1135    6.8781   13.3626 C   0  0  0  0  0  0  0  0  0  0  0  0
   24.3526    6.0352   12.3637 N   0  0  0  0  0  0  0  0  0  0  0  0
   24.0851    6.4798   14.7858 C   0  0  0  0  0  0  0  0  0  0  0  0
   23.9595    7.3723   15.8236 C   0  0  0  0  0  0  0  0  0  0  0  0
   23.9335    6.9975   17.1450 C   0  0  0  0  0  0  0  0  0  0  0  0
   24.0375    5.6639   17.4624 C   0  0  0  0  0  0  0  0  0  0  0  0
   24.1662    4.7183   16.4611 C   0  0  0  0  0  0  0  0  0  0  0  0
   24.1859    5.1556   15.1549 C   0  0  0  0  0  0  0  0  0  0  0  0
  1  2  2  0
  3  2  1  1
  2  5  1  0
  4  3  1  6
  6  5  1  1
  5 13  1  0
  6  7  1  0
  7  8  1  0
  7 12  2  0
  8  9  1  0
  9 10  2  0
 11 10  1  6
 10 12  1  0
 13 14  1  0
 13 17  2  0
 14 15  1  0
 15 16  2  0
 16 17  1  0
 16 18  1  0
 18 19  2  0
 18 23  1  0
 19 20  1  0
 20 21  2  0
 21 22  1  0
 22 23  2  0
M  END
$$$$
