
     RDKit          3D

 23 25  0  0  0  0  0  0  0  0999 V2000
   28.4309    3.2155    8.9725 O   0  0  0  0  0  0  0  0  0  0  0  0
   27.4582    3.9715    9.3331 C   0  0  0  0  0  0  0  0  0  0  0  0
   26.1543    3.2888    9.4293 C   0  0  0  0  0  0  0  0  0  0  0  0
   26.2613    1.8193    9.0536 C   0  0  0  0  0  0  0  0  0  0  0  0
   27.7487    5.3150    9.5827 N   0  0  0  0  0  0  0  0  0  0  0  0
   28.6766    6.0237    8.7040 C   0  0  0  0  0  0  0  0  0  0  0  0
   27.9843    6.5556    7.4977 C   0  0  0  0  0  0  0  0  0  0  0  0
   27.6591    5.8369    6.4600 O   0  0  0  0  0  0  0  0  0  0  0  0
   27.0604    6.5815    5.5573 N   0  0  0  0  0  0  0  0  0  0  0  0
   26.9658    7.8432    5.9742 C   0  0  0  0  0  0  0  0  0  0  0  0
   26.3790    9.0521    5.3312 C   0  0  0  0  0  0  0  0  0  0  0  0
   27.5644    7.8461    7.2398 C   0  0  0  0  0  0  0  0  0  0  0  0
   27.1839    6.0554   10.6618 C   0  0  0  0  0  0  0  0  0  0  0  0
   27.9034    7.3717   11.5259 S   0  0  0  0  0  0  0  0  0  0  0  0
   26.6221    7.6938   12.6071 C   0  0  0  0  0  0  0  0  0  0  0  0
   25.6952    6.7478   12.2305 C   0  0  0  0  0  0  0  0  0  0  0  0
   26.0215    5.9576   11.2596 N   0  0  0  0  0  0  0  0  0  0  0  0
   24.3757    6.6364   12.9123 C   0  0  0  0  0  0  0  0  0  0  0  0
   24.2039    7.0581   14.2071 C   0  0  0  0  0  0  0  0  0  0  0  0
   22.9885    6.9598   14.8564 C   0  0  0  0  0  0  0  0  0  0  0  0
   21.8966    6.4295   14.2185 C   0  0  0  0  0  0  0  0  0  0  0  0
   22.0454    5.9930   12.8995 C   0  0  0  0  0  0  0  0  0  0  0  0
   23.2690    6.1058   12.2831 C   0  0  0  0  0  0  0  0  0  0  0  0
  1  2  2  0
  2  3  1  0
  2  5  1  0
  3  4  1  0
  5  6  1  0
  5 13  1  0
  6  7  1  0
  7  8  1  0
  7 12  2  0
  8  9  1  0
  9 10  2  0
 10 11  1  0
 10 12  1  0
 13 14  1  0
 13 17  2  0
 14 15  1  0
 15 16  2  0
 16 17  1  0
 16 18  1  0
 18 19  2  0
 18 23  1  0
 19 20  1  0
 20 21  2  0
 21 22  1  0
 22 23  2  0
M  END
$$$$
