
     RDKit          3D

 23 25  0  0  0  0  0  0  0  0999 V2000
   27.4560    3.4548    7.0902 O   0  0  0  0  0  0  0  0  0  0  0  0
   26.7799    3.8341    8.0797 C   0  0  0  0  0  0  0  0  0  0  0  0
   26.7804    3.0076    9.2903 C   0  0  0  0  0  0  0  0  0  0  0  0
   27.6636    1.7718    9.1035 C   0  0  0  0  0  0  0  0  0  0  0  0
   26.0207    5.0494    8.0312 N   0  0  0  0  0  0  0  0  0  0  0  0
   26.0513    5.9455    6.9082 C   0  0  0  0  0  0  0  0  0  0  0  0
   24.6747    6.1567    6.4064 C   0  0  0  0  0  0  0  0  0  0  0  0
   23.8555    5.3044    5.8555 O   0  0  0  0  0  0  0  0  0  0  0  0
   22.7247    5.8600    5.5419 N   0  0  0  0  0  0  0  0  0  0  0  0
   22.7490    7.1593    5.8870 C   0  0  0  0  0  0  0  0  0  0  0  0
   21.7018    8.1984    5.7320 C   0  0  0  0  0  0  0  0  0  0  0  0
   23.9848    7.3721    6.4413 C   0  0  0  0  0  0  0  0  0  0  0  0
   25.1755    5.3745    9.1913 C   0  0  0  0  0  0  0  0  0  0  0  0
   23.3622    4.7690    9.1111 S   0  0  0  0  0  0  0  0  0  0  0  0
   23.0604    5.5002   10.7386 C   0  0  0  0  0  0  0  0  0  0  0  0
   24.2281    6.0496   11.1049 C   0  0  0  0  0  0  0  0  0  0  0  0
   25.1864    5.8887   10.1988 N   0  0  0  0  0  0  0  0  0  0  0  0
   24.4196    6.7593   12.3873 C   0  0  0  0  0  0  0  0  0  0  0  0
   25.6040    7.3476   12.7621 C   0  0  0  0  0  0  0  0  0  0  0  0
   25.7773    8.0063   13.9552 C   0  0  0  0  0  0  0  0  0  0  0  0
   24.7208    8.0902   14.8307 C   0  0  0  0  0  0  0  0  0  0  0  0
   23.5035    7.5175   14.5091 C   0  0  0  0  0  0  0  0  0  0  0  0
   23.3910    6.8704   13.2982 C   0  0  0  0  0  0  0  0  0  0  0  0
  1  2  2  0
  3  2  1  1
  2  5  1  0
  4  3  1  6
  6  5  1  1
  5 13  1  0
  6  7  1  0
  7  8  1  0
  7 12  2  0
  8  9  1  0
  9 10  2  0
 11 10  1  6
 10 12  1  0
 13 14  1  0
 13 17  2  0
 14 15  1  0
 15 16  2  0
 16 17  1  0
 16 18  1  0
 18 19  2  0
 18 23  1  0
 19 20  1  0
 20 21  2  0
 21 22  1  0
 22 23  2  0
M  END
$$$$
