
     RDKit          3D

 23 25  0  0  0  0  0  0  0  0999 V2000
   22.4553    4.8194   10.9231 O   0  0  0  0  0  0  0  0  0  0  0  0
   23.4429    5.0498   10.1363 C   0  0  0  0  0  0  0  0  0  0  0  0
   23.3242    4.4265    8.8047 C   0  0  0  0  0  0  0  0  0  0  0  0
   22.0824    3.5551    8.7019 C   0  0  0  0  0  0  0  0  0  0  0  0
   24.4828    5.8428   10.6276 N   0  0  0  0  0  0  0  0  0  0  0  0
   25.6676    6.0648    9.8016 C   0  0  0  0  0  0  0  0  0  0  0  0
   26.8222    5.2539   10.2778 C   0  0  0  0  0  0  0  0  0  0  0  0
   27.1499    4.0878    9.7964 O   0  0  0  0  0  0  0  0  0  0  0  0
   28.2109    3.6193   10.4150 N   0  0  0  0  0  0  0  0  0  0  0  0
   28.6311    4.4757   11.3448 C   0  0  0  0  0  0  0  0  0  0  0  0
   29.7746    4.4128   12.2976 C   0  0  0  0  0  0  0  0  0  0  0  0
   27.7360    5.5496   11.2707 C   0  0  0  0  0  0  0  0  0  0  0  0
   24.4607    6.4645   11.9100 C   0  0  0  0  0  0  0  0  0  0  0  0
   24.8478    8.1086   12.2897 S   0  0  0  0  0  0  0  0  0  0  0  0
   24.5683    8.0510   13.9729 C   0  0  0  0  0  0  0  0  0  0  0  0
   24.1848    6.7401   14.1470 C   0  0  0  0  0  0  0  0  0  0  0  0
   24.1473    5.9925   13.0919 N   0  0  0  0  0  0  0  0  0  0  0  0
   23.8312    6.2046   15.4911 C   0  0  0  0  0  0  0  0  0  0  0  0
   24.3305    6.7695   16.6380 C   0  0  0  0  0  0  0  0  0  0  0  0
   24.0160    6.2845   17.8928 C   0  0  0  0  0  0  0  0  0  0  0  0
   23.1816    5.2057   18.0358 C   0  0  0  0  0  0  0  0  0  0  0  0
   22.6598    4.6126   16.8832 C   0  0  0  0  0  0  0  0  0  0  0  0
   22.9930    5.1209   15.6501 C   0  0  0  0  0  0  0  0  0  0  0  0
  1  2  2  0
  2  3  1  0
  2  5  1  0
  3  4  1  0
  5  6  1  0
  5 13  1  0
  6  7  1  0
  7  8  1  0
  7 12  2  0
  8  9  1  0
  9 10  2  0
 10 11  1  0
 10 12  1  0
 13 14  1  0
 13 17  2  0
 14 15  1  0
 15 16  2  0
 16 17  1  0
 16 18  1  0
 18 19  2  0
 18 23  1  0
 19 20  1  0
 20 21  2  0
 21 22  1  0
 22 23  2  0
M  END
$$$$
