
     RDKit          3D

 23 25  0  0  0  0  0  0  0  0999 V2000
   28.1625    3.4816    7.8773 O   0  0  0  0  0  0  0  0  0  0  0  0
   27.2028    3.8649    8.5931 C   0  0  0  0  0  0  0  0  0  0  0  0
   26.2929    2.8584    9.1475 C   0  0  0  0  0  0  0  0  0  0  0  0
   26.6984    1.4531    8.6968 C   0  0  0  0  0  0  0  0  0  0  0  0
   26.9967    5.2575    8.8648 N   0  0  0  0  0  0  0  0  0  0  0  0
   27.8370    6.2915    8.3265 C   0  0  0  0  0  0  0  0  0  0  0  0
   27.1087    7.0158    7.2606 C   0  0  0  0  0  0  0  0  0  0  0  0
   26.5958    6.5587    6.1520 O   0  0  0  0  0  0  0  0  0  0  0  0
   26.0285    7.5008    5.4618 N   0  0  0  0  0  0  0  0  0  0  0  0
   26.1472    8.6714    6.1125 C   0  0  0  0  0  0  0  0  0  0  0  0
   25.6644   10.0202    5.7278 C   0  0  0  0  0  0  0  0  0  0  0  0
   26.8337    8.3865    7.2646 C   0  0  0  0  0  0  0  0  0  0  0  0
   25.8665    5.6248    9.7330 C   0  0  0  0  0  0  0  0  0  0  0  0
   24.2148    6.0150    8.8492 S   0  0  0  0  0  0  0  0  0  0  0  0
   23.4462    6.3339   10.4561 C   0  0  0  0  0  0  0  0  0  0  0  0
   24.4150    6.1313   11.3615 C   0  0  0  0  0  0  0  0  0  0  0  0
   25.5734    5.7783   10.8147 N   0  0  0  0  0  0  0  0  0  0  0  0
   24.2061    6.2872   12.8165 C   0  0  0  0  0  0  0  0  0  0  0  0
   25.2015    6.1240   13.7502 C   0  0  0  0  0  0  0  0  0  0  0  0
   25.0026    6.2699   15.1016 C   0  0  0  0  0  0  0  0  0  0  0  0
   23.7483    6.5959   15.5601 C   0  0  0  0  0  0  0  0  0  0  0  0
   22.7058    6.7732   14.6683 C   0  0  0  0  0  0  0  0  0  0  0  0
   22.9672    6.6133   13.3252 C   0  0  0  0  0  0  0  0  0  0  0  0
  1  2  2  0
  3  2  1  1
  2  5  1  0
  4  3  1  6
  6  5  1  1
  5 13  1  0
  6  7  1  0
  7  8  1  0
  7 12  2  0
  8  9  1  0
  9 10  2  0
 11 10  1  6
 10 12  1  0
 13 14  1  0
 13 17  2  0
 14 15  1  0
 15 16  2  0
 16 17  1  0
 16 18  1  0
 18 19  2  0
 18 23  1  0
 19 20  1  0
 20 21  2  0
 21 22  1  0
 22 23  2  0
M  END
$$$$
