
     RDKit          3D

 23 25  0  0  0  0  0  0  0  0999 V2000
   23.3687    4.8930    9.5700 O   0  0  0  0  0  0  0  0  0  0  0  0
   23.3536    5.7220   10.5499 C   0  0  0  0  0  0  0  0  0  0  0  0
   22.4489    6.8723   10.3658 C   0  0  0  0  0  0  0  0  0  0  0  0
   21.5371    6.6823    9.1639 C   0  0  0  0  0  0  0  0  0  0  0  0
   24.1768    5.4386   11.6424 N   0  0  0  0  0  0  0  0  0  0  0  0
   25.1316    4.3359   11.5544 C   0  0  0  0  0  0  0  0  0  0  0  0
   26.5029    4.8274   11.2455 C   0  0  0  0  0  0  0  0  0  0  0  0
   26.8932    5.2250   10.0671 O   0  0  0  0  0  0  0  0  0  0  0  0
   28.1521    5.6012   10.1049 N   0  0  0  0  0  0  0  0  0  0  0  0
   28.6484    5.4639   11.3336 C   0  0  0  0  0  0  0  0  0  0  0  0
   30.0012    5.7508   11.8875 C   0  0  0  0  0  0  0  0  0  0  0  0
   27.5859    4.9591   12.0928 C   0  0  0  0  0  0  0  0  0  0  0  0
   24.1458    6.1735   12.8633 C   0  0  0  0  0  0  0  0  0  0  0  0
   24.1726    7.8936   13.0577 S   0  0  0  0  0  0  0  0  0  0  0  0
   24.0961    7.9558   14.7620 C   0  0  0  0  0  0  0  0  0  0  0  0
   24.0534    6.6187   15.0881 C   0  0  0  0  0  0  0  0  0  0  0  0
   24.0807    5.7729   14.1096 N   0  0  0  0  0  0  0  0  0  0  0  0
   23.9817    6.1650   16.5049 C   0  0  0  0  0  0  0  0  0  0  0  0
   23.9367    7.0646   17.5406 C   0  0  0  0  0  0  0  0  0  0  0  0
   23.8732    6.6622   18.8606 C   0  0  0  0  0  0  0  0  0  0  0  0
   23.8526    5.3299   19.1847 C   0  0  0  0  0  0  0  0  0  0  0  0
   23.8972    4.3939   18.1482 C   0  0  0  0  0  0  0  0  0  0  0  0
   23.9597    4.8287   16.8455 C   0  0  0  0  0  0  0  0  0  0  0  0
  1  2  2  0
  2  3  1  0
  2  5  1  0
  3  4  1  0
  5  6  1  0
  5 13  1  0
  6  7  1  0
  7  8  1  0
  7 12  2  0
  8  9  1  0
  9 10  2  0
 10 11  1  0
 10 12  1  0
 13 14  1  0
 13 17  2  0
 14 15  1  0
 15 16  2  0
 16 17  1  0
 16 18  1  0
 18 19  2  0
 18 23  1  0
 19 20  1  0
 20 21  2  0
 21 22  1  0
 22 23  2  0
M  END
$$$$
