
     RDKit          3D

 23 25  0  0  0  0  0  0  0  0999 V2000
   24.5015    4.7749    9.4481 O   0  0  0  0  0  0  0  0  0  0  0  0
   24.7855    4.8444   10.6707 C   0  0  0  0  0  0  0  0  0  0  0  0
   25.5432    3.7476   11.2802 C   0  0  0  0  0  0  0  0  0  0  0  0
   25.7081    2.5884   10.2946 C   0  0  0  0  0  0  0  0  0  0  0  0
   24.3787    5.9710   11.4587 N   0  0  0  0  0  0  0  0  0  0  0  0
   23.5848    7.0470   10.9324 C   0  0  0  0  0  0  0  0  0  0  0  0
   24.4078    8.2747   10.8508 C   0  0  0  0  0  0  0  0  0  0  0  0
   25.3683    8.5727   10.0203 O   0  0  0  0  0  0  0  0  0  0  0  0
   25.8604    9.7503   10.2588 N   0  0  0  0  0  0  0  0  0  0  0  0
   25.2187   10.3050   11.3021 C   0  0  0  0  0  0  0  0  0  0  0  0
   25.4218   11.6276   11.9423 C   0  0  0  0  0  0  0  0  0  0  0  0
   24.2862    9.3808   11.6970 C   0  0  0  0  0  0  0  0  0  0  0  0
   24.7997    6.0070   12.8685 C   0  0  0  0  0  0  0  0  0  0  0  0
   26.6675    6.2754   13.1854 S   0  0  0  0  0  0  0  0  0  0  0  0
   26.3623    6.1982   14.9673 C   0  0  0  0  0  0  0  0  0  0  0  0
   25.0414    6.0021   15.0949 C   0  0  0  0  0  0  0  0  0  0  0  0
   24.4104    5.9307   13.9278 N   0  0  0  0  0  0  0  0  0  0  0  0
   24.3658    5.8793   16.4039 C   0  0  0  0  0  0  0  0  0  0  0  0
   25.0076    5.5014   17.5592 C   0  0  0  0  0  0  0  0  0  0  0  0
   24.3755    5.3887   18.7736 C   0  0  0  0  0  0  0  0  0  0  0  0
   23.0313    5.6648   18.8544 C   0  0  0  0  0  0  0  0  0  0  0  0
   22.3310    6.0500   17.7254 C   0  0  0  0  0  0  0  0  0  0  0  0
   23.0198    6.1452   16.5362 C   0  0  0  0  0  0  0  0  0  0  0  0
  1  2  2  0
  3  2  1  1
  2  5  1  0
  4  3  1  6
  6  5  1  1
  5 13  1  0
  6  7  1  0
  7  8  1  0
  7 12  2  0
  8  9  1  0
  9 10  2  0
 11 10  1  6
 10 12  1  0
 13 14  1  0
 13 17  2  0
 14 15  1  0
 15 16  2  0
 16 17  1  0
 16 18  1  0
 18 19  2  0
 18 23  1  0
 19 20  1  0
 20 21  2  0
 21 22  1  0
 22 23  2  0
M  END
$$$$
