
     RDKit          3D

 23 25  0  0  0  0  0  0  0  0999 V2000
   27.3914    7.9523    8.0414 O   0  0  0  0  0  0  0  0  0  0  0  0
   27.4603    7.7484    9.3068 C   0  0  0  0  0  0  0  0  0  0  0  0
   28.7034    8.2295    9.9384 C   0  0  0  0  0  0  0  0  0  0  0  0
   29.6232    8.8982    8.9291 C   0  0  0  0  0  0  0  0  0  0  0  0
   26.3756    7.1107    9.9136 N   0  0  0  0  0  0  0  0  0  0  0  0
   25.5873    6.1492    9.1458 C   0  0  0  0  0  0  0  0  0  0  0  0
   26.0027    4.7493    9.4375 C   0  0  0  0  0  0  0  0  0  0  0  0
   25.4354    3.9844   10.3275 O   0  0  0  0  0  0  0  0  0  0  0  0
   26.0183    2.8067   10.3569 N   0  0  0  0  0  0  0  0  0  0  0  0
   27.0105    2.7495    9.4698 C   0  0  0  0  0  0  0  0  0  0  0  0
   27.9573    1.6539    9.1197 C   0  0  0  0  0  0  0  0  0  0  0  0
   27.0161    4.0095    8.8597 C   0  0  0  0  0  0  0  0  0  0  0  0
   25.9813    7.3412   11.2638 C   0  0  0  0  0  0  0  0  0  0  0  0
   26.7385    8.3860   12.4180 S   0  0  0  0  0  0  0  0  0  0  0  0
   25.6863    8.1122   13.7342 C   0  0  0  0  0  0  0  0  0  0  0  0
   24.7941    7.2125   13.1952 C   0  0  0  0  0  0  0  0  0  0  0  0
   24.9835    6.8607   11.9649 N   0  0  0  0  0  0  0  0  0  0  0  0
   23.6621    6.6656   13.9938 C   0  0  0  0  0  0  0  0  0  0  0  0
   23.6946    6.6590   15.3660 C   0  0  0  0  0  0  0  0  0  0  0  0
   22.6555    6.1532   16.1229 C   0  0  0  0  0  0  0  0  0  0  0  0
   21.5399    5.6329   15.5187 C   0  0  0  0  0  0  0  0  0  0  0  0
   21.4822    5.6282   14.1226 C   0  0  0  0  0  0  0  0  0  0  0  0
   22.5338    6.1398   13.3999 C   0  0  0  0  0  0  0  0  0  0  0  0
  1  2  2  0
  2  3  1  0
  2  5  1  0
  3  4  1  0
  5  6  1  0
  5 13  1  0
  6  7  1  0
  7  8  1  0
  7 12  2  0
  8  9  1  0
  9 10  2  0
 10 11  1  0
 10 12  1  0
 13 14  1  0
 13 17  2  0
 14 15  1  0
 15 16  2  0
 16 17  1  0
 16 18  1  0
 18 19  2  0
 18 23  1  0
 19 20  1  0
 20 21  2  0
 21 22  1  0
 22 23  2  0
M  END
$$$$
