
     RDKit          3D

 23 25  0  0  0  0  0  0  0  0999 V2000
   23.5309    5.5399    9.0940 O   0  0  0  0  0  0  0  0  0  0  0  0
   23.6025    5.7762   10.3537 C   0  0  0  0  0  0  0  0  0  0  0  0
   22.3337    5.5971   11.0841 C   0  0  0  0  0  0  0  0  0  0  0  0
   21.2687    6.5714   10.6060 C   0  0  0  0  0  0  0  0  0  0  0  0
   24.8437    6.1651   10.8636 N   0  0  0  0  0  0  0  0  0  0  0  0
   26.0188    6.1304    9.9956 C   0  0  0  0  0  0  0  0  0  0  0  0
   26.8228    4.8969   10.2180 C   0  0  0  0  0  0  0  0  0  0  0  0
   27.6729    4.7395   11.1935 O   0  0  0  0  0  0  0  0  0  0  0  0
   28.2275    3.5495   11.1294 N   0  0  0  0  0  0  0  0  0  0  0  0
   27.7542    2.8641   10.0898 C   0  0  0  0  0  0  0  0  0  0  0  0
   28.0561    1.4920    9.5943 C   0  0  0  0  0  0  0  0  0  0  0  0
   26.8356    3.7282    9.4818 C   0  0  0  0  0  0  0  0  0  0  0  0
   25.0410    6.6052   12.2048 C   0  0  0  0  0  0  0  0  0  0  0  0
   25.5879    8.1607   12.7327 S   0  0  0  0  0  0  0  0  0  0  0  0
   25.5400    7.8863   14.4171 C   0  0  0  0  0  0  0  0  0  0  0  0
   25.0959    6.5843   14.4748 C   0  0  0  0  0  0  0  0  0  0  0  0
   24.8624    5.9914   13.3490 N   0  0  0  0  0  0  0  0  0  0  0  0
   24.8955    5.8873   15.7758 C   0  0  0  0  0  0  0  0  0  0  0  0
   24.1240    4.7558   15.8675 C   0  0  0  0  0  0  0  0  0  0  0  0
   23.9245    4.0981   17.0658 C   0  0  0  0  0  0  0  0  0  0  0  0
   24.4998    4.5613   18.2212 C   0  0  0  0  0  0  0  0  0  0  0  0
   25.2902    5.7116   18.1544 C   0  0  0  0  0  0  0  0  0  0  0  0
   25.4682    6.3413   16.9454 C   0  0  0  0  0  0  0  0  0  0  0  0
  1  2  2  0
  2  3  1  0
  2  5  1  0
  3  4  1  0
  5  6  1  0
  5 13  1  0
  6  7  1  0
  7  8  1  0
  7 12  2  0
  8  9  1  0
  9 10  2  0
 10 11  1  0
 10 12  1  0
 13 14  1  0
 13 17  2  0
 14 15  1  0
 15 16  2  0
 16 17  1  0
 16 18  1  0
 18 19  2  0
 18 23  1  0
 19 20  1  0
 20 21  2  0
 21 22  1  0
 22 23  2  0
M  END
$$$$
