
     RDKit          3D

 23 25  0  0  0  0  0  0  0  0999 V2000
   26.9536    4.0387   10.1213 O   0  0  0  0  0  0  0  0  0  0  0  0
   26.6001    4.7666   11.1177 C   0  0  0  0  0  0  0  0  0  0  0  0
   27.6031    4.8597   12.1952 C   0  0  0  0  0  0  0  0  0  0  0  0
   28.8661    4.0847   11.8545 C   0  0  0  0  0  0  0  0  0  0  0  0
   25.3392    5.3652   11.0593 N   0  0  0  0  0  0  0  0  0  0  0  0
   24.6142    5.3887    9.7907 C   0  0  0  0  0  0  0  0  0  0  0  0
   25.0076    6.5611    8.9612 C   0  0  0  0  0  0  0  0  0  0  0  0
   26.0335    6.5819    8.1574 O   0  0  0  0  0  0  0  0  0  0  0  0
   26.1250    7.7504    7.5624 N   0  0  0  0  0  0  0  0  0  0  0  0
   25.1434    8.5592    7.9587 C   0  0  0  0  0  0  0  0  0  0  0  0
   24.8103    9.9618    7.5829 C   0  0  0  0  0  0  0  0  0  0  0  0
   24.4033    7.8002    8.8731 C   0  0  0  0  0  0  0  0  0  0  0  0
   24.6997    5.9654   12.1827 C   0  0  0  0  0  0  0  0  0  0  0  0
   23.5769    7.2832   12.1752 S   0  0  0  0  0  0  0  0  0  0  0  0
   23.2873    7.3771   13.8551 C   0  0  0  0  0  0  0  0  0  0  0  0
   24.0900    6.3657   14.3332 C   0  0  0  0  0  0  0  0  0  0  0  0
   24.7718    5.6938   13.4630 N   0  0  0  0  0  0  0  0  0  0  0  0
   24.1726    6.0597   15.7885 C   0  0  0  0  0  0  0  0  0  0  0  0
   24.9632    5.0415   16.2596 C   0  0  0  0  0  0  0  0  0  0  0  0
   25.0498    4.7414   17.6054 C   0  0  0  0  0  0  0  0  0  0  0  0
   24.3375    5.4622   18.5291 C   0  0  0  0  0  0  0  0  0  0  0  0
   23.5251    6.5044   18.0749 C   0  0  0  0  0  0  0  0  0  0  0  0
   23.4624    6.7765   16.7288 C   0  0  0  0  0  0  0  0  0  0  0  0
  1  2  2  0
  2  3  1  0
  2  5  1  0
  3  4  1  0
  5  6  1  0
  5 13  1  0
  6  7  1  0
  7  8  1  0
  7 12  2  0
  8  9  1  0
  9 10  2  0
 10 11  1  0
 10 12  1  0
 13 14  1  0
 13 17  2  0
 14 15  1  0
 15 16  2  0
 16 17  1  0
 16 18  1  0
 18 19  2  0
 18 23  1  0
 19 20  1  0
 20 21  2  0
 21 22  1  0
 22 23  2  0
M  END
$$$$
