
     RDKit          3D

 23 25  0  0  0  0  0  0  0  0999 V2000
   28.0505    3.6247    8.9333 O   0  0  0  0  0  0  0  0  0  0  0  0
   27.3951    4.1898    9.8812 C   0  0  0  0  0  0  0  0  0  0  0  0
   27.8381    3.8192   11.2384 C   0  0  0  0  0  0  0  0  0  0  0  0
   29.0632    2.9193   11.2026 C   0  0  0  0  0  0  0  0  0  0  0  0
   26.3677    5.0640    9.5181 N   0  0  0  0  0  0  0  0  0  0  0  0
   26.2785    5.5319    8.1366 C   0  0  0  0  0  0  0  0  0  0  0  0
   27.0060    6.8177    7.9499 C   0  0  0  0  0  0  0  0  0  0  0  0
   26.6505    7.9488    8.4915 O   0  0  0  0  0  0  0  0  0  0  0  0
   27.4848    8.9038    8.1455 N   0  0  0  0  0  0  0  0  0  0  0  0
   28.4405    8.4289    7.3482 C   0  0  0  0  0  0  0  0  0  0  0  0
   29.6041    9.0957    6.6995 C   0  0  0  0  0  0  0  0  0  0  0  0
   28.1443    7.0678    7.2084 C   0  0  0  0  0  0  0  0  0  0  0  0
   25.3781    5.5374   10.4282 C   0  0  0  0  0  0  0  0  0  0  0  0
   23.8126    6.1700   10.0458 S   0  0  0  0  0  0  0  0  0  0  0  0
   23.2722    6.4828   11.6347 C   0  0  0  0  0  0  0  0  0  0  0  0
   24.3531    6.0724   12.3825 C   0  0  0  0  0  0  0  0  0  0  0  0
   25.3746    5.6108   11.7369 N   0  0  0  0  0  0  0  0  0  0  0  0
   24.3485    6.1585   13.8695 C   0  0  0  0  0  0  0  0  0  0  0  0
   25.4066    5.7001   14.6139 C   0  0  0  0  0  0  0  0  0  0  0  0
   25.4184    5.7690   15.9936 C   0  0  0  0  0  0  0  0  0  0  0  0
   24.3567    6.3059   16.6754 C   0  0  0  0  0  0  0  0  0  0  0  0
   23.2670    6.7800   15.9404 C   0  0  0  0  0  0  0  0  0  0  0  0
   23.2881    6.6965   14.5683 C   0  0  0  0  0  0  0  0  0  0  0  0
  1  2  2  0
  2  3  1  0
  2  5  1  0
  3  4  1  0
  5  6  1  0
  5 13  1  0
  6  7  1  0
  7  8  1  0
  7 12  2  0
  8  9  1  0
  9 10  2  0
 10 11  1  0
 10 12  1  0
 13 14  1  0
 13 17  2  0
 14 15  1  0
 15 16  2  0
 16 17  1  0
 16 18  1  0
 18 19  2  0
 18 23  1  0
 19 20  1  0
 20 21  2  0
 21 22  1  0
 22 23  2  0
M  END
$$$$
