
     RDKit          3D

 23 25  0  0  0  0  0  0  0  0999 V2000
   26.1555    3.7492    6.7960 O   0  0  0  0  0  0  0  0  0  0  0  0
   25.4377    4.3762    7.6156 C   0  0  0  0  0  0  0  0  0  0  0  0
   24.1101    4.8262    7.1873 C   0  0  0  0  0  0  0  0  0  0  0  0
   23.9713    4.7369    5.6658 C   0  0  0  0  0  0  0  0  0  0  0  0
   25.9028    4.6493    8.9440 N   0  0  0  0  0  0  0  0  0  0  0  0
   27.2503    4.3876    9.3694 C   0  0  0  0  0  0  0  0  0  0  0  0
   27.9367    5.6679    9.6537 C   0  0  0  0  0  0  0  0  0  0  0  0
   28.0687    6.3019   10.7858 O   0  0  0  0  0  0  0  0  0  0  0  0
   28.7406    7.4037   10.6430 N   0  0  0  0  0  0  0  0  0  0  0  0
   29.0968    7.5516    9.3550 C   0  0  0  0  0  0  0  0  0  0  0  0
   29.8672    8.6406    8.7062 C   0  0  0  0  0  0  0  0  0  0  0  0
   28.5943    6.4548    8.7036 C   0  0  0  0  0  0  0  0  0  0  0  0
   24.9436    5.2270    9.8991 C   0  0  0  0  0  0  0  0  0  0  0  0
   23.1584    5.4757    9.2570 S   0  0  0  0  0  0  0  0  0  0  0  0
   22.6872    6.1497   10.8688 C   0  0  0  0  0  0  0  0  0  0  0  0
   23.8033    6.1109   11.6119 C   0  0  0  0  0  0  0  0  0  0  0  0
   24.8475    5.6138   10.9577 N   0  0  0  0  0  0  0  0  0  0  0  0
   23.8566    6.5757   13.0141 C   0  0  0  0  0  0  0  0  0  0  0  0
   25.0104    6.6130   13.7603 C   0  0  0  0  0  0  0  0  0  0  0  0
   25.0551    7.0458   15.0632 C   0  0  0  0  0  0  0  0  0  0  0  0
   23.8939    7.4669   15.6667 C   0  0  0  0  0  0  0  0  0  0  0  0
   22.7010    7.4526   14.9664 C   0  0  0  0  0  0  0  0  0  0  0  0
   22.7197    7.0077   13.6628 C   0  0  0  0  0  0  0  0  0  0  0  0
  1  2  2  0
  3  2  1  1
  2  5  1  0
  4  3  1  6
  6  5  1  1
  5 13  1  0
  6  7  1  0
  7  8  1  0
  7 12  2  0
  8  9  1  0
  9 10  2  0
 11 10  1  6
 10 12  1  0
 13 14  1  0
 13 17  2  0
 14 15  1  0
 15 16  2  0
 16 17  1  0
 16 18  1  0
 18 19  2  0
 18 23  1  0
 19 20  1  0
 20 21  2  0
 21 22  1  0
 22 23  2  0
M  END
$$$$
