
     RDKit          3D

 23 25  0  0  0  0  0  0  0  0999 V2000
   26.9172    4.8748    9.5489 O   0  0  0  0  0  0  0  0  0  0  0  0
   26.6956    5.3480   10.6922 C   0  0  0  0  0  0  0  0  0  0  0  0
   27.3435    4.7237   11.8494 C   0  0  0  0  0  0  0  0  0  0  0  0
   28.6492    4.0400   11.4371 C   0  0  0  0  0  0  0  0  0  0  0  0
   25.8270    6.4751   10.8676 N   0  0  0  0  0  0  0  0  0  0  0  0
   25.2129    7.1669    9.7678 C   0  0  0  0  0  0  0  0  0  0  0  0
   23.8758    6.5888    9.5046 C   0  0  0  0  0  0  0  0  0  0  0  0
   23.5530    5.3705    9.1693 O   0  0  0  0  0  0  0  0  0  0  0  0
   22.2699    5.2373    9.0229 N   0  0  0  0  0  0  0  0  0  0  0  0
   21.6633    6.4125    9.2655 C   0  0  0  0  0  0  0  0  0  0  0  0
   20.2214    6.7582    9.2258 C   0  0  0  0  0  0  0  0  0  0  0  0
   22.6692    7.2912    9.5753 C   0  0  0  0  0  0  0  0  0  0  0  0
   25.5616    6.9265   12.2430 C   0  0  0  0  0  0  0  0  0  0  0  0
   26.4953    8.4969   12.8113 S   0  0  0  0  0  0  0  0  0  0  0  0
   25.6907    8.3738   14.4274 C   0  0  0  0  0  0  0  0  0  0  0  0
   24.9054    7.2888   14.3532 C   0  0  0  0  0  0  0  0  0  0  0  0
   24.9668    6.6811   13.1733 N   0  0  0  0  0  0  0  0  0  0  0  0
   24.0614    6.8246   15.4745 C   0  0  0  0  0  0  0  0  0  0  0  0
   24.1434    7.3314   16.7495 C   0  0  0  0  0  0  0  0  0  0  0  0
   23.3568    6.8967   17.7885 C   0  0  0  0  0  0  0  0  0  0  0  0
   22.4346    5.9038   17.5572 C   0  0  0  0  0  0  0  0  0  0  0  0
   22.3057    5.3544   16.2943 C   0  0  0  0  0  0  0  0  0  0  0  0
   23.1226    5.8317   15.2930 C   0  0  0  0  0  0  0  0  0  0  0  0
  1  2  2  0
  3  2  1  1
  2  5  1  0
  4  3  1  6
  6  5  1  1
  5 13  1  0
  6  7  1  0
  7  8  1  0
  7 12  2  0
  8  9  1  0
  9 10  2  0
 11 10  1  6
 10 12  1  0
 13 14  1  0
 13 17  2  0
 14 15  1  0
 15 16  2  0
 16 17  1  0
 16 18  1  0
 18 19  2  0
 18 23  1  0
 19 20  1  0
 20 21  2  0
 21 22  1  0
 22 23  2  0
M  END
$$$$
