
     RDKit          3D

 23 25  0  0  0  0  0  0  0  0999 V2000
   27.6001    4.3006   10.1027 O   0  0  0  0  0  0  0  0  0  0  0  0
   27.1008    4.9993   11.0566 C   0  0  0  0  0  0  0  0  0  0  0  0
   27.8828    4.9774   12.3070 C   0  0  0  0  0  0  0  0  0  0  0  0
   29.1236    4.1080   12.1775 C   0  0  0  0  0  0  0  0  0  0  0  0
   25.9067    5.6769   10.7981 N   0  0  0  0  0  0  0  0  0  0  0  0
   25.5777    6.0525    9.4248 C   0  0  0  0  0  0  0  0  0  0  0  0
   24.9302    4.9283    8.6939 C   0  0  0  0  0  0  0  0  0  0  0  0
   25.5513    3.8513    8.3023 O   0  0  0  0  0  0  0  0  0  0  0  0
   24.7191    3.0417    7.6860 N   0  0  0  0  0  0  0  0  0  0  0  0
   23.4943    3.5642    7.6480 C   0  0  0  0  0  0  0  0  0  0  0  0
   22.2201    3.0477    7.0746 C   0  0  0  0  0  0  0  0  0  0  0  0
   23.6123    4.7970    8.3011 C   0  0  0  0  0  0  0  0  0  0  0  0
   24.9673    6.0310   11.8099 C   0  0  0  0  0  0  0  0  0  0  0  0
   23.4328    6.8039   11.5978 S   0  0  0  0  0  0  0  0  0  0  0  0
   22.9479    6.8547   13.2340 C   0  0  0  0  0  0  0  0  0  0  0  0
   24.0201    6.2602   13.8609 C   0  0  0  0  0  0  0  0  0  0  0  0
   24.9981    5.8685   13.1102 N   0  0  0  0  0  0  0  0  0  0  0  0
   24.0546    6.0783   15.3388 C   0  0  0  0  0  0  0  0  0  0  0  0
   23.1115    6.6570   16.1509 C   0  0  0  0  0  0  0  0  0  0  0  0
   23.1294    6.5018   17.5236 C   0  0  0  0  0  0  0  0  0  0  0  0
   24.1053    5.7527   18.1292 C   0  0  0  0  0  0  0  0  0  0  0  0
   25.0772    5.1527   17.3242 C   0  0  0  0  0  0  0  0  0  0  0  0
   25.0295    5.3274   15.9615 C   0  0  0  0  0  0  0  0  0  0  0  0
  1  2  2  0
  2  3  1  0
  2  5  1  0
  3  4  1  0
  5  6  1  0
  5 13  1  0
  6  7  1  0
  7  8  1  0
  7 12  2  0
  8  9  1  0
  9 10  2  0
 10 11  1  0
 10 12  1  0
 13 14  1  0
 13 17  2  0
 14 15  1  0
 15 16  2  0
 16 17  1  0
 16 18  1  0
 18 19  2  0
 18 23  1  0
 19 20  1  0
 20 21  2  0
 21 22  1  0
 22 23  2  0
M  END
$$$$
