
     RDKit          3D

 23 25  0  0  0  0  0  0  0  0999 V2000
   27.6440    7.1198    9.7979 O   0  0  0  0  0  0  0  0  0  0  0  0
   26.8493    7.0320   10.8021 C   0  0  0  0  0  0  0  0  0  0  0  0
   27.2410    7.8477   11.9669 C   0  0  0  0  0  0  0  0  0  0  0  0
   28.4952    8.6604   11.6865 C   0  0  0  0  0  0  0  0  0  0  0  0
   25.7393    6.1941   10.6702 N   0  0  0  0  0  0  0  0  0  0  0  0
   25.5298    5.4727    9.4168 C   0  0  0  0  0  0  0  0  0  0  0  0
   25.9063    4.0378    9.5459 C   0  0  0  0  0  0  0  0  0  0  0  0
   25.0510    3.0563    9.6119 O   0  0  0  0  0  0  0  0  0  0  0  0
   25.6804    1.9075    9.7209 N   0  0  0  0  0  0  0  0  0  0  0  0
   26.9997    2.0918    9.7303 C   0  0  0  0  0  0  0  0  0  0  0  0
   28.1289    1.1253    9.8303 C   0  0  0  0  0  0  0  0  0  0  0  0
   27.1668    3.4772    9.6175 C   0  0  0  0  0  0  0  0  0  0  0  0
   24.7783    5.9917   11.7032 C   0  0  0  0  0  0  0  0  0  0  0  0
   23.0578    5.8952   11.5365 S   0  0  0  0  0  0  0  0  0  0  0  0
   22.6597    5.6373   13.1765 C   0  0  0  0  0  0  0  0  0  0  0  0
   23.9028    5.6407   13.7688 C   0  0  0  0  0  0  0  0  0  0  0  0
   24.9234    5.8208   12.9947 N   0  0  0  0  0  0  0  0  0  0  0  0
   24.0659    5.4486   15.2368 C   0  0  0  0  0  0  0  0  0  0  0  0
   23.0171    5.6372   16.1018 C   0  0  0  0  0  0  0  0  0  0  0  0
   23.1506    5.4666   17.4662 C   0  0  0  0  0  0  0  0  0  0  0  0
   24.3542    5.0974   18.0096 C   0  0  0  0  0  0  0  0  0  0  0  0
   25.4378    4.8988   17.1499 C   0  0  0  0  0  0  0  0  0  0  0  0
   25.2701    5.0768   15.7971 C   0  0  0  0  0  0  0  0  0  0  0  0
  1  2  2  0
  2  3  1  0
  2  5  1  0
  3  4  1  0
  5  6  1  0
  5 13  1  0
  6  7  1  0
  7  8  1  0
  7 12  2  0
  8  9  1  0
  9 10  2  0
 10 11  1  0
 10 12  1  0
 13 14  1  0
 13 17  2  0
 14 15  1  0
 15 16  2  0
 16 17  1  0
 16 18  1  0
 18 19  2  0
 18 23  1  0
 19 20  1  0
 20 21  2  0
 21 22  1  0
 22 23  2  0
M  END
$$$$
