
     RDKit          3D

 22 22  0  0  0  0  0  0  0  0999 V2000
   26.4882  227.0606   32.2308 O   0  0  0  0  0  0  0  0  0  0  0  0
   26.4578  228.1854   32.9964 C   0  0  0  0  0  0  0  0  0  0  0  0
   27.4380  228.3064   34.0778 C   0  0  0  0  0  0  0  0  0  0  0  0
   28.6932  227.9559   34.0920 C   0  0  0  0  0  0  0  0  0  0  0  0
   26.8521  228.9377   35.3329 C   0  0  0  0  0  0  0  0  0  0  0  0
   26.6760  230.3905   35.1692 C   0  0  0  0  0  0  0  0  0  0  0  0
   25.5026  230.9688   34.7309 C   0  0  0  0  0  0  0  0  0  0  0  0
   25.3653  232.3315   34.5867 C   0  0  0  0  0  0  0  0  0  0  0  0
   26.4085  233.1821   34.8786 C   0  0  0  0  0  0  0  0  0  0  0  0
   27.5781  232.6167   35.3147 C   0  0  0  0  0  0  0  0  0  0  0  0
   27.7202  231.2665   35.4595 C   0  0  0  0  0  0  0  0  0  0  0  0
   26.2405  234.6553   34.7161 C   0  0  0  0  0  0  0  0  0  0  0  0
   29.4585  227.1487   33.1486 C   0  0  0  0  0  0  0  0  0  0  0  0
   29.7161  225.8947   33.7505 O   0  0  0  0  0  0  0  0  0  0  0  0
   30.4732  224.8460   32.6512 P   0  0  1  0  0  5  0  0  0  0  0  0
   29.2617  224.0366   31.8008 O   0  0  0  0  0  0  0  0  0  0  0  0
   31.3018  225.6345   31.6640 O   0  0  0  0  0  0  0  0  0  0  0  0
   31.4325  223.7480   33.4839 O   0  0  0  0  0  0  0  0  0  0  0  0
   29.2981  224.5212   30.1842 P   0  0  2  0  0  5  0  0  0  0  0  0
   28.2913  223.4917   29.2976 O   0  0  0  0  0  0  0  0  0  0  0  0
   30.6833  224.4083   29.6171 O   0  0  0  0  0  0  0  0  0  0  0  0
   28.7003  226.0924   30.0029 O   0  0  0  0  0  0  0  0  0  0  0  0
  2  1  1  1
  2  3  1  0
  3  4  2  0
  5  3  1  1
  4 13  1  0
  5  6  1  0
  6  7  2  0
  6 11  1  0
  7  8  1  0
  8  9  2  0
  9 10  1  0
 12  9  1  6
 10 11  2  0
 13 14  1  6
 14 15  1  0
 15 16  1  0
 15 17  2  0
 15 18  1  1
 16 19  1  0
 19 20  1  6
 19 21  2  0
 19 22  1  0
M  END
$$$$
