
     RDKit          3D

 22 22  0  0  0  0  0  0  0  0999 V2000
   30.0361  229.6322   34.5840 O   0  0  0  0  0  0  0  0  0  0  0  0
   29.3415  229.0399   33.5458 C   0  0  0  0  0  0  0  0  0  0  0  0
   27.9563  228.7290   34.0524 C   0  0  0  0  0  0  0  0  0  0  0  0
   27.3586  227.6942   33.5033 C   0  0  0  0  0  0  0  0  0  0  0  0
   27.4050  229.6154   35.0973 C   0  0  0  0  0  0  0  0  0  0  0  0
   25.9976  230.0410   34.7735 C   0  0  0  0  0  0  0  0  0  0  0  0
   24.9682  229.4809   35.5126 C   0  0  0  0  0  0  0  0  0  0  0  0
   23.6806  229.8617   35.2072 C   0  0  0  0  0  0  0  0  0  0  0  0
   23.3820  230.7652   34.2097 C   0  0  0  0  0  0  0  0  0  0  0  0
   24.4285  231.2948   33.5036 C   0  0  0  0  0  0  0  0  0  0  0  0
   25.7258  230.9453   33.7722 C   0  0  0  0  0  0  0  0  0  0  0  0
   21.9693  231.1674   33.8930 C   0  0  0  0  0  0  0  0  0  0  0  0
   27.6410  227.1175   32.1636 C   0  0  0  0  0  0  0  0  0  0  0  0
   29.0096  226.8583   32.1371 O   0  0  0  0  0  0  0  0  0  0  0  0
   29.5289  226.1129   30.7344 P   0  0  1  0  0  5  0  0  0  0  0  0
   29.0498  224.4948   30.6530 O   0  0  0  0  0  0  0  0  0  0  0  0
   28.8892  226.8487   29.5579 O   0  0  0  0  0  0  0  0  0  0  0  0
   31.2145  226.1500   30.5651 O   0  0  0  0  0  0  0  0  0  0  0  0
   29.8924  223.5708   31.7892 P   0  0  2  0  0  5  0  0  0  0  0  0
   29.2606  223.7512   33.3465 O   0  0  0  0  0  0  0  0  0  0  0  0
   31.3605  223.9586   31.8337 O   0  0  0  0  0  0  0  0  0  0  0  0
   29.7807  221.9092   31.4011 O   0  0  0  0  0  0  0  0  0  0  0  0
  1  2  1  0
  2  3  1  0
  3  4  2  0
  3  5  1  0
  4 13  1  0
  5  6  1  0
  6  7  2  0
  6 11  1  0
  7  8  1  0
  8  9  2  0
  9 10  1  0
  9 12  1  0
 10 11  2  0
 13 14  1  0
 14 15  1  0
 15 16  1  0
 15 17  2  0
 15 18  1  6
 16 19  1  0
 19 20  1  1
 19 21  2  0
 19 22  1  0
M  END
$$$$
