
     RDKit          3D

 22 22  0  0  0  0  0  0  0  0999 V2000
   27.5790  227.5621   36.9953 O   0  0  0  0  0  0  0  0  0  0  0  0
   27.2348  228.7294   36.3394 C   0  0  0  0  0  0  0  0  0  0  0  0
   27.7217  228.6057   34.9182 C   0  0  0  0  0  0  0  0  0  0  0  0
   27.3705  227.5108   34.2799 C   0  0  0  0  0  0  0  0  0  0  0  0
   28.5485  229.7095   34.3895 C   0  0  0  0  0  0  0  0  0  0  0  0
   27.8015  231.0165   34.4089 C   0  0  0  0  0  0  0  0  0  0  0  0
   26.5189  231.0342   33.8852 C   0  0  0  0  0  0  0  0  0  0  0  0
   25.8414  232.2329   33.8923 C   0  0  0  0  0  0  0  0  0  0  0  0
   26.3825  233.3978   34.3931 C   0  0  0  0  0  0  0  0  0  0  0  0
   27.6524  233.3365   34.9011 C   0  0  0  0  0  0  0  0  0  0  0  0
   28.3644  232.1661   34.9149 C   0  0  0  0  0  0  0  0  0  0  0  0
   25.6254  234.6956   34.3914 C   0  0  0  0  0  0  0  0  0  0  0  0
   27.7748  227.1202   32.9046 C   0  0  0  0  0  0  0  0  0  0  0  0
   29.1669  227.1708   32.8839 O   0  0  0  0  0  0  0  0  0  0  0  0
   29.8612  226.1897   31.7228 P   0  0  1  0  0  5  0  0  0  0  0  0
   29.3800  224.5773   31.8745 O   0  0  0  0  0  0  0  0  0  0  0  0
   29.3928  226.6899   30.3571 O   0  0  0  0  0  0  0  0  0  0  0  0
   31.5547  226.2188   31.7763 O   0  0  0  0  0  0  0  0  0  0  0  0
   30.0453  223.6425   30.6342 P   0  0  2  0  0  5  0  0  0  0  0  0
   29.7799  221.9906   30.8739 O   0  0  0  0  0  0  0  0  0  0  0  0
   31.5442  223.8627   30.5230 O   0  0  0  0  0  0  0  0  0  0  0  0
   29.3242  224.0458   29.1371 O   0  0  0  0  0  0  0  0  0  0  0  0
  1  2  1  0
  2  3  1  0
  3  4  2  0
  3  5  1  0
  4 13  1  0
  5  6  1  0
  6  7  2  0
  6 11  1  0
  7  8  1  0
  8  9  2  0
  9 10  1  0
  9 12  1  0
 10 11  2  0
 13 14  1  0
 14 15  1  0
 15 16  1  0
 15 17  2  0
 15 18  1  6
 16 19  1  0
 19 20  1  1
 19 21  2  0
 19 22  1  0
M  END
$$$$
