
     RDKit          3D

 22 22  0  0  0  0  0  0  0  0999 V2000
   25.3802  226.9511   33.6713 O   0  0  0  0  0  0  0  0  0  0  0  0
   26.0809  228.0565   33.2980 C   0  0  0  0  0  0  0  0  0  0  0  0
   27.4184  228.2450   33.8641 C   0  0  0  0  0  0  0  0  0  0  0  0
   28.5809  228.0529   33.3071 C   0  0  0  0  0  0  0  0  0  0  0  0
   27.3821  228.7360   35.3044 C   0  0  0  0  0  0  0  0  0  0  0  0
   26.9115  230.1292   35.3833 C   0  0  0  0  0  0  0  0  0  0  0  0
   27.7298  231.2204   35.1753 C   0  0  0  0  0  0  0  0  0  0  0  0
   27.2630  232.5134   35.2553 C   0  0  0  0  0  0  0  0  0  0  0  0
   25.9426  232.7717   35.5503 C   0  0  0  0  0  0  0  0  0  0  0  0
   25.1221  231.6939   35.7585 C   0  0  0  0  0  0  0  0  0  0  0  0
   25.5792  230.4098   35.6805 C   0  0  0  0  0  0  0  0  0  0  0  0
   25.4558  234.1792   35.6326 C   0  0  0  0  0  0  0  0  0  0  0  0
   28.9252  227.4442   32.0272 C   0  0  0  0  0  0  0  0  0  0  0  0
   28.3504  226.1524   31.9857 O   0  0  0  0  0  0  0  0  0  0  0  0
   28.5680  225.4478   30.4567 P   0  0  1  0  0  5  0  0  0  0  0  0
   30.1204  224.7889   30.4145 O   0  0  0  0  0  0  0  0  0  0  0  0
   27.5714  224.3311   30.2502 O   0  0  0  0  0  0  0  0  0  0  0  0
   28.3998  226.6179   29.2642 O   0  0  0  0  0  0  0  0  0  0  0  0
   30.2423  223.5770   31.5833 P   0  0  2  0  0  5  0  0  0  0  0  0
   29.8847  224.2542   33.0909 O   0  0  0  0  0  0  0  0  0  0  0  0
   31.6371  223.0261   31.6470 O   0  0  0  0  0  0  0  0  0  0  0  0
   29.1205  222.3431   31.3043 O   0  0  0  0  0  0  0  0  0  0  0  0
  2  1  1  1
  2  3  1  0
  3  4  2  0
  5  3  1  1
  4 13  1  0
  5  6  1  0
  6  7  2  0
  6 11  1  0
  7  8  1  0
  8  9  2  0
  9 10  1  0
 12  9  1  6
 10 11  2  0
 13 14  1  6
 14 15  1  0
 15 16  1  0
 15 17  2  0
 15 18  1  6
 16 19  1  0
 19 20  1  1
 19 21  2  0
 19 22  1  0
M  END
$$$$
