
     RDKit          3D

 22 22  0  0  0  0  0  0  0  0999 V2000
   24.7090  228.6072   31.4204 O   0  0  0  0  0  0  0  0  0  0  0  0
   25.0950  227.8249   32.4929 C   0  0  0  0  0  0  0  0  0  0  0  0
   26.2548  228.5191   33.1601 C   0  0  0  0  0  0  0  0  0  0  0  0
   27.4414  227.9917   32.9526 C   0  0  0  0  0  0  0  0  0  0  0  0
   25.9476  229.7056   33.9845 C   0  0  0  0  0  0  0  0  0  0  0  0
   26.9753  229.9068   35.0662 C   0  0  0  0  0  0  0  0  0  0  0  0
   27.7768  231.0346   34.9926 C   0  0  0  0  0  0  0  0  0  0  0  0
   28.7247  231.2111   35.9757 C   0  0  0  0  0  0  0  0  0  0  0  0
   28.9033  230.3222   37.0141 C   0  0  0  0  0  0  0  0  0  0  0  0
   28.0905  229.2210   37.0494 C   0  0  0  0  0  0  0  0  0  0  0  0
   27.1338  229.0040   36.0929 C   0  0  0  0  0  0  0  0  0  0  0  0
   29.9438  230.5342   38.0772 C   0  0  0  0  0  0  0  0  0  0  0  0
   27.7645  226.5436   32.8739 C   0  0  0  0  0  0  0  0  0  0  0  0
   27.7767  226.2253   31.5176 O   0  0  0  0  0  0  0  0  0  0  0  0
   28.0020  224.5988   31.2076 P   0  0  1  0  0  5  0  0  0  0  0  0
   29.4172  224.0018   31.9112 O   0  0  0  0  0  0  0  0  0  0  0  0
   26.8224  223.8453   31.8205 O   0  0  0  0  0  0  0  0  0  0  0  0
   28.0797  224.2585   29.5493 O   0  0  0  0  0  0  0  0  0  0  0  0
   30.7769  224.6647   31.1586 P   0  0  2  0  0  5  0  0  0  0  0  0
   30.8745  224.2288   29.5285 O   0  0  0  0  0  0  0  0  0  0  0  0
   32.0574  224.2130   31.8396 O   0  0  0  0  0  0  0  0  0  0  0  0
   30.7078  226.3726   31.2090 O   0  0  0  0  0  0  0  0  0  0  0  0
  1  2  1  0
  2  3  1  0
  3  4  2  0
  3  5  1  0
  4 13  1  0
  5  6  1  0
  6  7  2  0
  6 11  1  0
  7  8  1  0
  8  9  2  0
  9 10  1  0
  9 12  1  0
 10 11  2  0
 13 14  1  0
 14 15  1  0
 15 16  1  0
 15 17  2  0
 15 18  1  6
 16 19  1  0
 19 20  1  6
 19 21  2  0
 19 22  1  0
M  END
$$$$
