
     RDKit          3D

 22 22  0  0  0  0  0  0  0  0999 V2000
   24.5192  229.6205   31.8967 O   0  0  0  0  0  0  0  0  0  0  0  0
   24.5447  228.4415   32.6182 C   0  0  0  0  0  0  0  0  0  0  0  0
   25.9865  228.1458   32.9436 C   0  0  0  0  0  0  0  0  0  0  0  0
   26.7933  228.0004   31.9153 C   0  0  0  0  0  0  0  0  0  0  0  0
   26.3474  228.0365   34.3717 C   0  0  0  0  0  0  0  0  0  0  0  0
   26.8292  229.3528   34.9212 C   0  0  0  0  0  0  0  0  0  0  0  0
   28.1973  229.5507   35.0146 C   0  0  0  0  0  0  0  0  0  0  0  0
   28.6366  230.7502   35.5289 C   0  0  0  0  0  0  0  0  0  0  0  0
   27.7800  231.7458   35.9475 C   0  0  0  0  0  0  0  0  0  0  0  0
   26.4359  231.5096   35.8379 C   0  0  0  0  0  0  0  0  0  0  0  0
   25.9530  230.3312   35.3325 C   0  0  0  0  0  0  0  0  0  0  0  0
   28.2807  233.0480   36.5055 C   0  0  0  0  0  0  0  0  0  0  0  0
   28.0101  227.1498   31.8587 C   0  0  0  0  0  0  0  0  0  0  0  0
   28.0026  226.5509   30.6008 O   0  0  0  0  0  0  0  0  0  0  0  0
   29.2990  225.5316   30.3304 P   0  0  1  0  0  5  0  0  0  0  0  0
   30.2977  225.3908   31.6857 O   0  0  0  0  0  0  0  0  0  0  0  0
   28.7375  224.1451   30.0185 O   0  0  0  0  0  0  0  0  0  0  0  0
   30.2691  226.0435   29.0387 O   0  0  0  0  0  0  0  0  0  0  0  0
   30.0522  223.9037   32.4492 P   0  0  2  0  0  5  0  0  0  0  0  0
   30.5384  222.6065   31.4809 O   0  0  0  0  0  0  0  0  0  0  0  0
   28.5882  223.7007   32.8002 O   0  0  0  0  0  0  0  0  0  0  0  0
   30.9729  223.8175   33.8876 O   0  0  0  0  0  0  0  0  0  0  0  0
  1  2  1  0
  2  3  1  0
  3  4  2  0
  3  5  1  0
  4 13  1  0
  5  6  1  0
  6  7  2  0
  6 11  1  0
  7  8  1  0
  8  9  2  0
  9 10  1  0
  9 12  1  0
 10 11  2  0
 13 14  1  0
 14 15  1  0
 15 16  1  0
 15 17  2  0
 15 18  1  6
 16 19  1  0
 19 20  1  6
 19 21  2  0
 19 22  1  0
M  END
$$$$
