
     RDKit          3D

 22 22  0  0  0  0  0  0  0  0999 V2000
   29.4711  229.0379   36.9425 O   0  0  0  0  0  0  0  0  0  0  0  0
   29.2783  229.3445   35.6306 C   0  0  0  0  0  0  0  0  0  0  0  0
   28.7655  228.2940   34.7483 C   0  0  0  0  0  0  0  0  0  0  0  0
   29.4126  227.5431   33.9023 C   0  0  0  0  0  0  0  0  0  0  0  0
   27.2623  228.0961   34.8838 C   0  0  0  0  0  0  0  0  0  0  0  0
   26.5207  229.2597   34.3695 C   0  0  0  0  0  0  0  0  0  0  0  0
   26.1414  229.3962   33.0500 C   0  0  0  0  0  0  0  0  0  0  0  0
   25.4479  230.4958   32.5959 C   0  0  0  0  0  0  0  0  0  0  0  0
   25.1010  231.5166   33.4531 C   0  0  0  0  0  0  0  0  0  0  0  0
   25.4735  231.3898   34.7657 C   0  0  0  0  0  0  0  0  0  0  0  0
   26.1611  230.3020   35.2218 C   0  0  0  0  0  0  0  0  0  0  0  0
   24.3498  232.6997   32.9423 C   0  0  0  0  0  0  0  0  0  0  0  0
   28.9186  226.6921   32.8258 C   0  0  0  0  0  0  0  0  0  0  0  0
   29.1858  227.3384   31.5962 O   0  0  0  0  0  0  0  0  0  0  0  0
   29.2567  226.2112   30.3290 P   0  0  1  0  0  5  0  0  0  0  0  0
   30.5722  225.1964   30.6214 O   0  0  0  0  0  0  0  0  0  0  0  0
   28.0020  225.3696   30.3085 O   0  0  0  0  0  0  0  0  0  0  0  0
   29.4542  227.0134   28.8671 O   0  0  0  0  0  0  0  0  0  0  0  0
   30.0512  223.8469   31.4914 P   0  0  2  0  0  5  0  0  0  0  0  0
   28.7857  223.1197   30.6375 O   0  0  0  0  0  0  0  0  0  0  0  0
   29.5259  224.2434   32.8405 O   0  0  0  0  0  0  0  0  0  0  0  0
   31.2854  222.7007   31.6397 O   0  0  0  0  0  0  0  0  0  0  0  0
  2  1  1  1
  2  3  1  0
  3  4  2  0
  5  3  1  1
  4 13  1  0
  5  6  1  0
  6  7  2  0
  6 11  1  0
  7  8  1  0
  8  9  2  0
  9 10  1  0
 12  9  1  6
 10 11  2  0
 13 14  1  6
 14 15  1  0
 15 16  1  0
 15 17  2  0
 15 18  1  6
 16 19  1  0
 19 20  1  6
 19 21  2  0
 19 22  1  0
M  END
$$$$
