
     RDKit          3D

 22 22  0  0  0  0  0  0  0  0999 V2000
   31.2383  227.7245   35.9169 O   0  0  0  0  0  0  0  0  0  0  0  0
   30.0577  228.3971   35.8393 C   0  0  0  0  0  0  0  0  0  0  0  0
   29.0396  227.8925   34.9153 C   0  0  0  0  0  0  0  0  0  0  0  0
   29.1953  227.2989   33.7656 C   0  0  0  0  0  0  0  0  0  0  0  0
   27.6225  228.1196   35.4227 C   0  0  0  0  0  0  0  0  0  0  0  0
   27.1777  229.5002   35.1685 C   0  0  0  0  0  0  0  0  0  0  0  0
   27.3792  230.5385   36.0544 C   0  0  0  0  0  0  0  0  0  0  0  0
   26.9525  231.8211   35.7909 C   0  0  0  0  0  0  0  0  0  0  0  0
   26.2987  232.1216   34.6164 C   0  0  0  0  0  0  0  0  0  0  0  0
   26.0941  231.0966   33.7303 C   0  0  0  0  0  0  0  0  0  0  0  0
   26.5148  229.8231   33.9859 C   0  0  0  0  0  0  0  0  0  0  0  0
   25.8441  233.5169   34.3492 C   0  0  0  0  0  0  0  0  0  0  0  0
   28.2290  226.6008   32.9253 C   0  0  0  0  0  0  0  0  0  0  0  0
   28.7623  226.5175   31.6178 O   0  0  0  0  0  0  0  0  0  0  0  0
   27.8788  225.4132   30.6789 P   0  0  1  0  0  5  0  0  0  0  0  0
   28.3056  223.8602   31.1809 O   0  0  0  0  0  0  0  0  0  0  0  0
   26.3975  225.5982   30.9119 O   0  0  0  0  0  0  0  0  0  0  0  0
   28.2524  225.6232   29.0554 O   0  0  0  0  0  0  0  0  0  0  0  0
   29.9554  223.6230   30.9138 P   0  0  2  0  0  5  0  0  0  0  0  0
   30.7895  224.0575   32.3192 O   0  0  0  0  0  0  0  0  0  0  0  0
   30.4529  224.4942   29.7973 O   0  0  0  0  0  0  0  0  0  0  0  0
   30.2976  221.9962   30.6053 O   0  0  0  0  0  0  0  0  0  0  0  0
  2  1  1  1
  2  3  1  0
  3  4  2  0
  5  3  1  1
  4 13  1  0
  5  6  1  0
  6  7  2  0
  6 11  1  0
  7  8  1  0
  8  9  2  0
  9 10  1  0
 12  9  1  6
 10 11  2  0
 13 14  1  6
 14 15  1  0
 15 16  1  0
 15 17  2  0
 15 18  1  6
 16 19  1  0
 19 20  1  1
 19 21  2  0
 19 22  1  0
M  END
$$$$
