
     RDKit          3D

 22 22  0  0  0  0  0  0  0  0999 V2000
   26.1227  228.5904   30.9906 O   0  0  0  0  0  0  0  0  0  0  0  0
   25.7542  228.3837   32.3069 C   0  0  0  0  0  0  0  0  0  0  0  0
   26.9767  228.6176   33.1571 C   0  0  0  0  0  0  0  0  0  0  0  0
   28.1338  228.5577   32.5350 C   0  0  0  0  0  0  0  0  0  0  0  0
   26.7595  228.8766   34.5949 C   0  0  0  0  0  0  0  0  0  0  0  0
   27.0683  230.3066   34.9507 C   0  0  0  0  0  0  0  0  0  0  0  0
   26.3091  231.2987   34.3516 C   0  0  0  0  0  0  0  0  0  0  0  0
   26.6007  232.6067   34.6684 C   0  0  0  0  0  0  0  0  0  0  0  0
   27.6036  232.9606   35.5456 C   0  0  0  0  0  0  0  0  0  0  0  0
   28.3298  231.9495   36.1153 C   0  0  0  0  0  0  0  0  0  0  0  0
   28.0755  230.6338   35.8299 C   0  0  0  0  0  0  0  0  0  0  0  0
   27.9051  234.3946   35.8778 C   0  0  0  0  0  0  0  0  0  0  0  0
   28.4840  227.6622   31.4023 C   0  0  0  0  0  0  0  0  0  0  0  0
   27.9931  226.4032   31.7413 O   0  0  0  0  0  0  0  0  0  0  0  0
   28.1035  225.2807   30.5082 P   0  0  1  0  0  5  0  0  0  0  0  0
   29.0638  223.9565   30.9305 O   0  0  0  0  0  0  0  0  0  0  0  0
   26.6931  224.7639   30.2281 O   0  0  0  0  0  0  0  0  0  0  0  0
   28.7483  225.9395   29.0862 O   0  0  0  0  0  0  0  0  0  0  0  0
   30.6615  224.4426   31.1872 P   0  0  2  0  0  5  0  0  0  0  0  0
   30.9449  224.8616   32.8000 O   0  0  0  0  0  0  0  0  0  0  0  0
   31.0170  225.6414   30.3245 O   0  0  0  0  0  0  0  0  0  0  0  0
   31.7361  223.1661   30.8132 O   0  0  0  0  0  0  0  0  0  0  0  0
  1  2  1  0
  2  3  1  0
  3  4  2  0
  3  5  1  0
  4 13  1  0
  5  6  1  0
  6  7  2  0
  6 11  1  0
  7  8  1  0
  8  9  2  0
  9 10  1  0
  9 12  1  0
 10 11  2  0
 13 14  1  0
 14 15  1  0
 15 16  1  0
 15 17  2  0
 15 18  1  6
 16 19  1  0
 19 20  1  1
 19 21  2  0
 19 22  1  0
M  END
$$$$
