
     RDKit          3D

 22 22  0  0  0  0  0  0  0  0999 V2000
   30.8675  228.7104   36.8521 O   0  0  0  0  0  0  0  0  0  0  0  0
   30.7508  227.5485   36.1530 C   0  0  0  0  0  0  0  0  0  0  0  0
   29.6326  227.4205   35.2159 C   0  0  0  0  0  0  0  0  0  0  0  0
   29.6585  227.2548   33.9235 C   0  0  0  0  0  0  0  0  0  0  0  0
   28.2776  227.4976   35.9052 C   0  0  0  0  0  0  0  0  0  0  0  0
   27.4065  228.4964   35.2633 C   0  0  0  0  0  0  0  0  0  0  0  0
   26.0735  228.2746   34.9844 C   0  0  0  0  0  0  0  0  0  0  0  0
   25.2814  229.2271   34.3829 C   0  0  0  0  0  0  0  0  0  0  0  0
   25.7960  230.4554   34.0313 C   0  0  0  0  0  0  0  0  0  0  0  0
   27.1191  230.6848   34.3045 C   0  0  0  0  0  0  0  0  0  0  0  0
   27.9093  229.7444   34.9006 C   0  0  0  0  0  0  0  0  0  0  0  0
   24.9221  231.4742   33.3807 C   0  0  0  0  0  0  0  0  0  0  0  0
   28.9258  226.3201   33.0769 C   0  0  0  0  0  0  0  0  0  0  0  0
   29.5176  225.0430   33.2169 O   0  0  0  0  0  0  0  0  0  0  0  0
   30.1503  224.5093   31.7348 P   0  0  1  0  0  5  0  0  0  0  0  0
   28.9104  223.7234   30.9038 O   0  0  0  0  0  0  0  0  0  0  0  0
   30.6051  225.6885   30.9068 O   0  0  0  0  0  0  0  0  0  0  0  0
   31.4265  223.4535   32.0106 O   0  0  0  0  0  0  0  0  0  0  0  0
   28.0761  224.8456   29.9581 P   0  0  2  0  0  5  0  0  0  0  0  0
   27.8696  226.2571   30.8660 O   0  0  0  0  0  0  0  0  0  0  0  0
   26.7141  224.3345   29.5884 O   0  0  0  0  0  0  0  0  0  0  0  0
   28.9592  225.2579   28.5764 O   0  0  0  0  0  0  0  0  0  0  0  0
  2  1  1  1
  2  3  1  0
  3  4  2  0
  5  3  1  1
  4 13  1  0
  5  6  1  0
  6  7  2  0
  6 11  1  0
  7  8  1  0
  8  9  2  0
  9 10  1  0
 12  9  1  6
 10 11  2  0
 13 14  1  6
 14 15  1  0
 15 16  1  0
 15 17  2  0
 15 18  1  1
 16 19  1  0
 19 20  1  1
 19 21  2  0
 19 22  1  0
M  END
$$$$
