
     RDKit          3D

 22 22  0  0  0  0  0  0  0  0999 V2000
   25.5112  229.8850   31.5053 O   0  0  0  0  0  0  0  0  0  0  0  0
   26.2576  230.1467   32.6392 C   0  0  0  0  0  0  0  0  0  0  0  0
   26.9315  228.8592   33.0398 C   0  0  0  0  0  0  0  0  0  0  0  0
   26.8016  227.8537   32.2022 C   0  0  0  0  0  0  0  0  0  0  0  0
   27.6548  228.8482   34.3275 C   0  0  0  0  0  0  0  0  0  0  0  0
   27.6398  230.2049   34.9803 C   0  0  0  0  0  0  0  0  0  0  0  0
   26.4118  230.8213   35.1586 C   0  0  0  0  0  0  0  0  0  0  0  0
   26.4005  232.0673   35.7445 C   0  0  0  0  0  0  0  0  0  0  0  0
   27.5468  232.7144   36.1540 C   0  0  0  0  0  0  0  0  0  0  0  0
   28.7391  232.0703   35.9593 C   0  0  0  0  0  0  0  0  0  0  0  0
   28.7989  230.8299   35.3804 C   0  0  0  0  0  0  0  0  0  0  0  0
   27.5120  234.0744   36.7919 C   0  0  0  0  0  0  0  0  0  0  0  0
   27.5613  226.5771   32.2277 C   0  0  0  0  0  0  0  0  0  0  0  0
   28.7495  226.8229   31.5431 O   0  0  0  0  0  0  0  0  0  0  0  0
   30.0459  225.9249   32.0963 P   0  0  1  0  0  5  0  0  0  0  0  0
   29.6368  224.3085   32.3683 O   0  0  0  0  0  0  0  0  0  0  0  0
   31.1241  225.9577   31.0141 O   0  0  0  0  0  0  0  0  0  0  0  0
   30.6880  226.5338   33.5415 O   0  0  0  0  0  0  0  0  0  0  0  0
   29.7036  223.4310   30.9259 P   0  0  2  0  0  5  0  0  0  0  0  0
   29.2262  224.3595   29.5967 O   0  0  0  0  0  0  0  0  0  0  0  0
   28.8071  222.2061   30.9853 O   0  0  0  0  0  0  0  0  0  0  0  0
   31.3056  222.9176   30.6189 O   0  0  0  0  0  0  0  0  0  0  0  0
  1  2  1  0
  2  3  1  0
  3  4  2  0
  3  5  1  0
  4 13  1  0
  5  6  1  0
  6  7  2  0
  6 11  1  0
  7  8  1  0
  8  9  2  0
  9 10  1  0
  9 12  1  0
 10 11  2  0
 13 14  1  0
 14 15  1  0
 15 16  1  0
 15 17  2  0
 15 18  1  1
 16 19  1  0
 19 20  1  6
 19 21  2  0
 19 22  1  0
M  END
$$$$
