
     RDKit          3D

 22 22  0  0  0  0  0  0  0  0999 V2000
   25.3855  231.4002   32.7897 O   0  0  0  0  0  0  0  0  0  0  0  0
   25.4752  230.3765   33.7145 C   0  0  0  0  0  0  0  0  0  0  0  0
   26.6843  229.5514   33.3545 C   0  0  0  0  0  0  0  0  0  0  0  0
   26.4470  228.4240   32.7205 C   0  0  0  0  0  0  0  0  0  0  0  0
   28.0046  230.0779   33.7559 C   0  0  0  0  0  0  0  0  0  0  0  0
   28.0240  230.4683   35.2099 C   0  0  0  0  0  0  0  0  0  0  0  0
   28.4290  229.5136   36.1287 C   0  0  0  0  0  0  0  0  0  0  0  0
   28.4345  229.8680   37.4593 C   0  0  0  0  0  0  0  0  0  0  0  0
   28.0583  231.1173   37.9046 C   0  0  0  0  0  0  0  0  0  0  0  0
   27.6650  232.0309   36.9639 C   0  0  0  0  0  0  0  0  0  0  0  0
   27.6434  231.7228   35.6290 C   0  0  0  0  0  0  0  0  0  0  0  0
   28.0721  231.4835   39.3618 C   0  0  0  0  0  0  0  0  0  0  0  0
   27.3908  227.2893   32.5497 C   0  0  0  0  0  0  0  0  0  0  0  0
   27.1433  226.7707   31.2806 O   0  0  0  0  0  0  0  0  0  0  0  0
   28.1747  225.5300   30.8450 P   0  0  1  0  0  5  0  0  0  0  0  0
   29.7624  225.8085   31.3509 O   0  0  0  0  0  0  0  0  0  0  0  0
   27.6818  224.2581   31.5336 O   0  0  0  0  0  0  0  0  0  0  0  0
   28.2151  225.2770   29.1699 O   0  0  0  0  0  0  0  0  0  0  0  0
   30.6145  224.3530   31.4519 P   0  0  2  0  0  5  0  0  0  0  0  0
   31.1134  223.8042   29.9331 O   0  0  0  0  0  0  0  0  0  0  0  0
   29.7681  223.2630   32.0868 O   0  0  0  0  0  0  0  0  0  0  0  0
   32.0289  224.5590   32.3908 O   0  0  0  0  0  0  0  0  0  0  0  0
  1  2  1  0
  2  3  1  0
  3  4  2  0
  3  5  1  0
  4 13  1  0
  5  6  1  0
  6  7  2  0
  6 11  1  0
  7  8  1  0
  8  9  2  0
  9 10  1  0
  9 12  1  0
 10 11  2  0
 13 14  1  0
 14 15  1  0
 15 16  1  0
 15 17  2  0
 15 18  1  6
 16 19  1  0
 19 20  1  6
 19 21  2  0
 19 22  1  0
M  END
$$$$
