
     RDKit          3D

 22 22  0  0  0  0  0  0  0  0999 V2000
   29.8037  229.2993   35.8075 O   0  0  0  0  0  0  0  0  0  0  0  0
   29.0415  230.0917   34.9694 C   0  0  0  0  0  0  0  0  0  0  0  0
   28.2706  229.1702   34.0592 C   0  0  0  0  0  0  0  0  0  0  0  0
   28.6491  227.9107   34.0562 C   0  0  0  0  0  0  0  0  0  0  0  0
   27.1836  229.7676   33.2573 C   0  0  0  0  0  0  0  0  0  0  0  0
   25.9275  229.9366   34.0699 C   0  0  0  0  0  0  0  0  0  0  0  0
   25.9488  230.8553   35.1069 C   0  0  0  0  0  0  0  0  0  0  0  0
   24.8033  231.0001   35.8571 C   0  0  0  0  0  0  0  0  0  0  0  0
   23.6540  230.2770   35.6190 C   0  0  0  0  0  0  0  0  0  0  0  0
   23.6754  229.3799   34.5850 C   0  0  0  0  0  0  0  0  0  0  0  0
   24.7924  229.2021   33.8118 C   0  0  0  0  0  0  0  0  0  0  0  0
   22.4143  230.4509   36.4500 C   0  0  0  0  0  0  0  0  0  0  0  0
   28.1699  226.8451   33.1385 C   0  0  0  0  0  0  0  0  0  0  0  0
   28.3840  227.3239   31.8478 O   0  0  0  0  0  0  0  0  0  0  0  0
   28.6309  226.1216   30.7137 P   0  0  1  0  0  5  0  0  0  0  0  0
   30.2155  225.5360   30.7346 O   0  0  0  0  0  0  0  0  0  0  0  0
   27.6999  224.9613   31.0624 O   0  0  0  0  0  0  0  0  0  0  0  0
   28.3054  226.6422   29.1342 O   0  0  0  0  0  0  0  0  0  0  0  0
   30.2534  223.9544   31.3279 P   0  0  2  0  0  5  0  0  0  0  0  0
   29.1511  222.9518   30.5301 O   0  0  0  0  0  0  0  0  0  0  0  0
   29.9299  223.9157   32.8116 O   0  0  0  0  0  0  0  0  0  0  0  0
   31.8028  223.2704   31.0915 O   0  0  0  0  0  0  0  0  0  0  0  0
  1  2  1  0
  2  3  1  0
  3  4  2  0
  3  5  1  0
  4 13  1  0
  5  6  1  0
  6  7  2  0
  6 11  1  0
  7  8  1  0
  8  9  2  0
  9 10  1  0
  9 12  1  0
 10 11  2  0
 13 14  1  0
 14 15  1  0
 15 16  1  0
 15 17  2  0
 15 18  1  6
 16 19  1  0
 19 20  1  6
 19 21  2  0
 19 22  1  0
M  END
$$$$
