
     RDKit          3D

 22 22  0  0  0  0  0  0  0  0999 V2000
   23.8089  226.9012   30.4335 O   0  0  0  0  0  0  0  0  0  0  0  0
   24.9694  227.4910   30.8304 C   0  0  0  0  0  0  0  0  0  0  0  0
   25.4859  227.1632   32.1611 C   0  0  0  0  0  0  0  0  0  0  0  0
   26.4009  226.2982   32.4971 C   0  0  0  0  0  0  0  0  0  0  0  0
   24.8263  227.9792   33.2639 C   0  0  0  0  0  0  0  0  0  0  0  0
   25.6142  229.1811   33.5848 C   0  0  0  0  0  0  0  0  0  0  0  0
   26.6495  229.1897   34.4967 C   0  0  0  0  0  0  0  0  0  0  0  0
   27.3703  230.3289   34.7779 C   0  0  0  0  0  0  0  0  0  0  0  0
   27.0818  231.5210   34.1509 C   0  0  0  0  0  0  0  0  0  0  0  0
   26.0550  231.5221   33.2435 C   0  0  0  0  0  0  0  0  0  0  0  0
   25.3369  230.3959   32.9606 C   0  0  0  0  0  0  0  0  0  0  0  0
   27.8739  232.7443   34.4688 C   0  0  0  0  0  0  0  0  0  0  0  0
   27.1695  225.3700   31.6755 C   0  0  0  0  0  0  0  0  0  0  0  0
   28.4659  225.9080   31.4996 O   0  0  0  0  0  0  0  0  0  0  0  0
   29.4813  224.7866   30.7295 P   0  0  1  0  0  5  0  0  0  0  0  0
   30.4000  224.0263   31.9227 O   0  0  0  0  0  0  0  0  0  0  0  0
   28.6570  223.7362   30.0223 O   0  0  0  0  0  0  0  0  0  0  0  0
   30.4833  225.5824   29.6423 O   0  0  0  0  0  0  0  0  0  0  0  0
   30.6851  225.1134   33.1823 P   0  0  2  0  0  5  0  0  0  0  0  0
   29.1929  225.6278   33.7889 O   0  0  0  0  0  0  0  0  0  0  0  0
   31.4239  226.3252   32.6935 O   0  0  0  0  0  0  0  0  0  0  0  0
   31.5192  224.3725   34.4528 O   0  0  0  0  0  0  0  0  0  0  0  0
  2  1  1  1
  2  3  1  0
  3  4  2  0
  5  3  1  1
  4 13  1  0
  5  6  1  0
  6  7  2  0
  6 11  1  0
  7  8  1  0
  8  9  2  0
  9 10  1  0
 12  9  1  6
 10 11  2  0
 13 14  1  6
 14 15  1  0
 15 16  1  0
 15 17  2  0
 15 18  1  6
 16 19  1  0
 19 20  1  1
 19 21  2  0
 19 22  1  0
M  END
$$$$
