
     RDKit          3D

 22 22  0  0  0  0  0  0  0  0999 V2000
   24.4788  229.5215   32.1231 O   0  0  0  0  0  0  0  0  0  0  0  0
   25.6744  229.9747   32.6489 C   0  0  0  0  0  0  0  0  0  0  0  0
   26.5338  228.7655   32.9164 C   0  0  0  0  0  0  0  0  0  0  0  0
   27.3433  228.4051   31.9447 C   0  0  0  0  0  0  0  0  0  0  0  0
   26.3760  228.1018   34.2264 C   0  0  0  0  0  0  0  0  0  0  0  0
   27.6696  228.0867   34.9966 C   0  0  0  0  0  0  0  0  0  0  0  0
   28.0067  229.2234   35.7135 C   0  0  0  0  0  0  0  0  0  0  0  0
   29.1960  229.2129   36.4075 C   0  0  0  0  0  0  0  0  0  0  0  0
   30.0503  228.1309   36.4158 C   0  0  0  0  0  0  0  0  0  0  0  0
   29.6794  227.0281   35.6944 C   0  0  0  0  0  0  0  0  0  0  0  0
   28.5055  226.9933   34.9887 C   0  0  0  0  0  0  0  0  0  0  0  0
   31.3437  228.1403   37.1805 C   0  0  0  0  0  0  0  0  0  0  0  0
   27.0217  227.4909   30.8185 C   0  0  0  0  0  0  0  0  0  0  0  0
   27.3952  226.2163   31.2389 O   0  0  0  0  0  0  0  0  0  0  0  0
   28.4887  225.4636   30.2238 P   0  0  1  0  0  5  0  0  0  0  0  0
   30.0811  225.6235   30.7648 O   0  0  0  0  0  0  0  0  0  0  0  0
   28.1496  223.9738   30.2049 O   0  0  0  0  0  0  0  0  0  0  0  0
   28.4292  226.0688   28.6421 O   0  0  0  0  0  0  0  0  0  0  0  0
   30.4668  224.3811   31.8429 P   0  0  2  0  0  5  0  0  0  0  0  0
   32.0935  224.4215   32.3004 O   0  0  0  0  0  0  0  0  0  0  0  0
   30.1874  223.0178   31.2338 O   0  0  0  0  0  0  0  0  0  0  0  0
   29.5474  224.5346   33.2766 O   0  0  0  0  0  0  0  0  0  0  0  0
  1  2  1  0
  2  3  1  0
  3  4  2  0
  3  5  1  0
  4 13  1  0
  5  6  1  0
  6  7  2  0
  6 11  1  0
  7  8  1  0
  8  9  2  0
  9 10  1  0
  9 12  1  0
 10 11  2  0
 13 14  1  0
 14 15  1  0
 15 16  1  0
 15 17  2  0
 15 18  1  6
 16 19  1  0
 19 20  1  1
 19 21  2  0
 19 22  1  0
M  END
$$$$
