
     RDKit          3D

 22 22  0  0  0  0  0  0  0  0999 V2000
   25.4149  226.1924   32.4765 O   0  0  0  0  0  0  0  0  0  0  0  0
   25.1907  227.5159   32.2529 C   0  0  0  0  0  0  0  0  0  0  0  0
   26.0162  228.4842   32.9782 C   0  0  0  0  0  0  0  0  0  0  0  0
   27.1567  228.3023   33.5819 C   0  0  0  0  0  0  0  0  0  0  0  0
   25.4072  229.8792   32.9938 C   0  0  0  0  0  0  0  0  0  0  0  0
   25.2518  230.3800   34.3699 C   0  0  0  0  0  0  0  0  0  0  0  0
   24.3598  229.8456   35.2767 C   0  0  0  0  0  0  0  0  0  0  0  0
   24.2351  230.3339   36.5582 C   0  0  0  0  0  0  0  0  0  0  0  0
   25.0066  231.3898   36.9909 C   0  0  0  0  0  0  0  0  0  0  0  0
   25.8955  231.9272   36.0970 C   0  0  0  0  0  0  0  0  0  0  0  0
   26.0236  231.4473   34.8253 C   0  0  0  0  0  0  0  0  0  0  0  0
   24.8570  231.9047   38.3827 C   0  0  0  0  0  0  0  0  0  0  0  0
   28.1481  227.2437   33.4275 C   0  0  0  0  0  0  0  0  0  0  0  0
   28.8829  227.4982   32.2459 O   0  0  0  0  0  0  0  0  0  0  0  0
   30.0259  226.2728   31.9747 P   0  0  1  0  0  5  0  0  0  0  0  0
   29.1923  224.8093   31.8788 O   0  0  0  0  0  0  0  0  0  0  0  0
   30.7358  226.5029   30.6609 O   0  0  0  0  0  0  0  0  0  0  0  0
   31.1265  226.2336   33.2422 O   0  0  0  0  0  0  0  0  0  0  0  0
   30.1375  223.6842   31.0479 P   0  0  2  0  0  5  0  0  0  0  0  0
   30.6324  224.3799   29.5883 O   0  0  0  0  0  0  0  0  0  0  0  0
   29.3477  222.4497   30.7231 O   0  0  0  0  0  0  0  0  0  0  0  0
   31.5322  223.2936   31.9203 O   0  0  0  0  0  0  0  0  0  0  0  0
  2  1  1  1
  2  3  1  0
  3  4  2  0
  5  3  1  1
  4 13  1  0
  5  6  1  0
  6  7  2  0
  6 11  1  0
  7  8  1  0
  8  9  2  0
  9 10  1  0
 12  9  1  6
 10 11  2  0
 13 14  1  6
 14 15  1  0
 15 16  1  0
 15 17  2  0
 15 18  1  1
 16 19  1  0
 19 20  1  6
 19 21  2  0
 19 22  1  0
M  END
$$$$
