
     RDKit          3D

 22 22  0  0  0  0  0  0  0  0999 V2000
   27.6860  231.8480   34.8448 O   0  0  0  0  0  0  0  0  0  0  0  0
   28.1509  230.6362   35.2542 C   0  0  0  0  0  0  0  0  0  0  0  0
   27.6107  229.4390   34.6061 C   0  0  0  0  0  0  0  0  0  0  0  0
   28.2275  228.5463   33.8842 C   0  0  0  0  0  0  0  0  0  0  0  0
   26.1176  229.2653   34.8456 C   0  0  0  0  0  0  0  0  0  0  0  0
   25.8572  228.2884   35.9162 C   0  0  0  0  0  0  0  0  0  0  0  0
   25.2746  227.0573   35.6961 C   0  0  0  0  0  0  0  0  0  0  0  0
   25.0426  226.1623   36.7167 C   0  0  0  0  0  0  0  0  0  0  0  0
   25.3879  226.4654   38.0152 C   0  0  0  0  0  0  0  0  0  0  0  0
   25.9672  227.6861   38.2435 C   0  0  0  0  0  0  0  0  0  0  0  0
   26.1997  228.5775   37.2358 C   0  0  0  0  0  0  0  0  0  0  0  0
   25.1285  225.4829   39.1071 C   0  0  0  0  0  0  0  0  0  0  0  0
   27.8024  227.2167   33.4613 C   0  0  0  0  0  0  0  0  0  0  0  0
   28.7837  226.2876   33.8793 O   0  0  0  0  0  0  0  0  0  0  0  0
   29.6107  225.6465   32.5427 P   0  0  1  0  0  5  0  0  0  0  0  0
   28.4707  224.9046   31.5448 O   0  0  0  0  0  0  0  0  0  0  0  0
   30.2776  226.7545   31.7613 O   0  0  0  0  0  0  0  0  0  0  0  0
   30.7462  224.5245   33.0634 O   0  0  0  0  0  0  0  0  0  0  0  0
   29.2664  224.1135   30.2836 P   0  0  2  0  0  5  0  0  0  0  0  0
   28.1103  223.6175   29.1536 O   0  0  0  0  0  0  0  0  0  0  0  0
   29.9793  222.8887   30.7782 O   0  0  0  0  0  0  0  0  0  0  0  0
   30.3372  225.1527   29.4885 O   0  0  0  0  0  0  0  0  0  0  0  0
  2  1  1  1
  2  3  1  0
  3  4  2  0
  5  3  1  1
  4 13  1  0
  5  6  1  0
  6  7  2  0
  6 11  1  0
  7  8  1  0
  8  9  2  0
  9 10  1  0
 12  9  1  6
 10 11  2  0
 13 14  1  6
 14 15  1  0
 15 16  1  0
 15 17  2  0
 15 18  1  1
 16 19  1  0
 19 20  1  6
 19 21  2  0
 19 22  1  0
M  END
$$$$
