
     RDKit          3D

 22 22  0  0  0  0  0  0  0  0999 V2000
   27.8412  226.5019   35.2343 O   0  0  0  0  0  0  0  0  0  0  0  0
   27.2866  227.7357   35.3836 C   0  0  0  0  0  0  0  0  0  0  0  0
   26.9477  228.4871   34.1730 C   0  0  0  0  0  0  0  0  0  0  0  0
   27.4791  228.4146   32.9853 C   0  0  0  0  0  0  0  0  0  0  0  0
   25.8086  229.4724   34.3936 C   0  0  0  0  0  0  0  0  0  0  0  0
   26.2801  230.6933   35.0688 C   0  0  0  0  0  0  0  0  0  0  0  0
   26.1686  230.9008   36.4283 C   0  0  0  0  0  0  0  0  0  0  0  0
   26.6184  232.0528   37.0340 C   0  0  0  0  0  0  0  0  0  0  0  0
   27.2054  233.0570   36.2960 C   0  0  0  0  0  0  0  0  0  0  0  0
   27.3204  232.8597   34.9449 C   0  0  0  0  0  0  0  0  0  0  0  0
   26.8764  231.7197   34.3388 C   0  0  0  0  0  0  0  0  0  0  0  0
   27.6863  234.2975   36.9703 C   0  0  0  0  0  0  0  0  0  0  0  0
   28.3666  227.4115   32.4080 C   0  0  0  0  0  0  0  0  0  0  0  0
   27.8443  227.0345   31.1486 O   0  0  0  0  0  0  0  0  0  0  0  0
   28.7314  225.7443   30.4930 P   0  0  1  0  0  5  0  0  0  0  0  0
   28.5370  224.4183   31.5177 O   0  0  0  0  0  0  0  0  0  0  0  0
   28.1892  225.3768   29.1315 O   0  0  0  0  0  0  0  0  0  0  0  0
   30.3533  226.1665   30.3890 O   0  0  0  0  0  0  0  0  0  0  0  0
   29.8394  223.3635   31.3157 P   0  0  2  0  0  5  0  0  0  0  0  0
   31.1457  223.9535   32.2128 O   0  0  0  0  0  0  0  0  0  0  0  0
   30.2632  223.2974   29.8773 O   0  0  0  0  0  0  0  0  0  0  0  0
   29.4753  221.8218   31.9069 O   0  0  0  0  0  0  0  0  0  0  0  0
  2  1  1  1
  2  3  1  0
  3  4  2  0
  5  3  1  1
  4 13  1  0
  5  6  1  0
  6  7  2  0
  6 11  1  0
  7  8  1  0
  8  9  2  0
  9 10  1  0
 12  9  1  6
 10 11  2  0
 13 14  1  6
 14 15  1  0
 15 16  1  0
 15 17  2  0
 15 18  1  6
 16 19  1  0
 19 20  1  1
 19 21  2  0
 19 22  1  0
M  END
$$$$
