
     RDKit          3D

 22 22  0  0  0  0  0  0  0  0999 V2000
   29.6345  227.3781   35.6033 O   0  0  0  0  0  0  0  0  0  0  0  0
   29.2529  228.6507   35.3082 C   0  0  0  0  0  0  0  0  0  0  0  0
   28.1152  228.8341   34.4044 C   0  0  0  0  0  0  0  0  0  0  0  0
   27.6404  228.0189   33.5053 C   0  0  0  0  0  0  0  0  0  0  0  0
   27.4312  230.1815   34.5880 C   0  0  0  0  0  0  0  0  0  0  0  0
   26.3468  230.1004   35.5810 C   0  0  0  0  0  0  0  0  0  0  0  0
   26.5249  230.3635   36.9236 C   0  0  0  0  0  0  0  0  0  0  0  0
   25.4924  230.2800   37.8310 C   0  0  0  0  0  0  0  0  0  0  0  0
   24.2238  229.9256   37.4281 C   0  0  0  0  0  0  0  0  0  0  0  0
   24.0373  229.6624   36.0962 C   0  0  0  0  0  0  0  0  0  0  0  0
   25.0571  229.7436   35.1920 C   0  0  0  0  0  0  0  0  0  0  0  0
   23.1184  229.8406   38.4259 C   0  0  0  0  0  0  0  0  0  0  0  0
   28.2197  226.8126   32.9250 C   0  0  0  0  0  0  0  0  0  0  0  0
   27.2808  226.2657   32.0193 O   0  0  0  0  0  0  0  0  0  0  0  0
   27.9850  225.0214   31.1040 P   0  0  1  0  0  5  0  0  0  0  0  0
   29.4862  225.5709   30.5652 O   0  0  0  0  0  0  0  0  0  0  0  0
   28.2067  223.8008   31.9664 O   0  0  0  0  0  0  0  0  0  0  0  0
   26.9978  224.6505   29.7974 O   0  0  0  0  0  0  0  0  0  0  0  0
   30.7027  224.6096   31.2327 P   0  0  2  0  0  5  0  0  0  0  0  0
   30.7335  224.8742   32.9026 O   0  0  0  0  0  0  0  0  0  0  0  0
   32.0490  224.9834   30.6842 O   0  0  0  0  0  0  0  0  0  0  0  0
   30.3883  222.9666   30.9868 O   0  0  0  0  0  0  0  0  0  0  0  0
  2  1  1  1
  2  3  1  0
  3  4  2  0
  5  3  1  1
  4 13  1  0
  5  6  1  0
  6  7  2  0
  6 11  1  0
  7  8  1  0
  8  9  2  0
  9 10  1  0
 12  9  1  6
 10 11  2  0
 13 14  1  6
 14 15  1  0
 15 16  1  0
 15 17  2  0
 15 18  1  6
 16 19  1  0
 19 20  1  1
 19 21  2  0
 19 22  1  0
M  END
$$$$
