
     RDKit          3D

 22 22  0  0  0  0  0  0  0  0999 V2000
   25.6727  227.6568   30.9686 O   0  0  0  0  0  0  0  0  0  0  0  0
   26.8789  228.0724   31.5013 C   0  0  0  0  0  0  0  0  0  0  0  0
   26.7315  228.0696   33.0014 C   0  0  0  0  0  0  0  0  0  0  0  0
   27.2665  227.0477   33.6331 C   0  0  0  0  0  0  0  0  0  0  0  0
   25.9968  229.1974   33.6096 C   0  0  0  0  0  0  0  0  0  0  0  0
   26.7692  229.8092   34.7480 C   0  0  0  0  0  0  0  0  0  0  0  0
   27.6674  230.8206   34.4480 C   0  0  0  0  0  0  0  0  0  0  0  0
   28.3822  231.3708   35.4884 C   0  0  0  0  0  0  0  0  0  0  0  0
   28.2399  230.9598   36.7966 C   0  0  0  0  0  0  0  0  0  0  0  0
   27.3418  229.9579   37.0494 C   0  0  0  0  0  0  0  0  0  0  0  0
   26.6088  229.3808   36.0461 C   0  0  0  0  0  0  0  0  0  0  0  0
   29.0299  231.5743   37.9174 C   0  0  0  0  0  0  0  0  0  0  0  0
   28.6929  226.6336   33.5971 C   0  0  0  0  0  0  0  0  0  0  0  0
   28.7471  225.5116   32.7731 O   0  0  0  0  0  0  0  0  0  0  0  0
   30.3007  225.0243   32.3968 P   0  0  1  0  0  5  0  0  0  0  0  0
   30.7316  225.4224   30.8125 O   0  0  0  0  0  0  0  0  0  0  0  0
   31.2544  225.7586   33.3382 O   0  0  0  0  0  0  0  0  0  0  0  0
   30.5183  223.3533   32.5750 O   0  0  0  0  0  0  0  0  0  0  0  0
   29.6362  224.7507   29.7153 P   0  0  2  0  0  5  0  0  0  0  0  0
   29.7626  223.0667   29.6444 O   0  0  0  0  0  0  0  0  0  0  0  0
   29.8578  225.2944   28.3143 O   0  0  0  0  0  0  0  0  0  0  0  0
   28.0317  225.1053   30.1884 O   0  0  0  0  0  0  0  0  0  0  0  0
  1  2  1  0
  2  3  1  0
  3  4  2  0
  3  5  1  0
  4 13  1  0
  5  6  1  0
  6  7  2  0
  6 11  1  0
  7  8  1  0
  8  9  2  0
  9 10  1  0
  9 12  1  0
 10 11  2  0
 13 14  1  0
 14 15  1  0
 15 16  1  0
 15 17  2  0
 15 18  1  6
 16 19  1  0
 19 20  1  6
 19 21  2  0
 19 22  1  0
M  END
$$$$
