
     RDKit          3D

 22 22  0  0  0  0  0  0  0  0999 V2000
   25.2263  230.3454   32.8363 O   0  0  0  0  0  0  0  0  0  0  0  0
   25.5112  229.9786   34.1384 C   0  0  0  0  0  0  0  0  0  0  0  0
   26.8743  229.3350   34.1352 C   0  0  0  0  0  0  0  0  0  0  0  0
   27.1871  228.6487   33.0578 C   0  0  0  0  0  0  0  0  0  0  0  0
   27.7133  229.5251   35.3357 C   0  0  0  0  0  0  0  0  0  0  0  0
   27.7889  230.9757   35.7319 C   0  0  0  0  0  0  0  0  0  0  0  0
   27.0442  231.3850   36.8262 C   0  0  0  0  0  0  0  0  0  0  0  0
   27.1045  232.7144   37.1800 C   0  0  0  0  0  0  0  0  0  0  0  0
   27.8660  233.6388   36.4973 C   0  0  0  0  0  0  0  0  0  0  0  0
   28.5865  233.1926   35.4221 C   0  0  0  0  0  0  0  0  0  0  0  0
   28.5571  231.8791   35.0333 C   0  0  0  0  0  0  0  0  0  0  0  0
   27.9179  235.0853   36.9006 C   0  0  0  0  0  0  0  0  0  0  0  0
   27.7742  227.2845   33.0173 C   0  0  0  0  0  0  0  0  0  0  0  0
   29.0823  227.4420   32.5643 O   0  0  0  0  0  0  0  0  0  0  0  0
   29.8667  226.0001   32.2508 P   0  0  1  0  0  5  0  0  0  0  0  0
   29.1080  225.1090   31.0325 O   0  0  0  0  0  0  0  0  0  0  0  0
   31.2778  226.3380   31.7720 O   0  0  0  0  0  0  0  0  0  0  0  0
   29.9657  225.0041   33.6182 O   0  0  0  0  0  0  0  0  0  0  0  0
   29.9863  223.7064   30.6915 P   0  0  2  0  0  5  0  0  0  0  0  0
   29.5638  222.4298   31.7155 O   0  0  0  0  0  0  0  0  0  0  0  0
   31.4798  223.9443   30.8344 O   0  0  0  0  0  0  0  0  0  0  0  0
   29.6696  223.1831   29.0946 O   0  0  0  0  0  0  0  0  0  0  0  0
  1  2  1  0
  2  3  1  0
  3  4  2  0
  3  5  1  0
  4 13  1  0
  5  6  1  0
  6  7  2  0
  6 11  1  0
  7  8  1  0
  8  9  2  0
  9 10  1  0
  9 12  1  0
 10 11  2  0
 13 14  1  0
 14 15  1  0
 15 16  1  0
 15 17  2  0
 15 18  1  1
 16 19  1  0
 19 20  1  1
 19 21  2  0
 19 22  1  0
M  END
$$$$
