
     RDKit          3D

 22 22  0  0  0  0  0  0  0  0999 V2000
   24.0755  229.2829   33.4541 O   0  0  0  0  0  0  0  0  0  0  0  0
   25.0060  228.7464   32.5837 C   0  0  0  0  0  0  0  0  0  0  0  0
   26.3654  229.2157   33.0351 C   0  0  0  0  0  0  0  0  0  0  0  0
   27.3029  228.2957   33.0994 C   0  0  0  0  0  0  0  0  0  0  0  0
   26.5084  230.6471   33.3703 C   0  0  0  0  0  0  0  0  0  0  0  0
   26.9543  230.8380   34.7956 C   0  0  0  0  0  0  0  0  0  0  0  0
   28.3138  230.9537   35.0361 C   0  0  0  0  0  0  0  0  0  0  0  0
   28.7212  231.1159   36.3414 C   0  0  0  0  0  0  0  0  0  0  0  0
   27.8411  231.1670   37.4013 C   0  0  0  0  0  0  0  0  0  0  0  0
   26.5065  231.0488   37.1199 C   0  0  0  0  0  0  0  0  0  0  0  0
   26.0551  230.8857   35.8365 C   0  0  0  0  0  0  0  0  0  0  0  0
   28.3070  231.3451   38.8187 C   0  0  0  0  0  0  0  0  0  0  0  0
   27.2224  226.9118   32.5648 C   0  0  0  0  0  0  0  0  0  0  0  0
   28.0125  226.8960   31.4174 O   0  0  0  0  0  0  0  0  0  0  0  0
   28.0520  225.4147   30.6448 P   0  0  1  0  0  5  0  0  0  0  0  0
   28.7747  224.2167   31.5916 O   0  0  0  0  0  0  0  0  0  0  0  0
   26.6068  224.9935   30.3824 O   0  0  0  0  0  0  0  0  0  0  0  0
   28.8917  225.4716   29.1741 O   0  0  0  0  0  0  0  0  0  0  0  0
   30.4462  224.4514   31.6677 P   0  0  2  0  0  5  0  0  0  0  0  0
   31.1235  223.7427   33.0446 O   0  0  0  0  0  0  0  0  0  0  0  0
   30.7937  225.9301   31.6855 O   0  0  0  0  0  0  0  0  0  0  0  0
   31.2075  223.7305   30.3168 O   0  0  0  0  0  0  0  0  0  0  0  0
  1  2  1  0
  2  3  1  0
  3  4  2  0
  3  5  1  0
  4 13  1  0
  5  6  1  0
  6  7  2  0
  6 11  1  0
  7  8  1  0
  8  9  2  0
  9 10  1  0
  9 12  1  0
 10 11  2  0
 13 14  1  0
 14 15  1  0
 15 16  1  0
 15 17  2  0
 15 18  1  6
 16 19  1  0
 19 20  1  1
 19 21  2  0
 19 22  1  0
M  END
$$$$
