
     RDKit          3D

 22 22  0  0  0  0  0  0  0  0999 V2000
   28.9716  230.3873   34.0938 O   0  0  0  0  0  0  0  0  0  0  0  0
   27.9113  229.7946   33.4801 C   0  0  0  0  0  0  0  0  0  0  0  0
   27.1901  228.7509   34.2118 C   0  0  0  0  0  0  0  0  0  0  0  0
   27.3216  227.4563   34.1395 C   0  0  0  0  0  0  0  0  0  0  0  0
   26.1582  229.3173   35.1769 C   0  0  0  0  0  0  0  0  0  0  0  0
   24.9828  229.8381   34.4588 C   0  0  0  0  0  0  0  0  0  0  0  0
   24.8734  231.1440   34.0271 C   0  0  0  0  0  0  0  0  0  0  0  0
   23.7619  231.6047   33.3573 C   0  0  0  0  0  0  0  0  0  0  0  0
   22.7011  230.7682   33.0883 C   0  0  0  0  0  0  0  0  0  0  0  0
   22.8008  229.4693   33.5133 C   0  0  0  0  0  0  0  0  0  0  0  0
   23.9002  229.0068   34.1778 C   0  0  0  0  0  0  0  0  0  0  0  0
   21.5058  231.2858   32.3615 C   0  0  0  0  0  0  0  0  0  0  0  0
   27.9633  226.6281   33.1248 C   0  0  0  0  0  0  0  0  0  0  0  0
   28.6443  225.5765   33.7815 O   0  0  0  0  0  0  0  0  0  0  0  0
   30.1911  225.3567   33.1176 P   0  0  1  0  0  5  0  0  0  0  0  0
   30.1817  223.8958   32.2741 O   0  0  0  0  0  0  0  0  0  0  0  0
   30.5026  226.4674   32.1418 O   0  0  0  0  0  0  0  0  0  0  0  0
   31.3344  225.3118   34.3465 O   0  0  0  0  0  0  0  0  0  0  0  0
   29.4609  224.1290   30.7656 P   0  0  2  0  0  5  0  0  0  0  0  0
   30.5378  224.9932   29.7895 O   0  0  0  0  0  0  0  0  0  0  0  0
   28.2020  224.9375   30.8873 O   0  0  0  0  0  0  0  0  0  0  0  0
   29.1561  222.6533   29.9985 O   0  0  0  0  0  0  0  0  0  0  0  0
  2  1  1  1
  2  3  1  0
  3  4  2  0
  5  3  1  1
  4 13  1  0
  5  6  1  0
  6  7  2  0
  6 11  1  0
  7  8  1  0
  8  9  2  0
  9 10  1  0
 12  9  1  6
 10 11  2  0
 13 14  1  6
 14 15  1  0
 15 16  1  0
 15 17  2  0
 15 18  1  1
 16 19  1  0
 19 20  1  6
 19 21  2  0
 19 22  1  0
M  END
$$$$
