
     RDKit          3D

 22 22  0  0  0  0  0  0  0  0999 V2000
   28.7959  228.0998   36.8297 O   0  0  0  0  0  0  0  0  0  0  0  0
   29.6624  228.0039   35.7569 C   0  0  0  0  0  0  0  0  0  0  0  0
   28.8251  227.9917   34.5035 C   0  0  0  0  0  0  0  0  0  0  0  0
   28.0887  226.9194   34.3105 C   0  0  0  0  0  0  0  0  0  0  0  0
   28.9214  229.1684   33.6160 C   0  0  0  0  0  0  0  0  0  0  0  0
   27.9496  230.2451   34.0200 C   0  0  0  0  0  0  0  0  0  0  0  0
   26.7416  230.3101   33.3446 C   0  0  0  0  0  0  0  0  0  0  0  0
   25.8589  231.3029   33.7065 C   0  0  0  0  0  0  0  0  0  0  0  0
   26.1273  232.2201   34.7001 C   0  0  0  0  0  0  0  0  0  0  0  0
   27.3323  232.1205   35.3423 C   0  0  0  0  0  0  0  0  0  0  0  0
   28.2417  231.1492   35.0158 C   0  0  0  0  0  0  0  0  0  0  0  0
   25.1494  233.2958   35.0798 C   0  0  0  0  0  0  0  0  0  0  0  0
   28.1796  225.9782   33.1645 C   0  0  0  0  0  0  0  0  0  0  0  0
   28.8654  226.6591   32.1609 O   0  0  0  0  0  0  0  0  0  0  0  0
   28.4300  226.1998   30.6142 P   0  0  1  0  0  5  0  0  0  0  0  0
   28.9248  224.6263   30.2493 O   0  0  0  0  0  0  0  0  0  0  0  0
   26.9046  226.2397   30.5341 O   0  0  0  0  0  0  0  0  0  0  0  0
   29.0773  227.2213   29.4271 O   0  0  0  0  0  0  0  0  0  0  0  0
   30.4556  224.3227   30.8969 P   0  0  2  0  0  5  0  0  0  0  0  0
   30.4463  224.3549   32.5868 O   0  0  0  0  0  0  0  0  0  0  0  0
   31.4691  225.3472   30.4164 O   0  0  0  0  0  0  0  0  0  0  0  0
   30.9954  222.7669   30.4363 O   0  0  0  0  0  0  0  0  0  0  0  0
  1  2  1  0
  2  3  1  0
  3  4  2  0
  3  5  1  0
  4 13  1  0
  5  6  1  0
  6  7  2  0
  6 11  1  0
  7  8  1  0
  8  9  2  0
  9 10  1  0
  9 12  1  0
 10 11  2  0
 13 14  1  0
 14 15  1  0
 15 16  1  0
 15 17  2  0
 15 18  1  6
 16 19  1  0
 19 20  1  1
 19 21  2  0
 19 22  1  0
M  END
$$$$
