
     RDKit          3D

 22 22  0  0  0  0  0  0  0  0999 V2000
   24.3526  227.5922   33.5768 O   0  0  0  0  0  0  0  0  0  0  0  0
   24.8261  228.7215   32.9353 C   0  0  0  0  0  0  0  0  0  0  0  0
   26.1217  228.3454   32.2628 C   0  0  0  0  0  0  0  0  0  0  0  0
   26.1499  227.1667   31.6802 C   0  0  0  0  0  0  0  0  0  0  0  0
   27.2272  229.3224   32.3333 C   0  0  0  0  0  0  0  0  0  0  0  0
   27.6880  229.5325   33.7511 C   0  0  0  0  0  0  0  0  0  0  0  0
   28.5420  228.5887   34.2984 C   0  0  0  0  0  0  0  0  0  0  0  0
   28.9529  228.7755   35.5992 C   0  0  0  0  0  0  0  0  0  0  0  0
   28.5531  229.8495   36.3656 C   0  0  0  0  0  0  0  0  0  0  0  0
   27.7090  230.7587   35.7866 C   0  0  0  0  0  0  0  0  0  0  0  0
   27.2741  230.6137   34.4954 C   0  0  0  0  0  0  0  0  0  0  0  0
   29.0139  230.0345   37.7837 C   0  0  0  0  0  0  0  0  0  0  0  0
   27.1401  226.6996   30.6759 C   0  0  0  0  0  0  0  0  0  0  0  0
   27.6529  225.5019   31.1694 O   0  0  0  0  0  0  0  0  0  0  0  0
   28.9172  224.8857   30.2669 P   0  0  1  0  0  5  0  0  0  0  0  0
   30.4240  225.3546   30.8702 O   0  0  0  0  0  0  0  0  0  0  0  0
   28.8377  223.3617   30.3432 O   0  0  0  0  0  0  0  0  0  0  0  0
   28.8510  225.3667   28.6434 O   0  0  0  0  0  0  0  0  0  0  0  0
   30.6963  224.6596   32.3860 P   0  0  2  0  0  5  0  0  0  0  0  0
   32.2190  225.0587   33.0017 O   0  0  0  0  0  0  0  0  0  0  0  0
   30.6016  223.1449   32.3216 O   0  0  0  0  0  0  0  0  0  0  0  0
   29.5438  225.2287   33.5139 O   0  0  0  0  0  0  0  0  0  0  0  0
  1  2  1  0
  2  3  1  0
  3  4  2  0
  3  5  1  0
  4 13  1  0
  5  6  1  0
  6  7  2  0
  6 11  1  0
  7  8  1  0
  8  9  2  0
  9 10  1  0
  9 12  1  0
 10 11  2  0
 13 14  1  0
 14 15  1  0
 15 16  1  0
 15 17  2  0
 15 18  1  6
 16 19  1  0
 19 20  1  1
 19 21  2  0
 19 22  1  0
M  END
$$$$
