
     RDKit          3D

 22 22  0  0  0  0  0  0  0  0999 V2000
   26.0966  230.2959   31.5607 O   0  0  0  0  0  0  0  0  0  0  0  0
   25.8790  230.1395   32.9170 C   0  0  0  0  0  0  0  0  0  0  0  0
   27.0285  229.3333   33.4657 C   0  0  0  0  0  0  0  0  0  0  0  0
   28.0474  229.1527   32.6542 C   0  0  0  0  0  0  0  0  0  0  0  0
   26.8949  228.8189   34.8438 C   0  0  0  0  0  0  0  0  0  0  0  0
   26.8976  229.9365   35.8525 C   0  0  0  0  0  0  0  0  0  0  0  0
   28.1120  230.5326   36.1516 C   0  0  0  0  0  0  0  0  0  0  0  0
   28.1149  231.5463   37.0835 C   0  0  0  0  0  0  0  0  0  0  0  0
   26.9730  231.9838   37.7200 C   0  0  0  0  0  0  0  0  0  0  0  0
   25.7941  231.3679   37.3954 C   0  0  0  0  0  0  0  0  0  0  0  0
   25.7431  230.3549   36.4743 C   0  0  0  0  0  0  0  0  0  0  0  0
   26.9984  233.0923   38.7340 C   0  0  0  0  0  0  0  0  0  0  0  0
   28.7342  227.8665   32.3690 C   0  0  0  0  0  0  0  0  0  0  0  0
   28.0288  227.2777   31.3218 O   0  0  0  0  0  0  0  0  0  0  0  0
   28.6199  225.7826   30.8656 P   0  0  1  0  0  5  0  0  0  0  0  0
   30.2669  225.6143   31.2021 O   0  0  0  0  0  0  0  0  0  0  0  0
   27.8683  224.7245   31.6722 O   0  0  0  0  0  0  0  0  0  0  0  0
   28.4081  225.4775   29.2122 O   0  0  0  0  0  0  0  0  0  0  0  0
   30.6442  223.9974   31.5148 P   0  0  2  0  0  5  0  0  0  0  0  0
   30.2265  223.5421   33.0881 O   0  0  0  0  0  0  0  0  0  0  0  0
   32.1290  223.7337   31.3318 O   0  0  0  0  0  0  0  0  0  0  0  0
   29.7757  222.9716   30.4577 O   0  0  0  0  0  0  0  0  0  0  0  0
  1  2  1  0
  2  3  1  0
  3  4  2  0
  3  5  1  0
  4 13  1  0
  5  6  1  0
  6  7  2  0
  6 11  1  0
  7  8  1  0
  8  9  2  0
  9 10  1  0
  9 12  1  0
 10 11  2  0
 13 14  1  0
 14 15  1  0
 15 16  1  0
 15 17  2  0
 15 18  1  6
 16 19  1  0
 19 20  1  1
 19 21  2  0
 19 22  1  0
M  END
$$$$
