
     RDKit          3D

 22 22  0  0  0  0  0  0  0  0999 V2000
   27.3481  230.7244   32.4738 O   0  0  0  0  0  0  0  0  0  0  0  0
   27.9558  229.6269   33.0548 C   0  0  0  0  0  0  0  0  0  0  0  0
   26.8633  228.6685   33.4547 C   0  0  0  0  0  0  0  0  0  0  0  0
   26.6767  227.6393   32.6576 C   0  0  0  0  0  0  0  0  0  0  0  0
   26.1073  228.9818   34.6842 C   0  0  0  0  0  0  0  0  0  0  0  0
   26.9638  229.7048   35.6894 C   0  0  0  0  0  0  0  0  0  0  0  0
   27.9195  228.9686   36.3707 C   0  0  0  0  0  0  0  0  0  0  0  0
   28.6939  229.6283   37.2986 C   0  0  0  0  0  0  0  0  0  0  0  0
   28.5564  230.9728   37.5708 C   0  0  0  0  0  0  0  0  0  0  0  0
   27.6003  231.6631   36.8755 C   0  0  0  0  0  0  0  0  0  0  0  0
   26.8066  231.0484   35.9430 C   0  0  0  0  0  0  0  0  0  0  0  0
   29.4125  231.6736   38.5876 C   0  0  0  0  0  0  0  0  0  0  0  0
   27.6820  226.6071   32.2953 C   0  0  0  0  0  0  0  0  0  0  0  0
   27.5060  226.3591   30.9357 O   0  0  0  0  0  0  0  0  0  0  0  0
   28.6177  225.2885   30.2949 P   0  0  1  0  0  5  0  0  0  0  0  0
   30.1916  225.6078   30.8195 O   0  0  0  0  0  0  0  0  0  0  0  0
   28.2400  223.8887   30.7774 O   0  0  0  0  0  0  0  0  0  0  0  0
   28.6360  225.3080   28.6006 O   0  0  0  0  0  0  0  0  0  0  0  0
   30.6908  224.4417   31.9356 P   0  0  2  0  0  5  0  0  0  0  0  0
   32.3751  224.3400   32.0351 O   0  0  0  0  0  0  0  0  0  0  0  0
   30.1615  223.0661   31.5678 O   0  0  0  0  0  0  0  0  0  0  0  0
   30.1276  224.8402   33.5002 O   0  0  0  0  0  0  0  0  0  0  0  0
  1  2  1  0
  2  3  1  0
  3  4  2  0
  3  5  1  0
  4 13  1  0
  5  6  1  0
  6  7  2  0
  6 11  1  0
  7  8  1  0
  8  9  2  0
  9 10  1  0
  9 12  1  0
 10 11  2  0
 13 14  1  0
 14 15  1  0
 15 16  1  0
 15 17  2  0
 15 18  1  6
 16 19  1  0
 19 20  1  1
 19 21  2  0
 19 22  1  0
M  END
$$$$
