
     RDKit          3D

 22 22  0  0  0  0  0  0  0  0999 V2000
   29.6658  227.9440   35.3434 O   0  0  0  0  0  0  0  0  0  0  0  0
   29.0292  228.8302   34.4944 C   0  0  0  0  0  0  0  0  0  0  0  0
   27.5931  228.3873   34.3783 C   0  0  0  0  0  0  0  0  0  0  0  0
   27.3743  227.3230   33.6375 C   0  0  0  0  0  0  0  0  0  0  0  0
   26.5792  229.1911   35.0906 C   0  0  0  0  0  0  0  0  0  0  0  0
   26.8819  230.6634   35.0039 C   0  0  0  0  0  0  0  0  0  0  0  0
   26.5854  231.3141   33.8172 C   0  0  0  0  0  0  0  0  0  0  0  0
   26.8741  232.6579   33.7348 C   0  0  0  0  0  0  0  0  0  0  0  0
   27.4380  233.3692   34.7724 C   0  0  0  0  0  0  0  0  0  0  0  0
   27.7152  232.6882   35.9273 C   0  0  0  0  0  0  0  0  0  0  0  0
   27.4454  231.3510   36.0547 C   0  0  0  0  0  0  0  0  0  0  0  0
   27.7448  234.8359   34.6616 C   0  0  0  0  0  0  0  0  0  0  0  0
   28.3743  226.6003   32.8098 C   0  0  0  0  0  0  0  0  0  0  0  0
   28.2711  227.1351   31.5275 O   0  0  0  0  0  0  0  0  0  0  0  0
   28.6874  226.0647   30.3137 P   0  0  1  0  0  5  0  0  0  0  0  0
   28.6633  224.4590   30.8385 O   0  0  0  0  0  0  0  0  0  0  0  0
   27.6518  226.2068   29.1991 O   0  0  0  0  0  0  0  0  0  0  0  0
   30.2307  226.3669   29.6824 O   0  0  0  0  0  0  0  0  0  0  0  0
   30.2209  223.9468   31.2460 P   0  0  2  0  0  5  0  0  0  0  0  0
   30.5808  224.2438   32.8706 O   0  0  0  0  0  0  0  0  0  0  0  0
   31.2696  224.6485   30.4002 O   0  0  0  0  0  0  0  0  0  0  0  0
   30.3706  222.2600   31.0082 O   0  0  0  0  0  0  0  0  0  0  0  0
  1  2  1  0
  2  3  1  0
  3  4  2  0
  3  5  1  0
  4 13  1  0
  5  6  1  0
  6  7  2  0
  6 11  1  0
  7  8  1  0
  8  9  2  0
  9 10  1  0
  9 12  1  0
 10 11  2  0
 13 14  1  0
 14 15  1  0
 15 16  1  0
 15 17  2  0
 15 18  1  6
 16 19  1  0
 19 20  1  1
 19 21  2  0
 19 22  1  0
M  END
$$$$
