
     RDKit          3D

 22 22  0  0  0  0  0  0  0  0999 V2000
   29.1936  230.1648   33.6190 O   0  0  0  0  0  0  0  0  0  0  0  0
   28.4965  229.9109   34.7856 C   0  0  0  0  0  0  0  0  0  0  0  0
   28.0723  228.4649   34.7490 C   0  0  0  0  0  0  0  0  0  0  0  0
   28.4144  227.7890   33.6740 C   0  0  0  0  0  0  0  0  0  0  0  0
   27.3102  227.9556   35.9071 C   0  0  0  0  0  0  0  0  0  0  0  0
   25.8926  228.4626   35.9008 C   0  0  0  0  0  0  0  0  0  0  0  0
   25.5812  229.5178   36.7430 C   0  0  0  0  0  0  0  0  0  0  0  0
   24.2815  229.9724   36.7454 C   0  0  0  0  0  0  0  0  0  0  0  0
   23.2940  229.4261   35.9537 C   0  0  0  0  0  0  0  0  0  0  0  0
   23.6440  228.3851   35.1362 C   0  0  0  0  0  0  0  0  0  0  0  0
   24.9246  227.8995   35.1006 C   0  0  0  0  0  0  0  0  0  0  0  0
   21.8814  229.9379   35.9714 C   0  0  0  0  0  0  0  0  0  0  0  0
   27.9467  226.4301   33.2972 C   0  0  0  0  0  0  0  0  0  0  0  0
   27.6562  226.4869   31.9358 O   0  0  0  0  0  0  0  0  0  0  0  0
   27.4524  224.9881   31.2255 P   0  0  1  0  0  5  0  0  0  0  0  0
   28.6532  223.8920   31.6850 O   0  0  0  0  0  0  0  0  0  0  0  0
   26.1091  224.4335   31.6975 O   0  0  0  0  0  0  0  0  0  0  0  0
   27.4597  225.0653   29.5327 O   0  0  0  0  0  0  0  0  0  0  0  0
   30.1521  224.3619   31.0627 P   0  0  2  0  0  5  0  0  0  0  0  0
   30.6869  225.8193   31.7312 O   0  0  0  0  0  0  0  0  0  0  0  0
   30.0917  224.5349   29.5547 O   0  0  0  0  0  0  0  0  0  0  0  0
   31.3394  223.1868   31.4278 O   0  0  0  0  0  0  0  0  0  0  0  0
  1  2  1  0
  2  3  1  0
  3  4  2  0
  3  5  1  0
  4 13  1  0
  5  6  1  0
  6  7  2  0
  6 11  1  0
  7  8  1  0
  8  9  2  0
  9 10  1  0
  9 12  1  0
 10 11  2  0
 13 14  1  0
 14 15  1  0
 15 16  1  0
 15 17  2  0
 15 18  1  6
 16 19  1  0
 19 20  1  1
 19 21  2  0
 19 22  1  0
M  END
$$$$
