
     RDKit          3D

 22 22  0  0  0  0  0  0  0  0999 V2000
   30.0207  226.7835   35.8617 O   0  0  0  0  0  0  0  0  0  0  0  0
   29.5316  228.0766   35.8616 C   0  0  0  0  0  0  0  0  0  0  0  0
   28.8652  228.3040   34.5288 C   0  0  0  0  0  0  0  0  0  0  0  0
   28.3402  227.2429   33.9563 C   0  0  0  0  0  0  0  0  0  0  0  0
   28.8773  229.6809   33.9944 C   0  0  0  0  0  0  0  0  0  0  0  0
   27.6366  230.4368   34.3893 C   0  0  0  0  0  0  0  0  0  0  0  0
   27.6827  231.1901   35.5513 C   0  0  0  0  0  0  0  0  0  0  0  0
   26.5435  231.8710   35.9180 C   0  0  0  0  0  0  0  0  0  0  0  0
   25.3772  231.8325   35.1839 C   0  0  0  0  0  0  0  0  0  0  0  0
   25.3743  231.0763   34.0426 C   0  0  0  0  0  0  0  0  0  0  0  0
   26.4842  230.3818   33.6388 C   0  0  0  0  0  0  0  0  0  0  0  0
   24.1450  232.5838   35.6020 C   0  0  0  0  0  0  0  0  0  0  0  0
   28.3829  226.9055   32.5100 C   0  0  0  0  0  0  0  0  0  0  0  0
   29.6526  226.3828   32.2742 O   0  0  0  0  0  0  0  0  0  0  0  0
   29.8969  225.8874   30.6970 P   0  0  1  0  0  5  0  0  0  0  0  0
   28.6022  224.9796   30.1021 O   0  0  0  0  0  0  0  0  0  0  0  0
   30.0222  227.1423   29.8342 O   0  0  0  0  0  0  0  0  0  0  0  0
   31.2961  224.9479   30.5208 O   0  0  0  0  0  0  0  0  0  0  0  0
   28.8407  223.3359   30.4123 P   0  0  2  0  0  5  0  0  0  0  0  0
   27.4149  222.5695   30.8986 O   0  0  0  0  0  0  0  0  0  0  0  0
   29.8777  223.1268   31.5025 O   0  0  0  0  0  0  0  0  0  0  0  0
   29.3718  222.5372   28.9967 O   0  0  0  0  0  0  0  0  0  0  0  0
  1  2  1  0
  2  3  1  0
  3  4  2  0
  3  5  1  0
  4 13  1  0
  5  6  1  0
  6  7  2  0
  6 11  1  0
  7  8  1  0
  8  9  2  0
  9 10  1  0
  9 12  1  0
 10 11  2  0
 13 14  1  0
 14 15  1  0
 15 16  1  0
 15 17  2  0
 15 18  1  1
 16 19  1  0
 19 20  1  1
 19 21  2  0
 19 22  1  0
M  END
$$$$
