
     RDKit          3D

 22 22  0  0  0  0  0  0  0  0999 V2000
   30.2729  229.3114   34.9812 O   0  0  0  0  0  0  0  0  0  0  0  0
   29.2561  228.7664   34.2593 C   0  0  0  0  0  0  0  0  0  0  0  0
   28.3528  227.8359   34.9400 C   0  0  0  0  0  0  0  0  0  0  0  0
   28.4672  226.5473   35.0981 C   0  0  0  0  0  0  0  0  0  0  0  0
   27.1296  228.5277   35.5250 C   0  0  0  0  0  0  0  0  0  0  0  0
   26.0096  228.5336   34.5690 C   0  0  0  0  0  0  0  0  0  0  0  0
   25.0201  227.5722   34.5523 C   0  0  0  0  0  0  0  0  0  0  0  0
   23.9833  227.6021   33.6464 C   0  0  0  0  0  0  0  0  0  0  0  0
   23.8923  228.6069   32.7087 C   0  0  0  0  0  0  0  0  0  0  0  0
   24.8707  229.5663   32.7177 C   0  0  0  0  0  0  0  0  0  0  0  0
   25.9010  229.5419   33.6132 C   0  0  0  0  0  0  0  0  0  0  0  0
   22.7617  228.6221   31.7358 C   0  0  0  0  0  0  0  0  0  0  0  0
   29.0927  225.5435   34.2447 C   0  0  0  0  0  0  0  0  0  0  0  0
   29.4862  226.1731   33.0407 O   0  0  0  0  0  0  0  0  0  0  0  0
   30.2369  225.0618   32.0001 P   0  0  1  0  0  5  0  0  0  0  0  0
   29.0302  224.0852   31.3398 O   0  0  0  0  0  0  0  0  0  0  0  0
   30.9303  225.7895   30.8720 O   0  0  0  0  0  0  0  0  0  0  0  0
   31.3335  224.1283   32.8635 O   0  0  0  0  0  0  0  0  0  0  0  0
   28.2724  224.9131   30.0789 P   0  0  2  0  0  5  0  0  0  0  0  0
   29.3620  225.0340   28.7915 O   0  0  0  0  0  0  0  0  0  0  0  0
   27.8976  226.3058   30.4951 O   0  0  0  0  0  0  0  0  0  0  0  0
   26.9192  224.0683   29.5184 O   0  0  0  0  0  0  0  0  0  0  0  0
  2  1  1  1
  2  3  1  0
  3  4  2  0
  5  3  1  1
  4 13  1  0
  5  6  1  0
  6  7  2  0
  6 11  1  0
  7  8  1  0
  8  9  2  0
  9 10  1  0
 12  9  1  6
 10 11  2  0
 13 14  1  6
 14 15  1  0
 15 16  1  0
 15 17  2  0
 15 18  1  1
 16 19  1  0
 19 20  1  6
 19 21  2  0
 19 22  1  0
M  END
$$$$
