
     RDKit          3D

 22 22  0  0  0  0  0  0  0  0999 V2000
   23.8819  228.7999   30.4029 O   0  0  0  0  0  0  0  0  0  0  0  0
   25.1644  228.6114   30.8174 C   0  0  0  0  0  0  0  0  0  0  0  0
   25.4644  227.4074   31.5954 C   0  0  0  0  0  0  0  0  0  0  0  0
   25.9356  226.2625   31.1886 C   0  0  0  0  0  0  0  0  0  0  0  0
   25.1660  227.5776   33.0784 C   0  0  0  0  0  0  0  0  0  0  0  0
   26.0373  228.5974   33.6861 C   0  0  0  0  0  0  0  0  0  0  0  0
   27.1983  228.2962   34.3680 C   0  0  0  0  0  0  0  0  0  0  0  0
   27.9949  229.2706   34.9269 C   0  0  0  0  0  0  0  0  0  0  0  0
   27.6590  230.6026   34.8256 C   0  0  0  0  0  0  0  0  0  0  0  0
   26.5074  230.9115   34.1501 C   0  0  0  0  0  0  0  0  0  0  0  0
   25.7137  229.9498   33.5939 C   0  0  0  0  0  0  0  0  0  0  0  0
   28.5347  231.6436   35.4377 C   0  0  0  0  0  0  0  0  0  0  0  0
   27.2251  225.6293   31.4407 C   0  0  0  0  0  0  0  0  0  0  0  0
   28.2120  226.3369   30.7153 O   0  0  0  0  0  0  0  0  0  0  0  0
   29.6431  225.4302   30.6082 P   0  0  1  0  0  5  0  0  0  0  0  0
   30.6554  225.9238   31.8642 O   0  0  0  0  0  0  0  0  0  0  0  0
   29.3440  223.9601   30.7881 O   0  0  0  0  0  0  0  0  0  0  0  0
   30.3795  225.7063   29.1247 O   0  0  0  0  0  0  0  0  0  0  0  0
   30.4308  224.9062   33.1923 P   0  0  2  0  0  5  0  0  0  0  0  0
   30.7911  223.3240   32.7168 O   0  0  0  0  0  0  0  0  0  0  0  0
   29.0040  224.9317   33.6576 O   0  0  0  0  0  0  0  0  0  0  0  0
   31.4823  225.3066   34.4544 O   0  0  0  0  0  0  0  0  0  0  0  0
  2  1  1  1
  2  3  1  0
  3  4  2  0
  5  3  1  1
  4 13  1  0
  5  6  1  0
  6  7  2  0
  6 11  1  0
  7  8  1  0
  8  9  2  0
  9 10  1  0
 12  9  1  6
 10 11  2  0
 13 14  1  6
 14 15  1  0
 15 16  1  0
 15 17  2  0
 15 18  1  6
 16 19  1  0
 19 20  1  6
 19 21  2  0
 19 22  1  0
M  END
$$$$
