
     RDKit          3D

 51 52  0  0  0  0  0  0  0  0999 V2000
    1.1697    4.9424  -25.8241 N   0  0  0  0  0  4  0  0  0  0  0  0
    1.0109    3.5000  -25.6402 C   0  0  2  0  0  0  0  0  0  0  0  0
   -0.3390    3.2992  -25.0320 C   0  0  0  0  0  0  0  0  0  0  0  0
   -0.6884    3.9979  -24.0147 O   0  0  0  0  0  0  0  0  0  0  0  0
    2.0909    3.0707  -24.6552 C   0  0  0  0  0  0  0  0  0  0  0  0
    2.5774    1.6684  -24.9292 C   0  0  0  0  0  0  0  0  0  0  0  0
    1.7616    0.7186  -24.0676 C   0  0  0  0  0  0  0  0  0  0  0  0
    1.3657   -0.4121  -24.8801 N   0  0  0  0  0  0  0  0  0  0  0  0
    2.3473   -1.1331  -25.6288 C   0  0  0  0  0  0  0  0  0  0  0  0
    2.8786   -0.6415  -26.8380 N   0  0  0  0  0  0  0  0  0  0  0  0
    2.7165   -2.2725  -25.1196 N   0  0  0  0  0  0  0  0  0  0  0  0
   -1.2739    2.3485  -25.5388 N   0  0  0  0  0  0  0  0  0  0  0  0
   -2.6502    2.5003  -25.1359 C   0  0  2  0  0  0  0  0  0  0  0  0
   -3.4830    1.4316  -25.6720 C   0  0  0  0  0  0  0  0  0  0  0  0
   -3.2568    1.0097  -26.8407 O   0  0  0  0  0  0  0  0  0  0  0  0
   -3.0974    3.8616  -25.7222 C   0  0  0  0  0  0  0  0  0  0  0  0
   -3.6575    4.7134  -24.6512 C   0  0  0  0  0  0  0  0  0  0  0  0
   -4.1761    5.9753  -24.9179 C   0  0  0  0  0  0  0  0  0  0  0  0
   -3.6861    4.2771  -23.3445 C   0  0  0  0  0  0  0  0  0  0  0  0
   -4.6994    6.7638  -23.9207 C   0  0  0  0  0  0  0  0  0  0  0  0
   -4.2067    5.0499  -22.3174 C   0  0  0  0  0  0  0  0  0  0  0  0
   -4.7081    6.2946  -22.6399 C   0  0  0  0  0  0  0  0  0  0  0  0
   -5.2334    7.0850  -21.6288 O   0  0  0  0  0  0  0  0  0  0  0  0
   -4.5709    0.7929  -24.9838 N   0  0  0  0  0  0  0  0  0  0  0  0
   -5.0368   -0.5060  -25.3283 C   0  0  2  0  0  0  0  0  0  0  0  0
   -5.9834   -0.4705  -26.4409 C   0  0  0  0  0  0  0  0  0  0  0  0
   -7.2301   -0.4170  -26.1890 O   0  0  0  0  0  0  0  0  0  0  0  0
   -5.8020   -1.1486  -24.1547 C   0  0  0  0  0  0  0  0  0  0  0  0
   -5.6359   -0.4833  -27.7907 N   0  0  0  0  0  0  0  0  0  0  0  0
   -6.6233   -0.5844  -28.8797 C   0  0  2  0  0  0  0  0  0  0  0  0
   -7.1473   -1.9498  -28.9524 C   0  0  0  0  0  0  0  0  0  0  0  0
   -6.4448   -2.9553  -28.5989 O   0  0  0  0  0  0  0  0  0  0  0  0
   -5.9106   -0.2737  -30.1893 C   0  0  1  0  0  0  0  0  0  0  0  0
   -6.8690   -0.3515  -31.3399 C   0  0  0  0  0  0  0  0  0  0  0  0
   -5.2282    1.0461  -30.1633 C   0  0  0  0  0  0  0  0  0  0  0  0
   -8.4454   -2.2592  -29.4099 N   0  0  0  0  0  0  0  0  0  0  0  0
   -8.8678   -3.6740  -29.5030 C   0  0  2  0  0  0  0  0  0  0  0  0
   -8.9365   -4.0980  -30.9095 C   0  0  0  0  0  0  0  0  0  0  0  0
   -9.1096   -3.1153  -31.7378 O   0  0  0  0  0  0  0  0  0  0  0  0
  -10.2878   -3.6220  -28.9134 C   0  0  1  0  0  0  0  0  0  0  0  0
  -11.0693   -4.8776  -29.1472 C   0  0  0  0  0  0  0  0  0  0  0  0
  -10.3331   -3.2704  -27.4715 C   0  0  0  0  0  0  0  0  0  0  0  0
   -8.8340   -5.4137  -31.4053 N   0  0  0  0  0  0  0  0  0  0  0  0
   -8.6881   -5.8975  -32.7495 C   0  0  2  0  0  0  0  0  0  0  0  0
   -9.9649   -6.5278  -33.2349 C   0  0  0  0  0  0  0  0  0  0  0  0
  -10.1815   -6.8802  -34.4012 O   0  0  0  0  0  0  0  0  0  0  0  0
   -7.6889   -7.0180  -32.6033 C   0  0  0  0  0  0  0  0  0  0  0  0
   -7.5172   -7.2328  -31.0929 C   0  0  0  0  0  0  0  0  0  0  0  0
   -8.8296   -6.6121  -30.5803 C   0  0  0  0  0  0  0  0  0  0  0  0
  -10.9490   -6.7138  -32.2754 O   0  0  0  0  0  0  0  0  0  0  0  0
    2.1178   -3.1166  -25.3187 H   0  0  0  0  0  0  0  0  0  0  0  0
  2  1  1  1
  2  3  1  0
  2  5  1  0
  3  4  2  0
  3 12  1  0
  5  6  1  0
  6  7  1  0
  7  8  1  0
  8  9  1  0
  9 10  1  0
  9 11  2  0
 12 13  1  0
 13 14  1  0
 13 16  1  6
 14 15  2  0
 14 24  1  0
 16 17  1  0
 17 18  2  0
 17 19  1  0
 18 20  1  0
 19 21  2  0
 20 22  2  0
 21 22  1  0
 22 23  1  0
 24 25  1  0
 25 26  1  0
 25 28  1  1
 26 27  2  0
 26 29  1  0
 30 29  1  1
 30 31  1  0
 30 33  1  0
 31 32  2  0
 31 36  1  0
 33 34  1  6
 33 35  1  0
 37 36  1  6
 37 38  1  0
 37 40  1  0
 38 39  2  0
 38 43  1  0
 40 41  1  1
 40 42  1  0
 43 44  1  0
 43 49  1  0
 44 45  1  1
 44 47  1  0
 45 46  2  0
 45 50  1  0
 47 48  1  0
 48 49  1  0
 11 51  1  0
M  CHG  1   1   1
M  END
$$$$
