
     RDKit          3D

 51 52  0  0  0  0  0  0  0  0999 V2000
   -1.3298    1.3632  -26.1695 N   0  0  0  0  0  4  0  0  0  0  0  0
   -2.4686    0.9494  -25.3498 C   0  0  2  0  0  0  0  0  0  0  0  0
   -3.1819   -0.1104  -26.1245 C   0  0  0  0  0  0  0  0  0  0  0  0
   -2.9242   -0.2692  -27.3709 O   0  0  0  0  0  0  0  0  0  0  0  0
   -3.3622    2.1748  -25.2057 C   0  0  0  0  0  0  0  0  0  0  0  0
   -2.5584    3.4401  -25.0295 C   0  0  0  0  0  0  0  0  0  0  0  0
   -3.2825    4.3114  -24.0163 C   0  0  0  0  0  0  0  0  0  0  0  0
   -3.4351    3.5580  -22.7897 N   0  0  0  0  0  0  0  0  0  0  0  0
   -4.0516    4.1636  -21.6507 C   0  0  0  0  0  0  0  0  0  0  0  0
   -5.1575    5.0292  -21.7680 N   0  0  0  0  0  0  0  0  0  0  0  0
   -3.5234    3.8625  -20.5000 N   0  0  0  0  0  0  0  0  0  0  0  0
   -4.1549   -0.9687  -25.5317 N   0  0  0  0  0  0  0  0  0  0  0  0
   -5.0432   -1.6713  -26.4244 C   0  0  2  0  0  0  0  0  0  0  0  0
   -6.0844   -0.7922  -26.9405 C   0  0  0  0  0  0  0  0  0  0  0  0
   -6.2712    0.3253  -26.3828 O   0  0  0  0  0  0  0  0  0  0  0  0
   -5.6778   -2.7931  -25.5666 C   0  0  0  0  0  0  0  0  0  0  0  0
   -6.8463   -2.2659  -24.8300 C   0  0  0  0  0  0  0  0  0  0  0  0
   -7.6898   -3.1001  -24.1053 C   0  0  0  0  0  0  0  0  0  0  0  0
   -7.1359   -0.9187  -24.8363 C   0  0  0  0  0  0  0  0  0  0  0  0
   -8.7737   -2.6068  -23.4184 C   0  0  0  0  0  0  0  0  0  0  0  0
   -8.2222   -0.3919  -24.1539 C   0  0  0  0  0  0  0  0  0  0  0  0
   -9.0256   -1.2666  -23.4510 C   0  0  0  0  0  0  0  0  0  0  0  0
  -10.1179   -0.7621  -22.7614 O   0  0  0  0  0  0  0  0  0  0  0  0
   -6.9480   -1.0804  -28.0524 N   0  0  0  0  0  0  0  0  0  0  0  0
   -7.5049   -2.3702  -28.2744 C   0  0  2  0  0  0  0  0  0  0  0  0
   -8.1750   -2.4613  -29.5697 C   0  0  0  0  0  0  0  0  0  0  0  0
   -9.2712   -1.8377  -29.7426 O   0  0  0  0  0  0  0  0  0  0  0  0
   -8.5869   -2.6937  -27.2254 C   0  0  0  0  0  0  0  0  0  0  0  0
   -7.7067   -3.1834  -30.6662 N   0  0  0  0  0  0  0  0  0  0  0  0
   -8.5817   -3.9806  -31.5435 C   0  0  2  0  0  0  0  0  0  0  0  0
   -8.7402   -5.3297  -30.9968 C   0  0  0  0  0  0  0  0  0  0  0  0
   -8.6003   -5.5668  -29.7504 O   0  0  0  0  0  0  0  0  0  0  0  0
   -7.9067   -4.0907  -32.9044 C   0  0  1  0  0  0  0  0  0  0  0  0
   -7.3231   -2.7701  -33.3093 C   0  0  0  0  0  0  0  0  0  0  0  0
   -6.8699   -5.1548  -32.9377 C   0  0  0  0  0  0  0  0  0  0  0  0
   -9.0542   -6.4552  -31.7874 N   0  0  0  0  0  0  0  0  0  0  0  0
  -10.1343   -7.3700  -31.3572 C   0  0  2  0  0  0  0  0  0  0  0  0
  -10.2950   -8.4659  -32.3246 C   0  0  0  0  0  0  0  0  0  0  0  0
  -10.6627   -8.0661  -33.5022 O   0  0  0  0  0  0  0  0  0  0  0  0
  -11.3687   -6.4533  -31.4116 C   0  0  1  0  0  0  0  0  0  0  0  0
  -12.6600   -7.2075  -31.4867 C   0  0  0  0  0  0  0  0  0  0  0  0
  -11.4365   -5.4616  -30.3084 C   0  0  0  0  0  0  0  0  0  0  0  0
  -10.0921   -9.8412  -32.0905 N   0  0  0  0  0  0  0  0  0  0  0  0
   -9.4498  -10.8417  -32.8957 C   0  0  2  0  0  0  0  0  0  0  0  0
  -10.4620  -11.7767  -33.4993 C   0  0  0  0  0  0  0  0  0  0  0  0
  -11.6134  -11.9418  -33.0766 O   0  0  0  0  0  0  0  0  0  0  0  0
   -8.6745  -11.6489  -31.8845 C   0  0  0  0  0  0  0  0  0  0  0  0
   -9.1423  -11.1574  -30.5074 C   0  0  0  0  0  0  0  0  0  0  0  0
  -10.5038  -10.5464  -30.8864 C   0  0  0  0  0  0  0  0  0  0  0  0
  -10.0385  -12.4883  -34.6119 O   0  0  0  0  0  0  0  0  0  0  0  0
   -2.6771    3.2345  -20.4972 H   0  0  0  0  0  0  0  0  0  0  0  0
  2  1  1  6
  2  3  1  0
  2  5  1  0
  3  4  2  0
  3 12  1  0
  5  6  1  0
  6  7  1  0
  7  8  1  0
  8  9  1  0
  9 10  1  0
  9 11  2  0
 12 13  1  0
 13 14  1  0
 13 16  1  1
 14 15  2  0
 14 24  1  0
 16 17  1  0
 17 18  2  0
 17 19  1  0
 18 20  1  0
 19 21  2  0
 20 22  2  0
 21 22  1  0
 22 23  1  0
 24 25  1  0
 25 26  1  0
 25 28  1  1
 26 27  2  0
 26 29  1  0
 30 29  1  1
 30 31  1  0
 30 33  1  0
 31 32  2  0
 31 36  1  0
 33 34  1  1
 33 35  1  0
 37 36  1  6
 37 38  1  0
 37 40  1  0
 38 39  2  0
 38 43  1  0
 40 41  1  1
 40 42  1  0
 43 44  1  0
 43 49  1  0
 44 45  1  1
 44 47  1  0
 45 46  2  0
 45 50  1  0
 47 48  1  0
 48 49  1  0
 11 51  1  0
M  CHG  1   1   1
M  END
$$$$
