
     RDKit          3D

 51 52  0  0  0  0  0  0  0  0999 V2000
   -1.5832    3.4082  -25.5261 N   0  0  0  0  0  4  0  0  0  0  0  0
   -0.5521    2.8643  -24.6426 C   0  0  2  0  0  0  0  0  0  0  0  0
   -1.2176    1.8121  -23.8165 C   0  0  0  0  0  0  0  0  0  0  0  0
   -0.5624    1.2301  -22.8799 O   0  0  0  0  0  0  0  0  0  0  0  0
   -0.1005    4.0136  -23.7503 C   0  0  0  0  0  0  0  0  0  0  0  0
   -0.9596    4.1387  -22.5156 C   0  0  0  0  0  0  0  0  0  0  0  0
   -2.2510    4.8316  -22.9182 C   0  0  0  0  0  0  0  0  0  0  0  0
   -3.3392    4.2481  -22.1627 N   0  0  0  0  0  0  0  0  0  0  0  0
   -4.6931    4.5200  -22.5330 C   0  0  0  0  0  0  0  0  0  0  0  0
   -5.0324    5.5521  -23.4307 N   0  0  0  0  0  0  0  0  0  0  0  0
   -5.5899    3.7517  -21.9859 N   0  0  0  0  0  0  0  0  0  0  0  0
   -2.5721    1.4169  -24.0257 N   0  0  0  0  0  0  0  0  0  0  0  0
   -2.7943    0.1660  -24.7080 C   0  0  2  0  0  0  0  0  0  0  0  0
   -3.8264    0.2922  -25.7288 C   0  0  0  0  0  0  0  0  0  0  0  0
   -3.9622    1.3967  -26.3259 O   0  0  0  0  0  0  0  0  0  0  0  0
   -3.2584   -0.8199  -23.6082 C   0  0  0  0  0  0  0  0  0  0  0  0
   -4.3206   -0.1988  -22.7885 C   0  0  0  0  0  0  0  0  0  0  0  0
   -4.7788    1.0892  -23.0410 C   0  0  0  0  0  0  0  0  0  0  0  0
   -4.8968   -0.8850  -21.7416 C   0  0  0  0  0  0  0  0  0  0  0  0
   -5.7690    1.6631  -22.2793 C   0  0  0  0  0  0  0  0  0  0  0  0
   -5.8967   -0.3324  -20.9555 C   0  0  0  0  0  0  0  0  0  0  0  0
   -6.3127    0.9498  -21.2516 C   0  0  0  0  0  0  0  0  0  0  0  0
   -7.3111    1.5228  -20.4783 O   0  0  0  0  0  0  0  0  0  0  0  0
   -4.7346   -0.7453  -26.1337 N   0  0  0  0  0  0  0  0  0  0  0  0
   -5.7238   -0.5478  -27.1363 C   0  0  2  0  0  0  0  0  0  0  0  0
   -6.5663   -1.7285  -27.3139 C   0  0  0  0  0  0  0  0  0  0  0  0
   -6.0911   -2.7395  -27.9241 O   0  0  0  0  0  0  0  0  0  0  0  0
   -5.0750   -0.2923  -28.5109 C   0  0  0  0  0  0  0  0  0  0  0  0
   -7.8772   -1.8547  -26.8571 N   0  0  0  0  0  0  0  0  0  0  0  0
   -8.9217   -2.5923  -27.5892 C   0  0  2  0  0  0  0  0  0  0  0  0
   -8.3225   -3.3337  -28.7006 C   0  0  0  0  0  0  0  0  0  0  0  0
   -7.7550   -2.7351  -29.6749 O   0  0  0  0  0  0  0  0  0  0  0  0
   -9.8996   -1.5752  -28.1628 C   0  0  1  0  0  0  0  0  0  0  0  0
  -11.0057   -2.2685  -28.9004 C   0  0  0  0  0  0  0  0  0  0  0  0
  -10.4505   -0.6696  -27.1212 C   0  0  0  0  0  0  0  0  0  0  0  0
   -8.3234   -4.7420  -28.7837 N   0  0  0  0  0  0  0  0  0  0  0  0
   -7.7823   -5.4014  -29.9924 C   0  0  2  0  0  0  0  0  0  0  0  0
   -8.8335   -5.5517  -31.0098 C   0  0  0  0  0  0  0  0  0  0  0  0
  -10.0340   -5.5305  -30.5196 O   0  0  0  0  0  0  0  0  0  0  0  0
   -7.3911   -6.7874  -29.4510 C   0  0  1  0  0  0  0  0  0  0  0  0
   -6.8658   -7.7068  -30.5096 C   0  0  0  0  0  0  0  0  0  0  0  0
   -6.4393   -6.7467  -28.3120 C   0  0  0  0  0  0  0  0  0  0  0  0
   -8.6538   -5.7074  -32.3993 N   0  0  0  0  0  0  0  0  0  0  0  0
   -9.5613   -5.4857  -33.4899 C   0  0  2  0  0  0  0  0  0  0  0  0
  -10.0218   -6.7911  -34.0791 C   0  0  0  0  0  0  0  0  0  0  0  0
   -9.3961   -7.8568  -34.0142 O   0  0  0  0  0  0  0  0  0  0  0  0
   -8.6896   -4.8319  -34.5329 C   0  0  0  0  0  0  0  0  0  0  0  0
   -7.2507   -4.9492  -34.0109 C   0  0  0  0  0  0  0  0  0  0  0  0
   -7.4130   -6.1269  -33.0325 C   0  0  0  0  0  0  0  0  0  0  0  0
  -11.2438   -6.7598  -34.7344 O   0  0  0  0  0  0  0  0  0  0  0  0
   -5.2578    3.0085  -21.3168 H   0  0  0  0  0  0  0  0  0  0  0  0
  2  1  1  6
  2  3  1  0
  2  5  1  0
  3  4  2  0
  3 12  1  0
  5  6  1  0
  6  7  1  0
  7  8  1  0
  8  9  1  0
  9 10  1  0
  9 11  2  0
 12 13  1  0
 13 14  1  0
 13 16  1  1
 14 15  2  0
 14 24  1  0
 16 17  1  0
 17 18  2  0
 17 19  1  0
 18 20  1  0
 19 21  2  0
 20 22  2  0
 21 22  1  0
 22 23  1  0
 24 25  1  0
 25 26  1  0
 25 28  1  6
 26 27  2  0
 26 29  1  0
 30 29  1  6
 30 31  1  0
 30 33  1  0
 31 32  2  0
 31 36  1  0
 33 34  1  1
 33 35  1  0
 37 36  1  1
 37 38  1  0
 37 40  1  0
 38 39  2  0
 38 43  1  0
 40 41  1  6
 40 42  1  0
 43 44  1  0
 43 49  1  0
 44 45  1  6
 44 47  1  0
 45 46  2  0
 45 50  1  0
 47 48  1  0
 48 49  1  0
 11 51  1  0
M  CHG  1   1   1
M  END
$$$$
