
     RDKit          3D

 51 52  0  0  0  0  0  0  0  0999 V2000
   -2.8108    2.9275  -26.8331 N   0  0  0  0  0  4  0  0  0  0  0  0
   -2.7141    1.9282  -25.7692 C   0  0  2  0  0  0  0  0  0  0  0  0
   -4.0460    1.2545  -25.7020 C   0  0  0  0  0  0  0  0  0  0  0  0
   -4.8314    1.2960  -26.7153 O   0  0  0  0  0  0  0  0  0  0  0  0
   -2.4578    2.6972  -24.4792 C   0  0  0  0  0  0  0  0  0  0  0  0
   -3.4931    3.7711  -24.2489 C   0  0  0  0  0  0  0  0  0  0  0  0
   -3.1287    4.4979  -22.9648 C   0  0  0  0  0  0  0  0  0  0  0  0
   -3.3937    3.6161  -21.8478 N   0  0  0  0  0  0  0  0  0  0  0  0
   -2.7108    3.8092  -20.6068 C   0  0  0  0  0  0  0  0  0  0  0  0
   -3.4005    3.9792  -19.3895 N   0  0  0  0  0  0  0  0  0  0  0  0
   -1.4112    3.8180  -20.6764 N   0  0  0  0  0  0  0  0  0  0  0  0
   -4.4932    0.5554  -24.5419 N   0  0  0  0  0  0  0  0  0  0  0  0
   -5.4793   -0.4786  -24.7365 C   0  0  2  0  0  0  0  0  0  0  0  0
   -5.5817   -0.8596  -26.1392 C   0  0  0  0  0  0  0  0  0  0  0  0
   -4.9089   -0.2205  -26.9957 O   0  0  0  0  0  0  0  0  0  0  0  0
   -6.8161    0.1396  -24.2593 C   0  0  0  0  0  0  0  0  0  0  0  0
   -6.8067    0.2896  -22.7884 C   0  0  0  0  0  0  0  0  0  0  0  0
   -6.6620    1.5321  -22.1820 C   0  0  0  0  0  0  0  0  0  0  0  0
   -6.9458   -0.8072  -21.9659 C   0  0  0  0  0  0  0  0  0  0  0  0
   -6.6570    1.6692  -20.8141 C   0  0  0  0  0  0  0  0  0  0  0  0
   -6.9439   -0.7005  -20.5832 C   0  0  0  0  0  0  0  0  0  0  0  0
   -6.7968    0.5579  -20.0357 C   0  0  0  0  0  0  0  0  0  0  0  0
   -6.7915    0.6884  -18.6551 O   0  0  0  0  0  0  0  0  0  0  0  0
   -6.3992   -1.9200  -26.6610 N   0  0  0  0  0  0  0  0  0  0  0  0
   -6.2719   -2.3990  -27.9942 C   0  0  2  0  0  0  0  0  0  0  0  0
   -7.1625   -3.5271  -28.2577 C   0  0  0  0  0  0  0  0  0  0  0  0
   -7.6604   -4.1632  -27.2739 O   0  0  0  0  0  0  0  0  0  0  0  0
   -4.8478   -2.9257  -28.2592 C   0  0  0  0  0  0  0  0  0  0  0  0
   -7.5324   -3.9785  -29.5235 N   0  0  0  0  0  0  0  0  0  0  0  0
   -8.9280   -4.0113  -29.9951 C   0  0  2  0  0  0  0  0  0  0  0  0
   -8.9796   -4.5279  -31.3643 C   0  0  0  0  0  0  0  0  0  0  0  0
   -8.0403   -4.3042  -32.1992 O   0  0  0  0  0  0  0  0  0  0  0  0
   -9.4546   -2.5822  -30.0014 C   0  0  1  0  0  0  0  0  0  0  0  0
  -10.7985   -2.5209  -30.6638 C   0  0  0  0  0  0  0  0  0  0  0  0
   -9.5145   -1.9948  -28.6377 C   0  0  0  0  0  0  0  0  0  0  0  0
  -10.0503   -5.2998  -31.8623 N   0  0  0  0  0  0  0  0  0  0  0  0
   -9.9815   -6.7758  -31.7880 C   0  0  2  0  0  0  0  0  0  0  0  0
  -11.1558   -7.3781  -32.4368 C   0  0  0  0  0  0  0  0  0  0  0  0
  -12.2489   -7.2472  -31.7513 O   0  0  0  0  0  0  0  0  0  0  0  0
  -10.0515   -7.0220  -30.2710 C   0  0  1  0  0  0  0  0  0  0  0  0
  -10.0494   -8.4749  -29.9091 C   0  0  0  0  0  0  0  0  0  0  0  0
   -9.0026   -6.3152  -29.4930 C   0  0  0  0  0  0  0  0  0  0  0  0
  -11.1899   -8.0488  -33.6763 N   0  0  0  0  0  0  0  0  0  0  0  0
  -10.5986   -7.7086  -34.9399 C   0  0  2  0  0  0  0  0  0  0  0  0
  -11.6463   -7.2497  -35.9169 C   0  0  0  0  0  0  0  0  0  0  0  0
  -12.8638   -7.2373  -35.6954 O   0  0  0  0  0  0  0  0  0  0  0  0
  -10.0933   -9.0354  -35.4494 C   0  0  0  0  0  0  0  0  0  0  0  0
  -10.6653  -10.0958  -34.4979 C   0  0  0  0  0  0  0  0  0  0  0  0
  -11.8589   -9.3189  -33.9130 C   0  0  0  0  0  0  0  0  0  0  0  0
  -11.1753   -6.8131  -37.1463 O   0  0  0  0  0  0  0  0  0  0  0  0
   -0.9711    3.9300  -21.6273 H   0  0  0  0  0  0  0  0  0  0  0  0
  2  1  1  6
  2  3  1  0
  2  5  1  0
  3  4  2  0
  3 12  1  0
  5  6  1  0
  6  7  1  0
  7  8  1  0
  8  9  1  0
  9 10  1  0
  9 11  2  0
 12 13  1  0
 13 14  1  0
 13 16  1  6
 14 15  2  0
 14 24  1  0
 16 17  1  0
 17 18  2  0
 17 19  1  0
 18 20  1  0
 19 21  2  0
 20 22  2  0
 21 22  1  0
 22 23  1  0
 24 25  1  0
 25 26  1  0
 25 28  1  1
 26 27  2  0
 26 29  1  0
 30 29  1  6
 30 31  1  0
 30 33  1  0
 31 32  2  0
 31 36  1  0
 33 34  1  1
 33 35  1  0
 37 36  1  1
 37 38  1  0
 37 40  1  0
 38 39  2  0
 38 43  1  0
 40 41  1  6
 40 42  1  0
 43 44  1  0
 43 49  1  0
 44 45  1  6
 44 47  1  0
 45 46  2  0
 45 50  1  0
 47 48  1  0
 48 49  1  0
 11 51  1  0
M  CHG  1   1   1
M  END
$$$$
