
     RDKit          3D

 51 52  0  0  0  0  0  0  0  0999 V2000
    1.4618    2.9765  -26.7961 N   0  0  0  0  0  4  0  0  0  0  0  0
    1.5503    2.4587  -25.4309 C   0  0  2  0  0  0  0  0  0  0  0  0
    0.2742    1.7248  -25.1754 C   0  0  0  0  0  0  0  0  0  0  0  0
    0.2089    0.4644  -25.4038 O   0  0  0  0  0  0  0  0  0  0  0  0
    1.6407    3.6732  -24.5156 C   0  0  0  0  0  0  0  0  0  0  0  0
    2.7552    4.6050  -24.9253 C   0  0  0  0  0  0  0  0  0  0  0  0
    2.5369    5.9295  -24.2125 C   0  0  0  0  0  0  0  0  0  0  0  0
    3.2879    5.9135  -22.9751 N   0  0  0  0  0  0  0  0  0  0  0  0
    2.6005    5.8723  -21.7222 C   0  0  0  0  0  0  0  0  0  0  0  0
    1.1943    5.8264  -21.6392 N   0  0  0  0  0  0  0  0  0  0  0  0
    3.3593    5.8804  -20.6649 N   0  0  0  0  0  0  0  0  0  0  0  0
   -0.8965    2.3729  -24.6812 N   0  0  0  0  0  0  0  0  0  0  0  0
   -2.0582    1.5491  -24.4547 C   0  0  2  0  0  0  0  0  0  0  0  0
   -2.6911    1.1643  -25.7095 C   0  0  0  0  0  0  0  0  0  0  0  0
   -2.7517    2.0090  -26.6464 O   0  0  0  0  0  0  0  0  0  0  0  0
   -3.0248    2.4290  -23.6249 C   0  0  0  0  0  0  0  0  0  0  0  0
   -4.0503    1.5821  -22.9790 C   0  0  0  0  0  0  0  0  0  0  0  0
   -5.3680    2.0045  -22.8459 C   0  0  0  0  0  0  0  0  0  0  0  0
   -3.7294    0.3354  -22.4879 C   0  0  0  0  0  0  0  0  0  0  0  0
   -6.3204    1.2137  -22.2479 C   0  0  0  0  0  0  0  0  0  0  0  0
   -4.6678   -0.4846  -21.8793 C   0  0  0  0  0  0  0  0  0  0  0  0
   -5.9610   -0.0140  -21.7743 C   0  0  0  0  0  0  0  0  0  0  0  0
   -6.9161   -0.8167  -21.1690 O   0  0  0  0  0  0  0  0  0  0  0  0
   -3.2735   -0.1181  -25.9945 N   0  0  0  0  0  0  0  0  0  0  0  0
   -3.8670   -0.4270  -27.2496 C   0  0  2  0  0  0  0  0  0  0  0  0
   -5.3258   -0.3624  -27.1959 C   0  0  0  0  0  0  0  0  0  0  0  0
   -5.9429   -1.0627  -26.3304 O   0  0  0  0  0  0  0  0  0  0  0  0
   -3.5324   -1.8687  -27.6799 C   0  0  0  0  0  0  0  0  0  0  0  0
   -6.1251    0.4232  -28.0245 N   0  0  0  0  0  0  0  0  0  0  0  0
   -7.1102   -0.1367  -28.9664 C   0  0  2  0  0  0  0  0  0  0  0  0
   -7.3931   -1.5314  -28.6213 C   0  0  0  0  0  0  0  0  0  0  0  0
   -6.9261   -2.0656  -27.5603 O   0  0  0  0  0  0  0  0  0  0  0  0
   -6.4982   -0.1022  -30.3607 C   0  0  1  0  0  0  0  0  0  0  0  0
   -7.4941   -0.5629  -31.3827 C   0  0  0  0  0  0  0  0  0  0  0  0
   -5.9679    1.2406  -30.7131 C   0  0  0  0  0  0  0  0  0  0  0  0
   -8.1892   -2.3814  -29.4176 N   0  0  0  0  0  0  0  0  0  0  0  0
   -8.8963   -3.5185  -28.7887 C   0  0  2  0  0  0  0  0  0  0  0  0
   -9.6414   -4.2829  -29.8001 C   0  0  0  0  0  0  0  0  0  0  0  0
  -10.4985   -3.5680  -30.4605 O   0  0  0  0  0  0  0  0  0  0  0  0
   -9.8872   -2.8008  -27.8559 C   0  0  1  0  0  0  0  0  0  0  0  0
  -10.9165   -3.7180  -27.2717 C   0  0  0  0  0  0  0  0  0  0  0  0
   -9.2413   -2.0227  -26.7686 C   0  0  0  0  0  0  0  0  0  0  0  0
   -9.5074   -5.6547  -30.0962 N   0  0  0  0  0  0  0  0  0  0  0  0
   -9.2029   -6.3189  -31.3324 C   0  0  2  0  0  0  0  0  0  0  0  0
  -10.4218   -7.0024  -31.8892 C   0  0  0  0  0  0  0  0  0  0  0  0
  -11.4215   -7.3146  -31.2300 O   0  0  0  0  0  0  0  0  0  0  0  0
   -8.2569   -7.4145  -30.9081 C   0  0  0  0  0  0  0  0  0  0  0  0
   -8.2840   -7.4214  -29.3731 C   0  0  0  0  0  0  0  0  0  0  0  0
   -9.6362   -6.7287  -29.1233 C   0  0  0  0  0  0  0  0  0  0  0  0
  -10.3875   -7.2864  -33.2464 O   0  0  0  0  0  0  0  0  0  0  0  0
    4.4031    5.8910  -20.8095 H   0  0  0  0  0  0  0  0  0  0  0  0
  2  1  1  6
  2  3  1  0
  2  5  1  0
  3  4  2  0
  3 12  1  0
  5  6  1  0
  6  7  1  0
  7  8  1  0
  8  9  1  0
  9 10  1  0
  9 11  2  0
 12 13  1  0
 13 14  1  0
 13 16  1  1
 14 15  2  0
 14 24  1  0
 16 17  1  0
 17 18  2  0
 17 19  1  0
 18 20  1  0
 19 21  2  0
 20 22  2  0
 21 22  1  0
 22 23  1  0
 24 25  1  0
 25 26  1  0
 25 28  1  1
 26 27  2  0
 26 29  1  0
 30 29  1  1
 30 31  1  0
 30 33  1  0
 31 32  2  0
 31 36  1  0
 33 34  1  6
 33 35  1  0
 37 36  1  6
 37 38  1  0
 37 40  1  0
 38 39  2  0
 38 43  1  0
 40 41  1  1
 40 42  1  0
 43 44  1  0
 43 49  1  0
 44 45  1  1
 44 47  1  0
 45 46  2  0
 45 50  1  0
 47 48  1  0
 48 49  1  0
 11 51  1  0
M  CHG  1   1   1
M  END
$$$$
