
     RDKit          3D

 51 52  0  0  0  0  0  0  0  0999 V2000
   -2.4339    2.8244  -23.0435 N   0  0  0  0  0  4  0  0  0  0  0  0
   -3.1471    1.5577  -23.2068 C   0  0  2  0  0  0  0  0  0  0  0  0
   -3.5646    1.4913  -24.6398 C   0  0  0  0  0  0  0  0  0  0  0  0
   -4.6180    2.1136  -25.0247 O   0  0  0  0  0  0  0  0  0  0  0  0
   -4.3780    1.6391  -22.3127 C   0  0  0  0  0  0  0  0  0  0  0  0
   -5.3680    0.5411  -22.6167 C   0  0  0  0  0  0  0  0  0  0  0  0
   -5.9300    0.0452  -21.2946 C   0  0  0  0  0  0  0  0  0  0  0  0
   -6.0584    1.1747  -20.3984 N   0  0  0  0  0  0  0  0  0  0  0  0
   -5.5506    1.0905  -19.0646 C   0  0  0  0  0  0  0  0  0  0  0  0
   -5.1091    2.2265  -18.3569 N   0  0  0  0  0  0  0  0  0  0  0  0
   -5.5232   -0.1040  -18.5486 N   0  0  0  0  0  0  0  0  0  0  0  0
   -2.8333    0.7535  -25.6173 N   0  0  0  0  0  0  0  0  0  0  0  0
   -3.4588    0.5654  -26.9030 C   0  0  2  0  0  0  0  0  0  0  0  0
   -4.8047    0.0242  -26.7664 C   0  0  0  0  0  0  0  0  0  0  0  0
   -4.9855   -0.9815  -26.0242 O   0  0  0  0  0  0  0  0  0  0  0  0
   -2.5566   -0.4473  -27.6496 C   0  0  0  0  0  0  0  0  0  0  0  0
   -2.8643   -0.4276  -29.0957 C   0  0  0  0  0  0  0  0  0  0  0  0
   -3.4944   -1.4963  -29.7228 C   0  0  0  0  0  0  0  0  0  0  0  0
   -2.5360    0.6621  -29.8726 C   0  0  0  0  0  0  0  0  0  0  0  0
   -3.7824   -1.4739  -31.0669 C   0  0  0  0  0  0  0  0  0  0  0  0
   -2.8130    0.7134  -31.2305 C   0  0  0  0  0  0  0  0  0  0  0  0
   -3.4400   -0.3760  -31.8004 C   0  0  0  0  0  0  0  0  0  0  0  0
   -3.7264   -0.3470  -33.1569 O   0  0  0  0  0  0  0  0  0  0  0  0
   -5.9817    0.5341  -27.4143 N   0  0  0  0  0  0  0  0  0  0  0  0
   -7.1781   -0.2254  -27.5356 C   0  0  2  0  0  0  0  0  0  0  0  0
   -7.3669   -0.7362  -28.8915 C   0  0  0  0  0  0  0  0  0  0  0  0
   -7.2637    0.0672  -29.8735 O   0  0  0  0  0  0  0  0  0  0  0  0
   -8.4172    0.6441  -27.2449 C   0  0  0  0  0  0  0  0  0  0  0  0
   -7.6509   -2.0613  -29.2174 N   0  0  0  0  0  0  0  0  0  0  0  0
   -7.7015   -2.5611  -30.6025 C   0  0  2  0  0  0  0  0  0  0  0  0
   -8.1308   -3.9610  -30.6120 C   0  0  0  0  0  0  0  0  0  0  0  0
   -7.3682   -4.8970  -30.1976 O   0  0  0  0  0  0  0  0  0  0  0  0
   -6.2940   -2.4869  -31.1796 C   0  0  1  0  0  0  0  0  0  0  0  0
   -6.2142   -3.2490  -32.4685 C   0  0  0  0  0  0  0  0  0  0  0  0
   -5.8326   -1.0870  -31.3685 C   0  0  0  0  0  0  0  0  0  0  0  0
   -9.3970   -4.3811  -31.0709 N   0  0  0  0  0  0  0  0  0  0  0  0
   -9.8051   -5.7921  -30.8948 C   0  0  2  0  0  0  0  0  0  0  0  0
   -9.2719   -6.6211  -31.9862 C   0  0  0  0  0  0  0  0  0  0  0  0
   -9.0377   -5.9552  -33.0741 O   0  0  0  0  0  0  0  0  0  0  0  0
  -11.3354   -5.6994  -31.0223 C   0  0  1  0  0  0  0  0  0  0  0  0
  -12.0031   -7.0378  -31.0925 C   0  0  0  0  0  0  0  0  0  0  0  0
  -11.9828   -4.8764  -29.9695 C   0  0  0  0  0  0  0  0  0  0  0  0
   -9.0072   -8.0053  -31.9491 N   0  0  0  0  0  0  0  0  0  0  0  0
   -8.3623   -8.8597  -32.9063 C   0  0  2  0  0  0  0  0  0  0  0  0
   -9.3632   -9.7479  -33.5935 C   0  0  0  0  0  0  0  0  0  0  0  0
  -10.5572   -9.8420  -33.2823 O   0  0  0  0  0  0  0  0  0  0  0  0
   -7.5146   -9.7612  -32.0437 C   0  0  0  0  0  0  0  0  0  0  0  0
   -7.9417   -9.4801  -30.5961 C   0  0  0  0  0  0  0  0  0  0  0  0
   -9.3402   -8.8831  -30.8378 C   0  0  0  0  0  0  0  0  0  0  0  0
   -8.8757  -10.5012  -34.6511 O   0  0  0  0  0  0  0  0  0  0  0  0
   -5.6750   -0.9220  -19.1954 H   0  0  0  0  0  0  0  0  0  0  0  0
  2  1  1  6
  2  3  1  0
  2  5  1  0
  3  4  2  0
  3 12  1  0
  5  6  1  0
  6  7  1  0
  7  8  1  0
  8  9  1  0
  9 10  1  0
  9 11  2  0
 12 13  1  0
 13 14  1  0
 13 16  1  6
 14 15  2  0
 14 24  1  0
 16 17  1  0
 17 18  2  0
 17 19  1  0
 18 20  1  0
 19 21  2  0
 20 22  2  0
 21 22  1  0
 22 23  1  0
 24 25  1  0
 25 26  1  0
 25 28  1  6
 26 27  2  0
 26 29  1  0
 30 29  1  1
 30 31  1  0
 30 33  1  0
 31 32  2  0
 31 36  1  0
 33 34  1  6
 33 35  1  0
 37 36  1  6
 37 38  1  0
 37 40  1  0
 38 39  2  0
 38 43  1  0
 40 41  1  1
 40 42  1  0
 43 44  1  0
 43 49  1  0
 44 45  1  1
 44 47  1  0
 45 46  2  0
 45 50  1  0
 47 48  1  0
 48 49  1  0
 11 51  1  0
M  CHG  1   1   1
M  END
$$$$
