
     RDKit          3D

 51 52  0  0  0  0  0  0  0  0999 V2000
   -2.4802    1.8083  -26.3561 N   0  0  0  0  0  4  0  0  0  0  0  0
   -3.1235    0.5297  -26.0541 C   0  0  2  0  0  0  0  0  0  0  0  0
   -3.7893    0.6966  -24.7270 C   0  0  0  0  0  0  0  0  0  0  0  0
   -3.0958    0.6058  -23.6518 O   0  0  0  0  0  0  0  0  0  0  0  0
   -2.0053   -0.4992  -25.9460 C   0  0  0  0  0  0  0  0  0  0  0  0
   -2.4414   -1.8581  -26.4375 C   0  0  0  0  0  0  0  0  0  0  0  0
   -1.2816   -2.8188  -26.2326 C   0  0  0  0  0  0  0  0  0  0  0  0
   -0.0693   -2.1802  -26.6993 N   0  0  0  0  0  0  0  0  0  0  0  0
    0.2433   -2.1727  -28.0944 C   0  0  0  0  0  0  0  0  0  0  0  0
   -0.6628   -2.6374  -29.0687 N   0  0  0  0  0  0  0  0  0  0  0  0
    1.4194   -1.7091  -28.4038 N   0  0  0  0  0  0  0  0  0  0  0  0
   -5.1861    0.9557  -24.5978 N   0  0  0  0  0  0  0  0  0  0  0  0
   -6.0706    0.2559  -25.4964 C   0  0  2  0  0  0  0  0  0  0  0  0
   -6.0540   -1.1800  -25.2492 C   0  0  0  0  0  0  0  0  0  0  0  0
   -5.2130   -1.8950  -25.8626 O   0  0  0  0  0  0  0  0  0  0  0  0
   -5.5268    0.5528  -26.9152 C   0  0  0  0  0  0  0  0  0  0  0  0
   -6.6454    0.8683  -27.8292 C   0  0  0  0  0  0  0  0  0  0  0  0
   -7.4627   -0.1265  -28.3535 C   0  0  0  0  0  0  0  0  0  0  0  0
   -6.9168    2.1702  -28.1899 C   0  0  0  0  0  0  0  0  0  0  0  0
   -8.5043    0.1699  -29.2005 C   0  0  0  0  0  0  0  0  0  0  0  0
   -7.9596    2.5000  -29.0425 C   0  0  0  0  0  0  0  0  0  0  0  0
   -8.7387    1.4718  -29.5331 C   0  0  0  0  0  0  0  0  0  0  0  0
   -9.7868    1.7781  -30.3879 O   0  0  0  0  0  0  0  0  0  0  0  0
   -6.9278   -1.8851  -24.3523 N   0  0  0  0  0  0  0  0  0  0  0  0
   -7.8858   -2.8337  -24.8055 C   0  0  2  0  0  0  0  0  0  0  0  0
   -7.5584   -3.3508  -26.1324 C   0  0  0  0  0  0  0  0  0  0  0  0
   -7.3180   -2.5279  -27.0733 O   0  0  0  0  0  0  0  0  0  0  0  0
   -9.2791   -2.1895  -24.9449 C   0  0  0  0  0  0  0  0  0  0  0  0
   -7.4764   -4.7008  -26.4696 N   0  0  0  0  0  0  0  0  0  0  0  0
   -7.3134   -5.1809  -27.8530 C   0  0  2  0  0  0  0  0  0  0  0  0
   -8.6165   -5.5497  -28.4096 C   0  0  0  0  0  0  0  0  0  0  0  0
   -9.4317   -6.2931  -27.7676 O   0  0  0  0  0  0  0  0  0  0  0  0
   -6.4373   -6.4263  -27.8170 C   0  0  1  0  0  0  0  0  0  0  0  0
   -6.4875   -7.1417  -29.1339 C   0  0  0  0  0  0  0  0  0  0  0  0
   -5.0330   -6.1200  -27.4396 C   0  0  0  0  0  0  0  0  0  0  0  0
   -9.0684   -5.1217  -29.6757 N   0  0  0  0  0  0  0  0  0  0  0  0
  -10.3528   -5.6331  -30.2026 C   0  0  2  0  0  0  0  0  0  0  0  0
  -10.1425   -6.8878  -30.9401 C   0  0  0  0  0  0  0  0  0  0  0  0
   -8.9360   -7.0233  -31.3961 O   0  0  0  0  0  0  0  0  0  0  0  0
  -10.7584   -4.5221  -31.1865 C   0  0  1  0  0  0  0  0  0  0  0  0
  -11.9646   -4.8694  -32.0028 C   0  0  0  0  0  0  0  0  0  0  0  0
  -10.9534   -3.1931  -30.5535 C   0  0  0  0  0  0  0  0  0  0  0  0
  -11.0925   -7.9018  -31.1784 N   0  0  0  0  0  0  0  0  0  0  0  0
  -10.9567   -9.1769  -31.8247 C   0  0  2  0  0  0  0  0  0  0  0  0
  -11.6168   -9.1668  -33.1765 C   0  0  0  0  0  0  0  0  0  0  0  0
  -12.4590   -8.3390  -33.5467 O   0  0  0  0  0  0  0  0  0  0  0  0
  -11.7825  -10.0912  -30.9545 C   0  0  0  0  0  0  0  0  0  0  0  0
  -12.5327   -9.1756  -29.9768 C   0  0  0  0  0  0  0  0  0  0  0  0
  -12.4840   -7.8491  -30.7569 C   0  0  0  0  0  0  0  0  0  0  0  0
  -11.2264  -10.1739  -34.0464 O   0  0  0  0  0  0  0  0  0  0  0  0
    2.0521   -1.4096  -27.6161 H   0  0  0  0  0  0  0  0  0  0  0  0
  2  1  1  1
  2  3  1  0
  2  5  1  0
  3  4  2  0
  3 12  1  0
  5  6  1  0
  6  7  1  0
  7  8  1  0
  8  9  1  0
  9 10  1  0
  9 11  2  0
 12 13  1  0
 13 14  1  0
 13 16  1  6
 14 15  2  0
 14 24  1  0
 16 17  1  0
 17 18  2  0
 17 19  1  0
 18 20  1  0
 19 21  2  0
 20 22  2  0
 21 22  1  0
 22 23  1  0
 24 25  1  0
 25 26  1  0
 25 28  1  6
 26 27  2  0
 26 29  1  0
 30 29  1  1
 30 31  1  0
 30 33  1  0
 31 32  2  0
 31 36  1  0
 33 34  1  6
 33 35  1  0
 37 36  1  6
 37 38  1  0
 37 40  1  0
 38 39  2  0
 38 43  1  0
 40 41  1  1
 40 42  1  0
 43 44  1  0
 43 49  1  0
 44 45  1  6
 44 47  1  0
 45 46  2  0
 45 50  1  0
 47 48  1  0
 48 49  1  0
 11 51  1  0
M  CHG  1   1   1
M  END
$$$$
