
     RDKit          3D

 51 52  0  0  0  0  0  0  0  0999 V2000
   -1.0453    1.9546  -26.2174 N   0  0  0  0  0  4  0  0  0  0  0  0
   -1.4425    2.0147  -24.8108 C   0  0  2  0  0  0  0  0  0  0  0  0
   -2.5175    0.9925  -24.6328 C   0  0  0  0  0  0  0  0  0  0  0  0
   -2.9165    0.6884  -23.4523 O   0  0  0  0  0  0  0  0  0  0  0  0
   -2.0122    3.4094  -24.5843 C   0  0  0  0  0  0  0  0  0  0  0  0
   -1.1461    4.2275  -23.6576 C   0  0  0  0  0  0  0  0  0  0  0  0
   -1.1328    3.5352  -22.3047 C   0  0  0  0  0  0  0  0  0  0  0  0
   -2.4570    3.6305  -21.7278 N   0  0  0  0  0  0  0  0  0  0  0  0
   -2.6133    3.9765  -20.3495 C   0  0  0  0  0  0  0  0  0  0  0  0
   -1.7139    4.8342  -19.6848 N   0  0  0  0  0  0  0  0  0  0  0  0
   -3.6401    3.4467  -19.7504 N   0  0  0  0  0  0  0  0  0  0  0  0
   -3.1310    0.3262  -25.7347 N   0  0  0  0  0  0  0  0  0  0  0  0
   -4.2448   -0.5415  -25.4412 C   0  0  2  0  0  0  0  0  0  0  0  0
   -5.2617   -0.4737  -26.4826 C   0  0  0  0  0  0  0  0  0  0  0  0
   -5.4049    0.6034  -27.1262 O   0  0  0  0  0  0  0  0  0  0  0  0
   -4.8246   -0.0202  -24.1036 C   0  0  0  0  0  0  0  0  0  0  0  0
   -6.1709   -0.5894  -23.8807 C   0  0  0  0  0  0  0  0  0  0  0  0
   -7.2968    0.2189  -23.7736 C   0  0  0  0  0  0  0  0  0  0  0  0
   -6.3531   -1.9511  -23.7747 C   0  0  0  0  0  0  0  0  0  0  0  0
   -8.5480   -0.3132  -23.5697 C   0  0  0  0  0  0  0  0  0  0  0  0
   -7.6023   -2.5169  -23.5683 C   0  0  0  0  0  0  0  0  0  0  0  0
   -8.6849   -1.6666  -23.4698 C   0  0  0  0  0  0  0  0  0  0  0  0
   -9.9437   -2.2103  -23.2630 O   0  0  0  0  0  0  0  0  0  0  0  0
   -6.1464   -1.5415  -26.8594 N   0  0  0  0  0  0  0  0  0  0  0  0
   -6.7135   -1.6424  -28.1599 C   0  0  2  0  0  0  0  0  0  0  0  0
   -7.7385   -2.6815  -28.2308 C   0  0  0  0  0  0  0  0  0  0  0  0
   -7.6123   -3.7229  -27.5097 O   0  0  0  0  0  0  0  0  0  0  0  0
   -5.6473   -2.0417  -29.1988 C   0  0  0  0  0  0  0  0  0  0  0  0
   -8.8771   -2.6318  -29.0332 N   0  0  0  0  0  0  0  0  0  0  0  0
   -9.5921   -3.8330  -29.4987 C   0  0  2  0  0  0  0  0  0  0  0  0
   -8.7142   -4.6366  -30.3517 C   0  0  0  0  0  0  0  0  0  0  0  0
   -7.4576   -4.7076  -30.1393 O   0  0  0  0  0  0  0  0  0  0  0  0
  -10.7833   -3.3768  -30.3309 C   0  0  1  0  0  0  0  0  0  0  0  0
  -11.6360   -4.5492  -30.7140 C   0  0  0  0  0  0  0  0  0  0  0  0
  -11.5946   -2.3419  -29.6386 C   0  0  0  0  0  0  0  0  0  0  0  0
   -9.1766   -5.3832  -31.4558 N   0  0  0  0  0  0  0  0  0  0  0  0
   -8.9466   -6.8441  -31.4959 C   0  0  2  0  0  0  0  0  0  0  0  0
   -9.9407   -7.4971  -32.3608 C   0  0  0  0  0  0  0  0  0  0  0  0
  -11.1500   -7.4353  -31.8965 O   0  0  0  0  0  0  0  0  0  0  0  0
   -9.1977   -7.2464  -30.0323 C   0  0  1  0  0  0  0  0  0  0  0  0
  -10.2554   -8.2956  -29.8826 C   0  0  0  0  0  0  0  0  0  0  0  0
   -7.9755   -7.6658  -29.3007 C   0  0  0  0  0  0  0  0  0  0  0  0
   -9.7007   -8.1486  -33.5877 N   0  0  0  0  0  0  0  0  0  0  0  0
  -10.1720   -7.8522  -34.9114 C   0  0  2  0  0  0  0  0  0  0  0  0
  -11.2081   -8.8513  -35.3489 C   0  0  0  0  0  0  0  0  0  0  0  0
  -11.3373   -9.9889  -34.8790 O   0  0  0  0  0  0  0  0  0  0  0  0
   -8.9561   -8.0962  -35.7701 C   0  0  0  0  0  0  0  0  0  0  0  0
   -7.9188   -8.7566  -34.8509 C   0  0  0  0  0  0  0  0  0  0  0  0
   -8.8447   -9.3132  -33.7540 C   0  0  0  0  0  0  0  0  0  0  0  0
  -12.0659   -8.4304  -36.3542 O   0  0  0  0  0  0  0  0  0  0  0  0
   -4.2328    2.7693  -20.2984 H   0  0  0  0  0  0  0  0  0  0  0  0
  2  1  1  6
  2  3  1  0
  2  5  1  0
  3  4  2  0
  3 12  1  0
  5  6  1  0
  6  7  1  0
  7  8  1  0
  8  9  1  0
  9 10  1  0
  9 11  2  0
 12 13  1  0
 13 14  1  0
 13 16  1  1
 14 15  2  0
 14 24  1  0
 16 17  1  0
 17 18  2  0
 17 19  1  0
 18 20  1  0
 19 21  2  0
 20 22  2  0
 21 22  1  0
 22 23  1  0
 24 25  1  0
 25 26  1  0
 25 28  1  6
 26 27  2  0
 26 29  1  0
 30 29  1  6
 30 31  1  0
 30 33  1  0
 31 32  2  0
 31 36  1  0
 33 34  1  1
 33 35  1  0
 37 36  1  1
 37 38  1  0
 37 40  1  0
 38 39  2  0
 38 43  1  0
 40 41  1  6
 40 42  1  0
 43 44  1  0
 43 49  1  0
 44 45  1  6
 44 47  1  0
 45 46  2  0
 45 50  1  0
 47 48  1  0
 48 49  1  0
 11 51  1  0
M  CHG  1   1   1
M  END
$$$$
