
     RDKit          3D

 51 52  0  0  0  0  0  0  0  0999 V2000
   -1.9515    2.8447  -24.3125 N   0  0  0  0  0  4  0  0  0  0  0  0
   -3.2885    2.5184  -24.8079 C   0  0  2  0  0  0  0  0  0  0  0  0
   -3.7837    1.3856  -23.9690 C   0  0  0  0  0  0  0  0  0  0  0  0
   -2.9509    0.5299  -23.5006 O   0  0  0  0  0  0  0  0  0  0  0  0
   -3.1121    2.0563  -26.2489 C   0  0  0  0  0  0  0  0  0  0  0  0
   -4.3418    2.3270  -27.0813 C   0  0  0  0  0  0  0  0  0  0  0  0
   -4.7836    1.0094  -27.6967 C   0  0  0  0  0  0  0  0  0  0  0  0
   -4.8687    1.1793  -29.1317 N   0  0  0  0  0  0  0  0  0  0  0  0
   -3.9274    2.0149  -29.8097 C   0  0  0  0  0  0  0  0  0  0  0  0
   -4.3169    2.9178  -30.8194 N   0  0  0  0  0  0  0  0  0  0  0  0
   -2.6884    1.8858  -29.4328 N   0  0  0  0  0  0  0  0  0  0  0  0
   -5.1648    1.2078  -23.6600 N   0  0  0  0  0  0  0  0  0  0  0  0
   -5.5324    0.0008  -22.9617 C   0  0  2  0  0  0  0  0  0  0  0  0
   -5.6586   -1.1263  -23.8765 C   0  0  0  0  0  0  0  0  0  0  0  0
   -4.6336   -1.8150  -24.1412 O   0  0  0  0  0  0  0  0  0  0  0  0
   -6.9037    0.3085  -22.3122 C   0  0  0  0  0  0  0  0  0  0  0  0
   -6.7107    1.0824  -21.0672 C   0  0  0  0  0  0  0  0  0  0  0  0
   -6.6656    0.4644  -19.8229 C   0  0  0  0  0  0  0  0  0  0  0  0
   -6.5647    2.4521  -21.1028 C   0  0  0  0  0  0  0  0  0  0  0  0
   -6.4826    1.1860  -18.6671 C   0  0  0  0  0  0  0  0  0  0  0  0
   -6.3794    3.2068  -19.9541 C   0  0  0  0  0  0  0  0  0  0  0  0
   -6.3428    2.5406  -18.7461 C   0  0  0  0  0  0  0  0  0  0  0  0
   -6.1590    3.2750  -17.5842 O   0  0  0  0  0  0  0  0  0  0  0  0
   -6.8689   -1.5429  -24.5296 N   0  0  0  0  0  0  0  0  0  0  0  0
   -6.9662   -2.7625  -25.2548 C   0  0  2  0  0  0  0  0  0  0  0  0
   -7.9794   -2.6950  -26.3056 C   0  0  0  0  0  0  0  0  0  0  0  0
   -9.0771   -2.0962  -26.0668 O   0  0  0  0  0  0  0  0  0  0  0  0
   -7.4012   -3.9201  -24.3347 C   0  0  0  0  0  0  0  0  0  0  0  0
   -7.8472   -3.2356  -27.5835 N   0  0  0  0  0  0  0  0  0  0  0  0
   -8.8672   -3.0839  -28.6359 C   0  0  2  0  0  0  0  0  0  0  0  0
   -8.5889   -4.0084  -29.7369 C   0  0  0  0  0  0  0  0  0  0  0  0
   -7.5609   -3.8718  -30.4811 O   0  0  0  0  0  0  0  0  0  0  0  0
   -8.7808   -1.6606  -29.1712 C   0  0  1  0  0  0  0  0  0  0  0  0
   -9.8091   -1.4382  -30.2396 C   0  0  0  0  0  0  0  0  0  0  0  0
   -8.9120   -0.6426  -28.0965 C   0  0  0  0  0  0  0  0  0  0  0  0
   -9.4180   -5.1037  -30.0584 N   0  0  0  0  0  0  0  0  0  0  0  0
   -8.9453   -6.1158  -31.0284 C   0  0  2  0  0  0  0  0  0  0  0  0
   -9.1095   -5.6244  -32.4047 C   0  0  0  0  0  0  0  0  0  0  0  0
   -9.9810   -4.6701  -32.5122 O   0  0  0  0  0  0  0  0  0  0  0  0
   -9.9230   -7.2772  -30.7788 C   0  0  1  0  0  0  0  0  0  0  0  0
   -9.6663   -8.4626  -31.6568 C   0  0  0  0  0  0  0  0  0  0  0  0
   -9.9948   -7.7153  -29.3618 C   0  0  0  0  0  0  0  0  0  0  0  0
   -8.4332   -6.0796  -33.5548 N   0  0  0  0  0  0  0  0  0  0  0  0
   -8.3692   -5.5307  -34.8802 C   0  0  2  0  0  0  0  0  0  0  0  0
   -9.1758   -6.3579  -35.8436 C   0  0  0  0  0  0  0  0  0  0  0  0
   -9.7042   -5.9270  -36.8764 O   0  0  0  0  0  0  0  0  0  0  0  0
   -6.9224   -5.7238  -35.2609 C   0  0  0  0  0  0  0  0  0  0  0  0
   -6.3139   -6.6079  -34.1632 C   0  0  0  0  0  0  0  0  0  0  0  0
   -7.5903   -7.2643  -33.6059 C   0  0  0  0  0  0  0  0  0  0  0  0
   -9.3146   -7.6990  -35.5184 O   0  0  0  0  0  0  0  0  0  0  0  0
   -2.3149    0.9095  -29.2990 H   0  0  0  0  0  0  0  0  0  0  0  0
  2  1  1  1
  2  3  1  0
  2  5  1  0
  3  4  2  0
  3 12  1  0
  5  6  1  0
  6  7  1  0
  7  8  1  0
  8  9  1  0
  9 10  1  0
  9 11  2  0
 12 13  1  0
 13 14  1  0
 13 16  1  6
 14 15  2  0
 14 24  1  0
 16 17  1  0
 17 18  2  0
 17 19  1  0
 18 20  1  0
 19 21  2  0
 20 22  2  0
 21 22  1  0
 22 23  1  0
 24 25  1  0
 25 26  1  0
 25 28  1  1
 26 27  2  0
 26 29  1  0
 30 29  1  1
 30 31  1  0
 30 33  1  0
 31 32  2  0
 31 36  1  0
 33 34  1  6
 33 35  1  0
 37 36  1  1
 37 38  1  0
 37 40  1  0
 38 39  2  0
 38 43  1  0
 40 41  1  6
 40 42  1  0
 43 44  1  0
 43 49  1  0
 44 45  1  6
 44 47  1  0
 45 46  2  0
 45 50  1  0
 47 48  1  0
 48 49  1  0
 11 51  1  0
M  CHG  1   1   1
M  END
$$$$
