
     RDKit          3D

 51 52  0  0  0  0  0  0  0  0999 V2000
   -0.2146    3.6555  -23.1401 N   0  0  0  0  0  4  0  0  0  0  0  0
   -1.6570    3.4126  -23.1589 C   0  0  2  0  0  0  0  0  0  0  0  0
   -1.8664    2.1849  -23.9843 C   0  0  0  0  0  0  0  0  0  0  0  0
   -1.0729    1.9314  -24.9597 O   0  0  0  0  0  0  0  0  0  0  0  0
   -2.2865    4.6149  -23.8512 C   0  0  0  0  0  0  0  0  0  0  0  0
   -3.7616    4.7279  -23.5521 C   0  0  0  0  0  0  0  0  0  0  0  0
   -3.9076    5.2070  -22.1171 C   0  0  0  0  0  0  0  0  0  0  0  0
   -5.2679    4.9607  -21.6876 N   0  0  0  0  0  0  0  0  0  0  0  0
   -5.6680    5.2915  -20.3556 C   0  0  0  0  0  0  0  0  0  0  0  0
   -5.5246    4.3884  -19.2831 N   0  0  0  0  0  0  0  0  0  0  0  0
   -6.1734    6.4807  -20.2001 N   0  0  0  0  0  0  0  0  0  0  0  0
   -2.9278    1.2654  -23.7340 N   0  0  0  0  0  0  0  0  0  0  0  0
   -3.0170    0.1133  -24.5967 C   0  0  2  0  0  0  0  0  0  0  0  0
   -4.1435    0.2212  -25.5146 C   0  0  0  0  0  0  0  0  0  0  0  0
   -5.2545    0.6273  -25.0721 O   0  0  0  0  0  0  0  0  0  0  0  0
   -3.2251   -1.0910  -23.6463 C   0  0  0  0  0  0  0  0  0  0  0  0
   -4.5710   -1.0273  -23.0375 C   0  0  0  0  0  0  0  0  0  0  0  0
   -4.7998   -0.3602  -21.8396 C   0  0  0  0  0  0  0  0  0  0  0  0
   -5.6504   -1.6300  -23.6461 C   0  0  0  0  0  0  0  0  0  0  0  0
   -6.0530   -0.2996  -21.2774 C   0  0  0  0  0  0  0  0  0  0  0  0
   -6.9258   -1.5866  -23.1030 C   0  0  0  0  0  0  0  0  0  0  0  0
   -7.0947   -0.9102  -21.9119 C   0  0  0  0  0  0  0  0  0  0  0  0
   -8.3613   -0.8542  -21.3501 O   0  0  0  0  0  0  0  0  0  0  0  0
   -4.1162   -0.1012  -26.9148 N   0  0  0  0  0  0  0  0  0  0  0  0
   -5.2780   -0.0530  -27.7338 C   0  0  2  0  0  0  0  0  0  0  0  0
   -6.1566   -1.1980  -27.5049 C   0  0  0  0  0  0  0  0  0  0  0  0
   -5.6722   -2.2528  -26.9822 O   0  0  0  0  0  0  0  0  0  0  0  0
   -4.9044   -0.1106  -29.2280 C   0  0  0  0  0  0  0  0  0  0  0  0
   -7.5163   -1.2393  -27.8090 N   0  0  0  0  0  0  0  0  0  0  0  0
   -8.2814   -2.4930  -27.9271 C   0  0  2  0  0  0  0  0  0  0  0  0
   -7.9877   -3.1375  -29.2087 C   0  0  0  0  0  0  0  0  0  0  0  0
   -7.9127   -2.4673  -30.2925 O   0  0  0  0  0  0  0  0  0  0  0  0
   -9.7633   -2.1428  -27.8947 C   0  0  1  0  0  0  0  0  0  0  0  0
  -10.5951   -3.3508  -28.2069 C   0  0  0  0  0  0  0  0  0  0  0  0
  -10.1752   -1.5429  -26.5990 C   0  0  0  0  0  0  0  0  0  0  0  0
   -7.7679   -4.5241  -29.3473 N   0  0  0  0  0  0  0  0  0  0  0  0
   -7.5127   -5.0913  -30.6896 C   0  0  2  0  0  0  0  0  0  0  0  0
   -8.7666   -5.5666  -31.2933 C   0  0  0  0  0  0  0  0  0  0  0  0
   -9.6971   -5.8144  -30.4246 O   0  0  0  0  0  0  0  0  0  0  0  0
   -6.6134   -6.2955  -30.3609 C   0  0  1  0  0  0  0  0  0  0  0  0
   -6.2919   -7.1351  -31.5583 C   0  0  0  0  0  0  0  0  0  0  0  0
   -5.3578   -5.9391  -29.6530 C   0  0  0  0  0  0  0  0  0  0  0  0
   -9.0272   -5.7633  -32.6647 N   0  0  0  0  0  0  0  0  0  0  0  0
  -10.2611   -6.0139  -33.3553 C   0  0  2  0  0  0  0  0  0  0  0  0
  -10.3354   -7.4424  -33.8210 C   0  0  0  0  0  0  0  0  0  0  0  0
   -9.3595   -8.1376  -34.1306 O   0  0  0  0  0  0  0  0  0  0  0  0
  -10.1361   -5.1671  -34.5973 C   0  0  0  0  0  0  0  0  0  0  0  0
   -8.6859   -4.6638  -34.6180 C   0  0  0  0  0  0  0  0  0  0  0  0
   -8.0207   -5.7180  -33.7142 C   0  0  0  0  0  0  0  0  0  0  0  0
  -11.6085   -7.9878  -33.8947 O   0  0  0  0  0  0  0  0  0  0  0  0
   -6.5076    6.9887  -21.0607 H   0  0  0  0  0  0  0  0  0  0  0  0
  2  1  1  6
  2  3  1  0
  2  5  1  0
  3  4  2  0
  3 12  1  0
  5  6  1  0
  6  7  1  0
  7  8  1  0
  8  9  1  0
  9 10  1  0
  9 11  2  0
 12 13  1  0
 13 14  1  0
 13 16  1  1
 14 15  2  0
 14 24  1  0
 16 17  1  0
 17 18  2  0
 17 19  1  0
 18 20  1  0
 19 21  2  0
 20 22  2  0
 21 22  1  0
 22 23  1  0
 24 25  1  0
 25 26  1  0
 25 28  1  6
 26 27  2  0
 26 29  1  0
 30 29  1  6
 30 31  1  0
 30 33  1  0
 31 32  2  0
 31 36  1  0
 33 34  1  1
 33 35  1  0
 37 36  1  1
 37 38  1  0
 37 40  1  0
 38 39  2  0
 38 43  1  0
 40 41  1  6
 40 42  1  0
 43 44  1  0
 43 49  1  0
 44 45  1  6
 44 47  1  0
 45 46  2  0
 45 50  1  0
 47 48  1  0
 48 49  1  0
 11 51  1  0
M  CHG  1   1   1
M  END
$$$$
