
     RDKit          3D

 51 52  0  0  0  0  0  0  0  0999 V2000
    2.6075    1.4591  -26.6277 N   0  0  0  0  0  4  0  0  0  0  0  0
    1.5512    1.0643  -25.6960 C   0  0  2  0  0  0  0  0  0  0  0  0
    0.3246    0.8423  -26.5197 C   0  0  0  0  0  0  0  0  0  0  0  0
   -0.2971    1.8475  -27.0181 O   0  0  0  0  0  0  0  0  0  0  0  0
    1.3388    2.2477  -24.7603 C   0  0  0  0  0  0  0  0  0  0  0  0
    1.6891    1.9061  -23.3324 C   0  0  0  0  0  0  0  0  0  0  0  0
    0.7996    0.7517  -22.9010 C   0  0  0  0  0  0  0  0  0  0  0  0
    1.5704   -0.4716  -22.9697 N   0  0  0  0  0  0  0  0  0  0  0  0
    2.6719   -0.6734  -22.0809 C   0  0  0  0  0  0  0  0  0  0  0  0
    2.5998   -0.3494  -20.7112 N   0  0  0  0  0  0  0  0  0  0  0  0
    3.7444   -1.1753  -22.6209 N   0  0  0  0  0  0  0  0  0  0  0  0
   -0.1974   -0.4591  -26.7812 N   0  0  0  0  0  0  0  0  0  0  0  0
   -1.3611   -0.5429  -27.6288 C   0  0  2  0  0  0  0  0  0  0  0  0
   -2.5910   -0.4033  -26.8600 C   0  0  0  0  0  0  0  0  0  0  0  0
   -2.6843   -0.9911  -25.7462 O   0  0  0  0  0  0  0  0  0  0  0  0
   -1.2968   -1.9508  -28.2694 C   0  0  0  0  0  0  0  0  0  0  0  0
   -2.4449   -2.1440  -29.1808 C   0  0  0  0  0  0  0  0  0  0  0  0
   -2.5133   -1.5068  -30.4144 C   0  0  0  0  0  0  0  0  0  0  0  0
   -3.4903   -2.9719  -28.8338 C   0  0  0  0  0  0  0  0  0  0  0  0
   -3.5804   -1.6909  -31.2614 C   0  0  0  0  0  0  0  0  0  0  0  0
   -4.5802   -3.1768  -29.6666 C   0  0  0  0  0  0  0  0  0  0  0  0
   -4.5952   -2.5185  -30.8795 C   0  0  0  0  0  0  0  0  0  0  0  0
   -5.6753   -2.7081  -31.7283 O   0  0  0  0  0  0  0  0  0  0  0  0
   -3.7442    0.3569  -27.2565 N   0  0  0  0  0  0  0  0  0  0  0  0
   -4.9424    0.3850  -26.4906 C   0  0  2  0  0  0  0  0  0  0  0  0
   -5.5702   -0.9319  -26.4084 C   0  0  0  0  0  0  0  0  0  0  0  0
   -4.8689   -1.9279  -26.0387 O   0  0  0  0  0  0  0  0  0  0  0  0
   -5.9940    1.3045  -27.1421 C   0  0  0  0  0  0  0  0  0  0  0  0
   -6.9061   -1.2035  -26.6993 N   0  0  0  0  0  0  0  0  0  0  0  0
   -7.5002   -2.5476  -26.5939 C   0  0  2  0  0  0  0  0  0  0  0  0
   -8.3687   -2.8006  -27.7454 C   0  0  0  0  0  0  0  0  0  0  0  0
   -9.1511   -3.8084  -27.7841 O   0  0  0  0  0  0  0  0  0  0  0  0
   -8.3528   -2.5859  -25.3324 C   0  0  1  0  0  0  0  0  0  0  0  0
   -9.2480   -3.7888  -25.3401 C   0  0  0  0  0  0  0  0  0  0  0  0
   -7.5329   -2.5500  -24.0935 C   0  0  0  0  0  0  0  0  0  0  0  0
   -8.4105   -1.9676  -28.8832 N   0  0  0  0  0  0  0  0  0  0  0  0
   -9.1670   -2.4027  -30.0779 C   0  0  2  0  0  0  0  0  0  0  0  0
   -9.1784   -3.8702  -30.1724 C   0  0  0  0  0  0  0  0  0  0  0  0
   -8.2332   -4.4394  -29.4910 O   0  0  0  0  0  0  0  0  0  0  0  0
   -8.3176   -1.8221  -31.2217 C   0  0  1  0  0  0  0  0  0  0  0  0
   -8.2682   -0.3256  -31.2181 C   0  0  0  0  0  0  0  0  0  0  0  0
   -6.9366   -2.3640  -31.2867 C   0  0  0  0  0  0  0  0  0  0  0  0
  -10.0841   -4.6667  -30.9023 N   0  0  0  0  0  0  0  0  0  0  0  0
  -10.0141   -6.0484  -31.2870 C   0  0  2  0  0  0  0  0  0  0  0  0
   -9.7452   -6.1824  -32.7610 C   0  0  0  0  0  0  0  0  0  0  0  0
   -9.7948   -5.2533  -33.5770 O   0  0  0  0  0  0  0  0  0  0  0  0
  -11.4238   -6.5371  -31.0653 C   0  0  0  0  0  0  0  0  0  0  0  0
  -12.2623   -5.2836  -30.7780 C   0  0  0  0  0  0  0  0  0  0  0  0
  -11.3655   -4.2063  -31.4149 C   0  0  0  0  0  0  0  0  0  0  0  0
   -9.4186   -7.4564  -33.2016 O   0  0  0  0  0  0  0  0  0  0  0  0
    4.1620   -0.6694  -23.4456 H   0  0  0  0  0  0  0  0  0  0  0  0
  2  1  1  6
  2  3  1  0
  2  5  1  0
  3  4  2  0
  3 12  1  0
  5  6  1  0
  6  7  1  0
  7  8  1  0
  8  9  1  0
  9 10  1  0
  9 11  2  0
 12 13  1  0
 13 14  1  0
 13 16  1  1
 14 15  2  0
 14 24  1  0
 16 17  1  0
 17 18  2  0
 17 19  1  0
 18 20  1  0
 19 21  2  0
 20 22  2  0
 21 22  1  0
 22 23  1  0
 24 25  1  0
 25 26  1  0
 25 28  1  6
 26 27  2  0
 26 29  1  0
 30 29  1  6
 30 31  1  0
 30 33  1  0
 31 32  2  0
 31 36  1  0
 33 34  1  6
 33 35  1  0
 37 36  1  1
 37 38  1  0
 37 40  1  0
 38 39  2  0
 38 43  1  0
 40 41  1  1
 40 42  1  0
 43 44  1  0
 43 49  1  0
 44 45  1  6
 44 47  1  0
 45 46  2  0
 45 50  1  0
 47 48  1  0
 48 49  1  0
 11 51  1  0
M  CHG  1   1   1
M  END
$$$$
