
     RDKit          3D

 51 52  0  0  0  0  0  0  0  0999 V2000
   -3.0203    1.7184  -23.3299 N   0  0  0  0  0  4  0  0  0  0  0  0
   -3.6037    0.5837  -24.0453 C   0  0  2  0  0  0  0  0  0  0  0  0
   -4.4934    1.1615  -25.0972 C   0  0  0  0  0  0  0  0  0  0  0  0
   -4.7690    2.4141  -25.0792 O   0  0  0  0  0  0  0  0  0  0  0  0
   -4.4374   -0.1837  -23.0270 C   0  0  0  0  0  0  0  0  0  0  0  0
   -4.5754    0.5725  -21.7280 C   0  0  0  0  0  0  0  0  0  0  0  0
   -5.3596   -0.3025  -20.7639 C   0  0  0  0  0  0  0  0  0  0  0  0
   -6.2572    0.5421  -20.0047 N   0  0  0  0  0  0  0  0  0  0  0  0
   -7.4626   -0.0019  -19.4614 C   0  0  0  0  0  0  0  0  0  0  0  0
   -7.8039   -1.3616  -19.6063 N   0  0  0  0  0  0  0  0  0  0  0  0
   -8.2226    0.8416  -18.8254 N   0  0  0  0  0  0  0  0  0  0  0  0
   -5.0619    0.3703  -26.1390 N   0  0  0  0  0  0  0  0  0  0  0  0
   -5.3361    1.0306  -27.3914 C   0  0  2  0  0  0  0  0  0  0  0  0
   -5.9010    0.1079  -28.3675 C   0  0  0  0  0  0  0  0  0  0  0  0
   -7.1371   -0.1469  -28.3220 O   0  0  0  0  0  0  0  0  0  0  0  0
   -3.9635    1.5473  -27.8874 C   0  0  0  0  0  0  0  0  0  0  0  0
   -3.7685    2.9502  -27.4632 C   0  0  0  0  0  0  0  0  0  0  0  0
   -4.7164    3.6202  -26.6984 C   0  0  0  0  0  0  0  0  0  0  0  0
   -2.6293    3.6418  -27.8132 C   0  0  0  0  0  0  0  0  0  0  0  0
   -4.5310    4.9237  -26.3024 C   0  0  0  0  0  0  0  0  0  0  0  0
   -2.4145    4.9570  -27.4294 C   0  0  0  0  0  0  0  0  0  0  0  0
   -3.3892    5.5727  -26.6708 C   0  0  0  0  0  0  0  0  0  0  0  0
   -3.1960    6.8879  -26.2760 O   0  0  0  0  0  0  0  0  0  0  0  0
   -5.1691   -0.5637  -29.4059 N   0  0  0  0  0  0  0  0  0  0  0  0
   -5.7847   -1.4710  -30.3118 C   0  0  2  0  0  0  0  0  0  0  0  0
   -6.8767   -2.2130  -29.6857 C   0  0  0  0  0  0  0  0  0  0  0  0
   -7.3911   -1.7645  -28.6111 O   0  0  0  0  0  0  0  0  0  0  0  0
   -4.7820   -2.5382  -30.7929 C   0  0  0  0  0  0  0  0  0  0  0  0
   -7.4265   -3.3967  -30.1751 N   0  0  0  0  0  0  0  0  0  0  0  0
   -8.6138   -4.0413  -29.5871 C   0  0  2  0  0  0  0  0  0  0  0  0
   -8.9601   -5.2409  -30.3520 C   0  0  0  0  0  0  0  0  0  0  0  0
   -9.3872   -5.1681  -31.5527 O   0  0  0  0  0  0  0  0  0  0  0  0
   -9.7751   -3.0604  -29.6813 C   0  0  1  0  0  0  0  0  0  0  0  0
  -11.0839   -3.7912  -29.6451 C   0  0  0  0  0  0  0  0  0  0  0  0
   -9.7253   -2.0205  -28.6209 C   0  0  0  0  0  0  0  0  0  0  0  0
   -8.8520   -6.5489  -29.8346 N   0  0  0  0  0  0  0  0  0  0  0  0
   -8.7332   -7.6933  -30.7646 C   0  0  2  0  0  0  0  0  0  0  0  0
   -9.7834   -7.6315  -31.7921 C   0  0  0  0  0  0  0  0  0  0  0  0
  -10.8707   -7.0531  -31.3858 O   0  0  0  0  0  0  0  0  0  0  0  0
   -8.9970   -8.8892  -29.8334 C   0  0  1  0  0  0  0  0  0  0  0  0
   -8.9420  -10.2088  -30.5389 C   0  0  0  0  0  0  0  0  0  0  0  0
   -8.1203   -8.9299  -28.6356 C   0  0  0  0  0  0  0  0  0  0  0  0
   -9.7095   -8.1216  -33.1119 N   0  0  0  0  0  0  0  0  0  0  0  0
  -10.6052   -7.9563  -34.2220 C   0  0  2  0  0  0  0  0  0  0  0  0
  -11.3539   -9.2307  -34.5023 C   0  0  0  0  0  0  0  0  0  0  0  0
  -11.0138  -10.3530  -34.1069 O   0  0  0  0  0  0  0  0  0  0  0  0
   -9.6708   -7.7464  -35.3873 C   0  0  0  0  0  0  0  0  0  0  0  0
   -8.2627   -8.0493  -34.8561 C   0  0  0  0  0  0  0  0  0  0  0  0
   -8.6151   -8.9228  -33.6382 C   0  0  0  0  0  0  0  0  0  0  0  0
  -12.5069   -9.0989  -35.2617 O   0  0  0  0  0  0  0  0  0  0  0  0
   -7.8804    1.8334  -18.7269 H   0  0  0  0  0  0  0  0  0  0  0  0
  2  1  1  1
  2  3  1  0
  2  5  1  0
  3  4  2  0
  3 12  1  0
  5  6  1  0
  6  7  1  0
  7  8  1  0
  8  9  1  0
  9 10  1  0
  9 11  2  0
 12 13  1  0
 13 14  1  0
 13 16  1  6
 14 15  2  0
 14 24  1  0
 16 17  1  0
 17 18  2  0
 17 19  1  0
 18 20  1  0
 19 21  2  0
 20 22  2  0
 21 22  1  0
 22 23  1  0
 24 25  1  0
 25 26  1  0
 25 28  1  1
 26 27  2  0
 26 29  1  0
 30 29  1  6
 30 31  1  0
 30 33  1  0
 31 32  2  0
 31 36  1  0
 33 34  1  1
 33 35  1  0
 37 36  1  1
 37 38  1  0
 37 40  1  0
 38 39  2  0
 38 43  1  0
 40 41  1  6
 40 42  1  0
 43 44  1  0
 43 49  1  0
 44 45  1  6
 44 47  1  0
 45 46  2  0
 45 50  1  0
 47 48  1  0
 48 49  1  0
 11 51  1  0
M  CHG  1   1   1
M  END
$$$$
