
     RDKit          3D

 22 24  0  0  0  0  0  0  0  0999 V2000
   10.8030   53.4506   67.2219 N   0  0  0  0  0  4  0  0  0  0  0  0
   11.0855   52.5863   68.4062 C   0  0  0  0  0  0  0  0  0  0  0  0
   10.8375   51.1849   67.9596 C   0  0  0  0  0  0  0  0  0  0  0  0
    9.7365   50.4928   68.4302 C   0  0  0  0  0  0  0  0  0  0  0  0
    9.4827   49.1811   68.0278 C   0  0  0  0  0  0  0  0  0  0  0  0
   10.3287   48.5455   67.1486 C   0  0  0  0  0  0  0  0  0  0  0  0
   10.1009   47.1664   66.6984 C   0  0  0  0  0  0  0  0  0  0  0  0
   10.2691   46.8053   65.3738 C   0  0  0  0  0  0  0  0  0  0  0  0
   10.0610   45.5236   64.9349 C   0  0  0  0  0  0  0  0  0  0  0  0
   10.2400   45.1111   63.5361 C   0  0  1  0  0  0  0  0  0  0  0  0
    9.5087   45.8398   62.5056 C   0  0  0  0  0  0  0  0  0  0  0  0
    8.0882   46.0623   62.7090 N   0  0  0  0  0  0  0  0  0  0  0  0
   10.0780   46.2820   61.4581 N   0  0  0  0  0  4  0  0  0  0  0  0
   11.6616   44.7800   63.1433 C   0  0  0  0  0  0  0  0  0  0  0  0
   11.0264   43.7349   62.2117 C   0  0  0  0  0  0  0  0  0  0  0  0
    9.9856   43.5858   63.3377 C   0  0  0  0  0  0  0  0  0  0  0  0
    9.6746   44.6004   65.8718 C   0  0  0  0  0  0  0  0  0  0  0  0
    9.4973   44.9305   67.2070 C   0  0  0  0  0  0  0  0  0  0  0  0
    9.0033   43.7362   68.3878 Cl  0  0  0  0  0  0  0  0  0  0  0  0
    9.7125   46.2066   67.6017 C   0  0  0  0  0  0  0  0  0  0  0  0
   11.4215   49.2390   66.6844 C   0  0  0  0  0  0  0  0  0  0  0  0
   11.6830   50.5487   67.0805 C   0  0  0  0  0  0  0  0  0  0  0  0
  1  2  1  1
  2  3  1  1
  3 22  2  0
  3  4  1  0
  4  5  2  0
  5  6  1  0
  6  7  1  0
  6 21  2  0
  7 20  1  0
  7  8  2  0
  8  9  1  0
 10  9  1  1
  9 17  2  0
 10 16  1  0
 10 11  1  0
 14 10  1  6
 11 12  1  0
 11 13  2  3
 15 14  1  6
 16 15  1  1
 17 18  1  0
 18 19  1  0
 18 20  2  0
 21 22  1  0
M  CHG  2   1   1  13   1
M  END
$$$$
