
     RDKit          3D

 22 24  0  0  0  0  0  0  0  0999 V2000
 -287.8250  -28.6522  513.5989 N   0  0  0  0  0  4  0  0  0  0  0  0
 -289.1302  -29.1589  513.0804 C   0  0  0  0  0  0  0  0  0  0  0  0
 -290.0907  -29.0557  514.2170 C   0  0  0  0  0  0  0  0  0  0  0  0
 -289.6796  -28.5217  515.4248 C   0  0  0  0  0  0  0  0  0  0  0  0
 -290.5589  -28.4146  516.5029 C   0  0  0  0  0  0  0  0  0  0  0  0
 -291.8614  -28.8410  516.3852 C   0  0  0  0  0  0  0  0  0  0  0  0
 -292.8208  -28.7479  517.4932 C   0  0  0  0  0  0  0  0  0  0  0  0
 -292.4720  -28.1680  518.6996 C   0  0  0  0  0  0  0  0  0  0  0  0
 -293.3534  -28.0722  519.7450 C   0  0  0  0  0  0  0  0  0  0  0  0
 -293.0119  -27.4544  521.0336 C   0  0  1  0  0  0  0  0  0  0  0  0
 -293.0018  -28.3017  522.2209 C   0  0  0  0  0  0  0  0  0  0  0  0
 -291.7775  -29.0165  522.5353 N   0  0  0  0  0  0  0  0  0  0  0  0
 -294.0186  -28.4197  522.9754 N   0  0  0  0  0  4  0  0  0  0  0  0
 -291.8653  -26.4706  520.9880 C   0  0  0  0  0  0  0  0  0  0  0  0
 -292.6322  -25.7198  522.0887 C   0  0  0  0  0  0  0  0  0  0  0  0
 -293.8853  -26.1976  521.3307 C   0  0  0  0  0  0  0  0  0  0  0  0
 -294.6111  -28.5800  519.5464 C   0  0  0  0  0  0  0  0  0  0  0  0
 -294.9916  -29.1675  518.3492 C   0  0  0  0  0  0  0  0  0  0  0  0
 -296.6033  -29.8102  518.1163 Cl  0  0  0  0  0  0  0  0  0  0  0  0
 -294.0931  -29.2434  517.3406 C   0  0  0  0  0  0  0  0  0  0  0  0
 -292.2640  -29.3709  515.1821 C   0  0  0  0  0  0  0  0  0  0  0  0
 -291.3934  -29.4819  514.1001 C   0  0  0  0  0  0  0  0  0  0  0  0
  1  2  1  1
  2  3  1  1
  3 22  2  0
  3  4  1  0
  4  5  2  0
  5  6  1  0
  6  7  1  0
  6 21  2  0
  7 20  1  0
  7  8  2  0
  8  9  1  0
 10  9  1  6
  9 17  2  0
 10 16  1  0
 10 11  1  0
 14 10  1  6
 11 12  1  0
 11 13  2  3
 15 14  1  6
 16 15  1  1
 17 18  1  0
 18 19  1  0
 18 20  2  0
 21 22  1  0
M  CHG  2   1   1  13   1
M  END
$$$$
