
     RDKit          3D

 22 24  0  0  0  0  0  0  0  0999 V2000
   23.2867   34.0417   34.7288 N   0  0  0  0  0  4  0  0  0  0  0  0
   24.3280   35.0626   35.0492 C   0  0  0  0  0  0  0  0  0  0  0  0
   23.7198   35.9618   36.0721 C   0  0  0  0  0  0  0  0  0  0  0  0
   23.7025   37.3297   35.8689 C   0  0  0  0  0  0  0  0  0  0  0  0
   23.1398   38.1919   36.8106 C   0  0  0  0  0  0  0  0  0  0  0  0
   22.5869   37.6950   37.9682 C   0  0  0  0  0  0  0  0  0  0  0  0
   21.9844   38.5649   38.9865 C   0  0  0  0  0  0  0  0  0  0  0  0
   21.1920   39.6425   38.6341 C   0  0  0  0  0  0  0  0  0  0  0  0
   20.6215   40.4655   39.5700 C   0  0  0  0  0  0  0  0  0  0  0  0
   19.7696   41.6116   39.2239 C   0  0  1  0  0  0  0  0  0  0  0  0
   20.2642   42.9508   39.5231 C   0  0  0  0  0  0  0  0  0  0  0  0
   21.0329   43.6359   38.4991 N   0  0  0  0  0  0  0  0  0  0  0  0
   20.0350   43.5228   40.6355 N   0  0  0  0  0  4  0  0  0  0  0  0
   19.0766   41.5125   37.8843 C   0  0  0  0  0  0  0  0  0  0  0  0
   17.9301   42.2793   38.5633 C   0  0  0  0  0  0  0  0  0  0  0  0
   18.3326   41.4725   39.8124 C   0  0  0  0  0  0  0  0  0  0  0  0
   20.8695   40.1758   40.8868 C   0  0  0  0  0  0  0  0  0  0  0  0
   21.6593   39.1032   41.2727 C   0  0  0  0  0  0  0  0  0  0  0  0
   21.9638   38.7505   42.9602 Cl  0  0  0  0  0  0  0  0  0  0  0  0
   22.2051   38.3136   40.3191 C   0  0  0  0  0  0  0  0  0  0  0  0
   22.6073   36.3343   38.1642 C   0  0  0  0  0  0  0  0  0  0  0  0
   23.1668   35.4657   37.2298 C   0  0  0  0  0  0  0  0  0  0  0  0
  1  2  1  1
  2  3  1  1
  3 22  2  0
  3  4  1  0
  4  5  2  0
  5  6  1  0
  6  7  1  0
  6 21  2  0
  7 20  1  0
  7  8  2  0
  8  9  1  0
 10  9  1  1
  9 17  2  0
 10 16  1  0
 10 11  1  0
 14 10  1  6
 11 12  1  0
 11 13  2  3
 15 14  1  6
 16 15  1  1
 17 18  1  0
 18 19  1  0
 18 20  2  0
 21 22  1  0
M  CHG  2   1   1  13   1
M  END
$$$$
