
     RDKit          3D

 22 24  0  0  0  0  0  0  0  0999 V2000
   22.2708   50.2930   44.7229 N   0  0  0  0  0  4  0  0  0  0  0  0
   23.0380   49.5429   43.6848 C   0  0  0  0  0  0  0  0  0  0  0  0
   24.3395   49.1819   44.3177 C   0  0  0  0  0  0  0  0  0  0  0  0
   24.8532   47.9068   44.1658 C   0  0  0  0  0  0  0  0  0  0  0  0
   26.0684   47.5445   44.7479 C   0  0  0  0  0  0  0  0  0  0  0  0
   26.7849   48.4548   45.4899 C   0  0  0  0  0  0  0  0  0  0  0  0
   28.0674   48.1172   46.1207 C   0  0  0  0  0  0  0  0  0  0  0  0
   29.0161   49.0884   46.3856 C   0  0  0  0  0  0  0  0  0  0  0  0
   30.2185   48.7925   46.9733 C   0  0  0  0  0  0  0  0  0  0  0  0
   31.2403   49.8049   47.2731 C   0  0  1  0  0  0  0  0  0  0  0  0
   32.2365   49.4952   48.2926 C   0  0  0  0  0  0  0  0  0  0  0  0
   31.7925   49.4079   49.6724 N   0  0  0  0  0  0  0  0  0  0  0  0
   33.4590   49.2964   48.0042 N   0  0  0  0  0  4  0  0  0  0  0  0
   31.8151   50.5111   46.0666 C   0  0  0  0  0  0  0  0  0  0  0  0
   31.9164   51.7360   46.9901 C   0  0  0  0  0  0  0  0  0  0  0  0
   30.6112   51.1929   47.6024 C   0  0  0  0  0  0  0  0  0  0  0  0
   30.4482   47.4794   47.2930 C   0  0  0  0  0  0  0  0  0  0  0  0
   29.5178   46.4825   47.0405 C   0  0  0  0  0  0  0  0  0  0  0  0
   29.8307   44.8111   47.4567 Cl  0  0  0  0  0  0  0  0  0  0  0  0
   28.3421   46.8141   46.4588 C   0  0  0  0  0  0  0  0  0  0  0  0
   26.2688   49.7207   45.6372 C   0  0  0  0  0  0  0  0  0  0  0  0
   25.0565   50.0916   45.0597 C   0  0  0  0  0  0  0  0  0  0  0  0
  1  2  1  1
  2  3  1  1
  3 22  2  0
  3  4  1  0
  4  5  2  0
  5  6  1  0
  6  7  1  0
  6 21  2  0
  7 20  1  0
  7  8  2  0
  8  9  1  0
 10  9  1  6
  9 17  2  0
 10 16  1  0
 10 11  1  0
 14 10  1  6
 11 12  1  0
 11 13  2  3
 15 14  1  6
 16 15  1  1
 17 18  1  0
 18 19  1  0
 18 20  2  0
 21 22  1  0
M  CHG  2   1   1  13   1
M  END
$$$$
