
     RDKit          3D

 22 24  0  0  0  0  0  0  0  0999 V2000
-3258.5012-330822.2812-122921.9062 N   0  0  0  0  0  4  0  0  0  0  0  0
-3259.6545-330821.7188-122922.6719 C   0  0  0  0  0  0  0  0  0  0  0  0
-3260.4612-330822.8438-122923.0156 C   0  0  0  0  0  0  0  0  0  0  0  0
-3261.2488-330823.5312-122922.1484 C   0  0  0  0  0  0  0  0  0  0  0  0
-3262.0320-330824.7500-122922.4688 C   0  0  0  0  0  0  0  0  0  0  0  0
-3261.9841-330825.2500-122923.7266 C   0  0  0  0  0  0  0  0  0  0  0  0
-3262.7224-330826.3750-122924.1875 C   0  0  0  0  0  0  0  0  0  0  0  0
-3263.7776-330826.8750-122923.3281 C   0  0  0  0  0  0  0  0  0  0  0  0
-3264.4758-330828.0000-122923.7109 C   0  0  0  0  0  0  0  0  0  0  0  0
-3265.5085-330828.5938-122922.9141 C   0  0  1  0  0  0  0  0  0  0  0  0
-3265.4324-330830.0938-122922.7656 C   0  0  0  0  0  0  0  0  0  0  0  0
-3264.5271-330830.6875-122921.8359 N   0  0  0  0  0  0  0  0  0  0  0  0
-3266.2087-330830.7500-122923.4609 N   0  0  0  0  0  4  0  0  0  0  0  0
-3265.8660-330827.8125-122921.6484 C   0  0  0  0  0  0  0  0  0  0  0  0
-3267.2854-330828.4688-122921.8203 C   0  0  0  0  0  0  0  0  0  0  0  0
-3266.9739-330828.2500-122923.3984 C   0  0  0  0  0  0  0  0  0  0  0  0
-3264.1731-330828.5625-122924.9375 C   0  0  0  0  0  0  0  0  0  0  0  0
-3263.1238-330828.0312-122925.8047 C   0  0  0  0  0  0  0  0  0  0  0  0
-3262.8308-330828.7812-122927.3125 Cl  0  0  0  0  0  0  0  0  0  0  0  0
-3262.4138-330827.0312-122925.3906 C   0  0  0  0  0  0  0  0  0  0  0  0
-3261.1658-330824.5938-122924.6172 C   0  0  0  0  0  0  0  0  0  0  0  0
-3260.3674-330823.4062-122924.3125 C   0  0  0  0  0  0  0  0  0  0  0  0
  1  2  1  1
  2  3  1  1
  3 22  2  0
  3  4  1  0
  4  5  2  0
  5  6  1  0
  6  7  1  0
  6 21  2  0
  7 20  1  0
  7  8  2  0
  8  9  1  0
 10  9  1  6
  9 17  2  0
 10 16  1  0
 10 11  1  0
 14 10  1  6
 11 12  1  0
 11 13  2  3
 15 14  1  6
 16 15  1  1
 17 18  1  0
 18 19  1  0
 18 20  2  0
 21 22  1  0
M  CHG  2   1   1  13   1
M  END
$$$$
