
     RDKit          3D

 22 24  0  0  0  0  0  0  0  0999 V2000
   16.6859   43.3233   78.7213 N   0  0  0  0  0  4  0  0  0  0  0  0
   17.1984   41.9214   78.6872 C   0  0  0  0  0  0  0  0  0  0  0  0
   17.7900   41.7339   77.3309 C   0  0  0  0  0  0  0  0  0  0  0  0
   19.0681   42.1898   77.0638 C   0  0  0  0  0  0  0  0  0  0  0  0
   19.6437   42.0268   75.8033 C   0  0  0  0  0  0  0  0  0  0  0  0
   18.9463   41.4048   74.7937 C   0  0  0  0  0  0  0  0  0  0  0  0
   19.5122   41.2119   73.4523 C   0  0  0  0  0  0  0  0  0  0  0  0
   20.8623   40.9738   73.2689 C   0  0  0  0  0  0  0  0  0  0  0  0
   21.4086   40.7917   72.0250 C   0  0  0  0  0  0  0  0  0  0  0  0
   22.8371   40.5294   71.8021 C   0  0  1  0  0  0  0  0  0  0  0  0
   23.6540   41.6016   71.2446 C   0  0  0  0  0  0  0  0  0  0  0  0
   24.2470   42.5539   72.1666 N   0  0  0  0  0  0  0  0  0  0  0  0
   23.8602   41.7137   69.9948 N   0  0  0  0  0  4  0  0  0  0  0  0
   23.5266   39.7610   72.9061 C   0  0  0  0  0  0  0  0  0  0  0  0
   24.3726   39.1482   71.7781 C   0  0  0  0  0  0  0  0  0  0  0  0
   23.0715   39.2396   70.9583 C   0  0  0  0  0  0  0  0  0  0  0  0
   20.5540   40.8552   70.9550 C   0  0  0  0  0  0  0  0  0  0  0  0
   19.1960   41.0922   71.1054 C   0  0  0  0  0  0  0  0  0  0  0  0
   18.1215   41.1695   69.7255 Cl  0  0  0  0  0  0  0  0  0  0  0  0
   18.6942   41.2670   72.3497 C   0  0  0  0  0  0  0  0  0  0  0  0
   17.6762   40.9538   75.0655 C   0  0  0  0  0  0  0  0  0  0  0  0
   17.0933   41.1121   76.3208 C   0  0  0  0  0  0  0  0  0  0  0  0
  1  2  1  1
  2  3  1  1
  3 22  2  0
  3  4  1  0
  4  5  2  0
  5  6  1  0
  6  7  1  0
  6 21  2  0
  7 20  1  0
  7  8  2  0
  8  9  1  0
 10  9  1  1
  9 17  2  0
 10 16  1  0
 10 11  1  0
 14 10  1  6
 11 12  1  0
 11 13  2  3
 15 14  1  6
 16 15  1  1
 17 18  1  0
 18 19  1  0
 18 20  2  0
 21 22  1  0
M  CHG  2   1   1  13   1
M  END
$$$$
