
     RDKit          3D

 22 24  0  0  0  0  0  0  0  0999 V2000
  -38.9094   25.3127  126.9910 N   0  0  0  0  0  4  0  0  0  0  0  0
  -38.4293   26.5159  127.7332 C   0  0  0  0  0  0  0  0  0  0  0  0
  -37.1590   26.9277  127.0688 C   0  0  0  0  0  0  0  0  0  0  0  0
  -37.1377   28.0364  126.2422 C   0  0  0  0  0  0  0  0  0  0  0  0
  -35.9623   28.4418  125.6091 C   0  0  0  0  0  0  0  0  0  0  0  0
  -34.7928   27.7420  125.7957 C   0  0  0  0  0  0  0  0  0  0  0  0
  -33.5331   28.1322  125.1496 C   0  0  0  0  0  0  0  0  0  0  0  0
  -32.3602   27.4366  125.3818 C   0  0  0  0  0  0  0  0  0  0  0  0
  -31.1751   27.7860  124.7882 C   0  0  0  0  0  0  0  0  0  0  0  0
  -29.9171   27.0602  125.0107 C   0  0  1  0  0  0  0  0  0  0  0  0
  -29.6222   25.9172  124.1539 C   0  0  0  0  0  0  0  0  0  0  0  0
  -30.0443   25.9813  122.7660 N   0  0  0  0  0  0  0  0  0  0  0  0
  -29.0093   24.8899  124.5853 N   0  0  0  0  0  4  0  0  0  0  0  0
  -28.7137   27.9336  125.2823 C   0  0  0  0  0  0  0  0  0  0  0  0
  -28.2477   26.7886  126.1964 C   0  0  0  0  0  0  0  0  0  0  0  0
  -29.7493   26.6201  126.4970 C   0  0  0  0  0  0  0  0  0  0  0  0
  -31.1969   28.8658  123.9440 C   0  0  0  0  0  0  0  0  0  0  0  0
  -32.3559   29.5839  123.6905 C   0  0  0  0  0  0  0  0  0  0  0  0
  -32.3622   30.9603  122.6087 Cl  0  0  0  0  0  0  0  0  0  0  0  0
  -33.5063   29.2082  124.2955 C   0  0  0  0  0  0  0  0  0  0  0  0
  -34.8205   26.6408  126.6186 C   0  0  0  0  0  0  0  0  0  0  0  0
  -35.9891   26.2284  127.2550 C   0  0  0  0  0  0  0  0  0  0  0  0
  1  2  1  1
  2  3  1  1
  3 22  2  0
  3  4  1  0
  4  5  2  0
  5  6  1  0
  6  7  1  0
  6 21  2  0
  7 20  1  0
  7  8  2  0
  8  9  1  0
 10  9  1  1
  9 17  2  0
 10 16  1  0
 10 11  1  0
 14 10  1  6
 11 12  1  0
 11 13  2  3
 15 14  1  6
 16 15  1  1
 17 18  1  0
 18 19  1  0
 18 20  2  0
 21 22  1  0
M  CHG  2   1   1  13   1
M  END
$$$$
