
     RDKit          3D

 22 24  0  0  0  0  0  0  0  0999 V2000
    4.9130   29.3345   65.1095 N   0  0  0  0  0  4  0  0  0  0  0  0
    5.6318   30.6037   64.7910 C   0  0  0  0  0  0  0  0  0  0  0  0
    6.9783   30.4816   65.4210 C   0  0  0  0  0  0  0  0  0  0  0  0
    7.4678   31.5047   66.2124 C   0  0  0  0  0  0  0  0  0  0  0  0
    8.7242   31.4146   66.8126 C   0  0  0  0  0  0  0  0  0  0  0  0
    9.5068   30.2984   66.6277 C   0  0  0  0  0  0  0  0  0  0  0  0
   10.8348   30.1609   67.2393 C   0  0  0  0  0  0  0  0  0  0  0  0
   11.2786   28.9458   67.7290 C   0  0  0  0  0  0  0  0  0  0  0  0
   12.5144   28.7981   68.3033 C   0  0  0  0  0  0  0  0  0  0  0  0
   13.0139   27.5181   68.8239 C   0  0  1  0  0  0  0  0  0  0  0  0
   14.3019   27.0346   68.3392 C   0  0  0  0  0  0  0  0  0  0  0  0
   14.3571   26.4726   67.0014 N   0  0  0  0  0  0  0  0  0  0  0  0
   15.3573   27.1001   69.0454 N   0  0  0  0  0  4  0  0  0  0  0  0
   12.8132   27.3084   70.3073 C   0  0  0  0  0  0  0  0  0  0  0  0
   12.6345   25.8251   69.9447 C   0  0  0  0  0  0  0  0  0  0  0  0
   11.9664   26.3737   68.6696 C   0  0  0  0  0  0  0  0  0  0  0  0
   13.3046   29.9160   68.3747 C   0  0  0  0  0  0  0  0  0  0  0  0
   12.8889   31.1483   67.8932 C   0  0  0  0  0  0  0  0  0  0  0  0
   13.9138   32.5640   67.9942 Cl  0  0  0  0  0  0  0  0  0  0  0  0
   11.6619   31.2540   67.3331 C   0  0  0  0  0  0  0  0  0  0  0  0
    9.0144   29.2848   65.8399 C   0  0  0  0  0  0  0  0  0  0  0  0
    7.7614   29.3657   65.2366 C   0  0  0  0  0  0  0  0  0  0  0  0
  1  2  1  1
  2  3  1  1
  3 22  2  0
  3  4  1  0
  4  5  2  0
  5  6  1  0
  6  7  1  0
  6 21  2  0
  7 20  1  0
  7  8  2  0
  8  9  1  0
 10  9  1  6
  9 17  2  0
 10 16  1  0
 10 11  1  0
 14 10  1  6
 11 12  1  0
 11 13  2  3
 15 14  1  6
 16 15  1  1
 17 18  1  0
 18 19  1  0
 18 20  2  0
 21 22  1  0
M  CHG  2   1   1  13   1
M  END
$$$$
