
     RDKit          3D

 22 24  0  0  0  0  0  0  0  0999 V2000
   36.5487   50.2866   48.5342 N   0  0  0  0  0  4  0  0  0  0  0  0
   35.3399   50.9257   49.1337 C   0  0  0  0  0  0  0  0  0  0  0  0
   34.1662   50.2442   48.5150 C   0  0  0  0  0  0  0  0  0  0  0  0
   33.8230   50.5117   47.2023 C   0  0  0  0  0  0  0  0  0  0  0  0
   32.7296   49.8874   46.6009 C   0  0  0  0  0  0  0  0  0  0  0  0
   31.9657   48.9869   47.3067 C   0  0  0  0  0  0  0  0  0  0  0  0
   30.8066   48.3070   46.7144 C   0  0  0  0  0  0  0  0  0  0  0  0
   30.0516   48.9055   45.7220 C   0  0  0  0  0  0  0  0  0  0  0  0
   28.9665   48.2867   45.1577 C   0  0  0  0  0  0  0  0  0  0  0  0
   28.1522   48.8958   44.0970 C   0  0  1  0  0  0  0  0  0  0  0  0
   26.7505   49.1794   44.3838 C   0  0  0  0  0  0  0  0  0  0  0  0
   26.4364   50.4089   45.0898 N   0  0  0  0  0  0  0  0  0  0  0  0
   25.8159   48.3932   44.0295 N   0  0  0  0  0  4  0  0  0  0  0  0
   28.8382   49.9905   43.3123 C   0  0  0  0  0  0  0  0  0  0  0  0
   28.0169   49.4753   42.1191 C   0  0  0  0  0  0  0  0  0  0  0  0
   28.2311   48.0924   42.7632 C   0  0  0  0  0  0  0  0  0  0  0  0
   28.6539   47.0348   45.6206 C   0  0  0  0  0  0  0  0  0  0  0  0
   29.3907   46.4077   46.6141 C   0  0  0  0  0  0  0  0  0  0  0  0
   28.9746   44.8082   47.1913 Cl  0  0  0  0  0  0  0  0  0  0  0  0
   30.4552   47.0510   47.1467 C   0  0  0  0  0  0  0  0  0  0  0  0
   32.3122   48.7253   48.6113 C   0  0  0  0  0  0  0  0  0  0  0  0
   33.4020   49.3436   49.2202 C   0  0  0  0  0  0  0  0  0  0  0  0
  1  2  1  1
  2  3  1  1
  3 22  2  0
  3  4  1  0
  4  5  2  0
  5  6  1  0
  6  7  1  0
  6 21  2  0
  7 20  1  0
  7  8  2  0
  8  9  1  0
 10  9  1  1
  9 17  2  0
 10 16  1  0
 10 11  1  0
 14 10  1  6
 11 12  1  0
 11 13  2  3
 15 14  1  6
 16 15  1  1
 17 18  1  0
 18 19  1  0
 18 20  2  0
 21 22  1  0
M  CHG  2   1   1  13   1
M  END
$$$$
