
     RDKit          3D

 22 24  0  0  0  0  0  0  0  0999 V2000
   13.1394   46.3916   67.0105 N   0  0  0  0  0  4  0  0  0  0  0  0
   12.8829   47.4692   66.0095 C   0  0  0  0  0  0  0  0  0  0  0  0
   13.3797   48.7316   66.6296 C   0  0  0  0  0  0  0  0  0  0  0  0
   14.2832   49.5281   65.9499 C   0  0  0  0  0  0  0  0  0  0  0  0
   14.7630   50.7133   66.5084 C   0  0  0  0  0  0  0  0  0  0  0  0
   14.3440   51.1161   67.7552 C   0  0  0  0  0  0  0  0  0  0  0  0
   14.8226   52.3552   68.3817 C   0  0  0  0  0  0  0  0  0  0  0  0
   16.1409   52.7573   68.2648 C   0  0  0  0  0  0  0  0  0  0  0  0
   16.6059   53.9100   68.8426 C   0  0  0  0  0  0  0  0  0  0  0  0
   17.9984   54.3647   68.7277 C   0  0  1  0  0  0  0  0  0  0  0  0
   18.4196   54.9792   67.4737 C   0  0  0  0  0  0  0  0  0  0  0  0
   18.9399   54.1110   66.4324 N   0  0  0  0  0  0  0  0  0  0  0  0
   18.3356   56.2322   67.2737 N   0  0  0  0  0  4  0  0  0  0  0  0
   18.5475   55.0608   69.9519 C   0  0  0  0  0  0  0  0  0  0  0  0
   19.8883   54.4193   69.5592 C   0  0  0  0  0  0  0  0  0  0  0  0
   19.0143   53.2397   69.0925 C   0  0  0  0  0  0  0  0  0  0  0  0
   15.7022   54.6595   69.5502 C   0  0  0  0  0  0  0  0  0  0  0  0
   14.3742   54.2838   69.6860 C   0  0  0  0  0  0  0  0  0  0  0  0
   13.2358   55.2555   70.5942 Cl  0  0  0  0  0  0  0  0  0  0  0  0
   13.9530   53.1389   69.1010 C   0  0  0  0  0  0  0  0  0  0  0  0
   13.4457   50.3200   68.4258 C   0  0  0  0  0  0  0  0  0  0  0  0
   12.9611   49.1351   67.8763 C   0  0  0  0  0  0  0  0  0  0  0  0
  1  2  1  1
  2  3  1  1
  3 22  2  0
  3  4  1  0
  4  5  2  0
  5  6  1  0
  6  7  1  0
  6 21  2  0
  7 20  1  0
  7  8  2  0
  8  9  1  0
 10  9  1  1
  9 17  2  0
 10 16  1  0
 10 11  1  0
 14 10  1  6
 11 12  1  0
 11 13  2  3
 15 14  1  6
 16 15  1  1
 17 18  1  0
 18 19  1  0
 18 20  2  0
 21 22  1  0
M  CHG  2   1   1  13   1
M  END
$$$$
