
     RDKit          3D

 22 24  0  0  0  0  0  0  0  0999 V2000
   35.2149   19.5809   44.4793 N   0  0  0  0  0  4  0  0  0  0  0  0
   36.3115   20.2155   45.2691 C   0  0  0  0  0  0  0  0  0  0  0  0
   35.6436   21.1499   46.2208 C   0  0  0  0  0  0  0  0  0  0  0  0
   34.8579   20.6515   47.2440 C   0  0  0  0  0  0  0  0  0  0  0  0
   34.2226   21.5047   48.1469 C   0  0  0  0  0  0  0  0  0  0  0  0
   34.3660   22.8685   48.0365 C   0  0  0  0  0  0  0  0  0  0  0  0
   33.7157   23.8036   48.9636 C   0  0  0  0  0  0  0  0  0  0  0  0
   33.2330   23.3819   50.1893 C   0  0  0  0  0  0  0  0  0  0  0  0
   32.6231   24.2397   51.0675 C   0  0  0  0  0  0  0  0  0  0  0  0
   32.1087   23.8205   52.3784 C   0  0  1  0  0  0  0  0  0  0  0  0
   30.7229   24.1362   52.7060 C   0  0  0  0  0  0  0  0  0  0  0  0
   29.6872   23.2499   52.2055 N   0  0  0  0  0  0  0  0  0  0  0  0
   30.4089   25.1459   53.4124 N   0  0  0  0  0  4  0  0  0  0  0  0
   32.5298   22.4372   52.8187 C   0  0  0  0  0  0  0  0  0  0  0  0
   32.5212   23.0248   54.2393 C   0  0  0  0  0  0  0  0  0  0  0  0
   33.0167   24.3091   53.5478 C   0  0  0  0  0  0  0  0  0  0  0  0
   32.5084   25.5494   50.6793 C   0  0  0  0  0  0  0  0  0  0  0  0
   32.9818   26.0035   49.4574 C   0  0  0  0  0  0  0  0  0  0  0  0
   32.8253   27.6807   48.9807 Cl  0  0  0  0  0  0  0  0  0  0  0  0
   33.5780   25.1261   48.6176 C   0  0  0  0  0  0  0  0  0  0  0  0
   35.1483   23.3576   47.0172 C   0  0  0  0  0  0  0  0  0  0  0  0
   35.7866   22.5137   46.1110 C   0  0  0  0  0  0  0  0  0  0  0  0
  1  2  1  1
  2  3  1  1
  3 22  2  0
  3  4  1  0
  4  5  2  0
  5  6  1  0
  6  7  1  0
  6 21  2  0
  7 20  1  0
  7  8  2  0
  8  9  1  0
 10  9  1  6
  9 17  2  0
 10 16  1  0
 10 11  1  0
 14 10  1  6
 11 12  1  0
 11 13  2  3
 15 14  1  6
 16 15  1  1
 17 18  1  0
 18 19  1  0
 18 20  2  0
 21 22  1  0
M  CHG  2   1   1  13   1
M  END
$$$$
