
     RDKit          3D

 22 24  0  0  0  0  0  0  0  0999 V2000
   28.1572   39.5836   63.0078 N   0  0  0  0  0  4  0  0  0  0  0  0
   28.9221   39.0767   64.1856 C   0  0  0  0  0  0  0  0  0  0  0  0
   28.0534   39.3187   65.3737 C   0  0  0  0  0  0  0  0  0  0  0  0
   26.9138   38.5586   65.5646 C   0  0  0  0  0  0  0  0  0  0  0  0
   26.0848   38.7656   66.6677 C   0  0  0  0  0  0  0  0  0  0  0  0
   26.3866   39.7368   67.5941 C   0  0  0  0  0  0  0  0  0  0  0  0
   25.5430   39.9895   68.7693 C   0  0  0  0  0  0  0  0  0  0  0  0
   26.0951   40.1784   70.0234 C   0  0  0  0  0  0  0  0  0  0  0  0
   25.3241   40.4151   71.1318 C   0  0  0  0  0  0  0  0  0  0  0  0
   25.8843   40.6271   72.4735 C   0  0  1  0  0  0  0  0  0  0  0  0
   26.5995   41.8721   72.7309 C   0  0  0  0  0  0  0  0  0  0  0  0
   28.0492   41.8527   72.6483 N   0  0  0  0  0  0  0  0  0  0  0  0
   25.9931   42.9537   73.0127 N   0  0  0  0  0  4  0  0  0  0  0  0
   24.9900   40.2011   73.6151 C   0  0  0  0  0  0  0  0  0  0  0  0
   26.2978   39.8335   74.3350 C   0  0  0  0  0  0  0  0  0  0  0  0
   26.7837   39.4374   72.9278 C   0  0  0  0  0  0  0  0  0  0  0  0
   23.9664   40.4582   70.9473 C   0  0  0  0  0  0  0  0  0  0  0  0
   23.3822   40.2728   69.7033 C   0  0  0  0  0  0  0  0  0  0  0  0
   21.6456   40.3316   69.4892 Cl  0  0  0  0  0  0  0  0  0  0  0  0
   24.1768   40.0414   68.6330 C   0  0  0  0  0  0  0  0  0  0  0  0
   27.5209   40.4890   67.3987 C   0  0  0  0  0  0  0  0  0  0  0  0
   28.3545   40.2896   66.3005 C   0  0  0  0  0  0  0  0  0  0  0  0
  1  2  1  1
  2  3  1  1
  3 22  2  0
  3  4  1  0
  4  5  2  0
  5  6  1  0
  6  7  1  0
  6 21  2  0
  7 20  1  0
  7  8  2  0
  8  9  1  0
 10  9  1  6
  9 17  2  0
 10 16  1  0
 10 11  1  0
 14 10  1  6
 11 12  1  0
 11 13  2  3
 15 14  1  6
 16 15  1  1
 17 18  1  0
 18 19  1  0
 18 20  2  0
 21 22  1  0
M  CHG  2   1   1  13   1
M  END
$$$$
