
     RDKit          3D

 21 21  0  0  0  0  0  0  0  0999 V2000
    6.5456    3.3663  -12.1481 C   0  0  2  0  0  0  0  0  0  0  0  0
    7.8730    3.8482  -12.6373 C   0  0  0  0  0  0  0  0  0  0  0  0
    7.9088    4.1329  -14.1004 C   0  0  0  0  0  0  0  0  0  0  0  0
    6.5681    4.0582  -14.7566 C   0  0  0  0  0  0  0  0  0  0  0  0
    5.5724    4.8178  -13.8926 C   0  0  1  0  0  0  0  0  0  0  0  0
    5.4170    4.3391  -12.5378 C   0  0  0  0  0  0  0  0  0  0  0  0
    4.1233    3.8671  -12.0976 C   0  0  0  0  0  0  0  0  0  0  0  0
    2.9252    4.0659  -11.8347 C   0  0  0  0  0  0  0  0  0  0  0  0
    1.6137    3.4839  -11.9408 C   0  0  0  0  0  0  0  0  0  0  0  0
    0.9518    2.9821  -10.9019 C   0  0  0  0  0  0  0  0  0  0  0  0
   -0.3593    2.3882  -10.9914 C   0  0  0  0  0  0  0  0  0  0  0  0
   -0.9278    1.9489   -9.8270 C   0  0  0  0  0  0  0  0  0  0  0  0
   -2.2489    1.4006   -9.7451 C   0  0  0  0  0  0  0  0  0  0  0  0
   -3.0302    1.5644   -8.7068 C   0  0  0  0  0  0  0  0  0  0  0  0
   -4.3901    1.0395   -8.6222 C   0  0  0  0  0  0  0  0  0  0  0  0
   -5.0244    1.3726   -7.4091 O   0  0  0  0  0  0  0  0  0  0  0  0
    6.6404    3.3374  -10.6092 C   0  0  0  0  0  0  0  0  0  0  0  0
    6.3043    1.9668  -12.6092 C   0  0  0  0  0  0  0  0  0  0  0  0
    5.9767    6.3105  -13.9561 C   0  0  0  0  0  0  0  0  0  0  0  0
    0.8412    3.3755  -13.2222 C   0  0  0  0  0  0  0  0  0  0  0  0
   -2.8600    0.6362  -10.9016 C   0  0  0  0  0  0  0  0  0  0  0  0
  1  2  1  0
  1  6  1  1
 17  1  1  6
 18  1  1  6
  2  3  1  6
  3  4  1  6
  4  5  1  6
  5  6  1  1
 19  5  1  6
  6  7  1  0
  7  8  2  0
  8  9  1  0
  9 10  2  0
 20  9  1  6
 10 11  1  0
 11 12  2  0
 12 13  1  0
 13 14  2  0
 21 13  1  6
 14 15  1  0
 15 16  1  6
M  END
$$$$
