
     RDKit          3D

 21 21  0  0  0  0  0  0  0  0999 V2000
    5.1779    3.4095  -13.1458 C   0  0  2  0  0  0  0  0  0  0  0  0
    6.4361    3.3351  -13.9489 C   0  0  0  0  0  0  0  0  0  0  0  0
    7.3937    2.2960  -13.4734 C   0  0  0  0  0  0  0  0  0  0  0  0
    6.8342    1.4110  -12.4069 C   0  0  0  0  0  0  0  0  0  0  0  0
    5.4406    0.9742  -12.8336 C   0  0  1  0  0  0  0  0  0  0  0  0
    4.4863    2.0363  -13.0577 C   0  0  0  0  0  0  0  0  0  0  0  0
    3.2844    2.0891  -12.2560 C   0  0  0  0  0  0  0  0  0  0  0  0
    2.2141    1.5915  -11.8671 C   0  0  0  0  0  0  0  0  0  0  0  0
    1.1627    1.7422  -10.8967 C   0  0  0  0  0  0  0  0  0  0  0  0
   -0.1248    1.5700  -11.1829 C   0  0  0  0  0  0  0  0  0  0  0  0
   -1.1972    1.8018  -10.2471 C   0  0  0  0  0  0  0  0  0  0  0  0
   -2.4624    1.4744  -10.6519 C   0  0  0  0  0  0  0  0  0  0  0  0
   -3.6310    1.6747   -9.8475 C   0  0  0  0  0  0  0  0  0  0  0  0
   -4.7672    1.0617  -10.0681 C   0  0  0  0  0  0  0  0  0  0  0  0
   -6.0330    1.4505   -9.4529 C   0  0  0  0  0  0  0  0  0  0  0  0
   -7.1431    1.1647  -10.2721 O   0  0  0  0  0  0  0  0  0  0  0  0
    4.2397    4.3683  -13.9065 C   0  0  0  0  0  0  0  0  0  0  0  0
    5.4547    4.0180  -11.8107 C   0  0  0  0  0  0  0  0  0  0  0  0
    5.6200    0.0614  -14.0705 C   0  0  0  0  0  0  0  0  0  0  0  0
    1.3890    2.1059   -9.4590 C   0  0  0  0  0  0  0  0  0  0  0  0
   -3.6071    2.5770   -8.6307 C   0  0  0  0  0  0  0  0  0  0  0  0
  1  2  1  0
  1  6  1  1
 17  1  1  6
 18  1  1  6
  2  3  1  6
  3  4  1  6
  4  5  1  6
  5  6  1  6
 19  5  1  6
  6  7  1  0
  7  8  2  0
  8  9  1  0
  9 10  2  0
 20  9  1  6
 10 11  1  0
 11 12  2  0
 12 13  1  0
 13 14  2  0
 21 13  1  6
 14 15  1  0
 15 16  1  6
M  END
$$$$
