
     RDKit          3D

 21 21  0  0  0  0  0  0  0  0999 V2000
   -8.4837    2.2532   -3.5124 C   0  0  2  0  0  0  0  0  0  0  0  0
   -8.6747    2.4174   -2.0392 C   0  0  0  0  0  0  0  0  0  0  0  0
   -8.1261    1.2907   -1.2314 C   0  0  0  0  0  0  0  0  0  0  0  0
   -7.3328    0.3108   -2.0340 C   0  0  0  0  0  0  0  0  0  0  0  0
   -6.3842    1.0895   -2.9334 C   0  0  1  0  0  0  0  0  0  0  0  0
   -7.0043    2.0067   -3.8624 C   0  0  0  0  0  0  0  0  0  0  0  0
   -6.8117    1.8143   -5.2823 C   0  0  0  0  0  0  0  0  0  0  0  0
   -6.0799    1.7856   -6.2862 C   0  0  0  0  0  0  0  0  0  0  0  0
   -5.2683    0.9126   -7.0918 C   0  0  0  0  0  0  0  0  0  0  0  0
   -5.7398    0.2327   -8.1333 C   0  0  0  0  0  0  0  0  0  0  0  0
   -5.1308    0.2349   -9.4405 C   0  0  0  0  0  0  0  0  0  0  0  0
   -5.9637    0.3638  -10.5184 C   0  0  0  0  0  0  0  0  0  0  0  0
   -5.5018    0.4977  -11.8680 C   0  0  0  0  0  0  0  0  0  0  0  0
   -6.2717    0.3125  -12.9112 C   0  0  0  0  0  0  0  0  0  0  0  0
   -7.6496    0.7878  -12.9988 C   0  0  0  0  0  0  0  0  0  0  0  0
   -7.9175    1.4495  -14.2134 O   0  0  0  0  0  0  0  0  0  0  0  0
   -8.9087    3.5907   -4.1515 C   0  0  0  0  0  0  0  0  0  0  0  0
   -9.3985    1.1953   -4.0352 C   0  0  0  0  0  0  0  0  0  0  0  0
   -5.3589    1.7828   -2.0040 C   0  0  0  0  0  0  0  0  0  0  0  0
   -3.8069    0.6673   -6.8583 C   0  0  0  0  0  0  0  0  0  0  0  0
   -4.0837    0.9316  -12.1781 C   0  0  0  0  0  0  0  0  0  0  0  0
  1  2  1  0
  1  6  1  1
 17  1  1  6
 18  1  1  6
  2  3  1  6
  3  4  1  6
  4  5  1  6
  5  6  1  1
 19  5  1  6
  6  7  1  0
  7  8  2  0
  8  9  1  0
  9 10  2  0
 20  9  1  6
 10 11  1  0
 11 12  2  0
 12 13  1  0
 13 14  2  0
 21 13  1  6
 14 15  1  0
 15 16  1  6
M  END
$$$$
