
     RDKit          3D

 21 21  0  0  0  0  0  0  0  0999 V2000
    6.1501    1.9946  -13.1203 C   0  0  2  0  0  0  0  0  0  0  0  0
    7.5610    1.6652  -12.9205 C   0  0  0  0  0  0  0  0  0  0  0  0
    8.3956    2.6434  -12.1280 C   0  0  0  0  0  0  0  0  0  0  0  0
    7.6875    3.1680  -10.9572 C   0  0  0  0  0  0  0  0  0  0  0  0
    6.2604    3.6273  -11.3748 C   0  0  1  0  0  0  0  0  0  0  0  0
    5.5220    2.4217  -11.7305 C   0  0  0  0  0  0  0  0  0  0  0  0
    4.0790    2.4506  -11.9528 C   0  0  0  0  0  0  0  0  0  0  0  0
    3.1907    2.1817  -11.0322 C   0  0  0  0  0  0  0  0  0  0  0  0
    1.7296    2.2924  -11.2322 C   0  0  0  0  0  0  0  0  0  0  0  0
    0.9744    2.0944  -10.1497 C   0  0  0  0  0  0  0  0  0  0  0  0
   -0.4697    2.1495  -10.2138 C   0  0  0  0  0  0  0  0  0  0  0  0
   -1.3011    2.4298   -9.2737 C   0  0  0  0  0  0  0  0  0  0  0  0
   -2.1477    2.7044   -8.3162 C   0  0  0  0  0  0  0  0  0  0  0  0
   -3.3557    2.1887   -8.0405 C   0  0  0  0  0  0  0  0  0  0  0  0
   -4.5881    2.6467   -7.5587 C   0  0  0  0  0  0  0  0  0  0  0  0
   -5.6132    1.6544   -7.8770 O   0  0  0  0  0  0  0  0  0  0  0  0
    5.3977    0.7578  -13.5653 C   0  0  0  0  0  0  0  0  0  0  0  0
    5.8515    3.0923  -14.1155 C   0  0  0  0  0  0  0  0  0  0  0  0
    5.7324    4.5191  -10.2761 C   0  0  0  0  0  0  0  0  0  0  0  0
    1.1096    2.6307  -12.5297 C   0  0  0  0  0  0  0  0  0  0  0  0
   -1.8721    3.9465   -7.3575 C   0  0  0  0  0  0  0  0  0  0  0  0
  1  2  1  0
  1  6  1  0
  1 17  1  6
  1 18  1  0
  2  3  1  0
  3  4  1  0
  4  5  1  0
  5  6  1  0
  5 19  1  1
  6  7  1  0
  7  8  2  0
  8  9  1  0
  9 10  2  0
  9 20  1  0
 10 11  1  0
 11 12  2  0
 12 13  1  0
 13 14  2  0
 13 21  1  0
 14 15  1  0
 15 16  1  0
M  END
$$$$
