
     RDKit          3D

 21 21  0  0  0  0  0  0  0  0999 V2000
    1.0195    2.9632  -12.4614 C   0  0  2  0  0  0  0  0  0  0  0  0
    2.2793    2.6257  -13.1913 C   0  0  0  0  0  0  0  0  0  0  0  0
    3.3472    2.0583  -12.3191 C   0  0  0  0  0  0  0  0  0  0  0  0
    2.8894    1.7669  -10.9266 C   0  0  0  0  0  0  0  0  0  0  0  0
    1.5545    1.0411  -11.0066 C   0  0  1  0  0  0  0  0  0  0  0  0
    0.4870    1.7530  -11.6718 C   0  0  0  0  0  0  0  0  0  0  0  0
   -0.7145    2.0767  -10.9356 C   0  0  0  0  0  0  0  0  0  0  0  0
   -1.7802    1.7408  -10.3920 C   0  0  0  0  0  0  0  0  0  0  0  0
   -2.6819    2.0804   -9.3236 C   0  0  0  0  0  0  0  0  0  0  0  0
   -3.3053    1.1720   -8.5783 C   0  0  0  0  0  0  0  0  0  0  0  0
   -4.6626    1.3066   -8.1101 C   0  0  0  0  0  0  0  0  0  0  0  0
   -5.2186    0.2245   -7.4840 C   0  0  0  0  0  0  0  0  0  0  0  0
   -6.4044    0.2925   -6.6828 C   0  0  0  0  0  0  0  0  0  0  0  0
   -6.8122   -0.6912   -5.9204 C   0  0  0  0  0  0  0  0  0  0  0  0
   -8.0360   -0.6494   -5.1251 C   0  0  0  0  0  0  0  0  0  0  0  0
   -8.2260   -1.8187   -4.3624 O   0  0  0  0  0  0  0  0  0  0  0  0
   -0.0196    3.3220  -13.5429 C   0  0  0  0  0  0  0  0  0  0  0  0
    1.2240    4.1766  -11.6157 C   0  0  0  0  0  0  0  0  0  0  0  0
    1.8375   -0.3414  -11.6423 C   0  0  0  0  0  0  0  0  0  0  0  0
   -3.0230    3.4854   -8.9236 C   0  0  0  0  0  0  0  0  0  0  0  0
   -7.2424    1.5530   -6.6176 C   0  0  0  0  0  0  0  0  0  0  0  0
  1  2  1  0
  1  6  1  1
 17  1  1  6
 18  1  1  6
  2  3  1  6
  3  4  1  6
  4  5  1  6
  5  6  1  6
 19  5  1  6
  6  7  1  0
  7  8  2  0
  8  9  1  0
  9 10  2  0
 20  9  1  6
 10 11  1  0
 11 12  2  0
 12 13  1  0
 13 14  2  0
 21 13  1  6
 14 15  1  0
 15 16  1  6
M  END
$$$$
