
     RDKit          3D

 21 21  0  0  0  0  0  0  0  0999 V2000
    2.3100    2.5862  -11.0406 C   0  0  2  0  0  0  0  0  0  0  0  0
    3.4658    3.3882  -10.6407 C   0  0  0  0  0  0  0  0  0  0  0  0
    3.3890    4.8787  -10.8730 C   0  0  0  0  0  0  0  0  0  0  0  0
    2.0756    5.4340  -10.5355 C   0  0  0  0  0  0  0  0  0  0  0  0
    0.9601    4.5571  -11.1748 C   0  0  1  0  0  0  0  0  0  0  0  0
    0.9943    3.2723  -10.4869 C   0  0  0  0  0  0  0  0  0  0  0  0
   -0.0631    2.2819  -10.6709 C   0  0  0  0  0  0  0  0  0  0  0  0
   -0.9887    2.0256   -9.7842 C   0  0  0  0  0  0  0  0  0  0  0  0
   -2.1002    1.0736   -9.9972 C   0  0  0  0  0  0  0  0  0  0  0  0
   -2.9459    0.9236   -8.9756 C   0  0  0  0  0  0  0  0  0  0  0  0
   -4.3715    0.7969   -9.1853 C   0  0  0  0  0  0  0  0  0  0  0  0
   -5.3116    0.8003   -8.3079 C   0  0  0  0  0  0  0  0  0  0  0  0
   -6.2629    0.7952   -7.4113 C   0  0  0  0  0  0  0  0  0  0  0  0
   -6.5090   -0.0524   -6.4003 C   0  0  0  0  0  0  0  0  0  0  0  0
   -7.6176   -0.7047   -5.8467 C   0  0  0  0  0  0  0  0  0  0  0  0
   -7.1422   -1.7711   -4.9672 O   0  0  0  0  0  0  0  0  0  0  0  0
    2.3867    1.2227  -10.3860 C   0  0  0  0  0  0  0  0  0  0  0  0
    2.1246    2.3695  -12.5249 C   0  0  0  0  0  0  0  0  0  0  0  0
   -0.3146    5.3671  -11.1630 C   0  0  0  0  0  0  0  0  0  0  0  0
   -2.3109    0.3391  -11.2615 C   0  0  0  0  0  0  0  0  0  0  0  0
   -7.4705    1.8260   -7.5426 C   0  0  0  0  0  0  0  0  0  0  0  0
  1  2  1  0
  1  6  1  0
  1 17  1  1
  1 18  1  0
  2  3  1  0
  3  4  1  0
  4  5  1  0
  5  6  1  0
  5 19  1  1
  6  7  1  0
  7  8  2  0
  8  9  1  0
  9 10  2  0
  9 20  1  0
 10 11  1  0
 11 12  2  0
 12 13  1  0
 13 14  2  0
 13 21  1  0
 14 15  1  0
 15 16  1  0
M  END
$$$$
