
     RDKit          3D

 21 21  0  0  0  0  0  0  0  0999 V2000
    4.8095    3.6252  -12.2788 C   0  0  2  0  0  0  0  0  0  0  0  0
    6.2405    3.7453  -12.6932 C   0  0  0  0  0  0  0  0  0  0  0  0
    7.0556    2.5311  -12.4026 C   0  0  0  0  0  0  0  0  0  0  0  0
    6.2467    1.3686  -11.9251 C   0  0  0  0  0  0  0  0  0  0  0  0
    5.0327    1.2290  -12.8317 C   0  0  1  0  0  0  0  0  0  0  0  0
    4.1518    2.3734  -12.8888 C   0  0  0  0  0  0  0  0  0  0  0  0
    2.7758    2.2293  -12.4689 C   0  0  0  0  0  0  0  0  0  0  0  0
    1.6397    1.7474  -12.6139 C   0  0  0  0  0  0  0  0  0  0  0  0
    0.4492    1.3757  -11.8966 C   0  0  0  0  0  0  0  0  0  0  0  0
   -0.7603    1.3571  -12.4498 C   0  0  0  0  0  0  0  0  0  0  0  0
   -1.9885    1.2580  -11.7005 C   0  0  0  0  0  0  0  0  0  0  0  0
   -3.1532    1.1875  -12.4151 C   0  0  0  0  0  0  0  0  0  0  0  0
   -4.3167    0.4797  -11.9703 C   0  0  0  0  0  0  0  0  0  0  0  0
   -5.5348    0.8116  -12.3189 C   0  0  0  0  0  0  0  0  0  0  0  0
   -6.7330    0.1384  -11.8259 C   0  0  0  0  0  0  0  0  0  0  0  0
   -7.8932    0.9250  -11.9686 O   0  0  0  0  0  0  0  0  0  0  0  0
    4.0928    4.8662  -12.8483 C   0  0  0  0  0  0  0  0  0  0  0  0
    4.6977    3.6857  -10.7911 C   0  0  0  0  0  0  0  0  0  0  0  0
    5.5636    0.8138  -14.2249 C   0  0  0  0  0  0  0  0  0  0  0  0
    0.4284    0.9664  -10.4535 C   0  0  0  0  0  0  0  0  0  0  0  0
   -4.2052   -0.7580  -11.1038 C   0  0  0  0  0  0  0  0  0  0  0  0
  1  2  1  0
  1  6  1  6
 17  1  1  6
 18  1  1  6
  2  3  1  6
  3  4  1  6
  4  5  1  6
  5  6  1  6
 19  5  1  6
  6  7  1  0
  7  8  2  0
  8  9  1  0
  9 10  2  0
 20  9  1  6
 10 11  1  0
 11 12  2  0
 12 13  1  0
 13 14  2  0
 21 13  1  6
 14 15  1  0
 15 16  1  6
M  END
$$$$
