
     RDKit          3D

 21 21  0  0  0  0  0  0  0  0999 V2000
   -4.1486    0.9588   -9.5693 C   0  0  2  0  0  0  0  0  0  0  0  0
   -5.5082    0.3644   -9.3906 C   0  0  0  0  0  0  0  0  0  0  0  0
   -6.3958    0.5229  -10.5781 C   0  0  0  0  0  0  0  0  0  0  0  0
   -5.6970    1.0789  -11.7764 C   0  0  0  0  0  0  0  0  0  0  0  0
   -4.3805    0.3354  -11.9473 C   0  0  1  0  0  0  0  0  0  0  0  0
   -3.4606    0.4154  -10.8355 C   0  0  0  0  0  0  0  0  0  0  0  0
   -2.1571    1.0077  -11.0363 C   0  0  0  0  0  0  0  0  0  0  0  0
   -1.0552    1.0421  -11.6097 C   0  0  0  0  0  0  0  0  0  0  0  0
    0.1090    1.8626  -11.8131 C   0  0  0  0  0  0  0  0  0  0  0  0
    1.3459    1.4539  -11.5440 C   0  0  0  0  0  0  0  0  0  0  0  0
    2.5272    1.9883  -12.1752 C   0  0  0  0  0  0  0  0  0  0  0  0
    3.7331    1.4751  -11.7820 C   0  0  0  0  0  0  0  0  0  0  0  0
    4.9587    2.2167  -11.8076 C   0  0  0  0  0  0  0  0  0  0  0  0
    5.9446    1.9444  -12.6257 C   0  0  0  0  0  0  0  0  0  0  0  0
    7.1977    2.6929  -12.6655 C   0  0  0  0  0  0  0  0  0  0  0  0
    7.7355    2.7791  -13.9649 O   0  0  0  0  0  0  0  0  0  0  0  0
   -3.3211    0.5115   -8.3474 C   0  0  0  0  0  0  0  0  0  0  0  0
   -4.2300    2.4493   -9.5349 C   0  0  0  0  0  0  0  0  0  0  0  0
   -4.7390   -1.1229  -12.3222 C   0  0  0  0  0  0  0  0  0  0  0  0
    0.0695    3.2629  -12.3496 C   0  0  0  0  0  0  0  0  0  0  0  0
    5.1702    3.4239  -10.9171 C   0  0  0  0  0  0  0  0  0  0  0  0
  1  2  1  0
  1  6  1  6
 17  1  1  6
 18  1  1  6
  2  3  1  6
  3  4  1  6
  4  5  1  6
  5  6  1  1
 19  5  1  6
  6  7  1  0
  7  8  2  0
  8  9  1  0
  9 10  2  0
 20  9  1  6
 10 11  1  0
 11 12  2  0
 12 13  1  0
 13 14  2  0
 21 13  1  6
 14 15  1  0
 15 16  1  6
M  END
$$$$
