
     RDKit          3D

 21 21  0  0  0  0  0  0  0  0999 V2000
    6.8905    3.0556  -10.9759 C   0  0  2  0  0  0  0  0  0  0  0  0
    8.2780    3.3459  -11.4493 C   0  0  0  0  0  0  0  0  0  0  0  0
    8.6769    2.5694  -12.6580 C   0  0  0  0  0  0  0  0  0  0  0  0
    7.5542    1.7933  -13.2671 C   0  0  0  0  0  0  0  0  0  0  0  0
    6.3394    2.7050  -13.3572 C   0  0  1  0  0  0  0  0  0  0  0  0
    5.8609    3.2459  -12.1053 C   0  0  0  0  0  0  0  0  0  0  0  0
    4.5181    2.9367  -11.6676 C   0  0  0  0  0  0  0  0  0  0  0  0
    3.3122    2.7535  -11.9052 C   0  0  0  0  0  0  0  0  0  0  0  0
    2.1724    1.9642  -11.5208 C   0  0  0  0  0  0  0  0  0  0  0  0
    1.2128    2.4118  -10.7158 C   0  0  0  0  0  0  0  0  0  0  0  0
   -0.1715    2.0198  -10.8152 C   0  0  0  0  0  0  0  0  0  0  0  0
   -1.0427    2.5664   -9.9129 C   0  0  0  0  0  0  0  0  0  0  0  0
   -2.4500    2.2978   -9.9041 C   0  0  0  0  0  0  0  0  0  0  0  0
   -3.3225    3.0640   -9.2984 C   0  0  0  0  0  0  0  0  0  0  0  0
   -4.6887    2.6523   -8.9883 C   0  0  0  0  0  0  0  0  0  0  0  0
   -5.2097    3.3128   -7.8581 O   0  0  0  0  0  0  0  0  0  0  0  0
    6.5876    4.0917   -9.8746 C   0  0  0  0  0  0  0  0  0  0  0  0
    6.8338    1.7026  -10.3469 C   0  0  0  0  0  0  0  0  0  0  0  0
    6.6845    3.8048  -14.3901 C   0  0  0  0  0  0  0  0  0  0  0  0
    1.9298    0.5562  -11.9781 C   0  0  0  0  0  0  0  0  0  0  0  0
   -3.0348    1.1235  -10.6620 C   0  0  0  0  0  0  0  0  0  0  0  0
  1  2  1  0
  1  6  1  6
 17  1  1  6
 18  1  1  6
  2  3  1  6
  3  4  1  6
  4  5  1  6
  5  6  1  1
 19  5  1  6
  6  7  1  0
  7  8  2  0
  8  9  1  0
  9 10  2  0
 20  9  1  6
 10 11  1  0
 11 12  2  0
 12 13  1  0
 13 14  2  0
 21 13  1  6
 14 15  1  0
 15 16  1  6
M  END
$$$$
