
     RDKit          3D

 21 21  0  0  0  0  0  0  0  0999 V2000
   -0.9318    4.8971   -7.2089 C   0  0  2  0  0  0  0  0  0  0  0  0
   -0.0604    5.9841   -6.6678 C   0  0  0  0  0  0  0  0  0  0  0  0
    1.3988    5.7162   -6.8156 C   0  0  0  0  0  0  0  0  0  0  0  0
    1.7038    4.5055   -7.6372 C   0  0  0  0  0  0  0  0  0  0  0  0
    0.8428    4.5518   -8.8908 C   0  0  1  0  0  0  0  0  0  0  0  0
   -0.5861    4.5784   -8.6754 C   0  0  0  0  0  0  0  0  0  0  0  0
   -1.4013    3.5058   -9.2000 C   0  0  0  0  0  0  0  0  0  0  0  0
   -1.8932    2.8812  -10.1551 C   0  0  0  0  0  0  0  0  0  0  0  0
   -2.4135    1.5969  -10.5421 C   0  0  0  0  0  0  0  0  0  0  0  0
   -3.6656    1.4097  -10.9503 C   0  0  0  0  0  0  0  0  0  0  0  0
   -4.0299    1.0619  -12.3016 C   0  0  0  0  0  0  0  0  0  0  0  0
   -5.3654    0.9841  -12.5890 C   0  0  0  0  0  0  0  0  0  0  0  0
   -5.8827    0.7489  -13.9042 C   0  0  0  0  0  0  0  0  0  0  0  0
   -7.1498    0.8767  -14.2098 C   0  0  0  0  0  0  0  0  0  0  0  0
   -7.7005    0.5866  -15.5307 C   0  0  0  0  0  0  0  0  0  0  0  0
   -8.9251    1.2434  -15.7627 O   0  0  0  0  0  0  0  0  0  0  0  0
   -2.3737    5.4421   -7.1661 C   0  0  0  0  0  0  0  0  0  0  0  0
   -0.8774    3.7015   -6.3161 C   0  0  0  0  0  0  0  0  0  0  0  0
    1.3429    5.7525   -9.7297 C   0  0  0  0  0  0  0  0  0  0  0  0
   -1.6149    0.3271  -10.5341 C   0  0  0  0  0  0  0  0  0  0  0  0
   -4.9703    0.3923  -15.0599 C   0  0  0  0  0  0  0  0  0  0  0  0
  1  2  1  0
  1  6  1  6
 17  1  1  6
 18  1  1  6
  2  3  1  6
  3  4  1  6
  4  5  1  6
  5  6  1  1
 19  5  1  6
  6  7  1  0
  7  8  2  0
  8  9  1  0
  9 10  2  0
 20  9  1  6
 10 11  1  0
 11 12  2  0
 12 13  1  0
 13 14  2  0
 21 13  1  6
 14 15  1  0
 15 16  1  6
M  END
$$$$
