
     RDKit          3D

 21 21  0  0  0  0  0  0  0  0999 V2000
    4.8146    3.0459  -11.8043 C   0  0  2  0  0  0  0  0  0  0  0  0
    5.5761    4.0156  -12.5910 C   0  0  0  0  0  0  0  0  0  0  0  0
    5.1781    4.2011  -14.0363 C   0  0  0  0  0  0  0  0  0  0  0  0
    3.7245    4.2255  -14.2210 C   0  0  0  0  0  0  0  0  0  0  0  0
    3.0826    3.0325  -13.4550 C   0  0  1  0  0  0  0  0  0  0  0  0
    3.2685    3.3011  -12.0342 C   0  0  0  0  0  0  0  0  0  0  0  0
    2.5911    2.5053  -11.0141 C   0  0  0  0  0  0  0  0  0  0  0  0
    1.3565    2.7021  -10.6321 C   0  0  0  0  0  0  0  0  0  0  0  0
    0.5441    1.7027   -9.9053 C   0  0  0  0  0  0  0  0  0  0  0  0
   -0.7284    2.0358   -9.6794 C   0  0  0  0  0  0  0  0  0  0  0  0
   -1.7747    1.0381   -9.6291 C   0  0  0  0  0  0  0  0  0  0  0  0
   -3.0319    1.2086   -9.4194 C   0  0  0  0  0  0  0  0  0  0  0  0
   -4.3088    1.3924   -9.2082 C   0  0  0  0  0  0  0  0  0  0  0  0
   -4.9506    2.3019   -8.4587 C   0  0  0  0  0  0  0  0  0  0  0  0
   -6.2646    2.7528   -8.2828 C   0  0  0  0  0  0  0  0  0  0  0  0
   -6.2645    3.8154   -7.2790 O   0  0  0  0  0  0  0  0  0  0  0  0
    5.0692    3.2764  -10.3293 C   0  0  0  0  0  0  0  0  0  0  0  0
    5.0866    1.5872  -12.0913 C   0  0  0  0  0  0  0  0  0  0  0  0
    1.6840    2.8483  -13.9946 C   0  0  0  0  0  0  0  0  0  0  0  0
    1.0671    0.3920   -9.4681 C   0  0  0  0  0  0  0  0  0  0  0  0
   -5.3561    0.3227   -9.7533 C   0  0  0  0  0  0  0  0  0  0  0  0
  1  2  1  0
  1  6  1  0
  1 17  1  1
  1 18  1  0
  2  3  1  0
  3  4  1  0
  4  5  1  0
  5  6  1  0
  5 19  1  1
  6  7  1  0
  7  8  2  0
  8  9  1  0
  9 10  2  0
  9 20  1  0
 10 11  1  0
 11 12  2  0
 12 13  1  0
 13 14  2  0
 13 21  1  0
 14 15  1  0
 15 16  1  0
M  END
$$$$
