
     RDKit          3D

 21 21  0  0  0  0  0  0  0  0999 V2000
    6.1406    3.5287  -11.2272 C   0  0  2  0  0  0  0  0  0  0  0  0
    7.4887    4.1694  -11.1501 C   0  0  0  0  0  0  0  0  0  0  0  0
    8.0779    4.4947  -12.4805 C   0  0  0  0  0  0  0  0  0  0  0  0
    7.1328    4.2872  -13.6195 C   0  0  0  0  0  0  0  0  0  0  0  0
    5.7944    4.9071  -13.2464 C   0  0  1  0  0  0  0  0  0  0  0  0
    5.1621    4.3785  -12.0591 C   0  0  0  0  0  0  0  0  0  0  0  0
    3.8633    3.7527  -12.1676 C   0  0  0  0  0  0  0  0  0  0  0  0
    2.6382    3.7474  -11.9596 C   0  0  0  0  0  0  0  0  0  0  0  0
    1.4544    2.9400  -12.0883 C   0  0  0  0  0  0  0  0  0  0  0  0
    0.7260    2.5419  -11.0491 C   0  0  0  0  0  0  0  0  0  0  0  0
   -0.6697    2.1880  -11.1305 C   0  0  0  0  0  0  0  0  0  0  0  0
   -1.2566    1.6929   -9.9981 C   0  0  0  0  0  0  0  0  0  0  0  0
   -2.6297    1.2903   -9.9256 C   0  0  0  0  0  0  0  0  0  0  0  0
   -3.4911    1.8253   -9.0967 C   0  0  0  0  0  0  0  0  0  0  0  0
   -4.8054    1.2568   -8.8117 C   0  0  0  0  0  0  0  0  0  0  0  0
   -5.2592    1.5664   -7.5143 O   0  0  0  0  0  0  0  0  0  0  0  0
    5.6104    3.4700   -9.7803 C   0  0  0  0  0  0  0  0  0  0  0  0
    6.2658    2.1236  -11.7165 C   0  0  0  0  0  0  0  0  0  0  0  0
    6.0179    6.4369  -13.1733 C   0  0  0  0  0  0  0  0  0  0  0  0
    0.9030    2.4559  -13.3968 C   0  0  0  0  0  0  0  0  0  0  0  0
   -3.1969    0.2451  -10.8642 C   0  0  0  0  0  0  0  0  0  0  0  0
  1  2  1  0
  1  6  1  6
 17  1  1  6
 18  1  1  6
  2  3  1  6
  3  4  1  6
  4  5  1  6
  5  6  1  1
 19  5  1  6
  6  7  1  0
  7  8  2  0
  8  9  1  0
  9 10  2  0
 20  9  1  6
 10 11  1  0
 11 12  2  0
 12 13  1  0
 13 14  2  0
 21 13  1  6
 14 15  1  0
 15 16  1  6
M  END
$$$$
