
     RDKit          3D

 21 21  0  0  0  0  0  0  0  0999 V2000
    8.3224    1.6074  -13.0529 C   0  0  2  0  0  0  0  0  0  0  0  0
    9.6308    1.2408  -12.5118 C   0  0  0  0  0  0  0  0  0  0  0  0
   10.1379    2.0313  -11.3289 C   0  0  0  0  0  0  0  0  0  0  0  0
    9.0891    2.3029  -10.3421 C   0  0  0  0  0  0  0  0  0  0  0  0
    7.8210    2.8419  -11.0656 C   0  0  1  0  0  0  0  0  0  0  0  0
    7.2920    1.7379  -11.8573 C   0  0  0  0  0  0  0  0  0  0  0  0
    5.9774    1.8154  -12.4886 C   0  0  0  0  0  0  0  0  0  0  0  0
    4.8711    1.3994  -11.9301 C   0  0  0  0  0  0  0  0  0  0  0  0
    3.5236    1.8874  -12.2949 C   0  0  0  0  0  0  0  0  0  0  0  0
    2.5046    1.3498  -11.6213 C   0  0  0  0  0  0  0  0  0  0  0  0
    1.2595    2.0626  -11.4361 C   0  0  0  0  0  0  0  0  0  0  0  0
    0.3273    1.8336  -10.5803 C   0  0  0  0  0  0  0  0  0  0  0  0
   -0.6129    1.5982   -9.7031 C   0  0  0  0  0  0  0  0  0  0  0  0
   -1.9376    1.4489   -9.8579 C   0  0  0  0  0  0  0  0  0  0  0  0
   -3.0719    1.3864   -9.0393 C   0  0  0  0  0  0  0  0  0  0  0  0
   -4.2489    1.1931   -9.8842 O   0  0  0  0  0  0  0  0  0  0  0  0
    7.8079    0.4915  -13.9382 C   0  0  0  0  0  0  0  0  0  0  0  0
    8.2618    2.8884  -13.8527 C   0  0  0  0  0  0  0  0  0  0  0  0
    6.9432    3.4872  -10.0196 C   0  0  0  0  0  0  0  0  0  0  0  0
    3.2843    2.9280  -13.3159 C   0  0  0  0  0  0  0  0  0  0  0  0
   -0.2629    1.6329   -8.1494 C   0  0  0  0  0  0  0  0  0  0  0  0
  1  2  1  0
  1  6  1  0
  1 17  1  6
  1 18  1  0
  2  3  1  0
  3  4  1  0
  4  5  1  0
  5  6  1  0
  5 19  1  1
  6  7  1  0
  7  8  2  0
  8  9  1  0
  9 10  2  0
  9 20  1  0
 10 11  1  0
 11 12  2  0
 12 13  1  0
 13 14  2  0
 13 21  1  0
 14 15  1  0
 15 16  1  0
M  END
$$$$
