
     RDKit          3D

 21 21  0  0  0  0  0  0  0  0999 V2000
    4.7769    2.8088  -13.0030 C   0  0  2  0  0  0  0  0  0  0  0  0
    6.1906    3.2598  -13.1804 C   0  0  0  0  0  0  0  0  0  0  0  0
    6.6143    4.3097  -12.2102 C   0  0  0  0  0  0  0  0  0  0  0  0
    5.6076    4.5730  -11.1374 C   0  0  0  0  0  0  0  0  0  0  0  0
    5.1277    3.2344  -10.5961 C   0  0  1  0  0  0  0  0  0  0  0  0
    4.5120    2.3481  -11.5575 C   0  0  0  0  0  0  0  0  0  0  0  0
    3.1385    1.9396  -11.3657 C   0  0  0  0  0  0  0  0  0  0  0  0
    2.2258    1.4980  -10.6473 C   0  0  0  0  0  0  0  0  0  0  0  0
    0.8468    1.6979  -10.2890 C   0  0  0  0  0  0  0  0  0  0  0  0
   -0.0286    0.7032  -10.1728 C   0  0  0  0  0  0  0  0  0  0  0  0
   -1.3433    0.8487   -9.5984 C   0  0  0  0  0  0  0  0  0  0  0  0
   -2.3832    1.0610  -10.4619 C   0  0  0  0  0  0  0  0  0  0  0  0
   -3.7508    1.1664  -10.0482 C   0  0  0  0  0  0  0  0  0  0  0  0
   -4.7481    1.2776  -10.8898 C   0  0  0  0  0  0  0  0  0  0  0  0
   -6.1263    1.5420  -10.4864 C   0  0  0  0  0  0  0  0  0  0  0  0
   -7.0100    1.5968  -11.5823 O   0  0  0  0  0  0  0  0  0  0  0  0
    4.5952    1.5918  -13.9325 C   0  0  0  0  0  0  0  0  0  0  0  0
    3.8357    3.8714  -13.4660 C   0  0  0  0  0  0  0  0  0  0  0  0
    6.3349    2.5878   -9.8751 C   0  0  0  0  0  0  0  0  0  0  0  0
    0.2361    3.0382  -10.0043 C   0  0  0  0  0  0  0  0  0  0  0  0
   -4.1419    1.0910   -8.5865 C   0  0  0  0  0  0  0  0  0  0  0  0
  1  2  1  0
  1  6  1  1
 17  1  1  6
 18  1  1  6
  2  3  1  6
  3  4  1  6
  4  5  1  6
  5  6  1  6
 19  5  1  6
  6  7  1  0
  7  8  2  0
  8  9  1  0
  9 10  2  0
 20  9  1  6
 10 11  1  0
 11 12  2  0
 12 13  1  0
 13 14  2  0
 21 13  1  6
 14 15  1  0
 15 16  1  6
M  END
$$$$
