
     RDKit          3D

 21 21  0  0  0  0  0  0  0  0999 V2000
    5.8514    3.2872  -10.9111 C   0  0  2  0  0  0  0  0  0  0  0  0
    7.2733    3.5582  -11.2828 C   0  0  0  0  0  0  0  0  0  0  0  0
    7.8731    2.5190  -12.1679 C   0  0  0  0  0  0  0  0  0  0  0  0
    6.8859    1.5100  -12.6587 C   0  0  0  0  0  0  0  0  0  0  0  0
    5.6487    2.2512  -13.1433 C   0  0  1  0  0  0  0  0  0  0  0  0
    4.9766    3.0695  -12.1597 C   0  0  0  0  0  0  0  0  0  0  0  0
    3.6047    2.7746  -11.8114 C   0  0  0  0  0  0  0  0  0  0  0  0
    2.3836    2.9537  -11.9562 C   0  0  0  0  0  0  0  0  0  0  0  0
    1.0943    2.4316  -11.5889 C   0  0  0  0  0  0  0  0  0  0  0  0
    0.1100    3.1877  -11.1106 C   0  0  0  0  0  0  0  0  0  0  0  0
   -1.2363    2.7178  -10.8952 C   0  0  0  0  0  0  0  0  0  0  0  0
   -1.9404    3.2861   -9.8688 C   0  0  0  0  0  0  0  0  0  0  0  0
   -3.2748    2.9041   -9.5135 C   0  0  0  0  0  0  0  0  0  0  0  0
   -3.9802    2.0402  -10.1999 C   0  0  0  0  0  0  0  0  0  0  0  0
   -5.3570    1.6763   -9.8774 C   0  0  0  0  0  0  0  0  0  0  0  0
   -5.5975    0.2947  -10.0126 O   0  0  0  0  0  0  0  0  0  0  0  0
    5.3476    4.5541  -10.1905 C   0  0  0  0  0  0  0  0  0  0  0  0
    5.7804    2.1584   -9.9362 C   0  0  0  0  0  0  0  0  0  0  0  0
    6.0732    3.0524  -14.3976 C   0  0  0  0  0  0  0  0  0  0  0  0
    0.7072    0.9866  -11.7016 C   0  0  0  0  0  0  0  0  0  0  0  0
   -3.9426    3.4379   -8.2627 C   0  0  0  0  0  0  0  0  0  0  0  0
  1  2  1  0
  1  6  1  6
 17  1  1  6
 18  1  1  6
  2  3  1  6
  3  4  1  6
  4  5  1  6
  5  6  1  1
 19  5  1  6
  6  7  1  0
  7  8  2  0
  8  9  1  0
  9 10  2  0
 20  9  1  6
 10 11  1  0
 11 12  2  0
 12 13  1  0
 13 14  2  0
 21 13  1  6
 14 15  1  0
 15 16  1  6
M  END
$$$$
