
     RDKit          3D

 21 21  0  0  0  0  0  0  0  0999 V2000
   -5.9356    2.3447   -3.9268 C   0  0  2  0  0  0  0  0  0  0  0  0
   -7.0803    1.9138   -3.0680 C   0  0  0  0  0  0  0  0  0  0  0  0
   -8.1873    1.2603   -3.8232 C   0  0  0  0  0  0  0  0  0  0  0  0
   -7.8588    0.9981   -5.2574 C   0  0  0  0  0  0  0  0  0  0  0  0
   -6.4704    0.3791   -5.3223 C   0  0  1  0  0  0  0  0  0  0  0  0
   -5.3971    1.1756   -4.7723 C   0  0  0  0  0  0  0  0  0  0  0  0
   -4.3098    1.5882   -5.6313 C   0  0  0  0  0  0  0  0  0  0  0  0
   -3.4596    1.3419   -6.5034 C   0  0  0  0  0  0  0  0  0  0  0  0
   -2.7148    1.9351   -7.5820 C   0  0  0  0  0  0  0  0  0  0  0  0
   -1.3910    1.8562   -7.6847 C   0  0  0  0  0  0  0  0  0  0  0  0
   -0.6458    2.2739   -8.8466 C   0  0  0  0  0  0  0  0  0  0  0  0
    0.7137    2.1265   -8.8040 C   0  0  0  0  0  0  0  0  0  0  0  0
    1.5806    2.4281   -9.9041 C   0  0  0  0  0  0  0  0  0  0  0  0
    2.7935    1.9463  -10.0144 C   0  0  0  0  0  0  0  0  0  0  0  0
    3.6800    2.2270  -11.1401 C   0  0  0  0  0  0  0  0  0  0  0  0
    3.1322    1.8241  -12.3740 O   0  0  0  0  0  0  0  0  0  0  0  0
   -4.8185    2.7892   -2.9610 C   0  0  0  0  0  0  0  0  0  0  0  0
   -6.3231    3.5340   -4.7422 C   0  0  0  0  0  0  0  0  0  0  0  0
   -6.5753   -1.0179   -4.6643 C   0  0  0  0  0  0  0  0  0  0  0  0
   -3.3348    2.7048   -8.7105 C   0  0  0  0  0  0  0  0  0  0  0  0
    1.1175    3.2888  -11.0617 C   0  0  0  0  0  0  0  0  0  0  0  0
  1  2  1  0
  1  6  1  6
 17  1  1  6
 18  1  1  6
  2  3  1  6
  3  4  1  6
  4  5  1  6
  5  6  1  1
 19  5  1  6
  6  7  1  0
  7  8  2  0
  8  9  1  0
  9 10  2  0
 20  9  1  6
 10 11  1  0
 11 12  2  0
 12 13  1  0
 13 14  2  0
 21 13  1  6
 14 15  1  0
 15 16  1  6
M  END
$$$$
