
     RDKit          3D

 21 21  0  0  0  0  0  0  0  0999 V2000
    5.8012    2.8767  -11.6084 C   0  0  2  0  0  0  0  0  0  0  0  0
    6.9628    3.5685  -12.2453 C   0  0  0  0  0  0  0  0  0  0  0  0
    7.2655    3.0914  -13.6250 C   0  0  0  0  0  0  0  0  0  0  0  0
    6.2406    2.1499  -14.1699 C   0  0  0  0  0  0  0  0  0  0  0  0
    4.8629    2.7308  -13.8877 C   0  0  1  0  0  0  0  0  0  0  0  0
    4.5452    2.9562  -12.4960 C   0  0  0  0  0  0  0  0  0  0  0  0
    3.4230    2.2625  -11.9045 C   0  0  0  0  0  0  0  0  0  0  0  0
    2.3167    2.2686  -11.3387 C   0  0  0  0  0  0  0  0  0  0  0  0
    1.1263    1.4868  -11.1346 C   0  0  0  0  0  0  0  0  0  0  0  0
    0.5355    1.3525   -9.9504 C   0  0  0  0  0  0  0  0  0  0  0  0
   -0.8870    1.1975   -9.7716 C   0  0  0  0  0  0  0  0  0  0  0  0
   -1.5875    2.2942   -9.3490 C   0  0  0  0  0  0  0  0  0  0  0  0
   -2.9718    2.2596   -8.9812 C   0  0  0  0  0  0  0  0  0  0  0  0
   -3.8520    1.4913   -9.5729 C   0  0  0  0  0  0  0  0  0  0  0  0
   -5.2917    1.5810   -9.3464 C   0  0  0  0  0  0  0  0  0  0  0  0
   -6.0205    1.7180  -10.5444 O   0  0  0  0  0  0  0  0  0  0  0  0
    5.5108    3.6416  -10.3012 C   0  0  0  0  0  0  0  0  0  0  0  0
    6.1746    1.4795  -11.2372 C   0  0  0  0  0  0  0  0  0  0  0  0
    4.7372    4.0135  -14.7446 C   0  0  0  0  0  0  0  0  0  0  0  0
    0.4135    0.7378  -12.2215 C   0  0  0  0  0  0  0  0  0  0  0  0
   -3.5017    3.0781   -7.8217 C   0  0  0  0  0  0  0  0  0  0  0  0
  1  2  1  0
  1  6  1  6
 17  1  1  6
 18  1  1  6
  2  3  1  6
  3  4  1  6
  4  5  1  6
  5  6  1  1
 19  5  1  6
  6  7  1  0
  7  8  2  0
  8  9  1  0
  9 10  2  0
 20  9  1  6
 10 11  1  0
 11 12  2  0
 12 13  1  0
 13 14  2  0
 21 13  1  6
 14 15  1  0
 15 16  1  6
M  END
$$$$
