
     RDKit          3D

 21 21  0  0  0  0  0  0  0  0999 V2000
    6.2692    2.6685  -13.8727 C   0  0  2  0  0  0  0  0  0  0  0  0
    7.6152    2.1225  -14.0438 C   0  0  0  0  0  0  0  0  0  0  0  0
    8.5417    2.1764  -12.8521 C   0  0  0  0  0  0  0  0  0  0  0  0
    7.8656    1.8345  -11.5977 C   0  0  0  0  0  0  0  0  0  0  0  0
    6.5292    2.6251  -11.4947 C   0  0  1  0  0  0  0  0  0  0  0  0
    5.6511    2.0964  -12.5314 C   0  0  0  0  0  0  0  0  0  0  0  0
    4.2342    2.4466  -12.5804 C   0  0  0  0  0  0  0  0  0  0  0  0
    3.3069    1.8462  -11.8813 C   0  0  0  0  0  0  0  0  0  0  0  0
    1.9115    2.3234  -11.7720 C   0  0  0  0  0  0  0  0  0  0  0  0
    1.0930    1.5731  -11.0315 C   0  0  0  0  0  0  0  0  0  0  0  0
   -0.1396    2.1039  -10.4914 C   0  0  0  0  0  0  0  0  0  0  0  0
   -1.2407    1.4834  -10.2544 C   0  0  0  0  0  0  0  0  0  0  0  0
   -2.3549    0.8461  -10.0067 C   0  0  0  0  0  0  0  0  0  0  0  0
   -3.4680    1.2429   -9.3706 C   0  0  0  0  0  0  0  0  0  0  0  0
   -4.5135    0.6497   -8.6524 C   0  0  0  0  0  0  0  0  0  0  0  0
   -5.4304    1.6980   -8.2086 O   0  0  0  0  0  0  0  0  0  0  0  0
    5.3765    2.1805  -14.9946 C   0  0  0  0  0  0  0  0  0  0  0  0
    6.1571    4.1749  -13.8236 C   0  0  0  0  0  0  0  0  0  0  0  0
    6.0830    2.5737  -10.0526 C   0  0  0  0  0  0  0  0  0  0  0  0
    1.4251    3.5667  -12.4045 C   0  0  0  0  0  0  0  0  0  0  0  0
   -2.4563   -0.7109  -10.3281 C   0  0  0  0  0  0  0  0  0  0  0  0
  1  2  1  0
  1  6  1  0
  1 17  1  6
  1 18  1  0
  2  3  1  0
  3  4  1  0
  4  5  1  0
  5  6  1  0
  5 19  1  1
  6  7  1  0
  7  8  2  0
  8  9  1  0
  9 10  2  0
  9 20  1  0
 10 11  1  0
 11 12  2  0
 12 13  1  0
 13 14  2  0
 13 21  1  0
 14 15  1  0
 15 16  1  0
M  END
$$$$
