
     RDKit          3D

 21 21  0  0  0  0  0  0  0  0999 V2000
    4.8578    3.5136  -12.0379 C   0  0  2  0  0  0  0  0  0  0  0  0
    6.2561    3.5402  -12.5649 C   0  0  0  0  0  0  0  0  0  0  0  0
    6.8970    2.1962  -12.6407 C   0  0  0  0  0  0  0  0  0  0  0  0
    5.9586    1.0696  -12.3509 C   0  0  0  0  0  0  0  0  0  0  0  0
    4.6743    1.3073  -13.1313 C   0  0  1  0  0  0  0  0  0  0  0  0
    3.9751    2.5377  -12.8379 C   0  0  0  0  0  0  0  0  0  0  0  0
    2.6277    2.4794  -12.3168 C   0  0  0  0  0  0  0  0  0  0  0  0
    1.5298    1.9086  -12.2028 C   0  0  0  0  0  0  0  0  0  0  0  0
    0.5237    1.5338  -11.2451 C   0  0  0  0  0  0  0  0  0  0  0  0
   -0.6968    1.1317  -11.5883 C   0  0  0  0  0  0  0  0  0  0  0  0
   -1.7648    0.9017  -10.6470 C   0  0  0  0  0  0  0  0  0  0  0  0
   -3.0247    1.2770  -11.0265 C   0  0  0  0  0  0  0  0  0  0  0  0
   -4.1883    1.0921  -10.2113 C   0  0  0  0  0  0  0  0  0  0  0  0
   -5.3411    0.6922  -10.6871 C   0  0  0  0  0  0  0  0  0  0  0  0
   -6.6061    0.8239   -9.9698 C   0  0  0  0  0  0  0  0  0  0  0  0
   -7.6956    1.0567  -10.8322 O   0  0  0  0  0  0  0  0  0  0  0  0
    4.2975    4.9365  -12.2369 C   0  0  0  0  0  0  0  0  0  0  0  0
    4.8660    3.2357  -10.5709 C   0  0  0  0  0  0  0  0  0  0  0  0
    5.0324    1.1666  -14.6305 C   0  0  0  0  0  0  0  0  0  0  0  0
    0.7279    1.5492   -9.7590 C   0  0  0  0  0  0  0  0  0  0  0  0
   -4.1406    1.2905   -8.7101 C   0  0  0  0  0  0  0  0  0  0  0  0
  1  2  1  0
  1  6  1  6
 17  1  1  6
 18  1  1  6
  2  3  1  6
  3  4  1  6
  4  5  1  6
  5  6  1  6
 19  5  1  6
  6  7  1  0
  7  8  2  0
  8  9  1  0
  9 10  2  0
 20  9  1  6
 10 11  1  0
 11 12  2  0
 12 13  1  0
 13 14  2  0
 21 13  1  6
 14 15  1  0
 15 16  1  6
M  END
$$$$
