
     RDKit          3D

 21 21  0  0  0  0  0  0  0  0999 V2000
   -2.6056   -0.3658  -10.3305 C   0  0  2  0  0  0  0  0  0  0  0  0
   -3.8517   -0.8087  -10.9552 C   0  0  0  0  0  0  0  0  0  0  0  0
   -5.1427   -0.2741  -10.3816 C   0  0  0  0  0  0  0  0  0  0  0  0
   -5.0633    1.1508  -10.0489 C   0  0  0  0  0  0  0  0  0  0  0  0
   -3.7606    1.4250   -9.2428 C   0  0  1  0  0  0  0  0  0  0  0  0
   -2.6490    1.2082  -10.1607 C   0  0  0  0  0  0  0  0  0  0  0  0
   -1.2853    1.5953   -9.8097 C   0  0  0  0  0  0  0  0  0  0  0  0
   -0.8171    2.8106   -9.9223 C   0  0  0  0  0  0  0  0  0  0  0  0
    0.5131    3.2352   -9.4351 C   0  0  0  0  0  0  0  0  0  0  0  0
    0.5318    4.3159   -8.6522 C   0  0  0  0  0  0  0  0  0  0  0  0
    1.2344    5.5195   -9.0397 C   0  0  0  0  0  0  0  0  0  0  0  0
    1.1599    6.6918   -8.5164 C   0  0  0  0  0  0  0  0  0  0  0  0
    1.0775    7.8797   -7.9771 C   0  0  0  0  0  0  0  0  0  0  0  0
    1.1898    8.2706   -6.6981 C   0  0  0  0  0  0  0  0  0  0  0  0
    0.7183    9.3145   -5.8926 C   0  0  0  0  0  0  0  0  0  0  0  0
    1.2372    9.1318   -4.5383 O   0  0  0  0  0  0  0  0  0  0  0  0
   -1.4415   -0.6624  -11.2529 C   0  0  0  0  0  0  0  0  0  0  0  0
   -2.2817   -0.9642   -8.9810 C   0  0  0  0  0  0  0  0  0  0  0  0
   -3.9158    2.7716   -8.5765 C   0  0  0  0  0  0  0  0  0  0  0  0
    1.7630    2.5134   -9.7501 C   0  0  0  0  0  0  0  0  0  0  0  0
    0.6144    9.1159   -8.8688 C   0  0  0  0  0  0  0  0  0  0  0  0
  1  2  1  0
  1  6  1  0
  1 17  1  6
  1 18  1  0
  2  3  1  0
  3  4  1  0
  4  5  1  0
  5  6  1  0
  5 19  1  6
  6  7  1  0
  7  8  2  0
  8  9  1  0
  9 10  2  0
  9 20  1  0
 10 11  1  0
 11 12  2  0
 12 13  1  0
 13 14  2  0
 13 21  1  0
 14 15  1  0
 15 16  1  0
M  END
$$$$
