
     RDKit          3D

 21 21  0  0  0  0  0  0  0  0999 V2000
    6.7857    1.5627  -13.0292 C   0  0  2  0  0  0  0  0  0  0  0  0
    8.1818    1.3683  -13.5260 C   0  0  0  0  0  0  0  0  0  0  0  0
    9.0378    2.5833  -13.4080 C   0  0  0  0  0  0  0  0  0  0  0  0
    8.3920    3.6980  -12.6504 C   0  0  0  0  0  0  0  0  0  0  0  0
    7.7739    3.1189  -11.3864 C   0  0  1  0  0  0  0  0  0  0  0  0
    6.7733    2.0949  -11.5841 C   0  0  0  0  0  0  0  0  0  0  0  0
    5.4280    2.3175  -11.1037 C   0  0  0  0  0  0  0  0  0  0  0  0
    4.6165    2.4702  -10.1751 C   0  0  0  0  0  0  0  0  0  0  0  0
    3.2133    2.6013   -9.8854 C   0  0  0  0  0  0  0  0  0  0  0  0
    2.7080    3.5931   -9.1572 C   0  0  0  0  0  0  0  0  0  0  0  0
    1.3031    3.7500   -8.8724 C   0  0  0  0  0  0  0  0  0  0  0  0
    0.9677    4.3356   -7.6822 C   0  0  0  0  0  0  0  0  0  0  0  0
   -0.2002    5.1444   -7.4958 C   0  0  0  0  0  0  0  0  0  0  0  0
   -0.5434    5.6523   -6.3384 C   0  0  0  0  0  0  0  0  0  0  0  0
   -1.8701    6.1884   -6.0476 C   0  0  0  0  0  0  0  0  0  0  0  0
   -1.9315    7.5886   -6.1915 O   0  0  0  0  0  0  0  0  0  0  0  0
    6.1323    0.1659  -13.0288 C   0  0  0  0  0  0  0  0  0  0  0  0
    6.0154    2.4181  -13.9802 C   0  0  0  0  0  0  0  0  0  0  0  0
    8.9469    2.6439  -10.4953 C   0  0  0  0  0  0  0  0  0  0  0  0
    2.1610    1.6464  -10.3663 C   0  0  0  0  0  0  0  0  0  0  0  0
   -1.0934    5.5222   -8.6597 C   0  0  0  0  0  0  0  0  0  0  0  0
  1  2  1  0
  1  6  1  1
 17  1  1  6
 18  1  1  6
  2  3  1  6
  3  4  1  6
  4  5  1  6
  5  6  1  6
 19  5  1  6
  6  7  1  0
  7  8  2  0
  8  9  1  0
  9 10  2  0
 20  9  1  6
 10 11  1  0
 11 12  2  0
 12 13  1  0
 13 14  2  0
 21 13  1  6
 14 15  1  0
 15 16  1  6
M  END
$$$$
