
     RDKit          3D

 21 21  0  0  0  0  0  0  0  0999 V2000
    4.7293    3.1222  -12.9585 C   0  0  2  0  0  0  0  0  0  0  0  0
    5.9023    2.7665  -13.7566 C   0  0  0  0  0  0  0  0  0  0  0  0
    6.4492    1.3673  -13.5993 C   0  0  0  0  0  0  0  0  0  0  0  0
    5.3924    0.3548  -13.5261 C   0  0  0  0  0  0  0  0  0  0  0  0
    4.3047    0.8105  -12.5106 C   0  0  1  0  0  0  0  0  0  0  0  0
    3.6483    1.9729  -13.0964 C   0  0  0  0  0  0  0  0  0  0  0  0
    2.4240    2.5252  -12.5231 C   0  0  0  0  0  0  0  0  0  0  0  0
    1.2432    1.9798  -12.6541 C   0  0  0  0  0  0  0  0  0  0  0  0
    0.0196    2.4827  -11.9931 C   0  0  0  0  0  0  0  0  0  0  0  0
   -1.1378    2.0505  -12.4979 C   0  0  0  0  0  0  0  0  0  0  0  0
   -2.1083    1.3562  -11.6801 C   0  0  0  0  0  0  0  0  0  0  0  0
   -3.2298    0.8383  -12.0372 C   0  0  0  0  0  0  0  0  0  0  0  0
   -4.3669    0.3124  -12.4105 C   0  0  0  0  0  0  0  0  0  0  0  0
   -5.6252    0.5896  -12.0351 C   0  0  0  0  0  0  0  0  0  0  0  0
   -6.8917    0.0053  -12.1587 C   0  0  0  0  0  0  0  0  0  0  0  0
   -7.8255    0.7247  -11.2943 O   0  0  0  0  0  0  0  0  0  0  0  0
    4.0924    4.3754  -13.5220 C   0  0  0  0  0  0  0  0  0  0  0  0
    4.9661    3.3548  -11.4840 C   0  0  0  0  0  0  0  0  0  0  0  0
    3.4787   -0.4035  -12.1570 C   0  0  0  0  0  0  0  0  0  0  0  0
    0.0393    3.3850  -10.8235 C   0  0  0  0  0  0  0  0  0  0  0  0
   -4.3654   -0.9819  -13.3393 C   0  0  0  0  0  0  0  0  0  0  0  0
  1  2  1  0
  1  6  1  0
  1 17  1  6
  1 18  1  0
  2  3  1  0
  3  4  1  0
  4  5  1  0
  5  6  1  0
  5 19  1  6
  6  7  1  0
  7  8  2  0
  8  9  1  0
  9 10  2  0
  9 20  1  0
 10 11  1  0
 11 12  2  0
 12 13  1  0
 13 14  2  0
 13 21  1  0
 14 15  1  0
 15 16  1  0
M  END
$$$$
