
     RDKit          3D

 21 21  0  0  0  0  0  0  0  0999 V2000
    7.2015    2.0171  -11.2123 C   0  0  2  0  0  0  0  0  0  0  0  0
    8.6256    2.3799  -11.4844 C   0  0  0  0  0  0  0  0  0  0  0  0
    9.0477    2.1464  -12.8952 C   0  0  0  0  0  0  0  0  0  0  0  0
    7.9204    1.7713  -13.8019 C   0  0  0  0  0  0  0  0  0  0  0  0
    6.7611    2.7207  -13.5379 C   0  0  1  0  0  0  0  0  0  0  0  0
    6.2451    2.7279  -12.1879 C   0  0  0  0  0  0  0  0  0  0  0  0
    4.8665    2.3596  -11.9549 C   0  0  0  0  0  0  0  0  0  0  0  0
    3.6645    2.6569  -11.8502 C   0  0  0  0  0  0  0  0  0  0  0  0
    2.3493    2.0914  -11.7074 C   0  0  0  0  0  0  0  0  0  0  0  0
    1.2720    2.8143  -11.4141 C   0  0  0  0  0  0  0  0  0  0  0  0
   -0.0405    2.2560  -11.2012 C   0  0  0  0  0  0  0  0  0  0  0  0
   -1.0494    3.1286  -10.8966 C   0  0  0  0  0  0  0  0  0  0  0  0
   -2.3966    2.7225  -10.6266 C   0  0  0  0  0  0  0  0  0  0  0  0
   -3.1025    3.1967   -9.6305 C   0  0  0  0  0  0  0  0  0  0  0  0
   -4.4602    2.7605   -9.3165 C   0  0  0  0  0  0  0  0  0  0  0  0
   -5.2290    3.7758   -8.7139 O   0  0  0  0  0  0  0  0  0  0  0  0
    6.8944    2.5240   -9.7887 C   0  0  0  0  0  0  0  0  0  0  0  0
    7.0411    0.5326  -11.2044 C   0  0  0  0  0  0  0  0  0  0  0  0
    7.2176    4.1220  -14.0104 C   0  0  0  0  0  0  0  0  0  0  0  0
    2.0367    0.6334  -11.8721 C   0  0  0  0  0  0  0  0  0  0  0  0
   -3.1242    1.7483  -11.5303 C   0  0  0  0  0  0  0  0  0  0  0  0
  1  2  1  0
  1  6  1  6
 17  1  1  6
 18  1  1  6
  2  3  1  6
  3  4  1  6
  4  5  1  6
  5  6  1  1
 19  5  1  6
  6  7  1  0
  7  8  2  0
  8  9  1  0
  9 10  2  0
 20  9  1  6
 10 11  1  0
 11 12  2  0
 12 13  1  0
 13 14  2  0
 21 13  1  6
 14 15  1  0
 15 16  1  6
M  END
$$$$
