
     RDKit          3D

 21 21  0  0  0  0  0  0  0  0999 V2000
    6.3368    1.5554  -13.2043 C   0  0  2  0  0  0  0  0  0  0  0  0
    7.7434    1.7917  -12.8806 C   0  0  0  0  0  0  0  0  0  0  0  0
    8.1791    3.2253  -12.6892 C   0  0  0  0  0  0  0  0  0  0  0  0
    7.2050    4.0129  -11.9288 C   0  0  0  0  0  0  0  0  0  0  0  0
    5.7795    3.7748  -12.5059 C   0  0  1  0  0  0  0  0  0  0  0  0
    5.4342    2.3905  -12.2062 C   0  0  0  0  0  0  0  0  0  0  0  0
    4.0777    1.8854  -12.3993 C   0  0  0  0  0  0  0  0  0  0  0  0
    3.0344    2.3187  -11.7416 C   0  0  0  0  0  0  0  0  0  0  0  0
    1.6553    1.8316  -11.9603 C   0  0  0  0  0  0  0  0  0  0  0  0
    0.9611    1.5277  -10.8617 C   0  0  0  0  0  0  0  0  0  0  0  0
   -0.3183    2.1416  -10.5806 C   0  0  0  0  0  0  0  0  0  0  0  0
   -1.0745    1.9782   -9.5534 C   0  0  0  0  0  0  0  0  0  0  0  0
   -1.8387    1.8026   -8.5074 C   0  0  0  0  0  0  0  0  0  0  0  0
   -3.0188    2.3529   -8.1827 C   0  0  0  0  0  0  0  0  0  0  0  0
   -3.8493    2.4254   -7.0575 C   0  0  0  0  0  0  0  0  0  0  0  0
   -5.1839    2.8392   -7.4867 O   0  0  0  0  0  0  0  0  0  0  0  0
    5.9986    0.0984  -12.9663 C   0  0  0  0  0  0  0  0  0  0  0  0
    5.9048    1.8996  -14.6111 C   0  0  0  0  0  0  0  0  0  0  0  0
    4.8925    4.8845  -11.9928 C   0  0  0  0  0  0  0  0  0  0  0  0
    1.0396    1.7057  -13.2973 C   0  0  0  0  0  0  0  0  0  0  0  0
   -1.3044    0.9363   -7.2818 C   0  0  0  0  0  0  0  0  0  0  0  0
  1  2  1  0
  1  6  1  0
  1 17  1  1
  1 18  1  0
  2  3  1  0
  3  4  1  0
  4  5  1  0
  5  6  1  0
  5 19  1  1
  6  7  1  0
  7  8  2  0
  8  9  1  0
  9 10  2  0
  9 20  1  0
 10 11  1  0
 11 12  2  0
 12 13  1  0
 13 14  2  0
 13 21  1  0
 14 15  1  0
 15 16  1  0
M  END
$$$$
