
     RDKit          3D

 21 21  0  0  0  0  0  0  0  0999 V2000
    4.7192    3.4543  -11.3937 C   0  0  2  0  0  0  0  0  0  0  0  0
    5.5924    4.1948  -12.3038 C   0  0  0  0  0  0  0  0  0  0  0  0
    5.8157    3.6107  -13.6787 C   0  0  0  0  0  0  0  0  0  0  0  0
    4.5872    3.0701  -14.2669 C   0  0  0  0  0  0  0  0  0  0  0  0
    3.8620    2.1722  -13.2229 C   0  0  1  0  0  0  0  0  0  0  0  0
    3.3935    3.0586  -12.1646 C   0  0  0  0  0  0  0  0  0  0  0  0
    2.4727    2.5910  -11.1321 C   0  0  0  0  0  0  0  0  0  0  0  0
    1.1705    2.6255  -11.2421 C   0  0  0  0  0  0  0  0  0  0  0  0
    0.2468    1.8217  -10.4129 C   0  0  0  0  0  0  0  0  0  0  0  0
   -1.0554    2.0264  -10.6217 C   0  0  0  0  0  0  0  0  0  0  0  0
   -2.0490    1.6393   -9.6442 C   0  0  0  0  0  0  0  0  0  0  0  0
   -3.3298    1.6508   -9.7590 C   0  0  0  0  0  0  0  0  0  0  0  0
   -4.6307    1.6632   -9.8863 C   0  0  0  0  0  0  0  0  0  0  0  0
   -5.4145    1.2837  -10.9075 C   0  0  0  0  0  0  0  0  0  0  0  0
   -6.6758    1.6133  -11.4185 C   0  0  0  0  0  0  0  0  0  0  0  0
   -6.9090    0.8304  -12.6307 O   0  0  0  0  0  0  0  0  0  0  0  0
    4.2950    4.3543  -10.2519 C   0  0  0  0  0  0  0  0  0  0  0  0
    5.2932    2.1929  -10.7907 C   0  0  0  0  0  0  0  0  0  0  0  0
    2.8617    1.3244  -13.9725 C   0  0  0  0  0  0  0  0  0  0  0  0
    0.7015    0.8211   -9.4256 C   0  0  0  0  0  0  0  0  0  0  0  0
   -5.5215    2.3707   -8.7710 C   0  0  0  0  0  0  0  0  0  0  0  0
  1  2  1  0
  1  6  1  0
  1 17  1  1
  1 18  1  0
  2  3  1  0
  3  4  1  0
  4  5  1  0
  5  6  1  0
  5 19  1  6
  6  7  1  0
  7  8  2  0
  8  9  1  0
  9 10  2  0
  9 20  1  0
 10 11  1  0
 11 12  2  0
 12 13  1  0
 13 14  2  0
 13 21  1  0
 14 15  1  0
 15 16  1  0
M  END
$$$$
