
     RDKit          3D

 21 21  0  0  0  0  0  0  0  0999 V2000
    5.6082    2.1597  -12.2292 C   0  0  2  0  0  0  0  0  0  0  0  0
    6.9642    2.1651  -11.6811 C   0  0  0  0  0  0  0  0  0  0  0  0
    7.3530    3.3324  -10.8049 C   0  0  0  0  0  0  0  0  0  0  0  0
    6.2856    3.7214   -9.8793 C   0  0  0  0  0  0  0  0  0  0  0  0
    4.9401    3.8316  -10.6534 C   0  0  1  0  0  0  0  0  0  0  0  0
    4.5837    2.4791  -11.0644 C   0  0  0  0  0  0  0  0  0  0  0  0
    3.2664    2.1732  -11.6157 C   0  0  0  0  0  0  0  0  0  0  0  0
    2.2421    1.7937  -10.8976 C   0  0  0  0  0  0  0  0  0  0  0  0
    0.8878    1.5595  -11.4435 C   0  0  0  0  0  0  0  0  0  0  0  0
   -0.0859    1.4010  -10.5447 C   0  0  0  0  0  0  0  0  0  0  0  0
   -1.4787    1.5608  -10.9012 C   0  0  0  0  0  0  0  0  0  0  0  0
   -2.5100    1.5169  -10.1342 C   0  0  0  0  0  0  0  0  0  0  0  0
   -3.5520    1.4698   -9.3463 C   0  0  0  0  0  0  0  0  0  0  0  0
   -4.6375    0.6813   -9.3759 C   0  0  0  0  0  0  0  0  0  0  0  0
   -5.1058   -0.4559   -8.7064 C   0  0  0  0  0  0  0  0  0  0  0  0
   -6.3177   -0.1000   -7.9705 O   0  0  0  0  0  0  0  0  0  0  0  0
    5.2670    0.7707  -12.7272 C   0  0  0  0  0  0  0  0  0  0  0  0
    5.3365    3.1279  -13.3575 C   0  0  0  0  0  0  0  0  0  0  0  0
    3.9830    4.6164   -9.7879 C   0  0  0  0  0  0  0  0  0  0  0  0
    0.5882    1.5275  -12.8898 C   0  0  0  0  0  0  0  0  0  0  0  0
   -3.7435    2.5910   -8.2309 C   0  0  0  0  0  0  0  0  0  0  0  0
  1  2  1  0
  1  6  1  0
  1 17  1  6
  1 18  1  0
  2  3  1  0
  3  4  1  0
  4  5  1  0
  5  6  1  0
  5 19  1  1
  6  7  1  0
  7  8  2  0
  8  9  1  0
  9 10  2  0
  9 20  1  0
 10 11  1  0
 11 12  2  0
 12 13  1  0
 13 14  2  0
 13 21  1  0
 14 15  1  0
 15 16  1  0
M  END
$$$$
