
     RDKit          3D

 21 21  0  0  0  0  0  0  0  0999 V2000
    5.8355    4.1643  -10.9491 C   0  0  2  0  0  0  0  0  0  0  0  0
    7.0946    4.3709  -11.7273 C   0  0  0  0  0  0  0  0  0  0  0  0
    8.0623    3.2419  -11.6184 C   0  0  0  0  0  0  0  0  0  0  0  0
    7.5112    2.0492  -10.9060 C   0  0  0  0  0  0  0  0  0  0  0  0
    6.1220    1.7651  -11.4579 C   0  0  1  0  0  0  0  0  0  0  0  0
    5.1574    2.8328  -11.3220 C   0  0  0  0  0  0  0  0  0  0  0  0
    3.9548    2.6067  -10.5521 C   0  0  0  0  0  0  0  0  0  0  0  0
    2.7192    2.6509  -10.4275 C   0  0  0  0  0  0  0  0  0  0  0  0
    1.5940    1.9437   -9.8764 C   0  0  0  0  0  0  0  0  0  0  0  0
    0.3697    2.4593   -9.8095 C   0  0  0  0  0  0  0  0  0  0  0  0
   -0.7880    1.8727  -10.4383 C   0  0  0  0  0  0  0  0  0  0  0  0
   -1.9491    2.5959  -10.4098 C   0  0  0  0  0  0  0  0  0  0  0  0
   -3.2297    2.0570  -10.7596 C   0  0  0  0  0  0  0  0  0  0  0  0
   -4.2815    2.1468   -9.9843 C   0  0  0  0  0  0  0  0  0  0  0  0
   -5.5792    1.5586  -10.3040 C   0  0  0  0  0  0  0  0  0  0  0  0
   -6.5117    1.7042   -9.2579 O   0  0  0  0  0  0  0  0  0  0  0  0
    4.8882    5.3118  -11.3536 C   0  0  0  0  0  0  0  0  0  0  0  0
    6.1060    4.3001   -9.4870 C   0  0  0  0  0  0  0  0  0  0  0  0
    6.3107    1.3138  -12.9264 C   0  0  0  0  0  0  0  0  0  0  0  0
    1.6642    0.5531   -9.3181 C   0  0  0  0  0  0  0  0  0  0  0  0
   -3.4677    1.3926  -12.1002 C   0  0  0  0  0  0  0  0  0  0  0  0
  1  2  1  0
  1  6  1  1
 17  1  1  6
 18  1  1  6
  2  3  1  6
  3  4  1  6
  4  5  1  6
  5  6  1  6
 19  5  1  6
  6  7  1  0
  7  8  2  0
  8  9  1  0
  9 10  2  0
 20  9  1  6
 10 11  1  0
 11 12  2  0
 12 13  1  0
 13 14  2  0
 21 13  1  6
 14 15  1  0
 15 16  1  6
M  END
$$$$
