
     RDKit          3D

 21 21  0  0  0  0  0  0  0  0999 V2000
   -5.4448    0.4317  -13.2540 C   0  0  2  0  0  0  0  0  0  0  0  0
   -6.6116   -0.3137  -13.8167 C   0  0  0  0  0  0  0  0  0  0  0  0
   -6.9392    0.0537  -15.2240 C   0  0  0  0  0  0  0  0  0  0  0  0
   -5.9295    0.9560  -15.8565 C   0  0  0  0  0  0  0  0  0  0  0  0
   -4.5436    0.4063  -15.5528 C   0  0  1  0  0  0  0  0  0  0  0  0
   -4.2024    0.2908  -14.1531 C   0  0  0  0  0  0  0  0  0  0  0  0
   -3.0758    1.0344  -13.6353 C   0  0  0  0  0  0  0  0  0  0  0  0
   -1.9213    1.0807  -13.1780 C   0  0  0  0  0  0  0  0  0  0  0  0
   -0.8974    1.9880  -12.7327 C   0  0  0  0  0  0  0  0  0  0  0  0
   -1.0263    2.7645  -11.6605 C   0  0  0  0  0  0  0  0  0  0  0  0
   -0.5157    2.4277  -10.3545 C   0  0  0  0  0  0  0  0  0  0  0  0
   -0.3146    3.4577   -9.4767 C   0  0  0  0  0  0  0  0  0  0  0  0
    0.1791    3.2806   -8.1435 C   0  0  0  0  0  0  0  0  0  0  0  0
    0.9300    4.1637   -7.5336 C   0  0  0  0  0  0  0  0  0  0  0  0
    1.4938    3.9691   -6.2009 C   0  0  0  0  0  0  0  0  0  0  0  0
    2.2604    5.0704   -5.7715 O   0  0  0  0  0  0  0  0  0  0  0  0
   -5.1286   -0.2283  -11.8966 C   0  0  0  0  0  0  0  0  0  0  0  0
   -5.8218    1.8513  -12.9858 C   0  0  0  0  0  0  0  0  0  0  0  0
   -4.4227   -0.9380  -16.3101 C   0  0  0  0  0  0  0  0  0  0  0  0
    0.4265    2.1651  -13.4156 C   0  0  0  0  0  0  0  0  0  0  0  0
   -0.1953    2.0673   -7.3171 C   0  0  0  0  0  0  0  0  0  0  0  0
  1  2  1  0
  1  6  1  6
 17  1  1  6
 18  1  1  6
  2  3  1  6
  3  4  1  6
  4  5  1  6
  5  6  1  1
 19  5  1  6
  6  7  1  0
  7  8  2  0
  8  9  1  0
  9 10  2  0
 20  9  1  6
 10 11  1  0
 11 12  2  0
 12 13  1  0
 13 14  2  0
 21 13  1  6
 14 15  1  0
 15 16  1  6
M  END
$$$$
