
     RDKit          3D

 21 21  0  0  0  0  0  0  0  0999 V2000
    5.6578    3.4375  -11.0367 C   0  0  2  0  0  0  0  0  0  0  0  0
    7.0127    3.9777  -10.9290 C   0  0  0  0  0  0  0  0  0  0  0  0
    8.1486    3.0980  -11.3951 C   0  0  0  0  0  0  0  0  0  0  0  0
    7.8378    2.3895  -12.6396 C   0  0  0  0  0  0  0  0  0  0  0  0
    6.4312    1.7332  -12.5272 C   0  0  1  0  0  0  0  0  0  0  0  0
    5.4646    2.8236  -12.4838 C   0  0  0  0  0  0  0  0  0  0  0  0
    4.0309    2.5755  -12.6086 C   0  0  0  0  0  0  0  0  0  0  0  0
    3.1408    2.9707  -11.7366 C   0  0  0  0  0  0  0  0  0  0  0  0
    1.7528    2.4633  -11.6804 C   0  0  0  0  0  0  0  0  0  0  0  0
    1.1337    2.5821  -10.5041 C   0  0  0  0  0  0  0  0  0  0  0  0
   -0.2858    2.8474  -10.4190 C   0  0  0  0  0  0  0  0  0  0  0  0
   -1.0049    3.0194   -9.3669 C   0  0  0  0  0  0  0  0  0  0  0  0
   -1.7362    3.2048   -8.2993 C   0  0  0  0  0  0  0  0  0  0  0  0
   -2.9735    2.7795   -8.0007 C   0  0  0  0  0  0  0  0  0  0  0  0
   -3.7711    2.6454   -6.8575 C   0  0  0  0  0  0  0  0  0  0  0  0
   -5.1044    2.2067   -7.2658 O   0  0  0  0  0  0  0  0  0  0  0  0
    4.6511    4.5623  -10.9137 C   0  0  0  0  0  0  0  0  0  0  0  0
    5.2776    2.3737  -10.0326 C   0  0  0  0  0  0  0  0  0  0  0  0
    6.3266    0.6972  -13.6213 C   0  0  0  0  0  0  0  0  0  0  0  0
    1.0514    1.8825  -12.8437 C   0  0  0  0  0  0  0  0  0  0  0  0
   -1.2389    4.2162   -7.1735 C   0  0  0  0  0  0  0  0  0  0  0  0
  1  2  1  0
  1  6  1  0
  1 17  1  6
  1 18  1  0
  2  3  1  0
  3  4  1  0
  4  5  1  0
  5  6  1  0
  5 19  1  6
  6  7  1  0
  7  8  2  0
  8  9  1  0
  9 10  2  0
  9 20  1  0
 10 11  1  0
 11 12  2  0
 12 13  1  0
 13 14  2  0
 13 21  1  0
 14 15  1  0
 15 16  1  0
M  END
$$$$
