
     RDKit          3D

 21 21  0  0  0  0  0  0  0  0999 V2000
    5.0389    2.5531  -11.7584 C   0  0  2  0  0  0  0  0  0  0  0  0
    6.2739    2.9850  -11.1046 C   0  0  0  0  0  0  0  0  0  0  0  0
    6.3450    4.4192  -10.6361 C   0  0  0  0  0  0  0  0  0  0  0  0
    5.0978    4.8702  -10.0128 C   0  0  0  0  0  0  0  0  0  0  0  0
    3.8930    4.4770  -10.9160 C   0  0  1  0  0  0  0  0  0  0  0  0
    3.8050    3.0222  -10.8835 C   0  0  0  0  0  0  0  0  0  0  0  0
    2.6514    2.3168  -11.4352 C   0  0  0  0  0  0  0  0  0  0  0  0
    1.5326    2.1235  -10.7872 C   0  0  0  0  0  0  0  0  0  0  0  0
    0.2782    1.6600  -11.4185 C   0  0  0  0  0  0  0  0  0  0  0  0
   -0.7625    1.4946  -10.5995 C   0  0  0  0  0  0  0  0  0  0  0  0
   -2.1132    1.7953  -11.0213 C   0  0  0  0  0  0  0  0  0  0  0  0
   -3.2035    1.6851  -10.3485 C   0  0  0  0  0  0  0  0  0  0  0  0
   -4.3100    1.5824   -9.6599 C   0  0  0  0  0  0  0  0  0  0  0  0
   -4.5297    1.1206   -8.4192 C   0  0  0  0  0  0  0  0  0  0  0  0
   -5.5937    0.5656   -7.6977 C   0  0  0  0  0  0  0  0  0  0  0  0
   -5.1162    0.2013   -6.3650 O   0  0  0  0  0  0  0  0  0  0  0  0
    4.9850    1.0399  -11.7934 C   0  0  0  0  0  0  0  0  0  0  0  0
    4.8168    3.0497  -13.1685 C   0  0  0  0  0  0  0  0  0  0  0  0
    2.7064    5.2985  -10.4704 C   0  0  0  0  0  0  0  0  0  0  0  0
    0.1398    1.4148  -12.8688 C   0  0  0  0  0  0  0  0  0  0  0  0
   -5.7058    1.8766  -10.3692 C   0  0  0  0  0  0  0  0  0  0  0  0
  1  2  1  0
  1  6  1  0
  1 17  1  6
  1 18  1  0
  2  3  1  0
  3  4  1  0
  4  5  1  0
  5  6  1  0
  5 19  1  1
  6  7  1  0
  7  8  2  0
  8  9  1  0
  9 10  2  0
  9 20  1  0
 10 11  1  0
 11 12  2  0
 12 13  1  0
 13 14  2  0
 13 21  1  0
 14 15  1  0
 15 16  1  0
M  END
$$$$
