
     RDKit          3D

 21 21  0  0  0  0  0  0  0  0999 V2000
    4.6966    2.6768  -12.4569 C   0  0  2  0  0  0  0  0  0  0  0  0
    5.4278    3.6924  -13.2139 C   0  0  0  0  0  0  0  0  0  0  0  0
    4.8006    4.1862  -14.4962 C   0  0  0  0  0  0  0  0  0  0  0  0
    3.3557    4.3958  -14.3718 C   0  0  0  0  0  0  0  0  0  0  0  0
    2.7061    3.1535  -13.6959 C   0  0  1  0  0  0  0  0  0  0  0  0
    3.1852    3.1298  -12.3193 C   0  0  0  0  0  0  0  0  0  0  0  0
    2.6030    2.2315  -11.3260 C   0  0  0  0  0  0  0  0  0  0  0  0
    1.3223    2.1451  -11.0782 C   0  0  0  0  0  0  0  0  0  0  0  0
    0.7549    1.5965   -9.8275 C   0  0  0  0  0  0  0  0  0  0  0  0
   -0.2616    2.2798   -9.2973 C   0  0  0  0  0  0  0  0  0  0  0  0
   -1.6232    1.7986   -9.3819 C   0  0  0  0  0  0  0  0  0  0  0  0
   -2.6883    2.3238   -8.8887 C   0  0  0  0  0  0  0  0  0  0  0  0
   -3.7714    2.8501   -8.3799 C   0  0  0  0  0  0  0  0  0  0  0  0
   -4.8554    2.2723   -7.8396 C   0  0  0  0  0  0  0  0  0  0  0  0
   -6.1710    2.6357   -7.5267 C   0  0  0  0  0  0  0  0  0  0  0  0
   -6.8757    1.4572   -7.0255 O   0  0  0  0  0  0  0  0  0  0  0  0
    5.2474    2.5985  -11.0483 C   0  0  0  0  0  0  0  0  0  0  0  0
    4.7060    1.2776  -13.0283 C   0  0  0  0  0  0  0  0  0  0  0  0
    1.2204    3.2202  -13.9593 C   0  0  0  0  0  0  0  0  0  0  0  0
    1.2379    0.3534   -9.1920 C   0  0  0  0  0  0  0  0  0  0  0  0
   -4.0201    4.4178   -8.5152 C   0  0  0  0  0  0  0  0  0  0  0  0
  1  2  1  0
  1  6  1  0
  1 17  1  1
  1 18  1  0
  2  3  1  0
  3  4  1  0
  4  5  1  0
  5  6  1  0
  5 19  1  1
  6  7  1  0
  7  8  2  0
  8  9  1  0
  9 10  2  0
  9 20  1  0
 10 11  1  0
 11 12  2  0
 12 13  1  0
 13 14  2  0
 13 21  1  0
 14 15  1  0
 15 16  1  0
M  END
$$$$
