
     RDKit          3D

 21 21  0  0  0  0  0  0  0  0999 V2000
    7.6793    3.0726  -13.3755 C   0  0  2  0  0  0  0  0  0  0  0  0
    9.1373    2.9413  -13.6770 C   0  0  0  0  0  0  0  0  0  0  0  0
    9.8672    2.0396  -12.7405 C   0  0  0  0  0  0  0  0  0  0  0  0
    8.9699    1.3017  -11.8003 C   0  0  0  0  0  0  0  0  0  0  0  0
    7.8078    0.7318  -12.6001 C   0  0  1  0  0  0  0  0  0  0  0  0
    6.9942    1.6951  -13.3065 C   0  0  0  0  0  0  0  0  0  0  0  0
    5.5895    1.8078  -12.9836 C   0  0  0  0  0  0  0  0  0  0  0  0
    4.5789    1.4165  -12.3756 C   0  0  0  0  0  0  0  0  0  0  0  0
    3.4516    1.8733  -11.6072 C   0  0  0  0  0  0  0  0  0  0  0  0
    2.3442    1.1559  -11.4389 C   0  0  0  0  0  0  0  0  0  0  0  0
    1.1407    1.6619  -10.8263 C   0  0  0  0  0  0  0  0  0  0  0  0
    0.0884    0.7957  -10.7057 C   0  0  0  0  0  0  0  0  0  0  0  0
   -1.1728    1.1532  -10.1277 C   0  0  0  0  0  0  0  0  0  0  0  0
   -2.3123    1.0328  -10.7621 C   0  0  0  0  0  0  0  0  0  0  0  0
   -3.6043    1.3985  -10.1885 C   0  0  0  0  0  0  0  0  0  0  0  0
   -4.6831    1.0763  -11.0355 O   0  0  0  0  0  0  0  0  0  0  0  0
    7.0658    3.8520  -14.5562 C   0  0  0  0  0  0  0  0  0  0  0  0
    7.4803    3.8934  -12.1442 C   0  0  0  0  0  0  0  0  0  0  0  0
    8.3998   -0.3502  -13.5351 C   0  0  0  0  0  0  0  0  0  0  0  0
    3.3900    3.1994  -10.9084 C   0  0  0  0  0  0  0  0  0  0  0  0
   -1.2760    1.6426   -8.6976 C   0  0  0  0  0  0  0  0  0  0  0  0
  1  2  1  0
  1  6  1  1
 17  1  1  6
 18  1  1  6
  2  3  1  6
  3  4  1  6
  4  5  1  6
  5  6  1  6
 19  5  1  6
  6  7  1  0
  7  8  2  0
  8  9  1  0
  9 10  2  0
 20  9  1  6
 10 11  1  0
 11 12  2  0
 12 13  1  0
 13 14  2  0
 21 13  1  6
 14 15  1  0
 15 16  1  6
M  END
$$$$
