
     RDKit          3D

 21 21  0  0  0  0  0  0  0  0999 V2000
   -5.6639    0.5946   -6.4595 C   0  0  2  0  0  0  0  0  0  0  0  0
   -6.5368    1.3228   -5.4892 C   0  0  0  0  0  0  0  0  0  0  0  0
   -5.8448    1.7035   -4.2246 C   0  0  0  0  0  0  0  0  0  0  0  0
   -4.3725    1.4477   -4.2487 C   0  0  0  0  0  0  0  0  0  0  0  0
   -3.8198    1.9722   -5.5657 C   0  0  1  0  0  0  0  0  0  0  0  0
   -4.3791    1.3875   -6.7633 C   0  0  0  0  0  0  0  0  0  0  0  0
   -3.5115    0.6778   -7.6765 C   0  0  0  0  0  0  0  0  0  0  0  0
   -2.5231    0.6390   -8.4286 C   0  0  0  0  0  0  0  0  0  0  0  0
   -1.6596    1.4606   -9.2344 C   0  0  0  0  0  0  0  0  0  0  0  0
   -0.4688    1.0593   -9.6704 C   0  0  0  0  0  0  0  0  0  0  0  0
    0.6548    1.9402   -9.8733 C   0  0  0  0  0  0  0  0  0  0  0  0
    0.9946    2.2330  -11.1659 C   0  0  0  0  0  0  0  0  0  0  0  0
    2.2865    1.9701  -11.7269 C   0  0  0  0  0  0  0  0  0  0  0  0
    3.2295    2.8752  -11.8111 C   0  0  0  0  0  0  0  0  0  0  0  0
    4.5486    2.6235  -12.3843 C   0  0  0  0  0  0  0  0  0  0  0  0
    5.5131    3.5553  -11.9525 O   0  0  0  0  0  0  0  0  0  0  0  0
   -6.4755    0.4824   -7.7659 C   0  0  0  0  0  0  0  0  0  0  0  0
   -5.4008   -0.7928   -5.9742 C   0  0  0  0  0  0  0  0  0  0  0  0
   -3.9673    3.5124   -5.5279 C   0  0  0  0  0  0  0  0  0  0  0  0
   -1.9951    2.8540   -9.6775 C   0  0  0  0  0  0  0  0  0  0  0  0
    2.6715    0.5865  -12.2093 C   0  0  0  0  0  0  0  0  0  0  0  0
  1  2  1  0
  1  6  1  6
 17  1  1  6
 18  1  1  6
  2  3  1  6
  3  4  1  6
  4  5  1  6
  5  6  1  6
 19  5  1  6
  6  7  1  0
  7  8  2  0
  8  9  1  0
  9 10  2  0
 20  9  1  6
 10 11  1  0
 11 12  2  0
 12 13  1  0
 13 14  2  0
 21 13  1  6
 14 15  1  0
 15 16  1  6
M  END
$$$$
