
     RDKit          3D

 21 21  0  0  0  0  0  0  0  0999 V2000
    6.4256    1.6843  -12.5834 C   0  0  2  0  0  0  0  0  0  0  0  0
    7.7716    1.7700  -12.0174 C   0  0  0  0  0  0  0  0  0  0  0  0
    8.1535    3.0596  -11.3299 C   0  0  0  0  0  0  0  0  0  0  0  0
    7.0727    3.5954  -10.4979 C   0  0  0  0  0  0  0  0  0  0  0  0
    5.7422    3.5879  -11.3052 C   0  0  1  0  0  0  0  0  0  0  0  0
    5.3828    2.1890  -11.5035 C   0  0  0  0  0  0  0  0  0  0  0  0
    4.0734    1.8059  -12.0243 C   0  0  0  0  0  0  0  0  0  0  0  0
    2.9620    1.8837  -11.3405 C   0  0  0  0  0  0  0  0  0  0  0  0
    1.6444    2.2001  -11.9328 C   0  0  0  0  0  0  0  0  0  0  0  0
    0.6101    1.4957  -11.4689 C   0  0  0  0  0  0  0  0  0  0  0  0
   -0.7471    1.9856  -11.5728 C   0  0  0  0  0  0  0  0  0  0  0  0
   -1.7437    1.7491  -10.7954 C   0  0  0  0  0  0  0  0  0  0  0  0
   -2.7605    1.5184  -10.0068 C   0  0  0  0  0  0  0  0  0  0  0  0
   -2.9344    1.7813   -8.7023 C   0  0  0  0  0  0  0  0  0  0  0  0
   -3.8991    1.5312   -7.7186 C   0  0  0  0  0  0  0  0  0  0  0  0
   -3.4607    2.1447   -6.4664 O   0  0  0  0  0  0  0  0  0  0  0  0
    6.0828    0.2356  -12.8615 C   0  0  0  0  0  0  0  0  0  0  0  0
    6.1817    2.4627  -13.8557 C   0  0  0  0  0  0  0  0  0  0  0  0
    4.7757    4.5045  -10.5931 C   0  0  0  0  0  0  0  0  0  0  0  0
    1.4426    3.2472  -12.9554 C   0  0  0  0  0  0  0  0  0  0  0  0
   -3.9831    0.6459  -10.5377 C   0  0  0  0  0  0  0  0  0  0  0  0
  1  2  1  0
  1  6  1  0
  1 17  1  6
  1 18  1  0
  2  3  1  0
  3  4  1  0
  4  5  1  0
  5  6  1  0
  5 19  1  1
  6  7  1  0
  7  8  2  0
  8  9  1  0
  9 10  2  0
  9 20  1  0
 10 11  1  0
 11 12  2  0
 12 13  1  0
 13 14  2  0
 13 21  1  0
 14 15  1  0
 15 16  1  0
M  END
$$$$
