
     RDKit          3D

 21 21  0  0  0  0  0  0  0  0999 V2000
   -3.8640    0.9610   -9.9025 C   0  0  2  0  0  0  0  0  0  0  0  0
   -4.8947    1.2670   -8.9110 C   0  0  0  0  0  0  0  0  0  0  0  0
   -4.6390    0.8298   -7.4879 C   0  0  0  0  0  0  0  0  0  0  0  0
   -3.2549    1.0638   -7.0673 C   0  0  0  0  0  0  0  0  0  0  0  0
   -2.2823    0.5318   -8.1595 C   0  0  1  0  0  0  0  0  0  0  0  0
   -2.4536    1.3910   -9.3246 C   0  0  0  0  0  0  0  0  0  0  0  0
   -1.5367    1.3266  -10.4594 C   0  0  0  0  0  0  0  0  0  0  0  0
   -0.2775    1.6736  -10.4041 C   0  0  0  0  0  0  0  0  0  0  0  0
    0.5548    1.9664  -11.5909 C   0  0  0  0  0  0  0  0  0  0  0  0
    1.7726    2.4541  -11.3455 C   0  0  0  0  0  0  0  0  0  0  0  0
    2.9493    1.9113  -11.9883 C   0  0  0  0  0  0  0  0  0  0  0  0
    4.1833    2.2017  -11.7727 C   0  0  0  0  0  0  0  0  0  0  0  0
    5.4406    2.4917  -11.5625 C   0  0  0  0  0  0  0  0  0  0  0  0
    6.0042    3.4841  -10.8566 C   0  0  0  0  0  0  0  0  0  0  0  0
    7.2963    3.9127  -10.5284 C   0  0  0  0  0  0  0  0  0  0  0  0
    7.2058    4.8769   -9.4335 O   0  0  0  0  0  0  0  0  0  0  0  0
   -4.0887    1.7989  -11.1440 C   0  0  0  0  0  0  0  0  0  0  0  0
   -3.7603   -0.4822  -10.3393 C   0  0  0  0  0  0  0  0  0  0  0  0
   -0.9160    0.4088   -7.5275 C   0  0  0  0  0  0  0  0  0  0  0  0
    0.1101    1.7177  -12.9776 C   0  0  0  0  0  0  0  0  0  0  0  0
    6.5720    1.6979  -12.3548 C   0  0  0  0  0  0  0  0  0  0  0  0
  1  2  1  0
  1  6  1  0
  1 17  1  6
  1 18  1  0
  2  3  1  0
  3  4  1  0
  4  5  1  0
  5  6  1  0
  5 19  1  1
  6  7  1  0
  7  8  2  0
  8  9  1  0
  9 10  2  0
  9 20  1  0
 10 11  1  0
 11 12  2  0
 12 13  1  0
 13 14  2  0
 13 21  1  0
 14 15  1  0
 15 16  1  0
M  END
$$$$
