
     RDKit          3D

 21 21  0  0  0  0  0  0  0  0999 V2000
   -4.6183   -0.0986  -13.0306 C   0  0  2  0  0  0  0  0  0  0  0  0
   -6.1038   -0.2610  -13.0083 C   0  0  0  0  0  0  0  0  0  0  0  0
   -6.6126   -0.9856  -11.8087 C   0  0  0  0  0  0  0  0  0  0  0  0
   -5.5626   -1.2450  -10.7773 C   0  0  0  0  0  0  0  0  0  0  0  0
   -4.7719    0.0383  -10.5700 C   0  0  1  0  0  0  0  0  0  0  0  0
   -4.1070    0.5669  -11.7393 C   0  0  0  0  0  0  0  0  0  0  0  0
   -2.6674    0.7000  -11.7357 C   0  0  0  0  0  0  0  0  0  0  0  0
   -1.6402    1.3993  -11.7252 C   0  0  0  0  0  0  0  0  0  0  0  0
   -0.2297    1.3648  -11.4437 C   0  0  0  0  0  0  0  0  0  0  0  0
    0.6906    1.8646  -12.2638 C   0  0  0  0  0  0  0  0  0  0  0  0
    1.9475    2.4183  -11.8242 C   0  0  0  0  0  0  0  0  0  0  0  0
    3.0827    1.9480  -12.4259 C   0  0  0  0  0  0  0  0  0  0  0  0
    4.4042    2.3748  -12.0731 C   0  0  0  0  0  0  0  0  0  0  0  0
    5.3980    2.4095  -12.9254 C   0  0  0  0  0  0  0  0  0  0  0  0
    6.8040    2.4465  -12.5332 C   0  0  0  0  0  0  0  0  0  0  0  0
    7.5820    1.4920  -13.2177 O   0  0  0  0  0  0  0  0  0  0  0  0
   -4.3078    0.8459  -14.2094 C   0  0  0  0  0  0  0  0  0  0  0  0
   -3.9618   -1.4081  -13.3200 C   0  0  0  0  0  0  0  0  0  0  0  0
   -5.7399    1.0571   -9.9215 C   0  0  0  0  0  0  0  0  0  0  0  0
    0.3675    0.7691  -10.2032 C   0  0  0  0  0  0  0  0  0  0  0  0
    4.7255    2.8819  -10.6821 C   0  0  0  0  0  0  0  0  0  0  0  0
  1  2  1  0
  1  6  1  1
 17  1  1  6
 18  1  1  6
  2  3  1  6
  3  4  1  6
  4  5  1  6
  5  6  1  6
 19  5  1  6
  6  7  1  0
  7  8  2  0
  8  9  1  0
  9 10  2  0
 20  9  1  6
 10 11  1  0
 11 12  2  0
 12 13  1  0
 13 14  2  0
 21 13  1  6
 14 15  1  0
 15 16  1  6
M  END
$$$$
