
     RDKit          3D

 58 64  0  0  0  0  0  0  0  0999 V2000
  -38.2369   50.3947  -50.6427 C   0  0  0  0  0  0  0  0  0  0  0  0
  -39.5095   50.3912  -50.6356 O   0  0  0  0  0  0  0  0  0  0  0  0
  -37.5877   49.1692  -50.3564 N   0  0  0  0  0  0  0  0  0  0  0  0
  -38.3381   48.0102  -50.0002 C   0  0  0  0  0  0  0  0  0  0  0  0
  -39.7147   47.9792  -49.9939 C   0  0  0  0  0  0  0  0  0  0  0  0
  -40.4058   46.8334  -49.6379 C   0  0  0  0  0  0  0  0  0  0  0  0
  -39.7578   45.6790  -49.2758 C   0  0  0  0  0  0  0  0  0  0  0  0
  -40.4615   44.4307  -48.8874 C   0  0  0  0  0  0  0  0  0  0  0  0
  -38.3783   45.6867  -49.2751 C   0  0  0  0  0  0  0  0  0  0  0  0
  -37.6911   46.8277  -49.6296 C   0  0  0  0  0  0  0  0  0  0  0  0
  -39.4671   52.6077  -52.0098 C   0  0  0  0  0  0  0  0  0  0  0  0
  -37.5457   51.5983  -50.9309 N   0  0  0  0  0  0  0  0  0  0  0  0
  -40.1047   53.5226  -51.4269 O   0  0  0  0  0  0  0  0  0  0  0  0
  -32.7648   54.1479  -53.0011 F   0  0  0  0  0  0  0  0  0  0  0  0
  -36.2664   56.5867  -55.0967 F   0  0  0  0  0  0  0  0  0  0  0  0
  -37.9881   52.5640  -51.9174 C   0  0  1  0  0  0  0  0  0  0  0  0
  -37.2627   52.3237  -53.1830 C   0  0  0  0  0  0  0  0  0  0  0  0
  -36.2442   53.3652  -53.4541 C   0  0  0  0  0  0  0  0  0  0  0  0
  -34.4759   55.3819  -54.0473 C   0  0  0  0  0  0  0  0  0  0  0  0
  -34.9239   53.2203  -53.0570 C   0  0  0  0  0  0  0  0  0  0  0  0
  -36.6714   54.5025  -54.1369 C   0  0  0  0  0  0  0  0  0  0  0  0
  -34.0607   54.2524  -53.3710 C   0  0  0  0  0  0  0  0  0  0  0  0
  -35.7883   55.5039  -54.4302 C   0  0  0  0  0  0  0  0  0  0  0  0
  -40.2336   51.6691  -52.7251 N   0  0  0  0  0  0  0  0  0  0  0  0
  -39.7384   50.7834  -53.7636 C   0  0  2  0  0  0  0  0  0  0  0  0
  -39.9341   51.3567  -55.1191 C   0  0  0  0  0  0  0  0  0  0  0  0
  -41.0397   51.9821  -55.2858 O   0  0  0  0  0  0  0  0  0  0  0  0
  -40.5873   49.5407  -53.6618 C   0  0  2  0  0  0  0  0  0  0  0  0
  -40.8364   49.1813  -52.3388 O   0  0  0  0  0  0  0  0  0  0  0  0
  -38.9838   51.2316  -56.1577 N   0  0  0  0  0  0  0  0  0  0  0  0
  -38.1675   50.0779  -56.4217 C   0  0  2  0  0  0  0  0  0  0  0  0
  -36.8049   50.1597  -55.8564 C   0  0  0  0  0  0  0  0  0  0  0  0
  -36.4126   51.2794  -55.4379 O   0  0  0  0  0  0  0  0  0  0  0  0
  -38.0995   50.0916  -57.9315 C   0  0  0  0  0  0  0  0  0  0  0  0
  -38.0939   51.5420  -58.2038 C   0  0  0  0  0  0  0  0  0  0  0  0
  -38.6087   52.1718  -57.1661 C   0  0  0  0  0  0  0  0  0  0  0  0
  -36.8204   47.1901  -54.4163 C   0  0  0  0  0  0  0  0  0  0  0  0
  -35.9951   49.0103  -55.8000 N   0  0  0  0  0  0  0  0  0  0  0  0
  -36.2384   47.7959  -53.4786 O   0  0  0  0  0  0  0  0  0  0  0  0
  -36.5039   47.6451  -55.7909 C   0  0  1  0  0  0  0  0  0  0  0  0
  -35.3358   46.7673  -56.2634 C   0  0  0  0  0  0  0  0  0  0  0  0
  -34.0016   48.6657  -57.0908 C   0  0  0  0  0  0  0  0  0  0  0  0
  -34.5394   49.1406  -55.7452 C   0  0  0  0  0  0  0  0  0  0  0  0
  -34.6698   47.3824  -57.4738 C   0  0  0  0  0  0  0  0  0  0  0  0
  -37.7311   46.1300  -54.2077 N   0  0  0  0  0  0  0  0  0  0  0  0
  -38.9104   46.0015  -55.0093 C   0  0  2  0  0  0  0  0  0  0  0  0
  -40.1736   45.8788  -54.2101 C   0  0  0  0  0  0  0  0  0  0  0  0
  -41.2019   45.7415  -54.9736 O   0  0  0  0  0  0  0  0  0  0  0  0
  -38.7016   44.6961  -55.8116 C   0  0  0  0  0  0  0  0  0  0  0  0
  -39.7320   48.2949  -52.4547 C   0  0  0  0  0  0  0  0  0  0  0  0
  -40.3304   45.8973  -52.8315 N   0  0  0  0  0  0  0  0  0  0  0  0
  -38.6357   48.9646  -51.9255 O   0  0  0  0  0  0  0  0  0  0  0  0
  -40.0698   46.9910  -51.9040 C   0  0  1  0  0  0  0  0  0  0  0  0
  -39.0657   46.3555  -50.9798 C   0  0  0  0  0  0  0  0  0  0  0  0
  -40.7939   44.8920  -51.8509 C   0  0  0  0  0  0  0  0  0  0  0  0
  -40.1234   44.6772  -49.5123 C   0  0  0  0  0  0  0  0  0  0  0  0
  -39.6005   44.9183  -50.9046 C   0  0  2  0  0  0  0  0  0  0  0  0
  -39.9224   48.3598  -53.8017 O   0  0  0  0  0  0  0  0  0  0  0  0
  1  2  2  0
  1  3  1  0
 12  1  1  0
  3  4  1  0
  4  5  2  0
  4 10  1  0
  5  6  1  0
  6  7  2  0
  7  8  1  0
  9  7  1  0
 10  9  2  0
 11 13  2  0
 11 16  1  0
 24 11  1  0
 16 12  1  0
 22 14  1  0
 23 15  1  0
 16 17  1  6
 17 18  1  0
 18 20  2  0
 18 21  1  0
 22 19  2  0
 23 19  1  0
 20 22  1  0
 21 23  2  0
 25 24  1  1
 26 25  1  0
 25 28  1  0
 26 27  2  0
 30 26  1  0
 28 29  1  1
 28 58  1  0
 29 50  1  0
 31 30  1  0
 30 36  1  0
 32 31  1  0
 31 34  1  6
 32 33  2  0
 38 32  1  0
 34 35  1  0
 35 36  2  0
 37 39  2  0
 40 37  1  0
 37 45  1  0
 38 40  1  0
 38 43  1  0
 40 41  1  1
 41 44  1  0
 43 42  1  0
 42 44  1  0
 45 46  1  0
 46 47  1  0
 46 49  1  1
 47 48  2  0
 47 51  1  0
 50 52  1  0
 50 53  1  0
 50 58  1  0
 51 53  1  0
 51 55  1  0
 53 54  1  1
 54 57  1  0
 55 57  1  0
 57 56  1  1
M  END
$$$$
