
     RDKit          3D

 58 64  0  0  0  0  0  0  0  0999 V2000
  -19.7243   69.5696  -36.8626 C   0  0  0  0  0  0  0  0  0  0  0  0
  -20.1837   69.7040  -35.6835 O   0  0  0  0  0  0  0  0  0  0  0  0
  -20.5187   70.0670  -37.9242 N   0  0  0  0  0  0  0  0  0  0  0  0
  -21.9390   69.9452  -37.8936 C   0  0  0  0  0  0  0  0  0  0  0  0
  -22.7808   71.0166  -37.6950 C   0  0  0  0  0  0  0  0  0  0  0  0
  -24.1557   70.8547  -37.6687 C   0  0  0  0  0  0  0  0  0  0  0  0
  -24.7444   69.6265  -37.8378 C   0  0  0  0  0  0  0  0  0  0  0  0
  -26.2132   69.4110  -37.8159 C   0  0  0  0  0  0  0  0  0  0  0  0
  -23.9204   68.5384  -38.0385 C   0  0  0  0  0  0  0  0  0  0  0  0
  -22.5519   68.7004  -38.0646 C   0  0  0  0  0  0  0  0  0  0  0  0
  -17.9653   67.3997  -38.8535 C   0  0  0  0  0  0  0  0  0  0  0  0
  -18.4672   68.9425  -37.0527 N   0  0  0  0  0  0  0  0  0  0  0  0
  -18.3248   66.3698  -39.4807 O   0  0  0  0  0  0  0  0  0  0  0  0
  -17.6264   62.3160  -36.7041 F   0  0  0  0  0  0  0  0  0  0  0  0
  -21.3276   63.2259  -39.5456 F   0  0  0  0  0  0  0  0  0  0  0  0
  -18.3103   67.5488  -37.4194 C   0  0  1  0  0  0  0  0  0  0  0  0
  -19.4921   66.7937  -36.9513 C   0  0  0  0  0  0  0  0  0  0  0  0
  -19.4306   65.3621  -37.3287 C   0  0  0  0  0  0  0  0  0  0  0  0
  -19.4603   62.7322  -38.1214 C   0  0  0  0  0  0  0  0  0  0  0  0
  -18.4872   64.5016  -36.7888 C   0  0  0  0  0  0  0  0  0  0  0  0
  -20.3732   64.9120  -38.2512 C   0  0  0  0  0  0  0  0  0  0  0  0
  -18.5298   63.1859  -37.2084 C   0  0  0  0  0  0  0  0  0  0  0  0
  -20.3847   63.6025  -38.6431 C   0  0  0  0  0  0  0  0  0  0  0  0
  -17.2411   68.3577  -39.5868 N   0  0  0  0  0  0  0  0  0  0  0  0
  -17.2726   69.7933  -39.3717 C   0  0  2  0  0  0  0  0  0  0  0  0
  -18.6453   70.2790  -39.0811 C   0  0  0  0  0  0  0  0  0  0  0  0
  -19.5726   69.7139  -39.7609 O   0  0  0  0  0  0  0  0  0  0  0  0
  -16.8370   70.3995  -40.6823 C   0  0  2  0  0  0  0  0  0  0  0  0
  -15.7913   69.6890  -41.2683 O   0  0  0  0  0  0  0  0  0  0  0  0
  -18.9254   71.2867  -38.1306 N   0  0  0  0  0  0  0  0  0  0  0  0
  -18.1212   72.4496  -37.8700 C   0  0  2  0  0  0  0  0  0  0  0  0
  -17.2090   72.3074  -36.7165 C   0  0  0  0  0  0  0  0  0  0  0  0
  -17.3903   71.3297  -35.9458 O   0  0  0  0  0  0  0  0  0  0  0  0
  -19.1764   73.4882  -37.5661 C   0  0  0  0  0  0  0  0  0  0  0  0
  -20.1964   72.6677  -36.8847 C   0  0  0  0  0  0  0  0  0  0  0  0
  -20.0273   71.4062  -37.2289 C   0  0  0  0  0  0  0  0  0  0  0  0
  -14.4938   73.3824  -38.2541 C   0  0  0  0  0  0  0  0  0  0  0  0
  -16.1818   73.2467  -36.5103 N   0  0  0  0  0  0  0  0  0  0  0  0
  -13.9345   72.4486  -37.6218 O   0  0  0  0  0  0  0  0  0  0  0  0
  -15.6033   74.0767  -37.5587 C   0  0  1  0  0  0  0  0  0  0  0  0
  -14.9616   75.2684  -36.8332 C   0  0  0  0  0  0  0  0  0  0  0  0
  -16.0902   74.8101  -34.6920 C   0  0  0  0  0  0  0  0  0  0  0  0
  -15.6228   73.4405  -35.1728 C   0  0  0  0  0  0  0  0  0  0  0  0
  -15.9028   75.8162  -35.7841 C   0  0  0  0  0  0  0  0  0  0  0  0
  -14.1117   73.7750  -39.5567 N   0  0  0  0  0  0  0  0  0  0  0  0
  -15.0905   74.1520  -40.5311 C   0  0  2  0  0  0  0  0  0  0  0  0
  -14.9672   73.4111  -41.8293 C   0  0  0  0  0  0  0  0  0  0  0  0
  -15.8523   73.8014  -42.6798 O   0  0  0  0  0  0  0  0  0  0  0  0
  -14.8310   75.6543  -40.7901 C   0  0  0  0  0  0  0  0  0  0  0  0
  -14.9167   70.6286  -40.6591 C   0  0  0  0  0  0  0  0  0  0  0  0
  -14.0601   72.4203  -42.1771 N   0  0  0  0  0  0  0  0  0  0  0  0
  -14.4747   70.0435  -39.4789 O   0  0  0  0  0  0  0  0  0  0  0  0
  -13.9178   71.0833  -41.6145 C   0  0  1  0  0  0  0  0  0  0  0  0
  -12.4867   71.1147  -41.1484 C   0  0  0  0  0  0  0  0  0  0  0  0
  -12.9768   72.3456  -43.1812 C   0  0  0  0  0  0  0  0  0  0  0  0
  -10.9150   71.0431  -43.0493 C   0  0  0  0  0  0  0  0  0  0  0  0
  -11.8306   71.9438  -42.2617 C   0  0  2  0  0  0  0  0  0  0  0  0
  -15.9907   71.4630  -40.5873 O   0  0  0  0  0  0  0  0  0  0  0  0
  1  2  2  0
  1  3  1  0
 12  1  1  0
  3  4  1  0
  4  5  2  0
  4 10  1  0
  5  6  1  0
  6  7  2  0
  7  8  1  0
  9  7  1  0
 10  9  2  0
 11 13  2  0
 11 16  1  0
 24 11  1  0
 16 12  1  0
 22 14  1  0
 23 15  1  0
 16 17  1  6
 17 18  1  0
 18 20  2  0
 18 21  1  0
 22 19  2  0
 23 19  1  0
 20 22  1  0
 21 23  2  0
 25 24  1  6
 26 25  1  0
 25 28  1  0
 26 27  2  0
 30 26  1  0
 28 29  1  6
 28 58  1  0
 29 50  1  0
 31 30  1  0
 30 36  1  0
 32 31  1  0
 31 34  1  1
 32 33  2  0
 38 32  1  0
 34 35  1  0
 35 36  2  0
 37 39  2  0
 40 37  1  0
 37 45  1  0
 38 40  1  0
 38 43  1  0
 40 41  1  1
 41 44  1  0
 43 42  1  0
 42 44  1  0
 45 46  1  0
 46 47  1  0
 46 49  1  6
 47 48  2  0
 47 51  1  0
 50 52  1  0
 50 53  1  0
 50 58  1  0
 51 53  1  0
 51 55  1  0
 53 54  1  1
 54 57  1  0
 55 57  1  0
 57 56  1  6
M  END
$$$$
