
     RDKit          3D

 58 64  0  0  0  0  0  0  0  0999 V2000
  -18.0742   67.3221  -39.3495 C   0  0  0  0  0  0  0  0  0  0  0  0
  -18.2237   66.5168  -40.3234 O   0  0  0  0  0  0  0  0  0  0  0  0
  -18.5436   66.8960  -38.0833 N   0  0  0  0  0  0  0  0  0  0  0  0
  -18.7184   65.5101  -37.7971 C   0  0  0  0  0  0  0  0  0  0  0  0
  -19.0383   65.0362  -36.5444 C   0  0  0  0  0  0  0  0  0  0  0  0
  -19.1959   63.6811  -36.3076 C   0  0  0  0  0  0  0  0  0  0  0  0
  -19.0420   62.7486  -37.3028 C   0  0  0  0  0  0  0  0  0  0  0  0
  -19.2019   61.2880  -37.0899 C   0  0  0  0  0  0  0  0  0  0  0  0
  -18.7217   63.2004  -38.5662 C   0  0  0  0  0  0  0  0  0  0  0  0
  -18.5650   64.5495  -38.8011 C   0  0  0  0  0  0  0  0  0  0  0  0
  -16.1212   69.9736  -41.0375 C   0  0  0  0  0  0  0  0  0  0  0  0
  -17.4585   68.5792  -39.5738 N   0  0  0  0  0  0  0  0  0  0  0  0
  -15.2289   69.5375  -41.8101 O   0  0  0  0  0  0  0  0  0  0  0  0
  -22.7281   67.3915  -40.7580 F   0  0  0  0  0  0  0  0  0  0  0  0
  -20.5088   67.8418  -44.9381 F   0  0  0  0  0  0  0  0  0  0  0  0
  -17.3873   69.2202  -40.8721 C   0  0  1  0  0  0  0  0  0  0  0  0
  -18.6337   69.9820  -41.0999 C   0  0  0  0  0  0  0  0  0  0  0  0
  -19.7161   69.1366  -41.6561 C   0  0  0  0  0  0  0  0  0  0  0  0
  -21.6545   67.5948  -42.8440 C   0  0  0  0  0  0  0  0  0  0  0  0
  -20.7476   68.6528  -40.8662 C   0  0  0  0  0  0  0  0  0  0  0  0
  -19.6568   68.8519  -43.0190 C   0  0  0  0  0  0  0  0  0  0  0  0
  -21.7059   67.8811  -41.4946 C   0  0  0  0  0  0  0  0  0  0  0  0
  -20.6234   68.0843  -43.6064 C   0  0  0  0  0  0  0  0  0  0  0  0
  -15.8366   71.1796  -40.3708 N   0  0  0  0  0  0  0  0  0  0  0  0
  -16.4129   71.6087  -39.1091 C   0  0  2  0  0  0  0  0  0  0  0  0
  -17.3247   70.5840  -38.5406 C   0  0  0  0  0  0  0  0  0  0  0  0
  -18.0515   69.9724  -39.4002 O   0  0  0  0  0  0  0  0  0  0  0  0
  -17.2387   72.8254  -39.4446 C   0  0  2  0  0  0  0  0  0  0  0  0
  -16.6052   73.6516  -40.3706 O   0  0  0  0  0  0  0  0  0  0  0  0
  -17.3982   70.2931  -37.1596 N   0  0  0  0  0  0  0  0  0  0  0  0
  -17.2934   71.2463  -36.0884 C   0  0  2  0  0  0  0  0  0  0  0  0
  -15.9448   71.3392  -35.4920 C   0  0  0  0  0  0  0  0  0  0  0  0
  -15.1143   70.4404  -35.7835 O   0  0  0  0  0  0  0  0  0  0  0  0
  -18.2641   70.6781  -35.0787 C   0  0  0  0  0  0  0  0  0  0  0  0
  -18.0880   69.2294  -35.2974 C   0  0  0  0  0  0  0  0  0  0  0  0
  -17.5887   69.0385  -36.5028 C   0  0  0  0  0  0  0  0  0  0  0  0
  -15.7111   74.6292  -35.6110 C   0  0  0  0  0  0  0  0  0  0  0  0
  -15.6269   72.4061  -34.6314 N   0  0  0  0  0  0  0  0  0  0  0  0
  -14.5240   74.3933  -35.9571 O   0  0  0  0  0  0  0  0  0  0  0  0
  -16.3094   73.6933  -34.6296 C   0  0  1  0  0  0  0  0  0  0  0  0
  -16.0337   74.3036  -33.2477 C   0  0  0  0  0  0  0  0  0  0  0  0
  -15.2004   72.1975  -32.2790 C   0  0  0  0  0  0  0  0  0  0  0  0
  -14.5470   72.2643  -33.6552 C   0  0  0  0  0  0  0  0  0  0  0  0
  -16.2388   73.2692  -32.1639 C   0  0  0  0  0  0  0  0  0  0  0  0
  -16.4629   75.7170  -36.1092 N   0  0  0  0  0  0  0  0  0  0  0  0
  -17.8555   75.5758  -36.4100 C   0  0  2  0  0  0  0  0  0  0  0  0
  -18.2222   76.0182  -37.7954 C   0  0  0  0  0  0  0  0  0  0  0  0
  -19.4863   75.8948  -38.0095 O   0  0  0  0  0  0  0  0  0  0  0  0
  -18.5740   76.4898  -35.3903 C   0  0  0  0  0  0  0  0  0  0  0  0
  -16.1346   74.4025  -39.2600 C   0  0  0  0  0  0  0  0  0  0  0  0
  -17.3941   76.5108  -38.7939 N   0  0  0  0  0  0  0  0  0  0  0  0
  -14.8508   73.9430  -38.9928 O   0  0  0  0  0  0  0  0  0  0  0  0
  -16.3170   75.8264  -39.4980 C   0  0  1  0  0  0  0  0  0  0  0  0
  -15.1508   76.7281  -39.1926 C   0  0  0  0  0  0  0  0  0  0  0  0
  -17.2996   77.8182  -39.4787 C   0  0  0  0  0  0  0  0  0  0  0  0
  -15.3050   78.8564  -40.4316 C   0  0  0  0  0  0  0  0  0  0  0  0
  -15.8244   78.1072  -39.2321 C   0  0  2  0  0  0  0  0  0  0  0  0
  -17.1619   73.8537  -38.5542 O   0  0  0  0  0  0  0  0  0  0  0  0
  1  2  2  0
  1  3  1  0
 12  1  1  0
  3  4  1  0
  4  5  2  0
  4 10  1  0
  5  6  1  0
  6  7  2  0
  7  8  1  0
  9  7  1  0
 10  9  2  0
 11 13  2  0
 11 16  1  0
 24 11  1  0
 16 12  1  0
 22 14  1  0
 23 15  1  0
 16 17  1  1
 17 18  1  0
 18 20  2  0
 18 21  1  0
 22 19  2  0
 23 19  1  0
 20 22  1  0
 21 23  2  0
 25 24  1  6
 26 25  1  0
 25 28  1  0
 26 27  2  0
 30 26  1  0
 28 29  1  6
 28 58  1  0
 29 50  1  0
 31 30  1  0
 30 36  1  0
 32 31  1  0
 31 34  1  1
 32 33  2  0
 38 32  1  0
 34 35  1  0
 35 36  2  0
 37 39  2  0
 40 37  1  0
 37 45  1  0
 38 40  1  0
 38 43  1  0
 40 41  1  1
 41 44  1  0
 43 42  1  0
 42 44  1  0
 45 46  1  0
 46 47  1  0
 46 49  1  1
 47 48  2  0
 47 51  1  0
 50 52  1  0
 50 53  1  0
 50 58  1  0
 51 53  1  0
 51 55  1  0
 53 54  1  1
 54 57  1  0
 55 57  1  0
 57 56  1  6
M  END
$$$$
