
     RDKit          3D

 58 64  0  0  0  0  0  0  0  0999 V2000
  -29.8469   44.2942  -32.2988 C   0  0  0  0  0  0  0  0  0  0  0  0
  -29.0838   45.2837  -32.5400 O   0  0  0  0  0  0  0  0  0  0  0  0
  -31.1584   44.5860  -31.8517 N   0  0  0  0  0  0  0  0  0  0  0  0
  -31.6878   45.9062  -31.9510 C   0  0  0  0  0  0  0  0  0  0  0  0
  -30.9115   47.0076  -32.2346 C   0  0  0  0  0  0  0  0  0  0  0  0
  -31.4648   48.2741  -32.3187 C   0  0  0  0  0  0  0  0  0  0  0  0
  -32.8055   48.4938  -32.1247 C   0  0  0  0  0  0  0  0  0  0  0  0
  -33.4369   49.8351  -32.2058 C   0  0  0  0  0  0  0  0  0  0  0  0
  -33.6030   47.4049  -31.8396 C   0  0  0  0  0  0  0  0  0  0  0  0
  -33.0515   46.1445  -31.7561 C   0  0  0  0  0  0  0  0  0  0  0  0
  -27.6154   41.3939  -33.0620 C   0  0  0  0  0  0  0  0  0  0  0  0
  -29.3583   42.9766  -32.4856 N   0  0  0  0  0  0  0  0  0  0  0  0
  -26.6998   41.4660  -33.9222 O   0  0  0  0  0  0  0  0  0  0  0  0
  -30.6330   45.3309  -28.1319 F   0  0  0  0  0  0  0  0  0  0  0  0
  -26.4110   46.9417  -29.6088 F   0  0  0  0  0  0  0  0  0  0  0  0
  -27.9778   42.5918  -32.2673 C   0  0  1  0  0  0  0  0  0  0  0  0
  -27.7271   42.5092  -30.8125 C   0  0  0  0  0  0  0  0  0  0  0  0
  -28.0702   43.7680  -30.1103 C   0  0  0  0  0  0  0  0  0  0  0  0
  -28.5478   46.1598  -28.8465 C   0  0  0  0  0  0  0  0  0  0  0  0
  -29.2682   43.9251  -29.4304 C   0  0  0  0  0  0  0  0  0  0  0  0
  -27.1273   44.7931  -30.1564 C   0  0  0  0  0  0  0  0  0  0  0  0
  -29.4769   45.1396  -28.8057 C   0  0  0  0  0  0  0  0  0  0  0  0
  -27.3687   45.9819  -29.5262 C   0  0  0  0  0  0  0  0  0  0  0  0
  -28.2423   40.1423  -32.9193 N   0  0  0  0  0  0  0  0  0  0  0  0
  -28.0117   39.1950  -31.8434 C   0  0  2  0  0  0  0  0  0  0  0  0
  -29.1867   38.3154  -31.6195 C   0  0  0  0  0  0  0  0  0  0  0  0
  -30.3235   38.8962  -31.7272 O   0  0  0  0  0  0  0  0  0  0  0  0
  -27.8249   40.0383  -30.6069 C   0  0  2  0  0  0  0  0  0  0  0  0
  -27.0680   41.1807  -30.8591 O   0  0  0  0  0  0  0  0  0  0  0  0
  -29.0775   36.9406  -31.3105 N   0  0  0  0  0  0  0  0  0  0  0  0
  -28.0739   36.3394  -30.4748 C   0  0  2  0  0  0  0  0  0  0  0  0
  -26.9390   35.7550  -31.2186 C   0  0  0  0  0  0  0  0  0  0  0  0
  -27.0673   35.6122  -32.4619 O   0  0  0  0  0  0  0  0  0  0  0  0
  -28.8610   35.2437  -29.7934 C   0  0  0  0  0  0  0  0  0  0  0  0
  -29.7925   34.8506  -30.8684 C   0  0  0  0  0  0  0  0  0  0  0  0
  -29.8973   35.8466  -31.7260 C   0  0  0  0  0  0  0  0  0  0  0  0
  -24.5534   37.1741  -29.4332 C   0  0  0  0  0  0  0  0  0  0  0  0
  -25.7673   35.3797  -30.5357 N   0  0  0  0  0  0  0  0  0  0  0  0
  -23.9987   37.3277  -30.5528 O   0  0  0  0  0  0  0  0  0  0  0  0
  -25.3473   35.9350  -29.2559 C   0  0  1  0  0  0  0  0  0  0  0  0
  -24.3821   34.9022  -28.6559 C   0  0  0  0  0  0  0  0  0  0  0  0
  -25.0097   33.1221  -30.2389 C   0  0  0  0  0  0  0  0  0  0  0  0
  -24.8774   34.3691  -31.1066 C   0  0  0  0  0  0  0  0  0  0  0  0
  -24.9498   33.5074  -28.7939 C   0  0  0  0  0  0  0  0  0  0  0  0
  -24.4471   38.1099  -28.3798 N   0  0  0  0  0  0  0  0  0  0  0  0
  -25.5683   38.4074  -27.5406 C   0  0  2  0  0  0  0  0  0  0  0  0
  -25.8736   39.8722  -27.4373 C   0  0  0  0  0  0  0  0  0  0  0  0
  -26.8728   40.0904  -26.6542 O   0  0  0  0  0  0  0  0  0  0  0  0
  -25.1643   37.8845  -26.1425 C   0  0  0  0  0  0  0  0  0  0  0  0
  -25.9445   40.4411  -30.4012 C   0  0  0  0  0  0  0  0  0  0  0  0
  -25.2324   40.9354  -28.0567 N   0  0  0  0  0  0  0  0  0  0  0  0
  -25.3183   39.9388  -31.5354 O   0  0  0  0  0  0  0  0  0  0  0  0
  -25.1531   41.2420  -29.4794 C   0  0  1  0  0  0  0  0  0  0  0  0
  -23.6628   41.2591  -29.6907 C   0  0  0  0  0  0  0  0  0  0  0  0
  -24.4488   42.0818  -27.5476 C   0  0  0  0  0  0  0  0  0  0  0  0
  -22.6287   43.2564  -28.6755 C   0  0  0  0  0  0  0  0  0  0  0  0
  -23.1842   41.8886  -28.3746 C   0  0  2  0  0  0  0  0  0  0  0  0
  -26.8358   39.6340  -29.7617 O   0  0  0  0  0  0  0  0  0  0  0  0
  1  2  2  0
  1  3  1  0
 12  1  1  0
  3  4  1  0
  4  5  2  0
  4 10  1  0
  5  6  1  0
  6  7  2  0
  7  8  1  0
  9  7  1  0
 10  9  2  0
 11 13  2  0
 11 16  1  0
 24 11  1  0
 16 12  1  0
 22 14  1  0
 23 15  1  0
 16 17  1  1
 17 18  1  0
 18 20  2  0
 18 21  1  0
 22 19  2  0
 23 19  1  0
 20 22  1  0
 21 23  2  0
 25 24  1  6
 26 25  1  0
 25 28  1  0
 26 27  2  0
 30 26  1  0
 28 29  1  6
 28 58  1  0
 29 50  1  0
 31 30  1  0
 30 36  1  0
 32 31  1  0
 31 34  1  6
 32 33  2  0
 38 32  1  0
 34 35  1  0
 35 36  2  0
 37 39  2  0
 40 37  1  0
 37 45  1  0
 38 40  1  0
 38 43  1  0
 40 41  1  6
 41 44  1  0
 43 42  1  0
 42 44  1  0
 45 46  1  0
 46 47  1  0
 46 49  1  1
 47 48  2  0
 47 51  1  0
 50 52  1  0
 50 53  1  0
 50 58  1  0
 51 53  1  0
 51 55  1  0
 53 54  1  6
 54 57  1  0
 55 57  1  0
 57 56  1  6
M  END
$$$$
