
     RDKit          3D

 58 64  0  0  0  0  0  0  0  0999 V2000
  -18.8420   66.5960  -39.5285 C   0  0  0  0  0  0  0  0  0  0  0  0
  -20.0055   66.1420  -39.2846 O   0  0  0  0  0  0  0  0  0  0  0  0
  -17.7430   65.7796  -39.1668 N   0  0  0  0  0  0  0  0  0  0  0  0
  -17.7588   64.3770  -39.4227 C   0  0  0  0  0  0  0  0  0  0  0  0
  -18.4319   63.4759  -38.6283 C   0  0  0  0  0  0  0  0  0  0  0  0
  -18.4191   62.1203  -38.9099 C   0  0  0  0  0  0  0  0  0  0  0  0
  -17.7393   61.6101  -39.9876 C   0  0  0  0  0  0  0  0  0  0  0  0
  -17.7007   60.1644  -40.3232 C   0  0  0  0  0  0  0  0  0  0  0  0
  -17.0578   62.4945  -40.7978 C   0  0  0  0  0  0  0  0  0  0  0  0
  -17.0711   63.8438  -40.5168 C   0  0  0  0  0  0  0  0  0  0  0  0
  -19.3693   69.9246  -41.2363 C   0  0  0  0  0  0  0  0  0  0  0  0
  -18.7049   67.8689  -40.1374 N   0  0  0  0  0  0  0  0  0  0  0  0
  -20.0595   70.4720  -42.1348 O   0  0  0  0  0  0  0  0  0  0  0  0
  -21.1689   64.1876  -37.9568 F   0  0  0  0  0  0  0  0  0  0  0  0
  -19.5093   67.6211  -35.1182 F   0  0  0  0  0  0  0  0  0  0  0  0
  -19.8223   68.6493  -40.6311 C   0  0  1  0  0  0  0  0  0  0  0  0
  -20.8394   68.7594  -39.5637 C   0  0  0  0  0  0  0  0  0  0  0  0
  -20.6914   67.7036  -38.5347 C   0  0  0  0  0  0  0  0  0  0  0  0
  -20.3419   65.8641  -36.5248 C   0  0  0  0  0  0  0  0  0  0  0  0
  -21.0347   66.3838  -38.7839 C   0  0  0  0  0  0  0  0  0  0  0  0
  -20.1817   68.0952  -37.2982 C   0  0  0  0  0  0  0  0  0  0  0  0
  -20.8464   65.4843  -37.7522 C   0  0  0  0  0  0  0  0  0  0  0  0
  -20.0092   67.1767  -36.3005 C   0  0  0  0  0  0  0  0  0  0  0  0
  -18.1846   70.5878  -40.8665 N   0  0  0  0  0  0  0  0  0  0  0  0
  -17.6248   70.6428  -39.5279 C   0  0  2  0  0  0  0  0  0  0  0  0
  -16.4535   69.7424  -39.3808 C   0  0  0  0  0  0  0  0  0  0  0  0
  -16.5592   68.6170  -39.9837 O   0  0  0  0  0  0  0  0  0  0  0  0
  -18.7162   70.1313  -38.6212 C   0  0  2  0  0  0  0  0  0  0  0  0
  -19.9736   70.6008  -38.9955 O   0  0  0  0  0  0  0  0  0  0  0  0
  -15.3020   70.0847  -38.6363 N   0  0  0  0  0  0  0  0  0  0  0  0
  -15.2814   70.8272  -37.4053 C   0  0  2  0  0  0  0  0  0  0  0  0
  -14.9952   72.2670  -37.5729 C   0  0  0  0  0  0  0  0  0  0  0  0
  -14.5621   72.6501  -38.6902 O   0  0  0  0  0  0  0  0  0  0  0  0
  -14.1447   70.1598  -36.6657 C   0  0  0  0  0  0  0  0  0  0  0  0
  -13.2342   69.8300  -37.7792 C   0  0  0  0  0  0  0  0  0  0  0  0
  -13.9282   69.7936  -38.8998 C   0  0  0  0  0  0  0  0  0  0  0  0
  -17.5028   73.3621  -35.7275 C   0  0  0  0  0  0  0  0  0  0  0  0
  -15.2085   73.1570  -36.5040 N   0  0  0  0  0  0  0  0  0  0  0  0
  -17.6071   74.2308  -36.6326 O   0  0  0  0  0  0  0  0  0  0  0  0
  -16.1286   72.9127  -35.4011 C   0  0  1  0  0  0  0  0  0  0  0  0
  -15.6519   73.8210  -34.2584 C   0  0  0  0  0  0  0  0  0  0  0  0
  -13.4783   74.3126  -35.3083 C   0  0  0  0  0  0  0  0  0  0  0  0
  -14.4829   74.4257  -36.4499 C   0  0  0  0  0  0  0  0  0  0  0  0
  -14.1503   73.7306  -34.1042 C   0  0  0  0  0  0  0  0  0  0  0  0
  -18.6123   72.8225  -35.0386 N   0  0  0  0  0  0  0  0  0  0  0  0
  -18.6612   71.4347  -34.6903 C   0  0  2  0  0  0  0  0  0  0  0  0
  -19.9109   70.7413  -35.1453 C   0  0  0  0  0  0  0  0  0  0  0  0
  -19.9190   69.5038  -34.7882 O   0  0  0  0  0  0  0  0  0  0  0  0
  -18.6166   71.4141  -33.1446 C   0  0  0  0  0  0  0  0  0  0  0  0
  -19.7909   71.6263  -38.0291 C   0  0  0  0  0  0  0  0  0  0  0  0
  -20.9792   71.2644  -35.8599 N   0  0  0  0  0  0  0  0  0  0  0  0
  -19.3191   72.7355  -38.7202 O   0  0  0  0  0  0  0  0  0  0  0  0
  -20.9921   71.7813  -37.2226 C   0  0  1  0  0  0  0  0  0  0  0  0
  -21.4908   73.1837  -36.9969 C   0  0  0  0  0  0  0  0  0  0  0  0
  -22.4073   71.4748  -35.5384 C   0  0  0  0  0  0  0  0  0  0  0  0
  -23.8885   73.2078  -36.4145 C   0  0  0  0  0  0  0  0  0  0  0  0
  -22.5068   72.9588  -35.8680 C   0  0  2  0  0  0  0  0  0  0  0  0
  -18.8721   70.8060  -37.4479 O   0  0  0  0  0  0  0  0  0  0  0  0
  1  2  2  0
  1  3  1  0
 12  1  1  0
  3  4  1  0
  4  5  2  0
  4 10  1  0
  5  6  1  0
  6  7  2  0
  7  8  1  0
  9  7  1  0
 10  9  2  0
 11 13  2  0
 11 16  1  0
 24 11  1  0
 16 12  1  0
 22 14  1  0
 23 15  1  0
 16 17  1  1
 17 18  1  0
 18 20  2  0
 18 21  1  0
 22 19  2  0
 23 19  1  0
 20 22  1  0
 21 23  2  0
 25 24  1  6
 26 25  1  0
 25 28  1  0
 26 27  2  0
 30 26  1  0
 28 29  1  6
 28 58  1  0
 29 50  1  0
 31 30  1  0
 30 36  1  0
 32 31  1  0
 31 34  1  1
 32 33  2  0
 38 32  1  0
 34 35  1  0
 35 36  2  0
 37 39  2  0
 40 37  1  0
 37 45  1  0
 38 40  1  0
 38 43  1  0
 40 41  1  1
 41 44  1  0
 43 42  1  0
 42 44  1  0
 45 46  1  0
 46 47  1  0
 46 49  1  1
 47 48  2  0
 47 51  1  0
 50 52  1  0
 50 53  1  0
 50 58  1  0
 51 53  1  0
 51 55  1  0
 53 54  1  1
 54 57  1  0
 55 57  1  0
 57 56  1  6
M  END
$$$$
