
     RDKit          3D

 58 64  0  0  0  0  0  0  0  0999 V2000
  -13.4020   47.2731  -26.7806 C   0  0  0  0  0  0  0  0  0  0  0  0
  -14.3917   46.6088  -27.2262 O   0  0  0  0  0  0  0  0  0  0  0  0
  -13.6927   48.4590  -26.0633 N   0  0  0  0  0  0  0  0  0  0  0  0
  -15.0225   48.7491  -25.6386 C   0  0  0  0  0  0  0  0  0  0  0  0
  -16.0752   47.8798  -25.8188 C   0  0  0  0  0  0  0  0  0  0  0  0
  -17.3533   48.2016  -25.3945 C   0  0  0  0  0  0  0  0  0  0  0  0
  -17.6332   49.3951  -24.7774 C   0  0  0  0  0  0  0  0  0  0  0  0
  -18.9890   49.7777  -24.3084 C   0  0  0  0  0  0  0  0  0  0  0  0
  -16.5938   50.2817  -24.5859 C   0  0  0  0  0  0  0  0  0  0  0  0
  -15.3218   49.9606  -25.0085 C   0  0  0  0  0  0  0  0  0  0  0  0
  -12.5970   44.5249  -27.6633 C   0  0  0  0  0  0  0  0  0  0  0  0
  -12.0853   46.8045  -27.0182 N   0  0  0  0  0  0  0  0  0  0  0  0
  -13.5133   44.2045  -28.4640 O   0  0  0  0  0  0  0  0  0  0  0  0
   -7.6997   45.4017  -23.8408 F   0  0  0  0  0  0  0  0  0  0  0  0
   -9.2501   49.5415  -25.5899 F   0  0  0  0  0  0  0  0  0  0  0  0
  -11.7681   45.7244  -27.9315 C   0  0  1  0  0  0  0  0  0  0  0  0
  -10.3043   45.5168  -27.9390 C   0  0  0  0  0  0  0  0  0  0  0  0
   -9.6408   46.1470  -26.7736 C   0  0  0  0  0  0  0  0  0  0  0  0
   -8.4516   47.4695  -24.6801 C   0  0  0  0  0  0  0  0  0  0  0  0
   -8.9598   45.3996  -25.8251 C   0  0  0  0  0  0  0  0  0  0  0  0
   -9.7249   47.5345  -26.6742 C   0  0  0  0  0  0  0  0  0  0  0  0
   -8.3732   46.0954  -24.7855 C   0  0  0  0  0  0  0  0  0  0  0  0
   -9.1316   48.1889  -25.6308 C   0  0  0  0  0  0  0  0  0  0  0  0
  -12.4276   43.6926  -26.5414 N   0  0  0  0  0  0  0  0  0  0  0  0
  -12.2656   42.2500  -26.5712 C   0  0  2  0  0  0  0  0  0  0  0  0
  -11.4986   41.7553  -25.4001 C   0  0  0  0  0  0  0  0  0  0  0  0
  -10.5206   42.5011  -25.0416 O   0  0  0  0  0  0  0  0  0  0  0  0
  -11.4500   41.9688  -27.8084 C   0  0  2  0  0  0  0  0  0  0  0  0
  -11.8363   42.7649  -28.8848 O   0  0  0  0  0  0  0  0  0  0  0  0
  -11.8099   40.5556  -24.7209 N   0  0  0  0  0  0  0  0  0  0  0  0
  -12.2744   39.3374  -25.3270 C   0  0  2  0  0  0  0  0  0  0  0  0
  -13.7406   39.1614  -25.2831 C   0  0  0  0  0  0  0  0  0  0  0  0
  -14.3982   39.9261  -24.5311 O   0  0  0  0  0  0  0  0  0  0  0  0
  -11.6049   38.2929  -24.4637 C   0  0  0  0  0  0  0  0  0  0  0  0
  -11.6261   38.9558  -23.1455 C   0  0  0  0  0  0  0  0  0  0  0  0
  -11.7445   40.2567  -23.3252 C   0  0  0  0  0  0  0  0  0  0  0  0
  -14.1204   38.4034  -28.4727 C   0  0  0  0  0  0  0  0  0  0  0  0
  -14.3546   38.1655  -26.0650 N   0  0  0  0  0  0  0  0  0  0  0  0
  -15.1414   39.1341  -28.3813 O   0  0  0  0  0  0  0  0  0  0  0  0
  -13.7774   37.5983  -27.2765 C   0  0  1  0  0  0  0  0  0  0  0  0
  -14.4749   36.2440  -27.4698 C   0  0  0  0  0  0  0  0  0  0  0  0
  -15.4286   36.2020  -25.1988 C   0  0  0  0  0  0  0  0  0  0  0  0
  -15.6600   37.6308  -25.6789 C   0  0  0  0  0  0  0  0  0  0  0  0
  -14.5316   35.4883  -26.1611 C   0  0  0  0  0  0  0  0  0  0  0  0
  -13.3212   38.3290  -29.6358 N   0  0  0  0  0  0  0  0  0  0  0  0
  -11.8953   38.2361  -29.5469 C   0  0  2  0  0  0  0  0  0  0  0  0
  -11.1709   39.2678  -30.3595 C   0  0  0  0  0  0  0  0  0  0  0  0
   -9.8938   39.1283  -30.2665 O   0  0  0  0  0  0  0  0  0  0  0  0
  -11.5558   36.8350  -30.1065 C   0  0  0  0  0  0  0  0  0  0  0  0
  -12.6500   41.6753  -29.2966 C   0  0  0  0  0  0  0  0  0  0  0  0
  -11.7029   40.2819  -31.1431 N   0  0  0  0  0  0  0  0  0  0  0  0
  -13.9274   41.9379  -28.8169 O   0  0  0  0  0  0  0  0  0  0  0  0
  -12.4896   41.4346  -30.7227 C   0  0  1  0  0  0  0  0  0  0  0  0
  -13.7444   41.2409  -31.5313 C   0  0  0  0  0  0  0  0  0  0  0  0
  -11.6715   40.5632  -32.5947 C   0  0  0  0  0  0  0  0  0  0  0  0
  -13.3631   41.7221  -33.9212 C   0  0  0  0  0  0  0  0  0  0  0  0
  -13.1693   40.6879  -32.8430 C   0  0  2  0  0  0  0  0  0  0  0  0
  -11.8399   40.8861  -28.5378 O   0  0  0  0  0  0  0  0  0  0  0  0
  1  2  2  0
  1  3  1  0
 12  1  1  0
  3  4  1  0
  4  5  2  0
  4 10  1  0
  5  6  1  0
  6  7  2  0
  7  8  1  0
  9  7  1  0
 10  9  2  0
 11 13  2  0
 11 16  1  0
 24 11  1  0
 16 12  1  0
 22 14  1  0
 23 15  1  0
 16 17  1  1
 17 18  1  0
 18 20  2  0
 18 21  1  0
 22 19  2  0
 23 19  1  0
 20 22  1  0
 21 23  2  0
 25 24  1  1
 26 25  1  0
 25 28  1  0
 26 27  2  0
 30 26  1  0
 28 29  1  6
 28 58  1  0
 29 50  1  0
 31 30  1  0
 30 36  1  0
 32 31  1  0
 31 34  1  1
 32 33  2  0
 38 32  1  0
 34 35  1  0
 35 36  2  0
 37 39  2  0
 40 37  1  0
 37 45  1  0
 38 40  1  0
 38 43  1  0
 40 41  1  6
 41 44  1  0
 43 42  1  0
 42 44  1  0
 45 46  1  0
 46 47  1  0
 46 49  1  6
 47 48  2  0
 47 51  1  0
 50 52  1  0
 50 53  1  0
 50 58  1  0
 51 53  1  0
 51 55  1  0
 53 54  1  1
 54 57  1  0
 55 57  1  0
 57 56  1  6
M  END
$$$$
