
     RDKit          3D

 58 64  0  0  0  0  0  0  0  0999 V2000
  -18.4066   68.4636  -40.0788 C   0  0  0  0  0  0  0  0  0  0  0  0
  -17.7822   69.4814  -40.5187 O   0  0  0  0  0  0  0  0  0  0  0  0
  -17.8397   67.1940  -40.3476 N   0  0  0  0  0  0  0  0  0  0  0  0
  -16.9248   67.0157  -41.4266 C   0  0  0  0  0  0  0  0  0  0  0  0
  -16.3409   65.8047  -41.7242 C   0  0  0  0  0  0  0  0  0  0  0  0
  -15.4540   65.6748  -42.7795 C   0  0  0  0  0  0  0  0  0  0  0  0
  -15.1145   66.7394  -43.5764 C   0  0  0  0  0  0  0  0  0  0  0  0
  -14.1682   66.6417  -44.7162 C   0  0  0  0  0  0  0  0  0  0  0  0
  -15.6876   67.9628  -43.2971 C   0  0  0  0  0  0  0  0  0  0  0  0
  -16.5704   68.0912  -42.2464 C   0  0  0  0  0  0  0  0  0  0  0  0
  -18.7761   68.0120  -37.1715 C   0  0  0  0  0  0  0  0  0  0  0  0
  -19.6128   68.6454  -39.3564 N   0  0  0  0  0  0  0  0  0  0  0  0
  -18.6156   67.0885  -36.3320 O   0  0  0  0  0  0  0  0  0  0  0  0
  -21.5444   62.5061  -36.0826 F   0  0  0  0  0  0  0  0  0  0  0  0
  -20.6782   66.5011  -33.6554 F   0  0  0  0  0  0  0  0  0  0  0  0
  -19.9183   67.9615  -38.1152 C   0  0  1  0  0  0  0  0  0  0  0  0
  -20.4480   66.6167  -38.4263 C   0  0  0  0  0  0  0  0  0  0  0  0
  -20.6995   65.8150  -37.2058 C   0  0  0  0  0  0  0  0  0  0  0  0
  -21.1203   64.4671  -34.8496 C   0  0  0  0  0  0  0  0  0  0  0  0
  -21.0228   64.4683  -37.2671 C   0  0  0  0  0  0  0  0  0  0  0  0
  -20.5893   66.4755  -35.9836 C   0  0  0  0  0  0  0  0  0  0  0  0
  -21.2278   63.8201  -36.0643 C   0  0  0  0  0  0  0  0  0  0  0  0
  -20.7995   65.8011  -34.8133 C   0  0  0  0  0  0  0  0  0  0  0  0
  -17.8286   69.0520  -37.1461 N   0  0  0  0  0  0  0  0  0  0  0  0
  -18.1063   70.4592  -37.3716 C   0  0  2  0  0  0  0  0  0  0  0  0
  -19.5061   70.6829  -37.8130 C   0  0  0  0  0  0  0  0  0  0  0  0
  -19.9628   69.8031  -38.6246 O   0  0  0  0  0  0  0  0  0  0  0  0
  -17.1955   70.8660  -38.5029 C   0  0  2  0  0  0  0  0  0  0  0  0
  -15.9290   70.2964  -38.3890 O   0  0  0  0  0  0  0  0  0  0  0  0
  -20.2892   71.7772  -37.3809 N   0  0  0  0  0  0  0  0  0  0  0  0
  -19.8169   73.1155  -37.1504 C   0  0  2  0  0  0  0  0  0  0  0  0
  -19.5112   73.4132  -35.7360 C   0  0  0  0  0  0  0  0  0  0  0  0
  -19.9140   72.5973  -34.8673 O   0  0  0  0  0  0  0  0  0  0  0  0
  -21.0002   73.9388  -37.6050 C   0  0  0  0  0  0  0  0  0  0  0  0
  -22.1236   73.0721  -37.1993 C   0  0  0  0  0  0  0  0  0  0  0  0
  -21.6844   71.8347  -37.0786 C   0  0  0  0  0  0  0  0  0  0  0  0
  -16.5265   74.7179  -36.2670 C   0  0  0  0  0  0  0  0  0  0  0  0
  -18.7928   74.5755  -35.3998 N   0  0  0  0  0  0  0  0  0  0  0  0
  -16.2150   74.0771  -35.2292 O   0  0  0  0  0  0  0  0  0  0  0  0
  -17.8972   75.2805  -36.3073 C   0  0  1  0  0  0  0  0  0  0  0  0
  -17.7810   76.7054  -35.7466 C   0  0  0  0  0  0  0  0  0  0  0  0
  -19.6955   76.4579  -34.2161 C   0  0  0  0  0  0  0  0  0  0  0  0
  -18.9188   75.1546  -34.0627 C   0  0  0  0  0  0  0  0  0  0  0  0
  -19.1458   77.2368  -35.3699 C   0  0  0  0  0  0  0  0  0  0  0  0
  -15.6440   74.9109  -37.3537 N   0  0  0  0  0  0  0  0  0  0  0  0
  -16.1146   74.8591  -38.7048 C   0  0  2  0  0  0  0  0  0  0  0  0
  -15.3427   73.9146  -39.5776 C   0  0  0  0  0  0  0  0  0  0  0  0
  -15.7872   73.9213  -40.7865 O   0  0  0  0  0  0  0  0  0  0  0  0
  -15.9282   76.2969  -39.2428 C   0  0  0  0  0  0  0  0  0  0  0  0
  -15.5271   71.5078  -37.7645 C   0  0  0  0  0  0  0  0  0  0  0  0
  -14.2762   73.0957  -39.2349 N   0  0  0  0  0  0  0  0  0  0  0  0
  -15.6032   71.2858  -36.3950 O   0  0  0  0  0  0  0  0  0  0  0  0
  -14.2603   71.9650  -38.3153 C   0  0  1  0  0  0  0  0  0  0  0  0
  -13.2039   72.4016  -37.3358 C   0  0  0  0  0  0  0  0  0  0  0  0
  -12.8562   73.0560  -39.6463 C   0  0  0  0  0  0  0  0  0  0  0  0
  -10.9479   72.2888  -38.3292 C   0  0  0  0  0  0  0  0  0  0  0  0
  -12.2100   73.1094  -38.2678 C   0  0  2  0  0  0  0  0  0  0  0  0
  -16.6010   72.0848  -38.3717 O   0  0  0  0  0  0  0  0  0  0  0  0
  1  2  2  0
  1  3  1  0
 12  1  1  0
  3  4  1  0
  4  5  2  0
  4 10  1  0
  5  6  1  0
  6  7  2  0
  7  8  1  0
  9  7  1  0
 10  9  2  0
 11 13  2  0
 11 16  1  0
 24 11  1  0
 16 12  1  0
 22 14  1  0
 23 15  1  0
 16 17  1  6
 17 18  1  0
 18 20  2  0
 18 21  1  0
 22 19  2  0
 23 19  1  0
 20 22  1  0
 21 23  2  0
 25 24  1  6
 26 25  1  0
 25 28  1  0
 26 27  2  0
 30 26  1  0
 28 29  1  1
 28 58  1  0
 29 50  1  0
 31 30  1  0
 30 36  1  0
 32 31  1  0
 31 34  1  1
 32 33  2  0
 38 32  1  0
 34 35  1  0
 35 36  2  0
 37 39  2  0
 40 37  1  0
 37 45  1  0
 38 40  1  0
 38 43  1  0
 40 41  1  1
 41 44  1  0
 43 42  1  0
 42 44  1  0
 45 46  1  0
 46 47  1  0
 46 49  1  6
 47 48  2  0
 47 51  1  0
 50 52  1  0
 50 53  1  0
 50 58  1  0
 51 53  1  0
 51 55  1  0
 53 54  1  1
 54 57  1  0
 55 57  1  0
 57 56  1  6
M  END
$$$$
