
     RDKit          3D

 58 64  0  0  0  0  0  0  0  0999 V2000
  -18.8486   67.1501  -36.5142 C   0  0  0  0  0  0  0  0  0  0  0  0
  -19.2514   67.8093  -35.5030 O   0  0  0  0  0  0  0  0  0  0  0  0
  -19.8342   66.7112  -37.4314 N   0  0  0  0  0  0  0  0  0  0  0  0
  -21.0212   66.0659  -36.9757 C   0  0  0  0  0  0  0  0  0  0  0  0
  -22.2820   66.5799  -37.1812 C   0  0  0  0  0  0  0  0  0  0  0  0
  -23.4098   65.9230  -36.7189 C   0  0  0  0  0  0  0  0  0  0  0  0
  -23.3281   64.7347  -36.0370 C   0  0  0  0  0  0  0  0  0  0  0  0
  -24.5123   63.9999  -35.5251 C   0  0  0  0  0  0  0  0  0  0  0  0
  -22.0749   64.2006  -35.8197 C   0  0  0  0  0  0  0  0  0  0  0  0
  -20.9528   64.8551  -36.2802 C   0  0  0  0  0  0  0  0  0  0  0  0
  -16.1739   68.9189  -36.3442 C   0  0  0  0  0  0  0  0  0  0  0  0
  -17.4633   66.8926  -36.6706 N   0  0  0  0  0  0  0  0  0  0  0  0
  -15.0173   68.9650  -35.8507 O   0  0  0  0  0  0  0  0  0  0  0  0
  -13.7538   67.0352  -41.9370 F   0  0  0  0  0  0  0  0  0  0  0  0
  -17.7335   64.4783  -41.4616 F   0  0  0  0  0  0  0  0  0  0  0  0
  -16.5350   67.8257  -37.2782 C   0  0  1  0  0  0  0  0  0  0  0  0
  -17.0650   68.2413  -38.5944 C   0  0  0  0  0  0  0  0  0  0  0  0
  -16.5441   67.4041  -39.7004 C   0  0  0  0  0  0  0  0  0  0  0  0
  -15.7138   65.7468  -41.7276 C   0  0  0  0  0  0  0  0  0  0  0  0
  -15.3249   67.6657  -40.3062 C   0  0  0  0  0  0  0  0  0  0  0  0
  -17.3345   66.3298  -40.1043 C   0  0  0  0  0  0  0  0  0  0  0  0
  -14.9369   66.8132  -41.3219 C   0  0  0  0  0  0  0  0  0  0  0  0
  -16.9178   65.5073  -41.1135 C   0  0  0  0  0  0  0  0  0  0  0  0
  -17.0603   69.9408  -35.9570 N   0  0  0  0  0  0  0  0  0  0  0  0
  -17.1516   71.2588  -36.5593 C   0  0  2  0  0  0  0  0  0  0  0  0
  -17.1724   72.3344  -35.5360 C   0  0  0  0  0  0  0  0  0  0  0  0
  -17.8507   72.0642  -34.4833 O   0  0  0  0  0  0  0  0  0  0  0  0
  -18.4800   71.2764  -37.2735 C   0  0  2  0  0  0  0  0  0  0  0  0
  -18.7470   70.0694  -37.9167 O   0  0  0  0  0  0  0  0  0  0  0  0
  -16.5010   73.5678  -35.6948 N   0  0  0  0  0  0  0  0  0  0  0  0
  -16.3691   74.3064  -36.9212 C   0  0  2  0  0  0  0  0  0  0  0  0
  -15.0895   74.0846  -37.6255 C   0  0  0  0  0  0  0  0  0  0  0  0
  -14.1698   73.5013  -36.9958 O   0  0  0  0  0  0  0  0  0  0  0  0
  -16.4438   75.7330  -36.4274 C   0  0  0  0  0  0  0  0  0  0  0  0
  -15.7664   75.6187  -35.1213 C   0  0  0  0  0  0  0  0  0  0  0  0
  -15.8154   74.3621  -34.7250 C   0  0  0  0  0  0  0  0  0  0  0  0
  -16.3979   73.4911  -40.5968 C   0  0  0  0  0  0  0  0  0  0  0  0
  -14.9315   74.5206  -38.9541 N   0  0  0  0  0  0  0  0  0  0  0  0
  -15.5119   72.5987  -40.6547 O   0  0  0  0  0  0  0  0  0  0  0  0
  -16.0310   74.7383  -39.8848 C   0  0  1  0  0  0  0  0  0  0  0  0
  -15.4792   75.6864  -40.9594 C   0  0  0  0  0  0  0  0  0  0  0  0
  -13.4797   76.2976  -39.6567 C   0  0  0  0  0  0  0  0  0  0  0  0
  -13.5948   74.7868  -39.4846 C   0  0  0  0  0  0  0  0  0  0  0  0
  -14.7154   76.8230  -40.3179 C   0  0  0  0  0  0  0  0  0  0  0  0
  -17.6825   73.3472  -41.1677 N   0  0  0  0  0  0  0  0  0  0  0  0
  -18.8468   73.8463  -40.5008 C   0  0  2  0  0  0  0  0  0  0  0  0
  -19.9326   72.8249  -40.3351 C   0  0  0  0  0  0  0  0  0  0  0  0
  -20.9660   73.3270  -39.7528 O   0  0  0  0  0  0  0  0  0  0  0  0
  -19.3677   74.9813  -41.4128 C   0  0  0  0  0  0  0  0  0  0  0  0
  -18.2217   70.6705  -39.0920 C   0  0  0  0  0  0  0  0  0  0  0  0
  -19.9321   71.4916  -40.7195 N   0  0  0  0  0  0  0  0  0  0  0  0
  -16.8945   70.2682  -39.1775 O   0  0  0  0  0  0  0  0  0  0  0  0
  -19.0922   70.4066  -40.2278 C   0  0  1  0  0  0  0  0  0  0  0  0
  -18.4369   69.9456  -41.5022 C   0  0  0  0  0  0  0  0  0  0  0  0
  -20.7286   70.7186  -41.6968 C   0  0  0  0  0  0  0  0  0  0  0  0
  -20.0298   68.7454  -42.9551 C   0  0  0  0  0  0  0  0  0  0  0  0
  -19.5876   70.1135  -42.5046 C   0  0  2  0  0  0  0  0  0  0  0  0
  -18.4817   71.8693  -38.5002 O   0  0  0  0  0  0  0  0  0  0  0  0
  1  2  2  0
  1  3  1  0
 12  1  1  0
  3  4  1  0
  4  5  2  0
  4 10  1  0
  5  6  1  0
  6  7  2  0
  7  8  1  0
  9  7  1  0
 10  9  2  0
 11 13  2  0
 11 16  1  0
 24 11  1  0
 16 12  1  0
 22 14  1  0
 23 15  1  0
 16 17  1  6
 17 18  1  0
 18 20  2  0
 18 21  1  0
 22 19  2  0
 23 19  1  0
 20 22  1  0
 21 23  2  0
 25 24  1  1
 26 25  1  0
 25 28  1  0
 26 27  2  0
 30 26  1  0
 28 29  1  6
 28 58  1  0
 29 50  1  0
 31 30  1  0
 30 36  1  0
 32 31  1  0
 31 34  1  1
 32 33  2  0
 38 32  1  0
 34 35  1  0
 35 36  2  0
 37 39  2  0
 40 37  1  0
 37 45  1  0
 38 40  1  0
 38 43  1  0
 40 41  1  6
 41 44  1  0
 43 42  1  0
 42 44  1  0
 45 46  1  0
 46 47  1  0
 46 49  1  6
 47 48  2  0
 47 51  1  0
 50 52  1  0
 50 53  1  0
 50 58  1  0
 51 53  1  0
 51 55  1  0
 53 54  1  6
 54 57  1  0
 55 57  1  0
 57 56  1  1
M  END
$$$$
