
     RDKit          3D

 58 64  0  0  0  0  0  0  0  0999 V2000
  -18.5063   66.1374  -37.8191 C   0  0  0  0  0  0  0  0  0  0  0  0
  -18.9611   65.1742  -37.1228 O   0  0  0  0  0  0  0  0  0  0  0  0
  -17.5355   65.8209  -38.8001 N   0  0  0  0  0  0  0  0  0  0  0  0
  -17.5924   64.5879  -39.5139 C   0  0  0  0  0  0  0  0  0  0  0  0
  -17.7122   63.3649  -38.8925 C   0  0  0  0  0  0  0  0  0  0  0  0
  -17.7606   62.1897  -39.6230 C   0  0  0  0  0  0  0  0  0  0  0  0
  -17.6917   62.1847  -40.9937 C   0  0  0  0  0  0  0  0  0  0  0  0
  -17.7397   60.9473  -41.8127 C   0  0  0  0  0  0  0  0  0  0  0  0
  -17.5717   63.3986  -41.6379 C   0  0  0  0  0  0  0  0  0  0  0  0
  -17.5237   64.5681  -40.9101 C   0  0  0  0  0  0  0  0  0  0  0  0
  -17.4562   68.9090  -36.3931 C   0  0  0  0  0  0  0  0  0  0  0  0
  -18.9831   67.4518  -37.5847 N   0  0  0  0  0  0  0  0  0  0  0  0
  -16.5331   68.5832  -35.6025 O   0  0  0  0  0  0  0  0  0  0  0  0
  -23.5945   68.3656  -34.2655 F   0  0  0  0  0  0  0  0  0  0  0  0
  -22.3092   63.8740  -35.1456 F   0  0  0  0  0  0  0  0  0  0  0  0
  -18.7496   68.1854  -36.3564 C   0  0  1  0  0  0  0  0  0  0  0  0
  -18.9558   67.2768  -35.2084 C   0  0  0  0  0  0  0  0  0  0  0  0
  -20.3836   66.9320  -35.0133 C   0  0  0  0  0  0  0  0  0  0  0  0
  -22.9920   66.1305  -34.6978 C   0  0  0  0  0  0  0  0  0  0  0  0
  -21.3354   67.8938  -34.7115 C   0  0  0  0  0  0  0  0  0  0  0  0
  -20.7333   65.5904  -35.1542 C   0  0  0  0  0  0  0  0  0  0  0  0
  -22.6375   67.4574  -34.5597 C   0  0  0  0  0  0  0  0  0  0  0  0
  -22.0325   65.1956  -34.9964 C   0  0  0  0  0  0  0  0  0  0  0  0
  -17.1781   69.9683  -37.2766 N   0  0  0  0  0  0  0  0  0  0  0  0
  -17.9746   70.3417  -38.4318 C   0  0  2  0  0  0  0  0  0  0  0  0
  -19.4244   70.1226  -38.1982 C   0  0  0  0  0  0  0  0  0  0  0  0
  -19.7103   69.0609  -37.5407 O   0  0  0  0  0  0  0  0  0  0  0  0
  -17.5384   69.4069  -39.5321 C   0  0  2  0  0  0  0  0  0  0  0  0
  -16.1608   69.1978  -39.5289 O   0  0  0  0  0  0  0  0  0  0  0  0
  -20.4256   71.0072  -38.6589 N   0  0  0  0  0  0  0  0  0  0  0  0
  -20.4148   71.7190  -39.9081 C   0  0  2  0  0  0  0  0  0  0  0  0
  -19.9288   73.1105  -39.8065 C   0  0  0  0  0  0  0  0  0  0  0  0
  -19.8172   73.6075  -38.6562 O   0  0  0  0  0  0  0  0  0  0  0  0
  -21.8809   71.7119  -40.2756 C   0  0  0  0  0  0  0  0  0  0  0  0
  -22.5094   71.8144  -38.9443 C   0  0  0  0  0  0  0  0  0  0  0  0
  -21.6487   71.4019  -38.0346 C   0  0  0  0  0  0  0  0  0  0  0  0
  -17.7881   72.9410  -42.3127 C   0  0  0  0  0  0  0  0  0  0  0  0
  -19.6090   73.8321  -40.9714 N   0  0  0  0  0  0  0  0  0  0  0  0
  -17.0506   73.6137  -41.5457 O   0  0  0  0  0  0  0  0  0  0  0  0
  -19.2417   73.2218  -42.2424 C   0  0  1  0  0  0  0  0  0  0  0  0
  -19.5125   74.2944  -43.3075 C   0  0  0  0  0  0  0  0  0  0  0  0
  -20.8298   75.7262  -41.7965 C   0  0  0  0  0  0  0  0  0  0  0  0
  -19.6316   75.2944  -40.9578 C   0  0  0  0  0  0  0  0  0  0  0  0
  -20.8577   74.9438  -43.0720 C   0  0  0  0  0  0  0  0  0  0  0  0
  -17.2928   71.9637  -43.2051 N   0  0  0  0  0  0  0  0  0  0  0  0
  -18.0011   70.7393  -43.4263 C   0  0  2  0  0  0  0  0  0  0  0  0
  -17.1598   69.5121  -43.2371 C   0  0  0  0  0  0  0  0  0  0  0  0
  -17.8335   68.4393  -43.4703 O   0  0  0  0  0  0  0  0  0  0  0  0
  -18.4549   70.8074  -44.9030 C   0  0  0  0  0  0  0  0  0  0  0  0
  -16.0825   70.2242  -40.5083 C   0  0  0  0  0  0  0  0  0  0  0  0
  -15.8262   69.4266  -42.8634 N   0  0  0  0  0  0  0  0  0  0  0  0
  -15.7714   71.3936  -39.8254 O   0  0  0  0  0  0  0  0  0  0  0  0
  -15.2118   69.8161  -41.6005 C   0  0  1  0  0  0  0  0  0  0  0  0
  -14.1875   70.8139  -42.0709 C   0  0  0  0  0  0  0  0  0  0  0  0
  -14.6110   68.9376  -43.5499 C   0  0  0  0  0  0  0  0  0  0  0  0
  -12.3144   69.7064  -43.2344 C   0  0  0  0  0  0  0  0  0  0  0  0
  -13.7373   70.1756  -43.3927 C   0  0  2  0  0  0  0  0  0  0  0  0
  -17.3963   69.9719  -40.7637 O   0  0  0  0  0  0  0  0  0  0  0  0
  1  2  2  0
  1  3  1  0
 12  1  1  0
  3  4  1  0
  4  5  2  0
  4 10  1  0
  5  6  1  0
  6  7  2  0
  7  8  1  0
  9  7  1  0
 10  9  2  0
 11 13  2  0
 11 16  1  0
 24 11  1  0
 16 12  1  0
 22 14  1  0
 23 15  1  0
 16 17  1  1
 17 18  1  0
 18 20  2  0
 18 21  1  0
 22 19  2  0
 23 19  1  0
 20 22  1  0
 21 23  2  0
 25 24  1  1
 26 25  1  0
 25 28  1  0
 26 27  2  0
 30 26  1  0
 28 29  1  1
 28 58  1  0
 29 50  1  0
 31 30  1  0
 30 36  1  0
 32 31  1  0
 31 34  1  1
 32 33  2  0
 38 32  1  0
 34 35  1  0
 35 36  2  0
 37 39  2  0
 40 37  1  0
 37 45  1  0
 38 40  1  0
 38 43  1  0
 40 41  1  6
 41 44  1  0
 43 42  1  0
 42 44  1  0
 45 46  1  0
 46 47  1  0
 46 49  1  6
 47 48  2  0
 47 51  1  0
 50 52  1  0
 50 53  1  0
 50 58  1  0
 51 53  1  0
 51 55  1  0
 53 54  1  6
 54 57  1  0
 55 57  1  0
 57 56  1  1
M  END
$$$$
