
     RDKit          3D

 58 64  0  0  0  0  0  0  0  0999 V2000
  -19.0262   65.5698  -39.3728 C   0  0  0  0  0  0  0  0  0  0  0  0
  -19.9078   64.8260  -39.9104 O   0  0  0  0  0  0  0  0  0  0  0  0
  -17.7742   64.9765  -39.0800 N   0  0  0  0  0  0  0  0  0  0  0  0
  -17.3740   63.7637  -39.7139 C   0  0  0  0  0  0  0  0  0  0  0  0
  -18.2605   62.9124  -40.3349 C   0  0  0  0  0  0  0  0  0  0  0  0
  -17.8308   61.7415  -40.9362 C   0  0  0  0  0  0  0  0  0  0  0  0
  -16.5088   61.3730  -40.9431 C   0  0  0  0  0  0  0  0  0  0  0  0
  -16.0082   60.1267  -41.5760 C   0  0  0  0  0  0  0  0  0  0  0  0
  -15.6024   62.2107  -40.3270 C   0  0  0  0  0  0  0  0  0  0  0  0
  -16.0309   63.3761  -39.7287 C   0  0  0  0  0  0  0  0  0  0  0  0
  -17.1927   68.0407  -38.8677 C   0  0  0  0  0  0  0  0  0  0  0  0
  -19.3329   66.9266  -39.0993 N   0  0  0  0  0  0  0  0  0  0  0  0
  -16.6152   67.1331  -39.5204 O   0  0  0  0  0  0  0  0  0  0  0  0
  -22.8772   65.2784  -37.7139 F   0  0  0  0  0  0  0  0  0  0  0  0
  -21.5915   66.5108  -33.3061 F   0  0  0  0  0  0  0  0  0  0  0  0
  -18.5190   67.7818  -38.2579 C   0  0  1  0  0  0  0  0  0  0  0  0
  -18.5094   67.2345  -36.8845 C   0  0  0  0  0  0  0  0  0  0  0  0
  -19.8443   66.7487  -36.4632 C   0  0  0  0  0  0  0  0  0  0  0  0
  -22.2719   65.8769  -35.5183 C   0  0  0  0  0  0  0  0  0  0  0  0
  -20.7535   66.2251  -37.3695 C   0  0  0  0  0  0  0  0  0  0  0  0
  -20.1471   66.8344  -35.1056 C   0  0  0  0  0  0  0  0  0  0  0  0
  -21.9645   65.7957  -36.8615 C   0  0  0  0  0  0  0  0  0  0  0  0
  -21.3563   66.3995  -34.6393 C   0  0  0  0  0  0  0  0  0  0  0  0
  -16.5114   69.2676  -38.7651 N   0  0  0  0  0  0  0  0  0  0  0  0
  -16.8747   70.3701  -37.8930 C   0  0  2  0  0  0  0  0  0  0  0  0
  -17.6168   69.9054  -36.6938 C   0  0  0  0  0  0  0  0  0  0  0  0
  -18.4528   68.9591  -36.9101 O   0  0  0  0  0  0  0  0  0  0  0  0
  -17.8084   71.2289  -38.7087 C   0  0  2  0  0  0  0  0  0  0  0  0
  -17.3934   71.3446  -40.0339 O   0  0  0  0  0  0  0  0  0  0  0  0
  -17.4277   70.4539  -35.4051 N   0  0  0  0  0  0  0  0  0  0  0  0
  -17.1825   71.8381  -35.1035 C   0  0  2  0  0  0  0  0  0  0  0  0
  -15.7558   72.1716  -34.9135 C   0  0  0  0  0  0  0  0  0  0  0  0
  -14.9456   71.2181  -34.7833 O   0  0  0  0  0  0  0  0  0  0  0  0
  -17.9271   72.0022  -33.7984 C   0  0  0  0  0  0  0  0  0  0  0  0
  -17.7188   70.6774  -33.1825 C   0  0  0  0  0  0  0  0  0  0  0  0
  -17.4334   69.8072  -34.1311 C   0  0  0  0  0  0  0  0  0  0  0  0
  -15.7161   74.7929  -36.9185 C   0  0  0  0  0  0  0  0  0  0  0  0
  -15.3446   73.5170  -34.8831 N   0  0  0  0  0  0  0  0  0  0  0  0
  -14.5993   74.3315  -37.2714 O   0  0  0  0  0  0  0  0  0  0  0  0
  -16.0810   74.6164  -35.4928 C   0  0  1  0  0  0  0  0  0  0  0  0
  -15.5949   75.8848  -34.7766 C   0  0  0  0  0  0  0  0  0  0  0  0
  -14.4953   74.6539  -32.9479 C   0  0  0  0  0  0  0  0  0  0  0  0
  -14.1021   73.8891  -34.2072 C   0  0  0  0  0  0  0  0  0  0  0  0
  -15.5500   75.6619  -33.2816 C   0  0  0  0  0  0  0  0  0  0  0  0
  -16.5995   75.4492  -37.8049 N   0  0  0  0  0  0  0  0  0  0  0  0
  -18.0143   75.2462  -37.7220 C   0  0  2  0  0  0  0  0  0  0  0  0
  -18.6444   74.8461  -39.0229 C   0  0  0  0  0  0  0  0  0  0  0  0
  -19.9185   74.6992  -38.9031 O   0  0  0  0  0  0  0  0  0  0  0  0
  -18.5853   76.6184  -37.2950 C   0  0  0  0  0  0  0  0  0  0  0  0
  -16.7714   72.5630  -39.6498 C   0  0  0  0  0  0  0  0  0  0  0  0
  -18.0341   74.6348  -40.2511 N   0  0  0  0  0  0  0  0  0  0  0  0
  -15.4387   72.2598  -39.3994 O   0  0  0  0  0  0  0  0  0  0  0  0
  -17.0662   73.6087  -40.6178 C   0  0  1  0  0  0  0  0  0  0  0  0
  -15.9121   74.4526  -41.0890 C   0  0  0  0  0  0  0  0  0  0  0  0
  -18.1305   75.3149  -41.5608 C   0  0  0  0  0  0  0  0  0  0  0  0
  -16.3937   75.5077  -43.2670 C   0  0  0  0  0  0  0  0  0  0  0  0
  -16.6517   75.6036  -41.7857 C   0  0  2  0  0  0  0  0  0  0  0  0
  -17.6269   72.5740  -38.5901 O   0  0  0  0  0  0  0  0  0  0  0  0
  1  2  2  0
  1  3  1  0
 12  1  1  0
  3  4  1  0
  4  5  2  0
  4 10  1  0
  5  6  1  0
  6  7  2  0
  7  8  1  0
  9  7  1  0
 10  9  2  0
 11 13  2  0
 11 16  1  0
 24 11  1  0
 16 12  1  0
 22 14  1  0
 23 15  1  0
 16 17  1  1
 17 18  1  0
 18 20  2  0
 18 21  1  0
 22 19  2  0
 23 19  1  0
 20 22  1  0
 21 23  2  0
 25 24  1  6
 26 25  1  0
 25 28  1  0
 26 27  2  0
 30 26  1  0
 28 29  1  6
 28 58  1  0
 29 50  1  0
 31 30  1  0
 30 36  1  0
 32 31  1  0
 31 34  1  1
 32 33  2  0
 38 32  1  0
 34 35  1  0
 35 36  2  0
 37 39  2  0
 40 37  1  0
 37 45  1  0
 38 40  1  0
 38 43  1  0
 40 41  1  1
 41 44  1  0
 43 42  1  0
 42 44  1  0
 45 46  1  0
 46 47  1  0
 46 49  1  6
 47 48  2  0
 47 51  1  0
 50 52  1  0
 50 53  1  0
 50 58  1  0
 51 53  1  0
 51 55  1  0
 53 54  1  1
 54 57  1  0
 55 57  1  0
 57 56  1  6
M  END
$$$$
