
     RDKit          3D

 58 64  0  0  0  0  0  0  0  0999 V2000
  -17.6637   65.5872  -40.4043 C   0  0  0  0  0  0  0  0  0  0  0  0
  -18.6874   64.8590  -40.6071 O   0  0  0  0  0  0  0  0  0  0  0  0
  -17.1538   65.6287  -39.0839 N   0  0  0  0  0  0  0  0  0  0  0  0
  -17.7890   64.9053  -38.0320 C   0  0  0  0  0  0  0  0  0  0  0  0
  -18.8833   64.0938  -38.2324 C   0  0  0  0  0  0  0  0  0  0  0  0
  -19.4731   63.4109  -37.1822 C   0  0  0  0  0  0  0  0  0  0  0  0
  -19.0000   63.5079  -35.8976 C   0  0  0  0  0  0  0  0  0  0  0  0
  -19.6037   62.7928  -34.7450 C   0  0  0  0  0  0  0  0  0  0  0  0
  -17.9040   64.3152  -35.6731 C   0  0  0  0  0  0  0  0  0  0  0  0
  -17.3175   64.9947  -36.7190 C   0  0  0  0  0  0  0  0  0  0  0  0
  -15.3733   67.4405  -40.2125 C   0  0  0  0  0  0  0  0  0  0  0  0
  -17.0953   66.3059  -41.4861 N   0  0  0  0  0  0  0  0  0  0  0  0
  -14.2300   66.9557  -40.4157 O   0  0  0  0  0  0  0  0  0  0  0  0
  -15.6307   71.9133  -44.4908 F   0  0  0  0  0  0  0  0  0  0  0  0
  -19.5759   69.4225  -45.4033 F   0  0  0  0  0  0  0  0  0  0  0  0
  -16.3440   67.5357  -41.3289 C   0  0  1  0  0  0  0  0  0  0  0  0
  -17.2888   68.6717  -41.2762 C   0  0  0  0  0  0  0  0  0  0  0  0
  -17.3462   69.4155  -42.5564 C   0  0  0  0  0  0  0  0  0  0  0  0
  -17.5876   70.6960  -44.9746 C   0  0  0  0  0  0  0  0  0  0  0  0
  -16.3914   70.3606  -42.8985 C   0  0  0  0  0  0  0  0  0  0  0  0
  -18.4050   69.1173  -43.4121 C   0  0  0  0  0  0  0  0  0  0  0  0
  -16.5420   70.9859  -44.1213 C   0  0  0  0  0  0  0  0  0  0  0  0
  -18.5215   69.7567  -44.6147 C   0  0  0  0  0  0  0  0  0  0  0  0
  -15.6476   67.8665  -38.8997 N   0  0  0  0  0  0  0  0  0  0  0  0
  -16.2408   69.1380  -38.5263 C   0  0  2  0  0  0  0  0  0  0  0  0
  -15.2104   70.1450  -38.1677 C   0  0  0  0  0  0  0  0  0  0  0  0
  -14.2143   69.6854  -37.5060 O   0  0  0  0  0  0  0  0  0  0  0  0
  -17.0521   68.8478  -37.2883 C   0  0  2  0  0  0  0  0  0  0  0  0
  -17.7264   67.6315  -37.3749 O   0  0  0  0  0  0  0  0  0  0  0  0
  -15.3052   71.5101  -38.5212 N   0  0  0  0  0  0  0  0  0  0  0  0
  -16.5103   72.2936  -38.5508 C   0  0  2  0  0  0  0  0  0  0  0  0
  -17.1193   72.4151  -39.8913 C   0  0  0  0  0  0  0  0  0  0  0  0
  -16.4289   72.0589  -40.8808 O   0  0  0  0  0  0  0  0  0  0  0  0
  -16.0081   73.6427  -38.0899 C   0  0  0  0  0  0  0  0  0  0  0  0
  -14.6564   73.6614  -38.6817 C   0  0  0  0  0  0  0  0  0  0  0  0
  -14.2784   72.4206  -38.9187 C   0  0  0  0  0  0  0  0  0  0  0  0
  -20.1864   71.6033  -38.9818 C   0  0  0  0  0  0  0  0  0  0  0  0
  -18.4276   72.9149  -40.0284 N   0  0  0  0  0  0  0  0  0  0  0  0
  -20.1875   70.9593  -40.0635 O   0  0  0  0  0  0  0  0  0  0  0  0
  -19.4355   72.8813  -38.9769 C   0  0  1  0  0  0  0  0  0  0  0  0
  -20.4556   73.9670  -39.3495 C   0  0  0  0  0  0  0  0  0  0  0  0
  -19.0005   75.0149  -41.0388 C   0  0  0  0  0  0  0  0  0  0  0  0
  -18.8538   73.5181  -41.2908 C   0  0  0  0  0  0  0  0  0  0  0  0
  -19.7466   75.2379  -39.7606 C   0  0  0  0  0  0  0  0  0  0  0  0
  -20.8532   71.1633  -37.8163 N   0  0  0  0  0  0  0  0  0  0  0  0
  -20.2698   71.3401  -36.5209 C   0  0  2  0  0  0  0  0  0  0  0  0
  -20.1969   70.0779  -35.7139 C   0  0  0  0  0  0  0  0  0  0  0  0
  -19.6881   70.2923  -34.5501 O   0  0  0  0  0  0  0  0  0  0  0  0
  -21.2060   72.3373  -35.7994 C   0  0  0  0  0  0  0  0  0  0  0  0
  -18.8527   68.3775  -37.8151 C   0  0  0  0  0  0  0  0  0  0  0  0
  -20.5945   68.7977  -36.0723 N   0  0  0  0  0  0  0  0  0  0  0  0
  -18.8430   68.3178  -39.2033 O   0  0  0  0  0  0  0  0  0  0  0  0
  -20.0531   67.9398  -37.1188 C   0  0  1  0  0  0  0  0  0  0  0  0
  -21.2798   67.6920  -37.9554 C   0  0  0  0  0  0  0  0  0  0  0  0
  -21.6369   67.8806  -35.5628 C   0  0  0  0  0  0  0  0  0  0  0  0
  -22.8606   66.1784  -36.8157 C   0  0  0  0  0  0  0  0  0  0  0  0
  -22.3636   67.5996  -36.8718 C   0  0  2  0  0  0  0  0  0  0  0  0
  -18.2690   69.4572  -37.2249 O   0  0  0  0  0  0  0  0  0  0  0  0
  1  2  2  0
  1  3  1  0
 12  1  1  0
  3  4  1  0
  4  5  2  0
  4 10  1  0
  5  6  1  0
  6  7  2  0
  7  8  1  0
  9  7  1  0
 10  9  2  0
 11 13  2  0
 11 16  1  0
 24 11  1  0
 16 12  1  0
 22 14  1  0
 23 15  1  0
 16 17  1  1
 17 18  1  0
 18 20  2  0
 18 21  1  0
 22 19  2  0
 23 19  1  0
 20 22  1  0
 21 23  2  0
 25 24  1  1
 26 25  1  0
 25 28  1  0
 26 27  2  0
 30 26  1  0
 28 29  1  6
 28 58  1  0
 29 50  1  0
 31 30  1  0
 30 36  1  0
 32 31  1  0
 31 34  1  6
 32 33  2  0
 38 32  1  0
 34 35  1  0
 35 36  2  0
 37 39  2  0
 40 37  1  0
 37 45  1  0
 38 40  1  0
 38 43  1  0
 40 41  1  6
 41 44  1  0
 43 42  1  0
 42 44  1  0
 45 46  1  0
 46 47  1  0
 46 49  1  1
 47 48  2  0
 47 51  1  0
 50 52  1  0
 50 53  1  0
 50 58  1  0
 51 53  1  0
 51 55  1  0
 53 54  1  6
 54 57  1  0
 55 57  1  0
 57 56  1  1
M  END
$$$$
