
     RDKit          3D

 58 64  0  0  0  0  0  0  0  0999 V2000
  -29.7330   43.8552  -31.0732 C   0  0  0  0  0  0  0  0  0  0  0  0
  -30.0655   43.1907  -30.0400 O   0  0  0  0  0  0  0  0  0  0  0  0
  -30.3685   43.5129  -32.2914 N   0  0  0  0  0  0  0  0  0  0  0  0
  -31.7155   43.0452  -32.3070 C   0  0  0  0  0  0  0  0  0  0  0  0
  -32.3709   42.6047  -31.1790 C   0  0  0  0  0  0  0  0  0  0  0  0
  -33.6791   42.1549  -31.2378 C   0  0  0  0  0  0  0  0  0  0  0  0
  -34.3833   42.1255  -32.4155 C   0  0  0  0  0  0  0  0  0  0  0  0
  -35.7860   41.6505  -32.5206 C   0  0  0  0  0  0  0  0  0  0  0  0
  -33.7468   42.5625  -33.5587 C   0  0  0  0  0  0  0  0  0  0  0  0
  -32.4446   43.0101  -33.4993 C   0  0  0  0  0  0  0  0  0  0  0  0
  -26.9304   43.8121  -29.7893 C   0  0  0  0  0  0  0  0  0  0  0  0
  -28.7640   44.8835  -30.9575 N   0  0  0  0  0  0  0  0  0  0  0  0
  -25.7334   43.9173  -30.1627 O   0  0  0  0  0  0  0  0  0  0  0  0
  -30.4227   49.2042  -26.3859 F   0  0  0  0  0  0  0  0  0  0  0  0
  -29.0175   49.4691  -30.9198 F   0  0  0  0  0  0  0  0  0  0  0  0
  -27.8300   44.9887  -29.8538 C   0  0  1  0  0  0  0  0  0  0  0  0
  -28.5798   45.3045  -28.6193 C   0  0  0  0  0  0  0  0  0  0  0  0
  -29.0071   46.7224  -28.5679 C   0  0  0  0  0  0  0  0  0  0  0  0
  -29.7357   49.3702  -28.6322 C   0  0  0  0  0  0  0  0  0  0  0  0
  -29.5421   47.2855  -27.4196 C   0  0  0  0  0  0  0  0  0  0  0  0
  -28.8404   47.4738  -29.7296 C   0  0  0  0  0  0  0  0  0  0  0  0
  -29.8979   48.6189  -27.4856 C   0  0  0  0  0  0  0  0  0  0  0  0
  -29.2042   48.7912  -29.7575 C   0  0  0  0  0  0  0  0  0  0  0  0
  -27.3321   42.5456  -29.3261 N   0  0  0  0  0  0  0  0  0  0  0  0
  -26.9255   41.2689  -29.8854 C   0  0  2  0  0  0  0  0  0  0  0  0
  -28.0431   40.5936  -30.5922 C   0  0  0  0  0  0  0  0  0  0  0  0
  -29.1869   40.7086  -30.0266 O   0  0  0  0  0  0  0  0  0  0  0  0
  -26.5501   40.4181  -28.6979 C   0  0  2  0  0  0  0  0  0  0  0  0
  -25.8517   41.1412  -27.7330 O   0  0  0  0  0  0  0  0  0  0  0  0
  -27.8757   39.8747  -31.7974 N   0  0  0  0  0  0  0  0  0  0  0  0
  -26.7471   39.0533  -32.1417 C   0  0  2  0  0  0  0  0  0  0  0  0
  -25.7412   39.7313  -32.9851 C   0  0  0  0  0  0  0  0  0  0  0  0
  -26.0652   40.8253  -33.5150 O   0  0  0  0  0  0  0  0  0  0  0  0
  -27.4071   37.9403  -32.9227 C   0  0  0  0  0  0  0  0  0  0  0  0
  -28.4952   38.6726  -33.5991 C   0  0  0  0  0  0  0  0  0  0  0  0
  -28.7431   39.7808  -32.9289 C   0  0  0  0  0  0  0  0  0  0  0  0
  -23.1118   38.8930  -31.1750 C   0  0  0  0  0  0  0  0  0  0  0  0
  -24.4727   39.1518  -33.1725 N   0  0  0  0  0  0  0  0  0  0  0  0
  -22.7441   40.0727  -31.4156 O   0  0  0  0  0  0  0  0  0  0  0  0
  -23.8578   38.2027  -32.2538 C   0  0  1  0  0  0  0  0  0  0  0  0
  -22.8016   37.4549  -33.0804 C   0  0  0  0  0  0  0  0  0  0  0  0
  -23.6605   38.2566  -35.2456 C   0  0  0  0  0  0  0  0  0  0  0  0
  -23.6778   39.4921  -34.3521 C   0  0  0  0  0  0  0  0  0  0  0  0
  -23.3735   37.0428  -34.4183 C   0  0  0  0  0  0  0  0  0  0  0  0
  -22.8456   38.2308  -29.9554 N   0  0  0  0  0  0  0  0  0  0  0  0
  -23.8206   37.3726  -29.3533 C   0  0  2  0  0  0  0  0  0  0  0  0
  -24.1165   37.7059  -27.9212 C   0  0  0  0  0  0  0  0  0  0  0  0
  -24.9795   36.8930  -27.4175 O   0  0  0  0  0  0  0  0  0  0  0  0
  -23.1947   35.9599  -29.4153 C   0  0  0  0  0  0  0  0  0  0  0  0
  -24.6640   40.6457  -28.3352 C   0  0  0  0  0  0  0  0  0  0  0  0
  -23.5903   38.7281  -27.1443 N   0  0  0  0  0  0  0  0  0  0  0  0
  -24.2232   41.6366  -29.2039 O   0  0  0  0  0  0  0  0  0  0  0  0
  -23.7416   40.1675  -27.3165 C   0  0  1  0  0  0  0  0  0  0  0  0
  -22.3042   40.5988  -27.4353 C   0  0  0  0  0  0  0  0  0  0  0  0
  -22.7442   38.7463  -25.9314 C   0  0  0  0  0  0  0  0  0  0  0  0
  -21.1364   40.4600  -25.2661 C   0  0  0  0  0  0  0  0  0  0  0  0
  -21.6264   39.6490  -26.4375 C   0  0  2  0  0  0  0  0  0  0  0  0
  -25.4357   39.6497  -28.8522 O   0  0  0  0  0  0  0  0  0  0  0  0
  1  2  2  0
  1  3  1  0
 12  1  1  0
  3  4  1  0
  4  5  2  0
  4 10  1  0
  5  6  1  0
  6  7  2  0
  7  8  1  0
  9  7  1  0
 10  9  2  0
 11 13  2  0
 11 16  1  0
 24 11  1  0
 16 12  1  0
 22 14  1  0
 23 15  1  0
 16 17  1  1
 17 18  1  0
 18 20  2  0
 18 21  1  0
 22 19  2  0
 23 19  1  0
 20 22  1  0
 21 23  2  0
 25 24  1  1
 26 25  1  0
 25 28  1  0
 26 27  2  0
 30 26  1  0
 28 29  1  1
 28 58  1  0
 29 50  1  0
 31 30  1  0
 30 36  1  0
 32 31  1  0
 31 34  1  6
 32 33  2  0
 38 32  1  0
 34 35  1  0
 35 36  2  0
 37 39  2  0
 40 37  1  0
 37 45  1  0
 38 40  1  0
 38 43  1  0
 40 41  1  6
 41 44  1  0
 43 42  1  0
 42 44  1  0
 45 46  1  0
 46 47  1  0
 46 49  1  1
 47 48  2  0
 47 51  1  0
 50 52  1  0
 50 53  1  0
 50 58  1  0
 51 53  1  0
 51 55  1  0
 53 54  1  6
 54 57  1  0
 55 57  1  0
 57 56  1  1
M  END
$$$$
