
     RDKit          3D

 58 64  0  0  0  0  0  0  0  0999 V2000
  -31.5952   43.2772  -32.3316 C   0  0  0  0  0  0  0  0  0  0  0  0
  -30.8340   43.4206  -33.3413 O   0  0  0  0  0  0  0  0  0  0  0  0
  -32.9762   43.0956  -32.5866 N   0  0  0  0  0  0  0  0  0  0  0  0
  -33.4585   42.9328  -33.9185 C   0  0  0  0  0  0  0  0  0  0  0  0
  -34.7931   42.7789  -34.2207 C   0  0  0  0  0  0  0  0  0  0  0  0
  -35.2198   42.6199  -35.5283 C   0  0  0  0  0  0  0  0  0  0  0  0
  -34.3400   42.6076  -36.5816 C   0  0  0  0  0  0  0  0  0  0  0  0
  -34.7570   42.4394  -37.9966 C   0  0  0  0  0  0  0  0  0  0  0  0
  -32.9977   42.7604  -36.3026 C   0  0  0  0  0  0  0  0  0  0  0  0
  -32.5737   42.9187  -35.0007 C   0  0  0  0  0  0  0  0  0  0  0  0
  -28.8970   42.1710  -30.9232 C   0  0  0  0  0  0  0  0  0  0  0  0
  -31.0364   43.3052  -31.0291 N   0  0  0  0  0  0  0  0  0  0  0  0
  -28.3945   41.8679  -32.0363 O   0  0  0  0  0  0  0  0  0  0  0  0
  -27.9472   48.7597  -29.7332 F   0  0  0  0  0  0  0  0  0  0  0  0
  -32.5862   47.7258  -29.8453 F   0  0  0  0  0  0  0  0  0  0  0  0
  -29.6191   43.4559  -30.7644 C   0  0  1  0  0  0  0  0  0  0  0  0
  -29.4438   44.1464  -29.4689 C   0  0  0  0  0  0  0  0  0  0  0  0
  -29.6681   45.6072  -29.5752 C   0  0  0  0  0  0  0  0  0  0  0  0
  -30.2525   48.2826  -29.7921 C   0  0  0  0  0  0  0  0  0  0  0  0
  -28.6166   46.5106  -29.5975 C   0  0  0  0  0  0  0  0  0  0  0  0
  -30.9908   46.0377  -29.6597 C   0  0  0  0  0  0  0  0  0  0  0  0
  -28.9450   47.8481  -29.7076 C   0  0  0  0  0  0  0  0  0  0  0  0
  -31.2774   47.3700  -29.7676 C   0  0  0  0  0  0  0  0  0  0  0  0
  -28.7284   41.2357  -29.8854 N   0  0  0  0  0  0  0  0  0  0  0  0
  -27.9128   40.0361  -29.9479 C   0  0  2  0  0  0  0  0  0  0  0  0
  -28.3132   39.0411  -28.9212 C   0  0  0  0  0  0  0  0  0  0  0  0
  -28.6335   39.5379  -27.7846 O   0  0  0  0  0  0  0  0  0  0  0  0
  -26.5119   40.4927  -29.6257 C   0  0  2  0  0  0  0  0  0  0  0  0
  -26.2067   41.7141  -30.2229 O   0  0  0  0  0  0  0  0  0  0  0  0
  -28.3442   37.6488  -29.1623 N   0  0  0  0  0  0  0  0  0  0  0  0
  -27.4089   36.9093  -29.9656 C   0  0  2  0  0  0  0  0  0  0  0  0
  -27.8660   36.6579  -31.3479 C   0  0  0  0  0  0  0  0  0  0  0  0
  -29.0768   36.8755  -31.6111 O   0  0  0  0  0  0  0  0  0  0  0  0
  -27.3210   35.6046  -29.2077 C   0  0  0  0  0  0  0  0  0  0  0  0
  -28.7027   35.4720  -28.7066 C   0  0  0  0  0  0  0  0  0  0  0  0
  -29.2661   36.6640  -28.6914 C   0  0  0  0  0  0  0  0  0  0  0  0
  -25.1050   37.6734  -32.8438 C   0  0  0  0  0  0  0  0  0  0  0  0
  -26.9582   36.1915  -32.3166 N   0  0  0  0  0  0  0  0  0  0  0  0
  -25.9061   38.1903  -33.6657 O   0  0  0  0  0  0  0  0  0  0  0  0
  -25.5149   36.3790  -32.2494 C   0  0  1  0  0  0  0  0  0  0  0  0
  -24.9162   35.2940  -33.1564 C   0  0  0  0  0  0  0  0  0  0  0  0
  -27.0133   34.0116  -33.3188 C   0  0  0  0  0  0  0  0  0  0  0  0
  -27.4453   35.4642  -33.4883 C   0  0  0  0  0  0  0  0  0  0  0  0
  -25.5795   33.9609  -32.8924 C   0  0  0  0  0  0  0  0  0  0  0  0
  -23.8735   38.2656  -32.4835 N   0  0  0  0  0  0  0  0  0  0  0  0
  -23.3977   38.2166  -31.1341 C   0  0  2  0  0  0  0  0  0  0  0  0
  -23.0319   39.5588  -30.5735 C   0  0  0  0  0  0  0  0  0  0  0  0
  -22.5875   39.4602  -29.3685 O   0  0  0  0  0  0  0  0  0  0  0  0
  -22.1248   37.3407  -31.1962 C   0  0  0  0  0  0  0  0  0  0  0  0
  -25.6118   40.9625  -31.2718 C   0  0  0  0  0  0  0  0  0  0  0  0
  -23.1188   40.8032  -31.1814 N   0  0  0  0  0  0  0  0  0  0  0  0
  -26.5690   40.8640  -32.2741 O   0  0  0  0  0  0  0  0  0  0  0  0
  -24.3119   41.5176  -31.6178 C   0  0  1  0  0  0  0  0  0  0  0  0
  -24.0160   41.7114  -33.0810 C   0  0  0  0  0  0  0  0  0  0  0  0
  -22.1102   41.8077  -31.5824 C   0  0  0  0  0  0  0  0  0  0  0  0
  -22.2494   43.3984  -33.4303 C   0  0  0  0  0  0  0  0  0  0  0  0
  -22.5020   41.9636  -33.0462 C   0  0  2  0  0  0  0  0  0  0  0  0
  -25.5228   39.9370  -30.3800 O   0  0  0  0  0  0  0  0  0  0  0  0
  1  2  2  0
  1  3  1  0
 12  1  1  0
  3  4  1  0
  4  5  2  0
  4 10  1  0
  5  6  1  0
  6  7  2  0
  7  8  1  0
  9  7  1  0
 10  9  2  0
 11 13  2  0
 11 16  1  0
 24 11  1  0
 16 12  1  0
 22 14  1  0
 23 15  1  0
 16 17  1  1
 17 18  1  0
 18 20  2  0
 18 21  1  0
 22 19  2  0
 23 19  1  0
 20 22  1  0
 21 23  2  0
 25 24  1  1
 26 25  1  0
 25 28  1  0
 26 27  2  0
 30 26  1  0
 28 29  1  6
 28 58  1  0
 29 50  1  0
 31 30  1  0
 30 36  1  0
 32 31  1  0
 31 34  1  1
 32 33  2  0
 38 32  1  0
 34 35  1  0
 35 36  2  0
 37 39  2  0
 40 37  1  0
 37 45  1  0
 38 40  1  0
 38 43  1  0
 40 41  1  6
 41 44  1  0
 43 42  1  0
 42 44  1  0
 45 46  1  0
 46 47  1  0
 46 49  1  6
 47 48  2  0
 47 51  1  0
 50 52  1  0
 50 53  1  0
 50 58  1  0
 51 53  1  0
 51 55  1  0
 53 54  1  6
 54 57  1  0
 55 57  1  0
 57 56  1  1
M  END
$$$$
