
     RDKit          3D

 58 64  0  0  0  0  0  0  0  0999 V2000
  -37.5078   55.5175  -55.5009 C   0  0  0  0  0  0  0  0  0  0  0  0
  -38.4353   56.1536  -56.0964 O   0  0  0  0  0  0  0  0  0  0  0  0
  -36.1807   55.7614  -55.9304 N   0  0  0  0  0  0  0  0  0  0  0  0
  -35.9116   56.6805  -56.9868 C   0  0  0  0  0  0  0  0  0  0  0  0
  -36.8222   56.9746  -57.9770 C   0  0  0  0  0  0  0  0  0  0  0  0
  -36.5198   57.8712  -58.9878 C   0  0  0  0  0  0  0  0  0  0  0  0
  -35.3053   58.5072  -59.0534 C   0  0  0  0  0  0  0  0  0  0  0  0
  -34.9424   59.4739  -60.1201 C   0  0  0  0  0  0  0  0  0  0  0  0
  -34.3772   58.2281  -58.0717 C   0  0  0  0  0  0  0  0  0  0  0  0
  -34.6791   57.3355  -57.0657 C   0  0  0  0  0  0  0  0  0  0  0  0
  -37.2773   52.7506  -55.9011 C   0  0  0  0  0  0  0  0  0  0  0  0
  -37.8403   54.6155  -54.4589 N   0  0  0  0  0  0  0  0  0  0  0  0
  -36.6171   53.5044  -56.6622 O   0  0  0  0  0  0  0  0  0  0  0  0
  -40.3370   54.5690  -49.7801 F   0  0  0  0  0  0  0  0  0  0  0  0
  -36.8314   51.3629  -49.5974 F   0  0  0  0  0  0  0  0  0  0  0  0
  -37.5926   53.1885  -54.5203 C   0  0  1  0  0  0  0  0  0  0  0  0
  -38.7031   52.4796  -53.8492 C   0  0  0  0  0  0  0  0  0  0  0  0
  -38.7078   52.7009  -52.3841 C   0  0  0  0  0  0  0  0  0  0  0  0
  -38.5996   52.9843  -49.6539 C   0  0  0  0  0  0  0  0  0  0  0  0
  -39.5814   53.5919  -51.7801 C   0  0  0  0  0  0  0  0  0  0  0  0
  -37.7945   51.9643  -51.6321 C   0  0  0  0  0  0  0  0  0  0  0  0
  -39.5011   53.7104  -50.4059 C   0  0  0  0  0  0  0  0  0  0  0  0
  -37.7439   52.1082  -50.2736 C   0  0  0  0  0  0  0  0  0  0  0  0
  -37.6766   51.5132  -56.4390 N   0  0  0  0  0  0  0  0  0  0  0  0
  -38.2074   50.3914  -55.6854 C   0  0  2  0  0  0  0  0  0  0  0  0
  -38.9687   49.4548  -56.5501 C   0  0  0  0  0  0  0  0  0  0  0  0
  -39.6852   50.0151  -57.4523 O   0  0  0  0  0  0  0  0  0  0  0  0
  -39.1747   50.9987  -54.7002 C   0  0  2  0  0  0  0  0  0  0  0  0
  -38.6933   52.1877  -54.1558 O   0  0  0  0  0  0  0  0  0  0  0  0
  -38.9184   48.0501  -56.4030 N   0  0  0  0  0  0  0  0  0  0  0  0
  -38.8400   47.3330  -55.1594 C   0  0  2  0  0  0  0  0  0  0  0  0
  -37.4710   46.9249  -54.7825 C   0  0  0  0  0  0  0  0  0  0  0  0
  -36.5741   47.0088  -55.6607 O   0  0  0  0  0  0  0  0  0  0  0  0
  -39.6768   46.1105  -55.4592 C   0  0  0  0  0  0  0  0  0  0  0  0
  -39.3680   45.8962  -56.8862 C   0  0  0  0  0  0  0  0  0  0  0  0
  -38.9343   47.0293  -57.4026 C   0  0  0  0  0  0  0  0  0  0  0  0
  -37.5850   48.0560  -51.6840 C   0  0  0  0  0  0  0  0  0  0  0  0
  -37.2069   46.4622  -53.4801 N   0  0  0  0  0  0  0  0  0  0  0  0
  -36.4061   48.4266  -51.9236 O   0  0  0  0  0  0  0  0  0  0  0  0
  -38.0164   46.7847  -52.3124 C   0  0  1  0  0  0  0  0  0  0  0  0
  -37.7121   45.6856  -51.2841 C   0  0  0  0  0  0  0  0  0  0  0  0
  -36.6033   44.2093  -52.9151 C   0  0  0  0  0  0  0  0  0  0  0  0
  -36.0547   45.5971  -53.2285 C   0  0  0  0  0  0  0  0  0  0  0  0
  -37.7361   44.3250  -51.9438 C   0  0  0  0  0  0  0  0  0  0  0  0
  -38.4765   48.7856  -50.8657 N   0  0  0  0  0  0  0  0  0  0  0  0
  -39.8643   48.8946  -51.2001 C   0  0  2  0  0  0  0  0  0  0  0  0
  -40.3673   50.3070  -51.2389 C   0  0  0  0  0  0  0  0  0  0  0  0
  -41.6236   50.3516  -51.5195 O   0  0  0  0  0  0  0  0  0  0  0  0
  -40.6024   48.1355  -50.0729 C   0  0  0  0  0  0  0  0  0  0  0  0
  -38.2284   51.4069  -53.0635 C   0  0  0  0  0  0  0  0  0  0  0  0
  -39.6634   51.4824  -51.0182 N   0  0  0  0  0  0  0  0  0  0  0  0
  -36.8891   51.1376  -53.3173 O   0  0  0  0  0  0  0  0  0  0  0  0
  -38.5718   52.0462  -51.8022 C   0  0  1  0  0  0  0  0  0  0  0  0
  -37.4865   52.1413  -50.7634 C   0  0  0  0  0  0  0  0  0  0  0  0
  -39.7503   52.5365  -49.9846 C   0  0  0  0  0  0  0  0  0  0  0  0
  -37.9417   53.9457  -49.1430 C   0  0  0  0  0  0  0  0  0  0  0  0
  -38.2993   52.5317  -49.5207 C   0  0  2  0  0  0  0  0  0  0  0  0
  -39.1439   50.4730  -53.4437 O   0  0  0  0  0  0  0  0  0  0  0  0
  1  2  2  0
  1  3  1  0
 12  1  1  0
  3  4  1  0
  4  5  2  0
  4 10  1  0
  5  6  1  0
  6  7  2  0
  7  8  1  0
  9  7  1  0
 10  9  2  0
 11 13  2  0
 11 16  1  0
 24 11  1  0
 16 12  1  0
 22 14  1  0
 23 15  1  0
 16 17  1  6
 17 18  1  0
 18 20  2  0
 18 21  1  0
 22 19  2  0
 23 19  1  0
 20 22  1  0
 21 23  2  0
 25 24  1  6
 26 25  1  0
 25 28  1  0
 26 27  2  0
 30 26  1  0
 28 29  1  1
 28 58  1  0
 29 50  1  0
 31 30  1  0
 30 36  1  0
 32 31  1  0
 31 34  1  6
 32 33  2  0
 38 32  1  0
 34 35  1  0
 35 36  2  0
 37 39  2  0
 40 37  1  0
 37 45  1  0
 38 40  1  0
 38 43  1  0
 40 41  1  1
 41 44  1  0
 43 42  1  0
 42 44  1  0
 45 46  1  0
 46 47  1  0
 46 49  1  1
 47 48  2  0
 47 51  1  0
 50 52  1  0
 50 53  1  0
 50 58  1  0
 51 53  1  0
 51 55  1  0
 53 54  1  1
 54 57  1  0
 55 57  1  0
 57 56  1  6
M  END
$$$$
