
     RDKit          3D

 58 64  0  0  0  0  0  0  0  0999 V2000
  -18.7439   67.3780  -38.8269 C   0  0  0  0  0  0  0  0  0  0  0  0
  -18.7246   66.6776  -37.7646 O   0  0  0  0  0  0  0  0  0  0  0  0
  -18.3132   66.7498  -40.0207 N   0  0  0  0  0  0  0  0  0  0  0  0
  -17.7961   65.4211  -40.0021 C   0  0  0  0  0  0  0  0  0  0  0  0
  -18.2480   64.4512  -39.1354 C   0  0  0  0  0  0  0  0  0  0  0  0
  -17.7161   63.1728  -39.1474 C   0  0  0  0  0  0  0  0  0  0  0  0
  -16.7186   62.8108  -40.0177 C   0  0  0  0  0  0  0  0  0  0  0  0
  -16.1220   61.4520  -40.0620 C   0  0  0  0  0  0  0  0  0  0  0  0
  -16.2503   63.7664  -40.8956 C   0  0  0  0  0  0  0  0  0  0  0  0
  -16.7802   65.0387  -40.8830 C   0  0  0  0  0  0  0  0  0  0  0  0
  -20.7606   70.3227  -39.6811 C   0  0  0  0  0  0  0  0  0  0  0  0
  -19.1861   68.7235  -38.7656 N   0  0  0  0  0  0  0  0  0  0  0  0
  -21.9152   70.6636  -40.0475 O   0  0  0  0  0  0  0  0  0  0  0  0
  -22.5966   66.1788  -33.9511 F   0  0  0  0  0  0  0  0  0  0  0  0
  -21.5509   64.5007  -38.2745 F   0  0  0  0  0  0  0  0  0  0  0  0
  -20.5795   69.1168  -38.8381 C   0  0  1  0  0  0  0  0  0  0  0  0
  -21.1289   69.1909  -37.4675 C   0  0  0  0  0  0  0  0  0  0  0  0
  -21.4724   67.8551  -36.9261 C   0  0  0  0  0  0  0  0  0  0  0  0
  -22.0872   65.3145  -36.0816 C   0  0  0  0  0  0  0  0  0  0  0  0
  -21.8868   67.6800  -35.6147 C   0  0  0  0  0  0  0  0  0  0  0  0
  -21.3674   66.7745  -37.7998 C   0  0  0  0  0  0  0  0  0  0  0  0
  -22.1884   66.3901  -35.2223 C   0  0  0  0  0  0  0  0  0  0  0  0
  -21.6743   65.5117  -37.3756 C   0  0  0  0  0  0  0  0  0  0  0  0
  -19.7001   71.1394  -40.1152 N   0  0  0  0  0  0  0  0  0  0  0  0
  -18.4005   71.2534  -39.4779 C   0  0  2  0  0  0  0  0  0  0  0  0
  -17.3452   70.5422  -40.2427 C   0  0  0  0  0  0  0  0  0  0  0  0
  -17.7100   69.4263  -40.7555 O   0  0  0  0  0  0  0  0  0  0  0  0
  -18.5506   70.5611  -38.1463 C   0  0  2  0  0  0  0  0  0  0  0  0
  -19.7768   70.8379  -37.5452 O   0  0  0  0  0  0  0  0  0  0  0  0
  -16.0335   71.0433  -40.4026 N   0  0  0  0  0  0  0  0  0  0  0  0
  -15.2741   71.7552  -39.4108 C   0  0  2  0  0  0  0  0  0  0  0  0
  -15.3212   73.2249  -39.5537 C   0  0  0  0  0  0  0  0  0  0  0  0
  -15.7847   73.6928  -40.6256 O   0  0  0  0  0  0  0  0  0  0  0  0
  -13.8734   71.2568  -39.6836 C   0  0  0  0  0  0  0  0  0  0  0  0
  -13.9089   71.0943  -41.1500 C   0  0  0  0  0  0  0  0  0  0  0  0
  -15.1643   70.9735  -41.5345 C   0  0  0  0  0  0  0  0  0  0  0  0
  -16.0563   73.8817  -36.4039 C   0  0  0  0  0  0  0  0  0  0  0  0
  -14.8577   74.0495  -38.5119 N   0  0  0  0  0  0  0  0  0  0  0  0
  -16.8250   74.7418  -36.9079 O   0  0  0  0  0  0  0  0  0  0  0  0
  -14.7778   73.6437  -37.1149 C   0  0  1  0  0  0  0  0  0  0  0  0
  -13.7570   74.5916  -36.4686 C   0  0  0  0  0  0  0  0  0  0  0  0
  -12.9008   75.4345  -38.6191 C   0  0  0  0  0  0  0  0  0  0  0  0
  -14.4150   75.4138  -38.7980 C   0  0  0  0  0  0  0  0  0  0  0  0
  -12.5357   74.7314  -37.3493 C   0  0  0  0  0  0  0  0  0  0  0  0
  -16.3620   73.1632  -35.2261 N   0  0  0  0  0  0  0  0  0  0  0  0
  -16.0244   71.7778  -35.0980 C   0  0  2  0  0  0  0  0  0  0  0  0
  -17.1801   70.9088  -34.6993 C   0  0  0  0  0  0  0  0  0  0  0  0
  -16.8218   69.6780  -34.5736 O   0  0  0  0  0  0  0  0  0  0  0  0
  -14.9598   71.7332  -33.9774 C   0  0  0  0  0  0  0  0  0  0  0  0
  -19.1028   71.8596  -36.8236 C   0  0  0  0  0  0  0  0  0  0  0  0
  -18.4987   71.2746  -34.4697 N   0  0  0  0  0  0  0  0  0  0  0  0
  -19.3279   73.0422  -37.5176 O   0  0  0  0  0  0  0  0  0  0  0  0
  -19.4688   71.8108  -35.4162 C   0  0  1  0  0  0  0  0  0  0  0  0
  -19.8300   73.1143  -34.7555 C   0  0  0  0  0  0  0  0  0  0  0  0
  -19.3612   71.2552  -33.2684 C   0  0  0  0  0  0  0  0  0  0  0  0
  -21.2160   72.7555  -32.7457 C   0  0  0  0  0  0  0  0  0  0  0  0
  -19.8057   72.7122  -33.2739 C   0  0  2  0  0  0  0  0  0  0  0  0
  -17.9531   71.1797  -37.0897 O   0  0  0  0  0  0  0  0  0  0  0  0
  1  2  2  0
  1  3  1  0
 12  1  1  0
  3  4  1  0
  4  5  2  0
  4 10  1  0
  5  6  1  0
  6  7  2  0
  7  8  1  0
  9  7  1  0
 10  9  2  0
 11 13  2  0
 11 16  1  0
 24 11  1  0
 16 12  1  0
 22 14  1  0
 23 15  1  0
 16 17  1  1
 17 18  1  0
 18 20  2  0
 18 21  1  0
 22 19  2  0
 23 19  1  0
 20 22  1  0
 21 23  2  0
 25 24  1  6
 26 25  1  0
 25 28  1  0
 26 27  2  0
 30 26  1  0
 28 29  1  1
 28 58  1  0
 29 50  1  0
 31 30  1  0
 30 36  1  0
 32 31  1  0
 31 34  1  6
 32 33  2  0
 38 32  1  0
 34 35  1  0
 35 36  2  0
 37 39  2  0
 40 37  1  0
 37 45  1  0
 38 40  1  0
 38 43  1  0
 40 41  1  1
 41 44  1  0
 43 42  1  0
 42 44  1  0
 45 46  1  0
 46 47  1  0
 46 49  1  1
 47 48  2  0
 47 51  1  0
 50 52  1  0
 50 53  1  0
 50 58  1  0
 51 53  1  0
 51 55  1  0
 53 54  1  1
 54 57  1  0
 55 57  1  0
 57 56  1  6
M  END
$$$$
