
     RDKit          3D

 58 64  0  0  0  0  0  0  0  0999 V2000
  -18.3856   68.2467  -39.9984 C   0  0  0  0  0  0  0  0  0  0  0  0
  -17.1782   68.6346  -39.8932 O   0  0  0  0  0  0  0  0  0  0  0  0
  -18.6119   67.0187  -40.6664 N   0  0  0  0  0  0  0  0  0  0  0  0
  -17.7640   65.8953  -40.4381 C   0  0  0  0  0  0  0  0  0  0  0  0
  -16.7792   65.5061  -41.3184 C   0  0  0  0  0  0  0  0  0  0  0  0
  -15.9790   64.4060  -41.0605 C   0  0  0  0  0  0  0  0  0  0  0  0
  -16.1264   63.6531  -39.9225 C   0  0  0  0  0  0  0  0  0  0  0  0
  -15.2897   62.4672  -39.6096 C   0  0  0  0  0  0  0  0  0  0  0  0
  -17.1067   64.0246  -39.0258 C   0  0  0  0  0  0  0  0  0  0  0  0
  -17.9028   65.1199  -39.2832 C   0  0  0  0  0  0  0  0  0  0  0  0
  -20.4499   69.4786  -37.3014 C   0  0  0  0  0  0  0  0  0  0  0  0
  -19.4231   69.0445  -39.4537 N   0  0  0  0  0  0  0  0  0  0  0  0
  -21.5519   69.9950  -36.9817 O   0  0  0  0  0  0  0  0  0  0  0  0
  -23.2533   64.0574  -36.1761 F   0  0  0  0  0  0  0  0  0  0  0  0
  -21.3684   67.5707  -33.5867 F   0  0  0  0  0  0  0  0  0  0  0  0
  -20.3725   68.5667  -38.4677 C   0  0  1  0  0  0  0  0  0  0  0  0
  -20.0803   67.1487  -38.1683 C   0  0  0  0  0  0  0  0  0  0  0  0
  -20.8983   66.6305  -37.0467 C   0  0  0  0  0  0  0  0  0  0  0  0
  -22.3381   65.7862  -34.8649 C   0  0  0  0  0  0  0  0  0  0  0  0
  -21.7260   65.5278  -37.1914 C   0  0  0  0  0  0  0  0  0  0  0  0
  -20.7943   67.2995  -35.8286 C   0  0  0  0  0  0  0  0  0  0  0  0
  -22.4358   65.1292  -36.0750 C   0  0  0  0  0  0  0  0  0  0  0  0
  -21.5125   66.8762  -34.7452 C   0  0  0  0  0  0  0  0  0  0  0  0
  -19.3439   69.8193  -36.5009 N   0  0  0  0  0  0  0  0  0  0  0  0
  -18.1372   70.4844  -36.9588 C   0  0  2  0  0  0  0  0  0  0  0  0
  -17.2853   69.5838  -37.7760 C   0  0  0  0  0  0  0  0  0  0  0  0
  -17.2302   68.3723  -37.3631 O   0  0  0  0  0  0  0  0  0  0  0  0
  -17.3740   70.8276  -35.7039 C   0  0  2  0  0  0  0  0  0  0  0  0
  -18.2120   71.2767  -34.6853 O   0  0  0  0  0  0  0  0  0  0  0  0
  -16.5823   70.0135  -38.9242 N   0  0  0  0  0  0  0  0  0  0  0  0
  -15.9409   71.2889  -39.0943 C   0  0  2  0  0  0  0  0  0  0  0  0
  -16.7536   72.2809  -39.8281 C   0  0  0  0  0  0  0  0  0  0  0  0
  -17.7754   71.8657  -40.4333 O   0  0  0  0  0  0  0  0  0  0  0  0
  -14.7266   70.9129  -39.9120 C   0  0  0  0  0  0  0  0  0  0  0  0
  -15.2701   69.8231  -40.7454 C   0  0  0  0  0  0  0  0  0  0  0  0
  -16.3368   69.3247  -40.1517 C   0  0  0  0  0  0  0  0  0  0  0  0
  -16.3629   74.7499  -37.6732 C   0  0  0  0  0  0  0  0  0  0  0  0
  -16.3754   73.6362  -39.8338 N   0  0  0  0  0  0  0  0  0  0  0  0
  -17.5814   74.9619  -37.9075 O   0  0  0  0  0  0  0  0  0  0  0  0
  -15.5480   74.2638  -38.8119 C   0  0  1  0  0  0  0  0  0  0  0  0
  -14.9605   75.5198  -39.4719 C   0  0  0  0  0  0  0  0  0  0  0  0
  -15.5846   74.8371  -41.7551 C   0  0  0  0  0  0  0  0  0  0  0  0
  -16.8165   74.5163  -40.9155 C   0  0  0  0  0  0  0  0  0  0  0  0
  -14.4435   75.1956  -40.8555 C   0  0  0  0  0  0  0  0  0  0  0  0
  -15.7695   74.9532  -36.4069 N   0  0  0  0  0  0  0  0  0  0  0  0
  -14.7798   74.0502  -35.9019 C   0  0  2  0  0  0  0  0  0  0  0  0
  -15.0856   73.5238  -34.5312 C   0  0  0  0  0  0  0  0  0  0  0  0
  -14.1565   72.7366  -34.1114 O   0  0  0  0  0  0  0  0  0  0  0  0
  -13.4808   74.8865  -35.8343 C   0  0  0  0  0  0  0  0  0  0  0  0
  -17.8977   72.5940  -35.1154 C   0  0  0  0  0  0  0  0  0  0  0  0
  -16.1894   73.7831  -33.7312 N   0  0  0  0  0  0  0  0  0  0  0  0
  -18.9312   72.9879  -35.9564 O   0  0  0  0  0  0  0  0  0  0  0  0
  -17.5849   73.4383  -33.9723 C   0  0  1  0  0  0  0  0  0  0  0  0
  -18.2324   74.7965  -33.9248 C   0  0  0  0  0  0  0  0  0  0  0  0
  -16.3579   74.4520  -32.4231 C   0  0  0  0  0  0  0  0  0  0  0  0
  -18.3111   75.6804  -31.6224 C   0  0  0  0  0  0  0  0  0  0  0  0
  -17.4154   75.4756  -32.8164 C   0  0  2  0  0  0  0  0  0  0  0  0
  -16.7858   72.0564  -35.6894 O   0  0  0  0  0  0  0  0  0  0  0  0
  1  2  2  0
  1  3  1  0
 12  1  1  0
  3  4  1  0
  4  5  2  0
  4 10  1  0
  5  6  1  0
  6  7  2  0
  7  8  1  0
  9  7  1  0
 10  9  2  0
 11 13  2  0
 11 16  1  0
 24 11  1  0
 16 12  1  0
 22 14  1  0
 23 15  1  0
 16 17  1  1
 17 18  1  0
 18 20  2  0
 18 21  1  0
 22 19  2  0
 23 19  1  0
 20 22  1  0
 21 23  2  0
 25 24  1  1
 26 25  1  0
 25 28  1  0
 26 27  2  0
 30 26  1  0
 28 29  1  1
 28 58  1  0
 29 50  1  0
 31 30  1  0
 30 36  1  0
 32 31  1  0
 31 34  1  6
 32 33  2  0
 38 32  1  0
 34 35  1  0
 35 36  2  0
 37 39  2  0
 40 37  1  0
 37 45  1  0
 38 40  1  0
 38 43  1  0
 40 41  1  6
 41 44  1  0
 43 42  1  0
 42 44  1  0
 45 46  1  0
 46 47  1  0
 46 49  1  1
 47 48  2  0
 47 51  1  0
 50 52  1  0
 50 53  1  0
 50 58  1  0
 51 53  1  0
 51 55  1  0
 53 54  1  6
 54 57  1  0
 55 57  1  0
 57 56  1  1
M  END
$$$$
