
     RDKit          3D

 58 64  0  0  0  0  0  0  0  0999 V2000
  -22.6774   44.8630  -29.0275 C   0  0  0  0  0  0  0  0  0  0  0  0
  -22.1118   44.5580  -27.9291 O   0  0  0  0  0  0  0  0  0  0  0  0
  -23.2487   46.1554  -29.1208 N   0  0  0  0  0  0  0  0  0  0  0  0
  -22.6999   47.2515  -28.3925 C   0  0  0  0  0  0  0  0  0  0  0  0
  -23.1294   48.5500  -28.5524 C   0  0  0  0  0  0  0  0  0  0  0  0
  -22.5670   49.5871  -27.8275 C   0  0  0  0  0  0  0  0  0  0  0  0
  -21.5600   49.3743  -26.9196 C   0  0  0  0  0  0  0  0  0  0  0  0
  -20.9310   50.4583  -26.1237 C   0  0  0  0  0  0  0  0  0  0  0  0
  -21.1138   48.0811  -26.7426 C   0  0  0  0  0  0  0  0  0  0  0  0
  -21.6741   47.0493  -27.4645 C   0  0  0  0  0  0  0  0  0  0  0  0
  -24.2032   42.4186  -28.9000 C   0  0  0  0  0  0  0  0  0  0  0  0
  -22.7074   43.9156  -30.0816 N   0  0  0  0  0  0  0  0  0  0  0  0
  -23.5004   41.6108  -28.2390 O   0  0  0  0  0  0  0  0  0  0  0  0
  -25.3658   39.0168  -34.4804 F   0  0  0  0  0  0  0  0  0  0  0  0
  -26.7942   43.5146  -33.9055 F   0  0  0  0  0  0  0  0  0  0  0  0
  -23.7311   42.8987  -30.2208 C   0  0  1  0  0  0  0  0  0  0  0  0
  -23.2520   41.8609  -31.1585 C   0  0  0  0  0  0  0  0  0  0  0  0
  -24.2262   41.5881  -32.2411 C   0  0  0  0  0  0  0  0  0  0  0  0
  -26.0981   41.2399  -34.2211 C   0  0  0  0  0  0  0  0  0  0  0  0
  -24.3054   40.3507  -32.8613 C   0  0  0  0  0  0  0  0  0  0  0  0
  -25.0710   42.6340  -32.6077 C   0  0  0  0  0  0  0  0  0  0  0  0
  -25.2575   40.2090  -33.8524 C   0  0  0  0  0  0  0  0  0  0  0  0
  -26.0013   42.4567  -33.5935 C   0  0  0  0  0  0  0  0  0  0  0  0
  -25.4200   42.8137  -28.3140 N   0  0  0  0  0  0  0  0  0  0  0  0
  -26.7416   42.3719  -28.7218 C   0  0  2  0  0  0  0  0  0  0  0  0
  -27.6194   42.1030  -27.5549 C   0  0  0  0  0  0  0  0  0  0  0  0
  -27.0375   41.5444  -26.5596 O   0  0  0  0  0  0  0  0  0  0  0  0
  -26.5177   41.0652  -29.4410 C   0  0  2  0  0  0  0  0  0  0  0  0
  -25.3864   41.0996  -30.2537 O   0  0  0  0  0  0  0  0  0  0  0  0
  -28.9937   42.4315  -27.5274 N   0  0  0  0  0  0  0  0  0  0  0  0
  -29.9074   42.3374  -28.6335 C   0  0  2  0  0  0  0  0  0  0  0  0
  -30.1245   43.6123  -29.3479 C   0  0  0  0  0  0  0  0  0  0  0  0
  -29.7145   44.6669  -28.7981 O   0  0  0  0  0  0  0  0  0  0  0  0
  -31.1819   41.9126  -27.9408 C   0  0  0  0  0  0  0  0  0  0  0  0
  -31.0620   42.6307  -26.6571 C   0  0  0  0  0  0  0  0  0  0  0  0
  -29.7921   42.9157  -26.4459 C   0  0  0  0  0  0  0  0  0  0  0  0
  -29.6413   42.4223  -32.3881 C   0  0  0  0  0  0  0  0  0  0  0  0
  -30.7701   43.6184  -30.5982 N   0  0  0  0  0  0  0  0  0  0  0  0
  -29.0245   43.5055  -32.5636 O   0  0  0  0  0  0  0  0  0  0  0  0
  -30.8270   42.4757  -31.5004 C   0  0  1  0  0  0  0  0  0  0  0  0
  -32.0276   42.7378  -32.4214 C   0  0  0  0  0  0  0  0  0  0  0  0
  -32.9419   44.5473  -31.0220 C   0  0  0  0  0  0  0  0  0  0  0  0
  -31.4438   44.8278  -31.0700 C   0  0  0  0  0  0  0  0  0  0  0  0
  -33.2197   43.2014  -31.6148 C   0  0  0  0  0  0  0  0  0  0  0  0
  -29.2539   41.2030  -32.9882 N   0  0  0  0  0  0  0  0  0  0  0  0
  -29.3369   39.9675  -32.2696 C   0  0  2  0  0  0  0  0  0  0  0  0
  -28.0577   39.1845  -32.2646 C   0  0  0  0  0  0  0  0  0  0  0  0
  -28.1892   38.0725  -31.6279 O   0  0  0  0  0  0  0  0  0  0  0  0
  -30.4170   39.1494  -33.0151 C   0  0  0  0  0  0  0  0  0  0  0  0
  -26.2627   41.4223  -31.3246 C   0  0  0  0  0  0  0  0  0  0  0  0
  -26.8378   39.5166  -32.8365 N   0  0  0  0  0  0  0  0  0  0  0  0
  -26.2318   42.8056  -31.4521 O   0  0  0  0  0  0  0  0  0  0  0  0
  -25.9472   40.6190  -32.4962 C   0  0  1  0  0  0  0  0  0  0  0  0
  -25.8558   41.3370  -33.8161 C   0  0  0  0  0  0  0  0  0  0  0  0
  -26.0323   38.9194  -33.9236 C   0  0  0  0  0  0  0  0  0  0  0  0
  -24.5043   40.0674  -35.4442 C   0  0  0  0  0  0  0  0  0  0  0  0
  -25.8620   40.1559  -34.7970 C   0  0  2  0  0  0  0  0  0  0  0  0
  -27.2577   40.8793  -30.5697 O   0  0  0  0  0  0  0  0  0  0  0  0
  1  2  2  0
  1  3  1  0
 12  1  1  0
  3  4  1  0
  4  5  2  0
  4 10  1  0
  5  6  1  0
  6  7  2  0
  7  8  1  0
  9  7  1  0
 10  9  2  0
 11 13  2  0
 11 16  1  0
 24 11  1  0
 16 12  1  0
 22 14  1  0
 23 15  1  0
 16 17  1  6
 17 18  1  0
 18 20  2  0
 18 21  1  0
 22 19  2  0
 23 19  1  0
 20 22  1  0
 21 23  2  0
 25 24  1  1
 26 25  1  0
 25 28  1  0
 26 27  2  0
 30 26  1  0
 28 29  1  6
 28 58  1  0
 29 50  1  0
 31 30  1  0
 30 36  1  0
 32 31  1  0
 31 34  1  1
 32 33  2  0
 38 32  1  0
 34 35  1  0
 35 36  2  0
 37 39  2  0
 40 37  1  0
 37 45  1  0
 38 40  1  0
 38 43  1  0
 40 41  1  6
 41 44  1  0
 43 42  1  0
 42 44  1  0
 45 46  1  0
 46 47  1  0
 46 49  1  6
 47 48  2  0
 47 51  1  0
 50 52  1  0
 50 53  1  0
 50 58  1  0
 51 53  1  0
 51 55  1  0
 53 54  1  6
 54 57  1  0
 55 57  1  0
 57 56  1  1
M  END
$$$$
