
     RDKit          3D

 58 64  0  0  0  0  0  0  0  0999 V2000
  -19.9030   67.2121  -39.0453 C   0  0  0  0  0  0  0  0  0  0  0  0
  -19.6002   67.7890  -37.9522 O   0  0  0  0  0  0  0  0  0  0  0  0
  -20.7187   66.0577  -38.9600 N   0  0  0  0  0  0  0  0  0  0  0  0
  -21.0939   65.5196  -37.6940 C   0  0  0  0  0  0  0  0  0  0  0  0
  -20.7008   66.0733  -36.4960 C   0  0  0  0  0  0  0  0  0  0  0  0
  -21.0844   65.5172  -35.2874 C   0  0  0  0  0  0  0  0  0  0  0  0
  -21.8701   64.3938  -35.2232 C   0  0  0  0  0  0  0  0  0  0  0  0
  -22.3024   63.7671  -33.9486 C   0  0  0  0  0  0  0  0  0  0  0  0
  -22.2763   63.8219  -36.4111 C   0  0  0  0  0  0  0  0  0  0  0  0
  -21.8940   64.3761  -37.6138 C   0  0  0  0  0  0  0  0  0  0  0  0
  -20.0130   70.0178  -39.6854 C   0  0  0  0  0  0  0  0  0  0  0  0
  -19.4203   67.7411  -40.2687 N   0  0  0  0  0  0  0  0  0  0  0  0
  -21.2396   70.0664  -39.9620 O   0  0  0  0  0  0  0  0  0  0  0  0
  -17.7221   65.3975  -44.3159 F   0  0  0  0  0  0  0  0  0  0  0  0
  -14.5430   68.8109  -43.3977 F   0  0  0  0  0  0  0  0  0  0  0  0
  -19.1125   69.1428  -40.4737 C   0  0  1  0  0  0  0  0  0  0  0  0
  -19.0485   69.4126  -41.9259 C   0  0  0  0  0  0  0  0  0  0  0  0
  -18.0637   68.5468  -42.6160 C   0  0  0  0  0  0  0  0  0  0  0  0
  -16.1222   67.0691  -43.8780 C   0  0  0  0  0  0  0  0  0  0  0  0
  -18.4167   67.3180  -43.1520 C   0  0  0  0  0  0  0  0  0  0  0  0
  -16.7589   69.0270  -42.7105 C   0  0  0  0  0  0  0  0  0  0  0  0
  -17.4169   66.6004  -43.7800 C   0  0  0  0  0  0  0  0  0  0  0  0
  -15.7956   68.2886  -43.3394 C   0  0  0  0  0  0  0  0  0  0  0  0
  -19.5805   70.8240  -38.6163 N   0  0  0  0  0  0  0  0  0  0  0  0
  -18.2211   71.2837  -38.3954 C   0  0  2  0  0  0  0  0  0  0  0  0
  -17.2196   70.3194  -38.9166 C   0  0  0  0  0  0  0  0  0  0  0  0
  -17.5144   69.0857  -38.7369 O   0  0  0  0  0  0  0  0  0  0  0  0
  -18.0633   71.3473  -36.8968 C   0  0  2  0  0  0  0  0  0  0  0  0
  -19.2020   71.8484  -36.2692 O   0  0  0  0  0  0  0  0  0  0  0  0
  -16.0271   70.7149  -39.5639 N   0  0  0  0  0  0  0  0  0  0  0  0
  -15.2167   71.8519  -39.2211 C   0  0  2  0  0  0  0  0  0  0  0  0
  -15.4767   73.0499  -40.0458 C   0  0  0  0  0  0  0  0  0  0  0  0
  -16.1637   72.9026  -41.0893 O   0  0  0  0  0  0  0  0  0  0  0  0
  -13.8257   71.3292  -39.4978 C   0  0  0  0  0  0  0  0  0  0  0  0
  -14.0757   70.4529  -40.6585 C   0  0  0  0  0  0  0  0  0  0  0  0
  -15.3503   70.1154  -40.6702 C   0  0  0  0  0  0  0  0  0  0  0  0
  -15.7732   75.1723  -37.5357 C   0  0  0  0  0  0  0  0  0  0  0  0
  -14.9622   74.2999  -39.6547 N   0  0  0  0  0  0  0  0  0  0  0  0
  -16.7182   75.6389  -38.2243 O   0  0  0  0  0  0  0  0  0  0  0  0
  -14.6061   74.6514  -38.2863 C   0  0  1  0  0  0  0  0  0  0  0  0
  -13.6263   75.8279  -38.4052 C   0  0  0  0  0  0  0  0  0  0  0  0
  -13.2448   75.5070  -40.8177 C   0  0  0  0  0  0  0  0  0  0  0  0
  -14.7524   75.3507  -40.6501 C   0  0  0  0  0  0  0  0  0  0  0  0
  -12.5917   75.5469  -39.4716 C   0  0  0  0  0  0  0  0  0  0  0  0
  -15.7891   75.1312  -36.1233 N   0  0  0  0  0  0  0  0  0  0  0  0
  -15.2583   74.0081  -35.4116 C   0  0  2  0  0  0  0  0  0  0  0  0
  -16.2118   73.4192  -34.4148 C   0  0  0  0  0  0  0  0  0  0  0  0
  -15.6813   72.4292  -33.7842 O   0  0  0  0  0  0  0  0  0  0  0  0
  -14.0302   74.5653  -34.6548 C   0  0  0  0  0  0  0  0  0  0  0  0
  -18.5589   73.1152  -36.2890 C   0  0  0  0  0  0  0  0  0  0  0  0
  -17.5124   73.8081  -34.1273 N   0  0  0  0  0  0  0  0  0  0  0  0
  -19.0445   73.7830  -37.4065 O   0  0  0  0  0  0  0  0  0  0  0  0
  -18.6837   73.7664  -34.9937 C   0  0  1  0  0  0  0  0  0  0  0  0
  -19.0997   75.2131  -34.9902 C   0  0  0  0  0  0  0  0  0  0  0  0
  -18.1599   74.3654  -32.9200 C   0  0  0  0  0  0  0  0  0  0  0  0
  -20.0850   75.8652  -32.8239 C   0  0  0  0  0  0  0  0  0  0  0  0
  -18.7848   75.6084  -33.5404 C   0  0  2  0  0  0  0  0  0  0  0  0
  -17.3887   72.4309  -36.4206 O   0  0  0  0  0  0  0  0  0  0  0  0
  1  2  2  0
  1  3  1  0
 12  1  1  0
  3  4  1  0
  4  5  2  0
  4 10  1  0
  5  6  1  0
  6  7  2  0
  7  8  1  0
  9  7  1  0
 10  9  2  0
 11 13  2  0
 11 16  1  0
 24 11  1  0
 16 12  1  0
 22 14  1  0
 23 15  1  0
 16 17  1  6
 17 18  1  0
 18 20  2  0
 18 21  1  0
 22 19  2  0
 23 19  1  0
 20 22  1  0
 21 23  2  0
 25 24  1  1
 26 25  1  0
 25 28  1  0
 26 27  2  0
 30 26  1  0
 28 29  1  1
 28 58  1  0
 29 50  1  0
 31 30  1  0
 30 36  1  0
 32 31  1  0
 31 34  1  6
 32 33  2  0
 38 32  1  0
 34 35  1  0
 35 36  2  0
 37 39  2  0
 40 37  1  0
 37 45  1  0
 38 40  1  0
 38 43  1  0
 40 41  1  6
 41 44  1  0
 43 42  1  0
 42 44  1  0
 45 46  1  0
 46 47  1  0
 46 49  1  1
 47 48  2  0
 47 51  1  0
 50 52  1  0
 50 53  1  0
 50 58  1  0
 51 53  1  0
 51 55  1  0
 53 54  1  6
 54 57  1  0
 55 57  1  0
 57 56  1  1
M  END
$$$$
