
     RDKit          3D

 16 17  0  0  0  0  0  0  0  0999 V2000
   24.1485    4.6391   13.8131 N   0  0  0  0  0  0  0  0  0  0  0  0
   24.9985    2.4212    8.3352 C   0  0  0  0  0  0  0  0  0  0  0  0
   22.7140    7.1420   17.7388 C   0  0  0  0  0  0  0  0  0  0  0  0
   23.5996    4.7649   16.7191 C   0  0  0  0  0  0  0  0  0  0  0  0
   24.9044    3.4208   11.7800 N   0  0  0  0  0  0  0  0  0  0  0  0
   25.2023    3.7331   10.4277 C   0  0  0  0  0  0  0  0  0  0  0  0
   25.8490    2.7320    9.5224 C   0  0  0  0  0  0  0  0  0  0  0  0
   24.9035    4.8814   10.0167 O   0  0  0  0  0  0  0  0  0  0  0  0
   24.3964    4.4110   12.6993 C   0  0  0  0  0  0  0  0  0  0  0  0
   23.8816    6.0631   11.9390 S   0  0  0  0  0  0  0  0  0  0  0  0
   23.3832    6.7833   13.4971 C   0  0  0  0  0  0  0  0  0  0  0  0
   23.6711    5.6772   14.3970 C   0  0  0  0  0  0  0  0  0  0  0  0
   23.4092    5.8112   15.8526 C   0  0  0  0  0  0  0  0  0  0  0  0
   23.3530    4.8973   18.0768 C   0  0  0  0  0  0  0  0  0  0  0  0
   22.9074    6.0868   18.6034 C   0  0  0  0  0  0  0  0  0  0  0  0
   22.9643    6.9943   16.3873 C   0  0  0  0  0  0  0  0  0  0  0  0
  1  9  2  0
 12  1  1  0
  2  7  1  6
  3 15  2  0
 16  3  1  0
 13  4  1  0
  4 14  2  0
  5  6  1  0
  9  5  1  0
  7  6  1  6
  6  8  2  0
 10  9  1  0
 11 10  1  0
 12 11  2  0
 13 12  1  0
 13 16  2  0
 14 15  1  0
M  END
$$$$
