
     RDKit          3D

 16 17  0  0  0  0  0  0  0  0999 V2000
   23.5784    4.8695   12.6812 N   0  0  0  0  0  0  0  0  0  0  0  0
   25.8453    1.2357    8.8550 C   0  0  0  0  0  0  0  0  0  0  0  0
   22.9970    6.7842   17.0898 C   0  0  0  0  0  0  0  0  0  0  0  0
   21.7388    5.8567   14.8468 C   0  0  0  0  0  0  0  0  0  0  0  0
   24.0256    3.6702   10.5479 N   0  0  0  0  0  0  0  0  0  0  0  0
   25.1361    3.4588    9.6893 C   0  0  0  0  0  0  0  0  0  0  0  0
   25.0710    2.4781    8.5607 C   0  0  0  0  0  0  0  0  0  0  0  0
   26.1773    4.1250    9.9106 O   0  0  0  0  0  0  0  0  0  0  0  0
   24.1002    4.5466   11.6925 C   0  0  0  0  0  0  0  0  0  0  0  0
   25.5955    5.7007   11.7586 S   0  0  0  0  0  0  0  0  0  0  0  0
   25.1183    6.4574   13.3059 C   0  0  0  0  0  0  0  0  0  0  0  0
   23.8836    5.7372   13.5759 C   0  0  0  0  0  0  0  0  0  0  0  0
   23.0982    6.0345   14.8007 C   0  0  0  0  0  0  0  0  0  0  0  0
   21.0121    6.1364   15.9937 C   0  0  0  0  0  0  0  0  0  0  0  0
   21.6317    6.6033   17.1289 C   0  0  0  0  0  0  0  0  0  0  0  0
   23.7078    6.5009   15.9385 C   0  0  0  0  0  0  0  0  0  0  0  0
  1  9  2  0
 12  1  1  0
  2  7  1  6
  3 15  2  0
 16  3  1  0
 13  4  1  0
  4 14  2  0
  5  6  1  0
  9  5  1  0
  7  6  1  6
  6  8  2  0
 10  9  1  0
 11 10  1  0
 12 11  2  0
 13 12  1  0
 13 16  2  0
 14 15  1  0
M  END
$$$$
