
     RDKit          3D

 16 17  0  0  0  0  0  0  0  0999 V2000
   23.8310    4.6525   12.2093 N   0  0  0  0  0  0  0  0  0  0  0  0
   25.3137    0.6852    8.2045 C   0  0  0  0  0  0  0  0  0  0  0  0
   21.1780    7.1007   14.5832 C   0  0  0  0  0  0  0  0  0  0  0  0
   23.7885    6.5523   15.2859 C   0  0  0  0  0  0  0  0  0  0  0  0
   24.4075    3.1067   10.3494 N   0  0  0  0  0  0  0  0  0  0  0  0
   25.4202    2.7857    9.4052 C   0  0  0  0  0  0  0  0  0  0  0  0
   25.1281    2.1814    8.0888 C   0  0  0  0  0  0  0  0  0  0  0  0
   26.6044    3.0443    9.7461 O   0  0  0  0  0  0  0  0  0  0  0  0
   24.6678    4.0752   11.3717 C   0  0  0  0  0  0  0  0  0  0  0  0
   26.1665    4.7648   11.7979 S   0  0  0  0  0  0  0  0  0  0  0  0
   25.6205    5.7839   13.0621 C   0  0  0  0  0  0  0  0  0  0  0  0
   24.2740    5.5136   13.0696 C   0  0  0  0  0  0  0  0  0  0  0  0
   23.3621    6.1872   14.0320 C   0  0  0  0  0  0  0  0  0  0  0  0
   22.9518    7.1800   16.1931 C   0  0  0  0  0  0  0  0  0  0  0  0
   21.6541    7.4469   15.8292 C   0  0  0  0  0  0  0  0  0  0  0  0
   22.0526    6.4804   13.7246 C   0  0  0  0  0  0  0  0  0  0  0  0
  1  9  2  0
 12  1  1  0
  7  2  1  0
  3 15  2  0
 16  3  1  0
 13  4  1  0
  4 14  2  0
  5  6  1  0
  9  5  1  0
  6  7  1  0
  6  8  2  0
 10  9  1  0
 11 10  1  0
 12 11  2  0
 13 12  1  0
 13 16  2  0
 14 15  1  0
M  END
$$$$
