
     RDKit          3D

 16 17  0  0  0  0  0  0  0  0999 V2000
   23.7146    4.7896   12.2343 N   0  0  0  0  0  0  0  0  0  0  0  0
   26.2820    0.8927    8.7211 C   0  0  0  0  0  0  0  0  0  0  0  0
   21.1629    6.3052   15.4141 C   0  0  0  0  0  0  0  0  0  0  0  0
   23.7006    7.2237   14.9770 C   0  0  0  0  0  0  0  0  0  0  0  0
   24.2303    3.2066   10.3857 N   0  0  0  0  0  0  0  0  0  0  0  0
   25.2451    3.0361    9.4078 C   0  0  0  0  0  0  0  0  0  0  0  0
   25.2101    1.8939    8.4414 C   0  0  0  0  0  0  0  0  0  0  0  0
   26.1752    3.8793    9.3821 O   0  0  0  0  0  0  0  0  0  0  0  0
   24.2337    4.3195   11.3050 C   0  0  0  0  0  0  0  0  0  0  0  0
   25.5617    5.6326   11.0143 S   0  0  0  0  0  0  0  0  0  0  0  0
   25.0516    6.6527   12.3904 C   0  0  0  0  0  0  0  0  0  0  0  0
   23.9371    5.8662   12.8960 C   0  0  0  0  0  0  0  0  0  0  0  0
   23.1704    6.3323   14.0793 C   0  0  0  0  0  0  0  0  0  0  0  0
   22.9789    7.6544   16.0795 C   0  0  0  0  0  0  0  0  0  0  0  0
   21.7018    7.2008   16.3117 C   0  0  0  0  0  0  0  0  0  0  0  0
   21.8952    5.8852   14.3194 C   0  0  0  0  0  0  0  0  0  0  0  0
  1  9  2  0
 12  1  1  0
  2  7  1  6
  3 15  2  0
 16  3  1  0
 13  4  1  0
  4 14  2  0
  5  6  1  0
  9  5  1  0
  7  6  1  6
  6  8  2  0
 10  9  1  0
 11 10  1  0
 12 11  2  0
 13 12  1  0
 13 16  2  0
 14 15  1  0
M  END
$$$$
