
     RDKit          3D

 16 17  0  0  0  0  0  0  0  0999 V2000
   23.6911    4.7964   13.3186 N   0  0  0  0  0  0  0  0  0  0  0  0
   25.4012    2.4593    8.0279 C   0  0  0  0  0  0  0  0  0  0  0  0
   22.5862    5.1139   17.4974 C   0  0  0  0  0  0  0  0  0  0  0  0
   23.0482    7.3097   15.9356 C   0  0  0  0  0  0  0  0  0  0  0  0
   24.1419    3.4751   11.2594 N   0  0  0  0  0  0  0  0  0  0  0  0
   25.1595    3.4871   10.2698 C   0  0  0  0  0  0  0  0  0  0  0  0
   25.5129    2.2518    9.5023 C   0  0  0  0  0  0  0  0  0  0  0  0
   25.7542    4.5731   10.0605 O   0  0  0  0  0  0  0  0  0  0  0  0
   24.0058    4.5357   12.2291 C   0  0  0  0  0  0  0  0  0  0  0  0
   24.4997    6.2638   11.6441 S   0  0  0  0  0  0  0  0  0  0  0  0
   24.1213    7.0513   13.2034 C   0  0  0  0  0  0  0  0  0  0  0  0
   23.6678    5.9014   13.9704 C   0  0  0  0  0  0  0  0  0  0  0  0
   23.2311    6.0690   15.3799 C   0  0  0  0  0  0  0  0  0  0  0  0
   22.6404    7.4586   17.2522 C   0  0  0  0  0  0  0  0  0  0  0  0
   22.4044    6.3633   18.0490 C   0  0  0  0  0  0  0  0  0  0  0  0
   22.9932    4.9818   16.1829 C   0  0  0  0  0  0  0  0  0  0  0  0
  1  9  2  0
 12  1  1  0
  2  7  1  6
  3 15  2  0
 16  3  1  0
 13  4  1  0
  4 14  2  0
  5  6  1  0
  9  5  1  0
  7  6  1  6
  6  8  2  0
 10  9  1  0
 11 10  1  0
 12 11  2  0
 13 12  1  0
 13 16  2  0
 14 15  1  0
M  END
$$$$
