
     RDKit          3D

 16 17  0  0  0  0  0  0  0  0999 V2000
   24.1270    4.5589   13.9835 N   0  0  0  0  0  0  0  0  0  0  0  0
   26.3742    2.7849    8.8512 C   0  0  0  0  0  0  0  0  0  0  0  0
   24.1186    5.0441   18.2305 C   0  0  0  0  0  0  0  0  0  0  0  0
   22.4599    6.5227   16.5959 C   0  0  0  0  0  0  0  0  0  0  0  0
   24.8877    3.5200   11.8568 N   0  0  0  0  0  0  0  0  0  0  0  0
   24.7100    3.5268   10.4466 C   0  0  0  0  0  0  0  0  0  0  0  0
   25.1085    2.3968    9.5818 C   0  0  0  0  0  0  0  0  0  0  0  0
   24.1864    4.5606    9.9543 O   0  0  0  0  0  0  0  0  0  0  0  0
   24.1501    4.4376   12.6721 C   0  0  0  0  0  0  0  0  0  0  0  0
   23.0732    5.6548   12.1601 S   0  0  0  0  0  0  0  0  0  0  0  0
   22.6414    6.2683   13.7002 C   0  0  0  0  0  0  0  0  0  0  0  0
   23.3823    5.4655   14.5325 C   0  0  0  0  0  0  0  0  0  0  0  0
   23.3283    5.6346   16.0090 C   0  0  0  0  0  0  0  0  0  0  0  0
   22.3976    6.6916   17.9688 C   0  0  0  0  0  0  0  0  0  0  0  0
   23.2298    5.9483   18.7704 C   0  0  0  0  0  0  0  0  0  0  0  0
   24.1366    4.9185   16.8627 C   0  0  0  0  0  0  0  0  0  0  0  0
  1  9  2  0
 12  1  1  0
  7  2  1  0
  3 15  2  0
 16  3  1  0
 13  4  1  0
  4 14  2  0
  5  6  1  0
  9  5  1  0
  6  7  1  0
  6  8  2  0
 10  9  1  0
 11 10  1  0
 12 11  2  0
 13 12  1  0
 13 16  2  0
 14 15  1  0
M  END
$$$$
