
     RDKit          3D

 16 17  0  0  0  0  0  0  0  0999 V2000
   23.8506    4.4216   12.9435 N   0  0  0  0  0  0  0  0  0  0  0  0
   25.6038    0.9647    8.4348 C   0  0  0  0  0  0  0  0  0  0  0  0
   21.8076    7.4312   16.1563 C   0  0  0  0  0  0  0  0  0  0  0  0
   23.7234    5.5238   15.6077 C   0  0  0  0  0  0  0  0  0  0  0  0
   24.7356    2.8826   11.2030 N   0  0  0  0  0  0  0  0  0  0  0  0
   25.1716    2.8818    9.8501 C   0  0  0  0  0  0  0  0  0  0  0  0
   26.2369    1.9879    9.3506 C   0  0  0  0  0  0  0  0  0  0  0  0
   24.5982    3.6941    9.0776 O   0  0  0  0  0  0  0  0  0  0  0  0
   23.9767    3.9880   11.7061 C   0  0  0  0  0  0  0  0  0  0  0  0
   23.0043    5.0736   10.8234 S   0  0  0  0  0  0  0  0  0  0  0  0
   22.4755    6.0504   12.1277 C   0  0  0  0  0  0  0  0  0  0  0  0
   23.1063    5.4524   13.1910 C   0  0  0  0  0  0  0  0  0  0  0  0
   22.9380    5.9729   14.5738 C   0  0  0  0  0  0  0  0  0  0  0  0
   23.5790    5.9984   16.9003 C   0  0  0  0  0  0  0  0  0  0  0  0
   22.6206    6.9484   17.1587 C   0  0  0  0  0  0  0  0  0  0  0  0
   21.9957    6.9243   14.8935 C   0  0  0  0  0  0  0  0  0  0  0  0
  1  9  2  0
 12  1  1  0
  7  2  1  0
  3 15  2  0
 16  3  1  0
 13  4  1  0
  4 14  2  0
  5  6  1  0
  9  5  1  0
  6  7  1  0
  6  8  2  0
 10  9  1  0
 11 10  1  0
 12 11  2  0
 13 12  1  0
 13 16  2  0
 14 15  1  0
M  END
$$$$
