
     RDKit          3D

 16 17  0  0  0  0  0  0  0  0999 V2000
   23.3661    4.9188   14.4286 N   0  0  0  0  0  0  0  0  0  0  0  0
   23.9780    3.0719    8.8046 C   0  0  0  0  0  0  0  0  0  0  0  0
   22.7157    4.8474   18.7113 C   0  0  0  0  0  0  0  0  0  0  0  0
   22.5190    7.1449   17.2427 C   0  0  0  0  0  0  0  0  0  0  0  0
   23.8541    3.7973   12.2622 N   0  0  0  0  0  0  0  0  0  0  0  0
   24.3654    4.1708   10.9917 C   0  0  0  0  0  0  0  0  0  0  0  0
   24.8487    3.1447   10.0154 C   0  0  0  0  0  0  0  0  0  0  0  0
   24.3979    5.3953   10.7152 O   0  0  0  0  0  0  0  0  0  0  0  0
   23.5932    4.7691   13.2972 C   0  0  0  0  0  0  0  0  0  0  0  0
   23.5830    6.5791   12.7530 S   0  0  0  0  0  0  0  0  0  0  0  0
   23.2286    7.2128   14.3863 C   0  0  0  0  0  0  0  0  0  0  0  0
   23.1630    5.9688   15.1376 C   0  0  0  0  0  0  0  0  0  0  0  0
   22.8811    5.9909   16.5955 C   0  0  0  0  0  0  0  0  0  0  0  0
   22.2573    7.1580   18.6040 C   0  0  0  0  0  0  0  0  0  0  0  0
   22.3524    6.0102   19.3549 C   0  0  0  0  0  0  0  0  0  0  0  0
   22.9734    4.8503   17.3532 C   0  0  0  0  0  0  0  0  0  0  0  0
  1  9  2  0
 12  1  1  0
  2  7  1  6
  3 15  2  0
 16  3  1  0
 13  4  1  0
  4 14  2  0
  5  6  1  0
  9  5  1  0
  7  6  1  6
  6  8  2  0
 10  9  1  0
 11 10  1  0
 12 11  2  0
 13 12  1  0
 13 16  2  0
 14 15  1  0
M  END
$$$$
