
     RDKit          3D

 16 17  0  0  0  0  0  0  0  0999 V2000
   23.9390    4.4931   13.7197 N   0  0  0  0  0  0  0  0  0  0  0  0
   25.6716    2.1386    8.3787 C   0  0  0  0  0  0  0  0  0  0  0  0
   22.3172    7.3510   17.2935 C   0  0  0  0  0  0  0  0  0  0  0  0
   23.7210    5.1028   16.5292 C   0  0  0  0  0  0  0  0  0  0  0  0
   24.7467    3.1658   11.7788 N   0  0  0  0  0  0  0  0  0  0  0  0
   25.0835    3.3241   10.4070 C   0  0  0  0  0  0  0  0  0  0  0  0
   26.1578    2.5512    9.7497 C   0  0  0  0  0  0  0  0  0  0  0  0
   24.4118    4.1705    9.7607 O   0  0  0  0  0  0  0  0  0  0  0  0
   23.9727    4.1713   12.4428 C   0  0  0  0  0  0  0  0  0  0  0  0
   22.8553    5.2547   11.7494 S   0  0  0  0  0  0  0  0  0  0  0  0
   22.3944    6.0832   13.1763 C   0  0  0  0  0  0  0  0  0  0  0  0
   23.1596    5.4462   14.1222 C   0  0  0  0  0  0  0  0  0  0  0  0
   23.0925    5.8397   15.5548 C   0  0  0  0  0  0  0  0  0  0  0  0
   23.6679    5.4560   17.8669 C   0  0  0  0  0  0  0  0  0  0  0  0
   22.9650    6.5783   18.2328 C   0  0  0  0  0  0  0  0  0  0  0  0
   22.4041    6.9528   15.9817 C   0  0  0  0  0  0  0  0  0  0  0  0
  1  9  2  0
 12  1  1  0
  7  2  1  0
  3 15  2  0
 16  3  1  0
 13  4  1  0
  4 14  2  0
  5  6  1  0
  9  5  1  0
  6  7  1  0
  6  8  2  0
 10  9  1  0
 11 10  1  0
 12 11  2  0
 13 12  1  0
 13 16  2  0
 14 15  1  0
M  END
$$$$
