
     RDKit          3D

 16 17  0  0  0  0  0  0  0  0999 V2000
   23.7503    4.6285   13.6816 N   0  0  0  0  0  0  0  0  0  0  0  0
   26.6179    2.4704    9.0608 C   0  0  0  0  0  0  0  0  0  0  0  0
   23.4687    4.8229   18.0134 C   0  0  0  0  0  0  0  0  0  0  0  0
   22.7675    6.9068   16.3885 C   0  0  0  0  0  0  0  0  0  0  0  0
   24.1741    3.4112   11.5537 N   0  0  0  0  0  0  0  0  0  0  0  0
   24.8885    3.6824   10.3574 C   0  0  0  0  0  0  0  0  0  0  0  0
   25.1600    2.6069    9.3527 C   0  0  0  0  0  0  0  0  0  0  0  0
   25.2855    4.8591   10.1713 O   0  0  0  0  0  0  0  0  0  0  0  0
   23.9391    4.4280   12.5510 C   0  0  0  0  0  0  0  0  0  0  0  0
   23.8893    6.2103   11.9239 S   0  0  0  0  0  0  0  0  0  0  0  0
   23.5857    6.9165   13.5375 C   0  0  0  0  0  0  0  0  0  0  0  0
   23.5606    5.7086   14.3478 C   0  0  0  0  0  0  0  0  0  0  0  0
   23.3301    5.7964   15.8122 C   0  0  0  0  0  0  0  0  0  0  0  0
   22.5553    6.9817   17.7564 C   0  0  0  0  0  0  0  0  0  0  0  0
   22.9030    5.9414   18.5854 C   0  0  0  0  0  0  0  0  0  0  0  0
   23.6739    4.7632   16.6476 C   0  0  0  0  0  0  0  0  0  0  0  0
  1  9  2  0
 12  1  1  0
  2  7  1  6
  3 15  2  0
 16  3  1  0
 13  4  1  0
  4 14  2  0
  5  6  1  0
  9  5  1  0
  7  6  1  6
  6  8  2  0
 10  9  1  0
 11 10  1  0
 12 11  2  0
 13 12  1  0
 13 16  2  0
 14 15  1  0
M  END
$$$$
