
     RDKit          3D

 16 17  0  0  0  0  0  0  0  0999 V2000
   23.8306    4.6383   13.4050 N   0  0  0  0  0  0  0  0  0  0  0  0
   26.6714    2.3317    8.8410 C   0  0  0  0  0  0  0  0  0  0  0  0
   22.6333    7.3273   17.2873 C   0  0  0  0  0  0  0  0  0  0  0  0
   23.2043    4.8465   16.2902 C   0  0  0  0  0  0  0  0  0  0  0  0
   24.4664    3.3191   11.3939 N   0  0  0  0  0  0  0  0  0  0  0  0
   24.9301    3.5868   10.0793 C   0  0  0  0  0  0  0  0  0  0  0  0
   25.2107    2.4792    9.1127 C   0  0  0  0  0  0  0  0  0  0  0  0
   25.0969    4.7885    9.7551 O   0  0  0  0  0  0  0  0  0  0  0  0
   24.0857    4.3759   12.3004 C   0  0  0  0  0  0  0  0  0  0  0  0
   23.8760    6.0912   11.5347 S   0  0  0  0  0  0  0  0  0  0  0  0
   23.4341    6.8785   13.0773 C   0  0  0  0  0  0  0  0  0  0  0  0
   23.5020    5.7383   13.9782 C   0  0  0  0  0  0  0  0  0  0  0  0
   23.2035    5.9092   15.4228 C   0  0  0  0  0  0  0  0  0  0  0  0
   22.9247    5.0136   17.6377 C   0  0  0  0  0  0  0  0  0  0  0  0
   22.6359    6.2553   18.1528 C   0  0  0  0  0  0  0  0  0  0  0  0
   22.9141    7.1446   15.9461 C   0  0  0  0  0  0  0  0  0  0  0  0
  1  9  2  0
 12  1  1  0
  2  7  1  6
  3 15  2  0
 16  3  1  0
 13  4  1  0
  4 14  2  0
  5  6  1  0
  9  5  1  0
  7  6  1  6
  6  8  2  0
 10  9  1  0
 11 10  1  0
 12 11  2  0
 13 12  1  0
 13 16  2  0
 14 15  1  0
M  END
$$$$
