
     RDKit          3D

 16 17  0  0  0  0  0  0  0  0999 V2000
   23.7923    4.4022   13.0328 N   0  0  0  0  0  0  0  0  0  0  0  0
   25.6030    1.1901    8.3656 C   0  0  0  0  0  0  0  0  0  0  0  0
   21.7425    7.1893   16.4224 C   0  0  0  0  0  0  0  0  0  0  0  0
   23.7199    5.3825   15.7631 C   0  0  0  0  0  0  0  0  0  0  0  0
   24.6277    2.9415   11.2026 N   0  0  0  0  0  0  0  0  0  0  0  0
   25.1606    3.0214    9.8874 C   0  0  0  0  0  0  0  0  0  0  0  0
   26.2170    2.1143    9.3927 C   0  0  0  0  0  0  0  0  0  0  0  0
   24.6831    3.9188    9.1445 O   0  0  0  0  0  0  0  0  0  0  0  0
   23.9538    4.0716   11.7680 C   0  0  0  0  0  0  0  0  0  0  0  0
   23.1557    5.3305   10.9425 S   0  0  0  0  0  0  0  0  0  0  0  0
   22.6452    6.2360   12.3042 C   0  0  0  0  0  0  0  0  0  0  0  0
   23.1418    5.4801   13.3377 C   0  0  0  0  0  0  0  0  0  0  0  0
   22.9378    5.8881   14.7531 C   0  0  0  0  0  0  0  0  0  0  0  0
   23.5424    5.7524   17.0855 C   0  0  0  0  0  0  0  0  0  0  0  0
   22.5536    6.6533   17.3990 C   0  0  0  0  0  0  0  0  0  0  0  0
   21.9641    6.7861   15.1280 C   0  0  0  0  0  0  0  0  0  0  0  0
  1  9  2  0
 12  1  1  0
  7  2  1  0
  3 15  2  0
 16  3  1  0
 13  4  1  0
  4 14  2  0
  5  6  1  0
  9  5  1  0
  6  7  1  0
  6  8  2  0
 10  9  1  0
 11 10  1  0
 12 11  2  0
 13 12  1  0
 13 16  2  0
 14 15  1  0
M  END
$$$$
