
     RDKit          3D

 16 17  0  0  0  0  0  0  0  0999 V2000
   24.0100    4.7446   14.1038 N   0  0  0  0  0  0  0  0  0  0  0  0
   26.5967    2.9713    9.0740 C   0  0  0  0  0  0  0  0  0  0  0  0
   23.0851    4.8361   18.2878 C   0  0  0  0  0  0  0  0  0  0  0  0
   22.9250    7.0833   16.6960 C   0  0  0  0  0  0  0  0  0  0  0  0
   24.7923    3.6584   12.0088 N   0  0  0  0  0  0  0  0  0  0  0  0
   24.9307    3.8346   10.6052 C   0  0  0  0  0  0  0  0  0  0  0  0
   25.2352    2.7214    9.6825 C   0  0  0  0  0  0  0  0  0  0  0  0
   24.7793    5.0069   10.1715 O   0  0  0  0  0  0  0  0  0  0  0  0
   24.1921    4.6900   12.8004 C   0  0  0  0  0  0  0  0  0  0  0  0
   23.5323    6.1663   12.2634 S   0  0  0  0  0  0  0  0  0  0  0  0
   23.0460    6.7886   13.7837 C   0  0  0  0  0  0  0  0  0  0  0  0
   23.4390    5.7813   14.6304 C   0  0  0  0  0  0  0  0  0  0  0  0
   23.2151    5.8814   16.0971 C   0  0  0  0  0  0  0  0  0  0  0  0
   22.7139    7.1930   18.0600 C   0  0  0  0  0  0  0  0  0  0  0  0
   22.7969    6.0652   18.8404 C   0  0  0  0  0  0  0  0  0  0  0  0
   23.2849    4.7872   16.9296 C   0  0  0  0  0  0  0  0  0  0  0  0
  1  9  2  0
 12  1  1  0
  7  2  1  0
  3 15  2  0
 16  3  1  0
 13  4  1  0
  4 14  2  0
  5  6  1  0
  9  5  1  0
  6  7  1  0
  6  8  2  0
 10  9  1  0
 11 10  1  0
 12 11  2  0
 13 12  1  0
 13 16  2  0
 14 15  1  0
M  END
$$$$
