
     RDKit          3D

 16 17  0  0  0  0  0  0  0  0999 V2000
   24.0018    4.6386   13.1510 N   0  0  0  0  0  0  0  0  0  0  0  0
   25.3083    1.8967    7.9668 C   0  0  0  0  0  0  0  0  0  0  0  0
   23.3219    5.4452   17.3504 C   0  0  0  0  0  0  0  0  0  0  0  0
   22.4903    7.1554   15.3861 C   0  0  0  0  0  0  0  0  0  0  0  0
   24.8744    3.2221   11.3014 N   0  0  0  0  0  0  0  0  0  0  0  0
   25.2228    3.3980    9.9365 C   0  0  0  0  0  0  0  0  0  0  0  0
   26.0139    2.3655    9.1963 C   0  0  0  0  0  0  0  0  0  0  0  0
   24.8429    4.4527    9.3708 O   0  0  0  0  0  0  0  0  0  0  0  0
   24.2664    4.2766   12.0773 C   0  0  0  0  0  0  0  0  0  0  0  0
   23.5688    5.7333   11.0955 S   0  0  0  0  0  0  0  0  0  0  0  0
   23.0038    6.6176   12.5424 C   0  0  0  0  0  0  0  0  0  0  0  0
   23.4169    5.6939   13.5876 C   0  0  0  0  0  0  0  0  0  0  0  0
   23.1508    6.0124   15.0134 C   0  0  0  0  0  0  0  0  0  0  0  0
   22.2454    7.4462   16.7193 C   0  0  0  0  0  0  0  0  0  0  0  0
   22.6579    6.5953   17.7175 C   0  0  0  0  0  0  0  0  0  0  0  0
   23.5586    5.1692   16.0166 C   0  0  0  0  0  0  0  0  0  0  0  0
  1  9  2  0
 12  1  1  0
  2  7  1  6
  3 15  2  0
 16  3  1  0
 13  4  1  0
  4 14  2  0
  5  6  1  0
  9  5  1  0
  7  6  1  6
  6  8  2  0
 10  9  1  0
 11 10  1  0
 12 11  2  0
 13 12  1  0
 13 16  2  0
 14 15  1  0
M  END
$$$$
