
     RDKit          3D

 16 17  0  0  0  0  0  0  0  0999 V2000
   24.1497    4.6166   13.7041 N   0  0  0  0  0  0  0  0  0  0  0  0
   26.6583    2.9352    8.6189 C   0  0  0  0  0  0  0  0  0  0  0  0
   22.2764    7.0388   17.4745 C   0  0  0  0  0  0  0  0  0  0  0  0
   24.0945    5.1945   16.5246 C   0  0  0  0  0  0  0  0  0  0  0  0
   24.9843    3.4321   11.6839 N   0  0  0  0  0  0  0  0  0  0  0  0
   24.9471    3.4191   10.2630 C   0  0  0  0  0  0  0  0  0  0  0  0
   25.5480    2.3384    9.4541 C   0  0  0  0  0  0  0  0  0  0  0  0
   24.3669    4.3902    9.7103 O   0  0  0  0  0  0  0  0  0  0  0  0
   24.1980    4.3848   12.4084 C   0  0  0  0  0  0  0  0  0  0  0  0
   23.0813    5.5083   11.7807 S   0  0  0  0  0  0  0  0  0  0  0  0
   22.6015    6.2329   13.2570 C   0  0  0  0  0  0  0  0  0  0  0  0
   23.3609    5.5354   14.1641 C   0  0  0  0  0  0  0  0  0  0  0  0
   23.2773    5.8277   15.6198 C   0  0  0  0  0  0  0  0  0  0  0  0
   24.0289    5.4556   17.8827 C   0  0  0  0  0  0  0  0  0  0  0  0
   23.1184    6.3767   18.3414 C   0  0  0  0  0  0  0  0  0  0  0  0
   22.3859    6.7397   16.1382 C   0  0  0  0  0  0  0  0  0  0  0  0
  1  9  2  0
 12  1  1  0
  7  2  1  0
  3 15  2  0
 16  3  1  0
 13  4  1  0
  4 14  2  0
  5  6  1  0
  9  5  1  0
  6  7  1  0
  6  8  2  0
 10  9  1  0
 11 10  1  0
 12 11  2  0
 13 12  1  0
 13 16  2  0
 14 15  1  0
M  END
$$$$
