
     RDKit          3D

 16 17  0  0  0  0  0  0  0  0999 V2000
   23.8650    4.4656   12.6530 N   0  0  0  0  0  0  0  0  0  0  0  0
   25.6442    1.5222    7.7364 C   0  0  0  0  0  0  0  0  0  0  0  0
   23.2519    5.5457   16.8236 C   0  0  0  0  0  0  0  0  0  0  0  0
   22.3762    7.0841   14.7402 C   0  0  0  0  0  0  0  0  0  0  0  0
   24.5868    2.8954   10.8633 N   0  0  0  0  0  0  0  0  0  0  0  0
   25.4226    2.9910    9.7199 C   0  0  0  0  0  0  0  0  0  0  0  0
   26.0867    1.7824    9.1385 C   0  0  0  0  0  0  0  0  0  0  0  0
   25.5855    4.1280    9.2122 O   0  0  0  0  0  0  0  0  0  0  0  0
   24.1699    4.0613   11.6052 C   0  0  0  0  0  0  0  0  0  0  0  0
   24.0059    5.6618   10.6134 S   0  0  0  0  0  0  0  0  0  0  0  0
   23.4968    6.6435   12.0175 C   0  0  0  0  0  0  0  0  0  0  0  0
   23.5160    5.6307   13.0616 C   0  0  0  0  0  0  0  0  0  0  0  0
   23.1512    5.9886   14.4559 C   0  0  0  0  0  0  0  0  0  0  0  0
   22.0396    7.4122   16.0444 C   0  0  0  0  0  0  0  0  0  0  0  0
   22.4730    6.6476   17.1017 C   0  0  0  0  0  0  0  0  0  0  0  0
   23.5791    5.2315   15.5177 C   0  0  0  0  0  0  0  0  0  0  0  0
  1  9  2  0
 12  1  1  0
  2  7  1  6
  3 15  2  0
 16  3  1  0
 13  4  1  0
  4 14  2  0
  5  6  1  0
  9  5  1  0
  7  6  1  6
  6  8  2  0
 10  9  1  0
 11 10  1  0
 12 11  2  0
 13 12  1  0
 13 16  2  0
 14 15  1  0
M  END
$$$$
