
     RDKit          3D

 16 17  0  0  0  0  0  0  0  0999 V2000
   23.9782    4.4965   13.8629 N   0  0  0  0  0  0  0  0  0  0  0  0
   24.9886    1.8043    8.7449 C   0  0  0  0  0  0  0  0  0  0  0  0
   23.7426    5.0358   18.1085 C   0  0  0  0  0  0  0  0  0  0  0  0
   22.4778    6.7305   16.3372 C   0  0  0  0  0  0  0  0  0  0  0  0
   24.6575    3.2961   11.7944 N   0  0  0  0  0  0  0  0  0  0  0  0
   25.0948    3.5117   10.4593 C   0  0  0  0  0  0  0  0  0  0  0  0
   25.9017    2.5265    9.7099 C   0  0  0  0  0  0  0  0  0  0  0  0
   24.7574    4.6032    9.9300 O   0  0  0  0  0  0  0  0  0  0  0  0
   24.1404    4.3904   12.5601 C   0  0  0  0  0  0  0  0  0  0  0  0
   23.5790    5.8927   11.9847 S   0  0  0  0  0  0  0  0  0  0  0  0
   23.1556    6.5926   13.4900 C   0  0  0  0  0  0  0  0  0  0  0  0
   23.4874    5.5859   14.3632 C   0  0  0  0  0  0  0  0  0  0  0  0
   23.2886    5.7451   15.8283 C   0  0  0  0  0  0  0  0  0  0  0  0
   22.2825    6.8917   17.6985 C   0  0  0  0  0  0  0  0  0  0  0  0
   22.9190    6.0402   18.5688 C   0  0  0  0  0  0  0  0  0  0  0  0
   23.8991    4.9231   16.7484 C   0  0  0  0  0  0  0  0  0  0  0  0
  1  9  2  0
 12  1  1  0
  7  2  1  0
  3 15  2  0
 16  3  1  0
 13  4  1  0
  4 14  2  0
  5  6  1  0
  9  5  1  0
  6  7  1  0
  6  8  2  0
 10  9  1  0
 11 10  1  0
 12 11  2  0
 13 12  1  0
 13 16  2  0
 14 15  1  0
M  END
$$$$
