
     RDKit          3D

 16 17  0  0  0  0  0  0  0  0999 V2000
   23.7495    4.5871   13.2058 N   0  0  0  0  0  0  0  0  0  0  0  0
   25.8224    2.6348    7.8385 C   0  0  0  0  0  0  0  0  0  0  0  0
   22.9555    7.5011   17.0079 C   0  0  0  0  0  0  0  0  0  0  0  0
   22.0807    5.4420   15.3942 C   0  0  0  0  0  0  0  0  0  0  0  0
   24.3228    3.1381   11.2686 N   0  0  0  0  0  0  0  0  0  0  0  0
   25.1821    3.0124   10.1434 C   0  0  0  0  0  0  0  0  0  0  0  0
   24.7670    2.3580    8.8853 C   0  0  0  0  0  0  0  0  0  0  0  0
   26.3391    3.4935   10.2673 O   0  0  0  0  0  0  0  0  0  0  0  0
   24.4815    4.2426   12.1663 C   0  0  0  0  0  0  0  0  0  0  0  0
   25.6888    5.4446   12.1378 S   0  0  0  0  0  0  0  0  0  0  0  0
   25.1726    6.3473   13.4993 C   0  0  0  0  0  0  0  0  0  0  0  0
   24.0669    5.6360   13.8964 C   0  0  0  0  0  0  0  0  0  0  0  0
   23.2666    6.0584   15.0765 C   0  0  0  0  0  0  0  0  0  0  0  0
   21.3242    5.8236   16.4894 C   0  0  0  0  0  0  0  0  0  0  0  0
   21.7725    6.8508   17.2841 C   0  0  0  0  0  0  0  0  0  0  0  0
   23.6642    7.0802   15.9089 C   0  0  0  0  0  0  0  0  0  0  0  0
  1  9  2  0
 12  1  1  0
  7  2  1  0
  3 15  2  0
 16  3  1  0
 13  4  1  0
  4 14  2  0
  5  6  1  0
  9  5  1  0
  6  7  1  0
  6  8  2  0
 10  9  1  0
 11 10  1  0
 12 11  2  0
 13 12  1  0
 13 16  2  0
 14 15  1  0
M  END
$$$$
