
     RDKit          3D

 16 17  0  0  0  0  0  0  0  0999 V2000
   23.6685    4.7246   12.1704 N   0  0  0  0  0  0  0  0  0  0  0  0
   25.7815    0.6723    8.5076 C   0  0  0  0  0  0  0  0  0  0  0  0
   20.8944    6.6106   14.9226 C   0  0  0  0  0  0  0  0  0  0  0  0
   23.5927    6.5584   15.3590 C   0  0  0  0  0  0  0  0  0  0  0  0
   24.1824    3.3888   10.1355 N   0  0  0  0  0  0  0  0  0  0  0  0
   25.3378    2.9172    9.4588 C   0  0  0  0  0  0  0  0  0  0  0  0
   25.2283    2.0359    8.2542 C   0  0  0  0  0  0  0  0  0  0  0  0
   26.4574    3.2663    9.9076 O   0  0  0  0  0  0  0  0  0  0  0  0
   24.2716    4.2171   11.3143 C   0  0  0  0  0  0  0  0  0  0  0  0
   26.0063    4.7936   11.7947 S   0  0  0  0  0  0  0  0  0  0  0  0
   25.4562    5.7082   13.2284 C   0  0  0  0  0  0  0  0  0  0  0  0
   24.0246    5.4595   13.1601 C   0  0  0  0  0  0  0  0  0  0  0  0
   23.1163    6.0390   14.1822 C   0  0  0  0  0  0  0  0  0  0  0  0
   22.7389    7.0977   16.3087 C   0  0  0  0  0  0  0  0  0  0  0  0
   21.3799    7.1306   16.1025 C   0  0  0  0  0  0  0  0  0  0  0  0
   21.7586    6.0762   13.9853 C   0  0  0  0  0  0  0  0  0  0  0  0
  1  9  2  0
 12  1  1  0
  2  7  1  6
  3 15  2  0
 16  3  1  0
 13  4  1  0
  4 14  2  0
  5  6  1  0
  9  5  1  0
  7  6  1  6
  6  8  2  0
 10  9  1  0
 11 10  1  0
 12 11  2  0
 13 12  1  0
 13 16  2  0
 14 15  1  0
M  END
$$$$
