
     RDKit          3D

 16 17  0  0  0  0  0  0  0  0999 V2000
   23.6535    4.3975   14.1434 N   0  0  0  0  0  0  0  0  0  0  0  0
   26.5435    2.6630    9.4512 C   0  0  0  0  0  0  0  0  0  0  0  0
   22.1654    6.6183   18.1725 C   0  0  0  0  0  0  0  0  0  0  0  0
   23.7248    4.6404   17.0475 C   0  0  0  0  0  0  0  0  0  0  0  0
   24.1675    3.2932   11.9761 N   0  0  0  0  0  0  0  0  0  0  0  0
   24.6459    3.5545   10.6634 C   0  0  0  0  0  0  0  0  0  0  0  0
   25.0691    2.4853    9.7355 C   0  0  0  0  0  0  0  0  0  0  0  0
   24.6948    4.7640   10.3169 O   0  0  0  0  0  0  0  0  0  0  0  0
   23.8163    4.3829   12.8364 C   0  0  0  0  0  0  0  0  0  0  0  0
   23.5047    5.9996   12.3977 S   0  0  0  0  0  0  0  0  0  0  0  0
   23.1736    6.6213   13.9593 C   0  0  0  0  0  0  0  0  0  0  0  0
   23.3313    5.5018   14.7390 C   0  0  0  0  0  0  0  0  0  0  0  0
   23.1383    5.5601   16.2124 C   0  0  0  0  0  0  0  0  0  0  0  0
   23.5548    4.6812   18.4210 C   0  0  0  0  0  0  0  0  0  0  0  0
   22.7753    5.6721   18.9673 C   0  0  0  0  0  0  0  0  0  0  0  0
   22.3692    6.5286   16.8170 C   0  0  0  0  0  0  0  0  0  0  0  0
  1  9  2  0
 12  1  1  0
  7  2  1  0
  3 15  2  0
 16  3  1  0
 13  4  1  0
  4 14  2  0
  5  6  1  0
  9  5  1  0
  6  7  1  0
  6  8  2  0
 10  9  1  0
 11 10  1  0
 12 11  2  0
 13 12  1  0
 13 16  2  0
 14 15  1  0
M  END
$$$$
