
     RDKit          3D

 16 17  0  0  0  0  0  0  0  0999 V2000
   24.1161    4.6191   13.8458 N   0  0  0  0  0  0  0  0  0  0  0  0
   26.3861    3.0683    8.5660 C   0  0  0  0  0  0  0  0  0  0  0  0
   22.4070    7.0070   17.7335 C   0  0  0  0  0  0  0  0  0  0  0  0
   24.0924    5.0828   16.7686 C   0  0  0  0  0  0  0  0  0  0  0  0
   24.9401    3.4206   11.8275 N   0  0  0  0  0  0  0  0  0  0  0  0
   24.8058    3.5288   10.4185 C   0  0  0  0  0  0  0  0  0  0  0  0
   25.3744    2.4922    9.5009 C   0  0  0  0  0  0  0  0  0  0  0  0
   24.1917    4.5272    9.9680 O   0  0  0  0  0  0  0  0  0  0  0  0
   24.2568    4.3147   12.7315 C   0  0  0  0  0  0  0  0  0  0  0  0
   23.0745    5.5561   11.9359 S   0  0  0  0  0  0  0  0  0  0  0  0
   22.5940    6.3035   13.4867 C   0  0  0  0  0  0  0  0  0  0  0  0
   23.3928    5.5150   14.4121 C   0  0  0  0  0  0  0  0  0  0  0  0
   23.3250    5.7813   15.8715 C   0  0  0  0  0  0  0  0  0  0  0  0
   24.0238    5.3368   18.1297 C   0  0  0  0  0  0  0  0  0  0  0  0
   23.1808    6.3015   18.6288 C   0  0  0  0  0  0  0  0  0  0  0  0
   22.4866    6.7421   16.3790 C   0  0  0  0  0  0  0  0  0  0  0  0
  1  9  2  0
 12  1  1  0
  2  7  1  6
  3 15  2  0
 16  3  1  0
 13  4  1  0
  4 14  2  0
  5  6  1  0
  9  5  1  0
  7  6  1  6
  6  8  2  0
 10  9  1  0
 11 10  1  0
 12 11  2  0
 13 12  1  0
 13 16  2  0
 14 15  1  0
M  END
$$$$
