
     RDKit          3D

 16 17  0  0  0  0  0  0  0  0999 V2000
   24.2282    4.5414   13.7516 N   0  0  0  0  0  0  0  0  0  0  0  0
   25.5302    2.1368    8.2562 C   0  0  0  0  0  0  0  0  0  0  0  0
   23.9674    5.6779   17.8710 C   0  0  0  0  0  0  0  0  0  0  0  0
   22.2235    6.6546   15.9699 C   0  0  0  0  0  0  0  0  0  0  0  0
   25.1762    3.2637   11.8411 N   0  0  0  0  0  0  0  0  0  0  0  0
   25.2032    3.1675   10.4232 C   0  0  0  0  0  0  0  0  0  0  0  0
   25.9675    2.1276    9.7036 C   0  0  0  0  0  0  0  0  0  0  0  0
   24.5325    4.0260    9.7919 O   0  0  0  0  0  0  0  0  0  0  0  0
   24.3606    4.2575   12.4722 C   0  0  0  0  0  0  0  0  0  0  0  0
   23.3116    5.3736   11.7259 S   0  0  0  0  0  0  0  0  0  0  0  0
   22.7459    6.1643   13.1365 C   0  0  0  0  0  0  0  0  0  0  0  0
   23.4277    5.4908   14.1202 C   0  0  0  0  0  0  0  0  0  0  0  0
   23.2503    5.8420   15.5542 C   0  0  0  0  0  0  0  0  0  0  0  0
   22.0450    6.9907   17.3012 C   0  0  0  0  0  0  0  0  0  0  0  0
   22.9213    6.4969   18.2369 C   0  0  0  0  0  0  0  0  0  0  0  0
   24.0957    5.3779   16.5366 C   0  0  0  0  0  0  0  0  0  0  0  0
  1  9  2  0
 12  1  1  0
  7  2  1  0
  3 15  2  0
 16  3  1  0
 13  4  1  0
  4 14  2  0
  5  6  1  0
  9  5  1  0
  6  7  1  0
  6  8  2  0
 10  9  1  0
 11 10  1  0
 12 11  2  0
 13 12  1  0
 13 16  2  0
 14 15  1  0
M  END
$$$$
