
     RDKit          3D

 16 17  0  0  0  0  0  0  0  0999 V2000
   23.7789    4.6206   12.9923 N   0  0  0  0  0  0  0  0  0  0  0  0
   26.4265    2.1268    8.0485 C   0  0  0  0  0  0  0  0  0  0  0  0
   21.1289    6.4833   15.8385 C   0  0  0  0  0  0  0  0  0  0  0  0
   23.8259    6.1228   16.2923 C   0  0  0  0  0  0  0  0  0  0  0  0
   24.3279    3.3898   10.9031 N   0  0  0  0  0  0  0  0  0  0  0  0
   25.4012    2.9445   10.0846 C   0  0  0  0  0  0  0  0  0  0  0  0
   25.2129    2.0235    8.9446 C   0  0  0  0  0  0  0  0  0  0  0  0
   26.5459    3.3784   10.3791 O   0  0  0  0  0  0  0  0  0  0  0  0
   24.5954    4.2181   12.0403 C   0  0  0  0  0  0  0  0  0  0  0  0
   26.0781    4.9289   12.4873 S   0  0  0  0  0  0  0  0  0  0  0  0
   25.5528    5.7250   13.9104 C   0  0  0  0  0  0  0  0  0  0  0  0
   24.2248    5.3765   13.9450 C   0  0  0  0  0  0  0  0  0  0  0  0
   23.3355    5.8520   15.0379 C   0  0  0  0  0  0  0  0  0  0  0  0
   23.0110    6.5661   17.3202 C   0  0  0  0  0  0  0  0  0  0  0  0
   21.6696    6.7411   17.0795 C   0  0  0  0  0  0  0  0  0  0  0  0
   21.9847    6.0458   14.8570 C   0  0  0  0  0  0  0  0  0  0  0  0
  1  9  2  0
 12  1  1  0
  7  2  1  0
  3 15  2  0
 16  3  1  0
 13  4  1  0
  4 14  2  0
  5  6  1  0
  9  5  1  0
  6  7  1  0
  6  8  2  0
 10  9  1  0
 11 10  1  0
 12 11  2  0
 13 12  1  0
 13 16  2  0
 14 15  1  0
M  END
$$$$
