
     RDKit          3D

 16 17  0  0  0  0  0  0  0  0999 V2000
   23.6909    4.6780   13.1737 N   0  0  0  0  0  0  0  0  0  0  0  0
   25.3536    2.8091    7.7438 C   0  0  0  0  0  0  0  0  0  0  0  0
   23.1049    6.6092   17.5806 C   0  0  0  0  0  0  0  0  0  0  0  0
   21.8732    5.8058   15.2759 C   0  0  0  0  0  0  0  0  0  0  0  0
   24.1014    3.4772   11.0339 N   0  0  0  0  0  0  0  0  0  0  0  0
   25.2068    3.2067   10.1854 C   0  0  0  0  0  0  0  0  0  0  0  0
   25.1137    2.1972    9.0845 C   0  0  0  0  0  0  0  0  0  0  0  0
   26.2679    3.8458   10.3914 O   0  0  0  0  0  0  0  0  0  0  0  0
   24.2238    4.3089   12.2073 C   0  0  0  0  0  0  0  0  0  0  0  0
   25.8551    5.2448   12.3952 S   0  0  0  0  0  0  0  0  0  0  0  0
   25.3909    6.0246   13.9350 C   0  0  0  0  0  0  0  0  0  0  0  0
   24.0556    5.4750   14.1109 C   0  0  0  0  0  0  0  0  0  0  0  0
   23.2441    5.8496   15.2968 C   0  0  0  0  0  0  0  0  0  0  0  0
   21.1221    6.1570   16.3869 C   0  0  0  0  0  0  0  0  0  0  0  0
   21.7282    6.5628   17.5524 C   0  0  0  0  0  0  0  0  0  0  0  0
   23.8400    6.2559   16.4645 C   0  0  0  0  0  0  0  0  0  0  0  0
  1  9  2  0
 12  1  1  0
  2  7  1  6
  3 15  2  0
 16  3  1  0
 13  4  1  0
  4 14  2  0
  5  6  1  0
  9  5  1  0
  7  6  1  6
  6  8  2  0
 10  9  1  0
 11 10  1  0
 12 11  2  0
 13 12  1  0
 13 16  2  0
 14 15  1  0
M  END
$$$$
