
     RDKit          3D

 16 17  0  0  0  0  0  0  0  0999 V2000
   24.0270    4.4525   14.0488 N   0  0  0  0  0  0  0  0  0  0  0  0
   26.4516    2.5102    9.0174 C   0  0  0  0  0  0  0  0  0  0  0  0
   22.1350    6.6207   17.9585 C   0  0  0  0  0  0  0  0  0  0  0  0
   23.8156    4.6985   16.9144 C   0  0  0  0  0  0  0  0  0  0  0  0
   24.8555    3.4036   11.9525 N   0  0  0  0  0  0  0  0  0  0  0  0
   24.8502    3.5088   10.5351 C   0  0  0  0  0  0  0  0  0  0  0  0
   25.0841    2.3540    9.6434 C   0  0  0  0  0  0  0  0  0  0  0  0
   24.6325    4.6546   10.0605 O   0  0  0  0  0  0  0  0  0  0  0  0
   24.1889    4.3945   12.7429 C   0  0  0  0  0  0  0  0  0  0  0  0
   23.4023    5.8053   12.2006 S   0  0  0  0  0  0  0  0  0  0  0  0
   22.8955    6.4076   13.7222 C   0  0  0  0  0  0  0  0  0  0  0  0
   23.3840    5.4471   14.5736 C   0  0  0  0  0  0  0  0  0  0  0  0
   23.1799    5.5493   16.0430 C   0  0  0  0  0  0  0  0  0  0  0  0
   23.6360    4.7809   18.2848 C   0  0  0  0  0  0  0  0  0  0  0  0
   22.7959    5.7433   18.7906 C   0  0  0  0  0  0  0  0  0  0  0  0
   22.3512    6.4923   16.6080 C   0  0  0  0  0  0  0  0  0  0  0  0
  1  9  2  0
 12  1  1  0
  7  2  1  0
  3 15  2  0
 16  3  1  0
 13  4  1  0
  4 14  2  0
  5  6  1  0
  9  5  1  0
  6  7  1  0
  6  8  2  0
 10  9  1  0
 11 10  1  0
 12 11  2  0
 13 12  1  0
 13 16  2  0
 14 15  1  0
M  END
$$$$
