
     RDKit          3D

 16 17  0  0  0  0  0  0  0  0999 V2000
   23.8312    4.7444   13.2136 N   0  0  0  0  0  0  0  0  0  0  0  0
   25.1249    2.1922    7.9679 C   0  0  0  0  0  0  0  0  0  0  0  0
   22.3923    5.3212   17.2583 C   0  0  0  0  0  0  0  0  0  0  0  0
   23.1331    7.4129   15.6614 C   0  0  0  0  0  0  0  0  0  0  0  0
   24.3904    3.2996   11.2670 N   0  0  0  0  0  0  0  0  0  0  0  0
   25.2580    3.3674   10.1456 C   0  0  0  0  0  0  0  0  0  0  0  0
   25.6277    2.1402    9.3728 C   0  0  0  0  0  0  0  0  0  0  0  0
   25.7054    4.4958    9.8239 O   0  0  0  0  0  0  0  0  0  0  0  0
   24.2118    4.4164   12.1640 C   0  0  0  0  0  0  0  0  0  0  0  0
   24.7773    6.0998   11.5169 S   0  0  0  0  0  0  0  0  0  0  0  0
   24.3127    6.9818   13.0005 C   0  0  0  0  0  0  0  0  0  0  0  0
   23.7869    5.8854   13.7991 C   0  0  0  0  0  0  0  0  0  0  0  0
   23.2618    6.1409   15.1644 C   0  0  0  0  0  0  0  0  0  0  0  0
   22.6421    7.6440   16.9371 C   0  0  0  0  0  0  0  0  0  0  0  0
   22.2658    6.6016   17.7509 C   0  0  0  0  0  0  0  0  0  0  0  0
   22.8837    5.1070   15.9840 C   0  0  0  0  0  0  0  0  0  0  0  0
  1  9  2  0
 12  1  1  0
  2  7  1  6
  3 15  2  0
 16  3  1  0
 13  4  1  0
  4 14  2  0
  5  6  1  0
  9  5  1  0
  7  6  1  6
  6  8  2  0
 10  9  1  0
 11 10  1  0
 12 11  2  0
 13 12  1  0
 13 16  2  0
 14 15  1  0
M  END
$$$$
