
     RDKit          3D

 16 17  0  0  0  0  0  0  0  0999 V2000
   23.6445    5.0977   13.0031 N   0  0  0  0  0  0  0  0  0  0  0  0
   25.8627    2.4180    8.0693 C   0  0  0  0  0  0  0  0  0  0  0  0
   21.9101    5.4818   16.9521 C   0  0  0  0  0  0  0  0  0  0  0  0
   23.2553    7.5338   15.7462 C   0  0  0  0  0  0  0  0  0  0  0  0
   24.1188    3.8066   10.9300 N   0  0  0  0  0  0  0  0  0  0  0  0
   25.3131    3.5316   10.2138 C   0  0  0  0  0  0  0  0  0  0  0  0
   25.5143    2.2269    9.5086 C   0  0  0  0  0  0  0  0  0  0  0  0
   26.1969    4.4234   10.1926 O   0  0  0  0  0  0  0  0  0  0  0  0
   24.0562    4.8273   11.9488 C   0  0  0  0  0  0  0  0  0  0  0  0
   24.9624    6.4409   11.5643 S   0  0  0  0  0  0  0  0  0  0  0  0
   24.5251    7.2179   13.1134 C   0  0  0  0  0  0  0  0  0  0  0  0
   23.7463    6.1529   13.7260 C   0  0  0  0  0  0  0  0  0  0  0  0
   23.1514    6.3429   15.0734 C   0  0  0  0  0  0  0  0  0  0  0  0
   22.6974    7.7040   17.0039 C   0  0  0  0  0  0  0  0  0  0  0  0
   22.0183    6.6808   17.6222 C   0  0  0  0  0  0  0  0  0  0  0  0
   22.4718    5.3275   15.6984 C   0  0  0  0  0  0  0  0  0  0  0  0
  1  9  2  0
 12  1  1  0
  2  7  1  6
  3 15  2  0
 16  3  1  0
 13  4  1  0
  4 14  2  0
  5  6  1  0
  9  5  1  0
  7  6  1  6
  6  8  2  0
 10  9  1  0
 11 10  1  0
 12 11  2  0
 13 12  1  0
 13 16  2  0
 14 15  1  0
M  END
$$$$
