
     RDKit          3D

 18 19  0  0  0  0  0  0  0  0999 V2000
  -20.7637   18.6672  131.0539 O   0  0  0  0  0  0  0  0  0  0  0  0
  -21.0531   18.4355  132.2443 C   0  0  0  0  0  0  0  0  0  0  0  0
  -22.1789   18.9733  132.8141 O   0  0  0  0  0  0  0  0  0  0  0  0
  -20.1316   17.5585  133.0112 C   0  0  0  0  0  0  0  0  0  0  0  0
  -20.4653   17.1647  134.1738 N   0  0  0  0  0  0  0  0  0  0  0  0
  -18.8617   17.1888  132.3648 C   0  0  0  0  0  0  0  0  0  0  0  0
  -19.0757   16.4778  131.1733 O   0  0  0  0  0  0  0  0  0  0  0  0
  -18.0656   16.3345  133.2494 C   0  0  0  0  0  0  0  0  0  0  0  0
  -16.9042   15.9091  132.8816 O   0  0  0  0  0  0  0  0  0  0  0  0
  -18.5454   15.9359  134.5616 C   0  0  0  0  0  0  0  0  0  0  0  0
  -19.6894   16.3170  135.0413 C   0  0  0  0  0  0  0  0  0  0  0  0
  -20.2145   16.0391  136.3770 C   0  0  0  0  0  0  0  0  0  0  0  0
  -20.3246   17.1266  137.2646 C   0  0  0  0  0  0  0  0  0  0  0  0
  -20.7568   17.0258  138.5545 C   0  0  0  0  0  0  0  0  0  0  0  0
  -21.1061   15.7856  139.0162 C   0  0  0  0  0  0  0  0  0  0  0  0
  -21.0221   14.6989  138.2154 C   0  0  0  0  0  0  0  0  0  0  0  0
  -20.5692   14.8318  136.8820 C   0  0  0  0  0  0  0  0  0  0  0  0
  -20.4333   13.5757  136.1042 C   0  0  0  0  0  0  0  0  0  0  0  0
  1  2  2  0
  2  3  1  0
  2  4  1  0
  4  5  2  0
  4  6  1  0
  5 11  1  0
  6  7  1  0
  6  8  1  0
  8  9  2  0
  8 10  1  0
 10 11  2  0
 11 12  1  0
 12 13  2  0
 12 17  1  0
 13 14  1  0
 14 15  2  0
 15 16  1  0
 16 17  2  0
 18 17  1  6
M  END
$$$$
