
     RDKit          3D

 18 19  0  0  0  0  0  0  0  0999 V2000
  -16.9581   16.1443  132.1457 O   0  0  0  0  0  0  0  0  0  0  0  0
  -17.5607   16.0363  133.2318 C   0  0  0  0  0  0  0  0  0  0  0  0
  -16.9476   15.4825  134.3268 O   0  0  0  0  0  0  0  0  0  0  0  0
  -18.9606   16.5300  133.2863 C   0  0  0  0  0  0  0  0  0  0  0  0
  -19.5954   16.4911  134.3879 N   0  0  0  0  0  0  0  0  0  0  0  0
  -19.5403   17.0470  132.0358 C   0  0  0  0  0  0  0  0  0  0  0  0
  -18.8216   18.1511  131.5504 O   0  0  0  0  0  0  0  0  0  0  0  0
  -20.9220   17.4830  132.2528 C   0  0  0  0  0  0  0  0  0  0  0  0
  -21.6225   17.9561  131.2779 O   0  0  0  0  0  0  0  0  0  0  0  0
  -21.5527   17.4014  133.5591 C   0  0  0  0  0  0  0  0  0  0  0  0
  -20.9499   16.9280  134.6064 C   0  0  0  0  0  0  0  0  0  0  0  0
  -21.5291   16.7278  135.9336 C   0  0  0  0  0  0  0  0  0  0  0  0
  -21.8329   17.8800  136.6839 C   0  0  0  0  0  0  0  0  0  0  0  0
  -22.3385   17.8614  137.9507 C   0  0  0  0  0  0  0  0  0  0  0  0
  -22.5653   16.6425  138.5304 C   0  0  0  0  0  0  0  0  0  0  0  0
  -22.2935   15.4971  137.8646 C   0  0  0  0  0  0  0  0  0  0  0  0
  -21.7682   15.5452  136.5522 C   0  0  0  0  0  0  0  0  0  0  0  0
  -21.4259   14.2419  135.9314 C   0  0  0  0  0  0  0  0  0  0  0  0
  1  2  2  0
  2  3  1  0
  2  4  1  0
  4  5  2  0
  4  6  1  0
  5 11  1  0
  6  7  1  0
  6  8  1  0
  8  9  2  0
  8 10  1  0
 10 11  2  0
 11 12  1  0
 12 13  2  0
 12 17  1  0
 13 14  1  0
 14 15  2  0
 15 16  1  0
 16 17  2  0
 18 17  1  6
M  END
$$$$
