
     RDKit          3D

 18 19  0  0  0  0  0  0  0  0999 V2000
  -17.7145   15.3646  133.3692 O   0  0  0  0  0  0  0  0  0  0  0  0
  -18.6234   15.4739  134.2156 C   0  0  0  0  0  0  0  0  0  0  0  0
  -18.4909   14.9290  135.4674 O   0  0  0  0  0  0  0  0  0  0  0  0
  -19.8458   16.2144  133.8109 C   0  0  0  0  0  0  0  0  0  0  0  0
  -20.8213   16.3028  134.6225 N   0  0  0  0  0  0  0  0  0  0  0  0
  -19.8537   16.8155  132.4671 C   0  0  0  0  0  0  0  0  0  0  0  0
  -18.8307   17.7655  132.3195 O   0  0  0  0  0  0  0  0  0  0  0  0
  -21.1261   17.4975  132.2179 C   0  0  0  0  0  0  0  0  0  0  0  0
  -21.3491   18.0802  131.0883 O   0  0  0  0  0  0  0  0  0  0  0  0
  -22.1766   17.5452  133.2204 C   0  0  0  0  0  0  0  0  0  0  0  0
  -22.0689   16.9808  134.3840 C   0  0  0  0  0  0  0  0  0  0  0  0
  -23.0999   16.9027  135.4174 C   0  0  0  0  0  0  0  0  0  0  0  0
  -24.3607   16.4073  135.0328 C   0  0  0  0  0  0  0  0  0  0  0  0
  -25.4358   16.3103  135.8668 C   0  0  0  0  0  0  0  0  0  0  0  0
  -25.2785   16.7217  137.1627 C   0  0  0  0  0  0  0  0  0  0  0  0
  -24.0936   17.2091  137.5961 C   0  0  0  0  0  0  0  0  0  0  0  0
  -22.9953   17.3001  136.7095 C   0  0  0  0  0  0  0  0  0  0  0  0
  -21.7615   17.9212  137.2508 C   0  0  0  0  0  0  0  0  0  0  0  0
  1  2  2  0
  2  3  1  0
  2  4  1  0
  4  5  2  0
  4  6  1  0
  5 11  1  0
  6  7  1  0
  6  8  1  0
  8  9  2  0
  8 10  1  0
 10 11  2  0
 11 12  1  0
 12 13  2  0
 12 17  1  0
 13 14  1  0
 14 15  2  0
 15 16  1  0
 16 17  2  0
 18 17  1  6
M  END
$$$$
