
     RDKit          3D

 18 19  0  0  0  0  0  0  0  0999 V2000
  -16.8259   16.1873  134.4856 O   0  0  0  0  0  0  0  0  0  0  0  0
  -17.8837   16.0105  135.1215 C   0  0  0  0  0  0  0  0  0  0  0  0
  -17.8730   15.4147  136.3569 O   0  0  0  0  0  0  0  0  0  0  0  0
  -19.1453   16.4703  134.4864 C   0  0  0  0  0  0  0  0  0  0  0  0
  -20.1840   16.6311  135.2028 N   0  0  0  0  0  0  0  0  0  0  0  0
  -19.1160   16.7191  133.0358 C   0  0  0  0  0  0  0  0  0  0  0  0
  -18.1951   17.7250  132.7021 O   0  0  0  0  0  0  0  0  0  0  0  0
  -20.4326   17.1544  132.5633 C   0  0  0  0  0  0  0  0  0  0  0  0
  -20.6308   17.4108  131.3143 O   0  0  0  0  0  0  0  0  0  0  0  0
  -21.5559   17.3133  133.4710 C   0  0  0  0  0  0  0  0  0  0  0  0
  -21.4766   17.0683  134.7430 C   0  0  0  0  0  0  0  0  0  0  0  0
  -22.5691   17.1163  135.7131 C   0  0  0  0  0  0  0  0  0  0  0  0
  -22.7551   15.9842  136.5296 C   0  0  0  0  0  0  0  0  0  0  0  0
  -23.7515   15.8572  137.4525 C   0  0  0  0  0  0  0  0  0  0  0  0
  -24.6281   16.8988  137.5940 C   0  0  0  0  0  0  0  0  0  0  0  0
  -24.5063   18.0145  136.8393 C   0  0  0  0  0  0  0  0  0  0  0  0
  -23.4644   18.1193  135.8885 C   0  0  0  0  0  0  0  0  0  0  0  0
  -23.4574   19.3440  135.0511 C   0  0  0  0  0  0  0  0  0  0  0  0
  1  2  2  0
  2  3  1  0
  2  4  1  0
  4  5  2  0
  4  6  1  0
  5 11  1  0
  6  7  1  0
  6  8  1  0
  8  9  2  0
  8 10  1  0
 10 11  2  0
 11 12  1  0
 12 13  2  0
 12 17  1  0
 13 14  1  0
 14 15  2  0
 15 16  1  0
 16 17  2  0
 18 17  1  6
M  END
$$$$
