
     RDKit          3D

 18 19  0  0  0  0  0  0  0  0999 V2000
  -21.1126   18.8324  131.2187 O   0  0  0  0  0  0  0  0  0  0  0  0
  -21.3095   18.4513  132.3737 C   0  0  0  0  0  0  0  0  0  0  0  0
  -22.3953   18.8856  133.0878 O   0  0  0  0  0  0  0  0  0  0  0  0
  -20.3558   17.5071  133.0013 C   0  0  0  0  0  0  0  0  0  0  0  0
  -20.5715   17.0193  134.1377 N   0  0  0  0  0  0  0  0  0  0  0  0
  -19.1466   17.1737  132.2189 C   0  0  0  0  0  0  0  0  0  0  0  0
  -19.5707   16.5624  131.0123 O   0  0  0  0  0  0  0  0  0  0  0  0
  -18.2691   16.2448  132.9327 C   0  0  0  0  0  0  0  0  0  0  0  0
  -17.1587   15.8449  132.4320 O   0  0  0  0  0  0  0  0  0  0  0  0
  -18.6196   15.7277  134.2556 C   0  0  0  0  0  0  0  0  0  0  0  0
  -19.7179   16.0976  134.8398 C   0  0  0  0  0  0  0  0  0  0  0  0
  -20.1056   15.7147  136.1950 C   0  0  0  0  0  0  0  0  0  0  0  0
  -21.4526   15.3284  136.3910 C   0  0  0  0  0  0  0  0  0  0  0  0
  -21.9698   14.9945  137.6131 C   0  0  0  0  0  0  0  0  0  0  0  0
  -21.1683   15.0241  138.7332 C   0  0  0  0  0  0  0  0  0  0  0  0
  -19.8705   15.3937  138.5724 C   0  0  0  0  0  0  0  0  0  0  0  0
  -19.3435   15.7382  137.3120 C   0  0  0  0  0  0  0  0  0  0  0  0
  -17.9212   16.2173  137.3140 C   0  0  0  0  0  0  0  0  0  0  0  0
  1  2  2  0
  2  3  1  0
  2  4  1  0
  4  5  2  0
  4  6  1  0
  5 11  1  0
  6  7  1  0
  6  8  1  0
  8  9  2  0
  8 10  1  0
 10 11  2  0
 11 12  1  0
 12 13  2  0
 12 17  1  0
 13 14  1  0
 14 15  2  0
 15 16  1  0
 16 17  2  0
 17 18  1  0
M  END
$$$$
