
     RDKit          3D

 18 19  0  0  0  0  0  0  0  0999 V2000
  -17.0287   16.0237  133.2635 O   0  0  0  0  0  0  0  0  0  0  0  0
  -17.8832   16.0061  134.1509 C   0  0  0  0  0  0  0  0  0  0  0  0
  -17.5918   15.5400  135.4061 O   0  0  0  0  0  0  0  0  0  0  0  0
  -19.2493   16.4972  133.8558 C   0  0  0  0  0  0  0  0  0  0  0  0
  -20.1332   16.5448  134.7461 N   0  0  0  0  0  0  0  0  0  0  0  0
  -19.5100   16.9260  132.4652 C   0  0  0  0  0  0  0  0  0  0  0  0
  -18.6330   18.0014  132.1759 O   0  0  0  0  0  0  0  0  0  0  0  0
  -20.8886   17.3815  132.2798 C   0  0  0  0  0  0  0  0  0  0  0  0
  -21.3211   17.7787  131.1402 O   0  0  0  0  0  0  0  0  0  0  0  0
  -21.8406   17.4046  133.3905 C   0  0  0  0  0  0  0  0  0  0  0  0
  -21.4867   17.0015  134.5724 C   0  0  0  0  0  0  0  0  0  0  0  0
  -22.3887   16.8949  135.7163 C   0  0  0  0  0  0  0  0  0  0  0  0
  -22.9307   18.1012  136.2194 C   0  0  0  0  0  0  0  0  0  0  0  0
  -23.7475   18.1599  137.3158 C   0  0  0  0  0  0  0  0  0  0  0  0
  -24.0814   17.0061  137.9904 C   0  0  0  0  0  0  0  0  0  0  0  0
  -23.5723   15.8339  137.5284 C   0  0  0  0  0  0  0  0  0  0  0  0
  -22.7303   15.7792  136.4001 C   0  0  0  0  0  0  0  0  0  0  0  0
  -22.1723   14.4247  136.0739 C   0  0  0  0  0  0  0  0  0  0  0  0
  1  2  2  0
  2  3  1  0
  2  4  1  0
  4  5  2  0
  4  6  1  0
  5 11  1  0
  6  7  1  0
  6  8  1  0
  8  9  2  0
  8 10  1  0
 10 11  2  0
 11 12  1  0
 12 13  2  0
 12 17  1  0
 13 14  1  0
 14 15  2  0
 15 16  1  0
 16 17  2  0
 17 18  1  0
M  END
$$$$
