
     RDKit          3D

 18 19  0  0  0  0  0  0  0  0999 V2000
  -21.1678   19.1560  131.4276 O   0  0  0  0  0  0  0  0  0  0  0  0
  -21.3533   18.8440  132.6204 C   0  0  0  0  0  0  0  0  0  0  0  0
  -22.3646   19.4152  133.3499 O   0  0  0  0  0  0  0  0  0  0  0  0
  -20.4375   17.8345  133.2108 C   0  0  0  0  0  0  0  0  0  0  0  0
  -20.6669   17.3898  134.3804 N   0  0  0  0  0  0  0  0  0  0  0  0
  -19.2967   17.3991  132.3886 C   0  0  0  0  0  0  0  0  0  0  0  0
  -19.7207   16.7979  131.1929 O   0  0  0  0  0  0  0  0  0  0  0  0
  -18.4884   16.4150  133.1128 C   0  0  0  0  0  0  0  0  0  0  0  0
  -17.4270   15.9141  132.5766 O   0  0  0  0  0  0  0  0  0  0  0  0
  -18.8447   15.9680  134.4485 C   0  0  0  0  0  0  0  0  0  0  0  0
  -19.8799   16.4153  135.0906 C   0  0  0  0  0  0  0  0  0  0  0  0
  -20.2662   16.0906  136.4626 C   0  0  0  0  0  0  0  0  0  0  0  0
  -19.3921   16.4942  137.4901 C   0  0  0  0  0  0  0  0  0  0  0  0
  -19.5890   16.2322  138.8143 C   0  0  0  0  0  0  0  0  0  0  0  0
  -20.7101   15.5308  139.1671 C   0  0  0  0  0  0  0  0  0  0  0  0
  -21.5897   15.1124  138.2288 C   0  0  0  0  0  0  0  0  0  0  0  0
  -21.3602   15.3965  136.8623 C   0  0  0  0  0  0  0  0  0  0  0  0
  -22.3353   14.8292  135.8987 C   0  0  0  0  0  0  0  0  0  0  0  0
  1  2  2  0
  2  3  1  0
  2  4  1  0
  4  5  2  0
  4  6  1  0
  5 11  1  0
  6  7  1  0
  6  8  1  0
  8  9  2  0
  8 10  1  0
 10 11  2  0
 11 12  1  0
 12 13  2  0
 12 17  1  0
 13 14  1  0
 14 15  2  0
 15 16  1  0
 16 17  2  0
 18 17  1  6
M  END
$$$$
