
     RDKit          3D

 18 19  0  0  0  0  0  0  0  0999 V2000
  -20.9023   18.9366  131.1979 O   0  0  0  0  0  0  0  0  0  0  0  0
  -21.1603   18.6247  132.3616 C   0  0  0  0  0  0  0  0  0  0  0  0
  -22.2302   19.1706  133.0210 O   0  0  0  0  0  0  0  0  0  0  0  0
  -20.2989   17.6424  133.0600 C   0  0  0  0  0  0  0  0  0  0  0  0
  -20.6041   17.1942  134.1923 N   0  0  0  0  0  0  0  0  0  0  0  0
  -19.0704   17.2223  132.3530 C   0  0  0  0  0  0  0  0  0  0  0  0
  -19.4633   16.6084  131.1372 O   0  0  0  0  0  0  0  0  0  0  0  0
  -18.2887   16.2616  133.1329 C   0  0  0  0  0  0  0  0  0  0  0  0
  -17.1780   15.7873  132.7029 O   0  0  0  0  0  0  0  0  0  0  0  0
  -18.7403   15.7962  134.4445 C   0  0  0  0  0  0  0  0  0  0  0  0
  -19.8453   16.2418  134.9591 C   0  0  0  0  0  0  0  0  0  0  0  0
  -20.3277   15.9133  136.2980 C   0  0  0  0  0  0  0  0  0  0  0  0
  -19.4765   16.2329  137.3820 C   0  0  0  0  0  0  0  0  0  0  0  0
  -19.7734   15.9376  138.6848 C   0  0  0  0  0  0  0  0  0  0  0  0
  -20.9525   15.2966  138.9958 C   0  0  0  0  0  0  0  0  0  0  0  0
  -21.7873   14.9768  137.9723 C   0  0  0  0  0  0  0  0  0  0  0  0
  -21.4760   15.2817  136.6325 C   0  0  0  0  0  0  0  0  0  0  0  0
  -22.4523   14.7776  135.6102 C   0  0  0  0  0  0  0  0  0  0  0  0
  1  2  2  0
  2  3  1  0
  2  4  1  0
  4  5  2  0
  4  6  1  0
  5 11  1  0
  6  7  1  0
  6  8  1  0
  8  9  2  0
  8 10  1  0
 10 11  2  0
 11 12  1  0
 12 13  2  0
 12 17  1  0
 13 14  1  0
 14 15  2  0
 15 16  1  0
 16 17  2  0
 17 18  1  0
M  END
$$$$
