
     RDKit          3D

 18 19  0  0  0  0  0  0  0  0999 V2000
  -17.3674   15.5473  133.5347 O   0  0  0  0  0  0  0  0  0  0  0  0
  -18.3076   15.6042  134.3289 C   0  0  0  0  0  0  0  0  0  0  0  0
  -18.2383   14.9940  135.5538 O   0  0  0  0  0  0  0  0  0  0  0  0
  -19.5341   16.3452  133.9532 C   0  0  0  0  0  0  0  0  0  0  0  0
  -20.4814   16.4945  134.7633 N   0  0  0  0  0  0  0  0  0  0  0  0
  -19.5781   16.8955  132.5817 C   0  0  0  0  0  0  0  0  0  0  0  0
  -18.5068   17.8149  132.4533 O   0  0  0  0  0  0  0  0  0  0  0  0
  -20.8339   17.5970  132.3112 C   0  0  0  0  0  0  0  0  0  0  0  0
  -21.0768   18.1317  131.1715 O   0  0  0  0  0  0  0  0  0  0  0  0
  -21.8741   17.7212  133.3324 C   0  0  0  0  0  0  0  0  0  0  0  0
  -21.7136   17.1922  134.5066 C   0  0  0  0  0  0  0  0  0  0  0  0
  -22.7300   17.1780  135.5554 C   0  0  0  0  0  0  0  0  0  0  0  0
  -24.0410   16.8088  135.1721 C   0  0  0  0  0  0  0  0  0  0  0  0
  -25.1034   16.8006  136.0346 C   0  0  0  0  0  0  0  0  0  0  0  0
  -24.9262   17.1643  137.3515 C   0  0  0  0  0  0  0  0  0  0  0  0
  -23.6765   17.5250  137.7451 C   0  0  0  0  0  0  0  0  0  0  0  0
  -22.5864   17.5334  136.8524 C   0  0  0  0  0  0  0  0  0  0  0  0
  -21.2936   18.0485  137.4144 C   0  0  0  0  0  0  0  0  0  0  0  0
  1  2  2  0
  2  3  1  0
  2  4  1  0
  4  5  2  0
  4  6  1  0
  5 11  1  0
  6  7  1  0
  6  8  1  0
  8  9  2  0
  8 10  1  0
 10 11  2  0
 11 12  1  0
 12 13  2  0
 12 17  1  0
 13 14  1  0
 14 15  2  0
 15 16  1  0
 16 17  2  0
 17 18  1  0
M  END
$$$$
