
     RDKit          3D

 18 19  0  0  0  0  0  0  0  0999 V2000
  -17.4356   15.5065  133.5150 O   0  0  0  0  0  0  0  0  0  0  0  0
  -18.3925   15.6444  134.2787 C   0  0  0  0  0  0  0  0  0  0  0  0
  -18.3765   15.1069  135.5390 O   0  0  0  0  0  0  0  0  0  0  0  0
  -19.5810   16.4046  133.8267 C   0  0  0  0  0  0  0  0  0  0  0  0
  -20.5343   16.6508  134.6055 N   0  0  0  0  0  0  0  0  0  0  0  0
  -19.5797   16.8543  132.4184 C   0  0  0  0  0  0  0  0  0  0  0  0
  -18.4693   17.7180  132.2444 O   0  0  0  0  0  0  0  0  0  0  0  0
  -20.8008   17.5841  132.0735 C   0  0  0  0  0  0  0  0  0  0  0  0
  -21.0027   18.0431  130.8936 O   0  0  0  0  0  0  0  0  0  0  0  0
  -21.8515   17.8243  133.0629 C   0  0  0  0  0  0  0  0  0  0  0  0
  -21.7321   17.3767  134.2752 C   0  0  0  0  0  0  0  0  0  0  0  0
  -22.7653   17.4803  135.3025 C   0  0  0  0  0  0  0  0  0  0  0  0
  -23.2728   16.2674  135.8252 C   0  0  0  0  0  0  0  0  0  0  0  0
  -24.2769   16.2093  136.7532 C   0  0  0  0  0  0  0  0  0  0  0  0
  -24.8475   17.3704  137.2264 C   0  0  0  0  0  0  0  0  0  0  0  0
  -24.3791   18.5493  136.7389 C   0  0  0  0  0  0  0  0  0  0  0  0
  -23.3462   18.6035  135.7822 C   0  0  0  0  0  0  0  0  0  0  0  0
  -23.0078   19.9737  135.2718 C   0  0  0  0  0  0  0  0  0  0  0  0
  1  2  2  0
  2  3  1  0
  2  4  1  0
  4  5  2  0
  4  6  1  0
  5 11  1  0
  6  7  1  0
  6  8  1  0
  8  9  2  0
  8 10  1  0
 10 11  2  0
 11 12  1  0
 12 13  2  0
 12 17  1  0
 13 14  1  0
 14 15  2  0
 15 16  1  0
 16 17  2  0
 17 18  1  0
M  END
$$$$
