
     RDKit          3D

 18 19  0  0  0  0  0  0  0  0999 V2000
  -21.4300   18.8256  131.4186 O   0  0  0  0  0  0  0  0  0  0  0  0
  -21.6734   18.5209  132.5873 C   0  0  0  0  0  0  0  0  0  0  0  0
  -22.7888   18.9959  133.2259 O   0  0  0  0  0  0  0  0  0  0  0  0
  -20.7442   17.6253  133.3148 C   0  0  0  0  0  0  0  0  0  0  0  0
  -21.0455   17.1395  134.4324 N   0  0  0  0  0  0  0  0  0  0  0  0
  -19.4532   17.3376  132.6544 C   0  0  0  0  0  0  0  0  0  0  0  0
  -19.7347   16.6967  131.4217 O   0  0  0  0  0  0  0  0  0  0  0  0
  -18.6085   16.4547  133.4604 C   0  0  0  0  0  0  0  0  0  0  0  0
  -17.4396   16.0989  133.0720 O   0  0  0  0  0  0  0  0  0  0  0  0
  -19.0604   15.9355  134.7513 C   0  0  0  0  0  0  0  0  0  0  0  0
  -20.2238   16.2627  135.2243 C   0  0  0  0  0  0  0  0  0  0  0  0
  -20.7215   15.8763  136.5421 C   0  0  0  0  0  0  0  0  0  0  0  0
  -21.0587   14.5145  136.7255 C   0  0  0  0  0  0  0  0  0  0  0  0
  -21.5844   14.0191  137.8877 C   0  0  0  0  0  0  0  0  0  0  0  0
  -21.8110   14.8590  138.9559 C   0  0  0  0  0  0  0  0  0  0  0  0
  -21.4972   16.1725  138.8051 C   0  0  0  0  0  0  0  0  0  0  0  0
  -20.9577   16.6778  137.6055 C   0  0  0  0  0  0  0  0  0  0  0  0
  -20.7560   18.1644  137.5621 C   0  0  0  0  0  0  0  0  0  0  0  0
  1  2  2  0
  2  3  1  0
  2  4  1  0
  4  5  2  0
  4  6  1  0
  5 11  1  0
  6  7  1  0
  6  8  1  0
  8  9  2  0
  8 10  1  0
 10 11  2  0
 11 12  1  0
 12 13  2  0
 12 17  1  0
 13 14  1  0
 14 15  2  0
 15 16  1  0
 16 17  2  0
 17 18  1  0
M  END
$$$$
