
     RDKit          3D

 18 19  0  0  0  0  0  0  0  0999 V2000
  -17.2942   15.9181  133.0235 O   0  0  0  0  0  0  0  0  0  0  0  0
  -18.1740   15.9102  133.8860 C   0  0  0  0  0  0  0  0  0  0  0  0
  -17.9643   15.3244  135.1068 O   0  0  0  0  0  0  0  0  0  0  0  0
  -19.4812   16.5451  133.5983 C   0  0  0  0  0  0  0  0  0  0  0  0
  -20.3681   16.6440  134.4813 N   0  0  0  0  0  0  0  0  0  0  0  0
  -19.6795   17.0527  132.2240 C   0  0  0  0  0  0  0  0  0  0  0  0
  -18.6974   18.0471  131.9876 O   0  0  0  0  0  0  0  0  0  0  0  0
  -21.0042   17.6490  132.0444 C   0  0  0  0  0  0  0  0  0  0  0  0
  -21.3801   18.1322  130.9179 O   0  0  0  0  0  0  0  0  0  0  0  0
  -21.9643   17.7215  133.1459 C   0  0  0  0  0  0  0  0  0  0  0  0
  -21.6678   17.2386  134.3135 C   0  0  0  0  0  0  0  0  0  0  0  0
  -22.5913   17.1758  135.4434 C   0  0  0  0  0  0  0  0  0  0  0  0
  -23.0612   15.8944  135.8164 C   0  0  0  0  0  0  0  0  0  0  0  0
  -23.9680   15.6878  136.8202 C   0  0  0  0  0  0  0  0  0  0  0  0
  -24.4717   16.7581  137.5263 C   0  0  0  0  0  0  0  0  0  0  0  0
  -24.0378   18.0002  137.1866 C   0  0  0  0  0  0  0  0  0  0  0  0
  -23.1052   18.2075  136.1510 C   0  0  0  0  0  0  0  0  0  0  0  0
  -22.8002   19.6420  135.8320 C   0  0  0  0  0  0  0  0  0  0  0  0
  1  2  2  0
  2  3  1  0
  2  4  1  0
  4  5  2  0
  4  6  1  0
  5 11  1  0
  6  7  1  0
  6  8  1  0
  8  9  2  0
  8 10  1  0
 10 11  2  0
 11 12  1  0
 12 13  2  0
 12 17  1  0
 13 14  1  0
 14 15  2  0
 15 16  1  0
 16 17  2  0
 17 18  1  0
M  END
$$$$
