
     RDKit          3D

 18 19  0  0  0  0  0  0  0  0999 V2000
  -17.1307   16.3245  133.8820 O   0  0  0  0  0  0  0  0  0  0  0  0
  -18.0762   16.3613  134.6938 C   0  0  0  0  0  0  0  0  0  0  0  0
  -17.9114   15.9390  135.9884 O   0  0  0  0  0  0  0  0  0  0  0  0
  -19.3781   16.8788  134.2002 C   0  0  0  0  0  0  0  0  0  0  0  0
  -20.3679   16.9443  134.9966 N   0  0  0  0  0  0  0  0  0  0  0  0
  -19.4451   17.2950  132.7898 C   0  0  0  0  0  0  0  0  0  0  0  0
  -18.5510   18.3424  132.5167 O   0  0  0  0  0  0  0  0  0  0  0  0
  -20.7912   17.7686  132.4581 C   0  0  0  0  0  0  0  0  0  0  0  0
  -21.0719   18.1666  131.2632 O   0  0  0  0  0  0  0  0  0  0  0  0
  -21.8527   17.8091  133.4493 C   0  0  0  0  0  0  0  0  0  0  0  0
  -21.6891   17.4186  134.6761 C   0  0  0  0  0  0  0  0  0  0  0  0
  -22.7155   17.3419  135.7142 C   0  0  0  0  0  0  0  0  0  0  0  0
  -23.5112   18.4856  135.9184 C   0  0  0  0  0  0  0  0  0  0  0  0
  -24.4811   18.5872  136.8723 C   0  0  0  0  0  0  0  0  0  0  0  0
  -24.6945   17.5062  137.6843 C   0  0  0  0  0  0  0  0  0  0  0  0
  -23.9634   16.3773  137.5418 C   0  0  0  0  0  0  0  0  0  0  0  0
  -22.9628   16.2995  136.5451 C   0  0  0  0  0  0  0  0  0  0  0  0
  -22.1579   15.0535  136.5156 C   0  0  0  0  0  0  0  0  0  0  0  0
  1  2  2  0
  2  3  1  0
  2  4  1  0
  4  5  2  0
  4  6  1  0
  5 11  1  0
  6  7  1  0
  6  8  1  0
  8  9  2  0
  8 10  1  0
 10 11  2  0
 11 12  1  0
 12 13  2  0
 12 17  1  0
 13 14  1  0
 14 15  2  0
 15 16  1  0
 16 17  2  0
 18 17  1  6
M  END
$$$$
