
     RDKit          3D

 18 19  0  0  0  0  0  0  0  0999 V2000
  -17.2085   15.9634  133.3797 O   0  0  0  0  0  0  0  0  0  0  0  0
  -18.1399   15.9767  134.1861 C   0  0  0  0  0  0  0  0  0  0  0  0
  -17.9655   15.5524  135.4772 O   0  0  0  0  0  0  0  0  0  0  0  0
  -19.4716   16.4597  133.7523 C   0  0  0  0  0  0  0  0  0  0  0  0
  -20.4363   16.5234  134.5530 N   0  0  0  0  0  0  0  0  0  0  0  0
  -19.5981   16.8605  132.3349 C   0  0  0  0  0  0  0  0  0  0  0  0
  -18.6973   17.9314  132.1093 O   0  0  0  0  0  0  0  0  0  0  0  0
  -20.9527   17.3099  132.0098 C   0  0  0  0  0  0  0  0  0  0  0  0
  -21.2743   17.6839  130.8265 O   0  0  0  0  0  0  0  0  0  0  0  0
  -22.0063   17.3534  133.0239 C   0  0  0  0  0  0  0  0  0  0  0  0
  -21.7670   16.9744  134.2419 C   0  0  0  0  0  0  0  0  0  0  0  0
  -22.7740   16.8889  135.2964 C   0  0  0  0  0  0  0  0  0  0  0  0
  -23.5492   18.0477  135.5375 C   0  0  0  0  0  0  0  0  0  0  0  0
  -24.4921   18.1306  136.5258 C   0  0  0  0  0  0  0  0  0  0  0  0
  -24.7265   17.0507  137.3484 C   0  0  0  0  0  0  0  0  0  0  0  0
  -23.9937   15.9256  137.1390 C   0  0  0  0  0  0  0  0  0  0  0  0
  -23.0230   15.8461  136.1209 C   0  0  0  0  0  0  0  0  0  0  0  0
  -22.2310   14.5719  136.0797 C   0  0  0  0  0  0  0  0  0  0  0  0
  1  2  2  0
  2  3  1  0
  2  4  1  0
  4  5  2  0
  4  6  1  0
  5 11  1  0
  6  7  1  0
  6  8  1  0
  8  9  2  0
  8 10  1  0
 10 11  2  0
 11 12  1  0
 12 13  2  0
 12 17  1  0
 13 14  1  0
 14 15  2  0
 15 16  1  0
 16 17  2  0
 17 18  1  0
M  END
$$$$
