
     RDKit          3D

 18 19  0  0  0  0  0  0  0  0999 V2000
  -17.0406   16.0591  133.3309 O   0  0  0  0  0  0  0  0  0  0  0  0
  -17.9804   16.1095  134.1486 C   0  0  0  0  0  0  0  0  0  0  0  0
  -17.8026   15.7225  135.4525 O   0  0  0  0  0  0  0  0  0  0  0  0
  -19.2901   16.6033  133.6516 C   0  0  0  0  0  0  0  0  0  0  0  0
  -20.2687   16.7020  134.4583 N   0  0  0  0  0  0  0  0  0  0  0  0
  -19.3778   16.9579  132.2255 C   0  0  0  0  0  0  0  0  0  0  0  0
  -18.4896   17.9937  131.8947 O   0  0  0  0  0  0  0  0  0  0  0  0
  -20.7293   17.4149  131.8927 C   0  0  0  0  0  0  0  0  0  0  0  0
  -21.0276   17.7603  130.6857 O   0  0  0  0  0  0  0  0  0  0  0  0
  -21.7768   17.4969  132.8962 C   0  0  0  0  0  0  0  0  0  0  0  0
  -21.5952   17.1602  134.1362 C   0  0  0  0  0  0  0  0  0  0  0  0
  -22.6067   17.1272  135.1911 C   0  0  0  0  0  0  0  0  0  0  0  0
  -23.3071   18.3212  135.4489 C   0  0  0  0  0  0  0  0  0  0  0  0
  -24.2497   18.4645  136.4245 C   0  0  0  0  0  0  0  0  0  0  0  0
  -24.5331   17.3757  137.2040 C   0  0  0  0  0  0  0  0  0  0  0  0
  -23.8950   16.1992  137.0096 C   0  0  0  0  0  0  0  0  0  0  0  0
  -22.9206   16.0788  135.9915 C   0  0  0  0  0  0  0  0  0  0  0  0
  -22.2161   14.7759  135.9047 C   0  0  0  0  0  0  0  0  0  0  0  0
  1  2  2  0
  2  3  1  0
  2  4  1  0
  4  5  2  0
  4  6  1  0
  5 11  1  0
  6  7  1  0
  6  8  1  0
  8  9  2  0
  8 10  1  0
 10 11  2  0
 11 12  1  0
 12 13  2  0
 12 17  1  0
 13 14  1  0
 14 15  2  0
 15 16  1  0
 16 17  2  0
 18 17  1  6
M  END
$$$$
