
     RDKit          3D

 18 19  0  0  0  0  0  0  0  0999 V2000
  -21.2034   18.7942  131.3838 O   0  0  0  0  0  0  0  0  0  0  0  0
  -21.4520   18.4182  132.5304 C   0  0  0  0  0  0  0  0  0  0  0  0
  -22.5915   18.8202  133.1766 O   0  0  0  0  0  0  0  0  0  0  0  0
  -20.5027   17.5157  133.2225 C   0  0  0  0  0  0  0  0  0  0  0  0
  -20.7820   17.0005  134.3327 N   0  0  0  0  0  0  0  0  0  0  0  0
  -19.2190   17.2572  132.5362 C   0  0  0  0  0  0  0  0  0  0  0  0
  -19.5128   16.6426  131.2931 O   0  0  0  0  0  0  0  0  0  0  0  0
  -18.3532   16.3646  133.3083 C   0  0  0  0  0  0  0  0  0  0  0  0
  -17.1868   16.0304  132.8942 O   0  0  0  0  0  0  0  0  0  0  0  0
  -18.7801   15.8104  134.5933 C   0  0  0  0  0  0  0  0  0  0  0  0
  -19.9395   16.1141  135.0912 C   0  0  0  0  0  0  0  0  0  0  0  0
  -20.4131   15.6916  136.4068 C   0  0  0  0  0  0  0  0  0  0  0  0
  -21.4794   14.7621  136.4357 C   0  0  0  0  0  0  0  0  0  0  0  0
  -22.0588   14.3168  137.5927 C   0  0  0  0  0  0  0  0  0  0  0  0
  -21.6076   14.7746  138.8111 C   0  0  0  0  0  0  0  0  0  0  0  0
  -20.5851   15.6697  138.8110 C   0  0  0  0  0  0  0  0  0  0  0  0
  -19.9932   16.1262  137.6167 C   0  0  0  0  0  0  0  0  0  0  0  0
  -18.9424   17.1855  137.7787 C   0  0  0  0  0  0  0  0  0  0  0  0
  1  2  2  0
  2  3  1  0
  2  4  1  0
  4  5  2  0
  4  6  1  0
  5 11  1  0
  6  7  1  0
  6  8  1  0
  8  9  2  0
  8 10  1  0
 10 11  2  0
 11 12  1  0
 12 13  2  0
 12 17  1  0
 13 14  1  0
 14 15  2  0
 15 16  1  0
 16 17  2  0
 17 18  1  0
M  END
$$$$
