
     RDKit          3D

 18 19  0  0  0  0  0  0  0  0999 V2000
  -21.1480   19.3422  131.5294 O   0  0  0  0  0  0  0  0  0  0  0  0
  -21.3941   18.9688  132.6775 C   0  0  0  0  0  0  0  0  0  0  0  0
  -22.3686   19.5749  133.4262 O   0  0  0  0  0  0  0  0  0  0  0  0
  -20.6233   17.8450  133.2585 C   0  0  0  0  0  0  0  0  0  0  0  0
  -20.9507   17.3249  134.3532 N   0  0  0  0  0  0  0  0  0  0  0  0
  -19.4570   17.3739  132.4816 C   0  0  0  0  0  0  0  0  0  0  0  0
  -19.9328   16.9186  131.2263 O   0  0  0  0  0  0  0  0  0  0  0  0
  -18.7618   16.2717  133.1480 C   0  0  0  0  0  0  0  0  0  0  0  0
  -17.7129   15.7325  132.6452 O   0  0  0  0  0  0  0  0  0  0  0  0
  -19.2331   15.7322  134.4237 C   0  0  0  0  0  0  0  0  0  0  0  0
  -20.2775   16.2344  135.0079 C   0  0  0  0  0  0  0  0  0  0  0  0
  -20.7653   15.8310  136.3242 C   0  0  0  0  0  0  0  0  0  0  0  0
  -19.8007   15.6922  137.3500 C   0  0  0  0  0  0  0  0  0  0  0  0
  -20.1039   15.2720  138.6166 C   0  0  0  0  0  0  0  0  0  0  0  0
  -21.4041   14.9591  138.9473 C   0  0  0  0  0  0  0  0  0  0  0  0
  -22.3498   15.0823  137.9793 C   0  0  0  0  0  0  0  0  0  0  0  0
  -22.0320   15.5137  136.6762 C   0  0  0  0  0  0  0  0  0  0  0  0
  -23.1686   15.5047  135.6961 C   0  0  0  0  0  0  0  0  0  0  0  0
  1  2  2  0
  2  3  1  0
  2  4  1  0
  4  5  2  0
  4  6  1  0
  5 11  1  0
  6  7  1  0
  6  8  1  0
  8  9  2  0
  8 10  1  0
 10 11  2  0
 11 12  1  0
 12 13  2  0
 12 17  1  0
 13 14  1  0
 14 15  2  0
 15 16  1  0
 16 17  2  0
 17 18  1  0
M  END
$$$$
