
     RDKit          3D

 18 19  0  0  0  0  0  0  0  0999 V2000
  -17.5358   15.3411  133.3872 O   0  0  0  0  0  0  0  0  0  0  0  0
  -18.4385   15.4517  134.2184 C   0  0  0  0  0  0  0  0  0  0  0  0
  -18.3155   14.9162  135.4736 O   0  0  0  0  0  0  0  0  0  0  0  0
  -19.6785   16.1761  133.8544 C   0  0  0  0  0  0  0  0  0  0  0  0
  -20.6227   16.3066  134.6713 N   0  0  0  0  0  0  0  0  0  0  0  0
  -19.7394   16.7332  132.4864 C   0  0  0  0  0  0  0  0  0  0  0  0
  -18.6829   17.6694  132.3565 O   0  0  0  0  0  0  0  0  0  0  0  0
  -21.0073   17.4172  132.2276 C   0  0  0  0  0  0  0  0  0  0  0  0
  -21.2654   17.9544  131.0925 O   0  0  0  0  0  0  0  0  0  0  0  0
  -22.0428   17.5200  133.2560 C   0  0  0  0  0  0  0  0  0  0  0  0
  -21.8669   16.9870  134.4262 C   0  0  0  0  0  0  0  0  0  0  0  0
  -22.8764   16.9517  135.4812 C   0  0  0  0  0  0  0  0  0  0  0  0
  -24.1687   16.5057  135.1167 C   0  0  0  0  0  0  0  0  0  0  0  0
  -25.2253   16.4686  135.9856 C   0  0  0  0  0  0  0  0  0  0  0  0
  -25.0605   16.8787  137.2904 C   0  0  0  0  0  0  0  0  0  0  0  0
  -23.8290   17.3135  137.6658 C   0  0  0  0  0  0  0  0  0  0  0  0
  -22.7449   17.3513  136.7666 C   0  0  0  0  0  0  0  0  0  0  0  0
  -21.4773   17.9473  137.3056 C   0  0  0  0  0  0  0  0  0  0  0  0
  1  2  2  0
  2  3  1  0
  2  4  1  0
  4  5  2  0
  4  6  1  0
  5 11  1  0
  6  7  1  0
  6  8  1  0
  8  9  2  0
  8 10  1  0
 10 11  2  0
 11 12  1  0
 12 13  2  0
 12 17  1  0
 13 14  1  0
 14 15  2  0
 15 16  1  0
 16 17  2  0
 17 18  1  0
M  END
$$$$
