
     RDKit          3D

 18 19  0  0  0  0  0  0  0  0999 V2000
  -17.4403   15.6553  133.4462 O   0  0  0  0  0  0  0  0  0  0  0  0
  -18.3557   15.8058  134.2570 C   0  0  0  0  0  0  0  0  0  0  0  0
  -18.2786   15.2773  135.5189 O   0  0  0  0  0  0  0  0  0  0  0  0
  -19.5606   16.5712  133.8608 C   0  0  0  0  0  0  0  0  0  0  0  0
  -20.4952   16.7844  134.6715 N   0  0  0  0  0  0  0  0  0  0  0  0
  -19.5988   17.0668  132.4685 C   0  0  0  0  0  0  0  0  0  0  0  0
  -18.4992   17.9443  132.2947 O   0  0  0  0  0  0  0  0  0  0  0  0
  -20.8333   17.7981  132.1793 C   0  0  0  0  0  0  0  0  0  0  0  0
  -21.0687   18.2941  131.0207 O   0  0  0  0  0  0  0  0  0  0  0  0
  -21.8597   17.9977  133.2025 C   0  0  0  0  0  0  0  0  0  0  0  0
  -21.7061   17.5115  134.3960 C   0  0  0  0  0  0  0  0  0  0  0  0
  -22.7131   17.5734  135.4523 C   0  0  0  0  0  0  0  0  0  0  0  0
  -23.4975   16.4141  135.6582 C   0  0  0  0  0  0  0  0  0  0  0  0
  -24.5108   16.3438  136.5753 C   0  0  0  0  0  0  0  0  0  0  0  0
  -24.8118   17.4380  137.3564 C   0  0  0  0  0  0  0  0  0  0  0  0
  -24.0742   18.5650  137.1770 C   0  0  0  0  0  0  0  0  0  0  0  0
  -23.0330   18.6325  136.2301 C   0  0  0  0  0  0  0  0  0  0  0  0
  -22.3774   19.9746  136.0834 C   0  0  0  0  0  0  0  0  0  0  0  0
  1  2  2  0
  2  3  1  0
  2  4  1  0
  4  5  2  0
  4  6  1  0
  5 11  1  0
  6  7  1  0
  6  8  1  0
  8  9  2  0
  8 10  1  0
 10 11  2  0
 11 12  1  0
 12 13  2  0
 12 17  1  0
 13 14  1  0
 14 15  2  0
 15 16  1  0
 16 17  2  0
 17 18  1  0
M  END
$$$$
