
     RDKit          3D

 18 19  0  0  0  0  0  0  0  0999 V2000
  -20.8904   19.0357  130.9908 O   0  0  0  0  0  0  0  0  0  0  0  0
  -21.2579   18.7482  132.1469 C   0  0  0  0  0  0  0  0  0  0  0  0
  -22.3577   19.3467  132.7069 O   0  0  0  0  0  0  0  0  0  0  0  0
  -20.4580   17.7370  132.8844 C   0  0  0  0  0  0  0  0  0  0  0  0
  -20.8694   17.3142  134.0114 N   0  0  0  0  0  0  0  0  0  0  0  0
  -19.2118   17.2740  132.2521 C   0  0  0  0  0  0  0  0  0  0  0  0
  -19.4576   16.6588  131.0142 O   0  0  0  0  0  0  0  0  0  0  0  0
  -18.5381   16.2916  133.1049 C   0  0  0  0  0  0  0  0  0  0  0  0
  -17.4149   15.7687  132.7441 O   0  0  0  0  0  0  0  0  0  0  0  0
  -19.1004   15.8709  134.3769 C   0  0  0  0  0  0  0  0  0  0  0  0
  -20.2146   16.3416  134.8471 C   0  0  0  0  0  0  0  0  0  0  0  0
  -20.8102   16.0441  136.1485 C   0  0  0  0  0  0  0  0  0  0  0  0
  -19.9848   16.1825  137.2809 C   0  0  0  0  0  0  0  0  0  0  0  0
  -20.3778   15.9049  138.5574 C   0  0  0  0  0  0  0  0  0  0  0  0
  -21.6587   15.4626  138.7498 C   0  0  0  0  0  0  0  0  0  0  0  0
  -22.5023   15.3064  137.7043 C   0  0  0  0  0  0  0  0  0  0  0  0
  -22.0683   15.6003  136.3905 C   0  0  0  0  0  0  0  0  0  0  0  0
  -23.0349   15.3226  135.2998 C   0  0  0  0  0  0  0  0  0  0  0  0
  1  2  2  0
  2  3  1  0
  2  4  1  0
  4  5  2  0
  4  6  1  0
  5 11  1  0
  6  7  1  0
  6  8  1  0
  8  9  2  0
  8 10  1  0
 10 11  2  0
 11 12  1  0
 12 13  2  0
 12 17  1  0
 13 14  1  0
 14 15  2  0
 15 16  1  0
 16 17  2  0
 18 17  1  6
M  END
$$$$
