
     RDKit          3D

 18 19  0  0  0  0  0  0  0  0999 V2000
  -21.3383   19.3537  131.5786 O   0  0  0  0  0  0  0  0  0  0  0  0
  -21.5793   18.9728  132.7410 C   0  0  0  0  0  0  0  0  0  0  0  0
  -22.6520   19.4682  133.4377 O   0  0  0  0  0  0  0  0  0  0  0  0
  -20.6602   17.9670  133.3326 C   0  0  0  0  0  0  0  0  0  0  0  0
  -20.9306   17.4646  134.4696 N   0  0  0  0  0  0  0  0  0  0  0  0
  -19.4677   17.6033  132.5499 C   0  0  0  0  0  0  0  0  0  0  0  0
  -19.8140   17.0423  131.3103 O   0  0  0  0  0  0  0  0  0  0  0  0
  -18.6632   16.6137  133.2707 C   0  0  0  0  0  0  0  0  0  0  0  0
  -17.5614   16.1696  132.7667 O   0  0  0  0  0  0  0  0  0  0  0  0
  -19.0681   16.0978  134.5672 C   0  0  0  0  0  0  0  0  0  0  0  0
  -20.1470   16.4846  135.1758 C   0  0  0  0  0  0  0  0  0  0  0  0
  -20.5876   16.0883  136.5122 C   0  0  0  0  0  0  0  0  0  0  0  0
  -19.6751   16.2658  137.5699 C   0  0  0  0  0  0  0  0  0  0  0  0
  -19.9190   15.9094  138.8638 C   0  0  0  0  0  0  0  0  0  0  0  0
  -21.1305   15.3418  139.1528 C   0  0  0  0  0  0  0  0  0  0  0  0
  -22.0513   15.1420  138.1825 C   0  0  0  0  0  0  0  0  0  0  0  0
  -21.7716   15.5197  136.8484 C   0  0  0  0  0  0  0  0  0  0  0  0
  -22.8076   15.1890  135.8392 C   0  0  0  0  0  0  0  0  0  0  0  0
  1  2  2  0
  2  3  1  0
  2  4  1  0
  4  5  2  0
  4  6  1  0
  5 11  1  0
  6  7  1  0
  6  8  1  0
  8  9  2  0
  8 10  1  0
 10 11  2  0
 11 12  1  0
 12 13  2  0
 12 17  1  0
 13 14  1  0
 14 15  2  0
 15 16  1  0
 16 17  2  0
 18 17  1  6
M  END
$$$$
