
     RDKit          3D

 18 19  0  0  0  0  0  0  0  0999 V2000
  -17.5650   15.7245  133.4801 O   0  0  0  0  0  0  0  0  0  0  0  0
  -18.5256   15.7529  134.2510 C   0  0  0  0  0  0  0  0  0  0  0  0
  -18.4490   15.1936  135.4995 O   0  0  0  0  0  0  0  0  0  0  0  0
  -19.7854   16.4029  133.8207 C   0  0  0  0  0  0  0  0  0  0  0  0
  -20.7729   16.4885  134.5911 N   0  0  0  0  0  0  0  0  0  0  0  0
  -19.8126   16.9420  132.4444 C   0  0  0  0  0  0  0  0  0  0  0  0
  -18.8048   17.9346  132.3519 O   0  0  0  0  0  0  0  0  0  0  0  0
  -21.1030   17.5512  132.1183 C   0  0  0  0  0  0  0  0  0  0  0  0
  -21.3367   18.0617  130.9657 O   0  0  0  0  0  0  0  0  0  0  0  0
  -22.1899   17.6061  133.0961 C   0  0  0  0  0  0  0  0  0  0  0  0
  -22.0400   17.0955  134.2799 C   0  0  0  0  0  0  0  0  0  0  0  0
  -23.0945   17.0143  135.2872 C   0  0  0  0  0  0  0  0  0  0  0  0
  -24.3197   17.6542  134.9851 C   0  0  0  0  0  0  0  0  0  0  0  0
  -25.3767   17.7047  135.8528 C   0  0  0  0  0  0  0  0  0  0  0  0
  -25.2802   17.1134  137.0933 C   0  0  0  0  0  0  0  0  0  0  0  0
  -24.1129   16.4934  137.4090 C   0  0  0  0  0  0  0  0  0  0  0  0
  -23.0270   16.4458  136.5125 C   0  0  0  0  0  0  0  0  0  0  0  0
  -21.7757   15.8103  137.0444 C   0  0  0  0  0  0  0  0  0  0  0  0
  1  2  2  0
  2  3  1  0
  2  4  1  0
  4  5  2  0
  4  6  1  0
  5 11  1  0
  6  7  1  0
  6  8  1  0
  8  9  2  0
  8 10  1  0
 10 11  2  0
 11 12  1  0
 12 13  2  0
 12 17  1  0
 13 14  1  0
 14 15  2  0
 15 16  1  0
 16 17  2  0
 17 18  1  0
M  END
$$$$
