
     RDKit          3D

 18 19  0  0  0  0  0  0  0  0999 V2000
  -17.6269   15.3331  133.6446 O   0  0  0  0  0  0  0  0  0  0  0  0
  -18.5115   15.5024  134.5067 C   0  0  0  0  0  0  0  0  0  0  0  0
  -18.3500   15.0322  135.7851 O   0  0  0  0  0  0  0  0  0  0  0  0
  -19.7378   16.2302  134.0907 C   0  0  0  0  0  0  0  0  0  0  0  0
  -20.6720   16.4151  134.9340 N   0  0  0  0  0  0  0  0  0  0  0  0
  -19.7982   16.7049  132.6986 C   0  0  0  0  0  0  0  0  0  0  0  0
  -18.7658   17.6138  132.4170 O   0  0  0  0  0  0  0  0  0  0  0  0
  -21.0681   17.3900  132.4449 C   0  0  0  0  0  0  0  0  0  0  0  0
  -21.3334   17.8710  131.2773 O   0  0  0  0  0  0  0  0  0  0  0  0
  -22.0690   17.5537  133.4853 C   0  0  0  0  0  0  0  0  0  0  0  0
  -21.9168   17.0966  134.6903 C   0  0  0  0  0  0  0  0  0  0  0  0
  -22.8991   17.1375  135.7722 C   0  0  0  0  0  0  0  0  0  0  0  0
  -23.4763   15.9144  136.1642 C   0  0  0  0  0  0  0  0  0  0  0  0
  -24.4345   15.7900  137.1271 C   0  0  0  0  0  0  0  0  0  0  0  0
  -24.8630   16.9292  137.7532 C   0  0  0  0  0  0  0  0  0  0  0  0
  -24.3504   18.1363  137.4226 C   0  0  0  0  0  0  0  0  0  0  0  0
  -23.3586   18.2368  136.4192 C   0  0  0  0  0  0  0  0  0  0  0  0
  -22.9139   19.6079  136.0675 C   0  0  0  0  0  0  0  0  0  0  0  0
  1  2  2  0
  2  3  1  0
  2  4  1  0
  4  5  2  0
  4  6  1  0
  5 11  1  0
  6  7  1  0
  6  8  1  0
  8  9  2  0
  8 10  1  0
 10 11  2  0
 11 12  1  0
 12 13  2  0
 12 17  1  0
 13 14  1  0
 14 15  2  0
 15 16  1  0
 16 17  2  0
 18 17  1  6
M  END
$$$$
