
     RDKit          3D

 18 19  0  0  0  0  0  0  0  0999 V2000
  -17.4388   15.1938  133.6376 O   0  0  0  0  0  0  0  0  0  0  0  0
  -18.3377   15.3283  134.4695 C   0  0  0  0  0  0  0  0  0  0  0  0
  -18.1932   14.8630  135.7502 O   0  0  0  0  0  0  0  0  0  0  0  0
  -19.5963   16.0046  134.0784 C   0  0  0  0  0  0  0  0  0  0  0  0
  -20.5649   16.0926  134.8722 N   0  0  0  0  0  0  0  0  0  0  0  0
  -19.6459   16.5667  132.7119 C   0  0  0  0  0  0  0  0  0  0  0  0
  -18.6250   17.5451  132.6127 O   0  0  0  0  0  0  0  0  0  0  0  0
  -20.9335   17.2009  132.4250 C   0  0  0  0  0  0  0  0  0  0  0  0
  -21.1850   17.7338  131.2864 O   0  0  0  0  0  0  0  0  0  0  0  0
  -21.9973   17.2563  133.4279 C   0  0  0  0  0  0  0  0  0  0  0  0
  -21.8289   16.7241  134.5995 C   0  0  0  0  0  0  0  0  0  0  0  0
  -22.8619   16.6424  135.6290 C   0  0  0  0  0  0  0  0  0  0  0  0
  -24.1933   16.8946  135.2221 C   0  0  0  0  0  0  0  0  0  0  0  0
  -25.2553   16.9040  136.0851 C   0  0  0  0  0  0  0  0  0  0  0  0
  -25.0569   16.6595  137.4263 C   0  0  0  0  0  0  0  0  0  0  0  0
  -23.7868   16.4160  137.8435 C   0  0  0  0  0  0  0  0  0  0  0  0
  -22.6966   16.4092  136.9510 C   0  0  0  0  0  0  0  0  0  0  0  0
  -21.3467   16.2212  137.5793 C   0  0  0  0  0  0  0  0  0  0  0  0
  1  2  2  0
  2  3  1  0
  2  4  1  0
  4  5  2  0
  4  6  1  0
  5 11  1  0
  6  7  1  0
  6  8  1  0
  8  9  2  0
  8 10  1  0
 10 11  2  0
 11 12  1  0
 12 13  2  0
 12 17  1  0
 13 14  1  0
 14 15  2  0
 15 16  1  0
 16 17  2  0
 17 18  1  0
M  END
$$$$
