
     RDKit          3D

 18 19  0  0  0  0  0  0  0  0999 V2000
  -21.2798   19.8220  131.9457 O   0  0  0  0  0  0  0  0  0  0  0  0
  -21.5088   19.3373  133.0714 C   0  0  0  0  0  0  0  0  0  0  0  0
  -22.3929   19.9375  133.9314 O   0  0  0  0  0  0  0  0  0  0  0  0
  -20.7874   18.0911  133.4361 C   0  0  0  0  0  0  0  0  0  0  0  0
  -21.0694   17.5014  134.5273 N   0  0  0  0  0  0  0  0  0  0  0  0
  -19.7693   17.6027  132.4916 C   0  0  0  0  0  0  0  0  0  0  0  0
  -20.3275   17.3039  131.2385 O   0  0  0  0  0  0  0  0  0  0  0  0
  -19.1455   16.3777  132.9981 C   0  0  0  0  0  0  0  0  0  0  0  0
  -18.2110   15.7911  132.3290 O   0  0  0  0  0  0  0  0  0  0  0  0
  -19.5486   15.7804  134.2597 C   0  0  0  0  0  0  0  0  0  0  0  0
  -20.4649   16.2922  135.0229 C   0  0  0  0  0  0  0  0  0  0  0  0
  -20.8735   15.8124  136.3420 C   0  0  0  0  0  0  0  0  0  0  0  0
  -19.8575   15.6051  137.2947 C   0  0  0  0  0  0  0  0  0  0  0  0
  -20.0701   15.1235  138.5531 C   0  0  0  0  0  0  0  0  0  0  0  0
  -21.3556   14.8218  138.9131 C   0  0  0  0  0  0  0  0  0  0  0  0
  -22.3777   14.9962  138.0447 C   0  0  0  0  0  0  0  0  0  0  0  0
  -22.1288   15.4960  136.7451 C   0  0  0  0  0  0  0  0  0  0  0  0
  -23.2981   15.5780  135.8357 C   0  0  0  0  0  0  0  0  0  0  0  0
  1  2  2  0
  2  3  1  0
  2  4  1  0
  4  5  2  0
  4  6  1  0
  5 11  1  0
  6  7  1  0
  6  8  1  0
  8  9  2  0
  8 10  1  0
 10 11  2  0
 11 12  1  0
 12 13  2  0
 12 17  1  0
 13 14  1  0
 14 15  2  0
 15 16  1  0
 16 17  2  0
 18 17  1  6
M  END
$$$$
