
     RDKit          3D

 18 19  0  0  0  0  0  0  0  0999 V2000
  -17.3448   15.4245  133.3676 O   0  0  0  0  0  0  0  0  0  0  0  0
  -18.2500   15.5604  134.2140 C   0  0  0  0  0  0  0  0  0  0  0  0
  -18.1025   15.0759  135.4888 O   0  0  0  0  0  0  0  0  0  0  0  0
  -19.4850   16.2646  133.7836 C   0  0  0  0  0  0  0  0  0  0  0  0
  -20.4320   16.4324  134.6161 N   0  0  0  0  0  0  0  0  0  0  0  0
  -19.5386   16.7374  132.3906 C   0  0  0  0  0  0  0  0  0  0  0  0
  -18.5205   17.6654  132.1199 O   0  0  0  0  0  0  0  0  0  0  0  0
  -20.8183   17.3982  132.1220 C   0  0  0  0  0  0  0  0  0  0  0  0
  -21.0794   17.8735  130.9512 O   0  0  0  0  0  0  0  0  0  0  0  0
  -21.8337   17.5436  133.1509 C   0  0  0  0  0  0  0  0  0  0  0  0
  -21.6866   17.0901  134.3579 C   0  0  0  0  0  0  0  0  0  0  0  0
  -22.6817   17.1131  135.4286 C   0  0  0  0  0  0  0  0  0  0  0  0
  -23.0275   15.8794  136.0126 C   0  0  0  0  0  0  0  0  0  0  0  0
  -23.9654   15.7280  136.9915 C   0  0  0  0  0  0  0  0  0  0  0  0
  -24.6129   16.8494  137.4350 C   0  0  0  0  0  0  0  0  0  0  0  0
  -24.3288   18.0650  136.9147 C   0  0  0  0  0  0  0  0  0  0  0  0
  -23.3525   18.1932  135.8993 C   0  0  0  0  0  0  0  0  0  0  0  0
  -23.1655   19.5517  135.3330 C   0  0  0  0  0  0  0  0  0  0  0  0
  1  2  2  0
  2  3  1  0
  2  4  1  0
  4  5  2  0
  4  6  1  0
  5 11  1  0
  6  7  1  0
  6  8  1  0
  8  9  2  0
  8 10  1  0
 10 11  2  0
 11 12  1  0
 12 13  2  0
 12 17  1  0
 13 14  1  0
 14 15  2  0
 15 16  1  0
 16 17  2  0
 18 17  1  6
M  END
$$$$
