
     RDKit          3D

 18 19  0  0  0  0  0  0  0  0999 V2000
  -21.3979   19.1397  131.5195 O   0  0  0  0  0  0  0  0  0  0  0  0
  -21.5488   18.7627  132.6827 C   0  0  0  0  0  0  0  0  0  0  0  0
  -22.5808   19.2329  133.4517 O   0  0  0  0  0  0  0  0  0  0  0  0
  -20.5982   17.7840  133.2599 C   0  0  0  0  0  0  0  0  0  0  0  0
  -20.8088   17.2482  134.3755 N   0  0  0  0  0  0  0  0  0  0  0  0
  -19.3981   17.4758  132.4535 C   0  0  0  0  0  0  0  0  0  0  0  0
  -19.8370   16.9219  131.2247 O   0  0  0  0  0  0  0  0  0  0  0  0
  -18.5227   16.5092  133.1182 C   0  0  0  0  0  0  0  0  0  0  0  0
  -17.4198   16.1228  132.5910 O   0  0  0  0  0  0  0  0  0  0  0  0
  -18.8670   15.9369  134.4199 C   0  0  0  0  0  0  0  0  0  0  0  0
  -19.9574   16.2895  135.0290 C   0  0  0  0  0  0  0  0  0  0  0  0
  -20.3375   15.8502  136.3692 C   0  0  0  0  0  0  0  0  0  0  0  0
  -20.3393   16.8315  137.3885 C   0  0  0  0  0  0  0  0  0  0  0  0
  -20.6234   16.5557  138.6985 C   0  0  0  0  0  0  0  0  0  0  0  0
  -20.9279   15.2682  139.0824 C   0  0  0  0  0  0  0  0  0  0  0  0
  -20.9313   14.3063  138.1225 C   0  0  0  0  0  0  0  0  0  0  0  0
  -20.6364   14.5953  136.7755 C   0  0  0  0  0  0  0  0  0  0  0  0
  -20.5859   13.4108  135.8552 C   0  0  0  0  0  0  0  0  0  0  0  0
  1  2  2  0
  2  3  1  0
  2  4  1  0
  4  5  2  0
  4  6  1  0
  5 11  1  0
  6  7  1  0
  6  8  1  0
  8  9  2  0
  8 10  1  0
 10 11  2  0
 11 12  1  0
 12 13  2  0
 12 17  1  0
 13 14  1  0
 14 15  2  0
 15 16  1  0
 16 17  2  0
 17 18  1  0
M  END
$$$$
