
     RDKit          3D

 18 19  0  0  0  0  0  0  0  0999 V2000
  -17.5685   15.3463  133.1605 O   0  0  0  0  0  0  0  0  0  0  0  0
  -18.4483   15.4473  134.0381 C   0  0  0  0  0  0  0  0  0  0  0  0
  -18.3093   14.8232  135.2516 O   0  0  0  0  0  0  0  0  0  0  0  0
  -19.6438   16.2669  133.7132 C   0  0  0  0  0  0  0  0  0  0  0  0
  -20.5717   16.3891  134.5748 N   0  0  0  0  0  0  0  0  0  0  0  0
  -19.6823   16.9032  132.3863 C   0  0  0  0  0  0  0  0  0  0  0  0
  -18.6140   17.7970  132.2102 O   0  0  0  0  0  0  0  0  0  0  0  0
  -20.9234   17.6633  132.2178 C   0  0  0  0  0  0  0  0  0  0  0  0
  -21.1669   18.2878  131.1152 O   0  0  0  0  0  0  0  0  0  0  0  0
  -21.9191   17.7439  133.2728 C   0  0  0  0  0  0  0  0  0  0  0  0
  -21.7878   17.1434  134.4156 C   0  0  0  0  0  0  0  0  0  0  0  0
  -22.7699   17.0966  135.4974 C   0  0  0  0  0  0  0  0  0  0  0  0
  -24.0926   16.7593  135.1519 C   0  0  0  0  0  0  0  0  0  0  0  0
  -25.1302   16.7123  136.0363 C   0  0  0  0  0  0  0  0  0  0  0  0
  -24.8680   17.0129  137.3456 C   0  0  0  0  0  0  0  0  0  0  0  0
  -23.6192   17.3464  137.7434 C   0  0  0  0  0  0  0  0  0  0  0  0
  -22.5617   17.3889  136.8050 C   0  0  0  0  0  0  0  0  0  0  0  0
  -21.2450   17.8425  137.3163 C   0  0  0  0  0  0  0  0  0  0  0  0
  1  2  2  0
  2  3  1  0
  2  4  1  0
  4  5  2  0
  4  6  1  0
  5 11  1  0
  6  7  1  0
  6  8  1  0
  8  9  2  0
  8 10  1  0
 10 11  2  0
 11 12  1  0
 12 13  2  0
 12 17  1  0
 13 14  1  0
 14 15  2  0
 15 16  1  0
 16 17  2  0
 18 17  1  6
M  END
$$$$
