
     RDKit          3D

 18 19  0  0  0  0  0  0  0  0999 V2000
  -20.8844   18.6240  131.3909 O   0  0  0  0  0  0  0  0  0  0  0  0
  -21.2561   18.2413  132.5015 C   0  0  0  0  0  0  0  0  0  0  0  0
  -22.4189   18.7054  133.0584 O   0  0  0  0  0  0  0  0  0  0  0  0
  -20.4317   17.2624  133.2476 C   0  0  0  0  0  0  0  0  0  0  0  0
  -20.8260   16.7679  134.3321 N   0  0  0  0  0  0  0  0  0  0  0  0
  -19.1297   16.9028  132.6467 C   0  0  0  0  0  0  0  0  0  0  0  0
  -19.3875   16.3183  131.3813 O   0  0  0  0  0  0  0  0  0  0  0  0
  -18.3929   15.9404  133.4672 C   0  0  0  0  0  0  0  0  0  0  0  0
  -17.2320   15.5139  133.1292 O   0  0  0  0  0  0  0  0  0  0  0  0
  -18.9490   15.4184  134.7157 C   0  0  0  0  0  0  0  0  0  0  0  0
  -20.1110   15.8135  135.1375 C   0  0  0  0  0  0  0  0  0  0  0  0
  -20.7049   15.4264  136.4146 C   0  0  0  0  0  0  0  0  0  0  0  0
  -21.0684   14.0675  136.5663 C   0  0  0  0  0  0  0  0  0  0  0  0
  -21.6804   13.5724  137.6857 C   0  0  0  0  0  0  0  0  0  0  0  0
  -21.9734   14.4097  138.7397 C   0  0  0  0  0  0  0  0  0  0  0  0
  -21.6360   15.7205  138.6184 C   0  0  0  0  0  0  0  0  0  0  0  0
  -21.0076   16.2255  137.4629 C   0  0  0  0  0  0  0  0  0  0  0  0
  -20.7878   17.7100  137.4418 C   0  0  0  0  0  0  0  0  0  0  0  0
  1  2  2  0
  2  3  1  0
  2  4  1  0
  4  5  2  0
  4  6  1  0
  5 11  1  0
  6  7  1  0
  6  8  1  0
  8  9  2  0
  8 10  1  0
 10 11  2  0
 11 12  1  0
 12 13  2  0
 12 17  1  0
 13 14  1  0
 14 15  2  0
 15 16  1  0
 16 17  2  0
 17 18  1  0
M  END
$$$$
