
     RDKit          3D

 18 19  0  0  0  0  0  0  0  0999 V2000
  -17.3529   15.6830  133.5352 O   0  0  0  0  0  0  0  0  0  0  0  0
  -18.2918   15.6840  134.3331 C   0  0  0  0  0  0  0  0  0  0  0  0
  -18.1673   15.1178  135.5746 O   0  0  0  0  0  0  0  0  0  0  0  0
  -19.5775   16.3083  133.9434 C   0  0  0  0  0  0  0  0  0  0  0  0
  -20.5314   16.4006  134.7543 N   0  0  0  0  0  0  0  0  0  0  0  0
  -19.6720   16.8136  132.5573 C   0  0  0  0  0  0  0  0  0  0  0  0
  -18.6822   17.8157  132.3971 O   0  0  0  0  0  0  0  0  0  0  0  0
  -20.9832   17.3992  132.2740 C   0  0  0  0  0  0  0  0  0  0  0  0
  -21.2738   17.8788  131.1211 O   0  0  0  0  0  0  0  0  0  0  0  0
  -22.0270   17.4646  133.2972 C   0  0  0  0  0  0  0  0  0  0  0  0
  -21.8188   16.9847  134.4849 C   0  0  0  0  0  0  0  0  0  0  0  0
  -22.8271   16.9151  135.5393 C   0  0  0  0  0  0  0  0  0  0  0  0
  -22.8517   15.7391  136.3257 C   0  0  0  0  0  0  0  0  0  0  0  0
  -23.7718   15.5128  137.3131 C   0  0  0  0  0  0  0  0  0  0  0  0
  -24.7391   16.4555  137.5843 C   0  0  0  0  0  0  0  0  0  0  0  0
  -24.7386   17.5936  136.8418 C   0  0  0  0  0  0  0  0  0  0  0  0
  -23.7900   17.8209  135.8252 C   0  0  0  0  0  0  0  0  0  0  0  0
  -23.9811   19.0800  135.0311 C   0  0  0  0  0  0  0  0  0  0  0  0
  1  2  2  0
  2  3  1  0
  2  4  1  0
  4  5  2  0
  4  6  1  0
  5 11  1  0
  6  7  1  0
  6  8  1  0
  8  9  2  0
  8 10  1  0
 10 11  2  0
 11 12  1  0
 12 13  2  0
 12 17  1  0
 13 14  1  0
 14 15  2  0
 15 16  1  0
 16 17  2  0
 17 18  1  0
M  END
$$$$
