
     RDKit          3D

 18 19  0  0  0  0  0  0  0  0999 V2000
  -17.1461   15.8064  133.3870 O   0  0  0  0  0  0  0  0  0  0  0  0
  -18.0463   15.8968  134.2234 C   0  0  0  0  0  0  0  0  0  0  0  0
  -17.8475   15.5107  135.5229 O   0  0  0  0  0  0  0  0  0  0  0  0
  -19.3665   16.4321  133.8169 C   0  0  0  0  0  0  0  0  0  0  0  0
  -20.3146   16.5231  134.6346 N   0  0  0  0  0  0  0  0  0  0  0  0
  -19.5022   16.8508  132.4056 C   0  0  0  0  0  0  0  0  0  0  0  0
  -18.5667   17.8904  132.1742 O   0  0  0  0  0  0  0  0  0  0  0  0
  -20.8447   17.3524  132.1079 C   0  0  0  0  0  0  0  0  0  0  0  0
  -21.1724   17.7492  130.9336 O   0  0  0  0  0  0  0  0  0  0  0  0
  -21.8788   17.4244  133.1403 C   0  0  0  0  0  0  0  0  0  0  0  0
  -21.6330   17.0252  134.3505 C   0  0  0  0  0  0  0  0  0  0  0  0
  -22.6246   16.9662  135.4214 C   0  0  0  0  0  0  0  0  0  0  0  0
  -23.2321   18.1867  135.7999 C   0  0  0  0  0  0  0  0  0  0  0  0
  -24.1384   18.2921  136.8197 C   0  0  0  0  0  0  0  0  0  0  0  0
  -24.5027   17.1741  137.5376 C   0  0  0  0  0  0  0  0  0  0  0  0
  -23.9322   15.9893  137.1952 C   0  0  0  0  0  0  0  0  0  0  0  0
  -22.9982   15.8866  136.1453 C   0  0  0  0  0  0  0  0  0  0  0  0
  -22.3863   14.5297  135.9535 C   0  0  0  0  0  0  0  0  0  0  0  0
  1  2  2  0
  2  3  1  0
  2  4  1  0
  4  5  2  0
  4  6  1  0
  5 11  1  0
  6  7  1  0
  6  8  1  0
  8  9  2  0
  8 10  1  0
 10 11  2  0
 11 12  1  0
 12 13  2  0
 12 17  1  0
 13 14  1  0
 14 15  2  0
 15 16  1  0
 16 17  2  0
 17 18  1  0
M  END
$$$$
