
     RDKit          3D

 18 19  0  0  0  0  0  0  0  0999 V2000
  -17.7891   15.3205  133.3138 O   0  0  0  0  0  0  0  0  0  0  0  0
  -18.6560   15.4758  134.1963 C   0  0  0  0  0  0  0  0  0  0  0  0
  -18.5009   14.9242  135.4425 O   0  0  0  0  0  0  0  0  0  0  0  0
  -19.8542   16.2783  133.8404 C   0  0  0  0  0  0  0  0  0  0  0  0
  -20.7821   16.4310  134.6971 N   0  0  0  0  0  0  0  0  0  0  0  0
  -19.8955   16.8622  132.4897 C   0  0  0  0  0  0  0  0  0  0  0  0
  -18.8302   17.7518  132.2782 O   0  0  0  0  0  0  0  0  0  0  0  0
  -21.1391   17.6110  132.2924 C   0  0  0  0  0  0  0  0  0  0  0  0
  -21.3852   18.1912  131.1664 O   0  0  0  0  0  0  0  0  0  0  0  0
  -22.1346   17.7296  133.3440 C   0  0  0  0  0  0  0  0  0  0  0  0
  -22.0008   17.1746  134.5094 C   0  0  0  0  0  0  0  0  0  0  0  0
  -22.9822   17.1669  135.5928 C   0  0  0  0  0  0  0  0  0  0  0  0
  -24.2744   16.6982  135.2875 C   0  0  0  0  0  0  0  0  0  0  0  0
  -25.3101   16.6658  136.1746 C   0  0  0  0  0  0  0  0  0  0  0  0
  -25.0777   17.1188  137.4451 C   0  0  0  0  0  0  0  0  0  0  0  0
  -23.8591   17.5836  137.8031 C   0  0  0  0  0  0  0  0  0  0  0  0
  -22.8030   17.6074  136.8625 C   0  0  0  0  0  0  0  0  0  0  0  0
  -21.5262   18.2082  137.3208 C   0  0  0  0  0  0  0  0  0  0  0  0
  1  2  2  0
  2  3  1  0
  2  4  1  0
  4  5  2  0
  4  6  1  0
  5 11  1  0
  6  7  1  0
  6  8  1  0
  8  9  2  0
  8 10  1  0
 10 11  2  0
 11 12  1  0
 12 13  2  0
 12 17  1  0
 13 14  1  0
 14 15  2  0
 15 16  1  0
 16 17  2  0
 18 17  1  6
M  END
$$$$
