
     RDKit          3D

 18 19  0  0  0  0  0  0  0  0999 V2000
  -17.1174   15.8489  133.5245 O   0  0  0  0  0  0  0  0  0  0  0  0
  -18.0436   15.9886  134.3474 C   0  0  0  0  0  0  0  0  0  0  0  0
  -17.8553   15.7056  135.6762 O   0  0  0  0  0  0  0  0  0  0  0  0
  -19.3490   16.4712  133.8283 C   0  0  0  0  0  0  0  0  0  0  0  0
  -20.3303   16.6017  134.6271 N   0  0  0  0  0  0  0  0  0  0  0  0
  -19.4292   16.7774  132.3907 C   0  0  0  0  0  0  0  0  0  0  0  0
  -18.5348   17.7972  132.0285 O   0  0  0  0  0  0  0  0  0  0  0  0
  -20.7772   17.2290  132.0369 C   0  0  0  0  0  0  0  0  0  0  0  0
  -21.0690   17.5345  130.8176 O   0  0  0  0  0  0  0  0  0  0  0  0
  -21.8284   17.3499  133.0326 C   0  0  0  0  0  0  0  0  0  0  0  0
  -21.6533   17.0547  134.2841 C   0  0  0  0  0  0  0  0  0  0  0  0
  -22.6692   17.0623  135.3353 C   0  0  0  0  0  0  0  0  0  0  0  0
  -23.3214   18.2837  135.5914 C   0  0  0  0  0  0  0  0  0  0  0  0
  -24.2611   18.4646  136.5636 C   0  0  0  0  0  0  0  0  0  0  0  0
  -24.5914   17.3878  137.3413 C   0  0  0  0  0  0  0  0  0  0  0  0
  -24.0010   16.1864  137.1483 C   0  0  0  0  0  0  0  0  0  0  0  0
  -23.0284   16.0270  136.1337 C   0  0  0  0  0  0  0  0  0  0  0  0
  -22.3773   14.6967  136.0485 C   0  0  0  0  0  0  0  0  0  0  0  0
  1  2  2  0
  2  3  1  0
  2  4  1  0
  4  5  2  0
  4  6  1  0
  5 11  1  0
  6  7  1  0
  6  8  1  0
  8  9  2  0
  8 10  1  0
 10 11  2  0
 11 12  1  0
 12 13  2  0
 12 17  1  0
 13 14  1  0
 14 15  2  0
 15 16  1  0
 16 17  2  0
 18 17  1  6
M  END
$$$$
