
     RDKit          3D

 18 19  0  0  0  0  0  0  0  0999 V2000
  -22.5183   18.7667  132.9717 O   0  0  0  0  0  0  0  0  0  0  0  0
  -21.5165   18.3609  132.3503 C   0  0  0  0  0  0  0  0  0  0  0  0
  -21.3257   18.6845  131.0311 O   0  0  0  0  0  0  0  0  0  0  0  0
  -20.5472   17.5182  133.0965 C   0  0  0  0  0  0  0  0  0  0  0  0
  -20.8652   17.0628  134.2408 N   0  0  0  0  0  0  0  0  0  0  0  0
  -19.2504   17.2541  132.4519 C   0  0  0  0  0  0  0  0  0  0  0  0
  -19.4073   16.5735  131.2341 O   0  0  0  0  0  0  0  0  0  0  0  0
  -18.4086   16.4219  133.3151 C   0  0  0  0  0  0  0  0  0  0  0  0
  -17.2189   16.0853  132.9457 O   0  0  0  0  0  0  0  0  0  0  0  0
  -18.8734   15.9470  134.6072 C   0  0  0  0  0  0  0  0  0  0  0  0
  -20.0439   16.2365  135.0870 C   0  0  0  0  0  0  0  0  0  0  0  0
  -20.5618   15.8783  136.4062 C   0  0  0  0  0  0  0  0  0  0  0  0
  -20.6760   16.9120  137.3555 C   0  0  0  0  0  0  0  0  0  0  0  0
  -21.1024   16.7338  138.6389 C   0  0  0  0  0  0  0  0  0  0  0  0
  -21.4414   15.4665  139.0295 C   0  0  0  0  0  0  0  0  0  0  0  0
  -21.3530   14.4285  138.1670 C   0  0  0  0  0  0  0  0  0  0  0  0
  -20.9062   14.6414  136.8420 C   0  0  0  0  0  0  0  0  0  0  0  0
  -20.7646   13.4333  135.9925 C   0  0  0  0  0  0  0  0  0  0  0  0
  1  2  2  0
  2  3  1  0
  2  4  1  0
  4  5  2  0
  4  6  1  0
  5 11  1  0
  6  7  1  0
  6  8  1  0
  8  9  2  0
  8 10  1  0
 10 11  2  0
 11 12  1  0
 12 13  2  0
 12 17  1  0
 13 14  1  0
 14 15  2  0
 15 16  1  0
 16 17  2  0
 18 17  1  6
M  END
$$$$
