
     RDKit          3D

 18 19  0  0  0  0  0  0  0  0999 V2000
  -21.2728   19.0422  131.5923 O   0  0  0  0  0  0  0  0  0  0  0  0
  -21.4669   18.6661  132.7494 C   0  0  0  0  0  0  0  0  0  0  0  0
  -22.5232   19.1416  133.4812 O   0  0  0  0  0  0  0  0  0  0  0  0
  -20.5423   17.6828  133.3600 C   0  0  0  0  0  0  0  0  0  0  0  0
  -20.8057   17.1317  134.4568 N   0  0  0  0  0  0  0  0  0  0  0  0
  -19.3028   17.3889  132.6098 C   0  0  0  0  0  0  0  0  0  0  0  0
  -19.6786   16.8499  131.3537 O   0  0  0  0  0  0  0  0  0  0  0  0
  -18.4578   16.4162  133.3042 C   0  0  0  0  0  0  0  0  0  0  0  0
  -17.3288   16.0402  132.8271 O   0  0  0  0  0  0  0  0  0  0  0  0
  -18.8637   15.8258  134.5798 C   0  0  0  0  0  0  0  0  0  0  0  0
  -19.9841   16.1670  135.1389 C   0  0  0  0  0  0  0  0  0  0  0  0
  -20.4281   15.7090  136.4529 C   0  0  0  0  0  0  0  0  0  0  0  0
  -20.9495   14.3960  136.5311 C   0  0  0  0  0  0  0  0  0  0  0  0
  -21.4498   13.8521  137.6829 C   0  0  0  0  0  0  0  0  0  0  0  0
  -21.4630   14.5903  138.8459 C   0  0  0  0  0  0  0  0  0  0  0  0
  -20.9693   15.8555  138.7973 C   0  0  0  0  0  0  0  0  0  0  0  0
  -20.4570   16.4113  137.6083 C   0  0  0  0  0  0  0  0  0  0  0  0
  -20.0393   17.8503  137.6939 C   0  0  0  0  0  0  0  0  0  0  0  0
  1  2  2  0
  2  3  1  0
  2  4  1  0
  4  5  2  0
  4  6  1  0
  5 11  1  0
  6  7  1  0
  6  8  1  0
  8  9  2  0
  8 10  1  0
 10 11  2  0
 11 12  1  0
 12 13  2  0
 12 17  1  0
 13 14  1  0
 14 15  2  0
 15 16  1  0
 16 17  2  0
 17 18  1  0
M  END
$$$$
