
     RDKit          3D

 24 25  0  0  0  0  0  0  0  0999 V2000
   25.2655   24.0965   38.2693 O   0  0  0  0  0  0  0  0  0  0  0  0
   24.7112   24.6529   37.1291 C   0  0  2  0  0  0  0  0  0  0  0  0
   24.3660   23.5173   36.1828 C   0  0  1  0  0  0  0  0  0  0  0  0
   23.3725   22.7631   36.8202 O   0  0  0  0  0  0  0  0  0  0  0  0
   23.7627   24.1553   34.9553 C   0  0  2  0  0  0  0  0  0  0  0  0
   23.4887   23.1789   33.9995 O   0  0  0  0  0  0  0  0  0  0  0  0
   24.6023   25.2830   34.4214 C   0  0  1  0  0  0  0  0  0  0  0  0
   23.7597   26.5202   34.1938 C   0  0  0  0  0  0  0  0  0  0  0  0
   23.4049   26.6297   32.8503 O   0  0  0  0  0  0  0  0  0  0  0  0
   25.7463   25.5141   35.1228 O   0  0  0  0  0  0  0  0  0  0  0  0
   25.6060   25.6723   36.4926 C   0  0  1  0  0  0  0  0  0  0  0  0
   25.1346   27.2891   36.9976 S   0  0  0  0  0  0  0  0  0  0  0  0
   25.7987   28.7057   36.2553 C   0  0  1  0  0  0  0  0  0  0  0  0
   27.2492   28.9865   36.4527 C   0  0  2  0  0  0  0  0  0  0  0  0
   27.7462   28.7436   37.7230 O   0  0  0  0  0  0  0  0  0  0  0  0
   27.5580   29.8437   38.5480 C   0  0  0  0  0  0  0  0  0  0  0  0
   27.3478   30.4084   36.2750 O   0  0  0  0  0  0  0  0  0  0  0  0
   25.5917   28.7987   34.7393 C   0  0  1  0  0  0  0  0  0  0  0  0
   24.2653   28.5172   34.4385 O   0  0  0  0  0  0  0  0  0  0  0  0
   25.8311   30.2455   34.4052 C   0  0  2  0  0  0  0  0  0  0  0  0
   25.8189   30.5080   33.0501 O   0  0  0  0  0  0  0  0  0  0  0  0
   27.0977   30.7919   34.9944 C   0  0  1  0  0  0  0  0  0  0  0  0
   26.9402   32.3184   35.0248 C   0  0  0  0  0  0  0  0  0  0  0  0
   27.9373   32.9558   34.3195 O   0  0  0  0  0  0  0  0  0  0  0  0
  2  1  1  1
  2  3  1  0
  2 11  1  0
  3  4  1  1
  3  5  1  0
  5  6  1  6
  5  7  1  0
  7  8  1  1
  7 10  1  0
  8  9  1  0
 10 11  1  0
 11 12  1  6
 13 12  1  6
 13 14  1  0
 13 18  1  0
 14 15  1  1
 14 17  1  0
 15 16  1  0
 17 22  1  0
 18 19  1  1
 18 20  1  0
 20 21  1  6
 20 22  1  0
 22 23  1  1
 23 24  1  0
M  END
$$$$
