
     RDKit          3D

 24 25  0  0  0  0  0  0  0  0999 V2000
   23.4174   23.4070   34.6562 O   0  0  0  0  0  0  0  0  0  0  0  0
   24.1761   24.0356   35.6467 C   0  0  2  0  0  0  0  0  0  0  0  0
   23.6717   23.4083   36.9599 C   0  0  1  0  0  0  0  0  0  0  0  0
   23.7408   22.0385   36.8996 O   0  0  0  0  0  0  0  0  0  0  0  0
   24.5960   23.9892   38.0268 C   0  0  2  0  0  0  0  0  0  0  0  0
   24.2280   23.3927   39.2315 O   0  0  0  0  0  0  0  0  0  0  0  0
   24.3790   25.4850   38.0229 C   0  0  1  0  0  0  0  0  0  0  0  0
   25.6796   26.2453   38.2057 C   0  0  0  0  0  0  0  0  0  0  0  0
   26.5831   25.5229   38.9833 O   0  0  0  0  0  0  0  0  0  0  0  0
   23.6112   25.9613   37.0076 O   0  0  0  0  0  0  0  0  0  0  0  0
   23.9380   25.5244   35.7222 C   0  0  1  0  0  0  0  0  0  0  0  0
   25.2570   26.4354   35.0070 S   0  0  0  0  0  0  0  0  0  0  0  0
   25.0711   28.1211   34.5937 C   0  0  1  0  0  0  0  0  0  0  0  0
   26.2991   28.9723   34.7010 C   0  0  2  0  0  0  0  0  0  0  0  0
   26.4672   29.5029   35.9774 O   0  0  0  0  0  0  0  0  0  0  0  0
   27.8221   29.7063   36.1881 C   0  0  0  0  0  0  0  0  0  0  0  0
   26.3061   30.0548   33.8268 O   0  0  0  0  0  0  0  0  0  0  0  0
   24.4288   28.4082   33.2536 C   0  0  1  0  0  0  0  0  0  0  0  0
   23.3099   27.6549   33.0153 O   0  0  0  0  0  0  0  0  0  0  0  0
   23.9582   29.8715   33.3395 C   0  0  2  0  0  0  0  0  0  0  0  0
   23.3964   30.2502   32.1385 O   0  0  0  0  0  0  0  0  0  0  0  0
   25.1392   30.7557   33.7364 C   0  0  1  0  0  0  0  0  0  0  0  0
   24.8025   31.5883   34.9539 C   0  0  0  0  0  0  0  0  0  0  0  0
   23.4375   31.5652   35.2307 O   0  0  0  0  0  0  0  0  0  0  0  0
  2  1  1  6
  2  3  1  0
  2 11  1  0
  3  4  1  6
  3  5  1  0
  5  6  1  1
  5  7  1  0
  7  8  1  0
  7 10  1  6
  8  9  1  6
 10 11  1  0
 11 12  1  1
 13 12  1  6
 13 14  1  0
 13 18  1  0
 14 15  1  1
 14 17  1  0
 16 15  1  6
 22 17  1  1
 18 19  1  1
 18 20  1  0
 20 21  1  6
 20 22  1  0
 22 23  1  0
 23 24  1  6
M  END
$$$$
