
     RDKit          3D

 24 25  0  0  0  0  0  0  0  0999 V2000
   24.6900   24.1342   38.2829 O   0  0  0  0  0  0  0  0  0  0  0  0
   24.4768   24.6721   37.0113 C   0  0  2  0  0  0  0  0  0  0  0  0
   24.3908   23.4389   36.0924 C   0  0  1  0  0  0  0  0  0  0  0  0
   23.4512   22.5530   36.5580 O   0  0  0  0  0  0  0  0  0  0  0  0
   24.0175   24.0176   34.7301 C   0  0  2  0  0  0  0  0  0  0  0  0
   23.8531   22.9302   33.8739 O   0  0  0  0  0  0  0  0  0  0  0  0
   25.1542   24.9235   34.3158 C   0  0  1  0  0  0  0  0  0  0  0  0
   24.6529   26.1863   33.6397 C   0  0  0  0  0  0  0  0  0  0  0  0
   23.2840   26.3577   33.8390 O   0  0  0  0  0  0  0  0  0  0  0  0
   26.0934   25.1562   35.2701 O   0  0  0  0  0  0  0  0  0  0  0  0
   25.6212   25.5307   36.5299 C   0  0  1  0  0  0  0  0  0  0  0  0
   25.2457   27.2420   36.6364 S   0  0  0  0  0  0  0  0  0  0  0  0
   26.5067   28.4482   36.5933 C   0  0  1  0  0  0  0  0  0  0  0  0
   26.0764   29.8506   36.2896 C   0  0  2  0  0  0  0  0  0  0  0  0
   26.0457   30.1120   34.9223 O   0  0  0  0  0  0  0  0  0  0  0  0
   25.4715   31.3592   34.7314 C   0  0  0  0  0  0  0  0  0  0  0  0
   26.8997   30.8213   36.8519 O   0  0  0  0  0  0  0  0  0  0  0  0
   27.4177   28.4985   37.8010 C   0  0  1  0  0  0  0  0  0  0  0  0
   27.8489   27.2636   38.2075 O   0  0  0  0  0  0  0  0  0  0  0  0
   28.6680   29.2626   37.3288 C   0  0  2  0  0  0  0  0  0  0  0  0
   29.5491   29.4064   38.3797 O   0  0  0  0  0  0  0  0  0  0  0  0
   28.2417   30.6046   36.7361 C   0  0  1  0  0  0  0  0  0  0  0  0
   28.7943   30.7751   35.3382 C   0  0  0  0  0  0  0  0  0  0  0  0
   30.0371   30.1617   35.1985 O   0  0  0  0  0  0  0  0  0  0  0  0
  2  1  1  1
  2  3  1  0
  2 11  1  0
  3  4  1  1
  3  5  1  0
  5  6  1  6
  5  7  1  0
  7  8  1  0
  7 10  1  1
  8  9  1  6
 10 11  1  0
 11 12  1  6
 13 12  1  1
 13 14  1  0
 13 18  1  0
 14 15  1  6
 14 17  1  0
 16 15  1  6
 22 17  1  6
 18 19  1  6
 18 20  1  0
 20 21  1  1
 20 22  1  0
 22 23  1  0
 23 24  1  6
M  END
$$$$
