
     RDKit          3D

 24 25  0  0  0  0  0  0  0  0999 V2000
   23.8965   25.0822   33.3809 O   0  0  0  0  0  0  0  0  0  0  0  0
   24.3699   25.0362   34.6945 C   0  0  2  0  0  0  0  0  0  0  0  0
   23.4393   24.0270   35.3931 C   0  0  1  0  0  0  0  0  0  0  0  0
   23.4060   22.8410   34.7026 O   0  0  0  0  0  0  0  0  0  0  0  0
   24.0425   23.8701   36.7865 C   0  0  2  0  0  0  0  0  0  0  0  0
   23.2768   22.9054   37.4389 O   0  0  0  0  0  0  0  0  0  0  0  0
   23.9656   25.2264   37.4492 C   0  0  1  0  0  0  0  0  0  0  0  0
   25.2095   25.5284   38.2645 C   0  0  0  0  0  0  0  0  0  0  0  0
   25.5269   24.4702   39.1143 O   0  0  0  0  0  0  0  0  0  0  0  0
   23.5856   26.2508   36.6411 O   0  0  0  0  0  0  0  0  0  0  0  0
   24.2483   26.3564   35.4164 C   0  0  1  0  0  0  0  0  0  0  0  0
   25.7948   27.1764   35.5464 S   0  0  0  0  0  0  0  0  0  0  0  0
   25.9024   28.9175   35.4848 C   0  0  1  0  0  0  0  0  0  0  0  0
   27.2715   29.5058   35.6380 C   0  0  2  0  0  0  0  0  0  0  0  0
   27.6089   29.7248   36.9711 O   0  0  0  0  0  0  0  0  0  0  0  0
   28.9825   29.5893   37.0993 C   0  0  0  0  0  0  0  0  0  0  0  0
   27.4294   30.7280   34.9919 O   0  0  0  0  0  0  0  0  0  0  0  0
   25.2484   29.5804   34.2916 C   0  0  1  0  0  0  0  0  0  0  0  0
   23.9970   29.0948   34.0190 O   0  0  0  0  0  0  0  0  0  0  0  0
   25.0643   31.0528   34.7016 C   0  0  2  0  0  0  0  0  0  0  0  0
   24.5144   31.7615   33.6543 O   0  0  0  0  0  0  0  0  0  0  0  0
   26.4101   31.6212   35.1484 C   0  0  1  0  0  0  0  0  0  0  0  0
   26.3052   32.2295   36.5296 C   0  0  0  0  0  0  0  0  0  0  0  0
   24.9918   32.2279   36.9934 O   0  0  0  0  0  0  0  0  0  0  0  0
  2  1  1  6
  2  3  1  0
  2 11  1  0
  3  4  1  6
  3  5  1  0
  5  6  1  1
  5  7  1  0
  7  8  1  0
  7 10  1  6
  8  9  1  6
 10 11  1  0
 11 12  1  1
 13 12  1  6
 13 14  1  0
 13 18  1  0
 14 15  1  1
 14 17  1  0
 16 15  1  6
 22 17  1  1
 18 19  1  1
 18 20  1  0
 20 21  1  6
 20 22  1  0
 22 23  1  0
 23 24  1  6
M  END
$$$$
