
     RDKit          3D

 24 25  0  0  0  0  0  0  0  0999 V2000
   24.4396   23.9542   38.3100 O   0  0  0  0  0  0  0  0  0  0  0  0
   24.2048   24.5089   37.0495 C   0  0  2  0  0  0  0  0  0  0  0  0
   23.8791   23.2941   36.1602 C   0  0  1  0  0  0  0  0  0  0  0  0
   22.8652   22.5497   36.7103 O   0  0  0  0  0  0  0  0  0  0  0  0
   23.4847   23.9108   34.8207 C   0  0  2  0  0  0  0  0  0  0  0  0
   23.1065   22.8516   33.9976 O   0  0  0  0  0  0  0  0  0  0  0  0
   24.7000   24.6479   34.3065 C   0  0  1  0  0  0  0  0  0  0  0  0
   24.3266   25.9640   33.6496 C   0  0  0  0  0  0  0  0  0  0  0  0
   23.1988   25.8246   32.8424 O   0  0  0  0  0  0  0  0  0  0  0  0
   25.7332   24.7539   35.1830 O   0  0  0  0  0  0  0  0  0  0  0  0
   25.4160   25.1976   36.4686 C   0  0  1  0  0  0  0  0  0  0  0  0
   25.2891   26.9451   36.5748 S   0  0  0  0  0  0  0  0  0  0  0  0
   26.6913   27.9353   36.8914 C   0  0  1  0  0  0  0  0  0  0  0  0
   26.5827   29.3820   36.5181 C   0  0  2  0  0  0  0  0  0  0  0  0
   26.9534   29.6185   35.1969 O   0  0  0  0  0  0  0  0  0  0  0  0
   26.4071   30.8300   34.8028 C   0  0  0  0  0  0  0  0  0  0  0  0
   27.3723   30.2207   37.2986 O   0  0  0  0  0  0  0  0  0  0  0  0
   27.2497   27.8641   38.2964 C   0  0  1  0  0  0  0  0  0  0  0  0
   27.3586   26.5846   38.7731 O   0  0  0  0  0  0  0  0  0  0  0  0
   28.6845   28.4112   38.1860 C   0  0  2  0  0  0  0  0  0  0  0  0
   29.2703   28.4340   39.4341 O   0  0  0  0  0  0  0  0  0  0  0  0
   28.6460   29.7920   37.5335 C   0  0  1  0  0  0  0  0  0  0  0  0
   29.5657   29.8458   36.3335 C   0  0  0  0  0  0  0  0  0  0  0  0
   30.8959   29.6479   36.6963 O   0  0  0  0  0  0  0  0  0  0  0  0
  2  1  1  1
  2  3  1  0
  2 11  1  0
  3  4  1  1
  3  5  1  0
  5  6  1  6
  5  7  1  0
  7  8  1  0
  7 10  1  1
  8  9  1  6
 10 11  1  0
 11 12  1  6
 13 12  1  1
 13 14  1  0
 13 18  1  0
 14 15  1  6
 14 17  1  0
 16 15  1  6
 22 17  1  6
 18 19  1  6
 18 20  1  0
 20 21  1  1
 20 22  1  0
 22 23  1  0
 23 24  1  6
M  END
$$$$
