
     RDKit          3D

 24 25  0  0  0  0  0  0  0  0999 V2000
   25.2042   24.3667   38.2270 O   0  0  0  0  0  0  0  0  0  0  0  0
   24.5291   24.8652   37.1100 C   0  0  2  0  0  0  0  0  0  0  0  0
   24.1820   23.6083   36.2901 C   0  0  1  0  0  0  0  0  0  0  0  0
   23.5114   22.6949   37.0651 O   0  0  0  0  0  0  0  0  0  0  0  0
   23.3233   24.1386   35.1449 C   0  0  2  0  0  0  0  0  0  0  0  0
   22.9183   23.0255   34.4104 O   0  0  0  0  0  0  0  0  0  0  0  0
   24.1952   25.0815   34.3478 C   0  0  1  0  0  0  0  0  0  0  0  0
   23.4276   26.3060   33.8848 C   0  0  0  0  0  0  0  0  0  0  0  0
   23.7498   26.6379   32.5699 O   0  0  0  0  0  0  0  0  0  0  0  0
   25.3993   25.3757   34.9051 O   0  0  0  0  0  0  0  0  0  0  0  0
   25.3867   25.7594   36.2478 C   0  0  1  0  0  0  0  0  0  0  0  0
   24.9924   27.4556   36.4686 S   0  0  0  0  0  0  0  0  0  0  0  0
   26.2321   28.6838   36.4311 C   0  0  1  0  0  0  0  0  0  0  0  0
   25.8682   29.9772   35.7687 C   0  0  2  0  0  0  0  0  0  0  0  0
   26.1151   29.9594   34.3984 O   0  0  0  0  0  0  0  0  0  0  0  0
   25.3813   30.9787   33.8117 C   0  0  0  0  0  0  0  0  0  0  0  0
   26.5571   31.0759   36.2729 O   0  0  0  0  0  0  0  0  0  0  0  0
   26.8786   29.0139   37.7593 C   0  0  1  0  0  0  0  0  0  0  0  0
   27.2220   27.9051   38.4864 O   0  0  0  0  0  0  0  0  0  0  0  0
   28.1964   29.7234   37.3986 C   0  0  2  0  0  0  0  0  0  0  0  0
   28.8452   30.1127   38.5515 O   0  0  0  0  0  0  0  0  0  0  0  0
   27.8953   30.9003   36.4722 C   0  0  1  0  0  0  0  0  0  0  0  0
   28.7198   30.8134   35.2068 C   0  0  0  0  0  0  0  0  0  0  0  0
   29.9730   30.2549   35.4474 O   0  0  0  0  0  0  0  0  0  0  0  0
  2  1  1  1
  2  3  1  0
  2 11  1  0
  3  4  1  1
  3  5  1  0
  5  6  1  6
  5  7  1  0
  7  8  1  0
  7 10  1  1
  8  9  1  6
 10 11  1  0
 11 12  1  6
 13 12  1  1
 13 14  1  0
 13 18  1  0
 14 15  1  6
 14 17  1  0
 16 15  1  6
 22 17  1  6
 18 19  1  6
 18 20  1  0
 20 21  1  1
 20 22  1  0
 22 23  1  0
 23 24  1  6
M  END
$$$$
