
     RDKit          3D

 24 25  0  0  0  0  0  0  0  0999 V2000
   25.0119   24.2714   38.5009 O   0  0  0  0  0  0  0  0  0  0  0  0
   24.7036   24.6481   37.2046 C   0  0  2  0  0  0  0  0  0  0  0  0
   24.3797   23.3878   36.4230 C   0  0  1  0  0  0  0  0  0  0  0  0
   23.2220   22.8529   37.0023 O   0  0  0  0  0  0  0  0  0  0  0  0
   24.0460   23.8321   35.0197 C   0  0  2  0  0  0  0  0  0  0  0  0
   23.8114   22.7199   34.2135 O   0  0  0  0  0  0  0  0  0  0  0  0
   25.0792   24.7648   34.4504 C   0  0  1  0  0  0  0  0  0  0  0  0
   24.4265   26.0034   33.8739 C   0  0  0  0  0  0  0  0  0  0  0  0
   23.7669   25.6996   32.6841 O   0  0  0  0  0  0  0  0  0  0  0  0
   26.1221   25.0269   35.2856 O   0  0  0  0  0  0  0  0  0  0  0  0
   25.7944   25.4510   36.5639 C   0  0  1  0  0  0  0  0  0  0  0  0
   25.4381   27.1676   36.6959 S   0  0  0  0  0  0  0  0  0  0  0  0
   26.6908   28.3630   36.6723 C   0  0  1  0  0  0  0  0  0  0  0  0
   26.3642   29.7103   36.1246 C   0  0  2  0  0  0  0  0  0  0  0  0
   25.5629   29.7273   34.9944 O   0  0  0  0  0  0  0  0  0  0  0  0
   26.2281   30.3073   33.9233 C   0  0  0  0  0  0  0  0  0  0  0  0
   27.6360   30.2192   35.6924 O   0  0  0  0  0  0  0  0  0  0  0  0
   27.3388   28.6473   38.0320 C   0  0  1  0  0  0  0  0  0  0  0  0
   27.6547   27.4447   38.6509 O   0  0  0  0  0  0  0  0  0  0  0  0
   28.6340   29.3386   37.7053 C   0  0  2  0  0  0  0  0  0  0  0  0
   29.3101   29.7977   38.8176 O   0  0  0  0  0  0  0  0  0  0  0  0
   28.4776   30.4686   36.7312 C   0  0  1  0  0  0  0  0  0  0  0  0
   29.8632   30.7070   36.1154 C   0  0  0  0  0  0  0  0  0  0  0  0
   30.6566   31.4982   36.9170 O   0  0  0  0  0  0  0  0  0  0  0  0
  2  1  1  1
  2  3  1  0
  2 11  1  0
  3  4  1  1
  3  5  1  0
  5  6  1  6
  5  7  1  0
  7  8  1  1
  7 10  1  0
  8  9  1  0
 10 11  1  0
 11 12  1  6
 13 12  1  1
 13 14  1  0
 13 18  1  0
 14 15  1  6
 14 17  1  0
 15 16  1  0
 17 22  1  0
 18 19  1  6
 18 20  1  0
 20 21  1  1
 20 22  1  0
 22 23  1  6
 23 24  1  0
M  END
$$$$
