
     RDKit          3D

 24 25  0  0  0  0  0  0  0  0999 V2000
   25.8416   24.2089   38.5828 O   0  0  0  0  0  0  0  0  0  0  0  0
   25.0220   24.5167   37.4942 C   0  0  2  0  0  0  0  0  0  0  0  0
   24.8535   23.1730   36.7602 C   0  0  1  0  0  0  0  0  0  0  0  0
   24.4039   22.2038   37.6223 O   0  0  0  0  0  0  0  0  0  0  0  0
   23.8461   23.4786   35.6548 C   0  0  2  0  0  0  0  0  0  0  0  0
   23.6005   22.2712   35.0034 O   0  0  0  0  0  0  0  0  0  0  0  0
   24.4869   24.5105   34.7553 C   0  0  1  0  0  0  0  0  0  0  0  0
   23.4877   25.5540   34.2908 C   0  0  0  0  0  0  0  0  0  0  0  0
   22.2570   24.9754   33.9852 O   0  0  0  0  0  0  0  0  0  0  0  0
   25.6516   25.0412   35.2121 O   0  0  0  0  0  0  0  0  0  0  0  0
   25.6534   25.4945   36.5330 C   0  0  1  0  0  0  0  0  0  0  0  0
   24.9791   27.1064   36.7016 S   0  0  0  0  0  0  0  0  0  0  0  0
   25.7035   28.4773   35.8999 C   0  0  1  0  0  0  0  0  0  0  0  0
   27.0891   28.8464   36.3334 C   0  0  2  0  0  0  0  0  0  0  0  0
   27.0908   29.7230   37.4153 O   0  0  0  0  0  0  0  0  0  0  0  0
   28.3750   29.7687   37.9351 C   0  0  0  0  0  0  0  0  0  0  0  0
   27.8413   29.4594   35.3362 O   0  0  0  0  0  0  0  0  0  0  0  0
   25.6891   28.4441   34.3867 C   0  0  1  0  0  0  0  0  0  0  0  0
   24.4783   28.0751   33.8633 O   0  0  0  0  0  0  0  0  0  0  0  0
   25.9255   29.9017   33.9513 C   0  0  2  0  0  0  0  0  0  0  0  0
   25.9789   29.9727   32.5752 O   0  0  0  0  0  0  0  0  0  0  0  0
   27.2004   30.4223   34.6128 C   0  0  1  0  0  0  0  0  0  0  0  0
   26.9303   31.7071   35.3646 C   0  0  0  0  0  0  0  0  0  0  0  0
   25.6635   32.2119   35.0807 O   0  0  0  0  0  0  0  0  0  0  0  0
  2  1  1  1
  2  3  1  0
  2 11  1  0
  3  4  1  1
  3  5  1  0
  5  6  1  6
  5  7  1  0
  7  8  1  0
  7 10  1  1
  8  9  1  6
 10 11  1  0
 11 12  1  6
 13 12  1  1
 13 14  1  0
 13 18  1  0
 14 15  1  1
 14 17  1  0
 16 15  1  6
 22 17  1  1
 18 19  1  1
 18 20  1  0
 20 21  1  6
 20 22  1  0
 22 23  1  0
 23 24  1  6
M  END
$$$$
