
     RDKit          3D

 24 25  0  0  0  0  0  0  0  0999 V2000
   24.7471   24.2107   38.3598 O   0  0  0  0  0  0  0  0  0  0  0  0
   24.3187   24.7133   37.1429 C   0  0  2  0  0  0  0  0  0  0  0  0
   23.8477   23.5418   36.3003 C   0  0  1  0  0  0  0  0  0  0  0  0
   22.7346   23.0056   36.9602 O   0  0  0  0  0  0  0  0  0  0  0  0
   23.3856   24.1222   34.9859 C   0  0  2  0  0  0  0  0  0  0  0  0
   23.0082   23.0965   34.1213 O   0  0  0  0  0  0  0  0  0  0  0  0
   24.3964   25.0585   34.3833 C   0  0  1  0  0  0  0  0  0  0  0  0
   23.7483   26.3692   33.9900 C   0  0  0  0  0  0  0  0  0  0  0  0
   22.9442   26.1985   32.8643 O   0  0  0  0  0  0  0  0  0  0  0  0
   25.5363   25.2023   35.1140 O   0  0  0  0  0  0  0  0  0  0  0  0
   25.3721   25.5244   36.4521 C   0  0  1  0  0  0  0  0  0  0  0  0
   25.1199   27.2357   36.7668 S   0  0  0  0  0  0  0  0  0  0  0  0
   26.4245   28.3735   36.7175 C   0  0  1  0  0  0  0  0  0  0  0  0
   26.1336   29.7536   36.2351 C   0  0  2  0  0  0  0  0  0  0  0  0
   25.2763   29.8485   35.1507 O   0  0  0  0  0  0  0  0  0  0  0  0
   25.9829   30.0768   33.9783 C   0  0  0  0  0  0  0  0  0  0  0  0
   27.4037   30.2203   35.7532 O   0  0  0  0  0  0  0  0  0  0  0  0
   27.1549   28.5777   38.0496 C   0  0  1  0  0  0  0  0  0  0  0  0
   27.4457   27.3399   38.6085 O   0  0  0  0  0  0  0  0  0  0  0  0
   28.4624   29.2215   37.6780 C   0  0  2  0  0  0  0  0  0  0  0  0
   29.2163   29.6081   38.7678 O   0  0  0  0  0  0  0  0  0  0  0  0
   28.3088   30.3928   36.7535 C   0  0  1  0  0  0  0  0  0  0  0  0
   29.6703   30.5912   36.0730 C   0  0  0  0  0  0  0  0  0  0  0  0
   29.6826   31.6984   35.2532 O   0  0  0  0  0  0  0  0  0  0  0  0
  2  1  1  1
  2  3  1  0
  2 11  1  0
  3  4  1  1
  3  5  1  0
  5  6  1  6
  5  7  1  0
  7  8  1  1
  7 10  1  0
  8  9  1  0
 10 11  1  0
 11 12  1  6
 13 12  1  1
 13 14  1  0
 13 18  1  0
 14 15  1  6
 14 17  1  0
 15 16  1  0
 17 22  1  0
 18 19  1  6
 18 20  1  0
 20 21  1  1
 20 22  1  0
 22 23  1  6
 23 24  1  0
M  END
$$$$
