
     RDKit          3D

 24 25  0  0  0  0  0  0  0  0999 V2000
   24.4865   24.1732   38.3888 O   0  0  0  0  0  0  0  0  0  0  0  0
   24.3090   24.7492   37.1285 C   0  0  2  0  0  0  0  0  0  0  0  0
   24.1114   23.5438   36.1901 C   0  0  1  0  0  0  0  0  0  0  0  0
   23.1042   22.7324   36.6500 O   0  0  0  0  0  0  0  0  0  0  0  0
   23.7770   24.1755   34.8412 C   0  0  2  0  0  0  0  0  0  0  0  0
   23.5142   23.1210   33.9687 O   0  0  0  0  0  0  0  0  0  0  0  0
   24.9828   24.9894   34.4310 C   0  0  1  0  0  0  0  0  0  0  0  0
   24.5845   26.3016   33.7810 C   0  0  0  0  0  0  0  0  0  0  0  0
   23.8600   26.0867   32.6097 O   0  0  0  0  0  0  0  0  0  0  0  0
   25.9462   25.1254   35.3799 O   0  0  0  0  0  0  0  0  0  0  0  0
   25.5179   25.5164   36.6503 C   0  0  1  0  0  0  0  0  0  0  0  0
   25.2893   27.2512   36.7889 S   0  0  0  0  0  0  0  0  0  0  0  0
   26.6516   28.3419   36.8278 C   0  0  1  0  0  0  0  0  0  0  0  0
   26.4055   29.7327   36.3286 C   0  0  2  0  0  0  0  0  0  0  0  0
   26.6007   29.8456   34.9546 O   0  0  0  0  0  0  0  0  0  0  0  0
   25.8977   30.9528   34.5057 C   0  0  0  0  0  0  0  0  0  0  0  0
   27.2256   30.6903   36.9171 O   0  0  0  0  0  0  0  0  0  0  0  0
   27.3761   28.4507   38.1523 C   0  0  1  0  0  0  0  0  0  0  0  0
   27.6239   27.2370   38.7369 O   0  0  0  0  0  0  0  0  0  0  0  0
   28.7489   29.0574   37.8099 C   0  0  2  0  0  0  0  0  0  0  0  0
   29.4758   29.2444   38.9667 O   0  0  0  0  0  0  0  0  0  0  0  0
   28.5434   30.3567   37.0329 C   0  0  1  0  0  0  0  0  0  0  0  0
   29.3089   30.3300   35.7283 C   0  0  0  0  0  0  0  0  0  0  0  0
   29.7045   31.6075   35.3385 O   0  0  0  0  0  0  0  0  0  0  0  0
  2  1  1  1
  2  3  1  0
  2 11  1  0
  3  4  1  1
  3  5  1  0
  5  6  1  6
  5  7  1  0
  7  8  1  0
  7 10  1  1
  8  9  1  6
 10 11  1  0
 11 12  1  6
 13 12  1  1
 13 14  1  0
 13 18  1  0
 14 15  1  6
 14 17  1  0
 16 15  1  6
 22 17  1  6
 18 19  1  6
 18 20  1  0
 20 21  1  1
 20 22  1  0
 22 23  1  0
 23 24  1  6
M  END
$$$$
