
     RDKit          3D

 24 25  0  0  0  0  0  0  0  0999 V2000
   24.3946   23.7888   38.1112 O   0  0  0  0  0  0  0  0  0  0  0  0
   24.1934   24.3257   36.8372 C   0  0  2  0  0  0  0  0  0  0  0  0
   23.7158   23.1268   35.9964 C   0  0  1  0  0  0  0  0  0  0  0  0
   22.6391   22.5170   36.5910 O   0  0  0  0  0  0  0  0  0  0  0  0
   23.3611   23.7405   34.6444 C   0  0  2  0  0  0  0  0  0  0  0  0
   22.8499   22.7040   33.8653 O   0  0  0  0  0  0  0  0  0  0  0  0
   24.6379   24.3219   34.0821 C   0  0  1  0  0  0  0  0  0  0  0  0
   24.3965   25.6497   33.3879 C   0  0  0  0  0  0  0  0  0  0  0  0
   23.1838   25.6484   32.7008 O   0  0  0  0  0  0  0  0  0  0  0  0
   25.6963   24.3408   34.9344 O   0  0  0  0  0  0  0  0  0  0  0  0
   25.4593   24.8575   36.2099 C   0  0  1  0  0  0  0  0  0  0  0  0
   25.5278   26.6108   36.2589 S   0  0  0  0  0  0  0  0  0  0  0  0
   26.9359   27.4434   36.8680 C   0  0  1  0  0  0  0  0  0  0  0  0
   26.9543   28.9317   36.6989 C   0  0  2  0  0  0  0  0  0  0  0  0
   27.4925   29.3201   35.4748 O   0  0  0  0  0  0  0  0  0  0  0  0
   26.8418   30.4717   35.0601 C   0  0  0  0  0  0  0  0  0  0  0  0
   27.6913   29.5954   37.6748 O   0  0  0  0  0  0  0  0  0  0  0  0
   27.3180   27.1391   38.3006 C   0  0  1  0  0  0  0  0  0  0  0  0
   27.2971   25.8017   38.5957 O   0  0  0  0  0  0  0  0  0  0  0  0
   28.7843   27.5903   38.4291 C   0  0  2  0  0  0  0  0  0  0  0  0
   29.2176   27.3986   39.7241 O   0  0  0  0  0  0  0  0  0  0  0  0
   28.9018   29.0469   37.9836 C   0  0  1  0  0  0  0  0  0  0  0  0
   29.9594   29.1982   36.9125 C   0  0  0  0  0  0  0  0  0  0  0  0
   29.8922   30.4458   36.2967 O   0  0  0  0  0  0  0  0  0  0  0  0
  2  1  1  1
  2  3  1  0
  2 11  1  0
  3  4  1  1
  3  5  1  0
  5  6  1  6
  5  7  1  0
  7  8  1  0
  7 10  1  1
  8  9  1  6
 10 11  1  0
 11 12  1  6
 13 12  1  1
 13 14  1  0
 13 18  1  0
 14 15  1  6
 14 17  1  0
 16 15  1  6
 22 17  1  6
 18 19  1  6
 18 20  1  0
 20 21  1  1
 20 22  1  0
 22 23  1  0
 23 24  1  6
M  END
$$$$
