
     RDKit          3D

 24 25  0  0  0  0  0  0  0  0999 V2000
   25.3136   24.5047   38.3180 O   0  0  0  0  0  0  0  0  0  0  0  0
   24.6636   24.9077   37.1637 C   0  0  2  0  0  0  0  0  0  0  0  0
   24.3988   23.6689   36.3273 C   0  0  1  0  0  0  0  0  0  0  0  0
   23.5108   22.8777   37.0673 O   0  0  0  0  0  0  0  0  0  0  0  0
   23.6886   24.1408   35.0820 C   0  0  2  0  0  0  0  0  0  0  0  0
   23.4782   23.0661   34.2201 O   0  0  0  0  0  0  0  0  0  0  0  0
   24.3900   25.2961   34.4225 C   0  0  1  0  0  0  0  0  0  0  0  0
   23.4194   26.4224   34.1363 C   0  0  0  0  0  0  0  0  0  0  0  0
   22.7141   26.1730   32.9602 O   0  0  0  0  0  0  0  0  0  0  0  0
   25.5306   25.6948   35.0502 O   0  0  0  0  0  0  0  0  0  0  0  0
   25.4269   25.9524   36.4082 C   0  0  1  0  0  0  0  0  0  0  0  0
   24.8149   27.5523   36.8044 S   0  0  0  0  0  0  0  0  0  0  0  0
   25.7422   28.9834   36.5029 C   0  0  1  0  0  0  0  0  0  0  0  0
   26.8152   29.3413   37.4737 C   0  0  2  0  0  0  0  0  0  0  0  0
   26.5094   29.1527   38.8118 O   0  0  0  0  0  0  0  0  0  0  0  0
   26.6017   30.3458   39.5147 C   0  0  0  0  0  0  0  0  0  0  0  0
   26.9565   30.7620   37.3161 O   0  0  0  0  0  0  0  0  0  0  0  0
   26.4303   29.0314   35.1340 C   0  0  1  0  0  0  0  0  0  0  0  0
   25.5182   28.6765   34.1485 O   0  0  0  0  0  0  0  0  0  0  0  0
   26.7757   30.4804   34.9263 C   0  0  2  0  0  0  0  0  0  0  0  0
   27.5278   30.7111   33.7920 O   0  0  0  0  0  0  0  0  0  0  0  0
   27.4673   31.1031   36.1027 C   0  0  1  0  0  0  0  0  0  0  0  0
   27.2768   32.6201   35.9663 C   0  0  0  0  0  0  0  0  0  0  0  0
   26.1179   33.0528   36.5728 O   0  0  0  0  0  0  0  0  0  0  0  0
  2  1  1  1
  2  3  1  0
  2 11  1  0
  3  4  1  1
  3  5  1  0
  5  6  1  6
  5  7  1  0
  7  8  1  1
  7 10  1  0
  8  9  1  0
 10 11  1  0
 11 12  1  6
 13 12  1  1
 13 14  1  0
 13 18  1  0
 14 15  1  1
 14 17  1  0
 15 16  1  0
 17 22  1  0
 18 19  1  6
 18 20  1  0
 20 21  1  6
 20 22  1  0
 22 23  1  6
 23 24  1  0
M  END
$$$$
