
     RDKit          3D

 24 25  0  0  0  0  0  0  0  0999 V2000
   25.4840   24.0977   38.2228 O   0  0  0  0  0  0  0  0  0  0  0  0
   24.8681   24.5828   37.0815 C   0  0  2  0  0  0  0  0  0  0  0  0
   24.4107   23.3898   36.2621 C   0  0  1  0  0  0  0  0  0  0  0  0
   23.4392   22.7350   37.0299 O   0  0  0  0  0  0  0  0  0  0  0  0
   23.7427   23.9511   35.0305 C   0  0  2  0  0  0  0  0  0  0  0  0
   23.3615   22.9127   34.1829 O   0  0  0  0  0  0  0  0  0  0  0  0
   24.5827   24.9930   34.3446 C   0  0  1  0  0  0  0  0  0  0  0  0
   23.7732   26.2434   34.0730 C   0  0  0  0  0  0  0  0  0  0  0  0
   24.1820   26.8412   32.8821 O   0  0  0  0  0  0  0  0  0  0  0  0
   25.7835   25.2300   34.9412 O   0  0  0  0  0  0  0  0  0  0  0  0
   25.7514   25.5061   36.2991 C   0  0  1  0  0  0  0  0  0  0  0  0
   25.3808   27.1781   36.6969 S   0  0  0  0  0  0  0  0  0  0  0  0
   26.5892   28.4173   36.6427 C   0  0  1  0  0  0  0  0  0  0  0  0
   26.1418   29.8246   36.4394 C   0  0  2  0  0  0  0  0  0  0  0  0
   25.1194   30.0092   35.5227 O   0  0  0  0  0  0  0  0  0  0  0  0
   25.3800   31.0972   34.7014 C   0  0  0  0  0  0  0  0  0  0  0  0
   27.2887   30.4656   35.8589 O   0  0  0  0  0  0  0  0  0  0  0  0
   27.5075   28.4789   37.8684 C   0  0  1  0  0  0  0  0  0  0  0  0
   27.9582   27.2001   38.1696 O   0  0  0  0  0  0  0  0  0  0  0  0
   28.6979   29.2809   37.4189 C   0  0  2  0  0  0  0  0  0  0  0  0
   29.5898   29.5608   38.4345 O   0  0  0  0  0  0  0  0  0  0  0  0
   28.3286   30.5612   36.7301 C   0  0  1  0  0  0  0  0  0  0  0  0
   29.5503   30.9759   35.8986 C   0  0  0  0  0  0  0  0  0  0  0  0
   29.5563   30.3819   34.6556 O   0  0  0  0  0  0  0  0  0  0  0  0
  2  1  1  1
  2  3  1  0
  2 11  1  0
  3  4  1  1
  3  5  1  0
  5  6  1  6
  5  7  1  0
  7  8  1  1
  7 10  1  0
  8  9  1  0
 10 11  1  0
 11 12  1  6
 13 12  1  1
 13 14  1  0
 13 18  1  0
 14 15  1  6
 14 17  1  0
 15 16  1  0
 17 22  1  0
 18 19  1  6
 18 20  1  0
 20 21  1  1
 20 22  1  0
 22 23  1  6
 23 24  1  0
M  END
$$$$
