
     RDKit          3D

 24 25  0  0  0  0  0  0  0  0999 V2000
   25.4660   24.4415   38.7178 O   0  0  0  0  0  0  0  0  0  0  0  0
   24.6210   24.5827   37.6143 C   0  0  2  0  0  0  0  0  0  0  0  0
   24.5094   23.1567   37.0429 C   0  0  1  0  0  0  0  0  0  0  0  0
   24.1161   22.2740   38.0180 O   0  0  0  0  0  0  0  0  0  0  0  0
   23.4768   23.2850   35.9260 C   0  0  2  0  0  0  0  0  0  0  0  0
   23.2825   22.0002   35.4221 O   0  0  0  0  0  0  0  0  0  0  0  0
   24.0576   24.2344   34.9034 C   0  0  1  0  0  0  0  0  0  0  0  0
   23.0046   25.1695   34.3380 C   0  0  0  0  0  0  0  0  0  0  0  0
   21.7184   24.7226   34.6362 O   0  0  0  0  0  0  0  0  0  0  0  0
   25.2003   24.8680   35.2771 O   0  0  0  0  0  0  0  0  0  0  0  0
   25.1944   25.4709   36.5368 C   0  0  1  0  0  0  0  0  0  0  0  0
   24.4453   27.0583   36.5295 S   0  0  0  0  0  0  0  0  0  0  0  0
   25.0832   28.3539   35.5491 C   0  0  1  0  0  0  0  0  0  0  0  0
   26.5030   28.7519   35.8134 C   0  0  2  0  0  0  0  0  0  0  0  0
   26.6067   29.7160   36.8127 O   0  0  0  0  0  0  0  0  0  0  0  0
   27.9344   30.1035   36.9061 C   0  0  0  0  0  0  0  0  0  0  0  0
   27.1525   29.2757   34.6999 O   0  0  0  0  0  0  0  0  0  0  0  0
   24.9219   28.1942   34.0526 C   0  0  1  0  0  0  0  0  0  0  0  0
   23.6673   27.7880   33.6821 O   0  0  0  0  0  0  0  0  0  0  0  0
   25.1095   29.6091   33.4756 C   0  0  2  0  0  0  0  0  0  0  0  0
   25.0286   29.5643   32.0998 O   0  0  0  0  0  0  0  0  0  0  0  0
   26.4408   30.1776   33.9641 C   0  0  1  0  0  0  0  0  0  0  0  0
   26.2403   31.5220   34.6283 C   0  0  0  0  0  0  0  0  0  0  0  0
   25.7004   32.4553   33.7464 O   0  0  0  0  0  0  0  0  0  0  0  0
  2  1  1  1
  2  3  1  0
  2 11  1  0
  3  4  1  1
  3  5  1  0
  5  6  1  6
  5  7  1  0
  7  8  1  0
  7 10  1  1
  8  9  1  6
 10 11  1  0
 11 12  1  6
 13 12  1  1
 13 14  1  0
 13 18  1  0
 14 15  1  1
 14 17  1  0
 16 15  1  6
 22 17  1  1
 18 19  1  1
 18 20  1  0
 20 21  1  6
 20 22  1  0
 22 23  1  0
 23 24  1  6
M  END
$$$$
