
     RDKit          3D

 24 25  0  0  0  0  0  0  0  0999 V2000
   25.2991   24.1865   38.2651 O   0  0  0  0  0  0  0  0  0  0  0  0
   24.7986   24.6714   37.0542 C   0  0  2  0  0  0  0  0  0  0  0  0
   24.4589   23.4004   36.2533 C   0  0  1  0  0  0  0  0  0  0  0  0
   23.6364   22.5758   36.9800 O   0  0  0  0  0  0  0  0  0  0  0  0
   23.7822   23.9281   34.9908 C   0  0  2  0  0  0  0  0  0  0  0  0
   23.3856   22.8087   34.2613 O   0  0  0  0  0  0  0  0  0  0  0  0
   24.8088   24.7672   34.2652 C   0  0  1  0  0  0  0  0  0  0  0  0
   24.1931   26.0155   33.6603 C   0  0  0  0  0  0  0  0  0  0  0  0
   24.3206   26.0211   32.2723 O   0  0  0  0  0  0  0  0  0  0  0  0
   25.9573   25.0074   34.9509 O   0  0  0  0  0  0  0  0  0  0  0  0
   25.8152   25.4598   36.2644 C   0  0  1  0  0  0  0  0  0  0  0  0
   25.5234   27.1879   36.3625 S   0  0  0  0  0  0  0  0  0  0  0  0
   26.8335   28.3122   36.6205 C   0  0  1  0  0  0  0  0  0  0  0  0
   26.5848   29.7305   36.2072 C   0  0  2  0  0  0  0  0  0  0  0  0
   26.9081   29.9586   34.8721 O   0  0  0  0  0  0  0  0  0  0  0  0
   26.2905   31.1328   34.4703 C   0  0  0  0  0  0  0  0  0  0  0  0
   27.3073   30.6622   36.9461 O   0  0  0  0  0  0  0  0  0  0  0  0
   27.4214   28.3365   38.0150 C   0  0  1  0  0  0  0  0  0  0  0  0
   27.6568   27.0880   38.5268 O   0  0  0  0  0  0  0  0  0  0  0  0
   28.7972   29.0095   37.8587 C   0  0  2  0  0  0  0  0  0  0  0  0
   29.4008   29.1251   39.0931 O   0  0  0  0  0  0  0  0  0  0  0  0
   28.6193   30.3599   37.1669 C   0  0  1  0  0  0  0  0  0  0  0  0
   29.5082   30.4605   35.9468 C   0  0  0  0  0  0  0  0  0  0  0  0
   30.7715   30.9499   36.2705 O   0  0  0  0  0  0  0  0  0  0  0  0
  2  1  1  1
  2  3  1  0
  2 11  1  0
  3  4  1  1
  3  5  1  0
  5  6  1  6
  5  7  1  0
  7  8  1  0
  7 10  1  1
  8  9  1  6
 10 11  1  0
 11 12  1  6
 13 12  1  1
 13 14  1  0
 13 18  1  0
 14 15  1  6
 14 17  1  0
 16 15  1  6
 22 17  1  6
 18 19  1  6
 18 20  1  0
 20 21  1  1
 20 22  1  0
 22 23  1  0
 23 24  1  6
M  END
$$$$
