
     RDKit          3D

 24 25  0  0  0  0  0  0  0  0999 V2000
   26.5166   25.8875   40.3723 O   0  0  0  0  0  0  0  0  0  0  0  0
   26.6745   26.9047   39.4464 C   0  0  2  0  0  0  0  0  0  0  0  0
   26.6814   28.2203   40.2035 C   0  0  1  0  0  0  0  0  0  0  0  0
   27.8210   28.1991   41.0178 O   0  0  0  0  0  0  0  0  0  0  0  0
   26.8579   29.3051   39.1691 C   0  0  2  0  0  0  0  0  0  0  0  0
   26.7960   30.5566   39.7791 O   0  0  0  0  0  0  0  0  0  0  0  0
   25.9011   29.1632   38.0176 C   0  0  1  0  0  0  0  0  0  0  0  0
   26.6356   29.2369   36.6956 C   0  0  0  0  0  0  0  0  0  0  0  0
   26.0997   30.2435   35.8940 O   0  0  0  0  0  0  0  0  0  0  0  0
   25.0505   28.1049   38.1196 O   0  0  0  0  0  0  0  0  0  0  0  0
   25.6310   26.8718   38.3716 C   0  0  1  0  0  0  0  0  0  0  0  0
   26.2569   26.0532   36.9471 S   0  0  0  0  0  0  0  0  0  0  0  0
   25.2368   25.6450   35.6085 C   0  0  1  0  0  0  0  0  0  0  0  0
   25.7069   25.9919   34.2372 C   0  0  2  0  0  0  0  0  0  0  0  0
   26.3287   27.2228   34.1028 O   0  0  0  0  0  0  0  0  0  0  0  0
   25.5990   28.0588   33.2693 C   0  0  0  0  0  0  0  0  0  0  0  0
   24.4922   26.0985   33.4780 O   0  0  0  0  0  0  0  0  0  0  0  0
   24.8490   24.1647   35.5192 C   0  0  1  0  0  0  0  0  0  0  0  0
   24.4242   23.7250   36.7663 O   0  0  0  0  0  0  0  0  0  0  0  0
   23.6578   24.1326   34.6014 C   0  0  2  0  0  0  0  0  0  0  0  0
   23.2369   22.8558   34.2884 O   0  0  0  0  0  0  0  0  0  0  0  0
   23.8637   24.9016   33.3301 C   0  0  1  0  0  0  0  0  0  0  0  0
   22.4654   25.2145   32.7797 C   0  0  0  0  0  0  0  0  0  0  0  0
   22.1720   24.4698   31.6584 O   0  0  0  0  0  0  0  0  0  0  0  0
  2  1  1  1
  2  3  1  0
  2 11  1  0
  3  4  1  1
  3  5  1  0
  5  6  1  1
  5  7  1  0
  7  8  1  6
  7 10  1  0
  8  9  1  0
 10 11  1  0
 11 12  1  6
 13 12  1  1
 13 14  1  0
 13 18  1  0
 14 15  1  1
 14 17  1  0
 15 16  1  0
 17 22  1  0
 18 19  1  1
 18 20  1  0
 20 21  1  6
 20 22  1  0
 22 23  1  1
 23 24  1  0
M  END
$$$$
