
     RDKit          3D

 24 25  0  0  0  0  0  0  0  0999 V2000
   24.5961   24.4124   38.3133 O   0  0  0  0  0  0  0  0  0  0  0  0
   24.2856   24.7574   36.9956 C   0  0  2  0  0  0  0  0  0  0  0  0
   23.8875   23.4207   36.3421 C   0  0  1  0  0  0  0  0  0  0  0  0
   22.9031   22.8001   37.0705 O   0  0  0  0  0  0  0  0  0  0  0  0
   23.4133   23.8175   34.9464 C   0  0  2  0  0  0  0  0  0  0  0  0
   22.9690   22.6462   34.3354 O   0  0  0  0  0  0  0  0  0  0  0  0
   24.6008   24.4324   34.2419 C   0  0  1  0  0  0  0  0  0  0  0  0
   24.2008   25.6306   33.4009 C   0  0  0  0  0  0  0  0  0  0  0  0
   23.8478   25.2466   32.1083 O   0  0  0  0  0  0  0  0  0  0  0  0
   25.6906   24.6575   35.0220 O   0  0  0  0  0  0  0  0  0  0  0  0
   25.4640   25.3137   36.2337 C   0  0  1  0  0  0  0  0  0  0  0  0
   25.3653   27.0573   36.0569 S   0  0  0  0  0  0  0  0  0  0  0  0
   26.5667   28.1068   36.7657 C   0  0  1  0  0  0  0  0  0  0  0  0
   26.1544   29.5277   37.0002 C   0  0  2  0  0  0  0  0  0  0  0  0
   26.3822   30.3365   35.8899 O   0  0  0  0  0  0  0  0  0  0  0  0
   25.5918   31.4692   36.0083 C   0  0  0  0  0  0  0  0  0  0  0  0
   26.8168   30.1330   38.0636 O   0  0  0  0  0  0  0  0  0  0  0  0
   27.2217   27.6032   38.0339 C   0  0  1  0  0  0  0  0  0  0  0  0
   27.6088   26.2914   37.9610 O   0  0  0  0  0  0  0  0  0  0  0  0
   28.5122   28.4308   38.1747 C   0  0  2  0  0  0  0  0  0  0  0  0
   29.1652   28.0791   39.3372 O   0  0  0  0  0  0  0  0  0  0  0  0
   28.1624   29.9173   38.1282 C   0  0  1  0  0  0  0  0  0  0  0  0
   28.9711   30.6271   37.0648 C   0  0  0  0  0  0  0  0  0  0  0  0
   30.2136   30.0259   36.8774 O   0  0  0  0  0  0  0  0  0  0  0  0
  2  1  1  1
  2  3  1  0
  2 11  1  0
  3  4  1  1
  3  5  1  0
  5  6  1  6
  5  7  1  0
  7  8  1  0
  7 10  1  1
  8  9  1  6
 10 11  1  0
 11 12  1  6
 13 12  1  1
 13 14  1  0
 13 18  1  0
 14 15  1  6
 14 17  1  0
 16 15  1  6
 22 17  1  6
 18 19  1  6
 18 20  1  0
 20 21  1  1
 20 22  1  0
 22 23  1  0
 23 24  1  6
M  END
$$$$
