
     RDKit          3D

 24 25  0  0  0  0  0  0  0  0999 V2000
   24.9512   23.8991   38.5201 O   0  0  0  0  0  0  0  0  0  0  0  0
   24.5212   24.6086   37.3961 C   0  0  2  0  0  0  0  0  0  0  0  0
   24.2946   23.5202   36.3299 C   0  0  1  0  0  0  0  0  0  0  0  0
   23.4562   22.5432   36.8064 O   0  0  0  0  0  0  0  0  0  0  0  0
   23.6911   24.2776   35.1500 C   0  0  2  0  0  0  0  0  0  0  0  0
   23.3962   23.3214   34.1798 O   0  0  0  0  0  0  0  0  0  0  0  0
   24.7322   25.2739   34.6940 C   0  0  1  0  0  0  0  0  0  0  0  0
   24.1110   26.6032   34.3066 C   0  0  0  0  0  0  0  0  0  0  0  0
   23.3686   26.4916   33.1321 O   0  0  0  0  0  0  0  0  0  0  0  0
   25.8162   25.3982   35.5042 O   0  0  0  0  0  0  0  0  0  0  0  0
   25.5592   25.5682   36.8663 C   0  0  1  0  0  0  0  0  0  0  0  0
   25.1890   27.2313   37.2880 S   0  0  0  0  0  0  0  0  0  0  0  0
   26.2884   28.5292   36.8956 C   0  0  1  0  0  0  0  0  0  0  0  0
   25.6730   29.7804   36.3481 C   0  0  2  0  0  0  0  0  0  0  0  0
   25.5314   29.7401   34.9634 O   0  0  0  0  0  0  0  0  0  0  0  0
   24.8015   30.8507   34.5691 C   0  0  0  0  0  0  0  0  0  0  0  0
   26.4025   30.9311   36.6303 O   0  0  0  0  0  0  0  0  0  0  0  0
   27.2547   28.9327   37.9884 C   0  0  1  0  0  0  0  0  0  0  0  0
   27.8565   27.8662   38.6020 O   0  0  0  0  0  0  0  0  0  0  0  0
   28.3728   29.7087   37.2688 C   0  0  2  0  0  0  0  0  0  0  0  0
   29.2890   30.1667   38.1921 O   0  0  0  0  0  0  0  0  0  0  0  0
   27.7520   30.8403   36.4513 C   0  0  1  0  0  0  0  0  0  0  0  0
   28.1978   30.7680   35.0075 C   0  0  0  0  0  0  0  0  0  0  0  0
   28.9008   31.9093   34.6290 O   0  0  0  0  0  0  0  0  0  0  0  0
  2  1  1  1
  2  3  1  0
  2 11  1  0
  3  4  1  1
  3  5  1  0
  5  6  1  6
  5  7  1  0
  7  8  1  0
  7 10  1  1
  8  9  1  6
 10 11  1  0
 11 12  1  6
 13 12  1  1
 13 14  1  0
 13 18  1  0
 14 15  1  6
 14 17  1  0
 16 15  1  6
 22 17  1  6
 18 19  1  6
 18 20  1  0
 20 21  1  1
 20 22  1  0
 22 23  1  0
 23 24  1  6
M  END
$$$$
