
     RDKit          3D

 24 25  0  0  0  0  0  0  0  0999 V2000
   25.1334   24.1872   38.3224 O   0  0  0  0  0  0  0  0  0  0  0  0
   24.6144   24.6208   37.1142 C   0  0  2  0  0  0  0  0  0  0  0  0
   24.0886   23.4038   36.3749 C   0  0  1  0  0  0  0  0  0  0  0  0
   23.0295   22.9043   37.1437 O   0  0  0  0  0  0  0  0  0  0  0  0
   23.5285   23.9097   35.0679 C   0  0  2  0  0  0  0  0  0  0  0  0
   23.0937   22.8371   34.2916 O   0  0  0  0  0  0  0  0  0  0  0  0
   24.4877   24.8118   34.3415 C   0  0  1  0  0  0  0  0  0  0  0  0
   23.8061   26.0980   33.9248 C   0  0  0  0  0  0  0  0  0  0  0  0
   23.9522   26.3068   32.5544 O   0  0  0  0  0  0  0  0  0  0  0  0
   25.6775   24.9970   34.9773 O   0  0  0  0  0  0  0  0  0  0  0  0
   25.6103   25.3930   36.3039 C   0  0  1  0  0  0  0  0  0  0  0  0
   25.3735   27.1190   36.5408 S   0  0  0  0  0  0  0  0  0  0  0  0
   26.7097   28.2124   36.6755 C   0  0  1  0  0  0  0  0  0  0  0  0
   26.5338   29.6011   36.1633 C   0  0  2  0  0  0  0  0  0  0  0  0
   25.8371   29.7242   34.9720 O   0  0  0  0  0  0  0  0  0  0  0  0
   26.6294   30.3048   33.9916 C   0  0  0  0  0  0  0  0  0  0  0  0
   27.8729   30.0247   35.8621 O   0  0  0  0  0  0  0  0  0  0  0  0
   27.2568   28.3927   38.0959 C   0  0  1  0  0  0  0  0  0  0  0  0
   27.4268   27.1462   38.6845 O   0  0  0  0  0  0  0  0  0  0  0  0
   28.6237   28.9921   37.9098 C   0  0  2  0  0  0  0  0  0  0  0  0
   29.2333   29.3538   39.0942 O   0  0  0  0  0  0  0  0  0  0  0  0
   28.6375   30.1673   36.9778 C   0  0  1  0  0  0  0  0  0  0  0  0
   30.0852   30.3195   36.4911 C   0  0  0  0  0  0  0  0  0  0  0  0
   30.2731   31.4859   35.7825 O   0  0  0  0  0  0  0  0  0  0  0  0
  2  1  1  1
  2  3  1  0
  2 11  1  0
  3  4  1  1
  3  5  1  0
  5  6  1  6
  5  7  1  0
  7  8  1  1
  7 10  1  0
  8  9  1  0
 10 11  1  0
 11 12  1  6
 13 12  1  1
 13 14  1  0
 13 18  1  0
 14 15  1  6
 14 17  1  0
 15 16  1  0
 17 22  1  0
 18 19  1  6
 18 20  1  0
 20 21  1  1
 20 22  1  0
 22 23  1  6
 23 24  1  0
M  END
$$$$
