
     RDKit          3D

 24 25  0  0  0  0  0  0  0  0999 V2000
   24.8811   23.9681   38.4305 O   0  0  0  0  0  0  0  0  0  0  0  0
   24.5886   24.4589   37.1557 C   0  0  2  0  0  0  0  0  0  0  0  0
   24.3072   23.1942   36.3227 C   0  0  1  0  0  0  0  0  0  0  0  0
   23.3469   22.4209   36.9263 O   0  0  0  0  0  0  0  0  0  0  0  0
   23.8504   23.7354   34.9704 C   0  0  2  0  0  0  0  0  0  0  0  0
   23.5099   22.6259   34.1987 O   0  0  0  0  0  0  0  0  0  0  0  0
   25.0130   24.5134   34.3979 C   0  0  1  0  0  0  0  0  0  0  0  0
   24.5558   25.7810   33.6998 C   0  0  0  0  0  0  0  0  0  0  0  0
   23.3228   25.5985   33.0759 O   0  0  0  0  0  0  0  0  0  0  0  0
   26.0589   24.7078   35.2436 O   0  0  0  0  0  0  0  0  0  0  0  0
   25.7482   25.1857   36.5185 C   0  0  1  0  0  0  0  0  0  0  0  0
   25.5317   26.9271   36.5599 S   0  0  0  0  0  0  0  0  0  0  0  0
   26.8687   27.9960   36.9017 C   0  0  1  0  0  0  0  0  0  0  0  0
   26.6782   29.4372   36.5402 C   0  0  2  0  0  0  0  0  0  0  0  0
   27.0488   29.7080   35.2256 O   0  0  0  0  0  0  0  0  0  0  0  0
   26.4253   30.8818   34.8317 C   0  0  0  0  0  0  0  0  0  0  0  0
   27.4075   30.3139   37.3374 O   0  0  0  0  0  0  0  0  0  0  0  0
   27.4147   27.9446   38.3124 C   0  0  1  0  0  0  0  0  0  0  0  0
   27.5944   26.6693   38.7789 O   0  0  0  0  0  0  0  0  0  0  0  0
   28.8154   28.5772   38.2238 C   0  0  2  0  0  0  0  0  0  0  0  0
   29.3849   28.6229   39.4788 O   0  0  0  0  0  0  0  0  0  0  0  0
   28.7019   29.9596   37.5833 C   0  0  1  0  0  0  0  0  0  0  0  0
   29.6300   30.0795   36.3947 C   0  0  0  0  0  0  0  0  0  0  0  0
   29.7545   31.4007   35.9713 O   0  0  0  0  0  0  0  0  0  0  0  0
  2  1  1  1
  2  3  1  0
  2 11  1  0
  3  4  1  1
  3  5  1  0
  5  6  1  6
  5  7  1  0
  7  8  1  0
  7 10  1  1
  8  9  1  6
 10 11  1  0
 11 12  1  6
 13 12  1  1
 13 14  1  0
 13 18  1  0
 14 15  1  6
 14 17  1  0
 16 15  1  6
 22 17  1  6
 18 19  1  6
 18 20  1  0
 20 21  1  1
 20 22  1  0
 22 23  1  0
 23 24  1  6
M  END
$$$$
