
     RDKit          3D

 24 25  0  0  0  0  0  0  0  0999 V2000
   25.0403   23.6982   38.4356 O   0  0  0  0  0  0  0  0  0  0  0  0
   24.6824   24.4845   37.3378 C   0  0  2  0  0  0  0  0  0  0  0  0
   24.4780   23.4675   36.1991 C   0  0  1  0  0  0  0  0  0  0  0  0
   23.5928   22.4888   36.5776 O   0  0  0  0  0  0  0  0  0  0  0  0
   23.9506   24.3099   35.0405 C   0  0  2  0  0  0  0  0  0  0  0  0
   23.6769   23.4211   34.0023 O   0  0  0  0  0  0  0  0  0  0  0  0
   25.0377   25.3007   34.6928 C   0  0  1  0  0  0  0  0  0  0  0  0
   24.4703   26.6678   34.3579 C   0  0  0  0  0  0  0  0  0  0  0  0
   23.1943   26.5649   33.8065 O   0  0  0  0  0  0  0  0  0  0  0  0
   26.0853   25.3460   35.5575 O   0  0  0  0  0  0  0  0  0  0  0  0
   25.7689   25.4431   36.9142 C   0  0  1  0  0  0  0  0  0  0  0  0
   25.4228   27.0887   37.4176 S   0  0  0  0  0  0  0  0  0  0  0  0
   26.3656   28.4324   36.8239 C   0  0  1  0  0  0  0  0  0  0  0  0
   25.7390   29.2596   35.7435 C   0  0  2  0  0  0  0  0  0  0  0  0
   26.0051   28.7604   34.4711 O   0  0  0  0  0  0  0  0  0  0  0  0
   25.0695   29.2864   33.5938 C   0  0  0  0  0  0  0  0  0  0  0  0
   26.1640   30.5844   35.7372 O   0  0  0  0  0  0  0  0  0  0  0  0
   26.9039   29.3801   37.8741 C   0  0  1  0  0  0  0  0  0  0  0  0
   27.4693   28.7395   38.9447 O   0  0  0  0  0  0  0  0  0  0  0  0
   28.0409   30.1484   37.1763 C   0  0  2  0  0  0  0  0  0  0  0  0
   28.5712   31.0812   38.0424 O   0  0  0  0  0  0  0  0  0  0  0  0
   27.5050   30.7810   35.8931 C   0  0  1  0  0  0  0  0  0  0  0  0
   28.3483   30.3800   34.7028 C   0  0  0  0  0  0  0  0  0  0  0  0
   29.7035   30.3425   35.0225 O   0  0  0  0  0  0  0  0  0  0  0  0
  2  1  1  1
  2  3  1  0
  2 11  1  0
  3  4  1  1
  3  5  1  0
  5  6  1  6
  5  7  1  0
  7  8  1  0
  7 10  1  1
  8  9  1  6
 10 11  1  0
 11 12  1  6
 13 12  1  1
 13 14  1  0
 13 18  1  0
 14 15  1  6
 14 17  1  0
 16 15  1  6
 22 17  1  6
 18 19  1  1
 18 20  1  0
 20 21  1  1
 20 22  1  0
 22 23  1  0
 23 24  1  6
M  END
$$$$
