
     RDKit          3D

 24 25  0  0  0  0  0  0  0  0999 V2000
   24.7967   24.0864   38.4064 O   0  0  0  0  0  0  0  0  0  0  0  0
   24.4295   24.5966   37.1727 C   0  0  2  0  0  0  0  0  0  0  0  0
   23.9770   23.4333   36.3090 C   0  0  1  0  0  0  0  0  0  0  0  0
   22.8278   22.9145   36.9192 O   0  0  0  0  0  0  0  0  0  0  0  0
   23.5817   24.0219   34.9766 C   0  0  2  0  0  0  0  0  0  0  0  0
   23.2258   23.0030   34.0950 O   0  0  0  0  0  0  0  0  0  0  0  0
   24.6324   24.9423   34.4196 C   0  0  1  0  0  0  0  0  0  0  0  0
   24.0230   26.2635   34.0004 C   0  0  0  0  0  0  0  0  0  0  0  0
   23.2993   26.1148   32.8184 O   0  0  0  0  0  0  0  0  0  0  0  0
   25.7417   25.0674   35.1993 O   0  0  0  0  0  0  0  0  0  0  0  0
   25.5248   25.3912   36.5294 C   0  0  1  0  0  0  0  0  0  0  0  0
   25.2865   27.1061   36.8352 S   0  0  0  0  0  0  0  0  0  0  0  0
   26.6050   28.2285   36.8090 C   0  0  1  0  0  0  0  0  0  0  0  0
   26.3730   29.5689   36.1995 C   0  0  2  0  0  0  0  0  0  0  0  0
   25.6106   29.5850   35.0427 O   0  0  0  0  0  0  0  0  0  0  0  0
   26.0490   30.5740   34.1733 C   0  0  0  0  0  0  0  0  0  0  0  0
   27.6848   29.9889   35.7920 O   0  0  0  0  0  0  0  0  0  0  0  0
   27.2242   28.5306   38.1783 C   0  0  1  0  0  0  0  0  0  0  0  0
   27.4515   27.3380   38.8529 O   0  0  0  0  0  0  0  0  0  0  0  0
   28.5663   29.1356   37.8699 C   0  0  2  0  0  0  0  0  0  0  0  0
   29.2313   29.6006   38.9865 O   0  0  0  0  0  0  0  0  0  0  0  0
   28.5054   30.2327   36.8488 C   0  0  1  0  0  0  0  0  0  0  0  0
   29.9213   30.3693   36.2722 C   0  0  0  0  0  0  0  0  0  0  0  0
   30.5650   31.4932   36.7415 O   0  0  0  0  0  0  0  0  0  0  0  0
  2  1  1  1
  2  3  1  0
  2 11  1  0
  3  4  1  1
  3  5  1  0
  5  6  1  6
  5  7  1  0
  7  8  1  1
  7 10  1  0
  8  9  1  0
 10 11  1  0
 11 12  1  6
 13 12  1  1
 13 14  1  0
 13 18  1  0
 14 15  1  6
 14 17  1  0
 15 16  1  0
 17 22  1  0
 18 19  1  1
 18 20  1  0
 20 21  1  1
 20 22  1  0
 22 23  1  6
 23 24  1  0
M  END
$$$$
