
     RDKit          3D

 24 25  0  0  0  0  0  0  0  0999 V2000
   25.3666   24.0191   38.5542 O   0  0  0  0  0  0  0  0  0  0  0  0
   24.9648   24.7258   37.4181 C   0  0  2  0  0  0  0  0  0  0  0  0
   24.7563   23.6339   36.3518 C   0  0  1  0  0  0  0  0  0  0  0  0
   23.9028   22.6630   36.8139 O   0  0  0  0  0  0  0  0  0  0  0  0
   24.1824   24.3891   35.1558 C   0  0  2  0  0  0  0  0  0  0  0  0
   23.9042   23.4302   34.1833 O   0  0  0  0  0  0  0  0  0  0  0  0
   25.2382   25.3784   34.7186 C   0  0  1  0  0  0  0  0  0  0  0  0
   24.6321   26.7090   34.3120 C   0  0  0  0  0  0  0  0  0  0  0  0
   23.5869   26.5335   33.4067 O   0  0  0  0  0  0  0  0  0  0  0  0
   26.3048   25.5010   35.5518 O   0  0  0  0  0  0  0  0  0  0  0  0
   26.0188   25.6781   36.9072 C   0  0  1  0  0  0  0  0  0  0  0  0
   25.6476   27.3448   37.3138 S   0  0  0  0  0  0  0  0  0  0  0  0
   26.8219   28.6149   37.0798 C   0  0  1  0  0  0  0  0  0  0  0  0
   26.5136   29.6181   36.0108 C   0  0  2  0  0  0  0  0  0  0  0  0
   26.9796   29.2210   34.7602 O   0  0  0  0  0  0  0  0  0  0  0  0
   26.3745   30.0157   33.7989 C   0  0  0  0  0  0  0  0  0  0  0  0
   27.0628   30.8741   36.2488 O   0  0  0  0  0  0  0  0  0  0  0  0
   27.2297   29.3778   38.3218 C   0  0  1  0  0  0  0  0  0  0  0  0
   27.4992   28.5674   39.3927 O   0  0  0  0  0  0  0  0  0  0  0  0
   28.5561   30.0665   37.9522 C   0  0  2  0  0  0  0  0  0  0  0  0
   28.9919   30.8343   39.0115 O   0  0  0  0  0  0  0  0  0  0  0  0
   28.3575   30.8869   36.6789 C   0  0  1  0  0  0  0  0  0  0  0  0
   29.3791   30.5072   35.6296 C   0  0  0  0  0  0  0  0  0  0  0  0
   30.3278   29.6205   36.1333 O   0  0  0  0  0  0  0  0  0  0  0  0
  2  1  1  1
  2  3  1  0
  2 11  1  0
  3  4  1  1
  3  5  1  0
  5  6  1  6
  5  7  1  0
  7  8  1  0
  7 10  1  1
  8  9  1  6
 10 11  1  0
 11 12  1  6
 13 12  1  1
 13 14  1  0
 13 18  1  0
 14 15  1  6
 14 17  1  0
 16 15  1  6
 22 17  1  6
 18 19  1  1
 18 20  1  0
 20 21  1  1
 20 22  1  0
 22 23  1  0
 23 24  1  6
M  END
$$$$
