
     RDKit          3D

 24 25  0  0  0  0  0  0  0  0999 V2000
   24.6726   24.4499   38.3335 O   0  0  0  0  0  0  0  0  0  0  0  0
   24.3686   24.8958   37.0449 C   0  0  2  0  0  0  0  0  0  0  0  0
   24.1482   23.5998   36.2422 C   0  0  1  0  0  0  0  0  0  0  0  0
   23.2178   22.8007   36.8590 O   0  0  0  0  0  0  0  0  0  0  0  0
   23.6784   24.0870   34.8740 C   0  0  2  0  0  0  0  0  0  0  0  0
   23.3918   22.9450   34.1282 O   0  0  0  0  0  0  0  0  0  0  0  0
   24.8104   24.9003   34.2894 C   0  0  1  0  0  0  0  0  0  0  0  0
   24.3039   26.1291   33.5569 C   0  0  0  0  0  0  0  0  0  0  0  0
   22.9830   25.9635   33.1438 O   0  0  0  0  0  0  0  0  0  0  0  0
   25.8407   25.1609   35.1365 O   0  0  0  0  0  0  0  0  0  0  0  0
   25.5002   25.6562   36.3970 C   0  0  1  0  0  0  0  0  0  0  0  0
   25.2083   27.3871   36.3934 S   0  0  0  0  0  0  0  0  0  0  0  0
   26.5208   28.5251   36.5642 C   0  0  1  0  0  0  0  0  0  0  0  0
   26.1772   29.9709   36.3753 C   0  0  2  0  0  0  0  0  0  0  0  0
   26.2627   30.3670   35.0431 O   0  0  0  0  0  0  0  0  0  0  0  0
   25.5524   31.5481   34.8948 C   0  0  0  0  0  0  0  0  0  0  0  0
   26.9970   30.8377   37.0912 O   0  0  0  0  0  0  0  0  0  0  0  0
   27.3381   28.4091   37.8328 C   0  0  1  0  0  0  0  0  0  0  0  0
   27.6821   27.1196   38.1410 O   0  0  0  0  0  0  0  0  0  0  0  0
   28.6533   29.1506   37.5320 C   0  0  2  0  0  0  0  0  0  0  0  0
   29.4569   29.1446   38.6526 O   0  0  0  0  0  0  0  0  0  0  0  0
   28.3331   30.5647   37.0504 C   0  0  1  0  0  0  0  0  0  0  0  0
   28.9980   30.8434   35.7204 C   0  0  0  0  0  0  0  0  0  0  0  0
   30.1413   30.0673   35.5448 O   0  0  0  0  0  0  0  0  0  0  0  0
  2  1  1  1
  2  3  1  0
  2 11  1  0
  3  4  1  1
  3  5  1  0
  5  6  1  6
  5  7  1  0
  7  8  1  0
  7 10  1  1
  8  9  1  6
 10 11  1  0
 11 12  1  6
 13 12  1  1
 13 14  1  0
 13 18  1  0
 14 15  1  6
 14 17  1  0
 16 15  1  6
 22 17  1  6
 18 19  1  6
 18 20  1  0
 20 21  1  1
 20 22  1  0
 22 23  1  0
 23 24  1  6
M  END
$$$$
