
     RDKit          3D

 24 25  0  0  0  0  0  0  0  0999 V2000
   24.6702   24.1271   38.3420 O   0  0  0  0  0  0  0  0  0  0  0  0
   24.3036   24.6812   37.1272 C   0  0  2  0  0  0  0  0  0  0  0  0
   23.8179   23.5540   36.2341 C   0  0  1  0  0  0  0  0  0  0  0  0
   22.6629   23.0427   36.8398 O   0  0  0  0  0  0  0  0  0  0  0  0
   23.4240   24.1900   34.9232 C   0  0  2  0  0  0  0  0  0  0  0  0
   23.0380   23.2055   34.0157 O   0  0  0  0  0  0  0  0  0  0  0  0
   24.4900   25.1033   34.3836 C   0  0  1  0  0  0  0  0  0  0  0  0
   23.9063   26.4492   34.0088 C   0  0  0  0  0  0  0  0  0  0  0  0
   23.2769   26.3804   32.7670 O   0  0  0  0  0  0  0  0  0  0  0  0
   25.6085   25.1811   35.1561 O   0  0  0  0  0  0  0  0  0  0  0  0
   25.4105   25.4703   36.4971 C   0  0  1  0  0  0  0  0  0  0  0  0
   25.2129   27.1803   36.8550 S   0  0  0  0  0  0  0  0  0  0  0  0
   26.5590   28.2696   36.8716 C   0  0  1  0  0  0  0  0  0  0  0  0
   26.3502   29.6504   36.3506 C   0  0  2  0  0  0  0  0  0  0  0  0
   25.5673   29.7569   35.2125 O   0  0  0  0  0  0  0  0  0  0  0  0
   26.2890   30.3096   34.1638 C   0  0  0  0  0  0  0  0  0  0  0  0
   27.6646   30.0628   35.9436 O   0  0  0  0  0  0  0  0  0  0  0  0
   27.2108   28.4709   38.2443 C   0  0  1  0  0  0  0  0  0  0  0  0
   27.4199   27.2336   38.8396 O   0  0  0  0  0  0  0  0  0  0  0  0
   28.5621   29.0609   37.9471 C   0  0  2  0  0  0  0  0  0  0  0  0
   29.2593   29.4393   39.0767 O   0  0  0  0  0  0  0  0  0  0  0  0
   28.5105   30.2204   36.9969 C   0  0  1  0  0  0  0  0  0  0  0  0
   29.9185   30.3579   36.4016 C   0  0  0  0  0  0  0  0  0  0  0  0
   30.1956   31.6528   36.0214 O   0  0  0  0  0  0  0  0  0  0  0  0
  2  1  1  1
  2  3  1  0
  2 11  1  0
  3  4  1  1
  3  5  1  0
  5  6  1  6
  5  7  1  0
  7  8  1  1
  7 10  1  0
  8  9  1  0
 10 11  1  0
 11 12  1  6
 13 12  1  1
 13 14  1  0
 13 18  1  0
 14 15  1  6
 14 17  1  0
 15 16  1  0
 17 22  1  0
 18 19  1  6
 18 20  1  0
 20 21  1  1
 20 22  1  0
 22 23  1  6
 23 24  1  0
M  END
$$$$
