
     RDKit          3D

 24 25  0  0  0  0  0  0  0  0999 V2000
   24.2531   21.8597   37.3085 O   0  0  0  0  0  0  0  0  0  0  0  0
   24.0898   23.1523   37.7772 C   0  0  2  0  0  0  0  0  0  0  0  0
   23.0851   23.1069   38.9142 C   0  0  1  0  0  0  0  0  0  0  0  0
   23.6790   22.3516   39.9334 O   0  0  0  0  0  0  0  0  0  0  0  0
   22.9325   24.5266   39.4034 C   0  0  2  0  0  0  0  0  0  0  0  0
   21.9621   24.5822   40.4021 O   0  0  0  0  0  0  0  0  0  0  0  0
   22.6808   25.4974   38.2829 C   0  0  1  0  0  0  0  0  0  0  0  0
   23.6236   26.6788   38.3725 C   0  0  0  0  0  0  0  0  0  0  0  0
   22.9631   27.8582   38.0327 O   0  0  0  0  0  0  0  0  0  0  0  0
   22.6230   24.9282   37.0473 O   0  0  0  0  0  0  0  0  0  0  0  0
   23.6850   24.1091   36.6976 C   0  0  1  0  0  0  0  0  0  0  0  0
   25.0958   24.9618   36.0862 S   0  0  0  0  0  0  0  0  0  0  0  0
   25.0416   25.8782   34.6178 C   0  0  1  0  0  0  0  0  0  0  0  0
   26.0516   26.9578   34.4272 C   0  0  2  0  0  0  0  0  0  0  0  0
   26.3394   27.7230   35.5458 O   0  0  0  0  0  0  0  0  0  0  0  0
   25.7109   28.9585   35.4767 C   0  0  0  0  0  0  0  0  0  0  0  0
   25.4162   27.8594   33.5071 O   0  0  0  0  0  0  0  0  0  0  0  0
   25.1210   25.0459   33.3330 C   0  0  1  0  0  0  0  0  0  0  0  0
   24.2344   23.9804   33.4203 O   0  0  0  0  0  0  0  0  0  0  0  0
   24.6196   25.9604   32.2492 C   0  0  2  0  0  0  0  0  0  0  0  0
   24.7384   25.4293   30.9807 O   0  0  0  0  0  0  0  0  0  0  0  0
   25.2600   27.3167   32.2699 C   0  0  1  0  0  0  0  0  0  0  0  0
   24.3168   28.2547   31.5041 C   0  0  0  0  0  0  0  0  0  0  0  0
   25.0031   29.2385   30.8265 O   0  0  0  0  0  0  0  0  0  0  0  0
  2  1  1  6
  2  3  1  0
  2 11  1  0
  3  4  1  1
  3  5  1  0
  5  6  1  1
  5  7  1  0
  7  8  1  6
  7 10  1  0
  8  9  1  0
 10 11  1  0
 11 12  1  1
 13 12  1  1
 13 14  1  0
 13 18  1  0
 14 15  1  1
 14 17  1  0
 15 16  1  0
 17 22  1  0
 18 19  1  1
 18 20  1  0
 20 21  1  6
 20 22  1  0
 22 23  1  6
 23 24  1  0
M  END
$$$$
