
     RDKit          3D

 24 25  0  0  0  0  0  0  0  0999 V2000
   24.9431   24.2049   38.1158 O   0  0  0  0  0  0  0  0  0  0  0  0
   24.6043   24.6419   36.8464 C   0  0  2  0  0  0  0  0  0  0  0  0
   24.1897   23.4272   36.0361 C   0  0  1  0  0  0  0  0  0  0  0  0
   23.0302   22.9274   36.6427 O   0  0  0  0  0  0  0  0  0  0  0  0
   23.8246   23.9367   34.6631 C   0  0  2  0  0  0  0  0  0  0  0  0
   23.5053   22.8664   33.8296 O   0  0  0  0  0  0  0  0  0  0  0  0
   24.8795   24.8391   34.0850 C   0  0  1  0  0  0  0  0  0  0  0  0
   24.2664   26.1272   33.5773 C   0  0  0  0  0  0  0  0  0  0  0  0
   23.4833   25.8847   32.4500 O   0  0  0  0  0  0  0  0  0  0  0  0
   25.9651   25.0215   34.8863 O   0  0  0  0  0  0  0  0  0  0  0  0
   25.7076   25.4146   36.1902 C   0  0  1  0  0  0  0  0  0  0  0  0
   25.4407   27.1404   36.3945 S   0  0  0  0  0  0  0  0  0  0  0  0
   26.7571   28.2520   36.5686 C   0  0  1  0  0  0  0  0  0  0  0  0
   26.4936   29.6966   36.3127 C   0  0  2  0  0  0  0  0  0  0  0  0
   25.6690   29.9810   35.2362 O   0  0  0  0  0  0  0  0  0  0  0  0
   26.4101   30.1534   34.0755 C   0  0  0  0  0  0  0  0  0  0  0  0
   27.7816   30.2181   35.9487 O   0  0  0  0  0  0  0  0  0  0  0  0
   27.4507   28.2238   37.9352 C   0  0  1  0  0  0  0  0  0  0  0  0
   27.7132   26.9069   38.2901 O   0  0  0  0  0  0  0  0  0  0  0  0
   28.7745   28.9012   37.7102 C   0  0  2  0  0  0  0  0  0  0  0  0
   29.5003   29.0924   38.8687 O   0  0  0  0  0  0  0  0  0  0  0  0
   28.6591   30.2107   36.9877 C   0  0  1  0  0  0  0  0  0  0  0  0
   30.0414   30.4989   36.3860 C   0  0  0  0  0  0  0  0  0  0  0  0
   30.8755   31.1287   37.2836 O   0  0  0  0  0  0  0  0  0  0  0  0
  2  1  1  1
  2  3  1  0
  2 11  1  0
  3  4  1  1
  3  5  1  0
  5  6  1  6
  5  7  1  0
  7  8  1  1
  7 10  1  0
  8  9  1  0
 10 11  1  0
 11 12  1  6
 13 12  1  1
 13 14  1  0
 13 18  1  0
 14 15  1  6
 14 17  1  0
 15 16  1  0
 17 22  1  0
 18 19  1  6
 18 20  1  0
 20 21  1  1
 20 22  1  0
 22 23  1  6
 23 24  1  0
M  END
$$$$
