
     RDKit          3D

 24 25  0  0  0  0  0  0  0  0999 V2000
   25.0144   24.2832   38.3480 O   0  0  0  0  0  0  0  0  0  0  0  0
   24.6049   24.6889   37.0891 C   0  0  2  0  0  0  0  0  0  0  0  0
   24.1296   23.4574   36.3397 C   0  0  1  0  0  0  0  0  0  0  0  0
   23.0032   22.9889   37.0282 O   0  0  0  0  0  0  0  0  0  0  0  0
   23.6885   23.9330   34.9769 C   0  0  2  0  0  0  0  0  0  0  0  0
   23.3085   22.8440   34.1948 O   0  0  0  0  0  0  0  0  0  0  0  0
   24.7165   24.8059   34.3116 C   0  0  1  0  0  0  0  0  0  0  0  0
   24.0879   26.0868   33.8048 C   0  0  0  0  0  0  0  0  0  0  0  0
   24.0261   26.0833   32.4123 O   0  0  0  0  0  0  0  0  0  0  0  0
   25.8500   24.9970   35.0414 O   0  0  0  0  0  0  0  0  0  0  0  0
   25.6751   25.4294   36.3466 C   0  0  1  0  0  0  0  0  0  0  0  0
   25.4394   27.1633   36.5172 S   0  0  0  0  0  0  0  0  0  0  0  0
   26.7660   28.2402   36.7992 C   0  0  1  0  0  0  0  0  0  0  0  0
   26.5221   29.7043   36.6619 C   0  0  2  0  0  0  0  0  0  0  0  0
   25.7145   30.0877   35.6034 O   0  0  0  0  0  0  0  0  0  0  0  0
   26.3727   30.9888   34.7783 C   0  0  0  0  0  0  0  0  0  0  0  0
   27.8205   30.2384   36.3580 O   0  0  0  0  0  0  0  0  0  0  0  0
   27.4417   28.0893   38.1667 C   0  0  1  0  0  0  0  0  0  0  0  0
   27.6849   26.7443   38.4132 O   0  0  0  0  0  0  0  0  0  0  0  0
   28.7760   28.7668   38.0147 C   0  0  2  0  0  0  0  0  0  0  0  0
   29.4890   28.8516   39.1935 O   0  0  0  0  0  0  0  0  0  0  0  0
   28.6845   30.1334   37.4030 C   0  0  1  0  0  0  0  0  0  0  0  0
   30.0776   30.4537   36.8438 C   0  0  0  0  0  0  0  0  0  0  0  0
   30.3847   29.6808   35.7455 O   0  0  0  0  0  0  0  0  0  0  0  0
  2  1  1  1
  2  3  1  0
  2 11  1  0
  3  4  1  1
  3  5  1  0
  5  6  1  6
  5  7  1  0
  7  8  1  1
  7 10  1  0
  8  9  1  0
 10 11  1  0
 11 12  1  6
 13 12  1  1
 13 14  1  0
 13 18  1  0
 14 15  1  6
 14 17  1  0
 15 16  1  0
 17 22  1  0
 18 19  1  6
 18 20  1  0
 20 21  1  1
 20 22  1  0
 22 23  1  6
 23 24  1  0
M  END
$$$$
