
     RDKit          3D

 24 25  0  0  0  0  0  0  0  0999 V2000
   25.1299   24.5078   38.6300 O   0  0  0  0  0  0  0  0  0  0  0  0
   24.5734   24.8152   37.4000 C   0  0  2  0  0  0  0  0  0  0  0  0
   24.3869   23.5143   36.6403 C   0  0  1  0  0  0  0  0  0  0  0  0
   23.4472   22.7684   37.3633 O   0  0  0  0  0  0  0  0  0  0  0  0
   23.7775   23.8828   35.3096 C   0  0  2  0  0  0  0  0  0  0  0  0
   23.6461   22.7442   34.5168 O   0  0  0  0  0  0  0  0  0  0  0  0
   24.5220   24.9951   34.6241 C   0  0  1  0  0  0  0  0  0  0  0  0
   23.5698   26.0840   34.1765 C   0  0  0  0  0  0  0  0  0  0  0  0
   23.2960   25.9646   32.8150 O   0  0  0  0  0  0  0  0  0  0  0  0
   25.6045   25.4546   35.3104 O   0  0  0  0  0  0  0  0  0  0  0  0
   25.3883   25.8110   36.6323 C   0  0  1  0  0  0  0  0  0  0  0  0
   24.7343   27.4276   36.8563 S   0  0  0  0  0  0  0  0  0  0  0  0
   25.5475   28.8317   36.2515 C   0  0  1  0  0  0  0  0  0  0  0  0
   27.0273   28.9090   36.4128 C   0  0  2  0  0  0  0  0  0  0  0  0
   27.5296   28.4579   37.6227 O   0  0  0  0  0  0  0  0  0  0  0  0
   28.5518   29.2812   38.0735 C   0  0  0  0  0  0  0  0  0  0  0  0
   27.2982   30.3196   36.3949 O   0  0  0  0  0  0  0  0  0  0  0  0
   25.3063   29.1294   34.7673 C   0  0  1  0  0  0  0  0  0  0  0  0
   23.9462   29.0486   34.4976 O   0  0  0  0  0  0  0  0  0  0  0  0
   25.7151   30.5661   34.5905 C   0  0  2  0  0  0  0  0  0  0  0  0
   25.6933   30.9880   33.2764 O   0  0  0  0  0  0  0  0  0  0  0  0
   27.0582   30.8806   35.1794 C   0  0  1  0  0  0  0  0  0  0  0  0
   27.0949   32.4003   35.3918 C   0  0  0  0  0  0  0  0  0  0  0  0
   26.1778   32.8137   36.3332 O   0  0  0  0  0  0  0  0  0  0  0  0
  2  1  1  1
  2  3  1  0
  2 11  1  0
  3  4  1  1
  3  5  1  0
  5  6  1  6
  5  7  1  0
  7  8  1  1
  7 10  1  0
  8  9  1  0
 10 11  1  0
 11 12  1  6
 13 12  1  6
 13 14  1  0
 13 18  1  0
 14 15  1  1
 14 17  1  0
 15 16  1  0
 17 22  1  0
 18 19  1  1
 18 20  1  0
 20 21  1  6
 20 22  1  0
 22 23  1  1
 23 24  1  0
M  END
$$$$
