
     RDKit          3D

 11 11  0  0  0  0  0  0  0  0999 V2000
  -22.3825   15.2551  -12.2618 C   0  0  0  0  0  0  0  0  0  0  0  0
  -22.1607   15.6547  -13.5708 C   0  0  0  0  0  0  0  0  0  0  0  0
  -22.0533   14.7352  -14.5825 C   0  0  0  0  0  0  0  0  0  0  0  0
  -22.1667   13.3869  -14.3014 C   0  0  0  0  0  0  0  0  0  0  0  0
  -22.3847   12.9983  -13.0127 C   0  0  0  0  0  0  0  0  0  0  0  0
  -22.3385   17.4535  -11.5090 O   0  0  0  0  0  0  0  0  0  0  0  0
  -22.4919   13.9123  -12.0042 C   0  0  0  0  0  0  0  0  0  0  0  0
  -22.4915   16.2501  -11.2140 C   0  0  0  0  0  0  0  0  0  0  0  0
  -21.7055   16.4595  -16.2170 C   0  0  0  0  0  0  0  0  0  0  0  0
  -21.8327   15.0870  -15.9000 O   0  0  0  0  0  0  0  0  0  0  0  0
  -22.0623   12.4485  -15.2996 O   0  0  0  0  0  0  0  0  0  0  0  0
  1  2  2  0
  1  7  1  0
  1  8  1  0
  2  3  1  0
  3  4  2  0
  3 10  1  0
  4  5  1  0
  4 11  1  0
  5  7  2  0
  8  6  2  0
  9 10  1  6
M  END
$$$$
