
     RDKit          3D

 11 11  0  0  0  0  0  0  0  0999 V2000
  -22.6526   14.3302  -13.0631 C   0  0  0  0  0  0  0  0  0  0  0  0
  -22.5163   15.1257  -14.1905 C   0  0  0  0  0  0  0  0  0  0  0  0
  -22.6378   16.4894  -14.1129 C   0  0  0  0  0  0  0  0  0  0  0  0
  -22.9001   17.0883  -12.8955 C   0  0  0  0  0  0  0  0  0  0  0  0
  -23.0334   16.3023  -11.7892 C   0  0  0  0  0  0  0  0  0  0  0  0
  -22.3073   12.3942  -14.3019 O   0  0  0  0  0  0  0  0  0  0  0  0
  -22.9128   14.9444  -11.8646 C   0  0  0  0  0  0  0  0  0  0  0  0
  -22.5190   12.8918  -13.1765 C   0  0  0  0  0  0  0  0  0  0  0  0
  -21.9858   16.7793  -16.4056 C   0  0  0  0  0  0  0  0  0  0  0  0
  -22.5099   17.3207  -15.2086 O   0  0  0  0  0  0  0  0  0  0  0  0
  -23.0257   18.4528  -12.7947 O   0  0  0  0  0  0  0  0  0  0  0  0
  1  2  2  0
  1  7  1  0
  1  8  1  0
  2  3  1  0
  3  4  2  0
  3 10  1  0
  4  5  1  0
  4 11  1  0
  5  7  2  0
  8  6  2  0
  9 10  1  6
M  END
$$$$
