
     RDKit          3D

 11 11  0  0  0  0  0  0  0  0999 V2000
  -23.0124   17.0896  -11.1132 C   0  0  0  0  0  0  0  0  0  0  0  0
  -22.8922   17.9976  -12.1541 C   0  0  0  0  0  0  0  0  0  0  0  0
  -22.7134   17.5732  -13.4458 C   0  0  0  0  0  0  0  0  0  0  0  0
  -22.6509   16.2208  -13.7229 C   0  0  0  0  0  0  0  0  0  0  0  0
  -22.7696   15.3312  -12.6962 C   0  0  0  0  0  0  0  0  0  0  0  0
  -22.5495   18.5625   -9.3759 O   0  0  0  0  0  0  0  0  0  0  0  0
  -22.9477   15.7520  -11.4097 C   0  0  0  0  0  0  0  0  0  0  0  0
  -23.2007   17.5683   -9.7585 C   0  0  0  0  0  0  0  0  0  0  0  0
  -22.2510   19.7885  -14.2486 C   0  0  0  0  0  0  0  0  0  0  0  0
  -22.5888   18.4408  -14.5135 O   0  0  0  0  0  0  0  0  0  0  0  0
  -22.4722   15.7734  -15.0097 O   0  0  0  0  0  0  0  0  0  0  0  0
  1  2  2  0
  1  7  1  0
  1  8  1  0
  2  3  1  0
  3  4  2  0
  3 10  1  0
  4  5  1  0
  4 11  1  0
  5  7  2  0
  8  6  2  0
  9 10  1  6
M  END
$$$$
