
     RDKit          3D

 11 11  0  0  0  0  0  0  0  0999 V2000
  -23.0718   16.7156  -11.3323 C   0  0  0  0  0  0  0  0  0  0  0  0
  -23.0484   17.3794  -12.5494 C   0  0  0  0  0  0  0  0  0  0  0  0
  -22.9257   16.6903  -13.7286 C   0  0  0  0  0  0  0  0  0  0  0  0
  -22.8232   15.3122  -13.7125 C   0  0  0  0  0  0  0  0  0  0  0  0
  -22.8466   14.6634  -12.5133 C   0  0  0  0  0  0  0  0  0  0  0  0
  -23.2100   18.7183  -10.1609 O   0  0  0  0  0  0  0  0  0  0  0  0
  -22.9687   15.3479  -11.3384 C   0  0  0  0  0  0  0  0  0  0  0  0
  -23.2025   17.4712  -10.1027 C   0  0  0  0  0  0  0  0  0  0  0  0
  -21.6857   17.3008  -15.6922 C   0  0  0  0  0  0  0  0  0  0  0  0
  -22.8979   17.3089  -14.9634 O   0  0  0  0  0  0  0  0  0  0  0  0
  -22.6994   14.6017  -14.8820 O   0  0  0  0  0  0  0  0  0  0  0  0
  1  2  2  0
  1  7  1  0
  1  8  1  0
  2  3  1  0
  3  4  2  0
  3 10  1  0
  4  5  1  0
  4 11  1  0
  5  7  2  0
  8  6  2  0
  9 10  1  6
M  END
$$$$
