
     RDKit          3D

 11 11  0  0  0  0  0  0  0  0999 V2000
  -22.4869   14.0392  -13.6756 C   0  0  0  0  0  0  0  0  0  0  0  0
  -22.5244   15.3385  -13.1930 C   0  0  0  0  0  0  0  0  0  0  0  0
  -22.4599   16.4114  -14.0445 C   0  0  0  0  0  0  0  0  0  0  0  0
  -22.3558   16.2031  -15.4067 C   0  0  0  0  0  0  0  0  0  0  0  0
  -22.3192   14.9236  -15.8770 C   0  0  0  0  0  0  0  0  0  0  0  0
  -22.5958   11.7648  -13.2093 O   0  0  0  0  0  0  0  0  0  0  0  0
  -22.3834   13.8543  -15.0307 C   0  0  0  0  0  0  0  0  0  0  0  0
  -22.5570   12.9255  -12.7510 C   0  0  0  0  0  0  0  0  0  0  0  0
  -23.3937   18.6153  -14.2357 C   0  0  0  0  0  0  0  0  0  0  0  0
  -22.4938   17.7219  -13.6091 O   0  0  0  0  0  0  0  0  0  0  0  0
  -22.2898   17.2634  -16.2780 O   0  0  0  0  0  0  0  0  0  0  0  0
  1  2  2  0
  1  7  1  0
  1  8  1  0
  2  3  1  0
  3  4  2  0
  3 10  1  0
  4  5  1  0
  4 11  1  0
  5  7  2  0
  8  6  2  0
  9 10  1  6
M  END
$$$$
