
     RDKit          3D

 11 11  0  0  0  0  0  0  0  0999 V2000
  -22.9707   14.0930  -13.7771 C   0  0  0  0  0  0  0  0  0  0  0  0
  -23.1436   15.2513  -13.0240 C   0  0  0  0  0  0  0  0  0  0  0  0
  -23.2012   16.5086  -13.5866 C   0  0  0  0  0  0  0  0  0  0  0  0
  -23.0873   16.6729  -14.9495 C   0  0  0  0  0  0  0  0  0  0  0  0
  -22.9158   15.5309  -15.7035 C   0  0  0  0  0  0  0  0  0  0  0  0
  -22.7477   11.7322  -13.7781 O   0  0  0  0  0  0  0  0  0  0  0  0
  -22.8583   14.2729  -15.1392 C   0  0  0  0  0  0  0  0  0  0  0  0
  -22.9162   12.7963  -13.1445 C   0  0  0  0  0  0  0  0  0  0  0  0
  -23.5500   17.5207  -11.4335 C   0  0  0  0  0  0  0  0  0  0  0  0
  -23.3733   17.6473  -12.8228 O   0  0  0  0  0  0  0  0  0  0  0  0
  -23.1373   17.9096  -15.5733 O   0  0  0  0  0  0  0  0  0  0  0  0
  1  2  2  0
  1  7  1  0
  1  8  1  0
  2  3  1  0
  3  4  2  0
  3 10  1  0
  4  5  1  0
  4 11  1  0
  5  7  2  0
  8  6  2  0
 10  9  1  0
M  END
$$$$
