
     RDKit          3D

 11 11  0  0  0  0  0  0  0  0999 V2000
  -22.4344   14.6213  -13.7490 C   0  0  0  0  0  0  0  0  0  0  0  0
  -22.3431   15.8808  -14.3217 C   0  0  0  0  0  0  0  0  0  0  0  0
  -22.5176   17.0140  -13.5695 C   0  0  0  0  0  0  0  0  0  0  0  0
  -22.7891   16.9080  -12.2187 C   0  0  0  0  0  0  0  0  0  0  0  0
  -22.8780   15.6674  -11.6596 C   0  0  0  0  0  0  0  0  0  0  0  0
  -21.9248   12.3695  -14.0165 O   0  0  0  0  0  0  0  0  0  0  0  0
  -22.7046   14.5381  -12.4069 C   0  0  0  0  0  0  0  0  0  0  0  0
  -22.2452   13.4420  -14.5696 C   0  0  0  0  0  0  0  0  0  0  0  0
  -22.7038   18.4641  -15.4744 C   0  0  0  0  0  0  0  0  0  0  0  0
  -22.4358   18.2882  -14.0968 O   0  0  0  0  0  0  0  0  0  0  0  0
  -22.9675   18.0302  -11.4463 O   0  0  0  0  0  0  0  0  0  0  0  0
  1  2  2  0
  1  7  1  0
  1  8  1  0
  2  3  1  0
  3  4  2  0
  3 10  1  0
  4  5  1  0
  4 11  1  0
  5  7  2  0
  8  6  2  0
  9 10  1  6
M  END
$$$$
