
     RDKit          3D

 11 11  0  0  0  0  0  0  0  0999 V2000
  -22.7402   16.4279  -11.8676 C   0  0  0  0  0  0  0  0  0  0  0  0
  -22.5357   16.4789  -13.2381 C   0  0  0  0  0  0  0  0  0  0  0  0
  -22.5376   17.6746  -13.9094 C   0  0  0  0  0  0  0  0  0  0  0  0
  -22.7459   18.8521  -13.2167 C   0  0  0  0  0  0  0  0  0  0  0  0
  -22.9465   18.7974  -11.8690 C   0  0  0  0  0  0  0  0  0  0  0  0
  -22.6089   14.1074  -11.8624 O   0  0  0  0  0  0  0  0  0  0  0  0
  -22.9450   17.6078  -11.1990 C   0  0  0  0  0  0  0  0  0  0  0  0
  -22.7327   15.1493  -11.1857 C   0  0  0  0  0  0  0  0  0  0  0  0
  -22.7663   16.7041  -16.0939 C   0  0  0  0  0  0  0  0  0  0  0  0
  -22.3384   17.7734  -15.2728 O   0  0  0  0  0  0  0  0  0  0  0  0
  -22.7518   20.0612  -13.8692 O   0  0  0  0  0  0  0  0  0  0  0  0
  1  2  2  0
  1  7  1  0
  1  8  1  0
  2  3  1  0
  3  4  2  0
  3 10  1  0
  4  5  1  0
  4 11  1  0
  5  7  2  0
  8  6  2  0
  9 10  1  6
M  END
$$$$
