
     RDKit          3D

 11 11  0  0  0  0  0  0  0  0999 V2000
  -22.1999   14.3348  -13.1276 C   0  0  0  0  0  0  0  0  0  0  0  0
  -21.9601   14.9866  -14.3276 C   0  0  0  0  0  0  0  0  0  0  0  0
  -22.0976   16.3469  -14.4333 C   0  0  0  0  0  0  0  0  0  0  0  0
  -22.4809   17.0872  -13.3312 C   0  0  0  0  0  0  0  0  0  0  0  0
  -22.7157   16.4421  -12.1530 C   0  0  0  0  0  0  0  0  0  0  0  0
  -21.7263   12.2664  -14.0762 O   0  0  0  0  0  0  0  0  0  0  0  0
  -22.5793   15.0879  -12.0459 C   0  0  0  0  0  0  0  0  0  0  0  0
  -22.0462   12.8961  -13.0466 C   0  0  0  0  0  0  0  0  0  0  0  0
  -21.9549   16.3327  -16.8303 C   0  0  0  0  0  0  0  0  0  0  0  0
  -21.8696   17.0382  -15.6074 O   0  0  0  0  0  0  0  0  0  0  0  0
  -22.6248   18.4511  -13.4146 O   0  0  0  0  0  0  0  0  0  0  0  0
  1  2  2  0
  1  7  1  0
  1  8  1  0
  2  3  1  0
  3  4  2  0
  3 10  1  0
  4  5  1  0
  4 11  1  0
  5  7  2  0
  8  6  2  0
  9 10  1  6
M  END
$$$$
