
     RDKit          3D

 11 11  0  0  0  0  0  0  0  0999 V2000
  -22.8443   15.0155  -12.4251 C   0  0  0  0  0  0  0  0  0  0  0  0
  -22.8094   16.1021  -13.2950 C   0  0  0  0  0  0  0  0  0  0  0  0
  -22.9048   17.4086  -12.8653 C   0  0  0  0  0  0  0  0  0  0  0  0
  -23.0417   17.6980  -11.5256 C   0  0  0  0  0  0  0  0  0  0  0  0
  -23.0772   16.6277  -10.6565 C   0  0  0  0  0  0  0  0  0  0  0  0
  -22.7352   13.3786  -14.1373 O   0  0  0  0  0  0  0  0  0  0  0  0
  -22.9816   15.3203  -11.0877 C   0  0  0  0  0  0  0  0  0  0  0  0
  -22.7408   13.6632  -12.9203 C   0  0  0  0  0  0  0  0  0  0  0  0
  -22.2808   18.3002  -15.0095 C   0  0  0  0  0  0  0  0  0  0  0  0
  -22.8683   18.4746  -13.7439 O   0  0  0  0  0  0  0  0  0  0  0  0
  -23.1424   18.9895  -11.0329 O   0  0  0  0  0  0  0  0  0  0  0  0
  1  2  2  0
  1  7  1  0
  1  8  1  0
  2  3  1  0
  3  4  2  0
  3 10  1  0
  4  5  1  0
  4 11  1  0
  5  7  2  0
  8  6  2  0
 10  9  1  0
M  END
$$$$
