
     RDKit          3D

 11 11  0  0  0  0  0  0  0  0999 V2000
  -23.0261   16.9046  -11.4755 C   0  0  0  0  0  0  0  0  0  0  0  0
  -22.8651   17.7920  -12.5285 C   0  0  0  0  0  0  0  0  0  0  0  0
  -22.7581   17.3447  -13.8204 C   0  0  0  0  0  0  0  0  0  0  0  0
  -22.8105   15.9895  -14.0856 C   0  0  0  0  0  0  0  0  0  0  0  0
  -22.9689   15.1202  -13.0470 C   0  0  0  0  0  0  0  0  0  0  0  0
  -22.9097   18.6164   -9.9076 O   0  0  0  0  0  0  0  0  0  0  0  0
  -23.0756   15.5638  -11.7602 C   0  0  0  0  0  0  0  0  0  0  0  0
  -23.1364   17.4072  -10.1208 C   0  0  0  0  0  0  0  0  0  0  0  0
  -22.5784   19.5858  -14.6636 C   0  0  0  0  0  0  0  0  0  0  0  0
  -22.5968   18.1914  -14.8999 O   0  0  0  0  0  0  0  0  0  0  0  0
  -22.7053   15.5193  -15.3723 O   0  0  0  0  0  0  0  0  0  0  0  0
  1  2  2  0
  1  7  1  0
  1  8  1  0
  2  3  1  0
  3  4  2  0
  3 10  1  0
  4  5  1  0
  4 11  1  0
  5  7  2  0
  8  6  2  0
  9 10  1  6
M  END
$$$$
