
     RDKit          3D

 11 11  0  0  0  0  0  0  0  0999 V2000
  -22.2985   14.0875  -13.9134 C   0  0  0  0  0  0  0  0  0  0  0  0
  -22.5212   15.3572  -13.3871 C   0  0  0  0  0  0  0  0  0  0  0  0
  -22.5234   16.4985  -14.1604 C   0  0  0  0  0  0  0  0  0  0  0  0
  -22.2999   16.4263  -15.5177 C   0  0  0  0  0  0  0  0  0  0  0  0
  -22.0782   15.1725  -16.0478 C   0  0  0  0  0  0  0  0  0  0  0  0
  -22.3543   11.7517  -13.5078 O   0  0  0  0  0  0  0  0  0  0  0  0
  -22.0763   14.0308  -15.2726 C   0  0  0  0  0  0  0  0  0  0  0  0
  -22.3052   12.9194  -13.0647 C   0  0  0  0  0  0  0  0  0  0  0  0
  -22.4053   17.9885  -12.2769 C   0  0  0  0  0  0  0  0  0  0  0  0
  -22.7465   17.7507  -13.6201 O   0  0  0  0  0  0  0  0  0  0  0  0
  -22.2898   17.5368  -16.3470 O   0  0  0  0  0  0  0  0  0  0  0  0
  1  2  2  0
  1  7  1  0
  1  8  1  0
  2  3  1  0
  3  4  2  0
  3 10  1  0
  4  5  1  0
  4 11  1  0
  5  7  2  0
  8  6  2  0
 10  9  1  0
M  END
$$$$
