
     RDKit          3D

 11 11  0  0  0  0  0  0  0  0999 V2000
  -22.7496   15.1415  -12.5691 C   0  0  0  0  0  0  0  0  0  0  0  0
  -22.5347   15.6731  -13.8379 C   0  0  0  0  0  0  0  0  0  0  0  0
  -22.4083   14.8908  -14.9660 C   0  0  0  0  0  0  0  0  0  0  0  0
  -22.4917   13.5186  -14.8807 C   0  0  0  0  0  0  0  0  0  0  0  0
  -22.7045   12.9830  -13.6277 C   0  0  0  0  0  0  0  0  0  0  0  0
  -23.1145   15.5708  -10.2657 O   0  0  0  0  0  0  0  0  0  0  0  0
  -22.8308   13.7672  -12.4992 C   0  0  0  0  0  0  0  0  0  0  0  0
  -22.8759   15.9999  -11.4151 C   0  0  0  0  0  0  0  0  0  0  0  0
  -22.0969   16.8332  -16.3488 C   0  0  0  0  0  0  0  0  0  0  0  0
  -22.1952   15.4366  -16.2176 O   0  0  0  0  0  0  0  0  0  0  0  0
  -22.3729   12.6797  -15.9776 O   0  0  0  0  0  0  0  0  0  0  0  0
  1  2  2  0
  1  7  1  0
  1  8  1  0
  2  3  1  0
  3  4  2  0
  3 10  1  0
  4  5  1  0
  4 11  1  0
  5  7  2  0
  8  6  2  0
 10  9  1  0
M  END
$$$$
