
     RDKit          3D

 11 11  0  0  0  0  0  0  0  0999 V2000
  -22.5423   14.1225  -13.6459 C   0  0  0  0  0  0  0  0  0  0  0  0
  -22.6211   15.4363  -13.1917 C   0  0  0  0  0  0  0  0  0  0  0  0
  -22.5620   16.5250  -14.0354 C   0  0  0  0  0  0  0  0  0  0  0  0
  -22.4193   16.3520  -15.3945 C   0  0  0  0  0  0  0  0  0  0  0  0
  -22.3404   15.0538  -15.8534 C   0  0  0  0  0  0  0  0  0  0  0  0
  -22.4614   11.8220  -13.0761 O   0  0  0  0  0  0  0  0  0  0  0  0
  -22.3996   13.9648  -15.0078 C   0  0  0  0  0  0  0  0  0  0  0  0
  -22.6087   13.0124  -12.7249 C   0  0  0  0  0  0  0  0  0  0  0  0
  -23.0376   18.0471  -12.2357 C   0  0  0  0  0  0  0  0  0  0  0  0
  -22.6419   17.8224  -13.5662 O   0  0  0  0  0  0  0  0  0  0  0  0
  -22.3538   17.4056  -16.2926 O   0  0  0  0  0  0  0  0  0  0  0  0
  1  2  2  0
  1  7  1  0
  1  8  1  0
  2  3  1  0
  3  4  2  0
  3 10  1  0
  4  5  1  0
  4 11  1  0
  5  7  2  0
  8  6  2  0
 10  9  1  0
M  END
$$$$
