
     RDKit          3D

 11 11  0  0  0  0  0  0  0  0999 V2000
  -23.2236   17.0781  -11.3668 C   0  0  0  0  0  0  0  0  0  0  0  0
  -23.0207   18.0429  -12.3499 C   0  0  0  0  0  0  0  0  0  0  0  0
  -22.9120   17.7356  -13.6895 C   0  0  0  0  0  0  0  0  0  0  0  0
  -23.0019   16.4299  -14.1190 C   0  0  0  0  0  0  0  0  0  0  0  0
  -23.2028   15.4673  -13.1519 C   0  0  0  0  0  0  0  0  0  0  0  0
  -23.1407   18.6091   -9.5578 O   0  0  0  0  0  0  0  0  0  0  0  0
  -23.3115   15.7762  -11.8113 C   0  0  0  0  0  0  0  0  0  0  0  0
  -23.3315   17.4464   -9.9749 C   0  0  0  0  0  0  0  0  0  0  0  0
  -22.8299   20.0616  -14.2932 C   0  0  0  0  0  0  0  0  0  0  0  0
  -22.7107   18.7071  -14.6514 O   0  0  0  0  0  0  0  0  0  0  0  0
  -22.9006   16.0584  -15.4504 O   0  0  0  0  0  0  0  0  0  0  0  0
  1  2  2  0
  1  7  1  0
  1  8  1  0
  2  3  1  0
  3  4  2  0
  3 10  1  0
  4  5  1  0
  4 11  1  0
  5  7  2  0
  8  6  2  0
 10  9  1  0
M  END
$$$$
