
     RDKit          3D

 11 11  0  0  0  0  0  0  0  0999 V2000
  -23.2350   17.0305  -11.3755 C   0  0  0  0  0  0  0  0  0  0  0  0
  -23.1149   17.8082  -12.5171 C   0  0  0  0  0  0  0  0  0  0  0  0
  -22.9547   17.2325  -13.7514 C   0  0  0  0  0  0  0  0  0  0  0  0
  -22.9111   15.8562  -13.8680 C   0  0  0  0  0  0  0  0  0  0  0  0
  -23.0295   15.0952  -12.7427 C   0  0  0  0  0  0  0  0  0  0  0  0
  -23.3063   18.9101  -10.0102 O   0  0  0  0  0  0  0  0  0  0  0  0
  -23.1891   15.6666  -11.5131 C   0  0  0  0  0  0  0  0  0  0  0  0
  -23.4033   17.6676  -10.0849 C   0  0  0  0  0  0  0  0  0  0  0  0
  -22.0751   19.1617  -14.8784 C   0  0  0  0  0  0  0  0  0  0  0  0
  -22.8311   17.9669  -14.9149 O   0  0  0  0  0  0  0  0  0  0  0  0
  -22.7512   15.2584  -15.0947 O   0  0  0  0  0  0  0  0  0  0  0  0
  1  2  2  0
  1  7  1  0
  1  8  1  0
  2  3  1  0
  3  4  2  0
  3 10  1  0
  4  5  1  0
  4 11  1  0
  5  7  2  0
  8  6  2  0
  9 10  1  6
M  END
$$$$
