
     RDKit          3D

 11 11  0  0  0  0  0  0  0  0999 V2000
  -22.6618   16.7367  -12.1471 C   0  0  0  0  0  0  0  0  0  0  0  0
  -22.4916   16.6844  -13.5281 C   0  0  0  0  0  0  0  0  0  0  0  0
  -22.4238   15.4996  -14.2298 C   0  0  0  0  0  0  0  0  0  0  0  0
  -22.5241   14.2910  -13.5766 C   0  0  0  0  0  0  0  0  0  0  0  0
  -22.6928   14.3332  -12.2085 C   0  0  0  0  0  0  0  0  0  0  0  0
  -23.1773   18.1237  -10.2941 O   0  0  0  0  0  0  0  0  0  0  0  0
  -22.7605   15.5198  -11.5072 C   0  0  0  0  0  0  0  0  0  0  0  0
  -22.7272   18.0014  -11.4537 C   0  0  0  0  0  0  0  0  0  0  0  0
  -21.9955   16.6665  -16.2881 C   0  0  0  0  0  0  0  0  0  0  0  0
  -22.2546   15.4674  -15.6009 O   0  0  0  0  0  0  0  0  0  0  0  0
  -22.4634   13.0681  -14.2262 O   0  0  0  0  0  0  0  0  0  0  0  0
  1  2  2  0
  1  7  1  0
  1  8  1  0
  2  3  1  0
  3  4  2  0
  3 10  1  0
  4  5  1  0
  4 11  1  0
  5  7  2  0
  8  6  2  0
 10  9  1  0
M  END
$$$$
