
     RDKit          3D

 11 11  0  0  0  0  0  0  0  0999 V2000
  -22.6009   15.0580  -13.3129 C   0  0  0  0  0  0  0  0  0  0  0  0
  -22.6484   16.3249  -13.8744 C   0  0  0  0  0  0  0  0  0  0  0  0
  -22.7883   17.4412  -13.0905 C   0  0  0  0  0  0  0  0  0  0  0  0
  -22.8842   17.3104  -11.7181 C   0  0  0  0  0  0  0  0  0  0  0  0
  -22.8371   16.0626  -11.1700 C   0  0  0  0  0  0  0  0  0  0  0  0
  -22.2406   12.7853  -13.6398 O   0  0  0  0  0  0  0  0  0  0  0  0
  -22.6978   14.9501  -11.9490 C   0  0  0  0  0  0  0  0  0  0  0  0
  -22.4524   13.8970  -14.1672 C   0  0  0  0  0  0  0  0  0  0  0  0
  -22.2533   18.9622  -14.8698 C   0  0  0  0  0  0  0  0  0  0  0  0
  -22.8403   18.7219  -13.6056 O   0  0  0  0  0  0  0  0  0  0  0  0
  -23.0249   18.4153  -10.9137 O   0  0  0  0  0  0  0  0  0  0  0  0
  1  2  2  0
  1  7  1  0
  1  8  1  0
  2  3  1  0
  3  4  2  0
  3 10  1  0
  4  5  1  0
  4 11  1  0
  5  7  2  0
  8  6  2  0
  9 10  1  6
M  END
$$$$
