
     RDKit          3D

 11 11  0  0  0  0  0  0  0  0999 V2000
  -22.3582   14.2832  -12.9970 C   0  0  0  0  0  0  0  0  0  0  0  0
  -22.1938   15.0102  -14.1730 C   0  0  0  0  0  0  0  0  0  0  0  0
  -22.2946   16.3842  -14.2242 C   0  0  0  0  0  0  0  0  0  0  0  0
  -22.5687   17.1101  -13.0860 C   0  0  0  0  0  0  0  0  0  0  0  0
  -22.7331   16.3982  -11.9163 C   0  0  0  0  0  0  0  0  0  0  0  0
  -21.9044   12.1799  -13.9938 O   0  0  0  0  0  0  0  0  0  0  0  0
  -22.6319   15.0228  -11.8664 C   0  0  0  0  0  0  0  0  0  0  0  0
  -22.2436   12.8439  -12.9907 C   0  0  0  0  0  0  0  0  0  0  0  0
  -21.7001   16.4071  -16.5539 C   0  0  0  0  0  0  0  0  0  0  0  0
  -22.1283   17.0890  -15.4012 O   0  0  0  0  0  0  0  0  0  0  0  0
  -22.6821   18.4914  -13.0738 O   0  0  0  0  0  0  0  0  0  0  0  0
  1  2  2  0
  1  7  1  0
  1  8  1  0
  2  3  1  0
  3  4  2  0
  3 10  1  0
  4  5  1  0
  4 11  1  0
  5  7  2  0
  8  6  2  0
 10  9  1  0
M  END
$$$$
