
     RDKit          3D

 11 11  0  0  0  0  0  0  0  0999 V2000
  -22.5262   14.4112  -13.7112 C   0  0  0  0  0  0  0  0  0  0  0  0
  -22.5751   15.6435  -14.3449 C   0  0  0  0  0  0  0  0  0  0  0  0
  -22.7223   16.8026  -13.6271 C   0  0  0  0  0  0  0  0  0  0  0  0
  -22.8242   16.7505  -12.2499 C   0  0  0  0  0  0  0  0  0  0  0  0
  -22.7756   15.5365  -11.6307 C   0  0  0  0  0  0  0  0  0  0  0  0
  -21.9695   12.1654  -13.9304 O   0  0  0  0  0  0  0  0  0  0  0  0
  -22.6291   14.3816  -12.3438 C   0  0  0  0  0  0  0  0  0  0  0  0
  -22.3699   13.2036  -14.4967 C   0  0  0  0  0  0  0  0  0  0  0  0
  -22.1051   18.2444  -15.4454 C   0  0  0  0  0  0  0  0  0  0  0  0
  -22.7760   18.0514  -14.2153 O   0  0  0  0  0  0  0  0  0  0  0  0
  -22.9722   17.8994  -11.5110 O   0  0  0  0  0  0  0  0  0  0  0  0
  1  2  2  0
  1  7  1  0
  1  8  1  0
  2  3  1  0
  3  4  2  0
  3 10  1  0
  4  5  1  0
  4 11  1  0
  5  7  2  0
  8  6  2  0
  9 10  1  6
M  END
$$$$
