
     RDKit          3D

 11 11  0  0  0  0  0  0  0  0999 V2000
  -22.7066   16.3223  -12.4859 C   0  0  0  0  0  0  0  0  0  0  0  0
  -22.4936   16.1689  -13.8532 C   0  0  0  0  0  0  0  0  0  0  0  0
  -22.3941   14.9359  -14.4619 C   0  0  0  0  0  0  0  0  0  0  0  0
  -22.5042   13.7784  -13.7233 C   0  0  0  0  0  0  0  0  0  0  0  0
  -22.7152   13.9207  -12.3678 C   0  0  0  0  0  0  0  0  0  0  0  0
  -23.2119   17.8293  -10.7260 O   0  0  0  0  0  0  0  0  0  0  0  0
  -22.8147   15.1555  -11.7598 C   0  0  0  0  0  0  0  0  0  0  0  0
  -22.8042   17.6345  -11.8914 C   0  0  0  0  0  0  0  0  0  0  0  0
  -21.9957   15.9577  -16.6017 C   0  0  0  0  0  0  0  0  0  0  0  0
  -22.1825   14.8032  -15.8211 O   0  0  0  0  0  0  0  0  0  0  0  0
  -22.4130   12.5111  -14.2773 O   0  0  0  0  0  0  0  0  0  0  0  0
  1  2  2  0
  1  7  1  0
  1  8  1  0
  2  3  1  0
  3  4  2  0
  3 10  1  0
  4  5  1  0
  4 11  1  0
  5  7  2  0
  8  6  2  0
 10  9  1  0
M  END
$$$$
