
     RDKit          3D

 11 11  0  0  0  0  0  0  0  0999 V2000
  -22.6520   15.8487  -12.5842 C   0  0  0  0  0  0  0  0  0  0  0  0
  -22.7340   17.1314  -13.1042 C   0  0  0  0  0  0  0  0  0  0  0  0
  -22.8802   18.2196  -12.2828 C   0  0  0  0  0  0  0  0  0  0  0  0
  -22.9477   18.0438  -10.9137 C   0  0  0  0  0  0  0  0  0  0  0  0
  -22.8666   16.7807  -10.4065 C   0  0  0  0  0  0  0  0  0  0  0  0
  -22.3658   13.5776  -12.9871 O   0  0  0  0  0  0  0  0  0  0  0  0
  -22.7210   15.6961  -11.2229 C   0  0  0  0  0  0  0  0  0  0  0  0
  -22.4976   14.7182  -13.4775 C   0  0  0  0  0  0  0  0  0  0  0  0
  -22.0651   19.9220  -13.7672 C   0  0  0  0  0  0  0  0  0  0  0  0
  -22.9662   19.5146  -12.7559 O   0  0  0  0  0  0  0  0  0  0  0  0
  -23.0940   19.1200  -10.0722 O   0  0  0  0  0  0  0  0  0  0  0  0
  1  2  2  0
  1  7  1  0
  1  8  1  0
  2  3  1  0
  3  4  2  0
  3 10  1  0
  4  5  1  0
  4 11  1  0
  5  7  2  0
  8  6  2  0
  9 10  1  6
M  END
$$$$
