
     RDKit          3D

 11 11  0  0  0  0  0  0  0  0999 V2000
  -22.3933   14.3486  -13.0119 C   0  0  0  0  0  0  0  0  0  0  0  0
  -22.1533   15.0580  -14.1788 C   0  0  0  0  0  0  0  0  0  0  0  0
  -22.2802   16.4229  -14.2155 C   0  0  0  0  0  0  0  0  0  0  0  0
  -22.6527   17.1100  -13.0757 C   0  0  0  0  0  0  0  0  0  0  0  0
  -22.8877   16.4083  -11.9303 C   0  0  0  0  0  0  0  0  0  0  0  0
  -21.9929   12.3217  -14.0765 O   0  0  0  0  0  0  0  0  0  0  0  0
  -22.7619   15.0494  -11.8920 C   0  0  0  0  0  0  0  0  0  0  0  0
  -22.2511   12.9065  -13.0040 C   0  0  0  0  0  0  0  0  0  0  0  0
  -21.9063   16.4912  -16.5864 C   0  0  0  0  0  0  0  0  0  0  0  0
  -22.0515   17.1705  -15.3544 O   0  0  0  0  0  0  0  0  0  0  0  0
  -22.7857   18.4774  -13.0899 O   0  0  0  0  0  0  0  0  0  0  0  0
  1  2  2  0
  1  7  1  0
  1  8  1  0
  2  3  1  0
  3  4  2  0
  3 10  1  0
  4  5  1  0
  4 11  1  0
  5  7  2  0
  8  6  2  0
  9 10  1  6
M  END
$$$$
