
     RDKit          3D

 11 11  0  0  0  0  0  0  0  0999 V2000
  -22.7381   14.5588  -13.5980 C   0  0  0  0  0  0  0  0  0  0  0  0
  -22.6546   15.8289  -14.1625 C   0  0  0  0  0  0  0  0  0  0  0  0
  -22.7374   16.9862  -13.4179 C   0  0  0  0  0  0  0  0  0  0  0  0
  -22.9104   16.9306  -12.0525 C   0  0  0  0  0  0  0  0  0  0  0  0
  -22.9942   15.6766  -11.4846 C   0  0  0  0  0  0  0  0  0  0  0  0
  -22.3668   12.2448  -13.9594 O   0  0  0  0  0  0  0  0  0  0  0  0
  -22.9111   14.5189  -12.2310 C   0  0  0  0  0  0  0  0  0  0  0  0
  -22.6461   13.3736  -14.4175 C   0  0  0  0  0  0  0  0  0  0  0  0
  -22.4138   18.3409  -15.3779 C   0  0  0  0  0  0  0  0  0  0  0  0
  -22.6523   18.2385  -13.9959 O   0  0  0  0  0  0  0  0  0  0  0  0
  -23.0007   18.0577  -11.2508 O   0  0  0  0  0  0  0  0  0  0  0  0
  1  2  2  0
  1  7  1  0
  1  8  1  0
  2  3  1  0
  3  4  2  0
  3 10  1  0
  4  5  1  0
  4 11  1  0
  5  7  2  0
  8  6  2  0
 10  9  1  0
M  END
$$$$
