
     RDKit          3D

 11 11  0  0  0  0  0  0  0  0999 V2000
  -22.8673   15.2985  -12.2420 C   0  0  0  0  0  0  0  0  0  0  0  0
  -22.8997   16.3840  -13.1133 C   0  0  0  0  0  0  0  0  0  0  0  0
  -23.0733   17.6829  -12.6851 C   0  0  0  0  0  0  0  0  0  0  0  0
  -23.2253   17.9653  -11.3455 C   0  0  0  0  0  0  0  0  0  0  0  0
  -23.1946   16.8960  -10.4750 C   0  0  0  0  0  0  0  0  0  0  0  0
  -22.7897   13.6478  -13.9428 O   0  0  0  0  0  0  0  0  0  0  0  0
  -23.0208   15.5962  -10.9048 C   0  0  0  0  0  0  0  0  0  0  0  0
  -22.6831   13.9542  -12.7358 C   0  0  0  0  0  0  0  0  0  0  0  0
  -22.3393   18.6845  -14.7442 C   0  0  0  0  0  0  0  0  0  0  0  0
  -23.1027   18.7481  -13.5651 O   0  0  0  0  0  0  0  0  0  0  0  0
  -23.4031   19.2491  -10.8542 O   0  0  0  0  0  0  0  0  0  0  0  0
  1  2  2  0
  1  7  1  0
  1  8  1  0
  2  3  1  0
  3  4  2  0
  3 10  1  0
  4  5  1  0
  4 11  1  0
  5  7  2  0
  8  6  2  0
 10  9  1  0
M  END
$$$$
