
     RDKit          3D

 11 11  0  0  0  0  0  0  0  0999 V2000
  -22.4968   14.4229  -12.9831 C   0  0  0  0  0  0  0  0  0  0  0  0
  -22.3205   15.2040  -14.1222 C   0  0  0  0  0  0  0  0  0  0  0  0
  -22.4605   16.5755  -14.1187 C   0  0  0  0  0  0  0  0  0  0  0  0
  -22.7883   17.2440  -12.9598 C   0  0  0  0  0  0  0  0  0  0  0  0
  -22.9649   16.4783  -11.8263 C   0  0  0  0  0  0  0  0  0  0  0  0
  -22.0550   12.3677  -14.0805 O   0  0  0  0  0  0  0  0  0  0  0  0
  -22.8245   15.1054  -11.8311 C   0  0  0  0  0  0  0  0  0  0  0  0
  -22.3399   12.9885  -13.0338 C   0  0  0  0  0  0  0  0  0  0  0  0
  -21.8985   16.6978  -16.4534 C   0  0  0  0  0  0  0  0  0  0  0  0
  -22.2815   17.3345  -15.2596 O   0  0  0  0  0  0  0  0  0  0  0  0
  -22.9429   18.6197  -12.8930 O   0  0  0  0  0  0  0  0  0  0  0  0
  1  2  2  0
  1  7  1  0
  1  8  1  0
  2  3  1  0
  3  4  2  0
  3 10  1  0
  4  5  1  0
  4 11  1  0
  5  7  2  0
  8  6  2  0
 10  9  1  0
M  END
$$$$
