
     RDKit          3D

 11 11  0  0  0  0  0  0  0  0999 V2000
  -22.8502   14.0583  -13.8499 C   0  0  0  0  0  0  0  0  0  0  0  0
  -22.8246   15.3715  -13.4057 C   0  0  0  0  0  0  0  0  0  0  0  0
  -22.6942   16.4139  -14.2872 C   0  0  0  0  0  0  0  0  0  0  0  0
  -22.5860   16.1601  -15.6413 C   0  0  0  0  0  0  0  0  0  0  0  0
  -22.6117   14.8671  -16.0738 C   0  0  0  0  0  0  0  0  0  0  0  0
  -22.4902   11.8662  -13.1666 O   0  0  0  0  0  0  0  0  0  0  0  0
  -22.7415   13.8282  -15.1976 C   0  0  0  0  0  0  0  0  0  0  0  0
  -22.9891   12.9778  -12.8943 C   0  0  0  0  0  0  0  0  0  0  0  0
  -23.2051   18.0723  -12.6276 C   0  0  0  0  0  0  0  0  0  0  0  0
  -22.6638   17.7367  -13.8905 O   0  0  0  0  0  0  0  0  0  0  0  0
  -22.4546   17.1892  -16.5421 O   0  0  0  0  0  0  0  0  0  0  0  0
  1  2  2  0
  1  7  1  0
  1  8  1  0
  2  3  1  0
  3  4  2  0
  3 10  1  0
  4  5  1  0
  4 11  1  0
  5  7  2  0
  8  6  2  0
  9 10  1  6
M  END
$$$$
