
     RDKit          3D

 11 11  0  0  0  0  0  0  0  0999 V2000
  -22.3866   14.2895  -13.0392 C   0  0  0  0  0  0  0  0  0  0  0  0
  -22.1840   15.0035  -14.2172 C   0  0  0  0  0  0  0  0  0  0  0  0
  -22.2704   16.3778  -14.2840 C   0  0  0  0  0  0  0  0  0  0  0  0
  -22.5680   17.1172  -13.1605 C   0  0  0  0  0  0  0  0  0  0  0  0
  -22.7704   16.4181  -11.9890 C   0  0  0  0  0  0  0  0  0  0  0  0
  -22.0084   12.1665  -14.0257 O   0  0  0  0  0  0  0  0  0  0  0  0
  -22.6836   15.0424  -11.9234 C   0  0  0  0  0  0  0  0  0  0  0  0
  -22.2859   12.8493  -13.0163 C   0  0  0  0  0  0  0  0  0  0  0  0
  -21.8278   16.3505  -16.6473 C   0  0  0  0  0  0  0  0  0  0  0  0
  -22.0660   17.0697  -15.4627 O   0  0  0  0  0  0  0  0  0  0  0  0
  -22.6687   18.4995  -13.1644 O   0  0  0  0  0  0  0  0  0  0  0  0
  1  2  2  0
  1  7  1  0
  1  8  1  0
  2  3  1  0
  3  4  2  0
  3 10  1  0
  4  5  1  0
  4 11  1  0
  5  7  2  0
  8  6  2  0
 10  9  1  0
M  END
$$$$
