
     RDKit          3D

 11 11  0  0  0  0  0  0  0  0999 V2000
  -22.8803   15.8862  -12.0022 C   0  0  0  0  0  0  0  0  0  0  0  0
  -22.6860   16.5033  -13.2285 C   0  0  0  0  0  0  0  0  0  0  0  0
  -22.5204   15.7661  -14.3729 C   0  0  0  0  0  0  0  0  0  0  0  0
  -22.5464   14.3858  -14.3117 C   0  0  0  0  0  0  0  0  0  0  0  0
  -22.7378   13.7830  -13.1036 C   0  0  0  0  0  0  0  0  0  0  0  0
  -22.9267   17.9310  -10.8983 O   0  0  0  0  0  0  0  0  0  0  0  0
  -22.9027   14.5153  -11.9633 C   0  0  0  0  0  0  0  0  0  0  0  0
  -23.0523   16.6919  -10.8101 C   0  0  0  0  0  0  0  0  0  0  0  0
  -22.2421   17.7467  -15.7017 C   0  0  0  0  0  0  0  0  0  0  0  0
  -22.3242   16.3373  -15.6153 O   0  0  0  0  0  0  0  0  0  0  0  0
  -22.3827   13.6276  -15.4458 O   0  0  0  0  0  0  0  0  0  0  0  0
  1  2  2  0
  1  7  1  0
  1  8  1  0
  2  3  1  0
  3  4  2  0
  3 10  1  0
  4  5  1  0
  4 11  1  0
  5  7  2  0
  8  6  2  0
  9 10  1  6
M  END
$$$$
