
     RDKit          3D

 11 11  0  0  0  0  0  0  0  0999 V2000
  -22.7805   15.8701  -12.7616 C   0  0  0  0  0  0  0  0  0  0  0  0
  -22.5730   15.8526  -14.1382 C   0  0  0  0  0  0  0  0  0  0  0  0
  -22.4263   14.6863  -14.8586 C   0  0  0  0  0  0  0  0  0  0  0  0
  -22.4806   13.4621  -14.2296 C   0  0  0  0  0  0  0  0  0  0  0  0
  -22.6859   13.4698  -12.8658 C   0  0  0  0  0  0  0  0  0  0  0  0
  -23.1880   17.1795  -10.8269 O   0  0  0  0  0  0  0  0  0  0  0  0
  -22.8325   14.6379  -12.1458 C   0  0  0  0  0  0  0  0  0  0  0  0
  -22.9287   17.1165  -12.0480 C   0  0  0  0  0  0  0  0  0  0  0  0
  -22.1621   15.9167  -16.9075 C   0  0  0  0  0  0  0  0  0  0  0  0
  -22.2209   14.6886  -16.2252 O   0  0  0  0  0  0  0  0  0  0  0  0
  -22.3404   12.2564  -14.8986 O   0  0  0  0  0  0  0  0  0  0  0  0
  1  2  2  0
  1  7  1  0
  1  8  1  0
  2  3  1  0
  3  4  2  0
  3 10  1  0
  4  5  1  0
  4 11  1  0
  5  7  2  0
  8  6  2  0
 10  9  1  0
M  END
$$$$
