
     RDKit          3D

 11 11  0  0  0  0  0  0  0  0999 V2000
  -22.7775   13.9833  -13.9850 C   0  0  0  0  0  0  0  0  0  0  0  0
  -22.7076   15.1811  -13.2901 C   0  0  0  0  0  0  0  0  0  0  0  0
  -22.5557   16.3736  -13.9499 C   0  0  0  0  0  0  0  0  0  0  0  0
  -22.4702   16.3906  -15.3291 C   0  0  0  0  0  0  0  0  0  0  0  0
  -22.5394   15.2103  -16.0085 C   0  0  0  0  0  0  0  0  0  0  0  0
  -21.9770   12.3029  -12.5930 O   0  0  0  0  0  0  0  0  0  0  0  0
  -22.6906   14.0221  -15.3532 C   0  0  0  0  0  0  0  0  0  0  0  0
  -22.9381   12.7389  -13.2600 C   0  0  0  0  0  0  0  0  0  0  0  0
  -22.9403   17.6677  -11.9641 C   0  0  0  0  0  0  0  0  0  0  0  0
  -22.4814   17.5902  -13.2998 O   0  0  0  0  0  0  0  0  0  0  0  0
  -22.3179   17.5740  -16.0104 O   0  0  0  0  0  0  0  0  0  0  0  0
  1  2  2  0
  1  7  1  0
  1  8  1  0
  2  3  1  0
  3  4  2  0
  3 10  1  0
  4  5  1  0
  4 11  1  0
  5  7  2  0
  8  6  2  0
  9 10  1  6
M  END
$$$$
