
     RDKit          3D

 11 11  0  0  0  0  0  0  0  0999 V2000
  -22.7712   17.3462  -11.5584 C   0  0  0  0  0  0  0  0  0  0  0  0
  -22.5956   17.4347  -12.9368 C   0  0  0  0  0  0  0  0  0  0  0  0
  -22.5949   16.3318  -13.7639 C   0  0  0  0  0  0  0  0  0  0  0  0
  -22.7721   15.0674  -13.2469 C   0  0  0  0  0  0  0  0  0  0  0  0
  -22.9467   14.9701  -11.8822 C   0  0  0  0  0  0  0  0  0  0  0  0
  -23.1245   18.5292   -9.5339 O   0  0  0  0  0  0  0  0  0  0  0  0
  -22.9473   16.0750  -11.0554 C   0  0  0  0  0  0  0  0  0  0  0  0
  -22.7647   18.5293  -10.7308 C   0  0  0  0  0  0  0  0  0  0  0  0
  -22.2598   17.7135  -15.7031 C   0  0  0  0  0  0  0  0  0  0  0  0
  -22.4191   16.4392  -15.1304 O   0  0  0  0  0  0  0  0  0  0  0  0
  -22.7810   13.9213  -14.0262 O   0  0  0  0  0  0  0  0  0  0  0  0
  1  2  2  0
  1  7  1  0
  1  8  1  0
  2  3  1  0
  3  4  2  0
  3 10  1  0
  4  5  1  0
  4 11  1  0
  5  7  2  0
  8  6  2  0
 10  9  1  0
M  END
$$$$
