
     RDKit          3D

 11 11  0  0  0  0  0  0  0  0999 V2000
  -22.5946   14.3737  -13.1069 C   0  0  0  0  0  0  0  0  0  0  0  0
  -22.5350   15.1922  -14.2245 C   0  0  0  0  0  0  0  0  0  0  0  0
  -22.7071   16.5485  -14.1179 C   0  0  0  0  0  0  0  0  0  0  0  0
  -22.9440   17.1166  -12.8806 C   0  0  0  0  0  0  0  0  0  0  0  0
  -23.0018   16.3080  -11.7841 C   0  0  0  0  0  0  0  0  0  0  0  0
  -22.1707   12.4795  -14.3853 O   0  0  0  0  0  0  0  0  0  0  0  0
  -22.8307   14.9575  -11.8884 C   0  0  0  0  0  0  0  0  0  0  0  0
  -22.4088   12.9438  -13.2510 C   0  0  0  0  0  0  0  0  0  0  0  0
  -21.9579   16.9796  -16.3581 C   0  0  0  0  0  0  0  0  0  0  0  0
  -22.6561   17.4020  -15.2028 O   0  0  0  0  0  0  0  0  0  0  0  0
  -23.1193   18.4731  -12.7507 O   0  0  0  0  0  0  0  0  0  0  0  0
  1  2  2  0
  1  7  1  0
  1  8  1  0
  2  3  1  0
  3  4  2  0
  3 10  1  0
  4  5  1  0
  4 11  1  0
  5  7  2  0
  8  6  2  0
  9 10  1  6
M  END
$$$$
