
     RDKit          3D

 31 33  0  0  0  0  0  0  0  0999 V2000
  131.4797    0.2753   -3.6806 C   0  0  2  0  0  0  0  0  0  0  0  0
  131.6674   -0.0642   -5.0114 O   0  0  0  0  0  0  0  0  0  0  0  0
  132.6631   -0.2722   -2.9264 C   0  0  2  0  0  0  0  0  0  0  0  0
  133.0107   -1.5528   -3.5660 N   0  0  0  0  0  4  0  0  0  0  0  0
  132.2384   -0.5425   -1.5067 C   0  0  0  0  0  0  0  0  0  0  0  0
  131.2119    0.4780   -1.0689 C   0  0  0  0  0  0  0  0  0  0  0  0
  129.9822    0.4403   -1.9357 C   0  0  2  0  0  0  0  0  0  0  0  0
  130.2757   -0.1541   -3.1776 O   0  0  0  0  0  0  0  0  0  0  0  0
  129.3197    1.7512   -2.1275 C   0  0  0  0  0  0  0  0  0  0  0  0
  127.8924    1.7419   -1.9534 N   0  0  0  0  0  4  0  0  0  0  0  0
  128.4053    0.3394   -7.4663 C   0  0  2  0  0  0  0  0  0  0  0  0
  128.3804    1.7402   -7.8223 N   0  0  0  0  0  4  0  0  0  0  0  0
  128.2234    0.1344   -5.9937 C   0  0  0  0  0  0  0  0  0  0  0  0
  129.4250   -0.5613   -5.4074 C   0  0  2  0  0  0  0  0  0  0  0  0
  129.3953   -0.6216   -3.9753 N   0  0  0  0  0  4  0  0  0  0  0  0
  130.6397    0.2639   -5.8586 C   0  0  2  0  0  0  0  0  0  0  0  0
  130.8791   -0.1147   -7.2910 C   0  0  2  0  0  0  0  0  0  0  0  0
  131.7237    0.7704   -7.9587 O   0  0  0  0  0  0  0  0  0  0  0  0
  129.6074   -0.3650   -8.0321 C   0  0  1  0  0  0  0  0  0  0  0  0
  129.2956   -1.7045   -8.1606 O   0  0  0  0  0  0  0  0  0  0  0  0
  128.5236   -1.9234   -9.2986 C   0  0  2  0  0  0  0  0  0  0  0  0
  128.1393   -3.3836   -9.4025 C   0  0  2  0  0  0  0  0  0  0  0  0
  127.0430   -3.7013   -8.6277 O   0  0  0  0  0  0  0  0  0  0  0  0
  129.3634   -4.1952   -9.0457 C   0  0  1  0  0  0  0  0  0  0  0  0
  129.0714   -5.5939   -9.2181 N   0  0  0  0  0  4  0  0  0  0  0  0
  130.4614   -3.7879  -10.0255 C   0  0  1  0  0  0  0  0  0  0  0  0
  130.1824   -4.3462  -11.2691 O   0  0  0  0  0  0  0  0  0  0  0  0
  130.5743   -2.2943  -10.1325 C   0  0  0  0  0  0  0  0  0  0  0  0
  129.3721   -1.6632  -10.3954 O   0  0  0  0  0  0  0  0  0  0  0  0
  131.7597   -4.3097   -9.4415 C   0  0  0  0  0  0  0  0  0  0  0  0
  128.7264   -6.1944   -7.9380 C   0  0  0  0  0  0  0  0  0  0  0  0
  1  2  1  6
  1  3  1  0
  1  8  1  0
 16  2  1  1
  3  4  1  6
  3  5  1  0
  5  6  1  0
  7  6  1  0
  8  7  1  0
  7  9  1  6
  9 10  1  0
 11 12  1  1
 13 11  1  0
 11 19  1  0
 14 13  1  0
 14 15  1  1
 14 16  1  0
 16 17  1  0
 17 18  1  6
 17 19  1  0
 19 20  1  1
 21 20  1  1
 21 22  1  0
 21 29  1  0
 22 23  1  1
 22 24  1  0
 24 25  1  6
 24 26  1  0
 25 31  1  0
 26 27  1  0
 26 28  1  0
 26 30  1  1
 28 29  1  0
M  CHG  5   4   1  10   1  12   1  15   1  25   1
M  END
$$$$
