
     RDKit          3D

 31 33  0  0  0  0  0  0  0  0999 V2000
  107.9878  -12.3854  -10.1822 C   0  0  2  0  0  0  0  0  0  0  0  0
  108.7774  -12.6900   -9.0844 O   0  0  0  0  0  0  0  0  0  0  0  0
  107.4465  -10.9989   -9.9509 C   0  0  2  0  0  0  0  0  0  0  0  0
  107.1905  -10.8858   -8.5046 N   0  0  0  0  0  4  0  0  0  0  0  0
  106.1364  -10.8716  -10.6832 C   0  0  0  0  0  0  0  0  0  0  0  0
  106.1728  -11.6857  -11.9570 C   0  0  0  0  0  0  0  0  0  0  0  0
  106.4089  -13.1460  -11.6799 C   0  0  2  0  0  0  0  0  0  0  0  0
  107.0038  -13.3151  -10.4153 O   0  0  0  0  0  0  0  0  0  0  0  0
  107.1860  -13.8560  -12.7220 C   0  0  0  0  0  0  0  0  0  0  0  0
  106.7703  -13.5947  -14.0735 N   0  0  0  0  0  4  0  0  0  0  0  0
  112.3380  -14.7049   -9.3884 C   0  0  2  0  0  0  0  0  0  0  0  0
  112.8270  -14.3956  -10.7132 N   0  0  0  0  0  4  0  0  0  0  0  0
  111.0401  -15.4513   -9.4327 C   0  0  0  0  0  0  0  0  0  0  0  0
  109.9592  -14.6679   -8.7329 C   0  0  2  0  0  0  0  0  0  0  0  0
  108.6547  -15.2390   -8.8995 N   0  0  0  0  0  4  0  0  0  0  0  0
  109.9887  -13.2686   -9.3663 C   0  0  2  0  0  0  0  0  0  0  0  0
  111.1634  -12.5676   -8.7492 C   0  0  2  0  0  0  0  0  0  0  0  0
  111.5417  -11.4181   -9.4407 O   0  0  0  0  0  0  0  0  0  0  0  0
  112.3093  -13.4917   -8.5004 C   0  0  1  0  0  0  0  0  0  0  0  0
  112.4014  -13.9197   -7.1904 O   0  0  0  0  0  0  0  0  0  0  0  0
  113.7166  -14.2465   -6.8704 C   0  0  2  0  0  0  0  0  0  0  0  0
  113.7553  -15.1525   -5.6586 C   0  0  2  0  0  0  0  0  0  0  0  0
  113.5297  -16.4758   -5.9767 O   0  0  0  0  0  0  0  0  0  0  0  0
  112.7553  -14.6111   -4.6628 C   0  0  1  0  0  0  0  0  0  0  0  0
  112.8212  -15.3896   -3.4542 N   0  0  0  0  0  4  0  0  0  0  0  0
  113.1733  -13.1748   -4.3572 C   0  0  1  0  0  0  0  0  0  0  0  0
  114.3020  -13.1995   -3.5439 O   0  0  0  0  0  0  0  0  0  0  0  0
  113.4489  -12.4043   -5.6164 C   0  0  0  0  0  0  0  0  0  0  0  0
  114.3284  -13.0382   -6.4750 O   0  0  0  0  0  0  0  0  0  0  0  0
  111.9861  -12.5292   -3.6699 C   0  0  0  0  0  0  0  0  0  0  0  0
  112.8589  -16.8089   -3.7747 C   0  0  0  0  0  0  0  0  0  0  0  0
  1  2  1  1
  1  3  1  0
  1  8  1  0
 16  2  1  1
  3  4  1  1
  3  5  1  0
  5  6  1  0
  7  6  1  0
  8  7  1  0
  7  9  1  6
  9 10  1  0
 11 12  1  6
 13 11  1  0
 11 19  1  0
 14 13  1  0
 14 15  1  6
 14 16  1  0
 16 17  1  0
 17 18  1  6
 17 19  1  0
 19 20  1  1
 21 20  1  1
 21 22  1  0
 21 29  1  0
 22 23  1  6
 22 24  1  0
 24 25  1  1
 24 26  1  0
 25 31  1  0
 26 27  1  0
 26 28  1  0
 26 30  1  1
 28 29  1  0
M  CHG  5   4   1  10   1  12   1  15   1  25   1
M  END
$$$$
