
     RDKit          3D

 31 33  0  0  0  0  0  0  0  0999 V2000
  107.6220  -14.5994   -9.6098 C   0  0  2  0  0  0  0  0  0  0  0  0
  108.7518  -13.7973   -9.5681 O   0  0  0  0  0  0  0  0  0  0  0  0
  107.7506  -15.4597  -10.8395 C   0  0  2  0  0  0  0  0  0  0  0  0
  108.3910  -14.6238  -11.8696 N   0  0  0  0  0  4  0  0  0  0  0  0
  106.3675  -15.8276  -11.3092 C   0  0  0  0  0  0  0  0  0  0  0  0
  105.4412  -15.9826  -10.1241 C   0  0  0  0  0  0  0  0  0  0  0  0
  105.3368  -14.7105   -9.3267 C   0  0  2  0  0  0  0  0  0  0  0  0
  106.4496  -13.8843   -9.5736 O   0  0  0  0  0  0  0  0  0  0  0  0
  105.1442  -14.9064   -7.8712 C   0  0  0  0  0  0  0  0  0  0  0  0
  104.0129  -15.7179   -7.5118 N   0  0  0  0  0  4  0  0  0  0  0  0
  111.4879  -13.8243   -6.5115 C   0  0  2  0  0  0  0  0  0  0  0  0
  110.8833  -14.6368   -5.4800 N   0  0  0  0  0  4  0  0  0  0  0  0
  110.6832  -12.5934   -6.7958 C   0  0  0  0  0  0  0  0  0  0  0  0
  110.2266  -12.5839   -8.2322 C   0  0  2  0  0  0  0  0  0  0  0  0
  109.2997  -11.5286   -8.5198 N   0  0  0  0  0  4  0  0  0  0  0  0
  109.5411  -13.9405   -8.4556 C   0  0  2  0  0  0  0  0  0  0  0  0
  110.6525  -14.9365   -8.6142 C   0  0  2  0  0  0  0  0  0  0  0  0
  110.2264  -16.2580   -8.4929 O   0  0  0  0  0  0  0  0  0  0  0  0
  111.8214  -14.6269   -7.7386 C   0  0  1  0  0  0  0  0  0  0  0  0
  112.8539  -13.9889   -8.3981 O   0  0  0  0  0  0  0  0  0  0  0  0
  113.9601  -14.8273   -8.5088 C   0  0  2  0  0  0  0  0  0  0  0  0
  115.1437  -14.2393   -7.7713 C   0  0  2  0  0  0  0  0  0  0  0  0
  115.1107  -14.5024   -6.4175 O   0  0  0  0  0  0  0  0  0  0  0  0
  115.1734  -12.7599   -8.0797 C   0  0  1  0  0  0  0  0  0  0  0  0
  116.3377  -12.1723   -7.4711 N   0  0  0  0  0  4  0  0  0  0  0  0
  115.2812  -12.6296   -9.5972 C   0  0  1  0  0  0  0  0  0  0  0  0
  116.5758  -12.9609   -9.9849 O   0  0  0  0  0  0  0  0  0  0  0  0
  114.2822  -13.5070  -10.2952 C   0  0  0  0  0  0  0  0  0  0  0  0
  114.3101  -14.8244   -9.8756 O   0  0  0  0  0  0  0  0  0  0  0  0
  114.9375  -11.1887   -9.9202 C   0  0  0  0  0  0  0  0  0  0  0  0
  116.7865  -12.9919   -6.3552 C   0  0  0  0  0  0  0  0  0  0  0  0
  1  2  1  6
  1  3  1  0
  1  8  1  0
 16  2  1  6
  3  4  1  6
  3  5  1  0
  5  6  1  0
  7  6  1  0
  8  7  1  0
  7  9  1  1
  9 10  1  0
 11 12  1  1
 13 11  1  0
 11 19  1  0
 14 13  1  0
 14 15  1  1
 14 16  1  0
 16 17  1  0
 17 18  1  1
 17 19  1  0
 19 20  1  6
 21 20  1  6
 21 22  1  0
 21 29  1  0
 22 23  1  1
 22 24  1  0
 24 25  1  1
 24 26  1  0
 25 31  1  0
 26 27  1  0
 26 28  1  0
 26 30  1  1
 28 29  1  0
M  CHG  5   4   1  10   1  12   1  15   1  25   1
M  END
$$$$
