
     RDKit          3D

 31 33  0  0  0  0  0  0  0  0999 V2000
  107.4849  -16.4073   -5.4762 C   0  0  2  0  0  0  0  0  0  0  0  0
  108.7661  -15.9262   -5.2559 O   0  0  0  0  0  0  0  0  0  0  0  0
  106.8578  -15.5042   -6.5058 C   0  0  2  0  0  0  0  0  0  0  0  0
  107.3544  -14.1454   -6.2283 N   0  0  0  0  0  4  0  0  0  0  0  0
  105.3648  -15.5212   -6.3070 C   0  0  0  0  0  0  0  0  0  0  0  0
  104.9201  -16.8862   -5.8317 C   0  0  0  0  0  0  0  0  0  0  0  0
  105.5660  -17.2602   -4.5249 C   0  0  2  0  0  0  0  0  0  0  0  0
  106.7407  -16.5102   -4.3261 O   0  0  0  0  0  0  0  0  0  0  0  0
  105.8358  -18.7073   -4.3596 C   0  0  0  0  0  0  0  0  0  0  0  0
  104.6772  -19.5548   -4.4437 N   0  0  0  0  0  4  0  0  0  0  0  0
  112.0777  -17.1566   -7.3413 C   0  0  2  0  0  0  0  0  0  0  0  0
  111.6575  -18.3559   -8.0303 N   0  0  0  0  0  4  0  0  0  0  0  0
  112.0176  -17.3177   -5.8533 C   0  0  0  0  0  0  0  0  0  0  0  0
  111.0640  -16.3159   -5.2543 C   0  0  2  0  0  0  0  0  0  0  0  0
  110.8207  -16.5374   -3.8589 N   0  0  0  0  0  4  0  0  0  0  0  0
  109.7505  -16.4802   -6.0340 C   0  0  2  0  0  0  0  0  0  0  0  0
  109.9651  -15.7807   -7.3443 C   0  0  2  0  0  0  0  0  0  0  0  0
  109.0095  -16.1086   -8.3044 O   0  0  0  0  0  0  0  0  0  0  0  0
  111.3621  -15.9350   -7.8479 C   0  0  1  0  0  0  0  0  0  0  0  0
  112.1642  -14.8378   -7.6013 O   0  0  0  0  0  0  0  0  0  0  0  0
  113.0902  -14.6643   -8.6267 C   0  0  2  0  0  0  0  0  0  0  0  0
  114.2085  -13.7484   -8.1783 C   0  0  2  0  0  0  0  0  0  0  0  0
  115.1761  -14.4081   -7.4493 O   0  0  0  0  0  0  0  0  0  0  0  0
  113.5746  -12.6091   -7.4136 C   0  0  1  0  0  0  0  0  0  0  0  0
  114.5932  -11.6622   -7.0433 N   0  0  0  0  0  4  0  0  0  0  0  0
  112.5875  -11.9369   -8.3650 C   0  0  1  0  0  0  0  0  0  0  0  0
  113.3014  -11.2003   -9.3050 O   0  0  0  0  0  0  0  0  0  0  0  0
  111.7078  -12.9462   -9.0451 C   0  0  0  0  0  0  0  0  0  0  0  0
  112.4065  -13.9748   -9.6503 O   0  0  0  0  0  0  0  0  0  0  0  0
  111.7031  -11.0593   -7.5011 C   0  0  0  0  0  0  0  0  0  0  0  0
  115.7789  -12.3620   -6.5710 C   0  0  0  0  0  0  0  0  0  0  0  0
  1  2  1  1
  1  3  1  0
  1  8  1  0
 16  2  1  1
  3  4  1  1
  3  5  1  0
  5  6  1  0
  7  6  1  0
  8  7  1  0
  7  9  1  6
  9 10  1  0
 11 12  1  6
 13 11  1  0
 11 19  1  0
 14 13  1  0
 14 15  1  1
 14 16  1  0
 16 17  1  0
 17 18  1  6
 17 19  1  0
 19 20  1  1
 21 20  1  1
 21 22  1  0
 21 29  1  0
 22 23  1  1
 22 24  1  0
 24 25  1  6
 24 26  1  0
 25 31  1  0
 26 27  1  0
 26 28  1  0
 26 30  1  1
 28 29  1  0
M  CHG  5   4   1  10   1  12   1  15   1  25   1
M  END
$$$$
