
     RDKit          3D

 31 33  0  0  0  0  0  0  0  0999 V2000
  111.3066  -12.5602   -9.2344 C   0  0  2  0  0  0  0  0  0  0  0  0
  112.0204  -13.6832   -8.8459 O   0  0  0  0  0  0  0  0  0  0  0  0
  111.4156  -12.4791  -10.7345 C   0  0  2  0  0  0  0  0  0  0  0  0
  112.7711  -12.9404  -11.0808 N   0  0  0  0  0  4  0  0  0  0  0  0
  111.2788  -11.0359  -11.1438 C   0  0  0  0  0  0  0  0  0  0  0  0
  110.3264  -10.3204  -10.2124 C   0  0  0  0  0  0  0  0  0  0  0  0
  110.8084  -10.3542   -8.7871 C   0  0  2  0  0  0  0  0  0  0  0  0
  111.7184  -11.4122   -8.6021 O   0  0  0  0  0  0  0  0  0  0  0  0
  109.7320  -10.4072   -7.7708 C   0  0  0  0  0  0  0  0  0  0  0  0
  110.1552  -10.1391   -6.4230 N   0  0  0  0  0  4  0  0  0  0  0  0
  112.2302  -15.0318   -4.9772 C   0  0  2  0  0  0  0  0  0  0  0  0
  111.9517  -13.8696   -4.1639 N   0  0  0  0  0  4  0  0  0  0  0  0
  113.4783  -14.8600   -5.7873 C   0  0  0  0  0  0  0  0  0  0  0  0
  113.1660  -14.9489   -7.2592 C   0  0  2  0  0  0  0  0  0  0  0  0
  114.2829  -14.6096   -8.0915 N   0  0  0  0  0  4  0  0  0  0  0  0
  112.0268  -13.9466   -7.4999 C   0  0  2  0  0  0  0  0  0  0  0  0
  110.7817  -14.6182   -6.9989 C   0  0  2  0  0  0  0  0  0  0  0  0
  109.7137  -13.7387   -6.8306 O   0  0  0  0  0  0  0  0  0  0  0  0
  111.0352  -15.4528   -5.7872 C   0  0  1  0  0  0  0  0  0  0  0  0
  111.1579  -16.8014   -6.0592 O   0  0  0  0  0  0  0  0  0  0  0  0
  111.3000  -17.5304   -4.8815 C   0  0  2  0  0  0  0  0  0  0  0  0
  110.2789  -18.6461   -4.8251 C   0  0  2  0  0  0  0  0  0  0  0  0
  110.6713  -19.7624   -5.5344 O   0  0  0  0  0  0  0  0  0  0  0  0
  108.9657  -18.0761   -5.3101 C   0  0  1  0  0  0  0  0  0  0  0  0
  107.9404  -19.0787   -5.1890 N   0  0  0  0  0  4  0  0  0  0  0  0
  108.6304  -16.9029   -4.3922 C   0  0  1  0  0  0  0  0  0  0  0  0
  108.2127  -17.4010   -3.1621 O   0  0  0  0  0  0  0  0  0  0  0  0
  109.8093  -15.9894   -4.2172 C   0  0  0  0  0  0  0  0  0  0  0  0
  110.9673  -16.6426   -3.8365 O   0  0  0  0  0  0  0  0  0  0  0  0
  107.5381  -16.1198   -5.0939 C   0  0  0  0  0  0  0  0  0  0  0  0
  108.5111  -20.4038   -5.3814 C   0  0  0  0  0  0  0  0  0  0  0  0
  1  2  1  1
  1  3  1  0
  1  8  1  0
 16  2  1  6
  3  4  1  1
  3  5  1  0
  5  6  1  0
  7  6  1  0
  8  7  1  0
  7  9  1  1
  9 10  1  0
 11 12  1  6
 13 11  1  0
 11 19  1  0
 14 13  1  0
 14 15  1  6
 14 16  1  0
 16 17  1  0
 17 18  1  1
 17 19  1  0
 19 20  1  6
 21 20  1  6
 21 22  1  0
 21 29  1  0
 22 23  1  6
 22 24  1  0
 24 25  1  1
 24 26  1  0
 25 31  1  0
 26 27  1  0
 26 28  1  0
 26 30  1  6
 28 29  1  0
M  CHG  5   4   1  10   1  12   1  15   1  25   1
M  END
$$$$
