
     RDKit          3D

 31 33  0  0  0  0  0  0  0  0999 V2000
  111.7725  -12.9920   -5.4917 C   0  0  2  0  0  0  0  0  0  0  0  0
  112.4521  -13.2055   -6.6808 O   0  0  0  0  0  0  0  0  0  0  0  0
  111.3847  -11.5366   -5.4734 C   0  0  2  0  0  0  0  0  0  0  0  0
  112.4912  -10.8009   -6.1093 N   0  0  0  0  0  4  0  0  0  0  0  0
  111.2727  -11.0924   -4.0385 C   0  0  0  0  0  0  0  0  0  0  0  0
  110.7651  -12.2300   -3.1812 C   0  0  0  0  0  0  0  0  0  0  0  0
  111.6870  -13.4186   -3.2278 C   0  0  2  0  0  0  0  0  0  0  0  0
  112.4898  -13.3716   -4.3833 O   0  0  0  0  0  0  0  0  0  0  0  0
  111.0104  -14.7315   -3.1147 C   0  0  0  0  0  0  0  0  0  0  0  0
  111.8421  -15.8700   -3.3967 N   0  0  0  0  0  4  0  0  0  0  0  0
  111.1244  -15.7843   -9.5819 C   0  0  2  0  0  0  0  0  0  0  0  0
  109.6904  -15.8338   -9.4059 N   0  0  0  0  0  4  0  0  0  0  0  0
  111.8525  -16.3061   -8.3815 C   0  0  0  0  0  0  0  0  0  0  0  0
  112.7338  -15.2337   -7.7940 C   0  0  2  0  0  0  0  0  0  0  0  0
  113.3149  -15.6100   -6.5386 N   0  0  0  0  0  4  0  0  0  0  0  0
  111.8199  -14.0159   -7.5890 C   0  0  2  0  0  0  0  0  0  0  0  0
  111.6502  -13.4015   -8.9477 C   0  0  2  0  0  0  0  0  0  0  0  0
  110.5953  -12.4928   -9.0111 O   0  0  0  0  0  0  0  0  0  0  0  0
  111.5910  -14.4271  -10.0310 C   0  0  1  0  0  0  0  0  0  0  0  0
  112.7847  -14.5885  -10.7069 O   0  0  0  0  0  0  0  0  0  0  0  0
  112.6739  -14.1325  -12.0179 C   0  0  2  0  0  0  0  0  0  0  0  0
  113.7284  -14.7769  -12.8916 C   0  0  2  0  0  0  0  0  0  0  0  0
  113.3641  -16.0351  -13.3244 O   0  0  0  0  0  0  0  0  0  0  0  0
  115.0200  -14.7791  -12.1065 C   0  0  1  0  0  0  0  0  0  0  0  0
  116.0759  -15.3020  -12.9328 N   0  0  0  0  0  4  0  0  0  0  0  0
  115.3272  -13.3237  -11.7621 C   0  0  1  0  0  0  0  0  0  0  0  0
  115.7693  -12.6747  -12.9107 O   0  0  0  0  0  0  0  0  0  0  0  0
  114.1228  -12.6284  -11.1955 C   0  0  0  0  0  0  0  0  0  0  0  0
  112.9880  -12.7576  -11.9752 O   0  0  0  0  0  0  0  0  0  0  0  0
  116.3899  -13.3633  -10.6814 C   0  0  0  0  0  0  0  0  0  0  0  0
  115.7394  -16.6440  -13.3849 C   0  0  0  0  0  0  0  0  0  0  0  0
  1  2  1  6
  1  3  1  0
  1  8  1  0
 16  2  1  1
  3  4  1  6
  3  5  1  0
  5  6  1  0
  7  6  1  0
  8  7  1  0
  7  9  1  6
  9 10  1  0
 11 12  1  1
 13 11  1  0
 11 19  1  0
 14 13  1  0
 14 15  1  1
 14 16  1  0
 16 17  1  0
 17 18  1  1
 17 19  1  0
 19 20  1  1
 21 20  1  1
 21 22  1  0
 21 29  1  0
 22 23  1  1
 22 24  1  0
 24 25  1  6
 24 26  1  0
 25 31  1  0
 26 27  1  0
 26 28  1  0
 26 30  1  1
 28 29  1  0
M  CHG  5   4   1  10   1  12   1  15   1  25   1
M  END
$$$$
