
     RDKit          3D

 31 33  0  0  0  0  0  0  0  0999 V2000
  107.4054  -13.5194  -10.4033 C   0  0  2  0  0  0  0  0  0  0  0  0
  108.6274  -13.1113   -9.8916 O   0  0  0  0  0  0  0  0  0  0  0  0
  107.4366  -13.2221  -11.8796 C   0  0  2  0  0  0  0  0  0  0  0  0
  108.1886  -11.9653  -12.0373 N   0  0  0  0  0  4  0  0  0  0  0  0
  106.0230  -12.9998  -12.3498 C   0  0  0  0  0  0  0  0  0  0  0  0
  105.0722  -13.8795  -11.5695 C   0  0  0  0  0  0  0  0  0  0  0  0
  105.1218  -13.5847  -10.0945 C   0  0  2  0  0  0  0  0  0  0  0  0
  106.3329  -12.9487   -9.7621 O   0  0  0  0  0  0  0  0  0  0  0  0
  104.8908  -14.7582   -9.2207 C   0  0  0  0  0  0  0  0  0  0  0  0
  103.8410  -14.5967   -8.2515 N   0  0  0  0  0  4  0  0  0  0  0  0
  110.6023  -15.0753   -6.8796 C   0  0  2  0  0  0  0  0  0  0  0  0
  109.9696  -16.3729   -6.8059 N   0  0  0  0  0  4  0  0  0  0  0  0
  109.6449  -13.9685   -6.5606 C   0  0  0  0  0  0  0  0  0  0  0  0
  109.5105  -13.0346   -7.7361 C   0  0  2  0  0  0  0  0  0  0  0  0
  108.4723  -12.0611   -7.5637 N   0  0  0  0  0  4  0  0  0  0  0  0
  109.1756  -13.9308   -8.9381 C   0  0  2  0  0  0  0  0  0  0  0  0
  110.4727  -14.5663   -9.3455 C   0  0  2  0  0  0  0  0  0  0  0  0
  110.3059  -15.6558  -10.1985 O   0  0  0  0  0  0  0  0  0  0  0  0
  111.3429  -14.8816   -8.1740 C   0  0  1  0  0  0  0  0  0  0  0  0
  112.3413  -13.9516   -7.9592 O   0  0  0  0  0  0  0  0  0  0  0  0
  113.4448  -14.5451   -7.3520 C   0  0  2  0  0  0  0  0  0  0  0  0
  114.5225  -13.5144   -7.0933 C   0  0  2  0  0  0  0  0  0  0  0  0
  114.3038  -12.7952   -5.9366 O   0  0  0  0  0  0  0  0  0  0  0  0
  114.6068  -12.6369   -8.3211 C   0  0  1  0  0  0  0  0  0  0  0  0
  115.6828  -11.6953   -8.1577 N   0  0  0  0  0  4  0  0  0  0  0  0
  114.9207  -13.5574   -9.4981 C   0  0  1  0  0  0  0  0  0  0  0  0
  116.2530  -13.9505   -9.4172 O   0  0  0  0  0  0  0  0  0  0  0  0
  114.0180  -14.7574   -9.5117 C   0  0  0  0  0  0  0  0  0  0  0  0
  113.9772  -15.4363   -8.3076 O   0  0  0  0  0  0  0  0  0  0  0  0
  114.6367  -12.7502  -10.7497 C   0  0  0  0  0  0  0  0  0  0  0  0
  116.7476  -12.2859   -7.3603 C   0  0  0  0  0  0  0  0  0  0  0  0
  1  2  1  1
  1  3  1  0
  1  8  1  0
 16  2  1  6
  3  4  1  1
  3  5  1  0
  5  6  1  0
  7  6  1  0
  8  7  1  0
  7  9  1  1
  9 10  1  0
 11 12  1  6
 13 11  1  0
 11 19  1  0
 14 13  1  0
 14 15  1  1
 14 16  1  0
 16 17  1  0
 17 18  1  1
 17 19  1  0
 19 20  1  1
 21 20  1  6
 21 22  1  0
 21 29  1  0
 22 23  1  1
 22 24  1  0
 24 25  1  1
 24 26  1  0
 25 31  1  0
 26 27  1  0
 26 28  1  0
 26 30  1  6
 28 29  1  0
M  CHG  5   4   1  10   1  12   1  15   1  25   1
M  END
$$$$
