
     RDKit          3D

 31 33  0  0  0  0  0  0  0  0999 V2000
  113.2606  -13.6690   -5.8910 C   0  0  2  0  0  0  0  0  0  0  0  0
  112.0441  -13.3755   -6.4873 O   0  0  0  0  0  0  0  0  0  0  0  0
  112.9675  -14.6244   -4.7640 C   0  0  2  0  0  0  0  0  0  0  0  0
  111.6754  -14.2105   -4.1902 N   0  0  0  0  0  4  0  0  0  0  0  0
  114.0349  -14.4625   -3.7136 C   0  0  0  0  0  0  0  0  0  0  0  0
  115.3574  -14.1264   -4.3654 C   0  0  0  0  0  0  0  0  0  0  0  0
  115.2829  -12.8455   -5.1518 C   0  0  2  0  0  0  0  0  0  0  0  0
  113.9469  -12.5509   -5.4838 O   0  0  0  0  0  0  0  0  0  0  0  0
  116.1413  -12.8092   -6.3584 C   0  0  0  0  0  0  0  0  0  0  0  0
  117.4004  -13.4915   -6.2290 N   0  0  0  0  0  4  0  0  0  0  0  0
  110.8748  -14.9008  -10.1116 C   0  0  2  0  0  0  0  0  0  0  0  0
  111.7095  -16.0640  -10.3110 N   0  0  0  0  0  4  0  0  0  0  0  0
  111.6808  -13.6400  -10.0459 C   0  0  0  0  0  0  0  0  0  0  0  0
  111.4894  -12.9627   -8.7130 C   0  0  2  0  0  0  0  0  0  0  0  0
  112.3737  -11.8516   -8.5159 N   0  0  0  0  0  4  0  0  0  0  0  0
  111.7805  -14.0404   -7.6577 C   0  0  2  0  0  0  0  0  0  0  0  0
  110.5550  -14.9054   -7.6108 C   0  0  2  0  0  0  0  0  0  0  0  0
  110.7644  -16.1189   -6.9583 O   0  0  0  0  0  0  0  0  0  0  0  0
  109.9293  -15.0765   -8.9556 C   0  0  1  0  0  0  0  0  0  0  0  0
  108.8388  -14.2557   -9.1677 O   0  0  0  0  0  0  0  0  0  0  0  0
  107.7137  -15.0070   -9.4969 C   0  0  2  0  0  0  0  0  0  0  0  0
  106.7520  -14.1819  -10.3246 C   0  0  2  0  0  0  0  0  0  0  0  0
  107.0920  -14.1509  -11.6611 O   0  0  0  0  0  0  0  0  0  0  0  0
  106.6939  -12.8052   -9.7032 C   0  0  1  0  0  0  0  0  0  0  0  0
  105.7209  -12.0096  -10.4044 N   0  0  0  0  0  4  0  0  0  0  0  0
  106.2390  -12.9944   -8.2580 C   0  0  1  0  0  0  0  0  0  0  0  0
  104.8808  -13.2961   -8.2512 O   0  0  0  0  0  0  0  0  0  0  0  0
  107.0222  -14.0779   -7.5742 C   0  0  0  0  0  0  0  0  0  0  0  0
  107.0548  -15.2686   -8.2769 O   0  0  0  0  0  0  0  0  0  0  0  0
  106.5393  -11.6883   -7.5491 C   0  0  0  0  0  0  0  0  0  0  0  0
  105.7262  -12.3461  -11.8205 C   0  0  0  0  0  0  0  0  0  0  0  0
  1  2  1  1
  1  3  1  0
  1  8  1  0
 16  2  1  1
  3  4  1  1
  3  5  1  0
  5  6  1  0
  7  6  1  0
  8  7  1  0
  7  9  1  6
  9 10  1  0
 11 12  1  1
 13 11  1  0
 11 19  1  0
 14 13  1  0
 14 15  1  1
 14 16  1  0
 16 17  1  0
 17 18  1  6
 17 19  1  0
 19 20  1  6
 21 20  1  1
 21 22  1  0
 21 29  1  0
 22 23  1  6
 22 24  1  0
 24 25  1  6
 24 26  1  0
 25 31  1  0
 26 27  1  0
 26 28  1  0
 26 30  1  1
 28 29  1  0
M  CHG  5   4   1  10   1  12   1  15   1  25   1
M  END
$$$$
