
     RDKit          3D

 31 33  0  0  0  0  0  0  0  0999 V2000
  112.8478  -12.8723   -7.4738 C   0  0  2  0  0  0  0  0  0  0  0  0
  111.6105  -13.4629   -7.6784 O   0  0  0  0  0  0  0  0  0  0  0  0
  112.7395  -11.4595   -7.9848 C   0  0  2  0  0  0  0  0  0  0  0  0
  111.8675  -11.5094   -9.1710 N   0  0  0  0  0  4  0  0  0  0  0  0
  114.1095  -11.0025   -8.4130 C   0  0  0  0  0  0  0  0  0  0  0  0
  115.1644  -11.6216   -7.5239 C   0  0  0  0  0  0  0  0  0  0  0  0
  115.1364  -13.1250   -7.5877 C   0  0  2  0  0  0  0  0  0  0  0  0
  113.8824  -13.5730   -8.0444 O   0  0  0  0  0  0  0  0  0  0  0  0
  115.5060  -13.8050   -6.3248 C   0  0  0  0  0  0  0  0  0  0  0  0
  115.6694  -12.9351   -5.1916 N   0  0  0  0  0  4  0  0  0  0  0  0
  110.4549  -16.9791   -5.9090 C   0  0  2  0  0  0  0  0  0  0  0  0
  111.3668  -17.1537   -4.8011 N   0  0  0  0  0  4  0  0  0  0  0  0
  111.1678  -16.9934   -7.2263 C   0  0  0  0  0  0  0  0  0  0  0  0
  110.9647  -15.6860   -7.9482 C   0  0  2  0  0  0  0  0  0  0  0  0
  111.7703  -15.5651   -9.1279 N   0  0  0  0  0  4  0  0  0  0  0  0
  111.3637  -14.5944   -6.9435 C   0  0  2  0  0  0  0  0  0  0  0  0
  110.2066  -14.4716   -5.9956 C   0  0  2  0  0  0  0  0  0  0  0  0
  110.5228  -13.7738   -4.8313 O   0  0  0  0  0  0  0  0  0  0  0  0
  109.5577  -15.7874   -5.7186 C   0  0  1  0  0  0  0  0  0  0  0  0
  108.4044  -16.0008   -6.4482 O   0  0  0  0  0  0  0  0  0  0  0  0
  107.3401  -16.3137   -5.6067 C   0  0  2  0  0  0  0  0  0  0  0  0
  106.1046  -16.6400   -6.4176 C   0  0  2  0  0  0  0  0  0  0  0  0
  106.0958  -17.9424   -6.8724 O   0  0  0  0  0  0  0  0  0  0  0  0
  106.0241  -15.6283   -7.5376 C   0  0  1  0  0  0  0  0  0  0  0  0
  104.8129  -15.8437   -8.2846 N   0  0  0  0  0  4  0  0  0  0  0  0
  105.9702  -14.2505   -6.8819 C   0  0  1  0  0  0  0  0  0  0  0  0
  104.7070  -14.0664   -6.3283 O   0  0  0  0  0  0  0  0  0  0  0  0
  107.0322  -14.1016   -5.8307 C   0  0  0  0  0  0  0  0  0  0  0  0
  107.0439  -15.1272   -4.9030 O   0  0  0  0  0  0  0  0  0  0  0  0
  106.2646  -13.2500   -7.9824 C   0  0  0  0  0  0  0  0  0  0  0  0
  104.9123  -17.0748   -9.0546 C   0  0  0  0  0  0  0  0  0  0  0  0
  1  2  1  6
  1  3  1  0
  1  8  1  0
 16  2  1  6
  3  4  1  6
  3  5  1  0
  5  6  1  0
  7  6  1  0
  8  7  1  0
  7  9  1  1
  9 10  1  0
 11 12  1  1
 13 11  1  0
 11 19  1  0
 14 13  1  0
 14 15  1  6
 14 16  1  0
 16 17  1  0
 17 18  1  1
 17 19  1  0
 19 20  1  6
 21 20  1  6
 21 22  1  0
 21 29  1  0
 22 23  1  6
 22 24  1  0
 24 25  1  1
 24 26  1  0
 25 31  1  0
 26 27  1  0
 26 28  1  0
 26 30  1  6
 28 29  1  0
M  CHG  5   4   1  10   1  12   1  15   1  25   1
M  END
$$$$
