
     RDKit          3D

 31 33  0  0  0  0  0  0  0  0999 V2000
  107.1034  -14.8802   -8.0077 C   0  0  2  0  0  0  0  0  0  0  0  0
  108.2838  -14.5118   -7.3812 O   0  0  0  0  0  0  0  0  0  0  0  0
  106.5435  -16.0378   -7.2233 C   0  0  2  0  0  0  0  0  0  0  0  0
  107.6975  -16.8346   -6.7724 N   0  0  0  0  0  4  0  0  0  0  0  0
  105.7087  -16.8813   -8.1509 C   0  0  0  0  0  0  0  0  0  0  0  0
  105.0318  -16.0052   -9.1810 C   0  0  0  0  0  0  0  0  0  0  0  0
  106.0312  -15.2496  -10.0148 C   0  0  2  0  0  0  0  0  0  0  0  0
  107.2649  -15.1626   -9.3423 O   0  0  0  0  0  0  0  0  0  0  0  0
  105.5812  -13.9092  -10.4565 C   0  0  0  0  0  0  0  0  0  0  0  0
  105.7873  -13.6283  -11.8515 N   0  0  0  0  0  4  0  0  0  0  0  0
  110.7805  -11.7458   -9.0975 C   0  0  2  0  0  0  0  0  0  0  0  0
  109.9300  -10.6173   -9.4020 N   0  0  0  0  0  4  0  0  0  0  0  0
  110.3741  -12.9718   -9.8560 C   0  0  0  0  0  0  0  0  0  0  0  0
  109.9936  -14.0768   -8.9041 C   0  0  2  0  0  0  0  0  0  0  0  0
  109.4200  -15.2131   -9.5637 N   0  0  0  0  0  4  0  0  0  0  0  0
  108.9565  -13.4617   -7.9522 C   0  0  2  0  0  0  0  0  0  0  0  0
  109.7405  -12.6313   -6.9784 C   0  0  2  0  0  0  0  0  0  0  0  0
  108.9489  -11.7418   -6.2540 O   0  0  0  0  0  0  0  0  0  0  0  0
  110.9155  -11.9668   -7.6162 C   0  0  1  0  0  0  0  0  0  0  0  0
  112.1115  -12.6194   -7.3894 O   0  0  0  0  0  0  0  0  0  0  0  0
  113.0624  -11.7408   -6.8768 C   0  0  2  0  0  0  0  0  0  0  0  0
  114.4512  -12.3258   -7.0170 C   0  0  2  0  0  0  0  0  0  0  0  0
  114.9854  -12.1318   -8.2740 O   0  0  0  0  0  0  0  0  0  0  0  0
  114.3621  -13.7862   -6.6378 C   0  0  1  0  0  0  0  0  0  0  0  0
  115.6794  -14.3652   -6.6692 N   0  0  0  0  0  4  0  0  0  0  0  0
  113.8262  -13.8371   -5.2090 C   0  0  1  0  0  0  0  0  0  0  0  0
  114.8368  -13.4448   -4.3367 O   0  0  0  0  0  0  0  0  0  0  0  0
  112.6190  -12.9592   -5.0446 C   0  0  0  0  0  0  0  0  0  0  0  0
  112.8084  -11.6641   -5.4910 O   0  0  0  0  0  0  0  0  0  0  0  0
  113.3916  -15.2706   -4.9745 C   0  0  0  0  0  0  0  0  0  0  0  0
  115.9783  -14.8560   -8.0065 C   0  0  0  0  0  0  0  0  0  0  0  0
  1  2  1  1
  1  3  1  0
  1  8  1  0
 16  2  1  1
  3  4  1  6
  3  5  1  0
  5  6  1  0
  7  6  1  0
  8  7  1  0
  7  9  1  1
  9 10  1  0
 11 12  1  1
 13 11  1  0
 11 19  1  0
 14 13  1  0
 14 15  1  6
 14 16  1  0
 16 17  1  0
 17 18  1  6
 17 19  1  0
 19 20  1  6
 21 20  1  6
 21 22  1  0
 21 29  1  0
 22 23  1  6
 22 24  1  0
 24 25  1  1
 24 26  1  0
 25 31  1  0
 26 27  1  0
 26 28  1  0
 26 30  1  1
 28 29  1  0
M  CHG  5   4   1  10   1  12   1  15   1  25   1
M  END
$$$$
