
     RDKit          3D

 31 33  0  0  0  0  0  0  0  0999 V2000
  112.7916  -13.1358   -6.9102 C   0  0  2  0  0  0  0  0  0  0  0  0
  111.5142  -12.6152   -7.0471 O   0  0  0  0  0  0  0  0  0  0  0  0
  112.9538  -13.5006   -5.4578 C   0  0  2  0  0  0  0  0  0  0  0  0
  112.2315  -12.4749   -4.6858 N   0  0  0  0  0  4  0  0  0  0  0  0
  114.4172  -13.4243   -5.1090 C   0  0  0  0  0  0  0  0  0  0  0  0
  115.2563  -13.8326   -6.2989 C   0  0  0  0  0  0  0  0  0  0  0  0
  115.0153  -12.9385   -7.4853 C   0  0  2  0  0  0  0  0  0  0  0  0
  113.7725  -12.2883   -7.3649 O   0  0  0  0  0  0  0  0  0  0  0  0
  115.1280  -13.6111   -8.8002 C   0  0  0  0  0  0  0  0  0  0  0  0
  116.4722  -13.7873   -9.2794 N   0  0  0  0  0  4  0  0  0  0  0  0
  109.5498  -12.2362  -10.6286 C   0  0  2  0  0  0  0  0  0  0  0  0
  110.4904  -12.7094  -11.6191 N   0  0  0  0  0  4  0  0  0  0  0  0
  110.0573  -11.0228   -9.9119 C   0  0  0  0  0  0  0  0  0  0  0  0
  110.1833  -11.2987   -8.4355 C   0  0  2  0  0  0  0  0  0  0  0  0
  110.8368  -10.2417   -7.7206 N   0  0  0  0  0  4  0  0  0  0  0  0
  111.0201  -12.5824   -8.3262 C   0  0  2  0  0  0  0  0  0  0  0  0
  110.0826  -13.7081   -8.6522 C   0  0  2  0  0  0  0  0  0  0  0  0
  110.7387  -14.9066   -8.9270 O   0  0  0  0  0  0  0  0  0  0  0  0
  109.0965  -13.3371   -9.7101 C   0  0  1  0  0  0  0  0  0  0  0  0
  107.8541  -12.9940   -9.2135 O   0  0  0  0  0  0  0  0  0  0  0  0
  106.8507  -13.7146   -9.8559 C   0  0  2  0  0  0  0  0  0  0  0  0
  105.5656  -13.6554   -9.0587 C   0  0  2  0  0  0  0  0  0  0  0  0
  104.8493  -12.4993   -9.2898 O   0  0  0  0  0  0  0  0  0  0  0  0
  105.9328  -13.8356   -7.6036 C   0  0  1  0  0  0  0  0  0  0  0  0
  104.7308  -13.8767   -6.8132 N   0  0  0  0  0  4  0  0  0  0  0  0
  106.6503  -15.1789   -7.4948 C   0  0  1  0  0  0  0  0  0  0  0  0
  105.7120  -16.1995   -7.6126 O   0  0  0  0  0  0  0  0  0  0  0  0
  107.7145  -15.3188   -8.5450 C   0  0  0  0  0  0  0  0  0  0  0  0
  107.2666  -15.0625   -9.8281 O   0  0  0  0  0  0  0  0  0  0  0  0
  107.3328  -15.1818   -6.1409 C   0  0  0  0  0  0  0  0  0  0  0  0
  103.8126  -12.8328   -7.2443 C   0  0  0  0  0  0  0  0  0  0  0  0
  1  2  1  1
  1  3  1  0
  1  8  1  0
 16  2  1  1
  3  4  1  1
  3  5  1  0
  5  6  1  0
  7  6  1  0
  8  7  1  0
  7  9  1  6
  9 10  1  0
 11 12  1  6
 13 11  1  0
 11 19  1  0
 14 13  1  0
 14 15  1  1
 14 16  1  0
 16 17  1  0
 17 18  1  6
 17 19  1  0
 19 20  1  1
 21 20  1  1
 21 22  1  0
 21 29  1  0
 22 23  1  1
 22 24  1  0
 24 25  1  1
 24 26  1  0
 25 31  1  0
 26 27  1  0
 26 28  1  0
 26 30  1  1
 28 29  1  0
M  CHG  5   4   1  10   1  12   1  15   1  25   1
M  END
$$$$
