
     RDKit          3D

 31 33  0  0  0  0  0  0  0  0999 V2000
  107.0469  -16.5696   -5.7477 C   0  0  2  0  0  0  0  0  0  0  0  0
  108.1827  -15.9849   -5.2095 O   0  0  0  0  0  0  0  0  0  0  0  0
  106.5723  -15.6551   -6.8465 C   0  0  2  0  0  0  0  0  0  0  0  0
  106.8377  -14.2799   -6.3900 N   0  0  0  0  0  4  0  0  0  0  0  0
  105.0846  -15.8320   -7.0029 C   0  0  0  0  0  0  0  0  0  0  0  0
  104.6997  -17.2661   -6.7167 C   0  0  0  0  0  0  0  0  0  0  0  0
  105.0704  -17.6750   -5.3166 C   0  0  2  0  0  0  0  0  0  0  0  0
  106.0779  -16.8322   -4.8101 O   0  0  0  0  0  0  0  0  0  0  0  0
  105.4561  -19.0975   -5.1689 C   0  0  0  0  0  0  0  0  0  0  0  0
  105.4827  -19.5825   -3.8155 N   0  0  0  0  0  4  0  0  0  0  0  0
  112.0094  -16.9311   -6.3456 C   0  0  2  0  0  0  0  0  0  0  0  0
  111.8949  -18.2144   -7.0011 N   0  0  0  0  0  4  0  0  0  0  0  0
  111.6085  -17.0028   -4.9042 C   0  0  0  0  0  0  0  0  0  0  0  0
  110.4397  -16.0892   -4.6376 C   0  0  2  0  0  0  0  0  0  0  0  0
  109.8907  -16.2492   -3.3229 N   0  0  0  0  0  4  0  0  0  0  0  0
  109.3780  -16.4627   -5.6832 C   0  0  2  0  0  0  0  0  0  0  0  0
  109.8292  -15.8274   -6.9658 C   0  0  2  0  0  0  0  0  0  0  0  0
  109.1733  -16.3307   -8.0878 O   0  0  0  0  0  0  0  0  0  0  0  0
  111.3147  -15.8412   -7.1142 C   0  0  1  0  0  0  0  0  0  0  0  0
  111.9151  -14.6406   -6.7890 O   0  0  0  0  0  0  0  0  0  0  0  0
  113.1599  -14.5302   -7.4031 C   0  0  2  0  0  0  0  0  0  0  0  0
  113.8403  -13.2433   -6.9889 C   0  0  2  0  0  0  0  0  0  0  0  0
  114.4782  -13.3475   -5.7701 O   0  0  0  0  0  0  0  0  0  0  0  0
  112.7911  -12.1555   -7.0094 C   0  0  1  0  0  0  0  0  0  0  0  0
  113.4121  -10.8924   -6.7087 N   0  0  0  0  0  4  0  0  0  0  0  0
  112.2302  -12.1129   -8.4288 C   0  0  1  0  0  0  0  0  0  0  0  0
  113.1730  -11.5247   -9.2662 O   0  0  0  0  0  0  0  0  0  0  0  0
  111.8752  -13.4870   -8.9195 C   0  0  0  0  0  0  0  0  0  0  0  0
  112.8985  -14.4074   -8.7841 O   0  0  0  0  0  0  0  0  0  0  0  0
  110.9501  -11.3043   -8.3502 C   0  0  0  0  0  0  0  0  0  0  0  0
  114.4754  -11.0776   -5.7322 C   0  0  0  0  0  0  0  0  0  0  0  0
  1  2  1  1
  1  3  1  0
  1  8  1  0
 16  2  1  1
  3  4  1  1
  3  5  1  0
  5  6  1  0
  7  6  1  0
  8  7  1  0
  7  9  1  6
  9 10  1  0
 11 12  1  6
 13 11  1  0
 11 19  1  0
 14 13  1  0
 14 15  1  1
 14 16  1  0
 16 17  1  0
 17 18  1  6
 17 19  1  0
 19 20  1  1
 21 20  1  1
 21 22  1  0
 21 29  1  0
 22 23  1  1
 22 24  1  0
 24 25  1  6
 24 26  1  0
 25 31  1  0
 26 27  1  0
 26 28  1  0
 26 30  1  1
 28 29  1  0
M  CHG  5   4   1  10   1  12   1  15   1  25   1
M  END
$$$$
