
     RDKit          3D

 31 33  0  0  0  0  0  0  0  0999 V2000
  108.1056  -15.8660   -8.3970 C   0  0  2  0  0  0  0  0  0  0  0  0
  108.8356  -14.9763   -7.6242 O   0  0  0  0  0  0  0  0  0  0  0  0
  108.3478  -17.2360   -7.8198 C   0  0  2  0  0  0  0  0  0  0  0  0
  109.7505  -17.2585   -7.3705 N   0  0  0  0  0  4  0  0  0  0  0  0
  108.1778  -18.2519   -8.9188 C   0  0  0  0  0  0  0  0  0  0  0  0
  107.1096  -17.7952   -9.8868 C   0  0  0  0  0  0  0  0  0  0  0  0
  107.4597  -16.4774  -10.5238 C   0  0  2  0  0  0  0  0  0  0  0  0
  108.4002  -15.7867   -9.7365 O   0  0  0  0  0  0  0  0  0  0  0  0
  106.2984  -15.6107  -10.8312 C   0  0  0  0  0  0  0  0  0  0  0  0
  105.9707  -15.5066  -12.2274 N   0  0  0  0  0  4  0  0  0  0  0  0
  111.0656  -12.1815   -9.6356 C   0  0  2  0  0  0  0  0  0  0  0  0
  110.1167  -11.1656  -10.0322 N   0  0  0  0  0  4  0  0  0  0  0  0
  110.7628  -13.5053  -10.2676 C   0  0  0  0  0  0  0  0  0  0  0  0
  110.4886  -14.5427   -9.2090 C   0  0  2  0  0  0  0  0  0  0  0  0
  110.0121  -15.7826   -9.7484 N   0  0  0  0  0  4  0  0  0  0  0  0
  109.4088  -13.9314   -8.3032 C   0  0  2  0  0  0  0  0  0  0  0  0
  110.1241  -12.9464   -7.4254 C   0  0  2  0  0  0  0  0  0  0  0  0
  109.2630  -12.0636   -6.7761 O   0  0  0  0  0  0  0  0  0  0  0  0
  111.2310  -12.2466   -8.1424 C   0  0  1  0  0  0  0  0  0  0  0  0
  112.4816  -12.7680   -7.8740 O   0  0  0  0  0  0  0  0  0  0  0  0
  113.4229  -11.7497   -7.7478 C   0  0  2  0  0  0  0  0  0  0  0  0
  114.8224  -12.3254   -7.7196 C   0  0  2  0  0  0  0  0  0  0  0  0
  115.3140  -12.5900   -8.9811 O   0  0  0  0  0  0  0  0  0  0  0  0
  114.7842  -13.5519   -6.8370 C   0  0  1  0  0  0  0  0  0  0  0  0
  116.1152  -14.0837   -6.7069 N   0  0  0  0  0  4  0  0  0  0  0  0
  114.2921  -13.0919   -5.4668 C   0  0  1  0  0  0  0  0  0  0  0  0
  115.3168  -12.3966   -4.8324 O   0  0  0  0  0  0  0  0  0  0  0  0
  113.0668  -12.2317   -5.5847 C   0  0  0  0  0  0  0  0  0  0  0  0
  113.2077  -11.1821   -6.4741 O   0  0  0  0  0  0  0  0  0  0  0  0
  113.9036  -14.3506   -4.7161 C   0  0  0  0  0  0  0  0  0  0  0  0
  116.8639  -13.8643   -7.9356 C   0  0  0  0  0  0  0  0  0  0  0  0
  1  2  1  1
  1  3  1  0
  1  8  1  0
 16  2  1  1
  3  4  1  6
  3  5  1  0
  5  6  1  0
  7  6  1  0
  8  7  1  0
  7  9  1  1
  9 10  1  0
 11 12  1  1
 13 11  1  0
 11 19  1  0
 14 13  1  0
 14 15  1  6
 14 16  1  0
 16 17  1  0
 17 18  1  6
 17 19  1  0
 19 20  1  6
 21 20  1  1
 21 22  1  0
 21 29  1  0
 22 23  1  6
 22 24  1  0
 24 25  1  1
 24 26  1  0
 25 31  1  0
 26 27  1  0
 26 28  1  0
 26 30  1  1
 28 29  1  0
M  CHG  5   4   1  10   1  12   1  15   1  25   1
M  END
$$$$
