
     RDKit          3D

 31 33  0  0  0  0  0  0  0  0999 V2000
  114.0971  -13.2428   -6.8810 C   0  0  2  0  0  0  0  0  0  0  0  0
  113.2152  -14.1657   -6.3406 O   0  0  0  0  0  0  0  0  0  0  0  0
  115.4817  -13.7981   -6.6723 C   0  0  2  0  0  0  0  0  0  0  0  0
  115.4655  -14.4829   -5.3682 N   0  0  0  0  0  4  0  0  0  0  0  0
  116.4498  -12.6464   -6.5994 C   0  0  0  0  0  0  0  0  0  0  0  0
  115.9934  -11.5266   -7.5075 C   0  0  0  0  0  0  0  0  0  0  0  0
  114.6326  -11.0134   -7.1206 C   0  0  2  0  0  0  0  0  0  0  0  0
  113.9408  -11.9792   -6.3654 O   0  0  0  0  0  0  0  0  0  0  0  0
  113.8028  -10.5440   -8.2543 C   0  0  0  0  0  0  0  0  0  0  0  0
  112.5339   -9.9775   -7.8848 N   0  0  0  0  0  4  0  0  0  0  0  0
  109.8527  -15.4144   -8.3317 C   0  0  2  0  0  0  0  0  0  0  0  0
  110.2334  -15.4339   -9.7261 N   0  0  0  0  0  4  0  0  0  0  0  0
  109.9211  -14.0343   -7.7537 C   0  0  0  0  0  0  0  0  0  0  0  0
  110.9074  -13.9895   -6.6149 C   0  0  2  0  0  0  0  0  0  0  0  0
  111.1564  -12.6600   -6.1398 N   0  0  0  0  0  4  0  0  0  0  0  0
  112.2091  -14.5841   -7.1737 C   0  0  2  0  0  0  0  0  0  0  0  0
  112.0029  -16.0706   -7.1904 C   0  0  2  0  0  0  0  0  0  0  0  0
  112.9407  -16.7459   -7.9694 O   0  0  0  0  0  0  0  0  0  0  0  0
  110.5979  -16.4449   -7.5292 C   0  0  1  0  0  0  0  0  0  0  0  0
  109.8289  -16.7654   -6.4274 O   0  0  0  0  0  0  0  0  0  0  0  0
  109.3764  -18.0798   -6.5083 C   0  0  2  0  0  0  0  0  0  0  0  0
  107.9486  -18.1774   -6.0157 C   0  0  2  0  0  0  0  0  0  0  0  0
  107.0279  -17.8269   -6.9813 O   0  0  0  0  0  0  0  0  0  0  0  0
  107.8451  -17.3255   -4.7714 C   0  0  1  0  0  0  0  0  0  0  0  0
  106.5248  -17.4589   -4.2143 N   0  0  0  0  0  4  0  0  0  0  0  0
  108.8662  -17.8738   -3.7775 C   0  0  1  0  0  0  0  0  0  0  0  0
  108.3898  -19.0750   -3.2616 O   0  0  0  0  0  0  0  0  0  0  0  0
  110.2072  -18.0734   -4.4231 C   0  0  0  0  0  0  0  0  0  0  0  0
  110.1577  -18.8132   -5.5905 O   0  0  0  0  0  0  0  0  0  0  0  0
  109.0215  -16.8119   -2.7065 C   0  0  0  0  0  0  0  0  0  0  0  0
  105.5996  -16.5700   -4.9017 C   0  0  0  0  0  0  0  0  0  0  0  0
  1  2  1  1
  1  3  1  0
  1  8  1  0
 16  2  1  1
  3  4  1  1
  3  5  1  0
  5  6  1  0
  7  6  1  0
  8  7  1  0
  7  9  1  6
  9 10  1  0
 11 12  1  6
 13 11  1  0
 11 19  1  0
 14 13  1  0
 14 15  1  6
 14 16  1  0
 16 17  1  0
 17 18  1  6
 17 19  1  0
 19 20  1  1
 21 20  1  1
 21 22  1  0
 21 29  1  0
 22 23  1  6
 22 24  1  0
 24 25  1  1
 24 26  1  0
 25 31  1  0
 26 27  1  0
 26 28  1  0
 26 30  1  1
 28 29  1  0
M  CHG  5   4   1  10   1  12   1  15   1  25   1
M  END
$$$$
