
     RDKit          3D

 31 33  0  0  0  0  0  0  0  0999 V2000
  111.7914  -12.4792   -7.7987 C   0  0  2  0  0  0  0  0  0  0  0  0
  111.4038  -13.3290   -6.7745 O   0  0  0  0  0  0  0  0  0  0  0  0
  112.7573  -11.4927   -7.1965 C   0  0  2  0  0  0  0  0  0  0  0  0
  112.2777  -11.2182   -5.8310 N   0  0  0  0  0  4  0  0  0  0  0  0
  112.6938  -10.2170   -7.9949 C   0  0  0  0  0  0  0  0  0  0  0  0
  112.4250  -10.5284   -9.4500 C   0  0  0  0  0  0  0  0  0  0  0  0
  111.1203  -11.2557   -9.6337 C   0  0  2  0  0  0  0  0  0  0  0  0
  110.7315  -11.8765   -8.4316 O   0  0  0  0  0  0  0  0  0  0  0  0
  111.1052  -12.2269  -10.7520 C   0  0  0  0  0  0  0  0  0  0  0  0
  109.9987  -12.0907  -11.6602 N   0  0  0  0  0  4  0  0  0  0  0  0
  111.1067  -17.3677   -7.4311 C   0  0  2  0  0  0  0  0  0  0  0  0
  112.3838  -17.7470   -7.9920 N   0  0  0  0  0  4  0  0  0  0  0  0
  110.3748  -16.4021   -8.3117 C   0  0  0  0  0  0  0  0  0  0  0  0
  110.1302  -15.1063   -7.5818 C   0  0  2  0  0  0  0  0  0  0  0  0
  109.5996  -14.0772   -8.4273 N   0  0  0  0  0  4  0  0  0  0  0  0
  111.5023  -14.6699   -7.0460 C   0  0  2  0  0  0  0  0  0  0  0  0
  111.7582  -15.5244   -5.8391 C   0  0  2  0  0  0  0  0  0  0  0  0
  113.0881  -15.5020   -5.4228 O   0  0  0  0  0  0  0  0  0  0  0  0
  111.2308  -16.9115   -6.0036 C   0  0  1  0  0  0  0  0  0  0  0  0
  110.0149  -17.1192   -5.3820 O   0  0  0  0  0  0  0  0  0  0  0  0
  110.1805  -17.8485   -4.2075 C   0  0  2  0  0  0  0  0  0  0  0  0
  109.2519  -19.0435   -4.1932 C   0  0  2  0  0  0  0  0  0  0  0  0
  109.7543  -20.1158   -4.9008 O   0  0  0  0  0  0  0  0  0  0  0  0
  107.9118  -18.5754   -4.7127 C   0  0  1  0  0  0  0  0  0  0  0  0
  106.9679  -19.6589   -4.6327 N   0  0  0  0  0  4  0  0  0  0  0  0
  107.4555  -17.4443   -3.7943 C   0  0  1  0  0  0  0  0  0  0  0  0
  107.0431  -17.9893   -2.5823 O   0  0  0  0  0  0  0  0  0  0  0  0
  108.5508  -16.4408   -3.5744 C   0  0  0  0  0  0  0  0  0  0  0  0
  109.7461  -17.0031   -3.1648 O   0  0  0  0  0  0  0  0  0  0  0  0
  106.3247  -16.7434   -4.5215 C   0  0  0  0  0  0  0  0  0  0  0  0
  106.9233  -20.3779   -5.8974 C   0  0  0  0  0  0  0  0  0  0  0  0
  1  2  1  1
  1  3  1  0
  1  8  1  0
 16  2  1  1
  3  4  1  1
  3  5  1  0
  5  6  1  0
  7  6  1  0
  8  7  1  0
  7  9  1  6
  9 10  1  0
 11 12  1  6
 13 11  1  0
 11 19  1  0
 14 13  1  0
 14 15  1  6
 14 16  1  0
 16 17  1  0
 17 18  1  6
 17 19  1  0
 19 20  1  6
 21 20  1  6
 21 22  1  0
 21 29  1  0
 22 23  1  6
 22 24  1  0
 24 25  1  1
 24 26  1  0
 25 31  1  0
 26 27  1  0
 26 28  1  0
 26 30  1  6
 28 29  1  0
M  CHG  5   4   1  10   1  12   1  15   1  25   1
M  END
$$$$
