
     RDKit          3D

 31 33  0  0  0  0  0  0  0  0999 V2000
  112.5336  -13.4620   -6.5048 C   0  0  2  0  0  0  0  0  0  0  0  0
  111.3132  -14.0140   -6.8620 O   0  0  0  0  0  0  0  0  0  0  0  0
  112.3649  -11.9666   -6.5713 C   0  0  2  0  0  0  0  0  0  0  0  0
  111.4687  -11.6970   -7.7089 N   0  0  0  0  0  4  0  0  0  0  0  0
  113.7081  -11.3489   -6.8595 C   0  0  0  0  0  0  0  0  0  0  0  0
  114.8037  -12.1615   -6.2066 C   0  0  0  0  0  0  0  0  0  0  0  0
  114.8264  -13.5780   -6.7142 C   0  0  2  0  0  0  0  0  0  0  0  0
  113.5788  -13.9200   -7.2695 O   0  0  0  0  0  0  0  0  0  0  0  0
  115.2477  -14.5869   -5.7149 C   0  0  0  0  0  0  0  0  0  0  0  0
  114.1740  -15.3253   -5.1071 N   0  0  0  0  0  4  0  0  0  0  0  0
  110.5610  -18.0442   -7.0079 C   0  0  2  0  0  0  0  0  0  0  0  0
  111.8599  -18.6681   -6.8929 N   0  0  0  0  0  4  0  0  0  0  0  0
  110.4508  -17.2087   -8.2461 C   0  0  0  0  0  0  0  0  0  0  0  0
  110.1756  -15.7709   -7.8873 C   0  0  2  0  0  0  0  0  0  0  0  0
  110.2424  -14.8881   -9.0150 N   0  0  0  0  0  4  0  0  0  0  0  0
  111.2614  -15.3846   -6.8715 C   0  0  2  0  0  0  0  0  0  0  0  0
  110.8336  -15.9928   -5.5678 C   0  0  2  0  0  0  0  0  0  0  0  0
  111.8534  -16.0292   -4.6185 O   0  0  0  0  0  0  0  0  0  0  0  0
  110.1708  -17.3181   -5.7502 C   0  0  1  0  0  0  0  0  0  0  0  0
  108.7916  -17.2589   -5.7022 O   0  0  0  0  0  0  0  0  0  0  0  0
  108.2574  -18.4969   -5.3546 C   0  0  2  0  0  0  0  0  0  0  0  0
  106.8188  -18.5985   -5.8137 C   0  0  2  0  0  0  0  0  0  0  0  0
  106.7085  -18.9516   -7.1427 O   0  0  0  0  0  0  0  0  0  0  0  0
  106.1551  -17.2768   -5.5021 C   0  0  1  0  0  0  0  0  0  0  0  0
  104.7583  -17.3567   -5.8396 N   0  0  0  0  0  4  0  0  0  0  0  0
  106.2954  -17.0587   -3.9974 C   0  0  1  0  0  0  0  0  0  0  0  0
  105.4137  -17.9085   -3.3369 O   0  0  0  0  0  0  0  0  0  0  0  0
  107.7042  -17.3013   -3.5373 C   0  0  0  0  0  0  0  0  0  0  0  0
  108.2204  -18.5180   -3.9443 O   0  0  0  0  0  0  0  0  0  0  0  0
  105.9738  -15.5973   -3.7533 C   0  0  0  0  0  0  0  0  0  0  0  0
  104.5049  -18.5437   -6.6429 C   0  0  0  0  0  0  0  0  0  0  0  0
  1  2  1  6
  1  3  1  0
  1  8  1  0
 16  2  1  1
  3  4  1  6
  3  5  1  0
  5  6  1  0
  7  6  1  0
  8  7  1  0
  7  9  1  1
  9 10  1  0
 11 12  1  1
 13 11  1  0
 11 19  1  0
 14 13  1  0
 14 15  1  6
 14 16  1  0
 16 17  1  0
 17 18  1  1
 17 19  1  0
 19 20  1  6
 21 20  1  1
 21 22  1  0
 21 29  1  0
 22 23  1  6
 22 24  1  0
 24 25  1  1
 24 26  1  0
 25 31  1  0
 26 27  1  0
 26 28  1  0
 26 30  1  6
 28 29  1  0
M  CHG  5   4   1  10   1  12   1  15   1  25   1
M  END
$$$$
