
     RDKit          3D

 31 33  0  0  0  0  0  0  0  0999 V2000
  107.1094  -13.8056   -9.8016 C   0  0  2  0  0  0  0  0  0  0  0  0
  108.4790  -13.9949   -9.7027 O   0  0  0  0  0  0  0  0  0  0  0  0
  106.4727  -14.7465   -8.8125 C   0  0  2  0  0  0  0  0  0  0  0  0
  107.2899  -15.9721   -8.8155 N   0  0  0  0  0  4  0  0  0  0  0  0
  105.0903  -15.0882   -9.3034 C   0  0  0  0  0  0  0  0  0  0  0  0
  104.4873  -13.9027  -10.0228 C   0  0  0  0  0  0  0  0  0  0  0  0
  105.3131  -13.4921  -11.2121 C   0  0  2  0  0  0  0  0  0  0  0  0
  106.6323  -13.9652  -11.0799 O   0  0  0  0  0  0  0  0  0  0  0  0
  105.3054  -12.0389  -11.4989 C   0  0  0  0  0  0  0  0  0  0  0  0
  103.9993  -11.4543  -11.6397 N   0  0  0  0  0  4  0  0  0  0  0  0
  110.8834  -11.6723   -7.3249 C   0  0  2  0  0  0  0  0  0  0  0  0
  110.0233  -11.2249   -6.2526 N   0  0  0  0  0  4  0  0  0  0  0  0
  110.4227  -11.1674   -8.6576 C   0  0  0  0  0  0  0  0  0  0  0  0
  110.0944  -12.3200   -9.5716 C   0  0  2  0  0  0  0  0  0  0  0  0
  109.4736  -11.9064  -10.7959 N   0  0  0  0  0  4  0  0  0  0  0  0
  109.1222  -13.2088   -8.7810 C   0  0  2  0  0  0  0  0  0  0  0  0
  109.9703  -13.9725   -7.8064 C   0  0  2  0  0  0  0  0  0  0  0  0
  109.2310  -14.5746   -6.7899 O   0  0  0  0  0  0  0  0  0  0  0  0
  111.1081  -13.1587   -7.2847 C   0  0  1  0  0  0  0  0  0  0  0  0
  112.3115  -13.4252   -7.9081 O   0  0  0  0  0  0  0  0  0  0  0  0
  112.9260  -14.5369   -7.3377 C   0  0  2  0  0  0  0  0  0  0  0  0
  114.0632  -14.1066   -6.4364 C   0  0  2  0  0  0  0  0  0  0  0  0
  113.6334  -13.7305   -5.1807 O   0  0  0  0  0  0  0  0  0  0  0  0
  114.8107  -13.0057   -7.1534 C   0  0  1  0  0  0  0  0  0  0  0  0
  115.9580  -12.6253   -6.3722 N   0  0  0  0  0  4  0  0  0  0  0  0
  115.2812  -13.5886   -8.4839 C   0  0  1  0  0  0  0  0  0  0  0  0
  116.3432  -14.4549   -8.2435 O   0  0  0  0  0  0  0  0  0  0  0  0
  114.1680  -14.3049   -9.1929 C   0  0  0  0  0  0  0  0  0  0  0  0
  113.5193  -15.2401   -8.4073 O   0  0  0  0  0  0  0  0  0  0  0  0
  115.6894  -12.4055   -9.3396 C   0  0  0  0  0  0  0  0  0  0  0  0
  115.6439  -11.4619   -5.5559 C   0  0  0  0  0  0  0  0  0  0  0  0
  1  2  1  6
  1  3  1  0
  1  8  1  0
 16  2  1  6
  3  4  1  6
  3  5  1  0
  5  6  1  0
  7  6  1  0
  8  7  1  0
  7  9  1  1
  9 10  1  0
 11 12  1  1
 13 11  1  0
 11 19  1  0
 14 13  1  0
 14 15  1  6
 14 16  1  0
 16 17  1  0
 17 18  1  1
 17 19  1  0
 19 20  1  6
 21 20  1  6
 21 22  1  0
 21 29  1  0
 22 23  1  1
 22 24  1  0
 24 25  1  1
 24 26  1  0
 25 31  1  0
 26 27  1  0
 26 28  1  0
 26 30  1  6
 28 29  1  0
M  CHG  5   4   1  10   1  12   1  15   1  25   1
M  END
$$$$
