
     RDKit          3D

 30 32  0  0  0  0  0  0  0  0999 V2000
   17.1860   38.6427   -9.0556 C   0  0  1  0  0  0  0  0  0  0  0  0
   18.5879   38.8629   -8.5456 C   0  0  0  0  0  0  0  0  0  0  0  0
   18.9341   39.8955   -7.7301 C   0  0  0  0  0  0  0  0  0  0  0  0
   20.2405   40.0309   -7.3035 C   0  0  0  0  0  0  0  0  0  0  0  0
   21.4185   40.8114   -5.2563 C   0  0  0  0  0  0  0  0  0  0  0  0
   21.0406   41.3707   -3.9681 C   0  0  0  0  0  0  0  0  0  0  0  0
   19.4893   41.7776   -2.2457 C   0  0  0  0  0  0  0  0  0  0  0  0
   19.8164   41.2478   -3.4464 N   0  0  0  0  0  0  0  0  0  0  0  0
   21.7117   42.6119   -2.0400 N   0  0  0  0  0  0  0  0  0  0  0  0
   22.4145   40.0592   -5.4054 O   0  0  0  0  0  0  0  0  0  0  0  0
   20.4522   42.4639   -1.5439 C   0  0  0  0  0  0  0  0  0  0  0  0
   16.3303   38.6133   -7.9215 N   0  0  0  0  0  0  0  0  0  0  0  0
   21.1114   43.2497    0.6870 C   0  0  0  0  0  0  0  0  0  0  0  0
   21.9865   42.0618   -3.2468 C   0  0  0  0  0  0  0  0  0  0  0  0
   21.2179   39.1265   -7.6932 C   0  0  0  0  0  0  0  0  0  0  0  0
   20.8906   38.0885   -8.5077 C   0  0  0  0  0  0  0  0  0  0  0  0
   19.5795   37.9693   -8.9241 C   0  0  0  0  0  0  0  0  0  0  0  0
   15.2080   39.4326   -7.6695 C   0  0  0  0  0  0  0  0  0  0  0  0
   15.4927   39.8384  -10.4977 C   0  0  1  0  0  0  0  0  0  0  0  0
   17.6368   39.3366  -11.2277 F   0  0  0  0  0  0  0  0  0  0  0  0
   16.9088   39.6601  -10.0741 C   0  0  2  0  0  0  0  0  0  0  0  0
   14.9930   38.7581  -11.4271 C   0  0  0  0  0  0  0  0  0  0  0  0
   14.3736   40.1107   -9.0976 S   0  0  0  0  0  0  0  0  0  0  0  0
   14.8243   39.6648   -6.4587 N   0  0  0  0  0  0  0  0  0  0  0  0
   17.1905   37.2286   -9.6535 C   0  0  0  0  0  0  0  0  0  0  0  0
   19.3136   36.9034   -9.7430 F   0  0  0  0  0  0  0  0  0  0  0  0
   20.6681   41.0876   -6.4504 N   0  0  0  0  0  0  0  0  0  0  0  0
   20.1314   43.0118   -0.3131 O   0  0  0  0  0  0  0  0  0  0  0  0
   22.1880   43.8874    0.1260 F   0  0  0  0  0  0  0  0  0  0  0  0
   15.2040   39.1818   -5.6330 H   0  0  0  0  0  0  0  0  0  0  0  0
  1  2  1  1
  1 12  1  0
  1 21  1  0
 25  1  1  6
  3  2  2  0
  2 17  1  0
  4  3  1  0
  4 15  2  0
 27  4  1  0
  5  6  1  0
  5 10  2  0
  5 27  1  0
  6  8  1  0
  6 14  2  0
  8  7  2  0
  7 11  1  0
 11  9  2  0
  9 14  1  0
 11 28  1  0
 12 18  1  0
 28 13  1  0
 13 29  1  6
 15 16  1  0
 16 17  2  0
 17 26  1  0
 18 23  1  0
 18 24  2  0
 21 19  1  0
 22 19  1  6
 19 23  1  1
 21 20  1  6
 24 30  1  0
M  END
$$$$
