
     RDKit          3D

 30 32  0  0  0  0  0  0  0  0999 V2000
   17.1156   38.6612   -8.9663 C   0  0  1  0  0  0  0  0  0  0  0  0
   18.3617   38.9445   -8.1659 C   0  0  0  0  0  0  0  0  0  0  0  0
   18.3969   39.8105   -7.1172 C   0  0  0  0  0  0  0  0  0  0  0  0
   19.5776   40.0177   -6.4315 C   0  0  0  0  0  0  0  0  0  0  0  0
   20.9246   41.0655   -4.6216 C   0  0  0  0  0  0  0  0  0  0  0  0
   20.9854   41.6755   -3.3028 C   0  0  0  0  0  0  0  0  0  0  0  0
   19.9837   42.6173   -1.3928 C   0  0  0  0  0  0  0  0  0  0  0  0
   19.9008   42.0514   -2.6185 N   0  0  0  0  0  0  0  0  0  0  0  0
   22.3573   42.4403   -1.5024 N   0  0  0  0  0  0  0  0  0  0  0  0
   21.9439   40.6407   -5.2222 O   0  0  0  0  0  0  0  0  0  0  0  0
   21.2273   42.8093   -0.8383 C   0  0  0  0  0  0  0  0  0  0  0  0
   16.0521   38.5000   -8.0377 N   0  0  0  0  0  0  0  0  0  0  0  0
   22.5739   43.5497    1.0766 C   0  0  0  0  0  0  0  0  0  0  0  0
   22.2182   41.8781   -2.7269 C   0  0  0  0  0  0  0  0  0  0  0  0
   20.7412   39.3542   -6.7934 C   0  0  0  0  0  0  0  0  0  0  0  0
   20.7251   38.4851   -7.8387 C   0  0  0  0  0  0  0  0  0  0  0  0
   19.5355   38.2908   -8.5123 C   0  0  0  0  0  0  0  0  0  0  0  0
   14.8396   39.2220   -7.9851 C   0  0  0  0  0  0  0  0  0  0  0  0
   15.6604   39.8271  -10.6692 C   0  0  1  0  0  0  0  0  0  0  0  0
   17.9417   39.5224  -10.9609 F   0  0  0  0  0  0  0  0  0  0  0  0
   16.9703   39.7202   -9.9696 C   0  0  2  0  0  0  0  0  0  0  0  0
   15.4495   38.7767  -11.7335 C   0  0  0  0  0  0  0  0  0  0  0  0
   14.2613   39.9311   -9.5209 S   0  0  0  0  0  0  0  0  0  0  0  0
   14.1999   39.3490   -6.8707 N   0  0  0  0  0  0  0  0  0  0  0  0
   17.3560   37.2920   -9.6181 C   0  0  0  0  0  0  0  0  0  0  0  0
   19.5846   37.4037   -9.5554 F   0  0  0  0  0  0  0  0  0  0  0  0
   19.6820   40.9094   -5.3264 N   0  0  0  0  0  0  0  0  0  0  0  0
   21.3272   43.3877    0.4161 O   0  0  0  0  0  0  0  0  0  0  0  0
   22.6465   42.6765    2.1315 F   0  0  0  0  0  0  0  0  0  0  0  0
   13.5576   40.1257   -6.6622 H   0  0  0  0  0  0  0  0  0  0  0  0
  1  2  1  1
  1 12  1  0
  1 21  1  0
 25  1  1  6
  3  2  2  0
  2 17  1  0
  4  3  1  0
  4 15  2  0
 27  4  1  0
  5  6  1  0
  5 10  2  0
  5 27  1  0
  6  8  1  0
  6 14  2  0
  8  7  2  0
  7 11  1  0
 11  9  2  0
  9 14  1  0
 11 28  1  0
 12 18  1  0
 28 13  1  0
 13 29  1  6
 15 16  1  0
 16 17  2  0
 17 26  1  0
 18 23  1  0
 18 24  2  0
 21 19  1  0
 22 19  1  6
 19 23  1  1
 21 20  1  6
 24 30  1  0
M  END
$$$$
