
     RDKit          3D

 30 32  0  0  0  0  0  0  0  0999 V2000
   16.8350   38.9548   -8.9858 C   0  0  1  0  0  0  0  0  0  0  0  0
   18.2486   38.9340   -8.4959 C   0  0  0  0  0  0  0  0  0  0  0  0
   18.5760   39.2327   -7.1918 C   0  0  0  0  0  0  0  0  0  0  0  0
   19.8883   39.2051   -6.7675 C   0  0  0  0  0  0  0  0  0  0  0  0
   21.3453   40.3953   -5.1473 C   0  0  0  0  0  0  0  0  0  0  0  0
   21.4532   41.1398   -3.9151 C   0  0  0  0  0  0  0  0  0  0  0  0
   20.7059   41.7276   -1.7798 C   0  0  0  0  0  0  0  0  0  0  0  0
   20.5755   41.0090   -2.9324 N   0  0  0  0  0  0  0  0  0  0  0  0
   22.6417   42.7394   -2.6033 N   0  0  0  0  0  0  0  0  0  0  0  0
   22.2261   40.5069   -6.0573 O   0  0  0  0  0  0  0  0  0  0  0  0
   21.7531   42.6072   -1.6083 C   0  0  0  0  0  0  0  0  0  0  0  0
   15.9595   39.2823   -7.9089 N   0  0  0  0  0  0  0  0  0  0  0  0
   21.4456   42.8060    0.8209 C   0  0  0  0  0  0  0  0  0  0  0  0
   22.5024   42.0177   -3.7493 C   0  0  0  0  0  0  0  0  0  0  0  0
   20.8684   38.8691   -7.6875 C   0  0  0  0  0  0  0  0  0  0  0  0
   20.5665   38.5644   -9.0047 C   0  0  0  0  0  0  0  0  0  0  0  0
   19.2469   38.5978   -9.4093 C   0  0  0  0  0  0  0  0  0  0  0  0
   14.5742   39.3043   -8.1240 C   0  0  0  0  0  0  0  0  0  0  0  0
   15.4660   40.3866  -10.5840 C   0  0  1  0  0  0  0  0  0  0  0  0
   17.1348   38.9520  -11.2971 F   0  0  0  0  0  0  0  0  0  0  0  0
   16.7583   39.7659  -10.2138 C   0  0  2  0  0  0  0  0  0  0  0  0
   15.2971   40.4182  -12.0927 C   0  0  0  0  0  0  0  0  0  0  0  0
   14.0331   39.5680   -9.7973 S   0  0  0  0  0  0  0  0  0  0  0  0
   13.7372   39.1473   -7.1887 N   0  0  0  0  0  0  0  0  0  0  0  0
   16.5032   37.5056   -9.3771 C   0  0  0  0  0  0  0  0  0  0  0  0
   18.8998   38.3118  -10.6715 F   0  0  0  0  0  0  0  0  0  0  0  0
   20.2794   39.5041   -5.4363 N   0  0  0  0  0  0  0  0  0  0  0  0
   21.8429   43.3115   -0.4255 O   0  0  0  0  0  0  0  0  0  0  0  0
   20.1843   43.2770    1.1184 F   0  0  0  0  0  0  0  0  0  0  0  0
   13.7788   39.5442   -6.2439 H   0  0  0  0  0  0  0  0  0  0  0  0
  2  1  1  0
  1 12  1  0
  1 21  1  0
  1 25  1  6
  3  2  2  0
  2 17  1  0
  4  3  1  0
  4 15  2  0
 27  4  1  0
  5  6  1  0
  5 10  2  0
  5 27  1  0
  6  8  1  0
  6 14  2  0
  8  7  2  0
  7 11  1  0
 11  9  2  0
  9 14  1  0
 11 28  1  0
 12 18  1  0
 28 13  1  0
 13 29  1  0
 15 16  1  0
 16 17  2  0
 17 26  1  0
 18 23  1  0
 18 24  2  0
 21 19  1  0
 19 22  1  6
 19 23  1  0
 21 20  1  6
 24 30  1  0
M  END
$$$$
