
     RDKit          3D

 30 32  0  0  0  0  0  0  0  0999 V2000
   17.1432   38.6100   -9.1021 C   0  0  1  0  0  0  0  0  0  0  0  0
   18.5588   38.4425   -8.6103 C   0  0  0  0  0  0  0  0  0  0  0  0
   18.9912   38.9006   -7.4044 C   0  0  0  0  0  0  0  0  0  0  0  0
   20.3046   38.7087   -7.0230 C   0  0  0  0  0  0  0  0  0  0  0  0
   21.3850   40.4782   -5.6484 C   0  0  0  0  0  0  0  0  0  0  0  0
   21.1860   41.2843   -4.4543 C   0  0  0  0  0  0  0  0  0  0  0  0
   19.9805   41.8947   -2.5275 C   0  0  0  0  0  0  0  0  0  0  0  0
   20.1434   41.1318   -3.6324 N   0  0  0  0  0  0  0  0  0  0  0  0
   21.9990   43.0444   -3.0580 N   0  0  0  0  0  0  0  0  0  0  0  0
   22.0562   40.8764   -6.6338 O   0  0  0  0  0  0  0  0  0  0  0  0
   20.9219   42.8568   -2.2463 C   0  0  0  0  0  0  0  0  0  0  0  0
   16.2934   38.5059   -7.9679 N   0  0  0  0  0  0  0  0  0  0  0  0
   20.1536   43.1587    0.0661 C   0  0  0  0  0  0  0  0  0  0  0  0
   22.1143   42.2535   -4.1516 C   0  0  0  0  0  0  0  0  0  0  0  0
   21.2019   38.0515   -7.8524 C   0  0  0  0  0  0  0  0  0  0  0  0
   20.7878   37.5868   -9.0610 C   0  0  0  0  0  0  0  0  0  0  0  0
   19.4711   37.7880   -9.4253 C   0  0  0  0  0  0  0  0  0  0  0  0
   15.3527   39.4535   -7.5084 C   0  0  0  0  0  0  0  0  0  0  0  0
   15.7237   40.3879  -10.1979 C   0  0  1  0  0  0  0  0  0  0  0  0
   17.7308   39.6491  -11.0965 F   0  0  0  0  0  0  0  0  0  0  0  0
   17.0755   39.8543   -9.8743 C   0  0  2  0  0  0  0  0  0  0  0  0
   15.0258   39.6467  -11.3132 C   0  0  0  0  0  0  0  0  0  0  0  0
   14.6737   40.5672   -8.7308 S   0  0  0  0  0  0  0  0  0  0  0  0
   15.0167   39.4928   -6.2622 N   0  0  0  0  0  0  0  0  0  0  0  0
   16.8727   37.3813   -9.9821 C   0  0  0  0  0  0  0  0  0  0  0  0
   19.1159   37.2969  -10.6541 F   0  0  0  0  0  0  0  0  0  0  0  0
   20.8202   39.1629   -5.7759 N   0  0  0  0  0  0  0  0  0  0  0  0
   20.7679   43.6454   -1.1183 O   0  0  0  0  0  0  0  0  0  0  0  0
   21.0871   42.5011    0.8253 F   0  0  0  0  0  0  0  0  0  0  0  0
   14.3145   40.1389   -5.8765 H   0  0  0  0  0  0  0  0  0  0  0  0
  1  2  1  1
  1 12  1  0
  1 21  1  0
 25  1  1  6
  3  2  2  0
  2 17  1  0
  4  3  1  0
  4 15  2  0
 27  4  1  0
  5  6  1  0
  5 10  2  0
  5 27  1  0
  6  8  1  0
  6 14  2  0
  8  7  2  0
  7 11  1  0
 11  9  2  0
  9 14  1  0
 11 28  1  0
 12 18  1  0
 28 13  1  0
 13 29  1  6
 15 16  1  0
 16 17  2  0
 17 26  1  0
 18 23  1  0
 18 24  2  0
 21 19  1  0
 22 19  1  6
 19 23  1  1
 21 20  1  6
 24 30  1  0
M  END
$$$$
