
     RDKit          3D

 30 32  0  0  0  0  0  0  0  0999 V2000
   16.9870   38.9049   -9.3639 C   0  0  1  0  0  0  0  0  0  0  0  0
   18.3900   38.8402   -8.8151 C   0  0  0  0  0  0  0  0  0  0  0  0
   18.7134   39.1988   -7.5432 C   0  0  0  0  0  0  0  0  0  0  0  0
   20.0226   39.1115   -7.1124 C   0  0  0  0  0  0  0  0  0  0  0  0
   21.3423   40.5571   -5.5773 C   0  0  0  0  0  0  0  0  0  0  0  0
   21.2980   41.3644   -4.3684 C   0  0  0  0  0  0  0  0  0  0  0  0
   20.3760   41.9479   -2.2832 C   0  0  0  0  0  0  0  0  0  0  0  0
   20.3966   41.1833   -3.3986 N   0  0  0  0  0  0  0  0  0  0  0  0
   22.2519   43.1599   -3.1135 N   0  0  0  0  0  0  0  0  0  0  0  0
   22.1745   40.7562   -6.4980 O   0  0  0  0  0  0  0  0  0  0  0  0
   21.3160   42.9425   -2.1486 C   0  0  0  0  0  0  0  0  0  0  0  0
   16.1018   38.7805   -8.2592 N   0  0  0  0  0  0  0  0  0  0  0  0
   20.4317   43.4804    0.0778 C   0  0  0  0  0  0  0  0  0  0  0  0
   22.2281   42.3657   -4.2105 C   0  0  0  0  0  0  0  0  0  0  0  0
   21.0258   38.6611   -7.9585 C   0  0  0  0  0  0  0  0  0  0  0  0
   20.7214   38.2984   -9.2328 C   0  0  0  0  0  0  0  0  0  0  0  0
   19.4072   38.3924   -9.6456 C   0  0  0  0  0  0  0  0  0  0  0  0
   15.0877   39.6804   -7.8643 C   0  0  0  0  0  0  0  0  0  0  0  0
   15.5049   40.5588  -10.5659 C   0  0  1  0  0  0  0  0  0  0  0  0
   17.5868   39.9211  -11.3664 F   0  0  0  0  0  0  0  0  0  0  0  0
   16.8732   40.1200  -10.1763 C   0  0  2  0  0  0  0  0  0  0  0  0
   14.8975   39.7437  -11.6827 C   0  0  0  0  0  0  0  0  0  0  0  0
   14.3897   40.7141   -9.1449 S   0  0  0  0  0  0  0  0  0  0  0  0
   14.7018   39.7343   -6.6333 N   0  0  0  0  0  0  0  0  0  0  0  0
   16.8266   37.6371  -10.2148 C   0  0  0  0  0  0  0  0  0  0  0  0
   19.1652   38.0127  -10.9398 F   0  0  0  0  0  0  0  0  0  0  0  0
   20.4272   39.4707   -5.7954 N   0  0  0  0  0  0  0  0  0  0  0  0
   21.3069   43.7332   -1.0117 O   0  0  0  0  0  0  0  0  0  0  0  0
   19.2997   44.2416   -0.0621 F   0  0  0  0  0  0  0  0  0  0  0  0
   14.0605   40.4490   -6.2629 H   0  0  0  0  0  0  0  0  0  0  0  0
  1  2  1  1
  1 12  1  0
  1 21  1  0
 25  1  1  6
  3  2  2  0
  2 17  1  0
  4  3  1  0
  4 15  2  0
 27  4  1  0
  5  6  1  0
  5 10  2  0
  5 27  1  0
  6  8  1  0
  6 14  2  0
  8  7  2  0
  7 11  1  0
 11  9  2  0
  9 14  1  0
 11 28  1  0
 12 18  1  0
 28 13  1  0
 13 29  1  6
 15 16  1  0
 16 17  2  0
 17 26  1  0
 18 23  1  0
 18 24  2  0
 21 19  1  0
 22 19  1  6
 19 23  1  1
 21 20  1  6
 24 30  1  0
M  END
$$$$
