
     RDKit          3D

 30 32  0  0  0  0  0  0  0  0999 V2000
   17.1250   38.8740   -9.0359 C   0  0  1  0  0  0  0  0  0  0  0  0
   18.4931   38.8347   -8.4030 C   0  0  0  0  0  0  0  0  0  0  0  0
   18.7327   39.2016   -7.1150 C   0  0  0  0  0  0  0  0  0  0  0  0
   20.0147   39.1379   -6.6055 C   0  0  0  0  0  0  0  0  0  0  0  0
   21.2092   40.6133   -4.9979 C   0  0  0  0  0  0  0  0  0  0  0  0
   21.0001   41.4965   -3.8616 C   0  0  0  0  0  0  0  0  0  0  0  0
   19.7743   42.2372   -1.9941 C   0  0  0  0  0  0  0  0  0  0  0  0
   19.9465   41.4031   -3.0448 N   0  0  0  0  0  0  0  0  0  0  0  0
   21.8057   43.3400   -2.5727 N   0  0  0  0  0  0  0  0  0  0  0  0
   22.1595   40.7599   -5.8075 O   0  0  0  0  0  0  0  0  0  0  0  0
   20.7176   43.2110   -1.7642 C   0  0  0  0  0  0  0  0  0  0  0  0
   16.1785   38.6816   -7.9936 N   0  0  0  0  0  0  0  0  0  0  0  0
   21.5833   44.2974    0.2603 C   0  0  0  0  0  0  0  0  0  0  0  0
   21.9300   42.4789   -3.6108 C   0  0  0  0  0  0  0  0  0  0  0  0
   21.0748   38.7028   -7.3877 C   0  0  0  0  0  0  0  0  0  0  0  0
   20.8544   38.3321   -8.6770 C   0  0  0  0  0  0  0  0  0  0  0  0
   19.5662   38.4026   -9.1689 C   0  0  0  0  0  0  0  0  0  0  0  0
   15.1118   39.5336   -7.6325 C   0  0  0  0  0  0  0  0  0  0  0  0
   15.6636   40.5216  -10.2714 C   0  0  1  0  0  0  0  0  0  0  0  0
   17.8114   39.9803  -10.9614 F   0  0  0  0  0  0  0  0  0  0  0  0
   17.0197   40.1132   -9.8121 C   0  0  2  0  0  0  0  0  0  0  0  0
   15.1542   39.7282  -11.4510 C   0  0  0  0  0  0  0  0  0  0  0  0
   14.4587   40.5898   -8.9185 S   0  0  0  0  0  0  0  0  0  0  0  0
   14.6495   39.5308   -6.4269 N   0  0  0  0  0  0  0  0  0  0  0  0
   17.0607   37.6331   -9.9377 C   0  0  0  0  0  0  0  0  0  0  0  0
   19.4096   38.0158  -10.4741 F   0  0  0  0  0  0  0  0  0  0  0  0
   20.3326   39.5069   -5.2675 N   0  0  0  0  0  0  0  0  0  0  0  0
   20.5541   44.0722   -0.6921 O   0  0  0  0  0  0  0  0  0  0  0  0
   22.1550   43.0993    0.6039 F   0  0  0  0  0  0  0  0  0  0  0  0
   14.2832   38.6933   -5.9540 H   0  0  0  0  0  0  0  0  0  0  0  0
  1  2  1  1
  1 12  1  0
  1 21  1  0
 25  1  1  6
  3  2  2  0
  2 17  1  0
  4  3  1  0
  4 15  2  0
 27  4  1  0
  5  6  1  0
  5 10  2  0
  5 27  1  0
  6  8  1  0
  6 14  2  0
  8  7  2  0
  7 11  1  0
 11  9  2  0
  9 14  1  0
 11 28  1  0
 12 18  1  0
 28 13  1  0
 13 29  1  6
 15 16  1  0
 16 17  2  0
 17 26  1  0
 18 23  1  0
 18 24  2  0
 21 19  1  0
 22 19  1  6
 19 23  1  1
 21 20  1  6
 24 30  1  0
M  END
$$$$
