
     RDKit          3D

 30 32  0  0  0  0  0  0  0  0999 V2000
   17.0807   39.1886   -8.7712 C   0  0  1  0  0  0  0  0  0  0  0  0
   18.5381   39.2864   -8.4470 C   0  0  0  0  0  0  0  0  0  0  0  0
   19.0282   40.2093   -7.5498 C   0  0  0  0  0  0  0  0  0  0  0  0
   20.3772   40.2766   -7.2696 C   0  0  0  0  0  0  0  0  0  0  0  0
   21.6937   40.7947   -5.2292 C   0  0  0  0  0  0  0  0  0  0  0  0
   21.5845   41.4019   -3.9240 C   0  0  0  0  0  0  0  0  0  0  0  0
   20.3451   42.2542   -2.1348 C   0  0  0  0  0  0  0  0  0  0  0  0
   20.4142   41.6798   -3.3706 N   0  0  0  0  0  0  0  0  0  0  0  0
   22.6750   42.2784   -1.9915 N   0  0  0  0  0  0  0  0  0  0  0  0
   22.4995   39.8335   -5.4372 O   0  0  0  0  0  0  0  0  0  0  0  0
   21.4902   42.5598   -1.4310 C   0  0  0  0  0  0  0  0  0  0  0  0
   16.3124   39.6913   -7.6801 N   0  0  0  0  0  0  0  0  0  0  0  0
   20.2650   42.9615    0.6601 C   0  0  0  0  0  0  0  0  0  0  0  0
   22.7328   41.7052   -3.2250 C   0  0  0  0  0  0  0  0  0  0  0  0
   21.2262   39.3914   -7.9143 C   0  0  0  0  0  0  0  0  0  0  0  0
   20.7595   38.4536   -8.8207 C   0  0  0  0  0  0  0  0  0  0  0  0
   19.4059   38.4027   -9.0872 C   0  0  0  0  0  0  0  0  0  0  0  0
   14.9123   39.6459   -7.7392 C   0  0  0  0  0  0  0  0  0  0  0  0
   15.4933   40.2746  -10.4384 C   0  0  1  0  0  0  0  0  0  0  0  0
   17.1327   38.7666  -11.0627 F   0  0  0  0  0  0  0  0  0  0  0  0
   16.8414   39.7583  -10.1091 C   0  0  2  0  0  0  0  0  0  0  0  0
   15.1637   40.0246  -11.8994 C   0  0  0  0  0  0  0  0  0  0  0  0
   14.1860   39.5864   -9.3613 S   0  0  0  0  0  0  0  0  0  0  0  0
   14.1865   39.6471   -6.7032 N   0  0  0  0  0  0  0  0  0  0  0  0
   16.7673   37.6859   -8.8545 C   0  0  0  0  0  0  0  0  0  0  0  0
   18.9016   37.5152   -9.9553 F   0  0  0  0  0  0  0  0  0  0  0  0
   20.9337   41.2078   -6.3542 N   0  0  0  0  0  0  0  0  0  0  0  0
   21.3698   43.1398   -0.1851 O   0  0  0  0  0  0  0  0  0  0  0  0
   20.1639   41.6283    0.9967 F   0  0  0  0  0  0  0  0  0  0  0  0
   14.4579   39.9256   -5.7542 H   0  0  0  0  0  0  0  0  0  0  0  0
  2  1  1  0
  1 12  1  0
  1 21  1  0
  1 25  1  6
  3  2  2  0
  2 17  1  0
  4  3  1  0
  4 15  2  0
 27  4  1  0
  5  6  1  0
  5 10  2  0
  5 27  1  0
  6  8  1  0
  6 14  2  0
  8  7  2  0
  7 11  1  0
 11  9  2  0
  9 14  1  0
 11 28  1  0
 12 18  1  0
 28 13  1  0
 13 29  1  0
 15 16  1  0
 16 17  2  0
 17 26  1  0
 18 23  1  0
 18 24  2  0
 21 19  1  0
 19 22  1  6
 19 23  1  0
 21 20  1  6
 24 30  1  0
M  END
$$$$
