
     RDKit          3D

 30 32  0  0  0  0  0  0  0  0999 V2000
   16.9645   38.9369   -8.7957 C   0  0  1  0  0  0  0  0  0  0  0  0
   18.3503   38.9490   -8.2320 C   0  0  0  0  0  0  0  0  0  0  0  0
   18.6002   39.2411   -6.9094 C   0  0  0  0  0  0  0  0  0  0  0  0
   19.8887   39.2444   -6.4167 C   0  0  0  0  0  0  0  0  0  0  0  0
   21.2348   40.4435   -4.7093 C   0  0  0  0  0  0  0  0  0  0  0  0
   21.2939   41.1337   -3.4427 C   0  0  0  0  0  0  0  0  0  0  0  0
   20.5041   41.5757   -1.2876 C   0  0  0  0  0  0  0  0  0  0  0  0
   20.4207   40.9063   -2.4736 N   0  0  0  0  0  0  0  0  0  0  0  0
   22.3821   42.7349   -2.0484 N   0  0  0  0  0  0  0  0  0  0  0  0
   22.1326   40.6199   -5.5920 O   0  0  0  0  0  0  0  0  0  0  0  0
   21.4981   42.5048   -1.0672 C   0  0  0  0  0  0  0  0  0  0  0  0
   16.0201   39.1595   -7.7506 N   0  0  0  0  0  0  0  0  0  0  0  0
   21.9481   44.4885    0.3102 C   0  0  0  0  0  0  0  0  0  0  0  0
   22.2899   42.0616   -3.2280 C   0  0  0  0  0  0  0  0  0  0  0  0
   20.9248   38.9462   -7.2870 C   0  0  0  0  0  0  0  0  0  0  0  0
   20.7012   38.6489   -8.6214 C   0  0  0  0  0  0  0  0  0  0  0  0
   19.4042   38.6509   -9.0947 C   0  0  0  0  0  0  0  0  0  0  0  0
   14.6483   39.1332   -8.0388 C   0  0  0  0  0  0  0  0  0  0  0  0
   15.6132   40.4011  -10.3797 C   0  0  1  0  0  0  0  0  0  0  0  0
   17.3825   39.0875  -11.0836 F   0  0  0  0  0  0  0  0  0  0  0  0
   16.9127   39.8167   -9.9768 C   0  0  2  0  0  0  0  0  0  0  0  0
   15.5208   40.5165  -11.8909 C   0  0  0  0  0  0  0  0  0  0  0  0
   14.1820   39.4737   -9.7207 S   0  0  0  0  0  0  0  0  0  0  0  0
   13.7726   38.8829   -7.1609 N   0  0  0  0  0  0  0  0  0  0  0  0
   16.7222   37.5008   -9.2880 C   0  0  0  0  0  0  0  0  0  0  0  0
   19.1321   38.3704  -10.3764 F   0  0  0  0  0  0  0  0  0  0  0  0
   20.2008   39.5383   -5.0636 N   0  0  0  0  0  0  0  0  0  0  0  0
   21.5416   43.1561    0.1481 O   0  0  0  0  0  0  0  0  0  0  0  0
   23.3065   44.5214    0.5441 F   0  0  0  0  0  0  0  0  0  0  0  0
   13.3375   37.9768   -6.9573 H   0  0  0  0  0  0  0  0  0  0  0  0
  2  1  1  0
  1 12  1  0
  1 21  1  0
  1 25  1  6
  3  2  2  0
  2 17  1  0
  4  3  1  0
  4 15  2  0
 27  4  1  0
  5  6  1  0
  5 10  2  0
  5 27  1  0
  6  8  1  0
  6 14  2  0
  8  7  2  0
  7 11  1  0
 11  9  2  0
  9 14  1  0
 11 28  1  0
 12 18  1  0
 28 13  1  0
 13 29  1  0
 15 16  1  0
 16 17  2  0
 17 26  1  0
 18 23  1  0
 18 24  2  0
 21 19  1  0
 19 22  1  6
 19 23  1  0
 21 20  1  6
 24 30  1  0
M  END
$$$$
