
     RDKit          3D

 30 32  0  0  0  0  0  0  0  0999 V2000
   17.0747   39.3895   -8.6510 C   0  0  1  0  0  0  0  0  0  0  0  0
   18.5414   39.4226   -8.3571 C   0  0  0  0  0  0  0  0  0  0  0  0
   19.0865   40.3035   -7.4495 C   0  0  0  0  0  0  0  0  0  0  0  0
   20.4428   40.3115   -7.1979 C   0  0  0  0  0  0  0  0  0  0  0  0
   21.7927   40.7274   -5.1560 C   0  0  0  0  0  0  0  0  0  0  0  0
   21.5706   41.1804   -3.8033 C   0  0  0  0  0  0  0  0  0  0  0  0
   20.3051   41.2983   -1.8416 C   0  0  0  0  0  0  0  0  0  0  0  0
   20.4852   40.8536   -3.1189 N   0  0  0  0  0  0  0  0  0  0  0  0
   22.3458   42.4290   -1.9240 N   0  0  0  0  0  0  0  0  0  0  0  0
   22.6859   39.8609   -5.4164 O   0  0  0  0  0  0  0  0  0  0  0  0
   21.2469   42.0982   -1.2309 C   0  0  0  0  0  0  0  0  0  0  0  0
   16.3496   39.8848   -7.5274 N   0  0  0  0  0  0  0  0  0  0  0  0
   21.0428   43.8673    0.4613 C   0  0  0  0  0  0  0  0  0  0  0  0
   22.5157   41.9799   -3.1979 C   0  0  0  0  0  0  0  0  0  0  0  0
   21.2423   39.4101   -7.8821 C   0  0  0  0  0  0  0  0  0  0  0  0
   20.7199   38.5136   -8.7999 C   0  0  0  0  0  0  0  0  0  0  0  0
   19.3599   38.5219   -9.0373 C   0  0  0  0  0  0  0  0  0  0  0  0
   14.9479   39.8933   -7.5561 C   0  0  0  0  0  0  0  0  0  0  0  0
   15.4939   40.5869  -10.2467 C   0  0  1  0  0  0  0  0  0  0  0  0
   17.0613   39.0401  -10.9553 F   0  0  0  0  0  0  0  0  0  0  0  0
   16.8283   40.0105   -9.9646 C   0  0  2  0  0  0  0  0  0  0  0  0
   15.1237   40.3966  -11.7069 C   0  0  0  0  0  0  0  0  0  0  0  0
   14.1851   39.9132   -9.1624 S   0  0  0  0  0  0  0  0  0  0  0  0
   14.2452   39.8880   -6.5043 N   0  0  0  0  0  0  0  0  0  0  0  0
   16.7031   37.9029   -8.7745 C   0  0  0  0  0  0  0  0  0  0  0  0
   18.8027   37.6762   -9.9148 F   0  0  0  0  0  0  0  0  0  0  0  0
   21.0549   41.1976   -6.2734 N   0  0  0  0  0  0  0  0  0  0  0  0
   21.0207   42.5232    0.0619 O   0  0  0  0  0  0  0  0  0  0  0  0
   19.8017   44.4253    0.2391 F   0  0  0  0  0  0  0  0  0  0  0  0
   14.4005   39.3336   -5.6556 H   0  0  0  0  0  0  0  0  0  0  0  0
  2  1  1  0
  1 12  1  0
  1 21  1  0
  1 25  1  6
  3  2  2  0
  2 17  1  0
  4  3  1  0
  4 15  2  0
 27  4  1  0
  5  6  1  0
  5 10  2  0
  5 27  1  0
  6  8  1  0
  6 14  2  0
  8  7  2  0
  7 11  1  0
 11  9  2  0
  9 14  1  0
 11 28  1  0
 12 18  1  0
 28 13  1  0
 13 29  1  0
 15 16  1  0
 16 17  2  0
 17 26  1  0
 18 23  1  0
 18 24  2  0
 21 19  1  0
 19 22  1  6
 19 23  1  0
 21 20  1  6
 24 30  1  0
M  END
$$$$
