
     RDKit          3D

 30 32  0  0  0  0  0  0  0  0999 V2000
   16.9794   38.8196   -9.1066 C   0  0  1  0  0  0  0  0  0  0  0  0
   18.3228   39.0156   -8.4503 C   0  0  0  0  0  0  0  0  0  0  0  0
   18.5467   39.9204   -7.4592 C   0  0  0  0  0  0  0  0  0  0  0  0
   19.8063   40.0420   -6.9063 C   0  0  0  0  0  0  0  0  0  0  0  0
   21.2753   40.8007   -5.0477 C   0  0  0  0  0  0  0  0  0  0  0  0
   21.4185   41.4815   -3.7705 C   0  0  0  0  0  0  0  0  0  0  0  0
   20.5827   42.2330   -1.7029 C   0  0  0  0  0  0  0  0  0  0  0  0
   20.4245   41.5943   -2.8845 N   0  0  0  0  0  0  0  0  0  0  0  0
   22.8478   42.6892   -2.2849 N   0  0  0  0  0  0  0  0  0  0  0  0
   22.1547   40.0309   -5.5105 O   0  0  0  0  0  0  0  0  0  0  0  0
   21.8088   42.7820   -1.4095 C   0  0  0  0  0  0  0  0  0  0  0  0
   16.0131   38.7577   -8.0665 N   0  0  0  0  0  0  0  0  0  0  0  0
   21.1828   43.1589    0.9345 C   0  0  0  0  0  0  0  0  0  0  0  0
   22.6357   42.0390   -3.4541 C   0  0  0  0  0  0  0  0  0  0  0  0
   20.8595   39.2525   -7.3448 C   0  0  0  0  0  0  0  0  0  0  0  0
   20.6547   38.3429   -8.3342 C   0  0  0  0  0  0  0  0  0  0  0  0
   19.3887   38.2356   -8.8750 C   0  0  0  0  0  0  0  0  0  0  0  0
   14.8727   39.5742   -7.9025 C   0  0  0  0  0  0  0  0  0  0  0  0
   15.4432   40.0706  -10.6724 C   0  0  1  0  0  0  0  0  0  0  0  0
   17.6493   39.5816  -11.1978 F   0  0  0  0  0  0  0  0  0  0  0  0
   16.8088   39.8711  -10.1138 C   0  0  2  0  0  0  0  0  0  0  0  0
   15.0383   39.0239  -11.6828 C   0  0  0  0  0  0  0  0  0  0  0  0
   14.1885   40.3029   -9.3845 S   0  0  0  0  0  0  0  0  0  0  0  0
   14.3687   39.7688   -6.7298 N   0  0  0  0  0  0  0  0  0  0  0  0
   17.0418   37.4257   -9.7473 C   0  0  0  0  0  0  0  0  0  0  0  0
   19.2469   37.3018   -9.8677 F   0  0  0  0  0  0  0  0  0  0  0  0
   20.1069   40.9682   -5.8674 N   0  0  0  0  0  0  0  0  0  0  0  0
   21.9853   43.4390   -0.2032 O   0  0  0  0  0  0  0  0  0  0  0  0
   21.6035   41.9877    1.5105 F   0  0  0  0  0  0  0  0  0  0  0  0
   14.1002   40.6933   -6.3659 H   0  0  0  0  0  0  0  0  0  0  0  0
  1  2  1  1
  1 12  1  0
  1 21  1  0
 25  1  1  6
  3  2  2  0
  2 17  1  0
  4  3  1  0
  4 15  2  0
 27  4  1  0
  5  6  1  0
  5 10  2  0
  5 27  1  0
  6  8  1  0
  6 14  2  0
  8  7  2  0
  7 11  1  0
 11  9  2  0
  9 14  1  0
 11 28  1  0
 12 18  1  0
 28 13  1  0
 13 29  1  6
 15 16  1  0
 16 17  2  0
 17 26  1  0
 18 23  1  0
 18 24  2  0
 21 19  1  0
 22 19  1  6
 19 23  1  1
 21 20  1  6
 24 30  1  0
M  END
$$$$
