
     RDKit          3D

 30 32  0  0  0  0  0  0  0  0999 V2000
   16.9943   39.1143   -8.6828 C   0  0  1  0  0  0  0  0  0  0  0  0
   18.4651   39.1999   -8.4226 C   0  0  0  0  0  0  0  0  0  0  0  0
   18.9977   40.0888   -7.5154 C   0  0  0  0  0  0  0  0  0  0  0  0
   20.3583   40.1454   -7.2952 C   0  0  0  0  0  0  0  0  0  0  0  0
   21.5213   40.5966   -5.1485 C   0  0  0  0  0  0  0  0  0  0  0  0
   21.1480   41.1248   -3.8577 C   0  0  0  0  0  0  0  0  0  0  0  0
   19.6736   41.3388   -2.0566 C   0  0  0  0  0  0  0  0  0  0  0  0
   19.9967   40.8227   -3.2777 N   0  0  0  0  0  0  0  0  0  0  0  0
   21.7015   42.4927   -1.9831 N   0  0  0  0  0  0  0  0  0  0  0  0
   22.3977   39.6813   -5.2512 O   0  0  0  0  0  0  0  0  0  0  0  0
   20.5359   42.1870   -1.3957 C   0  0  0  0  0  0  0  0  0  0  0  0
   16.2780   39.5913   -7.5457 N   0  0  0  0  0  0  0  0  0  0  0  0
   20.6257   43.8989    0.3639 C   0  0  0  0  0  0  0  0  0  0  0  0
   22.0142   41.9723   -3.2016 C   0  0  0  0  0  0  0  0  0  0  0  0
   21.1751   39.2847   -8.0107 C   0  0  0  0  0  0  0  0  0  0  0  0
   20.6656   38.3813   -8.9289 C   0  0  0  0  0  0  0  0  0  0  0  0
   19.3009   38.3405   -9.1345 C   0  0  0  0  0  0  0  0  0  0  0  0
   14.8766   39.5513   -7.5424 C   0  0  0  0  0  0  0  0  0  0  0  0
   15.3372   40.2466  -10.2484 C   0  0  1  0  0  0  0  0  0  0  0  0
   16.9408   38.7504  -10.9843 F   0  0  0  0  0  0  0  0  0  0  0  0
   16.6968   39.7184   -9.9937 C   0  0  2  0  0  0  0  0  0  0  0  0
   14.9409   40.0347  -11.6988 C   0  0  0  0  0  0  0  0  0  0  0  0
   14.0774   39.5349   -9.1309 S   0  0  0  0  0  0  0  0  0  0  0  0
   14.1984   39.5282   -6.4749 N   0  0  0  0  0  0  0  0  0  0  0  0
   16.6716   37.6151   -8.7897 C   0  0  0  0  0  0  0  0  0  0  0  0
   18.7557   37.4859  -10.0108 F   0  0  0  0  0  0  0  0  0  0  0  0
   20.9580   41.0419   -6.3726 N   0  0  0  0  0  0  0  0  0  0  0  0
   20.1653   42.6836   -0.1632 O   0  0  0  0  0  0  0  0  0  0  0  0
   21.6749   43.6503    1.2233 F   0  0  0  0  0  0  0  0  0  0  0  0
   14.3318   40.1099   -5.6408 H   0  0  0  0  0  0  0  0  0  0  0  0
  2  1  1  0
  1 12  1  0
  1 21  1  0
  1 25  1  6
  3  2  2  0
  2 17  1  0
  4  3  1  0
  4 15  2  0
 27  4  1  0
  5  6  1  0
  5 10  2  0
  5 27  1  0
  6  8  1  0
  6 14  2  0
  8  7  2  0
  7 11  1  0
 11  9  2  0
  9 14  1  0
 11 28  1  0
 12 18  1  0
 28 13  1  0
 13 29  1  0
 15 16  1  0
 16 17  2  0
 17 26  1  0
 18 23  1  0
 18 24  2  0
 21 19  1  0
 19 22  1  6
 19 23  1  0
 21 20  1  6
 24 30  1  0
M  END
$$$$
