
     RDKit          3D

 30 32  0  0  0  0  0  0  0  0999 V2000
   16.9973   39.0689   -8.8205 C   0  0  1  0  0  0  0  0  0  0  0  0
   18.4587   38.9776   -8.5131 C   0  0  0  0  0  0  0  0  0  0  0  0
   18.9599   39.2343   -7.2561 C   0  0  0  0  0  0  0  0  0  0  0  0
   20.3124   39.1419   -7.0011 C   0  0  0  0  0  0  0  0  0  0  0  0
   21.4365   40.6564   -5.3863 C   0  0  0  0  0  0  0  0  0  0  0  0
   21.3557   41.2373   -4.0671 C   0  0  0  0  0  0  0  0  0  0  0  0
   20.9557   41.1046   -1.7680 C   0  0  0  0  0  0  0  0  0  0  0  0
   21.0230   40.5252   -3.0015 N   0  0  0  0  0  0  0  0  0  0  0  0
   21.5686   43.1652   -2.6778 N   0  0  0  0  0  0  0  0  0  0  0  0
   22.0270   41.2653   -6.3333 O   0  0  0  0  0  0  0  0  0  0  0  0
   21.2318   42.4443   -1.5988 C   0  0  0  0  0  0  0  0  0  0  0  0
   16.2896   39.5005   -7.6602 N   0  0  0  0  0  0  0  0  0  0  0  0
   20.2436   43.9898    0.0351 C   0  0  0  0  0  0  0  0  0  0  0  0
   21.6329   42.5774   -3.9041 C   0  0  0  0  0  0  0  0  0  0  0  0
   21.1535   38.7841   -8.0424 C   0  0  0  0  0  0  0  0  0  0  0  0
   20.6758   38.5207   -9.3157 C   0  0  0  0  0  0  0  0  0  0  0  0
   19.3187   38.6188   -9.5502 C   0  0  0  0  0  0  0  0  0  0  0  0
   14.8919   39.6034   -7.6991 C   0  0  0  0  0  0  0  0  0  0  0  0
   15.5198   40.5147  -10.3056 C   0  0  1  0  0  0  0  0  0  0  0  0
   16.9944   38.9437  -11.1478 F   0  0  0  0  0  0  0  0  0  0  0  0
   16.8102   39.8279  -10.0698 C   0  0  2  0  0  0  0  0  0  0  0  0
   15.1590   40.4901  -11.7803 C   0  0  0  0  0  0  0  0  0  0  0  0
   14.1550   39.8272   -9.3020 S   0  0  0  0  0  0  0  0  0  0  0  0
   14.1754   39.5431   -6.6585 N   0  0  0  0  0  0  0  0  0  0  0  0
   16.5326   37.6285   -9.0901 C   0  0  0  0  0  0  0  0  0  0  0  0
   18.8038   38.3747  -10.7629 F   0  0  0  0  0  0  0  0  0  0  0  0
   20.8801   39.3956   -5.7252 N   0  0  0  0  0  0  0  0  0  0  0  0
   21.1504   42.9852   -0.3324 O   0  0  0  0  0  0  0  0  0  0  0  0
   20.2994   44.1716    1.4008 F   0  0  0  0  0  0  0  0  0  0  0  0
   14.2882   40.0829   -5.7937 H   0  0  0  0  0  0  0  0  0  0  0  0
  2  1  1  0
  1 12  1  0
  1 21  1  0
  1 25  1  6
  3  2  2  0
  2 17  1  0
  4  3  1  0
  4 15  2  0
 27  4  1  0
  5  6  1  0
  5 10  2  0
  5 27  1  0
  6  8  1  0
  6 14  2  0
  8  7  2  0
  7 11  1  0
 11  9  2  0
  9 14  1  0
 11 28  1  0
 12 18  1  0
 28 13  1  0
 13 29  1  0
 15 16  1  0
 16 17  2  0
 17 26  1  0
 18 23  1  0
 18 24  2  0
 21 19  1  0
 19 22  1  6
 19 23  1  0
 21 20  1  6
 24 30  1  0
M  END
$$$$
