
     RDKit          3D

 30 32  0  0  0  0  0  0  0  0999 V2000
   17.3189   38.9039   -8.8757 C   0  0  1  0  0  0  0  0  0  0  0  0
   18.7757   38.7378   -8.5778 C   0  0  0  0  0  0  0  0  0  0  0  0
   19.2987   38.9748   -7.3258 C   0  0  0  0  0  0  0  0  0  0  0  0
   20.6463   38.8130   -7.0796 C   0  0  0  0  0  0  0  0  0  0  0  0
   21.8011   40.2970   -5.4582 C   0  0  0  0  0  0  0  0  0  0  0  0
   21.6642   40.8986   -4.1529 C   0  0  0  0  0  0  0  0  0  0  0  0
   20.6655   41.0678   -2.0464 C   0  0  0  0  0  0  0  0  0  0  0  0
   20.7696   40.4776   -3.2722 N   0  0  0  0  0  0  0  0  0  0  0  0
   22.3934   42.5422   -2.5850 N   0  0  0  0  0  0  0  0  0  0  0  0
   22.4536   40.8796   -6.3808 O   0  0  0  0  0  0  0  0  0  0  0  0
   21.4877   42.1161   -1.6931 C   0  0  0  0  0  0  0  0  0  0  0  0
   16.6466   39.3976   -7.7190 N   0  0  0  0  0  0  0  0  0  0  0  0
   20.1128   43.0509    0.1154 C   0  0  0  0  0  0  0  0  0  0  0  0
   22.4890   41.9464   -3.8053 C   0  0  0  0  0  0  0  0  0  0  0  0
   21.4600   38.4059   -8.1246 C   0  0  0  0  0  0  0  0  0  0  0  0
   20.9599   38.1609   -9.3930 C   0  0  0  0  0  0  0  0  0  0  0  0
   19.6082   38.3287   -9.6186 C   0  0  0  0  0  0  0  0  0  0  0  0
   15.2564   39.5772   -7.7492 C   0  0  0  0  0  0  0  0  0  0  0  0
   15.9106   40.3993  -10.3788 C   0  0  1  0  0  0  0  0  0  0  0  0
   17.2883   38.7321  -11.1998 F   0  0  0  0  0  0  0  0  0  0  0  0
   17.1630   39.6467  -10.1389 C   0  0  2  0  0  0  0  0  0  0  0  0
   15.5358   40.3649  -11.8498 C   0  0  0  0  0  0  0  0  0  0  0  0
   14.5188   39.8091   -9.3506 S   0  0  0  0  0  0  0  0  0  0  0  0
   14.5469   39.5779   -6.7020 N   0  0  0  0  0  0  0  0  0  0  0  0
   16.7727   37.4865   -9.1117 C   0  0  0  0  0  0  0  0  0  0  0  0
   19.0726   38.1054  -10.8264 F   0  0  0  0  0  0  0  0  0  0  0  0
   21.2357   39.0436   -5.8091 N   0  0  0  0  0  0  0  0  0  0  0  0
   21.3450   42.6806   -0.4425 O   0  0  0  0  0  0  0  0  0  0  0  0
   19.7237   44.2636   -0.4127 F   0  0  0  0  0  0  0  0  0  0  0  0
   14.8199   39.2604   -5.7658 H   0  0  0  0  0  0  0  0  0  0  0  0
  2  1  1  0
  1 12  1  0
  1 21  1  0
  1 25  1  6
  3  2  2  0
  2 17  1  0
  4  3  1  0
  4 15  2  0
 27  4  1  0
  5  6  1  0
  5 10  2  0
  5 27  1  0
  6  8  1  0
  6 14  2  0
  8  7  2  0
  7 11  1  0
 11  9  2  0
  9 14  1  0
 11 28  1  0
 12 18  1  0
 28 13  1  0
 13 29  1  0
 15 16  1  0
 16 17  2  0
 17 26  1  0
 18 23  1  0
 18 24  2  0
 21 19  1  0
 19 22  1  6
 19 23  1  0
 21 20  1  6
 24 30  1  0
M  END
$$$$
