
     RDKit          3D

 30 32  0  0  0  0  0  0  0  0999 V2000
   17.0178   38.5789   -9.0932 C   0  0  1  0  0  0  0  0  0  0  0  0
   18.3825   38.4884   -8.4582 C   0  0  0  0  0  0  0  0  0  0  0  0
   18.6581   38.9480   -7.2076 C   0  0  0  0  0  0  0  0  0  0  0  0
   19.9342   38.8290   -6.6934 C   0  0  0  0  0  0  0  0  0  0  0  0
   21.2782   40.3162   -5.2204 C   0  0  0  0  0  0  0  0  0  0  0  0
   21.2513   41.2217   -4.0826 C   0  0  0  0  0  0  0  0  0  0  0  0
   20.2638   42.0879   -2.1299 C   0  0  0  0  0  0  0  0  0  0  0  0
   20.2660   41.2354   -3.1799 N   0  0  0  0  0  0  0  0  0  0  0  0
   22.3360   42.9853   -2.8902 N   0  0  0  0  0  0  0  0  0  0  0  0
   22.1593   40.3741   -6.1149 O   0  0  0  0  0  0  0  0  0  0  0  0
   21.3124   42.9668   -1.9924 C   0  0  0  0  0  0  0  0  0  0  0  0
   16.0638   38.3695   -8.0611 N   0  0  0  0  0  0  0  0  0  0  0  0
   20.8591   43.4723    0.3672 C   0  0  0  0  0  0  0  0  0  0  0  0
   22.2892   42.1105   -3.9233 C   0  0  0  0  0  0  0  0  0  0  0  0
   20.9522   38.2445   -7.4331 C   0  0  0  0  0  0  0  0  0  0  0  0
   20.6955   37.7796   -8.6845 C   0  0  0  0  0  0  0  0  0  0  0  0
   19.4137   37.9072   -9.1819 C   0  0  0  0  0  0  0  0  0  0  0  0
   15.0138   39.2305   -7.6731 C   0  0  0  0  0  0  0  0  0  0  0  0
   15.5957   40.2996  -10.2735 C   0  0  1  0  0  0  0  0  0  0  0  0
   17.7342   39.7382  -10.9761 F   0  0  0  0  0  0  0  0  0  0  0  0
   16.9413   39.8468   -9.8251 C   0  0  2  0  0  0  0  0  0  0  0  0
   15.0741   39.5595  -11.4821 C   0  0  0  0  0  0  0  0  0  0  0  0
   14.3876   40.3450   -8.9225 S   0  0  0  0  0  0  0  0  0  0  0  0
   14.5472   39.1945   -6.4696 N   0  0  0  0  0  0  0  0  0  0  0  0
   16.9309   37.3724  -10.0387 C   0  0  0  0  0  0  0  0  0  0  0  0
   19.2193   37.4199  -10.4477 F   0  0  0  0  0  0  0  0  0  0  0  0
   20.2883   39.2890   -5.3932 N   0  0  0  0  0  0  0  0  0  0  0  0
   21.3232   43.8456   -0.9221 O   0  0  0  0  0  0  0  0  0  0  0  0
   21.7753   42.6396    0.9568 F   0  0  0  0  0  0  0  0  0  0  0  0
   14.3593   40.0316   -5.9010 H   0  0  0  0  0  0  0  0  0  0  0  0
  1  2  1  1
  1 12  1  0
  1 21  1  0
 25  1  1  6
  3  2  2  0
  2 17  1  0
  4  3  1  0
  4 15  2  0
 27  4  1  0
  5  6  1  0
  5 10  2  0
  5 27  1  0
  6  8  1  0
  6 14  2  0
  8  7  2  0
  7 11  1  0
 11  9  2  0
  9 14  1  0
 11 28  1  0
 12 18  1  0
 28 13  1  0
 13 29  1  6
 15 16  1  0
 16 17  2  0
 17 26  1  0
 18 23  1  0
 18 24  2  0
 21 19  1  0
 22 19  1  6
 19 23  1  1
 21 20  1  6
 24 30  1  0
M  END
$$$$
