
     RDKit          3D

 30 32  0  0  0  0  0  0  0  0999 V2000
   17.0453   39.0818   -8.8709 C   0  0  1  0  0  0  0  0  0  0  0  0
   18.5055   38.9698   -8.5647 C   0  0  0  0  0  0  0  0  0  0  0  0
   19.0162   39.2555   -7.3179 C   0  0  0  0  0  0  0  0  0  0  0  0
   20.3674   39.1430   -7.0638 C   0  0  0  0  0  0  0  0  0  0  0  0
   21.5087   40.6911   -5.4935 C   0  0  0  0  0  0  0  0  0  0  0  0
   21.3575   41.3474   -4.2165 C   0  0  0  0  0  0  0  0  0  0  0  0
   20.2780   41.6655   -2.1679 C   0  0  0  0  0  0  0  0  0  0  0  0
   20.3937   41.0258   -3.3675 N   0  0  0  0  0  0  0  0  0  0  0  0
   22.1358   42.9874   -2.6685 N   0  0  0  0  0  0  0  0  0  0  0  0
   22.1737   41.2329   -6.4319 O   0  0  0  0  0  0  0  0  0  0  0  0
   21.1600   42.6619   -1.8087 C   0  0  0  0  0  0  0  0  0  0  0  0
   16.3501   39.5605   -7.7215 N   0  0  0  0  0  0  0  0  0  0  0  0
   20.2615   42.7413    0.4762 C   0  0  0  0  0  0  0  0  0  0  0  0
   22.2423   42.3429   -3.8629 C   0  0  0  0  0  0  0  0  0  0  0  0
   21.1973   38.7352   -8.0957 C   0  0  0  0  0  0  0  0  0  0  0  0
   20.7098   38.4417   -9.3586 C   0  0  0  0  0  0  0  0  0  0  0  0
   19.3543   38.5606   -9.5923 C   0  0  0  0  0  0  0  0  0  0  0  0
   14.9546   39.6905   -7.7598 C   0  0  0  0  0  0  0  0  0  0  0  0
   15.5924   40.5142  -10.3928 C   0  0  1  0  0  0  0  0  0  0  0  0
   17.0324   38.8904  -11.1936 F   0  0  0  0  0  0  0  0  0  0  0  0
   16.8695   39.8085  -10.1409 C   0  0  2  0  0  0  0  0  0  0  0  0
   15.2265   40.4548  -11.8653 C   0  0  0  0  0  0  0  0  0  0  0  0
   14.2173   39.8833   -9.3664 S   0  0  0  0  0  0  0  0  0  0  0  0
   14.2403   39.6744   -6.7159 N   0  0  0  0  0  0  0  0  0  0  0  0
   16.5508   37.6440   -9.0979 C   0  0  0  0  0  0  0  0  0  0  0  0
   18.8304   38.2892  -10.7953 F   0  0  0  0  0  0  0  0  0  0  0  0
   20.9446   39.4250   -5.7981 N   0  0  0  0  0  0  0  0  0  0  0  0
   21.0028   43.2798   -0.5854 O   0  0  0  0  0  0  0  0  0  0  0  0
   19.1438   43.5204    0.6880 F   0  0  0  0  0  0  0  0  0  0  0  0
   13.9419   40.4790   -6.1542 H   0  0  0  0  0  0  0  0  0  0  0  0
  2  1  1  0
  1 12  1  0
  1 21  1  0
  1 25  1  6
  3  2  2  0
  2 17  1  0
  4  3  1  0
  4 15  2  0
 27  4  1  0
  5  6  1  0
  5 10  2  0
  5 27  1  0
  6  8  1  0
  6 14  2  0
  8  7  2  0
  7 11  1  0
 11  9  2  0
  9 14  1  0
 11 28  1  0
 12 18  1  0
 28 13  1  0
 13 29  1  0
 15 16  1  0
 16 17  2  0
 17 26  1  0
 18 23  1  0
 18 24  2  0
 21 19  1  0
 19 22  1  6
 19 23  1  0
 21 20  1  6
 24 30  1  0
M  END
$$$$
