
     RDKit          3D

 30 32  0  0  0  0  0  0  0  0999 V2000
   16.7806   38.9079   -9.4399 C   0  0  1  0  0  0  0  0  0  0  0  0
   18.1589   39.1345   -8.8718 C   0  0  0  0  0  0  0  0  0  0  0  0
   18.4571   40.1462   -8.0123 C   0  0  0  0  0  0  0  0  0  0  0  0
   19.7446   40.2893   -7.5337 C   0  0  0  0  0  0  0  0  0  0  0  0
   21.1663   41.1166   -5.6676 C   0  0  0  0  0  0  0  0  0  0  0  0
   21.1227   41.7276   -4.3485 C   0  0  0  0  0  0  0  0  0  0  0  0
   20.0024   42.8313   -2.5977 C   0  0  0  0  0  0  0  0  0  0  0  0
   20.0173   42.2684   -3.8275 N   0  0  0  0  0  0  0  0  0  0  0  0
   22.3137   42.3038   -2.3591 N   0  0  0  0  0  0  0  0  0  0  0  0
   22.1095   40.3754   -6.0430 O   0  0  0  0  0  0  0  0  0  0  0  0
   21.1658   42.8442   -1.8647 C   0  0  0  0  0  0  0  0  0  0  0  0
   15.8840   38.8340   -8.3399 N   0  0  0  0  0  0  0  0  0  0  0  0
   20.1285   43.1749    0.3360 C   0  0  0  0  0  0  0  0  0  0  0  0
   22.2739   41.7528   -3.5958 C   0  0  0  0  0  0  0  0  0  0  0  0
   20.7511   39.4138   -7.9149 C   0  0  0  0  0  0  0  0  0  0  0  0
   20.4719   38.3970   -8.7729 C   0  0  0  0  0  0  0  0  0  0  0  0
   19.1791   38.2697   -9.2409 C   0  0  0  0  0  0  0  0  0  0  0  0
   14.7403   39.6292   -8.1079 C   0  0  0  0  0  0  0  0  0  0  0  0
   15.1232   40.1181  -10.9113 C   0  0  1  0  0  0  0  0  0  0  0  0
   17.3006   39.6688  -11.5737 F   0  0  0  0  0  0  0  0  0  0  0  0
   16.5253   39.9491  -10.4399 C   0  0  2  0  0  0  0  0  0  0  0  0
   14.6756   39.0569  -11.8880 C   0  0  0  0  0  0  0  0  0  0  0  0
   13.9487   40.3345   -9.5472 S   0  0  0  0  0  0  0  0  0  0  0  0
   14.3082   39.8218   -6.9065 N   0  0  0  0  0  0  0  0  0  0  0  0
   16.8298   37.5113  -10.0757 C   0  0  0  0  0  0  0  0  0  0  0  0
   18.9619   37.2261  -10.1019 F   0  0  0  0  0  0  0  0  0  0  0  0
   20.1223   41.3253   -6.6328 N   0  0  0  0  0  0  0  0  0  0  0  0
   21.1652   43.4173   -0.6039 O   0  0  0  0  0  0  0  0  0  0  0  0
   20.5332   42.2080    1.2201 F   0  0  0  0  0  0  0  0  0  0  0  0
   14.7495   40.4629   -6.2330 H   0  0  0  0  0  0  0  0  0  0  0  0
  1  2  1  1
  1 12  1  0
  1 21  1  0
 25  1  1  6
  3  2  2  0
  2 17  1  0
  4  3  1  0
  4 15  2  0
 27  4  1  0
  5  6  1  0
  5 10  2  0
  5 27  1  0
  6  8  1  0
  6 14  2  0
  8  7  2  0
  7 11  1  0
 11  9  2  0
  9 14  1  0
 11 28  1  0
 12 18  1  0
 28 13  1  0
 13 29  1  6
 15 16  1  0
 16 17  2  0
 17 26  1  0
 18 23  1  0
 18 24  2  0
 21 19  1  0
 22 19  1  6
 19 23  1  1
 21 20  1  6
 24 30  1  0
M  END
$$$$
