
     RDKit          3D

 30 32  0  0  0  0  0  0  0  0999 V2000
   17.0121   39.0563   -9.2310 C   0  0  1  0  0  0  0  0  0  0  0  0
   18.3037   39.1228   -8.4557 C   0  0  0  0  0  0  0  0  0  0  0  0
   18.3843   39.5675   -7.1724 C   0  0  0  0  0  0  0  0  0  0  0  0
   19.6050   39.5987   -6.5274 C   0  0  0  0  0  0  0  0  0  0  0  0
   20.9306   40.7790   -4.7845 C   0  0  0  0  0  0  0  0  0  0  0  0
   20.9809   41.5205   -3.5344 C   0  0  0  0  0  0  0  0  0  0  0  0
   20.2267   41.9859   -1.3542 C   0  0  0  0  0  0  0  0  0  0  0  0
   20.1601   41.2818   -2.5071 N   0  0  0  0  0  0  0  0  0  0  0  0
   22.0273   43.2531   -2.2649 N   0  0  0  0  0  0  0  0  0  0  0  0
   21.8992   40.7273   -5.5841 O   0  0  0  0  0  0  0  0  0  0  0  0
   21.1719   42.9782   -1.2417 C   0  0  0  0  0  0  0  0  0  0  0  0
   15.9858   38.7325   -8.3030 N   0  0  0  0  0  0  0  0  0  0  0  0
   21.4448   45.1143   -0.0621 C   0  0  0  0  0  0  0  0  0  0  0  0
   21.9180   42.5183   -3.3975 C   0  0  0  0  0  0  0  0  0  0  0  0
   20.7633   39.1817   -7.1672 C   0  0  0  0  0  0  0  0  0  0  0  0
   20.7022   38.7342   -8.4494 C   0  0  0  0  0  0  0  0  0  0  0  0
   19.4730   38.7102   -9.0781 C   0  0  0  0  0  0  0  0  0  0  0  0
   14.8078   39.4635   -8.0340 C   0  0  0  0  0  0  0  0  0  0  0  0
   15.5311   40.6046  -10.5675 C   0  0  1  0  0  0  0  0  0  0  0  0
   17.7824   40.2995  -11.0376 F   0  0  0  0  0  0  0  0  0  0  0  0
   16.8657   40.3098   -9.9770 C   0  0  2  0  0  0  0  0  0  0  0  0
   15.2291   39.8140  -11.8182 C   0  0  0  0  0  0  0  0  0  0  0  0
   14.1908   40.5029   -9.3510 S   0  0  0  0  0  0  0  0  0  0  0  0
   14.2248   39.3681   -6.8858 N   0  0  0  0  0  0  0  0  0  0  0  0
   17.1660   37.8521  -10.1709 C   0  0  0  0  0  0  0  0  0  0  0  0
   19.4777   38.2493  -10.3685 F   0  0  0  0  0  0  0  0  0  0  0  0
   19.7578   40.0523   -5.1864 N   0  0  0  0  0  0  0  0  0  0  0  0
   21.2515   43.7073   -0.0669 O   0  0  0  0  0  0  0  0  0  0  0  0
   20.2250   45.7408   -0.0525 F   0  0  0  0  0  0  0  0  0  0  0  0
   13.4972   38.6739   -6.6668 H   0  0  0  0  0  0  0  0  0  0  0  0
  1  2  1  1
  1 12  1  0
  1 21  1  0
 25  1  1  6
  3  2  2  0
  2 17  1  0
  4  3  1  0
  4 15  2  0
 27  4  1  0
  5  6  1  0
  5 10  2  0
  5 27  1  0
  6  8  1  0
  6 14  2  0
  8  7  2  0
  7 11  1  0
 11  9  2  0
  9 14  1  0
 11 28  1  0
 12 18  1  0
 28 13  1  0
 13 29  1  6
 15 16  1  0
 16 17  2  0
 17 26  1  0
 18 23  1  0
 18 24  2  0
 21 19  1  0
 22 19  1  6
 19 23  1  1
 21 20  1  6
 24 30  1  0
M  END
$$$$
