
     RDKit          3D

 30 32  0  0  0  0  0  0  0  0999 V2000
   17.0938   39.1063   -9.1376 C   0  0  1  0  0  0  0  0  0  0  0  0
   18.5321   39.2324   -8.7456 C   0  0  0  0  0  0  0  0  0  0  0  0
   18.9468   40.0852   -7.7467 C   0  0  0  0  0  0  0  0  0  0  0  0
   20.2800   40.1807   -7.4059 C   0  0  0  0  0  0  0  0  0  0  0  0
   21.3815   40.5450   -5.2107 C   0  0  0  0  0  0  0  0  0  0  0  0
   21.2491   41.1633   -3.9128 C   0  0  0  0  0  0  0  0  0  0  0  0
   20.0216   41.7329   -2.0070 C   0  0  0  0  0  0  0  0  0  0  0  0
   20.1139   41.1387   -3.2318 N   0  0  0  0  0  0  0  0  0  0  0  0
   22.2553   42.3984   -2.1369 N   0  0  0  0  0  0  0  0  0  0  0  0
   22.0816   39.4952   -5.3659 O   0  0  0  0  0  0  0  0  0  0  0  0
   21.1060   42.3735   -1.4472 C   0  0  0  0  0  0  0  0  0  0  0  0
   16.2635   39.4779   -8.0393 N   0  0  0  0  0  0  0  0  0  0  0  0
   21.1366   44.3297    0.0384 C   0  0  0  0  0  0  0  0  0  0  0  0
   22.3368   41.8024   -3.3582 C   0  0  0  0  0  0  0  0  0  0  0  0
   21.1912   39.3962   -8.0947 C   0  0  0  0  0  0  0  0  0  0  0  0
   20.8010   38.5305   -9.1033 C   0  0  0  0  0  0  0  0  0  0  0  0
   19.4618   38.4498   -9.4292 C   0  0  0  0  0  0  0  0  0  0  0  0
   14.8700   39.3823   -8.1604 C   0  0  0  0  0  0  0  0  0  0  0  0
   15.5251   40.2737  -10.7670 C   0  0  1  0  0  0  0  0  0  0  0  0
   17.2507   38.8943  -11.4533 F   0  0  0  0  0  0  0  0  0  0  0  0
   16.8808   39.7839  -10.4288 C   0  0  2  0  0  0  0  0  0  0  0  0
   15.2622   40.1432  -12.2568 C   0  0  0  0  0  0  0  0  0  0  0  0
   14.2090   39.4401   -9.8102 S   0  0  0  0  0  0  0  0  0  0  0  0
   14.1061   39.2615   -7.1594 N   0  0  0  0  0  0  0  0  0  0  0  0
   16.8491   37.6059   -9.3661 C   0  0  0  0  0  0  0  0  0  0  0  0
   19.0305   37.6290  -10.3964 F   0  0  0  0  0  0  0  0  0  0  0  0
   20.7599   41.0426   -6.3854 N   0  0  0  0  0  0  0  0  0  0  0  0
   20.9642   42.9597   -0.2065 O   0  0  0  0  0  0  0  0  0  0  0  0
   20.6128   44.6369    1.2764 F   0  0  0  0  0  0  0  0  0  0  0  0
   14.2758   39.5938   -6.2040 H   0  0  0  0  0  0  0  0  0  0  0  0
  2  1  1  0
  1 12  1  0
  1 21  1  0
  1 25  1  6
  3  2  2  0
  2 17  1  0
  4  3  1  0
  4 15  2  0
 27  4  1  0
  5  6  1  0
  5 10  2  0
  5 27  1  0
  6  8  1  0
  6 14  2  0
  8  7  2  0
  7 11  1  0
 11  9  2  0
  9 14  1  0
 11 28  1  0
 12 18  1  0
 28 13  1  0
 13 29  1  0
 15 16  1  0
 16 17  2  0
 17 26  1  0
 18 23  1  0
 18 24  2  0
 21 19  1  0
 19 22  1  6
 19 23  1  0
 21 20  1  6
 24 30  1  0
M  END
$$$$
