
     RDKit          3D

 30 32  0  0  0  0  0  0  0  0999 V2000
   17.4667   39.6860   -9.2231 C   0  0  1  0  0  0  0  0  0  0  0  0
   18.9370   39.6599   -8.9476 C   0  0  0  0  0  0  0  0  0  0  0  0
   19.4851   40.2662   -7.8390 C   0  0  0  0  0  0  0  0  0  0  0  0
   20.8448   40.2258   -7.6098 C   0  0  0  0  0  0  0  0  0  0  0  0
   21.2656   40.3459   -5.1658 C   0  0  0  0  0  0  0  0  0  0  0  0
   21.2619   41.1892   -3.9940 C   0  0  0  0  0  0  0  0  0  0  0  0
   20.7182   41.6316   -1.7641 C   0  0  0  0  0  0  0  0  0  0  0  0
   20.7048   40.8107   -2.8540 N   0  0  0  0  0  0  0  0  0  0  0  0
   21.8752   43.2576   -2.9754 N   0  0  0  0  0  0  0  0  0  0  0  0
   21.0898   39.0906   -5.0679 O   0  0  0  0  0  0  0  0  0  0  0  0
   21.3112   42.8746   -1.8211 C   0  0  0  0  0  0  0  0  0  0  0  0
   16.7603   40.0026   -8.0254 N   0  0  0  0  0  0  0  0  0  0  0  0
   20.5932   44.8761   -0.5909 C   0  0  0  0  0  0  0  0  0  0  0  0
   21.8563   42.4308   -4.0569 C   0  0  0  0  0  0  0  0  0  0  0  0
   21.6447   39.5593   -8.5241 C   0  0  0  0  0  0  0  0  0  0  0  0
   21.1193   38.9412   -9.6470 C   0  0  0  0  0  0  0  0  0  0  0  0
   19.7559   38.9932   -9.8580 C   0  0  0  0  0  0  0  0  0  0  0  0
   15.3585   40.0272   -8.0333 C   0  0  0  0  0  0  0  0  0  0  0  0
   15.8791   41.1345  -10.5870 C   0  0  1  0  0  0  0  0  0  0  0  0
   17.4218   39.7069  -11.5532 F   0  0  0  0  0  0  0  0  0  0  0  0
   17.2108   40.5097  -10.4180 C   0  0  2  0  0  0  0  0  0  0  0  0
   15.4893   41.1815  -12.0538 C   0  0  0  0  0  0  0  0  0  0  0  0
   14.5766   40.3081   -9.6056 S   0  0  0  0  0  0  0  0  0  0  0  0
   14.6685   39.8607   -6.9863 N   0  0  0  0  0  0  0  0  0  0  0  0
   17.0782   38.2410   -9.5757 C   0  0  0  0  0  0  0  0  0  0  0  0
   19.1959   38.4123  -10.9277 F   0  0  0  0  0  0  0  0  0  0  0  0
   21.4600   40.8335   -6.4843 N   0  0  0  0  0  0  0  0  0  0  0  0
   21.2997   43.6690   -0.6933 O   0  0  0  0  0  0  0  0  0  0  0  0
   19.2717   44.6037   -0.3072 F   0  0  0  0  0  0  0  0  0  0  0  0
   14.8664   40.2225   -6.0472 H   0  0  0  0  0  0  0  0  0  0  0  0
  2  1  1  0
  1 12  1  0
  1 21  1  0
  1 25  1  6
  3  2  2  0
  2 17  1  0
  4  3  1  0
  4 15  2  0
 27  4  1  0
  5  6  1  0
  5 10  2  0
  5 27  1  0
  6  8  1  0
  6 14  2  0
  8  7  2  0
  7 11  1  0
 11  9  2  0
  9 14  1  0
 11 28  1  0
 12 18  1  0
 28 13  1  0
 13 29  1  0
 15 16  1  0
 16 17  2  0
 17 26  1  0
 18 23  1  0
 18 24  2  0
 21 19  1  0
 19 22  1  6
 19 23  1  0
 21 20  1  6
 24 30  1  0
M  END
$$$$
