
     RDKit          3D

 30 32  0  0  0  0  0  0  0  0999 V2000
   17.1692   39.3122   -8.7427 C   0  0  1  0  0  0  0  0  0  0  0  0
   18.6539   39.2519   -8.5685 C   0  0  0  0  0  0  0  0  0  0  0  0
   19.3228   40.0797   -7.6942 C   0  0  0  0  0  0  0  0  0  0  0  0
   20.6929   40.0016   -7.5536 C   0  0  0  0  0  0  0  0  0  0  0  0
   21.7523   40.4213   -5.3477 C   0  0  0  0  0  0  0  0  0  0  0  0
   21.3097   41.1194   -4.1640 C   0  0  0  0  0  0  0  0  0  0  0  0
   19.6687   42.1687   -2.8719 C   0  0  0  0  0  0  0  0  0  0  0  0
   20.0551   41.5106   -4.0031 N   0  0  0  0  0  0  0  0  0  0  0  0
   21.8432   42.0468   -2.0316 N   0  0  0  0  0  0  0  0  0  0  0  0
   22.4723   39.3772   -5.2595 O   0  0  0  0  0  0  0  0  0  0  0  0
   20.5729   42.4431   -1.8685 C   0  0  0  0  0  0  0  0  0  0  0  0
   16.5575   39.6932   -7.5122 N   0  0  0  0  0  0  0  0  0  0  0  0
   20.9381   43.3717    0.3763 C   0  0  0  0  0  0  0  0  0  0  0  0
   22.2182   41.3909   -3.1640 C   0  0  0  0  0  0  0  0  0  0  0  0
   21.3785   39.0688   -8.3150 C   0  0  0  0  0  0  0  0  0  0  0  0
   20.7304   38.2244   -9.2015 C   0  0  0  0  0  0  0  0  0  0  0  0
   19.3588   38.3185   -9.3274 C   0  0  0  0  0  0  0  0  0  0  0  0
   15.1598   39.7596   -7.4243 C   0  0  0  0  0  0  0  0  0  0  0  0
   15.5304   40.7574  -10.0483 C   0  0  1  0  0  0  0  0  0  0  0  0
   16.9617   39.2499  -11.0633 F   0  0  0  0  0  0  0  0  0  0  0  0
   16.8530   40.0994   -9.9478 C   0  0  2  0  0  0  0  0  0  0  0  0
   15.0402   40.7630  -11.4854 C   0  0  0  0  0  0  0  0  0  0  0  0
   14.2776   40.0068   -8.9484 S   0  0  0  0  0  0  0  0  0  0  0  0
   14.5406   39.6521   -6.3265 N   0  0  0  0  0  0  0  0  0  0  0  0
   16.7174   37.8677   -9.0121 C   0  0  0  0  0  0  0  0  0  0  0  0
   18.6825   37.5260  -10.1700 F   0  0  0  0  0  0  0  0  0  0  0  0
   21.4300   40.8303   -6.6679 N   0  0  0  0  0  0  0  0  0  0  0  0
   20.1352   43.1108   -0.7434 O   0  0  0  0  0  0  0  0  0  0  0  0
   21.0808   42.2131    1.1101 F   0  0  0  0  0  0  0  0  0  0  0  0
   14.4830   38.8245   -5.7235 H   0  0  0  0  0  0  0  0  0  0  0  0
  2  1  1  0
  1 12  1  0
  1 21  1  0
  1 25  1  6
  3  2  2  0
  2 17  1  0
  4  3  1  0
  4 15  2  0
 27  4  1  0
  5  6  1  0
  5 10  2  0
  5 27  1  0
  6  8  1  0
  6 14  2  0
  8  7  2  0
  7 11  1  0
 11  9  2  0
  9 14  1  0
 11 28  1  0
 12 18  1  0
 28 13  1  0
 13 29  1  0
 15 16  1  0
 16 17  2  0
 17 26  1  0
 18 23  1  0
 18 24  2  0
 21 19  1  0
 19 22  1  6
 19 23  1  0
 21 20  1  6
 24 30  1  0
M  END
$$$$
