
     RDKit          3D

 30 32  0  0  0  0  0  0  0  0999 V2000
   17.1750   39.0631   -8.7098 C   0  0  1  0  0  0  0  0  0  0  0  0
   18.6348   38.8764   -8.4406 C   0  0  0  0  0  0  0  0  0  0  0  0
   19.2207   39.2872   -7.2638 C   0  0  0  0  0  0  0  0  0  0  0  0
   20.5696   39.1018   -7.0424 C   0  0  0  0  0  0  0  0  0  0  0  0
   21.3690   40.8731   -5.4970 C   0  0  0  0  0  0  0  0  0  0  0  0
   21.0749   41.3970   -4.1842 C   0  0  0  0  0  0  0  0  0  0  0  0
   19.8505   41.4246   -2.1933 C   0  0  0  0  0  0  0  0  0  0  0  0
   20.1031   40.9068   -3.4302 N   0  0  0  0  0  0  0  0  0  0  0  0
   21.5832   42.9660   -2.4604 N   0  0  0  0  0  0  0  0  0  0  0  0
   21.7851   41.6347   -6.4261 O   0  0  0  0  0  0  0  0  0  0  0  0
   20.5993   42.4699   -1.6969 C   0  0  0  0  0  0  0  0  0  0  0  0
   16.5429   39.6194   -7.5589 N   0  0  0  0  0  0  0  0  0  0  0  0
   21.1199   42.7686    0.6853 C   0  0  0  0  0  0  0  0  0  0  0  0
   21.8268   42.4422   -3.6931 C   0  0  0  0  0  0  0  0  0  0  0  0
   21.3196   38.4915   -8.0348 C   0  0  0  0  0  0  0  0  0  0  0  0
   20.7555   38.0689   -9.2273 C   0  0  0  0  0  0  0  0  0  0  0  0
   19.4037   38.2638   -9.4293 C   0  0  0  0  0  0  0  0  0  0  0  0
   15.1566   39.8292   -7.5629 C   0  0  0  0  0  0  0  0  0  0  0  0
   15.7619   40.5265  -10.2397 C   0  0  1  0  0  0  0  0  0  0  0  0
   17.0821   38.7959  -11.0232 F   0  0  0  0  0  0  0  0  0  0  0  0
   17.0034   39.7563   -9.9990 C   0  0  2  0  0  0  0  0  0  0  0  0
   15.3496   40.4397  -11.6985 C   0  0  0  0  0  0  0  0  0  0  0  0
   14.3841   40.0113   -9.1542 S   0  0  0  0  0  0  0  0  0  0  0  0
   14.4739   39.8894   -6.4997 N   0  0  0  0  0  0  0  0  0  0  0  0
   16.5923   37.6499   -8.8728 C   0  0  0  0  0  0  0  0  0  0  0  0
   18.8076   37.8742  -10.5643 F   0  0  0  0  0  0  0  0  0  0  0  0
   21.2224   39.5061   -5.8486 N   0  0  0  0  0  0  0  0  0  0  0  0
   20.3064   42.9598   -0.4409 O   0  0  0  0  0  0  0  0  0  0  0  0
   21.7753   43.9467    0.9747 F   0  0  0  0  0  0  0  0  0  0  0  0
   14.7915   40.1940   -5.5732 H   0  0  0  0  0  0  0  0  0  0  0  0
  2  1  1  0
  1 12  1  0
  1 21  1  0
  1 25  1  6
  3  2  2  0
  2 17  1  0
  4  3  1  0
  4 15  2  0
 27  4  1  0
  5  6  1  0
  5 10  2  0
  5 27  1  0
  6  8  1  0
  6 14  2  0
  8  7  2  0
  7 11  1  0
 11  9  2  0
  9 14  1  0
 11 28  1  0
 12 18  1  0
 28 13  1  0
 13 29  1  0
 15 16  1  0
 16 17  2  0
 17 26  1  0
 18 23  1  0
 18 24  2  0
 21 19  1  0
 19 22  1  6
 19 23  1  0
 21 20  1  6
 24 30  1  0
M  END
$$$$
