
     RDKit          3D

 30 32  0  0  0  0  0  0  0  0999 V2000
   17.1470   39.3919   -8.7286 C   0  0  1  0  0  0  0  0  0  0  0  0
   18.5749   39.2140   -8.3187 C   0  0  0  0  0  0  0  0  0  0  0  0
   18.9901   39.3880   -7.0171 C   0  0  0  0  0  0  0  0  0  0  0  0
   20.3135   39.2168   -6.6675 C   0  0  0  0  0  0  0  0  0  0  0  0
   21.5319   40.5296   -4.9480 C   0  0  0  0  0  0  0  0  0  0  0  0
   21.3591   41.1943   -3.6780 C   0  0  0  0  0  0  0  0  0  0  0  0
   20.2716   41.4964   -1.6312 C   0  0  0  0  0  0  0  0  0  0  0  0
   20.4084   40.8480   -2.8239 N   0  0  0  0  0  0  0  0  0  0  0  0
   22.0805   42.8780   -2.1495 N   0  0  0  0  0  0  0  0  0  0  0  0
   22.3785   40.9527   -5.7968 O   0  0  0  0  0  0  0  0  0  0  0  0
   21.1180   42.5275   -1.2846 C   0  0  0  0  0  0  0  0  0  0  0  0
   16.3626   39.7455   -7.5914 N   0  0  0  0  0  0  0  0  0  0  0  0
   21.6594   44.2839    0.3454 C   0  0  0  0  0  0  0  0  0  0  0  0
   22.2083   42.2245   -3.3369 C   0  0  0  0  0  0  0  0  0  0  0  0
   21.2142   38.8652   -7.6600 C   0  0  0  0  0  0  0  0  0  0  0  0
   20.8232   38.6840   -8.9766 C   0  0  0  0  0  0  0  0  0  0  0  0
   19.4940   38.8601   -9.3057 C   0  0  0  0  0  0  0  0  0  0  0  0
   14.9768   39.9082   -7.7288 C   0  0  0  0  0  0  0  0  0  0  0  0
   15.8435   41.0244  -10.1826 C   0  0  1  0  0  0  0  0  0  0  0  0
   17.3281   39.4772  -11.0507 F   0  0  0  0  0  0  0  0  0  0  0  0
   17.0870   40.2673   -9.9126 C   0  0  2  0  0  0  0  0  0  0  0  0
   15.6025   41.1475  -11.6768 C   0  0  0  0  0  0  0  0  0  0  0  0
   14.3798   40.3053   -9.3561 S   0  0  0  0  0  0  0  0  0  0  0  0
   14.1769   39.7836   -6.7569 N   0  0  0  0  0  0  0  0  0  0  0  0
   16.6578   38.0018   -9.1662 C   0  0  0  0  0  0  0  0  0  0  0  0
   19.0623   38.6974  -10.5637 F   0  0  0  0  0  0  0  0  0  0  0  0
   20.7934   39.3837   -5.3422 N   0  0  0  0  0  0  0  0  0  0  0  0
   20.9405   43.1530   -0.0678 O   0  0  0  0  0  0  0  0  0  0  0  0
   21.0761   45.4117   -0.1921 F   0  0  0  0  0  0  0  0  0  0  0  0
   14.3499   39.3047   -5.8666 H   0  0  0  0  0  0  0  0  0  0  0  0
  2  1  1  0
  1 12  1  0
  1 21  1  0
  1 25  1  6
  3  2  2  0
  2 17  1  0
  4  3  1  0
  4 15  2  0
 27  4  1  0
  5  6  1  0
  5 10  2  0
  5 27  1  0
  6  8  1  0
  6 14  2  0
  8  7  2  0
  7 11  1  0
 11  9  2  0
  9 14  1  0
 11 28  1  0
 12 18  1  0
 28 13  1  0
 13 29  1  0
 15 16  1  0
 16 17  2  0
 17 26  1  0
 18 23  1  0
 18 24  2  0
 21 19  1  0
 19 22  1  6
 19 23  1  0
 21 20  1  6
 24 30  1  0
M  END
$$$$
