
     RDKit          3D

 30 32  0  0  0  0  0  0  0  0999 V2000
   17.0604   38.9244   -8.8729 C   0  0  1  0  0  0  0  0  0  0  0  0
   18.3941   39.1575   -8.2362 C   0  0  0  0  0  0  0  0  0  0  0  0
   18.5448   39.9548   -7.1233 C   0  0  0  0  0  0  0  0  0  0  0  0
   19.7871   40.1517   -6.5568 C   0  0  0  0  0  0  0  0  0  0  0  0
   21.2141   40.9335   -4.6814 C   0  0  0  0  0  0  0  0  0  0  0  0
   21.3529   41.4422   -3.3374 C   0  0  0  0  0  0  0  0  0  0  0  0
   20.5517   41.8201   -1.1743 C   0  0  0  0  0  0  0  0  0  0  0  0
   20.3891   41.3283   -2.4367 N   0  0  0  0  0  0  0  0  0  0  0  0
   22.6975   42.5627   -1.7162 N   0  0  0  0  0  0  0  0  0  0  0  0
   22.2048   40.4207   -5.2914 O   0  0  0  0  0  0  0  0  0  0  0  0
   21.7218   42.4474   -0.8041 C   0  0  0  0  0  0  0  0  0  0  0  0
   16.0246   39.2653   -7.9539 N   0  0  0  0  0  0  0  0  0  0  0  0
   22.2024   44.2457    0.7990 C   0  0  0  0  0  0  0  0  0  0  0  0
   22.5250   42.0685   -2.9729 C   0  0  0  0  0  0  0  0  0  0  0  0
   20.8792   39.5265   -7.1367 C   0  0  0  0  0  0  0  0  0  0  0  0
   20.7555   38.7197   -8.2559 C   0  0  0  0  0  0  0  0  0  0  0  0
   19.5034   38.5355   -8.8076 C   0  0  0  0  0  0  0  0  0  0  0  0
   14.6844   39.0723   -8.3173 C   0  0  0  0  0  0  0  0  0  0  0  0
   15.7404   39.9424  -10.7964 C   0  0  1  0  0  0  0  0  0  0  0  0
   17.6442   38.6672  -11.1145 F   0  0  0  0  0  0  0  0  0  0  0  0
   17.0412   39.5543  -10.2050 C   0  0  2  0  0  0  0  0  0  0  0  0
   15.7584   39.7580  -12.3035 C   0  0  0  0  0  0  0  0  0  0  0  0
   14.3285   39.0447  -10.0594 S   0  0  0  0  0  0  0  0  0  0  0  0
   13.7620   38.9243   -7.4644 N   0  0  0  0  0  0  0  0  0  0  0  0
   16.9552   37.4057   -9.0869 C   0  0  0  0  0  0  0  0  0  0  0  0
   19.3276   37.7654   -9.8900 F   0  0  0  0  0  0  0  0  0  0  0  0
   19.9972   40.9626   -5.4110 N   0  0  0  0  0  0  0  0  0  0  0  0
   21.8396   42.9283    0.4835 O   0  0  0  0  0  0  0  0  0  0  0  0
   21.0933   44.9214    1.2623 F   0  0  0  0  0  0  0  0  0  0  0  0
   13.7510   39.2608   -6.4957 H   0  0  0  0  0  0  0  0  0  0  0  0
  2  1  1  0
  1 12  1  0
  1 21  1  0
  1 25  1  6
  3  2  2  0
  2 17  1  0
  4  3  1  0
  4 15  2  0
 27  4  1  0
  5  6  1  0
  5 10  2  0
  5 27  1  0
  6  8  1  0
  6 14  2  0
  8  7  2  0
  7 11  1  0
 11  9  2  0
  9 14  1  0
 11 28  1  0
 12 18  1  0
 28 13  1  0
 13 29  1  0
 15 16  1  0
 16 17  2  0
 17 26  1  0
 18 23  1  0
 18 24  2  0
 21 19  1  0
 19 22  1  6
 19 23  1  0
 21 20  1  6
 24 30  1  0
M  END
$$$$
