
     RDKit          3D

 30 32  0  0  0  0  0  0  0  0999 V2000
   16.9498   39.1235   -8.9477 C   0  0  1  0  0  0  0  0  0  0  0  0
   18.4285   39.1629   -8.7233 C   0  0  0  0  0  0  0  0  0  0  0  0
   19.0133   40.0545   -7.8514 C   0  0  0  0  0  0  0  0  0  0  0  0
   20.3799   40.0680   -7.6639 C   0  0  0  0  0  0  0  0  0  0  0  0
   21.5068   40.5542   -5.5056 C   0  0  0  0  0  0  0  0  0  0  0  0
   21.1636   41.2199   -4.2713 C   0  0  0  0  0  0  0  0  0  0  0  0
   19.6322   42.2170   -2.8139 C   0  0  0  0  0  0  0  0  0  0  0  0
   19.9236   41.5893   -3.9898 N   0  0  0  0  0  0  0  0  0  0  0  0
   21.8747   42.1087   -2.1746 N   0  0  0  0  0  0  0  0  0  0  0  0
   22.2724   39.5392   -5.5094 O   0  0  0  0  0  0  0  0  0  0  0  0
   20.6193   42.4827   -1.8894 C   0  0  0  0  0  0  0  0  0  0  0  0
   16.2747   39.5601   -7.7699 N   0  0  0  0  0  0  0  0  0  0  0  0
   20.0760   42.4593    0.5062 C   0  0  0  0  0  0  0  0  0  0  0  0
   22.1548   41.4830   -3.3508 C   0  0  0  0  0  0  0  0  0  0  0  0
   21.1488   39.1612   -8.3755 C   0  0  0  0  0  0  0  0  0  0  0  0
   20.5863   38.2541   -9.2585 C   0  0  0  0  0  0  0  0  0  0  0  0
   19.2166   38.2569   -9.4318 C   0  0  0  0  0  0  0  0  0  0  0  0
   14.8732   39.5516   -7.7308 C   0  0  0  0  0  0  0  0  0  0  0  0
   15.2805   40.3684  -10.4114 C   0  0  1  0  0  0  0  0  0  0  0  0
   16.8284   38.8744  -11.2618 F   0  0  0  0  0  0  0  0  0  0  0  0
   16.6332   39.7978  -10.2193 C   0  0  2  0  0  0  0  0  0  0  0  0
   14.8419   40.2370  -11.8591 C   0  0  0  0  0  0  0  0  0  0  0  0
   14.0333   39.6314   -9.2962 S   0  0  0  0  0  0  0  0  0  0  0  0
   14.2225   39.4914   -6.6478 N   0  0  0  0  0  0  0  0  0  0  0  0
   16.5888   37.6390   -9.1184 C   0  0  0  0  0  0  0  0  0  0  0  0
   18.6211   37.4009  -10.2733 F   0  0  0  0  0  0  0  0  0  0  0  0
   21.0324   40.9651   -6.7784 N   0  0  0  0  0  0  0  0  0  0  0  0
   20.2761   43.1195   -0.7148 O   0  0  0  0  0  0  0  0  0  0  0  0
   21.2718   41.9184    0.9288 F   0  0  0  0  0  0  0  0  0  0  0  0
   14.4602   39.9349   -5.7541 H   0  0  0  0  0  0  0  0  0  0  0  0
  2  1  1  0
  1 12  1  0
  1 21  1  0
  1 25  1  6
  3  2  2  0
  2 17  1  0
  4  3  1  0
  4 15  2  0
 27  4  1  0
  5  6  1  0
  5 10  2  0
  5 27  1  0
  6  8  1  0
  6 14  2  0
  8  7  2  0
  7 11  1  0
 11  9  2  0
  9 14  1  0
 11 28  1  0
 12 18  1  0
 28 13  1  0
 13 29  1  0
 15 16  1  0
 16 17  2  0
 17 26  1  0
 18 23  1  0
 18 24  2  0
 21 19  1  0
 19 22  1  6
 19 23  1  0
 21 20  1  6
 24 30  1  0
M  END
$$$$
