
     RDKit          3D

 30 32  0  0  0  0  0  0  0  0999 V2000
   17.1431   38.6866   -9.2278 C   0  0  1  0  0  0  0  0  0  0  0  0
   18.5658   38.5951   -8.7365 C   0  0  0  0  0  0  0  0  0  0  0  0
   18.9485   38.9529   -7.4808 C   0  0  0  0  0  0  0  0  0  0  0  0
   20.2721   38.8401   -7.1035 C   0  0  0  0  0  0  0  0  0  0  0  0
   21.4829   40.4083   -5.5992 C   0  0  0  0  0  0  0  0  0  0  0  0
   21.4448   41.1238   -4.3335 C   0  0  0  0  0  0  0  0  0  0  0  0
   22.0246   42.9305   -2.9413 C   0  0  0  0  0  0  0  0  0  0  0  0
   22.0751   42.2842   -4.1284 N   0  0  0  0  0  0  0  0  0  0  0  0
   20.6427   41.1890   -2.0839 N   0  0  0  0  0  0  0  0  0  0  0  0
   22.1624   40.7996   -6.5815 O   0  0  0  0  0  0  0  0  0  0  0  0
   21.2995   42.3700   -1.9162 C   0  0  0  0  0  0  0  0  0  0  0  0
   16.3001   38.4937   -8.1002 N   0  0  0  0  0  0  0  0  0  0  0  0
   20.1638   43.8819   -0.3499 C   0  0  0  0  0  0  0  0  0  0  0  0
   20.7260   40.5833   -3.2926 C   0  0  0  0  0  0  0  0  0  0  0  0
   21.2302   38.3647   -7.9873 C   0  0  0  0  0  0  0  0  0  0  0  0
   20.8664   38.0024   -9.2460 C   0  0  0  0  0  0  0  0  0  0  0  0
   19.5386   38.1220   -9.6053 C   0  0  0  0  0  0  0  0  0  0  0  0
   15.3000   39.3647   -7.6152 C   0  0  0  0  0  0  0  0  0  0  0  0
   15.6143   40.4029  -10.2737 C   0  0  1  0  0  0  0  0  0  0  0  0
   17.6659   39.8218  -11.1876 F   0  0  0  0  0  0  0  0  0  0  0  0
   16.9970   39.9472   -9.9620 C   0  0  2  0  0  0  0  0  0  0  0  0
   14.9670   39.6530  -11.4134 C   0  0  0  0  0  0  0  0  0  0  0  0
   14.5528   40.4695   -8.8054 S   0  0  0  0  0  0  0  0  0  0  0  0
   14.9604   39.3442   -6.3696 N   0  0  0  0  0  0  0  0  0  0  0  0
   16.9532   37.4707  -10.1458 C   0  0  0  0  0  0  0  0  0  0  0  0
   19.2360   37.7413  -10.8864 F   0  0  0  0  0  0  0  0  0  0  0  0
   20.7378   39.1970   -5.8061 N   0  0  0  0  0  0  0  0  0  0  0  0
   21.2391   43.0207   -0.6951 O   0  0  0  0  0  0  0  0  0  0  0  0
   18.9965   43.3815   -0.8670 F   0  0  0  0  0  0  0  0  0  0  0  0
   14.9651   38.4960   -5.7867 H   0  0  0  0  0  0  0  0  0  0  0  0
  1  2  1  1
  1 12  1  0
  1 21  1  0
 25  1  1  6
  3  2  2  0
  2 17  1  0
  4  3  1  0
  4 15  2  0
 27  4  1  0
  5  6  1  0
  5 10  2  0
  5 27  1  0
  6  8  1  0
  6 14  2  0
  8  7  2  0
  7 11  1  0
 11  9  2  0
  9 14  1  0
 11 28  1  0
 12 18  1  0
 28 13  1  0
 13 29  1  6
 15 16  1  0
 16 17  2  0
 17 26  1  0
 18 23  1  0
 18 24  2  0
 21 19  1  0
 22 19  1  6
 19 23  1  1
 21 20  1  6
 24 30  1  0
M  END
$$$$
