
     RDKit          3D

 30 32  0  0  0  0  0  0  0  0999 V2000
   17.1969   39.1825   -8.7804 C   0  0  1  0  0  0  0  0  0  0  0  0
   18.6485   39.0310   -8.4513 C   0  0  0  0  0  0  0  0  0  0  0  0
   19.1563   39.3559   -7.2129 C   0  0  0  0  0  0  0  0  0  0  0  0
   20.4996   39.2055   -6.9371 C   0  0  0  0  0  0  0  0  0  0  0  0
   21.3957   40.8586   -5.3158 C   0  0  0  0  0  0  0  0  0  0  0  0
   21.0451   41.4482   -4.0454 C   0  0  0  0  0  0  0  0  0  0  0  0
   19.6863   41.6290   -2.1521 C   0  0  0  0  0  0  0  0  0  0  0  0
   19.9906   41.0511   -3.3501 N   0  0  0  0  0  0  0  0  0  0  0  0
   21.5352   43.0418   -2.3390 N   0  0  0  0  0  0  0  0  0  0  0  0
   22.0278   41.5265   -6.1937 O   0  0  0  0  0  0  0  0  0  0  0  0
   20.4676   42.6399   -1.6349 C   0  0  0  0  0  0  0  0  0  0  0  0
   16.4976   39.6837   -7.6431 N   0  0  0  0  0  0  0  0  0  0  0  0
   21.0076   43.3480    0.6546 C   0  0  0  0  0  0  0  0  0  0  0  0
   21.8299   42.4585   -3.5332 C   0  0  0  0  0  0  0  0  0  0  0  0
   21.3245   38.7190   -7.9385 C   0  0  0  0  0  0  0  0  0  0  0  0
   20.8397   38.3847   -9.1924 C   0  0  0  0  0  0  0  0  0  0  0  0
   19.4922   38.5426   -9.4481 C   0  0  0  0  0  0  0  0  0  0  0  0
   15.1070   39.8522   -7.7034 C   0  0  0  0  0  0  0  0  0  0  0  0
   15.8081   40.6502  -10.3282 C   0  0  1  0  0  0  0  0  0  0  0  0
   17.2147   38.9848  -11.1026 F   0  0  0  0  0  0  0  0  0  0  0  0
   17.0610   39.9101  -10.0547 C   0  0  2  0  0  0  0  0  0  0  0  0
   15.4635   40.5967  -11.8061 C   0  0  0  0  0  0  0  0  0  0  0  0
   14.4003   40.0607   -9.3218 S   0  0  0  0  0  0  0  0  0  0  0  0
   14.3765   39.8590   -6.6708 N   0  0  0  0  0  0  0  0  0  0  0  0
   16.6662   37.7584   -9.0115 C   0  0  0  0  0  0  0  0  0  0  0  0
   18.9712   38.2345  -10.6435 F   0  0  0  0  0  0  0  0  0  0  0  0
   21.0735   39.5251   -5.6790 N   0  0  0  0  0  0  0  0  0  0  0  0
   20.1200   43.1934   -0.4200 O   0  0  0  0  0  0  0  0  0  0  0  0
   21.8421   44.4161    0.4015 F   0  0  0  0  0  0  0  0  0  0  0  0
   14.5900   40.2811   -5.7608 H   0  0  0  0  0  0  0  0  0  0  0  0
  2  1  1  0
  1 12  1  0
  1 21  1  0
  1 25  1  6
  3  2  2  0
  2 17  1  0
  4  3  1  0
  4 15  2  0
 27  4  1  0
  5  6  1  0
  5 10  2  0
  5 27  1  0
  6  8  1  0
  6 14  2  0
  8  7  2  0
  7 11  1  0
 11  9  2  0
  9 14  1  0
 11 28  1  0
 12 18  1  0
 28 13  1  0
 13 29  1  0
 15 16  1  0
 16 17  2  0
 17 26  1  0
 18 23  1  0
 18 24  2  0
 21 19  1  0
 19 22  1  6
 19 23  1  0
 21 20  1  6
 24 30  1  0
M  END
$$$$
