
     RDKit          3D

 30 32  0  0  0  0  0  0  0  0999 V2000
   17.3032   38.7388   -8.8360 C   0  0  1  0  0  0  0  0  0  0  0  0
   18.7175   38.6237   -8.3256 C   0  0  0  0  0  0  0  0  0  0  0  0
   19.1017   39.0339   -7.0866 C   0  0  0  0  0  0  0  0  0  0  0  0
   20.4172   38.8951   -6.6899 C   0  0  0  0  0  0  0  0  0  0  0  0
   21.5538   40.5635   -5.2364 C   0  0  0  0  0  0  0  0  0  0  0  0
   21.2653   41.4365   -4.1096 C   0  0  0  0  0  0  0  0  0  0  0  0
   19.9027   42.1730   -2.3378 C   0  0  0  0  0  0  0  0  0  0  0  0
   20.1481   41.3486   -3.3816 N   0  0  0  0  0  0  0  0  0  0  0  0
   21.9885   43.2535   -2.7369 N   0  0  0  0  0  0  0  0  0  0  0  0
   22.3981   40.8523   -6.1218 O   0  0  0  0  0  0  0  0  0  0  0  0
   20.8371   43.1306   -2.0205 C   0  0  0  0  0  0  0  0  0  0  0  0
   16.4428   38.5929   -7.7145 N   0  0  0  0  0  0  0  0  0  0  0  0
   21.3419   43.9061    0.2538 C   0  0  0  0  0  0  0  0  0  0  0  0
   22.1848   42.4027   -3.7724 C   0  0  0  0  0  0  0  0  0  0  0  0
   21.3654   38.3402   -7.5373 C   0  0  0  0  0  0  0  0  0  0  0  0
   20.9999   37.9247   -8.7790 C   0  0  0  0  0  0  0  0  0  0  0  0
   19.6803   38.0715   -9.1581 C   0  0  0  0  0  0  0  0  0  0  0  0
   15.4591   39.4993   -7.2616 C   0  0  0  0  0  0  0  0  0  0  0  0
   15.8296   40.4674   -9.9392 C   0  0  1  0  0  0  0  0  0  0  0  0
   17.8765   39.8150  -10.8148 F   0  0  0  0  0  0  0  0  0  0  0  0
   17.1969   39.9852   -9.6005 C   0  0  2  0  0  0  0  0  0  0  0  0
   15.1769   39.7074  -11.0692 C   0  0  0  0  0  0  0  0  0  0  0  0
   14.7534   40.5942   -8.4857 S   0  0  0  0  0  0  0  0  0  0  0  0
   15.1049   39.5161   -6.0200 N   0  0  0  0  0  0  0  0  0  0  0  0
   17.0936   37.5070   -9.7280 C   0  0  0  0  0  0  0  0  0  0  0  0
   19.3754   37.6342  -10.4204 F   0  0  0  0  0  0  0  0  0  0  0  0
   20.8841   39.3038   -5.4083 N   0  0  0  0  0  0  0  0  0  0  0  0
   20.5989   43.9817   -0.9542 O   0  0  0  0  0  0  0  0  0  0  0  0
   21.7545   42.6137    0.4538 F   0  0  0  0  0  0  0  0  0  0  0  0
   14.2100   39.1448   -5.6728 H   0  0  0  0  0  0  0  0  0  0  0  0
  1  2  1  1
  1 12  1  0
  1 21  1  0
 25  1  1  6
  3  2  2  0
  2 17  1  0
  4  3  1  0
  4 15  2  0
 27  4  1  0
  5  6  1  0
  5 10  2  0
  5 27  1  0
  6  8  1  0
  6 14  2  0
  8  7  2  0
  7 11  1  0
 11  9  2  0
  9 14  1  0
 11 28  1  0
 12 18  1  0
 28 13  1  0
 13 29  1  6
 15 16  1  0
 16 17  2  0
 17 26  1  0
 18 23  1  0
 18 24  2  0
 21 19  1  0
 22 19  1  6
 19 23  1  1
 21 20  1  6
 24 30  1  0
M  END
$$$$
