
     RDKit          3D

 30 32  0  0  0  0  0  0  0  0999 V2000
   17.1880   38.9302   -8.8256 C   0  0  1  0  0  0  0  0  0  0  0  0
   18.6059   38.7776   -8.3357 C   0  0  0  0  0  0  0  0  0  0  0  0
   19.0235   39.1961   -7.1103 C   0  0  0  0  0  0  0  0  0  0  0  0
   20.3401   39.0212   -6.7321 C   0  0  0  0  0  0  0  0  0  0  0  0
   21.3396   40.7699   -5.2723 C   0  0  0  0  0  0  0  0  0  0  0  0
   21.0262   41.5392   -4.0785 C   0  0  0  0  0  0  0  0  0  0  0  0
   19.6444   42.0869   -2.2539 C   0  0  0  0  0  0  0  0  0  0  0  0
   19.9135   41.3580   -3.3610 N   0  0  0  0  0  0  0  0  0  0  0  0
   21.6951   43.2603   -2.5624 N   0  0  0  0  0  0  0  0  0  0  0  0
   22.0589   41.2178   -6.2007 O   0  0  0  0  0  0  0  0  0  0  0  0
   20.5493   43.0441   -1.8592 C   0  0  0  0  0  0  0  0  0  0  0  0
   16.3407   38.8141   -7.6907 N   0  0  0  0  0  0  0  0  0  0  0  0
   21.3064   44.1618    0.1917 C   0  0  0  0  0  0  0  0  0  0  0  0
   21.9159   42.5028   -3.6633 C   0  0  0  0  0  0  0  0  0  0  0  0
   21.2558   38.4213   -7.5845 C   0  0  0  0  0  0  0  0  0  0  0  0
   20.8568   37.9969   -8.8128 C   0  0  0  0  0  0  0  0  0  0  0  0
   19.5366   38.1802   -9.1734 C   0  0  0  0  0  0  0  0  0  0  0  0
   15.3899   39.7501   -7.2280 C   0  0  0  0  0  0  0  0  0  0  0  0
   15.7473   40.6944   -9.9159 C   0  0  1  0  0  0  0  0  0  0  0  0
   17.7616   39.9801  -10.8184 F   0  0  0  0  0  0  0  0  0  0  0  0
   17.1054   40.1753   -9.5950 C   0  0  2  0  0  0  0  0  0  0  0  0
   15.0566   39.9476  -11.0320 C   0  0  0  0  0  0  0  0  0  0  0  0
   14.6970   40.8586   -8.4473 S   0  0  0  0  0  0  0  0  0  0  0  0
   15.0549   39.7829   -5.9815 N   0  0  0  0  0  0  0  0  0  0  0  0
   16.9304   37.7004   -9.7079 C   0  0  0  0  0  0  0  0  0  0  0  0
   19.1971   37.7317  -10.4229 F   0  0  0  0  0  0  0  0  0  0  0  0
   20.8408   39.4361   -5.4654 N   0  0  0  0  0  0  0  0  0  0  0  0
   20.2868   43.7980   -0.7275 O   0  0  0  0  0  0  0  0  0  0  0  0
   21.5988   43.0891    0.9944 F   0  0  0  0  0  0  0  0  0  0  0  0
   14.2949   39.2199   -5.5757 H   0  0  0  0  0  0  0  0  0  0  0  0
  1  2  1  1
  1 12  1  0
  1 21  1  0
 25  1  1  6
  3  2  2  0
  2 17  1  0
  4  3  1  0
  4 15  2  0
 27  4  1  0
  5  6  1  0
  5 10  2  0
  5 27  1  0
  6  8  1  0
  6 14  2  0
  8  7  2  0
  7 11  1  0
 11  9  2  0
  9 14  1  0
 11 28  1  0
 12 18  1  0
 28 13  1  0
 13 29  1  6
 15 16  1  0
 16 17  2  0
 17 26  1  0
 18 23  1  0
 18 24  2  0
 21 19  1  0
 22 19  1  6
 19 23  1  1
 21 20  1  6
 24 30  1  0
M  END
$$$$
