
     RDKit          3D

 30 32  0  0  0  0  0  0  0  0999 V2000
   16.8390   38.8377   -8.6959 C   0  0  1  0  0  0  0  0  0  0  0  0
   18.2552   38.6876   -8.2002 C   0  0  0  0  0  0  0  0  0  0  0  0
   18.6487   39.0308   -6.9438 C   0  0  0  0  0  0  0  0  0  0  0  0
   19.9653   38.8635   -6.5623 C   0  0  0  0  0  0  0  0  0  0  0  0
   21.1938   40.4076   -5.0474 C   0  0  0  0  0  0  0  0  0  0  0  0
   21.1185   41.1425   -3.7946 C   0  0  0  0  0  0  0  0  0  0  0  0
   20.1748   41.5703   -1.6816 C   0  0  0  0  0  0  0  0  0  0  0  0
   20.2248   40.8717   -2.8386 N   0  0  0  0  0  0  0  0  0  0  0  0
   22.0022   42.8993   -2.4378 N   0  0  0  0  0  0  0  0  0  0  0  0
   21.9137   40.7759   -6.0098 O   0  0  0  0  0  0  0  0  0  0  0  0
   21.0756   42.5912   -1.4887 C   0  0  0  0  0  0  0  0  0  0  0  0
   15.9875   38.7235   -7.5641 N   0  0  0  0  0  0  0  0  0  0  0  0
   19.8320   43.8766    0.1935 C   0  0  0  0  0  0  0  0  0  0  0  0
   22.0090   42.1685   -3.5782 C   0  0  0  0  0  0  0  0  0  0  0  0
   20.9054   38.3474   -7.4425 C   0  0  0  0  0  0  0  0  0  0  0  0
   20.5306   37.9989   -8.7020 C   0  0  0  0  0  0  0  0  0  0  0  0
   19.2100   38.1733   -9.0655 C   0  0  0  0  0  0  0  0  0  0  0  0
   15.0340   39.6598   -7.1074 C   0  0  0  0  0  0  0  0  0  0  0  0
   15.4010   40.5979   -9.7961 C   0  0  1  0  0  0  0  0  0  0  0  0
   17.4195   39.8833  -10.6890 F   0  0  0  0  0  0  0  0  0  0  0  0
   16.7583   40.0809   -9.4687 C   0  0  2  0  0  0  0  0  0  0  0  0
   14.7153   39.8479  -10.9131 C   0  0  0  0  0  0  0  0  0  0  0  0
   14.3449   40.7647   -8.3320 S   0  0  0  0  0  0  0  0  0  0  0  0
   14.6942   39.6953   -5.8622 N   0  0  0  0  0  0  0  0  0  0  0  0
   16.5860   37.6056   -9.5763 C   0  0  0  0  0  0  0  0  0  0  0  0
   18.8956   37.8038  -10.3470 F   0  0  0  0  0  0  0  0  0  0  0  0
   20.4416   39.2024   -5.2639 N   0  0  0  0  0  0  0  0  0  0  0  0
   21.0359   43.3151   -0.3087 O   0  0  0  0  0  0  0  0  0  0  0  0
   18.7674   43.1235   -0.2308 F   0  0  0  0  0  0  0  0  0  0  0  0
   13.8822   39.1963   -5.4737 H   0  0  0  0  0  0  0  0  0  0  0  0
  1  2  1  1
  1 12  1  0
  1 21  1  0
 25  1  1  6
  3  2  2  0
  2 17  1  0
  4  3  1  0
  4 15  2  0
 27  4  1  0
  5  6  1  0
  5 10  2  0
  5 27  1  0
  6  8  1  0
  6 14  2  0
  8  7  2  0
  7 11  1  0
 11  9  2  0
  9 14  1  0
 11 28  1  0
 12 18  1  0
 28 13  1  0
 13 29  1  6
 15 16  1  0
 16 17  2  0
 17 26  1  0
 18 23  1  0
 18 24  2  0
 21 19  1  0
 22 19  1  6
 19 23  1  1
 21 20  1  6
 24 30  1  0
M  END
$$$$
