
     RDKit          3D

 30 32  0  0  0  0  0  0  0  0999 V2000
   16.9983   39.1124   -8.8757 C   0  0  1  0  0  0  0  0  0  0  0  0
   18.4568   38.9936   -8.5639 C   0  0  0  0  0  0  0  0  0  0  0  0
   18.9731   39.3390   -7.3347 C   0  0  0  0  0  0  0  0  0  0  0  0
   20.3226   39.2187   -7.0748 C   0  0  0  0  0  0  0  0  0  0  0  0
   21.2808   40.8918   -5.5105 C   0  0  0  0  0  0  0  0  0  0  0  0
   20.9691   41.5339   -4.2555 C   0  0  0  0  0  0  0  0  0  0  0  0
   19.6311   41.8405   -2.3636 C   0  0  0  0  0  0  0  0  0  0  0  0
   19.8974   41.2146   -3.5464 N   0  0  0  0  0  0  0  0  0  0  0  0
   21.5542   43.1435   -2.5946 N   0  0  0  0  0  0  0  0  0  0  0  0
   21.9248   41.5078   -6.4172 O   0  0  0  0  0  0  0  0  0  0  0  0
   20.4692   42.8203   -1.8765 C   0  0  0  0  0  0  0  0  0  0  0  0
   16.2991   39.5824   -7.7252 N   0  0  0  0  0  0  0  0  0  0  0  0
   21.1086   43.9844    0.1901 C   0  0  0  0  0  0  0  0  0  0  0  0
   21.8107   42.5128   -3.7735 C   0  0  0  0  0  0  0  0  0  0  0  0
   21.1449   38.7414   -8.0827 C   0  0  0  0  0  0  0  0  0  0  0  0
   20.6515   38.3870   -9.3277 C   0  0  0  0  0  0  0  0  0  0  0  0
   19.2979   38.5149   -9.5675 C   0  0  0  0  0  0  0  0  0  0  0  0
   14.9041   39.7165   -7.7687 C   0  0  0  0  0  0  0  0  0  0  0  0
   15.5563   40.5626  -10.3911 C   0  0  1  0  0  0  0  0  0  0  0  0
   16.9956   38.9423  -11.2002 F   0  0  0  0  0  0  0  0  0  0  0  0
   16.8303   39.8511  -10.1398 C   0  0  2  0  0  0  0  0  0  0  0  0
   15.1971   40.5177  -11.8658 C   0  0  0  0  0  0  0  0  0  0  0  0
   14.1748   39.9261   -9.3769 S   0  0  0  0  0  0  0  0  0  0  0  0
   14.1849   39.6929   -6.7284 N   0  0  0  0  0  0  0  0  0  0  0  0
   16.5010   37.6781   -9.1182 C   0  0  0  0  0  0  0  0  0  0  0  0
   18.7685   38.1865  -10.7538 F   0  0  0  0  0  0  0  0  0  0  0  0
   20.9054   39.5602   -5.8265 N   0  0  0  0  0  0  0  0  0  0  0  0
   20.1582   43.4248   -0.6761 O   0  0  0  0  0  0  0  0  0  0  0  0
   21.9925   43.0030    0.5860 F   0  0  0  0  0  0  0  0  0  0  0  0
   14.5021   39.6945   -5.7530 H   0  0  0  0  0  0  0  0  0  0  0  0
  2  1  1  0
  1 12  1  0
  1 21  1  0
  1 25  1  6
  3  2  2  0
  2 17  1  0
  4  3  1  0
  4 15  2  0
 27  4  1  0
  5  6  1  0
  5 10  2  0
  5 27  1  0
  6  8  1  0
  6 14  2  0
  8  7  2  0
  7 11  1  0
 11  9  2  0
  9 14  1  0
 11 28  1  0
 12 18  1  0
 28 13  1  0
 13 29  1  0
 15 16  1  0
 16 17  2  0
 17 26  1  0
 18 23  1  0
 18 24  2  0
 21 19  1  0
 19 22  1  6
 19 23  1  0
 21 20  1  6
 24 30  1  0
M  END
$$$$
