
     RDKit          3D

 30 32  0  0  0  0  0  0  0  0999 V2000
   16.9202   38.6394   -9.1242 C   0  0  1  0  0  0  0  0  0  0  0  0
   18.3625   38.8070   -8.7173 C   0  0  0  0  0  0  0  0  0  0  0  0
   18.8064   39.8307   -7.9388 C   0  0  0  0  0  0  0  0  0  0  0  0
   20.1443   39.9169   -7.6076 C   0  0  0  0  0  0  0  0  0  0  0  0
   21.4723   40.6635   -5.6411 C   0  0  0  0  0  0  0  0  0  0  0  0
   21.2542   41.3301   -4.3670 C   0  0  0  0  0  0  0  0  0  0  0  0
   19.8821   42.0286   -2.5871 C   0  0  0  0  0  0  0  0  0  0  0  0
   20.0594   41.4024   -3.7727 N   0  0  0  0  0  0  0  0  0  0  0  0
   22.2054   42.5565   -2.5505 N   0  0  0  0  0  0  0  0  0  0  0  0
   22.3640   39.7938   -5.8098 O   0  0  0  0  0  0  0  0  0  0  0  0
   20.9707   42.6077   -1.9784 C   0  0  0  0  0  0  0  0  0  0  0  0
   16.1486   38.6380   -7.9309 N   0  0  0  0  0  0  0  0  0  0  0  0
   20.2554   42.5974    0.3703 C   0  0  0  0  0  0  0  0  0  0  0  0
   22.3278   41.9171   -3.7383 C   0  0  0  0  0  0  0  0  0  0  0  0
   21.0551   38.9715   -8.0568 C   0  0  0  0  0  0  0  0  0  0  0  0
   20.6299   37.9417   -8.8357 C   0  0  0  0  0  0  0  0  0  0  0  0
   19.2887   37.8720   -9.1565 C   0  0  0  0  0  0  0  0  0  0  0  0
   15.0783   39.4969   -7.5980 C   0  0  0  0  0  0  0  0  0  0  0  0
   15.1714   39.8998  -10.4393 C   0  0  1  0  0  0  0  0  0  0  0  0
   17.2372   39.3223  -11.3232 F   0  0  0  0  0  0  0  0  0  0  0  0
   16.6071   39.6690  -10.1198 C   0  0  2  0  0  0  0  0  0  0  0  0
   14.5665   38.8410  -11.3301 C   0  0  0  0  0  0  0  0  0  0  0  0
   14.1676   40.2088   -8.9615 S   0  0  0  0  0  0  0  0  0  0  0  0
   14.7922   39.7396   -6.3624 N   0  0  0  0  0  0  0  0  0  0  0  0
   16.8298   37.2277   -9.7209 C   0  0  0  0  0  0  0  0  0  0  0  0
   18.9233   36.8118   -9.9439 F   0  0  0  0  0  0  0  0  0  0  0  0
   20.6730   40.9618   -6.7975 N   0  0  0  0  0  0  0  0  0  0  0  0
   20.8040   43.2524   -0.7641 O   0  0  0  0  0  0  0  0  0  0  0  0
   19.4172   43.4582    1.0313 F   0  0  0  0  0  0  0  0  0  0  0  0
   14.2138   40.5321   -6.0516 H   0  0  0  0  0  0  0  0  0  0  0  0
  1  2  1  1
  1 12  1  0
  1 21  1  0
 25  1  1  6
  3  2  2  0
  2 17  1  0
  4  3  1  0
  4 15  2  0
 27  4  1  0
  5  6  1  0
  5 10  2  0
  5 27  1  0
  6  8  1  0
  6 14  2  0
  8  7  2  0
  7 11  1  0
 11  9  2  0
  9 14  1  0
 11 28  1  0
 12 18  1  0
 28 13  1  0
 13 29  1  6
 15 16  1  0
 16 17  2  0
 17 26  1  0
 18 23  1  0
 18 24  2  0
 21 19  1  0
 22 19  1  6
 19 23  1  1
 21 20  1  6
 24 30  1  0
M  END
$$$$
