
     RDKit          3D

 30 32  0  0  0  0  0  0  0  0999 V2000
   16.9933   39.1527   -8.6532 C   0  0  1  0  0  0  0  0  0  0  0  0
   18.4439   38.9289   -8.3629 C   0  0  0  0  0  0  0  0  0  0  0  0
   18.9876   39.1694   -7.1205 C   0  0  0  0  0  0  0  0  0  0  0  0
   20.3288   38.9536   -6.8811 C   0  0  0  0  0  0  0  0  0  0  0  0
   21.6210   40.3943   -5.3257 C   0  0  0  0  0  0  0  0  0  0  0  0
   21.5187   41.0818   -4.0603 C   0  0  0  0  0  0  0  0  0  0  0  0
   20.4808   41.4945   -2.0070 C   0  0  0  0  0  0  0  0  0  0  0  0
   20.5494   40.8269   -3.1950 N   0  0  0  0  0  0  0  0  0  0  0  0
   22.3985   42.7085   -2.5531 N   0  0  0  0  0  0  0  0  0  0  0  0
   22.3485   40.8535   -6.2618 O   0  0  0  0  0  0  0  0  0  0  0  0
   21.4172   42.4505   -1.6769 C   0  0  0  0  0  0  0  0  0  0  0  0
   16.3461   39.6675   -7.4915 N   0  0  0  0  0  0  0  0  0  0  0  0
   20.0851   43.4533    0.1272 C   0  0  0  0  0  0  0  0  0  0  0  0
   22.4578   42.0366   -3.7357 C   0  0  0  0  0  0  0  0  0  0  0  0
   21.1148   38.4885   -7.9232 C   0  0  0  0  0  0  0  0  0  0  0  0
   20.5935   38.2385   -9.1820 C   0  0  0  0  0  0  0  0  0  0  0  0
   19.2486   38.4609   -9.4009 C   0  0  0  0  0  0  0  0  0  0  0  0
   14.9639   39.9012   -7.5143 C   0  0  0  0  0  0  0  0  0  0  0  0
   15.6373   40.7077  -10.1439 C   0  0  1  0  0  0  0  0  0  0  0  0
   16.9452   38.9914  -10.9778 F   0  0  0  0  0  0  0  0  0  0  0  0
   16.8605   39.9060   -9.9129 C   0  0  2  0  0  0  0  0  0  0  0  0
   15.2546   40.6938  -11.6132 C   0  0  0  0  0  0  0  0  0  0  0  0
   14.2284   40.1681   -9.1113 S   0  0  0  0  0  0  0  0  0  0  0  0
   14.2598   39.9254   -6.4637 N   0  0  0  0  0  0  0  0  0  0  0  0
   16.3912   37.7585   -8.8920 C   0  0  0  0  0  0  0  0  0  0  0  0
   18.6932   38.2354  -10.5993 F   0  0  0  0  0  0  0  0  0  0  0  0
   20.9388   39.1853   -5.6206 N   0  0  0  0  0  0  0  0  0  0  0  0
   21.3063   43.0990   -0.4643 O   0  0  0  0  0  0  0  0  0  0  0  0
   19.7011   42.4589    1.0017 F   0  0  0  0  0  0  0  0  0  0  0  0
   14.2965   39.2704   -5.6754 H   0  0  0  0  0  0  0  0  0  0  0  0
  2  1  1  0
  1 12  1  0
  1 21  1  0
  1 25  1  6
  3  2  2  0
  2 17  1  0
  4  3  1  0
  4 15  2  0
 27  4  1  0
  5  6  1  0
  5 10  2  0
  5 27  1  0
  6  8  1  0
  6 14  2  0
  8  7  2  0
  7 11  1  0
 11  9  2  0
  9 14  1  0
 11 28  1  0
 12 18  1  0
 28 13  1  0
 13 29  1  0
 15 16  1  0
 16 17  2  0
 17 26  1  0
 18 23  1  0
 18 24  2  0
 21 19  1  0
 19 22  1  6
 19 23  1  0
 21 20  1  6
 24 30  1  0
M  END
$$$$
