
     RDKit          3D

 40 43  0  0  0  0  0  0  0  0999 V2000
   65.6375   50.6783   12.8632 C   0  0  0  0  0  0  0  0  0  0  0  0
   64.9813   51.4252   11.8695 O   0  0  0  0  0  0  0  0  0  0  0  0
   66.5389   51.6339   13.6009 C   0  0  0  0  0  0  0  0  0  0  0  0
   67.4578   51.2332   14.5279 C   0  0  0  0  0  0  0  0  0  0  0  0
   68.2879   52.1399   15.2114 C   0  0  0  0  0  0  0  0  0  0  0  0
   68.1799   53.4630   14.9483 C   0  0  0  0  0  0  0  0  0  0  0  0
   67.2329   53.8859   13.9929 C   0  0  0  0  0  0  0  0  0  0  0  0
   66.4262   52.9910   13.3297 C   0  0  0  0  0  0  0  0  0  0  0  0
   69.0706   54.7187   15.7119 S   0  0  1  0  0  6  0  0  0  0  0  0
   68.4127   56.0779   15.6094 O   0  0  0  0  0  0  0  0  0  0  0  0
   68.9597   54.4153   17.2333 O   0  0  0  0  0  0  0  0  0  0  0  0
   70.7281   54.7096   15.3888 N   0  0  0  0  0  0  0  0  0  0  0  0
   71.1856   54.2690   14.1619 C   0  0  0  0  0  0  0  0  0  0  0  0
   72.6028   54.3285   13.7476 C   0  0  1  0  0  0  0  0  0  0  0  0
   73.6199   54.5586   14.8116 C   0  0  0  0  0  0  0  0  0  0  0  0
   72.9854   52.9031   13.1885 C   0  0  0  0  0  0  0  0  0  0  0  0
   71.4599   55.7913   15.9792 C   0  0  0  0  0  0  0  0  0  0  0  0
   71.0308   57.1752   15.7397 C   0  0  1  0  0  0  0  0  0  0  0  0
   72.6760   51.8589   14.2263 C   0  0  0  0  0  0  0  0  0  0  0  0
   70.0573   57.3593   14.7599 O   0  0  0  0  0  0  0  0  0  0  0  0
   70.6852   58.0060   16.9442 C   0  0  1  0  0  0  0  0  0  0  0  0
   71.8807   58.7338   17.4096 N   0  0  0  0  0  0  0  0  0  0  0  0
   72.6335   58.3649   18.5335 C   0  0  0  0  0  0  0  0  0  0  0  0
   72.0013   57.9506   19.5590 O   0  0  0  0  0  0  0  0  0  0  0  0
   74.0279   58.4335   18.5742 O   0  0  0  0  0  0  0  0  0  0  0  0
   74.6486   59.5634   19.0903 C   0  0  1  0  0  0  0  0  0  0  0  0
   74.7873   60.6992   18.1003 C   0  0  0  0  0  0  0  0  0  0  0  0
   74.7928   61.8903   18.7997 O   0  0  0  0  0  0  0  0  0  0  0  0
   74.5195   61.6332   20.1324 C   0  0  1  0  0  0  0  0  0  0  0  0
   73.5140   62.4557   20.6382 O   0  0  0  0  0  0  0  0  0  0  0  0
   72.3229   62.0773   20.0128 C   0  0  0  0  0  0  0  0  0  0  0  0
   72.4403   60.5966   19.7575 C   0  0  0  0  0  0  0  0  0  0  0  0
   73.8510   60.2733   20.1725 C   0  0  1  0  0  0  0  0  0  0  0  0
   69.5958   59.0270   16.6533 C   0  0  0  0  0  0  0  0  0  0  0  0
   68.6559   58.5477   18.9334 C   0  0  0  0  0  0  0  0  0  0  0  0
   68.2251   58.9238   20.1647 C   0  0  0  0  0  0  0  0  0  0  0  0
   68.2549   60.2696   20.5054 C   0  0  0  0  0  0  0  0  0  0  0  0
   68.7066   61.1967   19.6212 C   0  0  0  0  0  0  0  0  0  0  0  0
   69.1495   60.8145   18.3547 C   0  0  0  0  0  0  0  0  0  0  0  0
   69.1236   59.4804   18.0096 C   0  0  0  0  0  0  0  0  0  0  0  0
  1  2  1  0
  3  1  1  0
  4  3  2  0
  8  3  1  0
  5  4  1  0
  6  5  2  0
  6  7  1  0
  9  6  1  0
  7  8  2  0
  9 10  2  0
  9 11  2  0
  9 12  1  6
 12 13  1  0
 17 12  1  0
 13 14  1  0
 14 15  1  1
 14 16  1  0
 16 19  1  0
 18 17  1  0
 18 20  1  6
 21 18  1  0
 21 22  1  0
 21 34  1  6
 22 23  1  0
 23 24  2  0
 23 25  1  0
 26 25  1  6
 26 27  1  0
 26 33  1  0
 27 28  1  0
 29 28  1  6
 29 30  1  0
 33 29  1  0
 31 30  1  0
 32 31  1  0
 33 32  1  6
 40 34  1  0
 35 36  2  0
 35 40  1  0
 36 37  1  0
 37 38  2  0
 38 39  1  0
 39 40  2  0
M  END
$$$$
