
     RDKit          3D

 40 43  0  0  0  0  0  0  0  0999 V2000
   72.6936   48.4706   14.4616 C   0  0  0  0  0  0  0  0  0  0  0  0
   71.4347   47.8579   14.3375 O   0  0  0  0  0  0  0  0  0  0  0  0
   72.4435   49.8974   14.8759 C   0  0  0  0  0  0  0  0  0  0  0  0
   73.3862   50.8808   14.7841 C   0  0  0  0  0  0  0  0  0  0  0  0
   73.1372   52.2071   15.1806 C   0  0  0  0  0  0  0  0  0  0  0  0
   71.9197   52.5323   15.6742 C   0  0  0  0  0  0  0  0  0  0  0  0
   70.9402   51.5227   15.7732 C   0  0  0  0  0  0  0  0  0  0  0  0
   71.1938   50.2288   15.3822 C   0  0  0  0  0  0  0  0  0  0  0  0
   71.4460   54.0806   16.2500 S   0  0  1  0  0  6  0  0  0  0  0  0
   70.6809   54.0345   17.5551 O   0  0  0  0  0  0  0  0  0  0  0  0
   72.7743   54.7699   16.6735 O   0  0  0  0  0  0  0  0  0  0  0  0
   70.7840   55.1006   15.0782 N   0  0  0  0  0  0  0  0  0  0  0  0
   69.4130   55.2482   14.9924 C   0  0  0  0  0  0  0  0  0  0  0  0
   68.6814   55.3689   13.7142 C   0  0  1  0  0  0  0  0  0  0  0  0
   69.0763   54.4523   12.6081 C   0  0  0  0  0  0  0  0  0  0  0  0
   67.1817   54.9657   13.9954 C   0  0  0  0  0  0  0  0  0  0  0  0
   71.5595   56.2724   14.7960 C   0  0  0  0  0  0  0  0  0  0  0  0
   71.0173   57.5981   15.1202 C   0  0  1  0  0  0  0  0  0  0  0  0
   66.9149   55.0307   15.4745 C   0  0  0  0  0  0  0  0  0  0  0  0
   69.9252   58.0204   14.3648 O   0  0  0  0  0  0  0  0  0  0  0  0
   70.7637   57.9013   16.5709 C   0  0  1  0  0  0  0  0  0  0  0  0
   72.0237   58.2985   17.2265 N   0  0  0  0  0  0  0  0  0  0  0  0
   72.7630   57.4612   18.0740 C   0  0  0  0  0  0  0  0  0  0  0  0
   73.1295   56.3304   17.6158 O   0  0  0  0  0  0  0  0  0  0  0  0
   73.1077   57.8109   19.3815 O   0  0  0  0  0  0  0  0  0  0  0  0
   74.0779   58.7792   19.6040 C   0  0  1  0  0  0  0  0  0  0  0  0
   74.6444   59.3886   18.3403 C   0  0  0  0  0  0  0  0  0  0  0  0
   75.0574   60.6760   18.6231 O   0  0  0  0  0  0  0  0  0  0  0  0
   74.6713   61.0017   19.9122 C   0  0  1  0  0  0  0  0  0  0  0  0
   74.0145   62.2296   19.9773 O   0  0  0  0  0  0  0  0  0  0  0  0
   72.7858   62.0709   19.3308 C   0  0  0  0  0  0  0  0  0  0  0  0
   72.3703   60.6426   19.5738 C   0  0  0  0  0  0  0  0  0  0  0  0
   73.5577   60.0397   20.2761 C   0  0  1  0  0  0  0  0  0  0  0  0
   69.7577   59.0261   16.7626 C   0  0  0  0  0  0  0  0  0  0  0  0
   70.1094   58.1260   19.0817 C   0  0  0  0  0  0  0  0  0  0  0  0
   69.8875   58.1215   20.4210 C   0  0  0  0  0  0  0  0  0  0  0  0
   69.0201   59.0612   20.9621 C   0  0  0  0  0  0  0  0  0  0  0  0
   68.4016   59.9707   20.1648 C   0  0  0  0  0  0  0  0  0  0  0  0
   68.6262   59.9783   18.7880 C   0  0  0  0  0  0  0  0  0  0  0  0
   69.4865   59.0490   18.2439 C   0  0  0  0  0  0  0  0  0  0  0  0
  1  2  1  0
  3  1  1  0
  4  3  2  0
  8  3  1  0
  5  4  1  0
  6  5  2  0
  6  7  1  0
  9  6  1  0
  7  8  2  0
  9 10  2  0
  9 11  2  0
  9 12  1  6
 12 13  1  0
 17 12  1  0
 13 14  1  0
 14 15  1  6
 14 16  1  0
 16 19  1  0
 18 17  1  0
 18 20  1  6
 21 18  1  0
 21 22  1  0
 21 34  1  6
 22 23  1  0
 23 24  2  0
 23 25  1  0
 26 25  1  6
 26 27  1  0
 26 33  1  0
 27 28  1  0
 29 28  1  6
 29 30  1  0
 33 29  1  0
 31 30  1  0
 32 31  1  0
 33 32  1  6
 40 34  1  0
 35 36  2  0
 35 40  1  0
 36 37  1  0
 37 38  2  0
 38 39  1  0
 39 40  2  0
M  END
$$$$
