
     RDKit          3D

 40 43  0  0  0  0  0  0  0  0999 V2000
   65.9882   50.3533   12.3766 C   0  0  0  0  0  0  0  0  0  0  0  0
   66.7420   49.1752   12.5166 O   0  0  0  0  0  0  0  0  0  0  0  0
   66.5763   51.3612   13.3296 C   0  0  0  0  0  0  0  0  0  0  0  0
   66.3244   52.7010   13.2531 C   0  0  0  0  0  0  0  0  0  0  0  0
   66.8865   53.6289   14.1483 C   0  0  0  0  0  0  0  0  0  0  0  0
   67.7107   53.1879   15.1270 C   0  0  0  0  0  0  0  0  0  0  0  0
   67.9770   51.8058   15.2130 C   0  0  0  0  0  0  0  0  0  0  0  0
   67.4218   50.9067   14.3329 C   0  0  0  0  0  0  0  0  0  0  0  0
   68.5236   54.1702   16.2792 S   0  0  1  0  0  6  0  0  0  0  0  0
   67.6545   55.2608   16.8674 O   0  0  0  0  0  0  0  0  0  0  0  0
   68.7531   53.2387   17.5033 O   0  0  0  0  0  0  0  0  0  0  0  0
   70.0701   54.6694   15.8198 N   0  0  0  0  0  0  0  0  0  0  0  0
   71.0381   53.7266   15.5319 C   0  0  0  0  0  0  0  0  0  0  0  0
   72.1961   53.9854   14.6511 C   0  0  1  0  0  0  0  0  0  0  0  0
   73.5531   53.7193   15.2054 C   0  0  0  0  0  0  0  0  0  0  0  0
   72.0980   52.9748   13.4429 C   0  0  0  0  0  0  0  0  0  0  0  0
   70.1043   55.8645   15.0295 C   0  0  0  0  0  0  0  0  0  0  0  0
   70.8974   57.0139   15.4841 C   0  0  1  0  0  0  0  0  0  0  0  0
   72.6004   51.6250   13.8774 C   0  0  0  0  0  0  0  0  0  0  0  0
   71.1788   57.9873   14.5276 O   0  0  0  0  0  0  0  0  0  0  0  0
   70.4694   57.6825   16.7610 C   0  0  1  0  0  0  0  0  0  0  0  0
   71.3552   58.8264   17.0479 N   0  0  0  0  0  0  0  0  0  0  0  0
   72.6843   58.6991   17.4761 C   0  0  0  0  0  0  0  0  0  0  0  0
   73.5991   58.7591   16.5916 O   0  0  0  0  0  0  0  0  0  0  0  0
   73.0404   58.5105   18.8134 O   0  0  0  0  0  0  0  0  0  0  0  0
   73.7366   59.5040   19.4890 C   0  0  1  0  0  0  0  0  0  0  0  0
   74.5854   60.3812   18.5949 C   0  0  0  0  0  0  0  0  0  0  0  0
   74.6949   61.6269   19.1815 O   0  0  0  0  0  0  0  0  0  0  0  0
   73.8716   61.6767   20.2936 C   0  0  1  0  0  0  0  0  0  0  0  0
   73.0587   62.8092   20.3042 O   0  0  0  0  0  0  0  0  0  0  0  0
   72.1399   62.6628   19.2613 C   0  0  0  0  0  0  0  0  0  0  0  0
   71.8793   61.1831   19.1423 C   0  0  0  0  0  0  0  0  0  0  0  0
   72.8515   60.5698   20.1148 C   0  0  1  0  0  0  0  0  0  0  0  0
   69.0398   58.1984   16.6964 C   0  0  0  0  0  0  0  0  0  0  0  0
   69.7392   58.6464   19.0675 C   0  0  0  0  0  0  0  0  0  0  0  0
   69.5173   59.1097   20.3241 C   0  0  0  0  0  0  0  0  0  0  0  0
   68.2832   59.6703   20.6261 C   0  0  0  0  0  0  0  0  0  0  0  0
   67.3117   59.7532   19.6801 C   0  0  0  0  0  0  0  0  0  0  0  0
   67.5354   59.2775   18.3879 C   0  0  0  0  0  0  0  0  0  0  0  0
   68.7581   58.7206   18.0806 C   0  0  0  0  0  0  0  0  0  0  0  0
  1  2  1  0
  3  1  1  0
  4  3  2  0
  8  3  1  0
  5  4  1  0
  6  5  2  0
  6  7  1  0
  9  6  1  0
  7  8  2  0
  9 10  2  0
  9 11  2  0
  9 12  1  6
 12 13  1  0
 17 12  1  0
 13 14  1  0
 14 15  1  1
 14 16  1  0
 16 19  1  0
 18 17  1  0
 18 20  1  6
 21 18  1  0
 21 22  1  0
 21 34  1  6
 22 23  1  0
 23 24  2  0
 23 25  1  0
 26 25  1  6
 26 27  1  0
 26 33  1  0
 27 28  1  0
 29 28  1  6
 29 30  1  0
 33 29  1  0
 31 30  1  0
 32 31  1  0
 33 32  1  6
 40 34  1  0
 35 36  2  0
 35 40  1  0
 36 37  1  0
 37 38  2  0
 38 39  1  0
 39 40  2  0
M  END
$$$$
