
     RDKit          3D

 40 43  0  0  0  0  0  0  0  0999 V2000
   65.2325   51.0806   13.1424 C   0  0  0  0  0  0  0  0  0  0  0  0
   65.8528   50.5831   11.9832 O   0  0  0  0  0  0  0  0  0  0  0  0
   66.2575   51.9231   13.8561 C   0  0  0  0  0  0  0  0  0  0  0  0
   67.5279   52.1108   13.3924 C   0  0  0  0  0  0  0  0  0  0  0  0
   68.4740   52.8967   14.0746 C   0  0  0  0  0  0  0  0  0  0  0  0
   68.1227   53.4942   15.2370 C   0  0  0  0  0  0  0  0  0  0  0  0
   66.8128   53.3052   15.7238 C   0  0  0  0  0  0  0  0  0  0  0  0
   65.8949   52.5351   15.0486 C   0  0  0  0  0  0  0  0  0  0  0  0
   69.1497   54.4488   16.2306 S   0  0  1  0  0  6  0  0  0  0  0  0
   69.1218   54.0512   17.6907 O   0  0  0  0  0  0  0  0  0  0  0  0
   70.5926   54.0486   15.8100 O   0  0  0  0  0  0  0  0  0  0  0  0
   69.0628   56.1116   15.9490 N   0  0  0  0  0  0  0  0  0  0  0  0
   68.6484   56.9579   16.9595 C   0  0  0  0  0  0  0  0  0  0  0  0
   68.4942   58.4180   16.7922 C   0  0  1  0  0  0  0  0  0  0  0  0
   67.2637   58.9043   16.1074 C   0  0  0  0  0  0  0  0  0  0  0  0
   68.3711   59.0424   18.2363 C   0  0  0  0  0  0  0  0  0  0  0  0
   70.0774   56.6259   15.0772 C   0  0  0  0  0  0  0  0  0  0  0  0
   71.2073   57.3763   15.6403 C   0  0  1  0  0  0  0  0  0  0  0  0
   67.0370   58.6767   18.8277 C   0  0  0  0  0  0  0  0  0  0  0  0
   70.8851   58.4845   16.4211 O   0  0  0  0  0  0  0  0  0  0  0  0
   72.2858   56.5837   16.3255 C   0  0  1  0  0  0  0  0  0  0  0  0
   72.2697   56.8646   17.7733 N   0  0  0  0  0  0  0  0  0  0  0  0
   72.9431   57.9403   18.3695 C   0  0  0  0  0  0  0  0  0  0  0  0
   72.7385   59.1038   17.8927 O   0  0  0  0  0  0  0  0  0  0  0  0
   73.8173   57.7899   19.4483 O   0  0  0  0  0  0  0  0  0  0  0  0
   74.6330   58.8474   19.8284 C   0  0  1  0  0  0  0  0  0  0  0  0
   75.4432   59.4410   18.6968 C   0  0  0  0  0  0  0  0  0  0  0  0
   75.6823   60.7713   18.9815 O   0  0  0  0  0  0  0  0  0  0  0  0
   74.9737   61.1249   20.1172 C   0  0  1  0  0  0  0  0  0  0  0  0
   74.2345   62.2937   19.9413 O   0  0  0  0  0  0  0  0  0  0  0  0
   73.2131   61.9990   19.0341 C   0  0  0  0  0  0  0  0  0  0  0  0
   72.8545   60.5539   19.2678 C   0  0  0  0  0  0  0  0  0  0  0  0
   73.8769   60.0899   20.2709 C   0  0  1  0  0  0  0  0  0  0  0  0
   72.1157   55.0842   16.1346 C   0  0  0  0  0  0  0  0  0  0  0  0
   74.5543   55.4777   15.6753 C   0  0  0  0  0  0  0  0  0  0  0  0
   75.8128   55.0542   15.3929 C   0  0  0  0  0  0  0  0  0  0  0  0
   76.0474   53.6934   15.2464 C   0  0  0  0  0  0  0  0  0  0  0  0
   75.0342   52.7988   15.3821 C   0  0  0  0  0  0  0  0  0  0  0  0
   73.7393   53.2298   15.6715 C   0  0  0  0  0  0  0  0  0  0  0  0
   73.4990   54.5790   15.8191 C   0  0  0  0  0  0  0  0  0  0  0  0
  1  2  1  0
  3  1  1  0
  4  3  2  0
  8  3  1  0
  5  4  1  0
  6  5  2  0
  6  7  1  0
  9  6  1  0
  7  8  2  0
  9 10  2  0
  9 11  2  0
  9 12  1  1
 12 13  1  0
 17 12  1  0
 13 14  1  0
 14 15  1  6
 14 16  1  0
 16 19  1  0
 18 17  1  0
 18 20  1  1
 21 18  1  0
 21 22  1  0
 21 34  1  1
 22 23  1  0
 23 24  2  0
 23 25  1  0
 26 25  1  6
 26 27  1  0
 26 33  1  0
 27 28  1  0
 29 28  1  6
 29 30  1  0
 33 29  1  0
 31 30  1  0
 32 31  1  0
 33 32  1  6
 40 34  1  0
 35 36  2  0
 35 40  1  0
 36 37  1  0
 37 38  2  0
 38 39  1  0
 39 40  2  0
M  END
$$$$
