
     RDKit          3D

 40 43  0  0  0  0  0  0  0  0999 V2000
   66.4865   50.8748   13.0066 C   0  0  0  0  0  0  0  0  0  0  0  0
   66.3253   49.7835   13.8778 O   0  0  0  0  0  0  0  0  0  0  0  0
   67.1798   51.9583   13.7910 C   0  0  0  0  0  0  0  0  0  0  0  0
   66.9835   53.2903   13.5644 C   0  0  0  0  0  0  0  0  0  0  0  0
   67.6435   54.2888   14.3029 C   0  0  0  0  0  0  0  0  0  0  0  0
   68.5094   53.9268   15.2780 C   0  0  0  0  0  0  0  0  0  0  0  0
   68.7189   52.5532   15.5185 C   0  0  0  0  0  0  0  0  0  0  0  0
   68.0679   51.5846   14.7909 C   0  0  0  0  0  0  0  0  0  0  0  0
   69.4387   54.9972   16.2495 S   0  0  1  0  0  6  0  0  0  0  0  0
   68.6817   56.2333   16.6849 O   0  0  0  0  0  0  0  0  0  0  0  0
   69.6349   54.2426   17.5953 O   0  0  0  0  0  0  0  0  0  0  0  0
   71.0034   55.2888   15.6853 N   0  0  0  0  0  0  0  0  0  0  0  0
   71.8748   54.2324   15.5022 C   0  0  0  0  0  0  0  0  0  0  0  0
   73.3132   54.3997   15.2077 C   0  0  1  0  0  0  0  0  0  0  0  0
   74.1621   55.0205   16.2629 C   0  0  0  0  0  0  0  0  0  0  0  0
   73.9294   52.9547   15.0563 C   0  0  0  0  0  0  0  0  0  0  0  0
   71.1098   56.3603   14.7394 C   0  0  0  0  0  0  0  0  0  0  0  0
   70.7747   57.7295   15.1517 C   0  0  1  0  0  0  0  0  0  0  0  0
   73.0851   52.1475   14.1083 C   0  0  0  0  0  0  0  0  0  0  0  0
   69.5895   58.2556   14.6415 O   0  0  0  0  0  0  0  0  0  0  0  0
   70.8678   58.0482   16.6181 C   0  0  1  0  0  0  0  0  0  0  0  0
   72.2822   58.0739   17.0355 N   0  0  0  0  0  0  0  0  0  0  0  0
   72.7073   58.3403   18.3448 C   0  0  0  0  0  0  0  0  0  0  0  0
   71.8568   58.8359   19.1536 O   0  0  0  0  0  0  0  0  0  0  0  0
   74.0066   58.0893   18.7913 O   0  0  0  0  0  0  0  0  0  0  0  0
   74.7329   59.1009   19.4057 C   0  0  1  0  0  0  0  0  0  0  0  0
   75.2695   60.1443   18.4503 C   0  0  0  0  0  0  0  0  0  0  0  0
   75.3818   61.3419   19.1294 O   0  0  0  0  0  0  0  0  0  0  0  0
   74.8258   61.2008   20.3896 C   0  0  1  0  0  0  0  0  0  0  0  0
   73.9267   62.2222   20.6924 O   0  0  0  0  0  0  0  0  0  0  0  0
   72.8183   62.0519   19.8584 C   0  0  0  0  0  0  0  0  0  0  0  0
   72.6869   60.5664   19.6409 C   0  0  0  0  0  0  0  0  0  0  0  0
   73.9073   59.9973   20.3144 C   0  0  1  0  0  0  0  0  0  0  0  0
   70.2509   59.3958   16.9606 C   0  0  0  0  0  0  0  0  0  0  0  0
   69.6186   60.2031   19.2542 C   0  0  0  0  0  0  0  0  0  0  0  0
   69.0354   60.0475   20.4702 C   0  0  0  0  0  0  0  0  0  0  0  0
   68.4016   58.8472   20.7633 C   0  0  0  0  0  0  0  0  0  0  0  0
   68.3661   57.8430   19.8490 C   0  0  0  0  0  0  0  0  0  0  0  0
   68.9649   57.9986   18.5987 C   0  0  0  0  0  0  0  0  0  0  0  0
   69.5951   59.1875   18.3003 C   0  0  0  0  0  0  0  0  0  0  0  0
  1  2  1  0
  3  1  1  0
  4  3  2  0
  8  3  1  0
  5  4  1  0
  6  5  2  0
  6  7  1  0
  9  6  1  0
  7  8  2  0
  9 10  2  0
  9 11  2  0
  9 12  1  6
 12 13  1  0
 17 12  1  0
 13 14  1  0
 14 15  1  1
 14 16  1  0
 16 19  1  0
 18 17  1  0
 18 20  1  1
 21 18  1  0
 21 22  1  0
 21 34  1  6
 22 23  1  0
 23 24  2  0
 23 25  1  0
 26 25  1  6
 26 27  1  0
 26 33  1  0
 27 28  1  0
 29 28  1  6
 29 30  1  0
 33 29  1  0
 31 30  1  0
 32 31  1  0
 33 32  1  6
 40 34  1  0
 35 36  2  0
 35 40  1  0
 36 37  1  0
 37 38  2  0
 38 39  1  0
 39 40  2  0
M  END
$$$$
