
     RDKit          3D

 40 43  0  0  0  0  0  0  0  0999 V2000
   66.9239   50.5506   12.3885 C   0  0  0  0  0  0  0  0  0  0  0  0
   65.6011   50.2993   12.7921 O   0  0  0  0  0  0  0  0  0  0  0  0
   67.5063   51.5178   13.3862 C   0  0  0  0  0  0  0  0  0  0  0  0
   68.2248   51.1255   14.4790 C   0  0  0  0  0  0  0  0  0  0  0  0
   68.7569   52.0422   15.4035 C   0  0  0  0  0  0  0  0  0  0  0  0
   68.5546   53.3667   15.2129 C   0  0  0  0  0  0  0  0  0  0  0  0
   67.8129   53.7808   14.0873 C   0  0  0  0  0  0  0  0  0  0  0  0
   67.2973   52.8762   13.1888 C   0  0  0  0  0  0  0  0  0  0  0  0
   69.0844   54.6276   16.2534 S   0  0  1  0  0  6  0  0  0  0  0  0
   68.0648   55.7308   16.4377 O   0  0  0  0  0  0  0  0  0  0  0  0
   69.1280   53.9827   17.6681 O   0  0  0  0  0  0  0  0  0  0  0  0
   70.6615   55.1623   15.9732 N   0  0  0  0  0  0  0  0  0  0  0  0
   71.6972   54.2491   15.9248 C   0  0  0  0  0  0  0  0  0  0  0  0
   72.7109   54.2179   14.8501 C   0  0  1  0  0  0  0  0  0  0  0  0
   74.1395   54.3551   15.2498 C   0  0  0  0  0  0  0  0  0  0  0  0
   72.6572   52.7808   14.2001 C   0  0  0  0  0  0  0  0  0  0  0  0
   70.7665   56.2773   15.0789 C   0  0  0  0  0  0  0  0  0  0  0  0
   70.9734   57.6265   15.6208 C   0  0  1  0  0  0  0  0  0  0  0  0
   71.3409   52.5994   13.4946 C   0  0  0  0  0  0  0  0  0  0  0  0
   70.6475   58.6873   14.7782 O   0  0  0  0  0  0  0  0  0  0  0  0
   70.4368   57.9041   16.9977 C   0  0  1  0  0  0  0  0  0  0  0  0
   71.3554   58.8035   17.7205 N   0  0  0  0  0  0  0  0  0  0  0  0
   72.6937   58.4942   18.0020 C   0  0  0  0  0  0  0  0  0  0  0  0
   72.9510   57.3266   18.4419 O   0  0  0  0  0  0  0  0  0  0  0  0
   73.7405   59.4013   17.8235 O   0  0  0  0  0  0  0  0  0  0  0  0
   74.3689   59.9568   18.9303 C   0  0  1  0  0  0  0  0  0  0  0  0
   75.3563   61.0531   18.5951 C   0  0  0  0  0  0  0  0  0  0  0  0
   75.4231   61.9234   19.6656 O   0  0  0  0  0  0  0  0  0  0  0  0
   74.4593   61.5711   20.5952 C   0  0  1  0  0  0  0  0  0  0  0  0
   73.6868   62.6588   20.9996 O   0  0  0  0  0  0  0  0  0  0  0  0
   72.9130   63.0419   19.9007 C   0  0  0  0  0  0  0  0  0  0  0  0
   72.6265   61.7767   19.1335 C   0  0  0  0  0  0  0  0  0  0  0  0
   73.4398   60.7321   19.8506 C   0  0  1  0  0  0  0  0  0  0  0  0
   69.0642   58.5590   16.9656 C   0  0  0  0  0  0  0  0  0  0  0  0
   68.5505   58.3600   19.4169 C   0  0  0  0  0  0  0  0  0  0  0  0
   68.3942   58.8757   20.6630 C   0  0  0  0  0  0  0  0  0  0  0  0
   68.5869   60.2372   20.8563 C   0  0  0  0  0  0  0  0  0  0  0  0
   68.9253   61.0421   19.8155 C   0  0  0  0  0  0  0  0  0  0  0  0
   69.0861   60.5163   18.5334 C   0  0  0  0  0  0  0  0  0  0  0  0
   68.8972   59.1656   18.3340 C   0  0  0  0  0  0  0  0  0  0  0  0
  1  2  1  0
  3  1  1  0
  4  3  2  0
  8  3  1  0
  5  4  1  0
  6  5  2  0
  6  7  1  0
  9  6  1  0
  7  8  2  0
  9 10  2  0
  9 11  2  0
  9 12  1  6
 12 13  1  0
 17 12  1  0
 13 14  1  0
 14 15  1  1
 14 16  1  0
 16 19  1  0
 18 17  1  0
 18 20  1  6
 21 18  1  0
 21 22  1  0
 21 34  1  6
 22 23  1  0
 23 24  2  0
 23 25  1  0
 26 25  1  6
 26 27  1  0
 26 33  1  0
 27 28  1  0
 29 28  1  6
 29 30  1  0
 33 29  1  0
 31 30  1  0
 32 31  1  0
 33 32  1  6
 40 34  1  0
 35 36  2  0
 35 40  1  0
 36 37  1  0
 37 38  2  0
 38 39  1  0
 39 40  2  0
M  END
$$$$
