
     RDKit          3D

 40 43  0  0  0  0  0  0  0  0999 V2000
   67.6888   49.6348   13.3854 C   0  0  0  0  0  0  0  0  0  0  0  0
   68.5153   49.4143   12.2700 O   0  0  0  0  0  0  0  0  0  0  0  0
   68.0838   50.9695   13.9619 C   0  0  0  0  0  0  0  0  0  0  0  0
   68.7614   51.1065   15.1393 C   0  0  0  0  0  0  0  0  0  0  0  0
   69.1176   52.3612   15.6658 C   0  0  0  0  0  0  0  0  0  0  0  0
   68.7803   53.4828   14.9877 C   0  0  0  0  0  0  0  0  0  0  0  0
   68.0797   53.3508   13.7711 C   0  0  0  0  0  0  0  0  0  0  0  0
   67.7366   52.1190   13.2647 C   0  0  0  0  0  0  0  0  0  0  0  0
   69.0868   55.0966   15.4926 S   0  0  1  0  0  6  0  0  0  0  0  0
   67.9812   56.0654   15.1321 O   0  0  0  0  0  0  0  0  0  0  0  0
   68.9900   55.0522   17.0442 O   0  0  0  0  0  0  0  0  0  0  0  0
   70.6480   55.6551   15.1726 N   0  0  0  0  0  0  0  0  0  0  0  0
   71.6891   54.7540   15.0582 C   0  0  0  0  0  0  0  0  0  0  0  0
   72.8654   54.9687   14.1899 C   0  0  1  0  0  0  0  0  0  0  0  0
   74.0824   55.5571   14.8161 C   0  0  0  0  0  0  0  0  0  0  0  0
   73.3590   53.5474   13.7136 C   0  0  0  0  0  0  0  0  0  0  0  0
   70.7109   56.7984   14.3107 C   0  0  0  0  0  0  0  0  0  0  0  0
   71.0363   58.1155   14.8731 C   0  0  1  0  0  0  0  0  0  0  0  0
   72.2828   52.5297   13.9767 C   0  0  0  0  0  0  0  0  0  0  0  0
   70.6088   59.2220   14.1422 O   0  0  0  0  0  0  0  0  0  0  0  0
   70.7323   58.3354   16.3291 C   0  0  1  0  0  0  0  0  0  0  0  0
   71.9409   58.8142   17.0257 N   0  0  0  0  0  0  0  0  0  0  0  0
   72.6304   58.0733   17.9961 C   0  0  0  0  0  0  0  0  0  0  0  0
   71.9425   57.3477   18.7857 O   0  0  0  0  0  0  0  0  0  0  0  0
   74.0203   58.0992   18.1312 O   0  0  0  0  0  0  0  0  0  0  0  0
   74.6038   58.8877   19.1140 C   0  0  1  0  0  0  0  0  0  0  0  0
   75.6008   59.8962   18.5864 C   0  0  0  0  0  0  0  0  0  0  0  0
   75.6237   60.9782   19.4447 O   0  0  0  0  0  0  0  0  0  0  0  0
   74.6255   60.8251   20.3918 C   0  0  1  0  0  0  0  0  0  0  0  0
   73.8351   61.9660   20.5217 O   0  0  0  0  0  0  0  0  0  0  0  0
   73.1037   62.0938   19.3378 C   0  0  0  0  0  0  0  0  0  0  0  0
   72.8503   60.6895   18.8527 C   0  0  0  0  0  0  0  0  0  0  0  0
   73.6378   59.8338   19.8090 C   0  0  1  0  0  0  0  0  0  0  0  0
   69.6278   59.3590   16.5443 C   0  0  0  0  0  0  0  0  0  0  0  0
   69.6237   60.5430   18.7602 C   0  0  0  0  0  0  0  0  0  0  0  0
   69.4299   60.5901   20.1031 C   0  0  0  0  0  0  0  0  0  0  0  0
   69.0023   59.4445   20.7613 C   0  0  0  0  0  0  0  0  0  0  0  0
   68.7823   58.2937   20.0738 C   0  0  0  0  0  0  0  0  0  0  0  0
   68.9810   58.2410   18.6940 C   0  0  0  0  0  0  0  0  0  0  0  0
   69.4046   59.3742   18.0337 C   0  0  0  0  0  0  0  0  0  0  0  0
  1  2  1  0
  3  1  1  0
  4  3  2  0
  8  3  1  0
  5  4  1  0
  6  5  2  0
  6  7  1  0
  9  6  1  0
  7  8  2  0
  9 10  2  0
  9 11  2  0
  9 12  1  1
 12 13  1  0
 17 12  1  0
 13 14  1  0
 14 15  1  1
 14 16  1  0
 16 19  1  0
 18 17  1  0
 18 20  1  6
 21 18  1  0
 21 22  1  0
 21 34  1  6
 22 23  1  0
 23 24  2  0
 23 25  1  0
 26 25  1  6
 26 27  1  0
 26 33  1  0
 27 28  1  0
 29 28  1  6
 29 30  1  0
 33 29  1  0
 31 30  1  0
 32 31  1  0
 33 32  1  6
 40 34  1  0
 35 36  2  0
 35 40  1  0
 36 37  1  0
 37 38  2  0
 38 39  1  0
 39 40  2  0
M  END
$$$$
