
     RDKit          3D

 40 43  0  0  0  0  0  0  0  0999 V2000
   65.5817   51.0010   12.5876 C   0  0  0  0  0  0  0  0  0  0  0  0
   66.1456   49.7207   12.4513 O   0  0  0  0  0  0  0  0  0  0  0  0
   66.4564   51.7607   13.5508 C   0  0  0  0  0  0  0  0  0  0  0  0
   67.4408   51.1734   14.2926 C   0  0  0  0  0  0  0  0  0  0  0  0
   68.2448   51.8973   15.1913 C   0  0  0  0  0  0  0  0  0  0  0  0
   68.0433   53.2278   15.3349 C   0  0  0  0  0  0  0  0  0  0  0  0
   67.0283   53.8426   14.5733 C   0  0  0  0  0  0  0  0  0  0  0  0
   66.2478   53.1258   13.6966 C   0  0  0  0  0  0  0  0  0  0  0  0
   68.8901   54.2653   16.4119 S   0  0  1  0  0  6  0  0  0  0  0  0
   68.0025   55.2790   17.1013 O   0  0  0  0  0  0  0  0  0  0  0  0
   69.3176   53.3478   17.5928 O   0  0  0  0  0  0  0  0  0  0  0  0
   70.3366   54.8898   15.8041 N   0  0  0  0  0  0  0  0  0  0  0  0
   71.3984   54.0420   15.5536 C   0  0  0  0  0  0  0  0  0  0  0  0
   72.5951   54.4356   14.7811 C   0  0  1  0  0  0  0  0  0  0  0  0
   73.8417   54.7217   15.5450 C   0  0  0  0  0  0  0  0  0  0  0  0
   72.9990   53.2005   13.8856 C   0  0  0  0  0  0  0  0  0  0  0  0
   70.1809   55.9855   14.8935 C   0  0  0  0  0  0  0  0  0  0  0  0
   70.8537   57.2613   15.1699 C   0  0  1  0  0  0  0  0  0  0  0  0
   71.9947   52.0963   14.0734 C   0  0  0  0  0  0  0  0  0  0  0  0
   70.5394   58.3217   14.3223 O   0  0  0  0  0  0  0  0  0  0  0  0
   70.8500   57.7463   16.5931 C   0  0  1  0  0  0  0  0  0  0  0  0
   72.2362   57.9019   17.0721 N   0  0  0  0  0  0  0  0  0  0  0  0
   72.5793   58.4833   18.3010 C   0  0  0  0  0  0  0  0  0  0  0  0
   71.6383   58.9715   19.0076 O   0  0  0  0  0  0  0  0  0  0  0  0
   73.8916   58.5493   18.7742 O   0  0  0  0  0  0  0  0  0  0  0  0
   74.3918   59.7514   19.2569 C   0  0  1  0  0  0  0  0  0  0  0  0
   73.8351   60.9755   18.5633 C   0  0  0  0  0  0  0  0  0  0  0  0
   73.8582   62.0309   19.4541 O   0  0  0  0  0  0  0  0  0  0  0  0
   74.2374   61.5621   20.7005 C   0  0  1  0  0  0  0  0  0  0  0  0
   73.3772   61.9846   21.7128 O   0  0  0  0  0  0  0  0  0  0  0  0
   72.1567   61.3346   21.5102 C   0  0  0  0  0  0  0  0  0  0  0  0
   72.4950   59.9942   20.9099 C   0  0  0  0  0  0  0  0  0  0  0  0
   73.9821   60.0680   20.6862 C   0  0  1  0  0  0  0  0  0  0  0  0
   70.1445   59.0849   16.7494 C   0  0  0  0  0  0  0  0  0  0  0  0
   70.0715   60.2285   18.9853 C   0  0  0  0  0  0  0  0  0  0  0  0
   69.7106   60.3023   20.2919 C   0  0  0  0  0  0  0  0  0  0  0  0
   68.9824   59.2589   20.8483 C   0  0  0  0  0  0  0  0  0  0  0  0
   68.6371   58.1801   20.0984 C   0  0  0  0  0  0  0  0  0  0  0  0
   69.0068   58.1000   18.7556 C   0  0  0  0  0  0  0  0  0  0  0  0
   69.7289   59.1321   18.1962 C   0  0  0  0  0  0  0  0  0  0  0  0
  1  2  1  0
  3  1  1  0
  4  3  2  0
  8  3  1  0
  5  4  1  0
  6  5  2  0
  6  7  1  0
  9  6  1  0
  7  8  2  0
  9 10  2  0
  9 11  2  0
  9 12  1  6
 12 13  1  0
 17 12  1  0
 13 14  1  0
 14 15  1  1
 14 16  1  0
 16 19  1  0
 18 17  1  0
 18 20  1  6
 21 18  1  0
 21 22  1  0
 21 34  1  6
 22 23  1  0
 23 24  2  0
 23 25  1  0
 26 25  1  6
 26 27  1  0
 26 33  1  0
 27 28  1  0
 29 28  1  6
 29 30  1  0
 33 29  1  0
 31 30  1  0
 32 31  1  0
 33 32  1  6
 40 34  1  0
 35 36  2  0
 35 40  1  0
 36 37  1  0
 37 38  2  0
 38 39  1  0
 39 40  2  0
M  END
$$$$
