
     RDKit          3D

 40 43  0  0  0  0  0  0  0  0999 V2000
   66.3553   50.9857   13.2266 C   0  0  0  0  0  0  0  0  0  0  0  0
   65.0480   51.4783   13.0710 O   0  0  0  0  0  0  0  0  0  0  0  0
   67.1375   52.0504   13.9507 C   0  0  0  0  0  0  0  0  0  0  0  0
   67.0983   53.3719   13.6097 C   0  0  0  0  0  0  0  0  0  0  0  0
   67.8396   54.3522   14.2936 C   0  0  0  0  0  0  0  0  0  0  0  0
   68.6260   53.9825   15.3311 C   0  0  0  0  0  0  0  0  0  0  0  0
   68.6733   52.6196   15.6898 C   0  0  0  0  0  0  0  0  0  0  0  0
   67.9440   51.6689   15.0148 C   0  0  0  0  0  0  0  0  0  0  0  0
   69.6348   55.0246   16.2529 S   0  0  1  0  0  6  0  0  0  0  0  0
   69.0141   56.3757   16.5358 O   0  0  0  0  0  0  0  0  0  0  0  0
   69.6805   54.3824   17.6687 O   0  0  0  0  0  0  0  0  0  0  0  0
   71.2461   55.0783   15.7503 N   0  0  0  0  0  0  0  0  0  0  0  0
   71.7271   54.1156   14.8837 C   0  0  0  0  0  0  0  0  0  0  0  0
   73.1626   53.9208   14.5923 C   0  0  1  0  0  0  0  0  0  0  0  0
   74.0536   53.5718   15.7340 C   0  0  0  0  0  0  0  0  0  0  0  0
   73.2800   52.6616   13.6482 C   0  0  0  0  0  0  0  0  0  0  0  0
   71.7766   56.3985   15.5776 C   0  0  0  0  0  0  0  0  0  0  0  0
   70.8661   57.5505   15.5564 C   0  0  1  0  0  0  0  0  0  0  0  0
   72.5117   51.5146   14.2460 C   0  0  0  0  0  0  0  0  0  0  0  0
   69.6558   57.3691   14.8902 O   0  0  0  0  0  0  0  0  0  0  0  0
   70.6128   58.2507   16.8627 C   0  0  1  0  0  0  0  0  0  0  0  0
   71.8211   58.9880   17.2774 N   0  0  0  0  0  0  0  0  0  0  0  0
   72.8880   58.4102   17.9801 C   0  0  0  0  0  0  0  0  0  0  0  0
   72.6500   57.3565   18.6554 O   0  0  0  0  0  0  0  0  0  0  0  0
   74.1818   58.9362   17.9710 O   0  0  0  0  0  0  0  0  0  0  0  0
   74.4739   60.0639   18.7268 C   0  0  1  0  0  0  0  0  0  0  0  0
   73.9067   61.3490   18.1643 C   0  0  0  0  0  0  0  0  0  0  0  0
   73.6822   62.2224   19.2105 O   0  0  0  0  0  0  0  0  0  0  0  0
   73.9113   61.5634   20.4065 C   0  0  1  0  0  0  0  0  0  0  0  0
   72.8659   61.7281   21.3140 O   0  0  0  0  0  0  0  0  0  0  0  0
   71.7656   61.0364   20.8002 C   0  0  0  0  0  0  0  0  0  0  0  0
   72.3299   59.8575   20.0497 C   0  0  0  0  0  0  0  0  0  0  0  0
   73.8179   60.0822   20.0981 C   0  0  1  0  0  0  0  0  0  0  0  0
   69.4621   59.2419   16.7776 C   0  0  0  0  0  0  0  0  0  0  0  0
   68.7337   58.5588   19.0830 C   0  0  0  0  0  0  0  0  0  0  0  0
   68.4310   58.8208   20.3802 C   0  0  0  0  0  0  0  0  0  0  0  0
   68.5235   60.1273   20.8416 C   0  0  0  0  0  0  0  0  0  0  0  0
   68.9095   61.1288   20.0089 C   0  0  0  0  0  0  0  0  0  0  0  0
   69.2206   60.8639   18.6750 C   0  0  0  0  0  0  0  0  0  0  0  0
   69.1319   59.5695   18.2100 C   0  0  0  0  0  0  0  0  0  0  0  0
  1  2  1  0
  3  1  1  0
  4  3  2  0
  8  3  1  0
  5  4  1  0
  6  5  2  0
  6  7  1  0
  9  6  1  0
  7  8  2  0
  9 10  2  0
  9 11  2  0
  9 12  1  6
 12 13  1  0
 17 12  1  0
 13 14  1  0
 14 15  1  1
 14 16  1  0
 16 19  1  0
 18 17  1  0
 18 20  1  1
 21 18  1  0
 21 22  1  0
 21 34  1  6
 22 23  1  0
 23 24  2  0
 23 25  1  0
 26 25  1  6
 26 27  1  0
 26 33  1  0
 27 28  1  0
 29 28  1  6
 29 30  1  0
 33 29  1  0
 31 30  1  0
 32 31  1  0
 33 32  1  6
 40 34  1  0
 35 36  2  0
 35 40  1  0
 36 37  1  0
 37 38  2  0
 38 39  1  0
 39 40  2  0
M  END
$$$$
