
     RDKit          3D

 40 43  0  0  0  0  0  0  0  0999 V2000
   65.9951   50.5981   12.6126 C   0  0  0  0  0  0  0  0  0  0  0  0
   66.7172   49.4028   12.7724 O   0  0  0  0  0  0  0  0  0  0  0  0
   66.6577   51.6269   13.4914 C   0  0  0  0  0  0  0  0  0  0  0  0
   66.3321   52.9527   13.4700 C   0  0  0  0  0  0  0  0  0  0  0  0
   66.9650   53.9007   14.2939 C   0  0  0  0  0  0  0  0  0  0  0  0
   67.9362   53.4944   15.1444 C   0  0  0  0  0  0  0  0  0  0  0  0
   68.2795   52.1270   15.1727 C   0  0  0  0  0  0  0  0  0  0  0  0
   67.6540   51.2078   14.3631 C   0  0  0  0  0  0  0  0  0  0  0  0
   68.8498   54.5075   16.1894 S   0  0  1  0  0  6  0  0  0  0  0  0
   68.0450   55.6366   16.7961 O   0  0  0  0  0  0  0  0  0  0  0  0
   69.1584   53.6221   17.4304 O   0  0  0  0  0  0  0  0  0  0  0  0
   70.3639   54.9593   15.5935 N   0  0  0  0  0  0  0  0  0  0  0  0
   71.1468   54.0310   14.9346 C   0  0  0  0  0  0  0  0  0  0  0  0
   72.4541   54.3495   14.3236 C   0  0  1  0  0  0  0  0  0  0  0  0
   73.6540   54.3000   15.2052 C   0  0  0  0  0  0  0  0  0  0  0  0
   72.7518   53.2316   13.2502 C   0  0  0  0  0  0  0  0  0  0  0  0
   70.4379   56.3036   15.1020 C   0  0  0  0  0  0  0  0  0  0  0  0
   71.1711   57.3186   15.8696 C   0  0  1  0  0  0  0  0  0  0  0  0
   73.2712   52.0001   13.9409 C   0  0  0  0  0  0  0  0  0  0  0  0
   71.7768   58.3332   15.1312 O   0  0  0  0  0  0  0  0  0  0  0  0
   70.4725   57.9193   17.0578 C   0  0  1  0  0  0  0  0  0  0  0  0
   71.4560   58.5849   17.9324 N   0  0  0  0  0  0  0  0  0  0  0  0
   72.8204   58.2634   17.9628 C   0  0  0  0  0  0  0  0  0  0  0  0
   73.1378   57.0532   18.2028 O   0  0  0  0  0  0  0  0  0  0  0  0
   73.8309   59.2027   17.7451 O   0  0  0  0  0  0  0  0  0  0  0  0
   74.5537   59.7008   18.8210 C   0  0  1  0  0  0  0  0  0  0  0  0
   75.3864   60.9212   18.4944 C   0  0  0  0  0  0  0  0  0  0  0  0
   75.5225   61.6773   19.6424 O   0  0  0  0  0  0  0  0  0  0  0  0
   74.7296   61.1333   20.6386 C   0  0  1  0  0  0  0  0  0  0  0  0
   73.9274   62.0882   21.2617 O   0  0  0  0  0  0  0  0  0  0  0  0
   72.9801   62.5028   20.3217 C   0  0  0  0  0  0  0  0  0  0  0  0
   72.7031   61.3020   19.4540 C   0  0  0  0  0  0  0  0  0  0  0  0
   73.6951   60.2769   19.9355 C   0  0  1  0  0  0  0  0  0  0  0  0
   69.4255   58.9479   16.6579 C   0  0  0  0  0  0  0  0  0  0  0  0
   67.9889   60.5437   17.9624 C   0  0  0  0  0  0  0  0  0  0  0  0
   67.5135   61.0692   19.1204 C   0  0  0  0  0  0  0  0  0  0  0  0
   67.9697   60.5578   20.3281 C   0  0  0  0  0  0  0  0  0  0  0  0
   68.8785   59.5484   20.3521 C   0  0  0  0  0  0  0  0  0  0  0  0
   69.3701   59.0061   19.1645 C   0  0  0  0  0  0  0  0  0  0  0  0
   68.9213   59.5081   17.9619 C   0  0  0  0  0  0  0  0  0  0  0  0
  1  2  1  0
  3  1  1  0
  4  3  2  0
  8  3  1  0
  5  4  1  0
  6  5  2  0
  6  7  1  0
  9  6  1  0
  7  8  2  0
  9 10  2  0
  9 11  2  0
  9 12  1  6
 12 13  1  0
 17 12  1  0
 13 14  1  0
 14 15  1  1
 14 16  1  0
 16 19  1  0
 18 17  1  0
 18 20  1  6
 21 18  1  0
 21 22  1  0
 21 34  1  6
 22 23  1  0
 23 24  2  0
 23 25  1  0
 26 25  1  6
 26 27  1  0
 26 33  1  0
 27 28  1  0
 29 28  1  6
 29 30  1  0
 33 29  1  0
 31 30  1  0
 32 31  1  0
 33 32  1  6
 40 34  1  0
 35 36  2  0
 35 40  1  0
 36 37  1  0
 37 38  2  0
 38 39  1  0
 39 40  2  0
M  END
$$$$
