
     RDKit          3D

 40 43  0  0  0  0  0  0  0  0999 V2000
   65.9707   50.3077   12.9554 C   0  0  0  0  0  0  0  0  0  0  0  0
   65.0852   50.9446   12.0688 O   0  0  0  0  0  0  0  0  0  0  0  0
   66.6718   51.3961   13.7259 C   0  0  0  0  0  0  0  0  0  0  0  0
   66.3421   52.7172   13.6254 C   0  0  0  0  0  0  0  0  0  0  0  0
   67.0111   53.7212   14.3484 C   0  0  0  0  0  0  0  0  0  0  0  0
   68.0228   53.3758   15.1783 C   0  0  0  0  0  0  0  0  0  0  0  0
   68.3706   52.0137   15.2878 C   0  0  0  0  0  0  0  0  0  0  0  0
   67.7096   51.0395   14.5767 C   0  0  0  0  0  0  0  0  0  0  0  0
   68.9826   54.4602   16.1036 S   0  0  1  0  0  6  0  0  0  0  0  0
   68.1718   55.4056   16.9635 O   0  0  0  0  0  0  0  0  0  0  0  0
   69.6784   53.5648   17.1681 O   0  0  0  0  0  0  0  0  0  0  0  0
   70.2491   55.1866   15.2550 N   0  0  0  0  0  0  0  0  0  0  0  0
   71.1304   54.4036   14.5346 C   0  0  0  0  0  0  0  0  0  0  0  0
   72.5912   54.3987   14.7579 C   0  0  1  0  0  0  0  0  0  0  0  0
   73.0749   54.6640   16.1418 C   0  0  0  0  0  0  0  0  0  0  0  0
   73.1011   52.9321   14.4752 C   0  0  0  0  0  0  0  0  0  0  0  0
   69.9341   56.4631   14.6845 C   0  0  0  0  0  0  0  0  0  0  0  0
   70.7258   57.6419   15.0592 C   0  0  1  0  0  0  0  0  0  0  0  0
   73.1356   52.6918   12.9905 C   0  0  0  0  0  0  0  0  0  0  0  0
   70.7252   58.7000   14.1526 O   0  0  0  0  0  0  0  0  0  0  0  0
   70.5402   58.1809   16.4505 C   0  0  1  0  0  0  0  0  0  0  0  0
   71.8225   58.7016   16.9603 N   0  0  0  0  0  0  0  0  0  0  0  0
   71.9534   59.4307   18.1509 C   0  0  0  0  0  0  0  0  0  0  0  0
   71.5534   58.8809   19.2282 O   0  0  0  0  0  0  0  0  0  0  0  0
   72.4954   60.7168   18.2025 O   0  0  0  0  0  0  0  0  0  0  0  0
   73.2058   61.1220   19.3248 C   0  0  1  0  0  0  0  0  0  0  0  0
   72.6735   60.5658   20.6273 C   0  0  0  0  0  0  0  0  0  0  0  0
   73.7212   60.4706   21.5224 O   0  0  0  0  0  0  0  0  0  0  0  0
   74.9036   60.7722   20.8680 C   0  0  1  0  0  0  0  0  0  0  0  0
   75.8941   59.8169   21.0905 O   0  0  0  0  0  0  0  0  0  0  0  0
   75.4869   58.6471   20.4432 C   0  0  0  0  0  0  0  0  0  0  0  0
   74.7096   59.0925   19.2312 C   0  0  0  0  0  0  0  0  0  0  0  0
   74.6275   60.5876   19.3890 C   0  0  1  0  0  0  0  0  0  0  0  0
   69.5188   59.3067   16.5064 C   0  0  0  0  0  0  0  0  0  0  0  0
   68.7607   60.7037   18.4521 C   0  0  0  0  0  0  0  0  0  0  0  0
   68.4780   60.8896   19.7669 C   0  0  0  0  0  0  0  0  0  0  0  0
   68.6483   59.8296   20.6477 C   0  0  0  0  0  0  0  0  0  0  0  0
   69.0920   58.6253   20.2023 C   0  0  0  0  0  0  0  0  0  0  0  0
   69.3843   58.4304   18.8523 C   0  0  0  0  0  0  0  0  0  0  0  0
   69.2170   59.4776   17.9720 C   0  0  0  0  0  0  0  0  0  0  0  0
  1  2  1  0
  3  1  1  0
  4  3  2  0
  8  3  1  0
  5  4  1  0
  6  5  2  0
  6  7  1  0
  9  6  1  0
  7  8  2  0
  9 10  2  0
  9 11  2  0
  9 12  1  6
 12 13  1  0
 17 12  1  0
 13 14  1  0
 14 15  1  1
 14 16  1  0
 16 19  1  0
 18 17  1  0
 18 20  1  6
 21 18  1  0
 21 22  1  0
 21 34  1  6
 22 23  1  0
 23 24  2  0
 23 25  1  0
 26 25  1  6
 26 27  1  0
 26 33  1  0
 27 28  1  0
 29 28  1  1
 29 30  1  0
 33 29  1  0
 31 30  1  0
 32 31  1  0
 33 32  1  1
 40 34  1  0
 35 36  2  0
 35 40  1  0
 36 37  1  0
 37 38  2  0
 38 39  1  0
 39 40  2  0
M  END
$$$$
