
     RDKit          3D

 40 43  0  0  0  0  0  0  0  0999 V2000
   66.4967   49.8303   12.5735 C   0  0  0  0  0  0  0  0  0  0  0  0
   66.4502   48.8270   13.5569 O   0  0  0  0  0  0  0  0  0  0  0  0
   67.1341   51.0364   13.2130 C   0  0  0  0  0  0  0  0  0  0  0  0
   67.4345   51.1088   14.5430 C   0  0  0  0  0  0  0  0  0  0  0  0
   68.0248   52.2452   15.1246 C   0  0  0  0  0  0  0  0  0  0  0  0
   68.3100   53.3143   14.3454 C   0  0  0  0  0  0  0  0  0  0  0  0
   68.0025   53.2486   12.9708 C   0  0  0  0  0  0  0  0  0  0  0  0
   67.4256   52.1323   12.4118 C   0  0  0  0  0  0  0  0  0  0  0  0
   68.9854   54.8009   14.8813 S   0  0  1  0  0  6  0  0  0  0  0  0
   68.4371   56.0121   14.1579 O   0  0  0  0  0  0  0  0  0  0  0  0
   68.4243   54.9964   16.3186 O   0  0  0  0  0  0  0  0  0  0  0  0
   70.6635   54.7900   15.0699 N   0  0  0  0  0  0  0  0  0  0  0  0
   71.4766   54.6039   13.9685 C   0  0  0  0  0  0  0  0  0  0  0  0
   72.8820   54.1557   14.0554 C   0  0  1  0  0  0  0  0  0  0  0  0
   73.2231   53.1681   15.1175 C   0  0  0  0  0  0  0  0  0  0  0  0
   73.2056   53.3747   12.7228 C   0  0  0  0  0  0  0  0  0  0  0  0
   71.1601   55.6870   16.0714 C   0  0  0  0  0  0  0  0  0  0  0  0
   70.9571   57.1333   15.9165 C   0  0  1  0  0  0  0  0  0  0  0  0
   74.6550   52.9716   12.7183 C   0  0  0  0  0  0  0  0  0  0  0  0
   70.0770   57.5294   14.9116 O   0  0  0  0  0  0  0  0  0  0  0  0
   70.6752   57.9253   17.1631 C   0  0  1  0  0  0  0  0  0  0  0  0
   71.8944   58.6375   17.5895 N   0  0  0  0  0  0  0  0  0  0  0  0
   72.7015   58.2344   18.6628 C   0  0  0  0  0  0  0  0  0  0  0  0
   72.1286   57.6894   19.6617 O   0  0  0  0  0  0  0  0  0  0  0  0
   74.0876   58.4048   18.6815 O   0  0  0  0  0  0  0  0  0  0  0  0
   74.6579   59.3281   19.5477 C   0  0  1  0  0  0  0  0  0  0  0  0
   75.3051   60.5076   18.8554 C   0  0  0  0  0  0  0  0  0  0  0  0
   75.2522   61.5957   19.7046 O   0  0  0  0  0  0  0  0  0  0  0  0
   74.4978   61.2644   20.8173 C   0  0  1  0  0  0  0  0  0  0  0  0
   73.5196   62.2164   21.1002 O   0  0  0  0  0  0  0  0  0  0  0  0
   72.5757   62.1511   20.0717 C   0  0  0  0  0  0  0  0  0  0  0  0
   72.5435   60.7109   19.6286 C   0  0  0  0  0  0  0  0  0  0  0  0
   73.6549   60.0699   20.4166 C   0  0  1  0  0  0  0  0  0  0  0  0
   69.5742   58.9553   16.9610 C   0  0  0  0  0  0  0  0  0  0  0  0
   69.2057   60.5831   18.8389 C   0  0  0  0  0  0  0  0  0  0  0  0
   68.7823   60.9107   20.0865 C   0  0  0  0  0  0  0  0  0  0  0  0
   68.2270   59.9229   20.8891 C   0  0  0  0  0  0  0  0  0  0  0  0
   68.1098   58.6480   20.4348 C   0  0  0  0  0  0  0  0  0  0  0  0
   68.5444   58.3070   19.1538 C   0  0  0  0  0  0  0  0  0  0  0  0
   69.0959   59.2823   18.3511 C   0  0  0  0  0  0  0  0  0  0  0  0
  1  2  1  0
  3  1  1  0
  4  3  2  0
  8  3  1  0
  5  4  1  0
  6  5  2  0
  6  7  1  0
  9  6  1  0
  7  8  2  0
  9 10  2  0
  9 11  2  0
  9 12  1  1
 12 13  1  0
 17 12  1  0
 13 14  1  0
 14 15  1  1
 14 16  1  0
 16 19  1  0
 18 17  1  0
 18 20  1  6
 21 18  1  0
 21 22  1  0
 21 34  1  6
 22 23  1  0
 23 24  2  0
 23 25  1  0
 26 25  1  6
 26 27  1  0
 26 33  1  0
 27 28  1  0
 29 28  1  6
 29 30  1  0
 33 29  1  0
 31 30  1  0
 32 31  1  0
 33 32  1  6
 40 34  1  0
 35 36  2  0
 35 40  1  0
 36 37  1  0
 37 38  2  0
 38 39  1  0
 39 40  2  0
M  END
$$$$
