
     RDKit          3D

 40 43  0  0  0  0  0  0  0  0999 V2000
   65.8409   50.6409   12.9133 C   0  0  0  0  0  0  0  0  0  0  0  0
   66.7723   49.8514   12.2170 O   0  0  0  0  0  0  0  0  0  0  0  0
   66.6325   51.6394   13.7171 C   0  0  0  0  0  0  0  0  0  0  0  0
   66.3683   52.9790   13.7182 C   0  0  0  0  0  0  0  0  0  0  0  0
   67.1213   53.8981   14.4709 C   0  0  0  0  0  0  0  0  0  0  0  0
   68.1501   53.4485   15.2264 C   0  0  0  0  0  0  0  0  0  0  0  0
   68.4306   52.0666   15.2307 C   0  0  0  0  0  0  0  0  0  0  0  0
   67.6878   51.1760   14.4915 C   0  0  0  0  0  0  0  0  0  0  0  0
   69.2066   54.4199   16.1717 S   0  0  1  0  0  6  0  0  0  0  0  0
   68.5001   55.5209   16.9329 O   0  0  0  0  0  0  0  0  0  0  0  0
   69.6860   53.4848   17.3183 O   0  0  0  0  0  0  0  0  0  0  0  0
   70.6218   54.9001   15.3853 N   0  0  0  0  0  0  0  0  0  0  0  0
   71.4835   53.9457   14.8797 C   0  0  0  0  0  0  0  0  0  0  0  0
   72.9287   54.1750   14.6740 C   0  0  1  0  0  0  0  0  0  0  0  0
   73.3540   55.5386   14.2509 C   0  0  0  0  0  0  0  0  0  0  0  0
   73.6329   53.9987   16.0753 C   0  0  0  0  0  0  0  0  0  0  0  0
   70.5026   56.1056   14.6195 C   0  0  0  0  0  0  0  0  0  0  0  0
   71.0911   57.3511   15.1287 C   0  0  1  0  0  0  0  0  0  0  0  0
   74.2587   52.6328   16.1527 C   0  0  0  0  0  0  0  0  0  0  0  0
   71.0222   58.4573   14.2842 O   0  0  0  0  0  0  0  0  0  0  0  0
   70.7165   57.7684   16.5238 C   0  0  1  0  0  0  0  0  0  0  0  0
   71.5523   58.9076   16.9465 N   0  0  0  0  0  0  0  0  0  0  0  0
   72.4091   58.8807   18.0561 C   0  0  0  0  0  0  0  0  0  0  0  0
   72.4392   57.8157   18.7546 O   0  0  0  0  0  0  0  0  0  0  0  0
   73.2180   59.9588   18.4221 O   0  0  0  0  0  0  0  0  0  0  0  0
   74.1583   59.8047   19.4323 C   0  0  1  0  0  0  0  0  0  0  0  0
   75.2996   60.7961   19.3710 C   0  0  0  0  0  0  0  0  0  0  0  0
   75.7742   60.9959   20.6527 O   0  0  0  0  0  0  0  0  0  0  0  0
   74.9465   60.3404   21.5485 C   0  0  1  0  0  0  0  0  0  0  0  0
   74.5490   61.1598   22.6040 O   0  0  0  0  0  0  0  0  0  0  0  0
   73.6979   62.1310   22.0697 C   0  0  0  0  0  0  0  0  0  0  0  0
   72.9760   61.4663   20.9258 C   0  0  0  0  0  0  0  0  0  0  0  0
   73.6336   60.1157   20.8248 C   0  0  1  0  0  0  0  0  0  0  0  0
   69.2583   58.1875   16.6336 C   0  0  0  0  0  0  0  0  0  0  0  0
   68.8454   57.8273   19.0855 C   0  0  0  0  0  0  0  0  0  0  0  0
   68.7117   58.2644   20.3638 C   0  0  0  0  0  0  0  0  0  0  0  0
   68.8482   59.6207   20.6285 C   0  0  0  0  0  0  0  0  0  0  0  0
   69.1102   60.4978   19.6247 C   0  0  0  0  0  0  0  0  0  0  0  0
   69.2476   60.0529   18.3097 C   0  0  0  0  0  0  0  0  0  0  0  0
   69.1142   58.7080   18.0395 C   0  0  0  0  0  0  0  0  0  0  0  0
  1  2  1  0
  3  1  1  0
  4  3  2  0
  8  3  1  0
  5  4  1  0
  6  5  2  0
  6  7  1  0
  9  6  1  0
  7  8  2  0
  9 10  2  0
  9 11  2  0
  9 12  1  6
 12 13  1  0
 17 12  1  0
 13 14  1  0
 14 15  1  1
 14 16  1  0
 16 19  1  0
 18 17  1  0
 18 20  1  6
 21 18  1  0
 21 22  1  0
 21 34  1  6
 22 23  1  0
 23 24  2  0
 23 25  1  0
 26 25  1  6
 26 27  1  0
 26 33  1  0
 27 28  1  0
 29 28  1  6
 29 30  1  0
 33 29  1  0
 31 30  1  0
 32 31  1  0
 33 32  1  6
 40 34  1  0
 35 36  2  0
 35 40  1  0
 36 37  1  0
 37 38  2  0
 38 39  1  0
 39 40  2  0
M  END
$$$$
