
     RDKit          3D

 40 43  0  0  0  0  0  0  0  0999 V2000
   66.9362   50.1131   12.9175 C   0  0  0  0  0  0  0  0  0  0  0  0
   65.8225   50.6684   12.2641 O   0  0  0  0  0  0  0  0  0  0  0  0
   67.5584   51.2183   13.7309 C   0  0  0  0  0  0  0  0  0  0  0  0
   68.4381   50.9943   14.7508 C   0  0  0  0  0  0  0  0  0  0  0  0
   69.0054   52.0381   15.5037 C   0  0  0  0  0  0  0  0  0  0  0  0
   68.6733   53.3179   15.2150 C   0  0  0  0  0  0  0  0  0  0  0  0
   67.7650   53.5585   14.1636 C   0  0  0  0  0  0  0  0  0  0  0  0
   67.2161   52.5306   13.4332 C   0  0  0  0  0  0  0  0  0  0  0  0
   69.2250   54.7153   16.0493 S   0  0  1  0  0  6  0  0  0  0  0  0
   68.2409   55.8650   16.0240 O   0  0  0  0  0  0  0  0  0  0  0  0
   69.2164   54.3102   17.5509 O   0  0  0  0  0  0  0  0  0  0  0  0
   70.8253   55.1476   15.7273 N   0  0  0  0  0  0  0  0  0  0  0  0
   71.8107   54.1792   15.7263 C   0  0  0  0  0  0  0  0  0  0  0  0
   72.8340   54.0541   14.6675 C   0  0  1  0  0  0  0  0  0  0  0  0
   73.9103   53.0441   14.8691 C   0  0  0  0  0  0  0  0  0  0  0  0
   72.1000   53.5410   13.3681 C   0  0  0  0  0  0  0  0  0  0  0  0
   70.9804   56.2007   14.7676 C   0  0  0  0  0  0  0  0  0  0  0  0
   71.0638   57.5939   15.2246 C   0  0  1  0  0  0  0  0  0  0  0  0
   72.3646   52.0706   13.1914 C   0  0  0  0  0  0  0  0  0  0  0  0
   70.4348   58.5453   14.4243 O   0  0  0  0  0  0  0  0  0  0  0  0
   70.7370   57.8650   16.6670 C   0  0  1  0  0  0  0  0  0  0  0  0
   71.7966   57.3137   17.5321 N   0  0  0  0  0  0  0  0  0  0  0  0
   72.8436   58.0758   18.0698 C   0  0  0  0  0  0  0  0  0  0  0  0
   74.0249   57.8295   17.6613 O   0  0  0  0  0  0  0  0  0  0  0  0
   72.6469   59.0782   19.0222 O   0  0  0  0  0  0  0  0  0  0  0  0
   73.7351   59.7892   19.5108 C   0  0  1  0  0  0  0  0  0  0  0  0
   74.5137   60.5346   18.4489 C   0  0  0  0  0  0  0  0  0  0  0  0
   75.1008   61.6402   19.0328 O   0  0  0  0  0  0  0  0  0  0  0  0
   74.6487   61.7565   20.3363 C   0  0  1  0  0  0  0  0  0  0  0  0
   74.1969   63.0421   20.6306 O   0  0  0  0  0  0  0  0  0  0  0  0
   73.0277   63.2438   19.8920 C   0  0  0  0  0  0  0  0  0  0  0  0
   72.3641   61.8945   19.7888 C   0  0  0  0  0  0  0  0  0  0  0  0
   73.3635   60.9563   20.4114 C   0  0  1  0  0  0  0  0  0  0  0  0
   70.6110   59.3513   16.9652 C   0  0  0  0  0  0  0  0  0  0  0  0
   69.4481   58.2452   18.8981 C   0  0  0  0  0  0  0  0  0  0  0  0
   68.7815   58.2709   20.0805 C   0  0  0  0  0  0  0  0  0  0  0  0
   68.5205   59.4966   20.6787 C   0  0  0  0  0  0  0  0  0  0  0  0
   68.9241   60.6527   20.0905 C   0  0  0  0  0  0  0  0  0  0  0  0
   69.6087   60.6306   18.8751 C   0  0  0  0  0  0  0  0  0  0  0  0
   69.8720   59.4178   18.2758 C   0  0  0  0  0  0  0  0  0  0  0  0
  1  2  1  0
  3  1  1  0
  4  3  2  0
  8  3  1  0
  5  4  1  0
  6  5  2  0
  6  7  1  0
  9  6  1  0
  7  8  2  0
  9 10  2  0
  9 11  2  0
  9 12  1  6
 12 13  1  0
 17 12  1  0
 13 14  1  0
 14 15  1  1
 14 16  1  0
 16 19  1  0
 18 17  1  0
 18 20  1  6
 21 18  1  0
 21 22  1  0
 21 34  1  6
 22 23  1  0
 23 24  2  0
 23 25  1  0
 26 25  1  6
 26 27  1  0
 26 33  1  0
 27 28  1  0
 29 28  1  6
 29 30  1  0
 33 29  1  0
 31 30  1  0
 32 31  1  0
 33 32  1  6
 40 34  1  0
 35 36  2  0
 35 40  1  0
 36 37  1  0
 37 38  2  0
 38 39  1  0
 39 40  2  0
M  END
$$$$
