
     RDKit          3D

 40 43  0  0  0  0  0  0  0  0999 V2000
   65.7667   50.5277   13.0141 C   0  0  0  0  0  0  0  0  0  0  0  0
   64.9078   51.1765   12.1101 O   0  0  0  0  0  0  0  0  0  0  0  0
   66.5315   51.6059   13.7369 C   0  0  0  0  0  0  0  0  0  0  0  0
   66.3178   52.9394   13.5363 C   0  0  0  0  0  0  0  0  0  0  0  0
   67.0451   53.9330   14.2161 C   0  0  0  0  0  0  0  0  0  0  0  0
   67.9964   53.5644   15.1053 C   0  0  0  0  0  0  0  0  0  0  0  0
   68.2244   52.1892   15.3183 C   0  0  0  0  0  0  0  0  0  0  0  0
   67.5072   51.2255   14.6487 C   0  0  0  0  0  0  0  0  0  0  0  0
   69.0134   54.6281   15.9926 S   0  0  1  0  0  6  0  0  0  0  0  0
   68.2549   55.6443   16.8189 O   0  0  0  0  0  0  0  0  0  0  0  0
   69.6627   53.7348   17.0878 O   0  0  0  0  0  0  0  0  0  0  0  0
   70.3152   55.2569   15.1198 N   0  0  0  0  0  0  0  0  0  0  0  0
   71.0985   54.4149   14.3541 C   0  0  0  0  0  0  0  0  0  0  0  0
   72.5531   54.2457   14.5519 C   0  0  1  0  0  0  0  0  0  0  0  0
   73.2171   55.1280   15.5519 C   0  0  0  0  0  0  0  0  0  0  0  0
   72.7782   52.8002   15.1440 C   0  0  0  0  0  0  0  0  0  0  0  0
   70.1019   56.5706   14.5881 C   0  0  0  0  0  0  0  0  0  0  0  0
   70.8771   57.7019   15.1137 C   0  0  1  0  0  0  0  0  0  0  0  0
   74.2507   52.5639   15.3413 C   0  0  0  0  0  0  0  0  0  0  0  0
   70.8865   58.8584   14.3366 O   0  0  0  0  0  0  0  0  0  0  0  0
   70.6596   58.0741   16.5542 C   0  0  1  0  0  0  0  0  0  0  0  0
   71.8859   58.6814   17.1044 N   0  0  0  0  0  0  0  0  0  0  0  0
   72.2592   58.6061   18.4539 C   0  0  0  0  0  0  0  0  0  0  0  0
   71.3375   58.6978   19.3286 O   0  0  0  0  0  0  0  0  0  0  0  0
   73.5812   58.4384   18.8718 O   0  0  0  0  0  0  0  0  0  0  0  0
   74.2264   59.4645   19.5494 C   0  0  1  0  0  0  0  0  0  0  0  0
   74.8706   60.4929   18.6457 C   0  0  0  0  0  0  0  0  0  0  0  0
   74.8979   61.7032   19.3107 O   0  0  0  0  0  0  0  0  0  0  0  0
   74.1958   61.5824   20.4980 C   0  0  1  0  0  0  0  0  0  0  0  0
   73.2644   62.6049   20.6723 O   0  0  0  0  0  0  0  0  0  0  0  0
   72.2639   62.4141   19.7154 C   0  0  0  0  0  0  0  0  0  0  0  0
   72.1632   60.9242   19.5115 C   0  0  0  0  0  0  0  0  0  0  0  0
   73.2959   60.3734   20.3363 C   0  0  1  0  0  0  0  0  0  0  0  0
   69.5212   59.0671   16.7326 C   0  0  0  0  0  0  0  0  0  0  0  0
   69.0694   58.0136   18.9683 C   0  0  0  0  0  0  0  0  0  0  0  0
   68.8909   58.0659   20.3131 C   0  0  0  0  0  0  0  0  0  0  0  0
   68.9688   59.2950   20.9545 C   0  0  0  0  0  0  0  0  0  0  0  0
   69.2184   60.4285   20.2485 C   0  0  0  0  0  0  0  0  0  0  0  0
   69.4015   60.3793   18.8664 C   0  0  0  0  0  0  0  0  0  0  0  0
   69.3264   59.1627   18.2230 C   0  0  0  0  0  0  0  0  0  0  0  0
  1  2  1  0
  3  1  1  0
  4  3  2  0
  8  3  1  0
  5  4  1  0
  6  5  2  0
  6  7  1  0
  9  6  1  0
  7  8  2  0
  9 10  2  0
  9 11  2  0
  9 12  1  6
 12 13  1  0
 17 12  1  0
 13 14  1  0
 14 15  1  1
 14 16  1  0
 16 19  1  0
 18 17  1  0
 18 20  1  6
 21 18  1  0
 21 22  1  0
 21 34  1  6
 22 23  1  0
 23 24  2  0
 23 25  1  0
 26 25  1  6
 26 27  1  0
 26 33  1  0
 27 28  1  0
 29 28  1  6
 29 30  1  0
 33 29  1  0
 31 30  1  0
 32 31  1  0
 33 32  1  6
 40 34  1  0
 35 36  2  0
 35 40  1  0
 36 37  1  0
 37 38  2  0
 38 39  1  0
 39 40  2  0
M  END
$$$$
