
     RDKit          3D

 40 43  0  0  0  0  0  0  0  0999 V2000
   65.9397   50.2295   12.5507 C   0  0  0  0  0  0  0  0  0  0  0  0
   66.4829   49.0052   12.9769 O   0  0  0  0  0  0  0  0  0  0  0  0
   66.6575   51.3125   13.3135 C   0  0  0  0  0  0  0  0  0  0  0  0
   66.5131   52.6426   13.0415 C   0  0  0  0  0  0  0  0  0  0  0  0
   67.1955   53.6404   13.7606 C   0  0  0  0  0  0  0  0  0  0  0  0
   68.0305   53.2795   14.7625 C   0  0  0  0  0  0  0  0  0  0  0  0
   68.1864   51.9078   15.0499 C   0  0  0  0  0  0  0  0  0  0  0  0
   67.5140   50.9399   14.3410 C   0  0  0  0  0  0  0  0  0  0  0  0
   68.9805   54.3470   15.7171 S   0  0  1  0  0  6  0  0  0  0  0  0
   68.2753   55.6403   16.0648 O   0  0  0  0  0  0  0  0  0  0  0  0
   69.0883   53.6502   17.1034 O   0  0  0  0  0  0  0  0  0  0  0  0
   70.5776   54.5297   15.1997 N   0  0  0  0  0  0  0  0  0  0  0  0
   71.1267   53.6074   14.3298 C   0  0  0  0  0  0  0  0  0  0  0  0
   72.4036   52.9067   14.5793 C   0  0  1  0  0  0  0  0  0  0  0  0
   72.8936   51.9763   13.5240 C   0  0  0  0  0  0  0  0  0  0  0  0
   73.5344   54.0058   14.6412 C   0  0  0  0  0  0  0  0  0  0  0  0
   70.9982   55.8881   15.0208 C   0  0  0  0  0  0  0  0  0  0  0  0
   71.9352   56.4907   15.9776 C   0  0  1  0  0  0  0  0  0  0  0  0
   73.6653   54.6654   13.2954 C   0  0  0  0  0  0  0  0  0  0  0  0
   73.0376   57.1464   15.4333 O   0  0  0  0  0  0  0  0  0  0  0  0
   71.3489   57.3342   17.0756 C   0  0  1  0  0  0  0  0  0  0  0  0
   72.0675   58.6197   17.1566 N   0  0  0  0  0  0  0  0  0  0  0  0
   72.9410   58.9640   18.1980 C   0  0  0  0  0  0  0  0  0  0  0  0
   72.6400   58.5785   19.3743 O   0  0  0  0  0  0  0  0  0  0  0  0
   74.1098   59.7027   18.0010 O   0  0  0  0  0  0  0  0  0  0  0  0
   74.7512   60.2827   19.0875 C   0  0  1  0  0  0  0  0  0  0  0  0
   75.3615   61.6359   18.7948 C   0  0  0  0  0  0  0  0  0  0  0  0
   75.3820   62.3685   19.9656 O   0  0  0  0  0  0  0  0  0  0  0  0
   74.7045   61.6679   20.9491 C   0  0  1  0  0  0  0  0  0  0  0  0
   73.7603   62.4536   21.6082 O   0  0  0  0  0  0  0  0  0  0  0  0
   72.7451   62.7305   20.6886 C   0  0  0  0  0  0  0  0  0  0  0  0
   72.6644   61.5273   19.7845 C   0  0  0  0  0  0  0  0  0  0  0  0
   73.8212   60.6707   20.2258 C   0  0  1  0  0  0  0  0  0  0  0  0
   69.8736   57.6322   16.8551 C   0  0  0  0  0  0  0  0  0  0  0  0
   68.9750   57.5278   19.1990 C   0  0  0  0  0  0  0  0  0  0  0  0
   68.5640   58.0979   20.3604 C   0  0  0  0  0  0  0  0  0  0  0  0
   68.5945   59.4812   20.4782 C   0  0  0  0  0  0  0  0  0  0  0  0
   69.0274   60.2532   19.4476 C   0  0  0  0  0  0  0  0  0  0  0  0
   69.4499   59.6714   18.2522 C   0  0  0  0  0  0  0  0  0  0  0  0
   69.4231   58.2989   18.1282 C   0  0  0  0  0  0  0  0  0  0  0  0
  1  2  1  0
  3  1  1  0
  4  3  2  0
  8  3  1  0
  5  4  1  0
  6  5  2  0
  6  7  1  0
  9  6  1  0
  7  8  2  0
  9 10  2  0
  9 11  2  0
  9 12  1  6
 12 13  1  0
 17 12  1  0
 13 14  1  0
 14 15  1  6
 14 16  1  0
 16 19  1  0
 18 17  1  0
 18 20  1  6
 21 18  1  0
 21 22  1  0
 21 34  1  6
 22 23  1  0
 23 24  2  0
 23 25  1  0
 26 25  1  6
 26 27  1  0
 26 33  1  0
 27 28  1  0
 29 28  1  6
 29 30  1  0
 33 29  1  0
 31 30  1  0
 32 31  1  0
 33 32  1  6
 40 34  1  0
 35 36  2  0
 35 40  1  0
 36 37  1  0
 37 38  2  0
 38 39  1  0
 39 40  2  0
M  END
$$$$
