
     RDKit          3D

 40 43  0  0  0  0  0  0  0  0999 V2000
   66.2821   50.6951   12.9415 C   0  0  0  0  0  0  0  0  0  0  0  0
   65.3800   51.3295   12.0700 O   0  0  0  0  0  0  0  0  0  0  0  0
   66.9375   51.7812   13.7545 C   0  0  0  0  0  0  0  0  0  0  0  0
   66.7557   53.1124   13.5117 C   0  0  0  0  0  0  0  0  0  0  0  0
   67.3799   54.1134   14.2776 C   0  0  0  0  0  0  0  0  0  0  0  0
   68.1947   53.7546   15.2969 C   0  0  0  0  0  0  0  0  0  0  0  0
   68.3888   52.3819   15.5544 C   0  0  0  0  0  0  0  0  0  0  0  0
   67.7732   51.4108   14.7997 C   0  0  0  0  0  0  0  0  0  0  0  0
   69.0763   54.8281   16.3086 S   0  0  1  0  0  6  0  0  0  0  0  0
   68.2572   55.9965   16.8132 O   0  0  0  0  0  0  0  0  0  0  0  0
   69.3345   54.0217   17.6132 O   0  0  0  0  0  0  0  0  0  0  0  0
   70.6137   55.2355   15.7409 N   0  0  0  0  0  0  0  0  0  0  0  0
   71.5176   54.2375   15.4314 C   0  0  0  0  0  0  0  0  0  0  0  0
   72.7095   54.4473   14.5835 C   0  0  1  0  0  0  0  0  0  0  0  0
   73.8926   55.0994   15.2117 C   0  0  0  0  0  0  0  0  0  0  0  0
   73.2557   53.0210   14.1858 C   0  0  0  0  0  0  0  0  0  0  0  0
   70.6554   56.4000   14.9064 C   0  0  0  0  0  0  0  0  0  0  0  0
   71.3065   57.6219   15.3961 C   0  0  1  0  0  0  0  0  0  0  0  0
   73.1686   52.1026   15.3741 C   0  0  0  0  0  0  0  0  0  0  0  0
   71.3274   58.7046   14.5192 O   0  0  0  0  0  0  0  0  0  0  0  0
   70.9231   58.1026   16.7682 C   0  0  1  0  0  0  0  0  0  0  0  0
   72.0061   58.9327   17.3280 N   0  0  0  0  0  0  0  0  0  0  0  0
   72.8539   58.5181   18.3650 C   0  0  0  0  0  0  0  0  0  0  0  0
   72.3287   57.8992   19.3468 O   0  0  0  0  0  0  0  0  0  0  0  0
   74.2305   58.7540   18.3657 O   0  0  0  0  0  0  0  0  0  0  0  0
   74.7844   59.6058   19.3122 C   0  0  1  0  0  0  0  0  0  0  0  0
   75.5112   60.7952   18.7235 C   0  0  0  0  0  0  0  0  0  0  0  0
   75.4501   61.8366   19.6288 O   0  0  0  0  0  0  0  0  0  0  0  0
   74.6233   61.4747   20.6788 C   0  0  1  0  0  0  0  0  0  0  0  0
   73.6657   62.4474   20.9622 O   0  0  0  0  0  0  0  0  0  0  0  0
   72.7789   62.4750   19.8824 C   0  0  0  0  0  0  0  0  0  0  0  0
   72.7198   61.0635   19.3575 C   0  0  0  0  0  0  0  0  0  0  0  0
   73.7617   60.3376   20.1665 C   0  0  1  0  0  0  0  0  0  0  0  0
   69.6493   58.9340   16.7582 C   0  0  0  0  0  0  0  0  0  0  0  0
   69.5727   60.5975   18.6394 C   0  0  0  0  0  0  0  0  0  0  0  0
   69.3623   60.9460   19.9345 C   0  0  0  0  0  0  0  0  0  0  0  0
   68.9742   59.9670   20.8397 C   0  0  0  0  0  0  0  0  0  0  0  0
   68.8085   58.6802   20.4372 C   0  0  0  0  0  0  0  0  0  0  0  0
   69.0245   58.3178   19.1075 C   0  0  0  0  0  0  0  0  0  0  0  0
   69.4091   59.2842   18.2031 C   0  0  0  0  0  0  0  0  0  0  0  0
  1  2  1  0
  3  1  1  0
  4  3  2  0
  8  3  1  0
  5  4  1  0
  6  5  2  0
  6  7  1  0
  9  6  1  0
  7  8  2  0
  9 10  2  0
  9 11  2  0
  9 12  1  6
 12 13  1  0
 17 12  1  0
 13 14  1  0
 14 15  1  1
 14 16  1  0
 16 19  1  0
 18 17  1  0
 18 20  1  6
 21 18  1  0
 21 22  1  0
 21 34  1  6
 22 23  1  0
 23 24  2  0
 23 25  1  0
 26 25  1  6
 26 27  1  0
 26 33  1  0
 27 28  1  0
 29 28  1  6
 29 30  1  0
 33 29  1  0
 31 30  1  0
 32 31  1  0
 33 32  1  6
 40 34  1  0
 35 36  2  0
 35 40  1  0
 36 37  1  0
 37 38  2  0
 38 39  1  0
 39 40  2  0
M  END
$$$$
