
     RDKit          3D

 24 26  0  0  0  0  0  0  0  0999 V2000
   11.2513   27.6348   66.6464 O   0  0  0  0  0  0  0  0  0  0  0  0
   11.8274   28.9238   66.6511 C   0  0  1  0  0  0  0  0  0  0  0  0
   11.4714   29.5395   65.3129 C   0  0  0  0  0  0  0  0  0  0  0  0
   11.1898   29.6647   67.8046 C   0  0  0  0  0  0  0  0  0  0  0  0
   13.2866   28.7806   66.7867 C   0  0  0  0  0  0  0  0  0  0  0  0
   13.9731   29.3302   67.8447 C   0  0  0  0  0  0  0  0  0  0  0  0
   15.3544   29.1584   67.9146 C   0  0  0  0  0  0  0  0  0  0  0  0
   16.0606   28.4475   66.9460 C   0  0  0  0  0  0  0  0  0  0  0  0
   17.5036   28.2687   67.0200 C   0  0  0  0  0  0  0  0  0  0  0  0
   18.1134   27.0102   66.9083 C   0  0  0  0  0  0  0  0  0  0  0  0
   19.4792   26.8763   66.9827 C   0  0  0  0  0  0  0  0  0  0  0  0
   20.1777   25.5993   66.8746 C   0  0  1  0  0  0  0  0  0  0  0  0
   20.3881   24.9019   68.1911 C   0  0  0  0  0  0  0  0  0  0  0  0
   19.5035   23.8549   68.5150 N   0  0  0  0  0  0  0  0  0  0  0  0
   21.3289   25.2211   68.9924 N   0  0  0  0  0  4  0  0  0  0  0  0
   19.6572   24.6145   65.8548 C   0  0  0  0  0  0  0  0  0  0  0  0
   20.5597   25.3364   64.8408 C   0  0  0  0  0  0  0  0  0  0  0  0
   21.4425   25.6558   66.0404 C   0  0  0  0  0  0  0  0  0  0  0  0
   20.2310   28.0403   67.1732 C   0  0  0  0  0  0  0  0  0  0  0  0
   19.6754   29.2905   67.2875 C   0  0  0  0  0  0  0  0  0  0  0  0
   20.6772   30.7126   67.5259 Cl  0  0  0  0  0  0  0  0  0  0  0  0
   18.2961   29.3803   67.2069 C   0  0  0  0  0  0  0  0  0  0  0  0
   15.3534   27.9061   65.8959 C   0  0  0  0  0  0  0  0  0  0  0  0
   13.9947   28.0818   65.8382 C   0  0  0  0  0  0  0  0  0  0  0  0
  2  1  1  6
  3  2  1  1
  4  2  1  1
  2  5  1  0
  5 24  2  0
  5  6  1  0
  6  7  2  0
  7  8  1  0
  8  9  1  0
  8 23  2  0
  9 22  1  0
  9 10  2  0
 10 11  1  0
 12 11  1  1
 11 19  2  0
 12 18  1  0
 12 13  1  0
 16 12  1  6
 13 14  1  0
 13 15  2  3
 17 16  1  6
 18 17  1  1
 19 20  1  0
 20 21  1  0
 20 22  2  0
 23 24  1  0
M  CHG  1  15   1
M  END
$$$$
