
     RDKit          3D

 24 26  0  0  0  0  0  0  0  0999 V2000
   31.1765   40.6359   62.4853 O   0  0  0  0  0  0  0  0  0  0  0  0
   31.6194   40.7604   63.8201 C   0  0  1  0  0  0  0  0  0  0  0  0
   32.6401   39.6583   64.0204 C   0  0  0  0  0  0  0  0  0  0  0  0
   32.2391   42.1352   63.9306 C   0  0  0  0  0  0  0  0  0  0  0  0
   30.4644   40.5691   64.7132 C   0  0  0  0  0  0  0  0  0  0  0  0
   29.1714   40.7143   64.2663 C   0  0  0  0  0  0  0  0  0  0  0  0
   28.1222   40.5195   65.1627 C   0  0  0  0  0  0  0  0  0  0  0  0
   28.3430   40.1824   66.4968 C   0  0  0  0  0  0  0  0  0  0  0  0
   27.2461   39.9791   67.4323 C   0  0  0  0  0  0  0  0  0  0  0  0
   27.1116   40.7296   68.6100 C   0  0  0  0  0  0  0  0  0  0  0  0
   26.0635   40.5122   69.4721 C   0  0  0  0  0  0  0  0  0  0  0  0
   25.8637   41.2555   70.7121 C   0  0  1  0  0  0  0  0  0  0  0  0
   24.8521   42.3643   70.6064 C   0  0  0  0  0  0  0  0  0  0  0  0
   23.5029   41.9933   70.4471 N   0  0  0  0  0  0  0  0  0  0  0  0
   25.1782   43.5969   70.6671 N   0  0  0  0  0  4  0  0  0  0  0  0
   25.6066   40.4501   71.9635 C   0  0  0  0  0  0  0  0  0  0  0  0
   27.1351   40.3718   72.1100 C   0  0  0  0  0  0  0  0  0  0  0  0
   27.1501   41.7065   71.3760 C   0  0  0  0  0  0  0  0  0  0  0  0
   25.1425   39.5173   69.1282 C   0  0  0  0  0  0  0  0  0  0  0  0
   25.2362   38.7603   67.9868 C   0  0  0  0  0  0  0  0  0  0  0  0
   24.0448   37.5258   67.6138 Cl  0  0  0  0  0  0  0  0  0  0  0  0
   26.3073   39.0120   67.1461 C   0  0  0  0  0  0  0  0  0  0  0  0
   29.6450   40.0422   66.9224 C   0  0  0  0  0  0  0  0  0  0  0  0
   30.6687   40.2364   66.0312 C   0  0  0  0  0  0  0  0  0  0  0  0
  2  1  1  6
  3  2  1  1
  4  2  1  1
  2  5  1  0
  5 24  2  0
  5  6  1  0
  6  7  2  0
  7  8  1  0
  8  9  1  0
  8 23  2  0
  9 22  1  0
  9 10  2  0
 10 11  1  0
 12 11  1  6
 11 19  2  0
 12 18  1  0
 12 13  1  0
 16 12  1  6
 13 14  1  0
 13 15  2  3
 17 16  1  6
 18 17  1  1
 19 20  1  0
 20 21  1  0
 20 22  2  0
 23 24  1  0
M  CHG  1  15   1
M  END
$$$$
