
     RDKit          3D

 24 26  0  0  0  0  0  0  0  0999 V2000
   32.9090   49.1112   44.4064 O   0  0  0  0  0  0  0  0  0  0  0  0
   32.1719   47.9285   44.6326 C   0  0  1  0  0  0  0  0  0  0  0  0
   31.4413   47.6436   43.3359 C   0  0  0  0  0  0  0  0  0  0  0  0
   33.1871   46.8568   44.9597 C   0  0  0  0  0  0  0  0  0  0  0  0
   31.2163   48.1778   45.7248 C   0  0  0  0  0  0  0  0  0  0  0  0
   30.3094   47.2241   46.1255 C   0  0  0  0  0  0  0  0  0  0  0  0
   29.4316   47.5231   47.1659 C   0  0  0  0  0  0  0  0  0  0  0  0
   29.4448   48.7579   47.8120 C   0  0  0  0  0  0  0  0  0  0  0  0
   28.5274   49.0692   48.8988 C   0  0  0  0  0  0  0  0  0  0  0  0
   28.7255   50.1557   49.7640 C   0  0  0  0  0  0  0  0  0  0  0  0
   27.8396   50.4218   50.7805 C   0  0  0  0  0  0  0  0  0  0  0  0
   27.9851   51.5334   51.7150 C   0  0  1  0  0  0  0  0  0  0  0  0
   27.8786   52.8909   51.0748 C   0  0  0  0  0  0  0  0  0  0  0  0
   29.0817   53.5463   50.7487 N   0  0  0  0  0  0  0  0  0  0  0  0
   26.7556   53.4408   50.8182 N   0  0  0  0  0  4  0  0  0  0  0  0
   27.1422   51.4943   52.9675 C   0  0  0  0  0  0  0  0  0  0  0  0
   28.2760   50.6612   53.5874 C   0  0  0  0  0  0  0  0  0  0  0  0
   29.1883   51.4175   52.6302 C   0  0  0  0  0  0  0  0  0  0  0  0
   26.7391   49.5691   50.9154 C   0  0  0  0  0  0  0  0  0  0  0  0
   26.5073   48.4956   50.0917 C   0  0  0  0  0  0  0  0  0  0  0  0
   25.1048   47.4634   50.3157 Cl  0  0  0  0  0  0  0  0  0  0  0  0
   27.4244   48.2636   49.0806 C   0  0  0  0  0  0  0  0  0  0  0  0
   30.3607   49.6975   47.3947 C   0  0  0  0  0  0  0  0  0  0  0  0
   31.2191   49.3916   46.3701 C   0  0  0  0  0  0  0  0  0  0  0  0
  2  1  1  6
  3  2  1  1
  4  2  1  1
  2  5  1  0
  5 24  2  0
  5  6  1  0
  6  7  2  0
  7  8  1  0
  8  9  1  0
  8 23  2  0
  9 22  1  0
  9 10  2  0
 10 11  1  0
 12 11  1  6
 11 19  2  0
 12 18  1  0
 12 13  1  0
 16 12  1  6
 13 14  1  0
 13 15  2  3
 17 16  1  6
 18 17  1  1
 19 20  1  0
 20 21  1  0
 20 22  2  0
 23 24  1  0
M  CHG  1  15   1
M  END
$$$$
