
     RDKit          3D

 24 26  0  0  0  0  0  0  0  0999 V2000
   28.0911   40.5458   64.8928 O   0  0  0  0  0  0  0  0  0  0  0  0
   27.9740   39.7007   63.7678 C   0  0  1  0  0  0  0  0  0  0  0  0
   28.9829   40.2136   62.7600 C   0  0  0  0  0  0  0  0  0  0  0  0
   28.3118   38.3085   64.2513 C   0  0  0  0  0  0  0  0  0  0  0  0
   26.6046   39.8170   63.2392 C   0  0  0  0  0  0  0  0  0  0  0  0
   26.3251   39.6322   61.9049 C   0  0  0  0  0  0  0  0  0  0  0  0
   25.0074   39.7565   61.4684 C   0  0  0  0  0  0  0  0  0  0  0  0
   23.9653   40.0621   62.3419 C   0  0  0  0  0  0  0  0  0  0  0  0
   22.5891   40.1917   61.8847 C   0  0  0  0  0  0  0  0  0  0  0  0
   21.5754   40.7317   62.6904 C   0  0  0  0  0  0  0  0  0  0  0  0
   20.2857   40.8398   62.2278 C   0  0  0  0  0  0  0  0  0  0  0  0
   19.1848   41.3909   63.0117 C   0  0  1  0  0  0  0  0  0  0  0  0
   18.8622   42.8254   62.6924 C   0  0  0  0  0  0  0  0  0  0  0  0
   19.2636   43.8000   63.6265 N   0  0  0  0  0  0  0  0  0  0  0  0
   18.2605   43.1698   61.6207 N   0  0  0  0  0  4  0  0  0  0  0  0
   17.9097   40.5836   63.0697 C   0  0  0  0  0  0  0  0  0  0  0  0
   18.5481   39.8419   64.2555 C   0  0  0  0  0  0  0  0  0  0  0  0
   19.3029   41.1418   64.5026 C   0  0  0  0  0  0  0  0  0  0  0  0
   20.0280   40.3916   60.9282 C   0  0  0  0  0  0  0  0  0  0  0  0
   20.9893   39.8572   60.1067 C   0  0  0  0  0  0  0  0  0  0  0  0
   20.5987   39.3128   58.4838 Cl  0  0  0  0  0  0  0  0  0  0  0  0
   22.2752   39.7667   60.6122 C   0  0  0  0  0  0  0  0  0  0  0  0
   24.2678   40.2429   63.6729 C   0  0  0  0  0  0  0  0  0  0  0  0
   25.5680   40.1180   64.0903 C   0  0  0  0  0  0  0  0  0  0  0  0
  2  1  1  1
  3  2  1  1
  4  2  1  1
  2  5  1  0
  5 24  2  0
  5  6  1  0
  6  7  2  0
  7  8  1  0
  8  9  1  0
  8 23  2  0
  9 22  1  0
  9 10  2  0
 10 11  1  0
 12 11  1  6
 11 19  2  0
 12 18  1  0
 12 13  1  0
 16 12  1  6
 13 14  1  0
 13 15  2  3
 17 16  1  6
 18 17  1  1
 19 20  1  0
 20 21  1  0
 20 22  2  0
 23 24  1  0
M  CHG  1  15   1
M  END
$$$$
