
     RDKit          3D

 24 26  0  0  0  0  0  0  0  0999 V2000
   30.9959   41.2153   62.1915 O   0  0  0  0  0  0  0  0  0  0  0  0
   31.4236   40.5309   63.3500 C   0  0  1  0  0  0  0  0  0  0  0  0
   31.8794   39.1651   62.8774 C   0  0  0  0  0  0  0  0  0  0  0  0
   32.5635   41.3436   63.9213 C   0  0  0  0  0  0  0  0  0  0  0  0
   30.2785   40.4091   64.2676 C   0  0  0  0  0  0  0  0  0  0  0  0
   29.0217   40.8471   63.9196 C   0  0  0  0  0  0  0  0  0  0  0  0
   27.9800   40.7027   64.8341 C   0  0  0  0  0  0  0  0  0  0  0  0
   28.1728   40.1287   66.0893 C   0  0  0  0  0  0  0  0  0  0  0  0
   27.0838   39.9783   67.0439 C   0  0  0  0  0  0  0  0  0  0  0  0
   27.2610   40.1605   68.4236 C   0  0  0  0  0  0  0  0  0  0  0  0
   26.2112   40.0108   69.2979 C   0  0  0  0  0  0  0  0  0  0  0  0
   26.3255   40.1853   70.7424 C   0  0  1  0  0  0  0  0  0  0  0  0
   25.7105   41.4584   71.2571 C   0  0  0  0  0  0  0  0  0  0  0  0
   26.5569   42.5763   71.3888 N   0  0  0  0  0  0  0  0  0  0  0  0
   24.4733   41.5484   71.5580 N   0  0  0  0  0  4  0  0  0  0  0  0
   25.8983   39.0264   71.6115 C   0  0  0  0  0  0  0  0  0  0  0  0
   27.3299   38.4939   71.4366 C   0  0  0  0  0  0  0  0  0  0  0  0
   27.7235   39.9575   71.2833 C   0  0  0  0  0  0  0  0  0  0  0  0
   24.9665   39.6714   68.7576 C   0  0  0  0  0  0  0  0  0  0  0  0
   24.7492   39.4840   67.4152 C   0  0  0  0  0  0  0  0  0  0  0  0
   23.1601   39.0584   66.8017 Cl  0  0  0  0  0  0  0  0  0  0  0  0
   25.8339   39.6446   66.5697 C   0  0  0  0  0  0  0  0  0  0  0  0
   29.4388   39.6972   66.4166 C   0  0  0  0  0  0  0  0  0  0  0  0
   30.4555   39.8447   65.5084 C   0  0  0  0  0  0  0  0  0  0  0  0
  2  1  1  6
  3  2  1  1
  4  2  1  1
  2  5  1  0
  5 24  2  0
  5  6  1  0
  6  7  2  0
  7  8  1  0
  8  9  1  0
  8 23  2  0
  9 22  1  0
  9 10  2  0
 10 11  1  0
 12 11  1  6
 11 19  2  0
 12 18  1  0
 12 13  1  0
 16 12  1  6
 13 14  1  0
 13 15  2  3
 17 16  1  6
 18 17  1  1
 19 20  1  0
 20 21  1  0
 20 22  2  0
 23 24  1  0
M  CHG  1  15   1
M  END
$$$$
