
     RDKit          3D

 24 26  0  0  0  0  0  0  0  0999 V2000
   20.3647   41.4725   70.5254 O   0  0  0  0  0  0  0  0  0  0  0  0
   21.4214   40.6935   71.0451 C   0  0  1  0  0  0  0  0  0  0  0  0
   21.8876   41.4125   72.2949 C   0  0  0  0  0  0  0  0  0  0  0  0
   20.8296   39.3376   71.3573 C   0  0  0  0  0  0  0  0  0  0  0  0
   22.4980   40.6417   70.0419 C   0  0  0  0  0  0  0  0  0  0  0  0
   23.7175   40.0674   70.3170 C   0  0  0  0  0  0  0  0  0  0  0  0
   24.6947   40.0508   69.3236 C   0  0  0  0  0  0  0  0  0  0  0  0
   24.4741   40.5979   68.0609 C   0  0  0  0  0  0  0  0  0  0  0  0
   25.4958   40.5800   67.0237 C   0  0  0  0  0  0  0  0  0  0  0  0
   26.8557   40.3867   67.3092 C   0  0  0  0  0  0  0  0  0  0  0  0
   27.7949   40.3753   66.3059 C   0  0  0  0  0  0  0  0  0  0  0  0
   29.2234   40.1797   66.5322 C   0  0  1  0  0  0  0  0  0  0  0  0
   30.0669   40.3313   65.2954 C   0  0  0  0  0  0  0  0  0  0  0  0
   30.5467   41.6211   64.9962 N   0  0  0  0  0  0  0  0  0  0  0  0
   30.3577   39.3446   64.5397 N   0  0  0  0  0  4  0  0  0  0  0  0
   29.8507   40.9456   67.6727 C   0  0  0  0  0  0  0  0  0  0  0  0
   29.4208   39.7725   68.5685 C   0  0  0  0  0  0  0  0  0  0  0  0
   29.5589   38.9231   67.3116 C   0  0  0  0  0  0  0  0  0  0  0  0
   27.3408   40.5634   64.9964 C   0  0  0  0  0  0  0  0  0  0  0  0
   26.0205   40.7558   64.6730 C   0  0  0  0  0  0  0  0  0  0  0  0
   25.5166   40.9863   63.0069 Cl  0  0  0  0  0  0  0  0  0  0  0  0
   25.1076   40.7602   65.7140 C   0  0  0  0  0  0  0  0  0  0  0  0
   23.2465   41.1675   67.8073 C   0  0  0  0  0  0  0  0  0  0  0  0
   22.2931   41.1778   68.7928 C   0  0  0  0  0  0  0  0  0  0  0  0
  2  1  1  6
  3  2  1  1
  4  2  1  1
  2  5  1  0
  5 24  2  0
  5  6  1  0
  6  7  2  0
  7  8  1  0
  8  9  1  0
  8 23  2  0
  9 22  1  0
  9 10  2  0
 10 11  1  0
 12 11  1  6
 11 19  2  0
 12 18  1  0
 12 13  1  0
 16 12  1  6
 13 14  1  0
 13 15  2  3
 17 16  1  6
 18 17  1  1
 19 20  1  0
 20 21  1  0
 20 22  2  0
 23 24  1  0
M  CHG  1  15   1
M  END
$$$$
