
     RDKit          3D

 24 26  0  0  0  0  0  0  0  0999 V2000
   16.4599   42.3979   64.9053 O   0  0  0  0  0  0  0  0  0  0  0  0
   17.4264   41.4181   64.5903 C   0  0  1  0  0  0  0  0  0  0  0  0
   18.7662   42.0321   64.9432 C   0  0  0  0  0  0  0  0  0  0  0  0
   17.1061   40.2191   65.4539 C   0  0  0  0  0  0  0  0  0  0  0  0
   17.3476   41.1340   63.1476 C   0  0  0  0  0  0  0  0  0  0  0  0
   17.7922   39.9446   62.6183 C   0  0  0  0  0  0  0  0  0  0  0  0
   17.6894   39.7378   61.2439 C   0  0  0  0  0  0  0  0  0  0  0  0
   17.1505   40.6986   60.3903 C   0  0  0  0  0  0  0  0  0  0  0  0
   17.0436   40.4815   58.9546 C   0  0  0  0  0  0  0  0  0  0  0  0
   15.9385   40.9158   58.2073 C   0  0  0  0  0  0  0  0  0  0  0  0
   15.8690   40.6945   56.8526 C   0  0  0  0  0  0  0  0  0  0  0  0
   14.7507   41.1188   56.0163 C   0  0  1  0  0  0  0  0  0  0  0  0
   14.9237   42.4835   55.4068 C   0  0  0  0  0  0  0  0  0  0  0  0
   16.1040   42.7182   54.6751 N   0  0  0  0  0  0  0  0  0  0  0  0
   14.0459   43.4026   55.5251 N   0  0  0  0  0  4  0  0  0  0  0  0
   14.2722   40.1482   54.9628 C   0  0  0  0  0  0  0  0  0  0  0  0
   13.3835   39.5440   56.0622 C   0  0  0  0  0  0  0  0  0  0  0  0
   13.3920   40.9426   56.6658 C   0  0  0  0  0  0  0  0  0  0  0  0
   16.9397   40.0224   56.2541 C   0  0  0  0  0  0  0  0  0  0  0  0
   18.0393   39.5808   56.9473 C   0  0  0  0  0  0  0  0  0  0  0  0
   19.3504   38.7424   56.1343 Cl  0  0  0  0  0  0  0  0  0  0  0  0
   18.0688   39.8244   58.3099 C   0  0  0  0  0  0  0  0  0  0  0  0
   16.7118   41.8817   60.9416 C   0  0  0  0  0  0  0  0  0  0  0  0
   16.8181   42.0734   62.2951 C   0  0  0  0  0  0  0  0  0  0  0  0
  2  1  1  1
  3  2  1  1
  4  2  1  1
  2  5  1  0
  5 24  2  0
  5  6  1  0
  6  7  2  0
  7  8  1  0
  8  9  1  0
  8 23  2  0
  9 22  1  0
  9 10  2  0
 10 11  1  0
 12 11  1  1
 11 19  2  0
 12 18  1  0
 12 13  1  0
 16 12  1  6
 13 14  1  0
 13 15  2  3
 17 16  1  6
 18 17  1  1
 19 20  1  0
 20 21  1  0
 20 22  2  0
 23 24  1  0
M  CHG  1  15   1
M  END
$$$$
