
     RDKit          3D

 24 26  0  0  0  0  0  0  0  0999 V2000
   28.1638   43.9440   38.3199 O   0  0  0  0  0  0  0  0  0  0  0  0
   27.0681   44.2557   39.1540 C   0  0  1  0  0  0  0  0  0  0  0  0
   26.2865   45.3294   38.4241 C   0  0  0  0  0  0  0  0  0  0  0  0
   26.2749   42.9768   39.3010 C   0  0  0  0  0  0  0  0  0  0  0  0
   27.5879   44.7683   40.4327 C   0  0  0  0  0  0  0  0  0  0  0  0
   27.3972   46.0744   40.8207 C   0  0  0  0  0  0  0  0  0  0  0  0
   27.9150   46.4971   42.0436 C   0  0  0  0  0  0  0  0  0  0  0  0
   28.6196   45.6376   42.8845 C   0  0  0  0  0  0  0  0  0  0  0  0
   29.1601   46.0802   44.1619 C   0  0  0  0  0  0  0  0  0  0  0  0
   29.2881   47.4367   44.4962 C   0  0  0  0  0  0  0  0  0  0  0  0
   29.8027   47.8208   45.7114 C   0  0  0  0  0  0  0  0  0  0  0  0
   29.9633   49.2118   46.1228 C   0  0  1  0  0  0  0  0  0  0  0  0
   31.3622   49.7417   45.9614 C   0  0  0  0  0  0  0  0  0  0  0  0
   31.8117   49.9868   44.6494 N   0  0  0  0  0  0  0  0  0  0  0  0
   32.1244   49.9773   46.9578 N   0  0  0  0  0  4  0  0  0  0  0  0
   28.9741   50.2111   45.5715 C   0  0  0  0  0  0  0  0  0  0  0  0
   28.0765   49.8322   46.7608 C   0  0  0  0  0  0  0  0  0  0  0  0
   29.3796   49.5237   47.4870 C   0  0  0  0  0  0  0  0  0  0  0  0
   30.1910   46.8086   46.5952 C   0  0  0  0  0  0  0  0  0  0  0  0
   30.0831   45.4704   46.3086 C   0  0  0  0  0  0  0  0  0  0  0  0
   30.5896   44.2492   47.4640 Cl  0  0  0  0  0  0  0  0  0  0  0  0
   29.5595   45.1275   45.0735 C   0  0  0  0  0  0  0  0  0  0  0  0
   28.7986   44.3348   42.4763 C   0  0  0  0  0  0  0  0  0  0  0  0
   28.2845   43.9307   41.2710 C   0  0  0  0  0  0  0  0  0  0  0  0
  2  1  1  6
  3  2  1  1
  4  2  1  1
  2  5  1  0
  5 24  2  0
  5  6  1  0
  6  7  2  0
  7  8  1  0
  8  9  1  0
  8 23  2  0
  9 22  1  0
  9 10  2  0
 10 11  1  0
 12 11  1  6
 11 19  2  0
 12 18  1  0
 12 13  1  0
 16 12  1  6
 13 14  1  0
 13 15  2  3
 17 16  1  6
 18 17  1  1
 19 20  1  0
 20 21  1  0
 20 22  2  0
 23 24  1  0
M  CHG  1  15   1
M  END
$$$$
