
     RDKit          3D

 24 26  0  0  0  0  0  0  0  0999 V2000
   33.1224   46.7200   46.3836 O   0  0  0  0  0  0  0  0  0  0  0  0
   31.8012   46.9098   45.9233 C   0  0  1  0  0  0  0  0  0  0  0  0
   31.9266   47.3393   44.4755 C   0  0  0  0  0  0  0  0  0  0  0  0
   31.1120   45.5710   46.0608 C   0  0  0  0  0  0  0  0  0  0  0  0
   31.1760   47.9717   46.7293 C   0  0  0  0  0  0  0  0  0  0  0  0
   31.1404   47.9124   48.1033 C   0  0  0  0  0  0  0  0  0  0  0  0
   30.5333   48.9504   48.8077 C   0  0  0  0  0  0  0  0  0  0  0  0
   29.9618   50.0458   48.1628 C   0  0  0  0  0  0  0  0  0  0  0  0
   29.3278   51.1297   48.8997 C   0  0  0  0  0  0  0  0  0  0  0  0
   28.4923   50.9024   50.0036 C   0  0  0  0  0  0  0  0  0  0  0  0
   27.9092   51.9488   50.6774 C   0  0  0  0  0  0  0  0  0  0  0  0
   27.0312   51.7838   51.8315 C   0  0  1  0  0  0  0  0  0  0  0  0
   25.5853   52.0914   51.5512 C   0  0  0  0  0  0  0  0  0  0  0  0
   25.3118   53.1028   50.6100 N   0  0  0  0  0  0  0  0  0  0  0  0
   24.6293   51.4675   52.1221 N   0  0  0  0  0  4  0  0  0  0  0  0
   27.1361   50.4855   52.5958 C   0  0  0  0  0  0  0  0  0  0  0  0
   28.2649   51.1591   53.3933 C   0  0  0  0  0  0  0  0  0  0  0  0
   27.5336   52.4609   53.0916 C   0  0  0  0  0  0  0  0  0  0  0  0
   28.1821   53.2418   50.2191 C   0  0  0  0  0  0  0  0  0  0  0  0
   28.9930   53.5089   49.1440 C   0  0  0  0  0  0  0  0  0  0  0  0
   29.2948   55.1572   48.6197 Cl  0  0  0  0  0  0  0  0  0  0  0  0
   29.5601   52.4258   48.4940 C   0  0  0  0  0  0  0  0  0  0  0  0
   30.0089   50.0847   46.7873 C   0  0  0  0  0  0  0  0  0  0  0  0
   30.6089   49.0574   46.1054 C   0  0  0  0  0  0  0  0  0  0  0  0
  2  1  1  1
  3  2  1  1
  4  2  1  1
  2  5  1  0
  5 24  2  0
  5  6  1  0
  6  7  2  0
  7  8  1  0
  8  9  1  0
  8 23  2  0
  9 22  1  0
  9 10  2  0
 10 11  1  0
 12 11  1  6
 11 19  2  0
 12 18  1  0
 12 13  1  0
 16 12  1  6
 13 14  1  0
 13 15  2  3
 17 16  1  6
 18 17  1  1
 19 20  1  0
 20 21  1  0
 20 22  2  0
 23 24  1  0
M  CHG  1  15   1
M  END
$$$$
