
     RDKit          3D

 24 26  0  0  0  0  0  0  0  0999 V2000
   11.1871   53.1842   67.5412 O   0  0  0  0  0  0  0  0  0  0  0  0
   11.7442   52.4600   68.6176 C   0  0  1  0  0  0  0  0  0  0  0  0
   13.1158   53.0602   68.8523 C   0  0  0  0  0  0  0  0  0  0  0  0
   10.8199   52.6784   69.7940 C   0  0  0  0  0  0  0  0  0  0  0  0
   11.8554   51.0468   68.2192 C   0  0  0  0  0  0  0  0  0  0  0  0
   12.8924   50.5943   67.4366 C   0  0  0  0  0  0  0  0  0  0  0  0
   12.9396   49.2441   67.0944 C   0  0  0  0  0  0  0  0  0  0  0  0
   11.9691   48.3394   67.5208 C   0  0  0  0  0  0  0  0  0  0  0  0
   12.0195   46.9290   67.1628 C   0  0  0  0  0  0  0  0  0  0  0  0
   12.5496   46.4797   65.9440 C   0  0  0  0  0  0  0  0  0  0  0  0
   12.5821   45.1404   65.6371 C   0  0  0  0  0  0  0  0  0  0  0  0
   13.1186   44.6054   64.3896 C   0  0  1  0  0  0  0  0  0  0  0  0
   14.6209   44.6266   64.3089 C   0  0  0  0  0  0  0  0  0  0  0  0
   15.2073   44.2192   63.0950 N   0  0  0  0  0  0  0  0  0  0  0  0
   15.3537   45.0047   65.2831 N   0  0  0  0  0  4  0  0  0  0  0  0
   12.6041   43.2583   63.9410 C   0  0  0  0  0  0  0  0  0  0  0  0
   11.4595   44.0297   63.2638 C   0  0  0  0  0  0  0  0  0  0  0  0
   12.4636   45.1689   63.1437 C   0  0  0  0  0  0  0  0  0  0  0  0
   12.0676   44.2498   66.5849 C   0  0  0  0  0  0  0  0  0  0  0  0
   11.5401   44.6463   67.7887 C   0  0  0  0  0  0  0  0  0  0  0  0
   10.9098   43.4755   68.9354 Cl  0  0  0  0  0  0  0  0  0  0  0  0
   11.5268   46.0045   68.0577 C   0  0  0  0  0  0  0  0  0  0  0  0
   10.9403   48.8140   68.3032 C   0  0  0  0  0  0  0  0  0  0  0  0
   10.9047   50.1444   68.6332 C   0  0  0  0  0  0  0  0  0  0  0  0
  2  1  1  6
  3  2  1  1
  4  2  1  1
  2  5  1  0
  5 24  2  0
  5  6  1  0
  6  7  2  0
  7  8  1  0
  8  9  1  0
  8 23  2  0
  9 22  1  0
  9 10  2  0
 10 11  1  0
 12 11  1  1
 11 19  2  0
 12 18  1  0
 12 13  1  0
 16 12  1  6
 13 14  1  0
 13 15  2  3
 17 16  1  6
 18 17  1  1
 19 20  1  0
 20 21  1  0
 20 22  2  0
 23 24  1  0
M  CHG  1  15   1
M  END
$$$$
