
     RDKit          3D

 24 26  0  0  0  0  0  0  0  0999 V2000
   28.8692   48.0409   70.5350 O   0  0  0  0  0  0  0  0  0  0  0  0
   29.7363   46.9298   70.6194 C   0  0  1  0  0  0  0  0  0  0  0  0
   30.7964   47.1525   69.5596 C   0  0  0  0  0  0  0  0  0  0  0  0
   30.3156   46.9542   72.0158 C   0  0  0  0  0  0  0  0  0  0  0  0
   28.9607   45.7116   70.3322 C   0  0  0  0  0  0  0  0  0  0  0  0
   29.5602   44.4771   70.2357 C   0  0  0  0  0  0  0  0  0  0  0  0
   28.7693   43.3629   69.9615 C   0  0  0  0  0  0  0  0  0  0  0  0
   27.3907   43.4613   69.7822 C   0  0  0  0  0  0  0  0  0  0  0  0
   26.5654   42.2966   69.4957 C   0  0  0  0  0  0  0  0  0  0  0  0
   27.0901   41.1194   68.9414 C   0  0  0  0  0  0  0  0  0  0  0  0
   26.2829   40.0375   68.6832 C   0  0  0  0  0  0  0  0  0  0  0  0
   26.7625   38.7845   68.1086 C   0  0  1  0  0  0  0  0  0  0  0  0
   26.7209   38.7436   66.6051 C   0  0  0  0  0  0  0  0  0  0  0  0
   27.7888   39.3478   65.9137 N   0  0  0  0  0  0  0  0  0  0  0  0
   25.7732   38.1809   65.9614 N   0  0  0  0  0  4  0  0  0  0  0  0
   28.0969   38.2708   68.5947 C   0  0  0  0  0  0  0  0  0  0  0  0
   27.3127   37.5946   69.7312 C   0  0  0  0  0  0  0  0  0  0  0  0
   26.1582   37.5449   68.7387 C   0  0  0  0  0  0  0  0  0  0  0  0
   24.9246   40.1586   68.9944 C   0  0  0  0  0  0  0  0  0  0  0  0
   24.3701   41.2910   69.5374 C   0  0  0  0  0  0  0  0  0  0  0  0
   22.6553   41.3777   69.9047 Cl  0  0  0  0  0  0  0  0  0  0  0  0
   25.2189   42.3574   69.7815 C   0  0  0  0  0  0  0  0  0  0  0  0
   26.8117   44.7065   69.8831 C   0  0  0  0  0  0  0  0  0  0  0  0
   27.6003   45.7952   70.1533 C   0  0  0  0  0  0  0  0  0  0  0  0
  2  1  1  1
  3  2  1  1
  4  2  1  1
  2  5  1  0
  5 24  2  0
  5  6  1  0
  6  7  2  0
  7  8  1  0
  8  9  1  0
  8 23  2  0
  9 22  1  0
  9 10  2  0
 10 11  1  0
 12 11  1  1
 11 19  2  0
 12 18  1  0
 12 13  1  0
 16 12  1  6
 13 14  1  0
 13 15  2  3
 17 16  1  6
 18 17  1  1
 19 20  1  0
 20 21  1  0
 20 22  2  0
 23 24  1  0
M  CHG  1  15   1
M  END
$$$$
