
     RDKit          3D

 24 26  0  0  0  0  0  0  0  0999 V2000
   10.9924   44.5686   64.9884 O   0  0  0  0  0  0  0  0  0  0  0  0
   11.8307   43.7799   65.8060 C   0  0  1  0  0  0  0  0  0  0  0  0
   12.2594   44.6802   66.9470 C   0  0  0  0  0  0  0  0  0  0  0  0
   10.9832   42.6224   66.2838 C   0  0  0  0  0  0  0  0  0  0  0  0
   12.9951   43.3588   65.0092 C   0  0  0  0  0  0  0  0  0  0  0  0
   14.2804   43.4823   65.4837 C   0  0  0  0  0  0  0  0  0  0  0  0
   15.3393   43.0649   64.6793 C   0  0  0  0  0  0  0  0  0  0  0  0
   15.1356   42.5267   63.4101 C   0  0  0  0  0  0  0  0  0  0  0  0
   16.2425   42.0909   62.5706 C   0  0  0  0  0  0  0  0  0  0  0  0
   16.0766   41.7588   61.2177 C   0  0  0  0  0  0  0  0  0  0  0  0
   17.1432   41.3508   60.4530 C   0  0  0  0  0  0  0  0  0  0  0  0
   17.0413   40.9910   59.0423 C   0  0  1  0  0  0  0  0  0  0  0  0
   15.9221   41.6826   58.3121 C   0  0  0  0  0  0  0  0  0  0  0  0
   16.2775   42.6756   57.3788 N   0  0  0  0  0  0  0  0  0  0  0  0
   14.6947   41.3907   58.5059 N   0  0  0  0  0  4  0  0  0  0  0  0
   18.3062   41.0639   58.2204 C   0  0  0  0  0  0  0  0  0  0  0  0
   18.5819   39.6280   58.6956 C   0  0  0  0  0  0  0  0  0  0  0  0
   17.0666   39.4975   58.7823 C   0  0  0  0  0  0  0  0  0  0  0  0
   18.3933   41.2810   61.0766 C   0  0  0  0  0  0  0  0  0  0  0  0
   18.5999   41.5965   62.3966 C   0  0  0  0  0  0  0  0  0  0  0  0
   20.1967   41.4872   63.1186 Cl  0  0  0  0  0  0  0  0  0  0  0  0
   17.4984   42.0029   63.1305 C   0  0  0  0  0  0  0  0  0  0  0  0
   13.8410   42.4123   62.9552 C   0  0  0  0  0  0  0  0  0  0  0  0
   12.8076   42.8264   63.7557 C   0  0  0  0  0  0  0  0  0  0  0  0
  2  1  1  6
  3  2  1  1
  4  2  1  1
  2  5  1  0
  5 24  2  0
  5  6  1  0
  6  7  2  0
  7  8  1  0
  8  9  1  0
  8 23  2  0
  9 22  1  0
  9 10  2  0
 10 11  1  0
 12 11  1  1
 11 19  2  0
 12 18  1  0
 12 13  1  0
 16 12  1  6
 13 14  1  0
 13 15  2  3
 17 16  1  6
 18 17  1  1
 19 20  1  0
 20 21  1  0
 20 22  2  0
 23 24  1  0
M  CHG  1  15   1
M  END
$$$$
