
     RDKit          3D

 24 26  0  0  0  0  0  0  0  0999 V2000
   18.9814   56.1344   69.7335 O   0  0  0  0  0  0  0  0  0  0  0  0
   19.5216   54.9727   69.1401 C   0  0  1  0  0  0  0  0  0  0  0  0
   20.2335   55.4425   67.8875 C   0  0  0  0  0  0  0  0  0  0  0  0
   20.4806   54.3903   70.1536 C   0  0  0  0  0  0  0  0  0  0  0  0
   18.4127   54.0657   68.7997 C   0  0  0  0  0  0  0  0  0  0  0  0
   17.1467   54.2476   69.3062 C   0  0  0  0  0  0  0  0  0  0  0  0
   16.1408   53.3531   68.9449 C   0  0  0  0  0  0  0  0  0  0  0  0
   16.3785   52.2811   68.0867 C   0  0  0  0  0  0  0  0  0  0  0  0
   15.3269   51.3473   67.7099 C   0  0  0  0  0  0  0  0  0  0  0  0
   13.9706   51.5961   67.9679 C   0  0  0  0  0  0  0  0  0  0  0  0
   13.0025   50.6931   67.5988 C   0  0  0  0  0  0  0  0  0  0  0  0
   11.5758   50.8887   67.8362 C   0  0  1  0  0  0  0  0  0  0  0  0
   10.8435   51.5224   66.6847 C   0  0  0  0  0  0  0  0  0  0  0  0
   10.5957   52.9067   66.7614 N   0  0  0  0  0  0  0  0  0  0  0  0
   10.4626   50.8555   65.6652 N   0  0  0  0  0  4  0  0  0  0  0  0
   10.7937   49.7010   68.3446 C   0  0  0  0  0  0  0  0  0  0  0  0
   11.2170   50.1486   69.7532 C   0  0  0  0  0  0  0  0  0  0  0  0
   11.2555   51.5517   69.1616 C   0  0  0  0  0  0  0  0  0  0  0  0
   13.4239   49.5228   66.9591 C   0  0  0  0  0  0  0  0  0  0  0  0
   14.7394   49.2397   66.6875 C   0  0  0  0  0  0  0  0  0  0  0  0
   15.2015   47.7503   65.8806 Cl  0  0  0  0  0  0  0  0  0  0  0  0
   15.6821   50.1764   67.0763 C   0  0  0  0  0  0  0  0  0  0  0  0
   17.6530   52.1181   67.5916 C   0  0  0  0  0  0  0  0  0  0  0  0
   18.6341   53.0046   67.9543 C   0  0  0  0  0  0  0  0  0  0  0  0
  2  1  1  1
  3  2  1  1
  4  2  1  1
  2  5  1  0
  5 24  2  0
  5  6  1  0
  6  7  2  0
  7  8  1  0
  8  9  1  0
  8 23  2  0
  9 22  1  0
  9 10  2  0
 10 11  1  0
 12 11  1  6
 11 19  2  0
 12 18  1  0
 12 13  1  0
 16 12  1  6
 13 14  1  0
 13 15  2  3
 17 16  1  6
 18 17  1  1
 19 20  1  0
 20 21  1  0
 20 22  2  0
 23 24  1  0
M  CHG  1  15   1
M  END
$$$$
