
     RDKit          3D

 24 26  0  0  0  0  0  0  0  0999 V2000
   29.6793   49.3523   38.3229 O   0  0  0  0  0  0  0  0  0  0  0  0
   30.8106   49.8473   39.0073 C   0  0  1  0  0  0  0  0  0  0  0  0
   31.9974   49.0940   38.4411 C   0  0  0  0  0  0  0  0  0  0  0  0
   30.8759   51.3256   38.6968 C   0  0  0  0  0  0  0  0  0  0  0  0
   30.6483   49.5606   40.4424 C   0  0  0  0  0  0  0  0  0  0  0  0
   31.6608   49.7881   41.3456 C   0  0  0  0  0  0  0  0  0  0  0  0
   31.4432   49.4953   42.6906 C   0  0  0  0  0  0  0  0  0  0  0  0
   30.2320   48.9794   43.1480 C   0  0  0  0  0  0  0  0  0  0  0  0
   30.0057   48.6739   44.5534 C   0  0  0  0  0  0  0  0  0  0  0  0
   28.8275   49.0368   45.2230 C   0  0  0  0  0  0  0  0  0  0  0  0
   28.6456   48.7329   46.5509 C   0  0  0  0  0  0  0  0  0  0  0  0
   27.4467   49.0801   47.3073 C   0  0  1  0  0  0  0  0  0  0  0  0
   27.1612   50.5565   47.3606 C   0  0  0  0  0  0  0  0  0  0  0  0
   26.1031   51.0379   46.5654 N   0  0  0  0  0  0  0  0  0  0  0  0
   27.8294   51.3570   48.0966 N   0  0  0  0  0  4  0  0  0  0  0  0
   26.1801   48.3289   46.9722 C   0  0  0  0  0  0  0  0  0  0  0  0
   26.6588   47.2686   47.9773 C   0  0  0  0  0  0  0  0  0  0  0  0
   27.3661   48.4250   48.6722 C   0  0  0  0  0  0  0  0  0  0  0  0
   29.6783   48.0509   47.2027 C   0  0  0  0  0  0  0  0  0  0  0  0
   30.8465   47.6771   46.5861 C   0  0  0  0  0  0  0  0  0  0  0  0
   32.1045   46.8220   47.4630 Cl  0  0  0  0  0  0  0  0  0  0  0  0
   30.9885   48.0029   45.2479 C   0  0  0  0  0  0  0  0  0  0  0  0
   29.2325   48.7595   42.2267 C   0  0  0  0  0  0  0  0  0  0  0  0
   29.4586   49.0516   40.9062 C   0  0  0  0  0  0  0  0  0  0  0  0
  2  1  1  6
  3  2  1  1
  4  2  1  1
  2  5  1  0
  5 24  2  0
  5  6  1  0
  6  7  2  0
  7  8  1  0
  8  9  1  0
  8 23  2  0
  9 22  1  0
  9 10  2  0
 10 11  1  0
 12 11  1  6
 11 19  2  0
 12 18  1  0
 12 13  1  0
 16 12  1  6
 13 14  1  0
 13 15  2  3
 17 16  1  6
 18 17  1  1
 19 20  1  0
 20 21  1  0
 20 22  2  0
 23 24  1  0
M  CHG  1  15   1
M  END
$$$$
