
     RDKit          3D

 24 26  0  0  0  0  0  0  0  0999 V2000
   27.8389   43.3956   38.6642 O   0  0  0  0  0  0  0  0  0  0  0  0
   26.7451   43.8640   39.4242 C   0  0  1  0  0  0  0  0  0  0  0  0
   26.0944   44.9464   38.5866 C   0  0  0  0  0  0  0  0  0  0  0  0
   25.8326   42.6752   39.6241 C   0  0  0  0  0  0  0  0  0  0  0  0
   27.2602   44.4211   40.6861 C   0  0  0  0  0  0  0  0  0  0  0  0
   27.1275   45.7548   40.9968 C   0  0  0  0  0  0  0  0  0  0  0  0
   27.6372   46.2191   42.2079 C   0  0  0  0  0  0  0  0  0  0  0  0
   28.2768   45.3741   43.1130 C   0  0  0  0  0  0  0  0  0  0  0  0
   28.8089   45.8603   44.3780 C   0  0  0  0  0  0  0  0  0  0  0  0
   29.0341   47.2226   44.6267 C   0  0  0  0  0  0  0  0  0  0  0  0
   29.5378   47.6482   45.8326 C   0  0  0  0  0  0  0  0  0  0  0  0
   29.7956   49.0476   46.1572 C   0  0  1  0  0  0  0  0  0  0  0  0
   31.2020   49.4958   45.8656 C   0  0  0  0  0  0  0  0  0  0  0  0
   31.4958   49.8784   44.5424 N   0  0  0  0  0  0  0  0  0  0  0  0
   32.1053   49.5461   46.7660 N   0  0  0  0  0  4  0  0  0  0  0  0
   28.8164   50.0684   45.6281 C   0  0  0  0  0  0  0  0  0  0  0  0
   27.9948   49.7951   46.8985 C   0  0  0  0  0  0  0  0  0  0  0  0
   29.3330   49.4557   47.5422 C   0  0  0  0  0  0  0  0  0  0  0  0
   29.8147   46.6721   46.7954 C   0  0  0  0  0  0  0  0  0  0  0  0
   29.6095   45.3298   46.5939 C   0  0  0  0  0  0  0  0  0  0  0  0
   29.9786   44.1553   47.8457 Cl  0  0  0  0  0  0  0  0  0  0  0  0
   29.1008   44.9444   45.3651 C   0  0  0  0  0  0  0  0  0  0  0  0
   28.3985   44.0432   42.7818 C   0  0  0  0  0  0  0  0  0  0  0  0
   27.8930   43.5983   41.5873 C   0  0  0  0  0  0  0  0  0  0  0  0
  2  1  1  6
  3  2  1  1
  4  2  1  1
  2  5  1  0
  5 24  2  0
  5  6  1  0
  6  7  2  0
  7  8  1  0
  8  9  1  0
  8 23  2  0
  9 22  1  0
  9 10  2  0
 10 11  1  0
 12 11  1  6
 11 19  2  0
 12 18  1  0
 12 13  1  0
 16 12  1  6
 13 14  1  0
 13 15  2  3
 17 16  1  6
 18 17  1  1
 19 20  1  0
 20 21  1  0
 20 22  2  0
 23 24  1  0
M  CHG  1  15   1
M  END
$$$$
