
     RDKit          3D

 24 26  0  0  0  0  0  0  0  0999 V2000
   26.7907   48.6818   39.4900 O   0  0  0  0  0  0  0  0  0  0  0  0
   27.8355   47.7347   39.5594 C   0  0  1  0  0  0  0  0  0  0  0  0
   27.2422   46.4295   39.0687 C   0  0  0  0  0  0  0  0  0  0  0  0
   28.9251   48.2434   38.6427 C   0  0  0  0  0  0  0  0  0  0  0  0
   28.2638   47.6168   40.9632 C   0  0  0  0  0  0  0  0  0  0  0  0
   27.9699   46.5057   41.7193 C   0  0  0  0  0  0  0  0  0  0  0  0
   28.4044   46.4562   43.0426 C   0  0  0  0  0  0  0  0  0  0  0  0
   29.1270   47.4973   43.6225 C   0  0  0  0  0  0  0  0  0  0  0  0
   29.5805   47.4445   45.0051 C   0  0  0  0  0  0  0  0  0  0  0  0
   29.9624   48.5915   45.7169 C   0  0  0  0  0  0  0  0  0  0  0  0
   30.3859   48.5066   47.0216 C   0  0  0  0  0  0  0  0  0  0  0  0
   30.7968   49.6578   47.8192 C   0  0  1  0  0  0  0  0  0  0  0  0
   29.6930   50.2538   48.6501 C   0  0  0  0  0  0  0  0  0  0  0  0
   29.1390   51.4711   48.2088 N   0  0  0  0  0  0  0  0  0  0  0  0
   29.2531   49.6923   49.7085 N   0  0  0  0  0  4  0  0  0  0  0  0
   32.0406   49.5026   48.6616 C   0  0  0  0  0  0  0  0  0  0  0  0
   32.8239   49.9319   47.4103 C   0  0  0  0  0  0  0  0  0  0  0  0
   31.5657   50.7065   47.0396 C   0  0  0  0  0  0  0  0  0  0  0  0
   30.4200   47.2364   47.6063 C   0  0  0  0  0  0  0  0  0  0  0  0
   30.0554   46.0890   46.9466 C   0  0  0  0  0  0  0  0  0  0  0  0
   30.1217   44.5239   47.7395 Cl  0  0  0  0  0  0  0  0  0  0  0  0
   29.6350   46.2197   45.6338 C   0  0  0  0  0  0  0  0  0  0  0  0
   29.4100   48.5996   42.8475 C   0  0  0  0  0  0  0  0  0  0  0  0
   28.9771   48.6367   41.5469 C   0  0  0  0  0  0  0  0  0  0  0  0
  2  1  1  1
  3  2  1  1
  4  2  1  1
  2  5  1  0
  5 24  2  0
  5  6  1  0
  6  7  2  0
  7  8  1  0
  8  9  1  0
  8 23  2  0
  9 22  1  0
  9 10  2  0
 10 11  1  0
 12 11  1  6
 11 19  2  0
 12 18  1  0
 12 13  1  0
 16 12  1  6
 13 14  1  0
 13 15  2  3
 17 16  1  6
 18 17  1  1
 19 20  1  0
 20 21  1  0
 20 22  2  0
 23 24  1  0
M  CHG  1  15   1
M  END
$$$$
