
     RDKit          3D

 24 26  0  0  0  0  0  0  0  0999 V2000
   18.1172   41.8252   69.3929 O   0  0  0  0  0  0  0  0  0  0  0  0
   18.2420   41.7992   67.9868 C   0  0  1  0  0  0  0  0  0  0  0  0
   19.3690   42.7564   67.6551 C   0  0  0  0  0  0  0  0  0  0  0  0
   18.5830   40.3722   67.6215 C   0  0  0  0  0  0  0  0  0  0  0  0
   16.9744   42.2636   67.3987 C   0  0  0  0  0  0  0  0  0  0  0  0
   15.8538   42.4759   68.1680 C   0  0  0  0  0  0  0  0  0  0  0  0
   14.6848   42.9156   67.5499 C   0  0  0  0  0  0  0  0  0  0  0  0
   14.6166   43.1466   66.1772 C   0  0  0  0  0  0  0  0  0  0  0  0
   13.3947   43.6061   65.5324 C   0  0  0  0  0  0  0  0  0  0  0  0
   12.5487   44.5614   66.1154 C   0  0  0  0  0  0  0  0  0  0  0  0
   11.4021   44.9735   65.4796 C   0  0  0  0  0  0  0  0  0  0  0  0
   10.4790   45.9619   66.0283 C   0  0  1  0  0  0  0  0  0  0  0  0
   11.1014   47.3080   66.2822 C   0  0  0  0  0  0  0  0  0  0  0  0
   11.4834   48.0644   65.1572 N   0  0  0  0  0  0  0  0  0  0  0  0
   11.2759   47.7709   67.4588 N   0  0  0  0  0  4  0  0  0  0  0  0
    9.1577   46.1382   65.3184 C   0  0  0  0  0  0  0  0  0  0  0  0
    8.6431   44.9860   66.1966 C   0  0  0  0  0  0  0  0  0  0  0  0
    9.6730   45.4640   67.2121 C   0  0  0  0  0  0  0  0  0  0  0  0
   11.1158   44.4039   64.2346 C   0  0  0  0  0  0  0  0  0  0  0  0
   11.9154   43.4669   63.6286 C   0  0  0  0  0  0  0  0  0  0  0  0
   11.4979   42.7907   62.0629 Cl  0  0  0  0  0  0  0  0  0  0  0  0
   13.0608   43.0799   64.3035 C   0  0  0  0  0  0  0  0  0  0  0  0
   15.7500   42.9277   65.4265 C   0  0  0  0  0  0  0  0  0  0  0  0
   16.8941   42.4951   66.0461 C   0  0  0  0  0  0  0  0  0  0  0  0
  2  1  1  1
  3  2  1  1
  4  2  1  1
  2  5  1  0
  5 24  2  0
  5  6  1  0
  6  7  2  0
  7  8  1  0
  8  9  1  0
  8 23  2  0
  9 22  1  0
  9 10  2  0
 10 11  1  0
 12 11  1  6
 11 19  2  0
 12 18  1  0
 12 13  1  0
 16 12  1  6
 13 14  1  0
 13 15  2  3
 17 16  1  6
 18 17  1  1
 19 20  1  0
 20 21  1  0
 20 22  2  0
 23 24  1  0
M  CHG  1  15   1
M  END
$$$$
