
     RDKit          3D

 24 26  0  0  0  0  0  0  0  0999 V2000
   10.4144   43.9137   66.4428 O   0  0  0  0  0  0  0  0  0  0  0  0
   11.6314   43.8792   65.7278 C   0  0  1  0  0  0  0  0  0  0  0  0
   12.4224   42.7280   66.3156 C   0  0  0  0  0  0  0  0  0  0  0  0
   11.2624   43.6349   64.2820 C   0  0  0  0  0  0  0  0  0  0  0  0
   12.3329   45.1560   65.9418 C   0  0  0  0  0  0  0  0  0  0  0  0
   13.7043   45.2475   65.8836 C   0  0  0  0  0  0  0  0  0  0  0  0
   14.3072   46.4860   66.0956 C   0  0  0  0  0  0  0  0  0  0  0  0
   13.5634   47.6335   66.3645 C   0  0  0  0  0  0  0  0  0  0  0  0
   14.1943   48.9269   66.5858 C   0  0  0  0  0  0  0  0  0  0  0  0
   13.4569   50.0855   66.8723 C   0  0  0  0  0  0  0  0  0  0  0  0
   14.0840   51.2914   67.0760 C   0  0  0  0  0  0  0  0  0  0  0  0
   13.3790   52.5333   67.3773 C   0  0  1  0  0  0  0  0  0  0  0  0
   13.0510   52.7144   68.8346 C   0  0  0  0  0  0  0  0  0  0  0  0
   13.3299   53.9705   69.4072 N   0  0  0  0  0  0  0  0  0  0  0  0
   12.5310   51.7864   69.5399 N   0  0  0  0  0  4  0  0  0  0  0  0
   13.9679   53.8101   66.8261 C   0  0  0  0  0  0  0  0  0  0  0  0
   13.1623   53.5159   65.5501 C   0  0  0  0  0  0  0  0  0  0  0  0
   12.1882   52.8014   66.4780 C   0  0  0  0  0  0  0  0  0  0  0  0
   15.4796   51.3148   66.9861 C   0  0  0  0  0  0  0  0  0  0  0  0
   16.2393   50.2056   66.7082 C   0  0  0  0  0  0  0  0  0  0  0  0
   17.9896   50.3036   66.6094 Cl  0  0  0  0  0  0  0  0  0  0  0  0
   15.5675   49.0113   66.5099 C   0  0  0  0  0  0  0  0  0  0  0  0
   12.1923   47.5189   66.4181 C   0  0  0  0  0  0  0  0  0  0  0  0
   11.6108   46.2950   66.2078 C   0  0  0  0  0  0  0  0  0  0  0  0
  2  1  1  1
  3  2  1  1
  4  2  1  1
  2  5  1  0
  5 24  2  0
  5  6  1  0
  6  7  2  0
  7  8  1  0
  8  9  1  0
  8 23  2  0
  9 22  1  0
  9 10  2  0
 10 11  1  0
 12 11  1  1
 11 19  2  0
 12 18  1  0
 12 13  1  0
 16 12  1  6
 13 14  1  0
 13 15  2  3
 17 16  1  6
 18 17  1  1
 19 20  1  0
 20 21  1  0
 20 22  2  0
 23 24  1  0
M  CHG  1  15   1
M  END
$$$$
