
     RDKit          3D

 24 26  0  0  0  0  0  0  0  0999 V2000
   24.9370   53.1464   68.3560 O   0  0  0  0  0  0  0  0  0  0  0  0
   25.0414   53.2028   69.7629 C   0  0  1  0  0  0  0  0  0  0  0  0
   26.4595   53.6511   70.0536 C   0  0  0  0  0  0  0  0  0  0  0  0
   24.0196   54.2196   70.2195 C   0  0  0  0  0  0  0  0  0  0  0  0
   24.8009   51.8537   70.3015 C   0  0  0  0  0  0  0  0  0  0  0  0
   24.4642   50.7978   69.4866 C   0  0  0  0  0  0  0  0  0  0  0  0
   24.2496   49.5455   70.0593 C   0  0  0  0  0  0  0  0  0  0  0  0
   24.3657   49.3308   71.4314 C   0  0  0  0  0  0  0  0  0  0  0  0
   24.1414   48.0221   72.0287 C   0  0  0  0  0  0  0  0  0  0  0  0
   24.0501   47.8327   73.4158 C   0  0  0  0  0  0  0  0  0  0  0  0
   23.8377   46.5832   73.9472 C   0  0  0  0  0  0  0  0  0  0  0  0
   23.7327   46.3158   75.3782 C   0  0  1  0  0  0  0  0  0  0  0  0
   24.6997   45.2785   75.8809 C   0  0  0  0  0  0  0  0  0  0  0  0
   25.9969   45.2865   75.3326 N   0  0  0  0  0  0  0  0  0  0  0  0
   24.3836   44.4237   76.7746 N   0  0  0  0  0  4  0  0  0  0  0  0
   23.7403   47.5092   76.3036 C   0  0  0  0  0  0  0  0  0  0  0  0
   22.2210   47.5720   76.0767 C   0  0  0  0  0  0  0  0  0  0  0  0
   22.3159   46.0676   75.8578 C   0  0  0  0  0  0  0  0  0  0  0  0
   23.7170   45.5148   73.0525 C   0  0  0  0  0  0  0  0  0  0  0  0
   23.7998   45.6555   71.6894 C   0  0  0  0  0  0  0  0  0  0  0  0
   23.6395   44.2715   70.6209 Cl  0  0  0  0  0  0  0  0  0  0  0  0
   24.0145   46.9314   71.1963 C   0  0  0  0  0  0  0  0  0  0  0  0
   24.7037   50.4016   72.2282 C   0  0  0  0  0  0  0  0  0  0  0  0
   24.9123   51.6288   71.6531 C   0  0  0  0  0  0  0  0  0  0  0  0
  2  1  1  6
  3  2  1  1
  4  2  1  1
  2  5  1  0
  5 24  2  0
  5  6  1  0
  6  7  2  0
  7  8  1  0
  8  9  1  0
  8 23  2  0
  9 22  1  0
  9 10  2  0
 10 11  1  0
 12 11  1  6
 11 19  2  0
 12 18  1  0
 12 13  1  0
 16 12  1  6
 13 14  1  0
 13 15  2  3
 17 16  1  6
 18 17  1  1
 19 20  1  0
 20 21  1  0
 20 22  2  0
 23 24  1  0
M  CHG  1  15   1
M  END
$$$$
