
     RDKit          3D

 24 26  0  0  0  0  0  0  0  0999 V2000
   34.8265   19.8117   44.5056 O   0  0  0  0  0  0  0  0  0  0  0  0
   33.6430   19.5745   45.2380 C   0  0  1  0  0  0  0  0  0  0  0  0
   32.5086   19.7032   44.2415 C   0  0  0  0  0  0  0  0  0  0  0  0
   33.7617   18.1698   45.7849 C   0  0  0  0  0  0  0  0  0  0  0  0
   33.5324   20.6006   46.2883 C   0  0  0  0  0  0  0  0  0  0  0  0
   33.5212   20.2715   47.6241 C   0  0  0  0  0  0  0  0  0  0  0  0
   33.4140   21.2905   48.5688 C   0  0  0  0  0  0  0  0  0  0  0  0
   33.3180   22.6315   48.2016 C   0  0  0  0  0  0  0  0  0  0  0  0
   33.2061   23.6952   49.1894 C   0  0  0  0  0  0  0  0  0  0  0  0
   33.0755   23.4376   50.5623 C   0  0  0  0  0  0  0  0  0  0  0  0
   32.9720   24.4655   51.4687 C   0  0  0  0  0  0  0  0  0  0  0  0
   32.8340   24.2688   52.9083 C   0  0  1  0  0  0  0  0  0  0  0  0
   31.5109   24.7196   53.4649 C   0  0  0  0  0  0  0  0  0  0  0  0
   30.3476   24.2258   52.8432 N   0  0  0  0  0  0  0  0  0  0  0  0
   31.4214   25.5075   54.4651 N   0  0  0  0  0  4  0  0  0  0  0  0
   33.1753   22.9017   53.4518 C   0  0  0  0  0  0  0  0  0  0  0  0
   34.6263   23.4035   53.5331 C   0  0  0  0  0  0  0  0  0  0  0  0
   34.0084   24.7836   53.7174 C   0  0  0  0  0  0  0  0  0  0  0  0
   33.0023   25.7712   50.9679 C   0  0  0  0  0  0  0  0  0  0  0  0
   33.1286   26.0678   49.6335 C   0  0  0  0  0  0  0  0  0  0  0  0
   33.1598   27.7306   49.0704 Cl  0  0  0  0  0  0  0  0  0  0  0  0
   33.2299   25.0025   48.7548 C   0  0  0  0  0  0  0  0  0  0  0  0
   33.3312   22.9380   46.8593 C   0  0  0  0  0  0  0  0  0  0  0  0
   33.4370   21.9267   45.9393 C   0  0  0  0  0  0  0  0  0  0  0  0
  2  1  1  6
  3  2  1  1
  4  2  1  1
  2  5  1  0
  5 24  2  0
  5  6  1  0
  6  7  2  0
  7  8  1  0
  8  9  1  0
  8 23  2  0
  9 22  1  0
  9 10  2  0
 10 11  1  0
 12 11  1  6
 11 19  2  0
 12 18  1  0
 12 13  1  0
 16 12  1  6
 13 14  1  0
 13 15  2  3
 17 16  1  6
 18 17  1  1
 19 20  1  0
 20 21  1  0
 20 22  2  0
 23 24  1  0
M  CHG  1  15   1
M  END
$$$$
