
     RDKit          3D

 24 26  0  0  0  0  0  0  0  0999 V2000
   18.4492   54.8882   67.2958 O   0  0  0  0  0  0  0  0  0  0  0  0
   18.8310   53.6111   66.8304 C   0  0  1  0  0  0  0  0  0  0  0  0
   19.2841   53.8125   65.3985 C   0  0  0  0  0  0  0  0  0  0  0  0
   19.9623   53.1586   67.7257 C   0  0  0  0  0  0  0  0  0  0  0  0
   17.6557   52.7257   66.8850 C   0  0  0  0  0  0  0  0  0  0  0  0
   16.4888   53.0292   66.2226 C   0  0  0  0  0  0  0  0  0  0  0  0
   15.4123   52.1489   66.3149 C   0  0  0  0  0  0  0  0  0  0  0  0
   15.4822   50.9715   67.0572 C   0  0  0  0  0  0  0  0  0  0  0  0
   14.3570   50.0524   67.1529 C   0  0  0  0  0  0  0  0  0  0  0  0
   13.0254   50.4928   67.1854 C   0  0  0  0  0  0  0  0  0  0  0  0
   11.9860   49.5982   67.2762 C   0  0  0  0  0  0  0  0  0  0  0  0
   10.5798   49.9874   67.3144 C   0  0  1  0  0  0  0  0  0  0  0  0
   10.2959   51.3239   66.6843 C   0  0  0  0  0  0  0  0  0  0  0  0
   10.2721   51.3815   65.2773 N   0  0  0  0  0  0  0  0  0  0  0  0
   10.0720   52.3732   67.3757 N   0  0  0  0  0  4  0  0  0  0  0  0
    9.5715   48.9724   66.8306 C   0  0  0  0  0  0  0  0  0  0  0  0
    9.5866   48.4183   68.2647 C   0  0  0  0  0  0  0  0  0  0  0  0
    9.9357   49.8419   68.6792 C   0  0  0  0  0  0  0  0  0  0  0  0
   12.3097   48.2387   67.3346 C   0  0  0  0  0  0  0  0  0  0  0  0
   13.5978   47.7649   67.3057 C   0  0  0  0  0  0  0  0  0  0  0  0
   13.9357   46.0437   67.3827 Cl  0  0  0  0  0  0  0  0  0  0  0  0
   14.6146   48.7002   67.2137 C   0  0  0  0  0  0  0  0  0  0  0  0
   16.6597   50.6876   67.7121 C   0  0  0  0  0  0  0  0  0  0  0  0
   17.7118   51.5615   67.6137 C   0  0  0  0  0  0  0  0  0  0  0  0
  2  1  1  1
  3  2  1  1
  4  2  1  1
  2  5  1  0
  5 24  2  0
  5  6  1  0
  6  7  2  0
  7  8  1  0
  8  9  1  0
  8 23  2  0
  9 22  1  0
  9 10  2  0
 10 11  1  0
 12 11  1  1
 11 19  2  0
 12 18  1  0
 12 13  1  0
 16 12  1  6
 13 14  1  0
 13 15  2  3
 17 16  1  6
 18 17  1  1
 19 20  1  0
 20 21  1  0
 20 22  2  0
 23 24  1  0
M  CHG  1  15   1
M  END
$$$$
