
     RDKit          3D

 17 18  0  0  0  0  0  0  0  0999 V2000
   15.1372    8.9822  -26.0656 O   0  0  0  0  0  0  0  0  0  0  0  0
   15.2436    7.6703  -26.5006 C   0  0  0  0  0  0  0  0  0  0  0  0
   16.2404    7.3007  -27.3808 C   0  0  0  0  0  0  0  0  0  0  0  0
   16.3215    5.9674  -27.8024 C   0  0  0  0  0  0  0  0  0  0  0  0
   14.3285    6.7320  -26.0349 C   0  0  0  0  0  0  0  0  0  0  0  0
   14.4404    5.4089  -26.4770 C   0  0  0  0  0  0  0  0  0  0  0  0
   15.4254    5.0290  -27.3512 C   0  0  0  0  0  0  0  0  0  0  0  0
   15.5223    3.6436  -27.8004 C   0  0  2  0  0  0  0  0  0  0  0  0
   14.1570    2.9419  -27.7501 C   0  0  0  0  0  0  0  0  0  0  0  0
   16.4207    2.8035  -26.8989 C   0  0  0  0  0  0  0  0  0  0  0  0
   16.0244    3.5212  -29.1994 C   0  0  0  0  0  0  0  0  0  0  0  0
   17.3545    3.2842  -29.4854 C   0  0  0  0  0  0  0  0  0  0  0  0
   17.8156    3.1685  -30.7838 C   0  0  0  0  0  0  0  0  0  0  0  0
   15.1830    3.6355  -30.2883 C   0  0  0  0  0  0  0  0  0  0  0  0
   15.6400    3.5204  -31.5844 C   0  0  0  0  0  0  0  0  0  0  0  0
   16.9691    3.2837  -31.8663 C   0  0  0  0  0  0  0  0  0  0  0  0
   17.4457    3.1654  -33.1707 O   0  0  0  0  0  0  0  0  0  0  0  0
  1  2  1  0
  2  3  2  0
  2  5  1  0
  3  4  1  0
  4  7  2  0
  5  6  2  0
  6  7  1  0
  7  8  1  0
  8  9  1  6
  8 10  1  0
  8 11  1  0
 11 12  2  0
 11 14  1  0
 12 13  1  0
 13 16  2  0
 14 15  2  0
 15 16  1  0
 16 17  1  0
M  END
$$$$
