
     RDKit          3D

 17 18  0  0  0  0  0  0  0  0999 V2000
   17.5285   -0.4432  -25.1879 O   0  0  0  0  0  0  0  0  0  0  0  0
   17.1490    0.5066  -26.1236 C   0  0  0  0  0  0  0  0  0  0  0  0
   18.0793    1.0602  -26.9798 C   0  0  0  0  0  0  0  0  0  0  0  0
   17.6649    2.0179  -27.9142 C   0  0  0  0  0  0  0  0  0  0  0  0
   15.8141    0.8927  -26.1853 C   0  0  0  0  0  0  0  0  0  0  0  0
   15.4361    1.8517  -27.1318 C   0  0  0  0  0  0  0  0  0  0  0  0
   16.3502    2.4093  -27.9876 C   0  0  0  0  0  0  0  0  0  0  0  0
   15.9338    3.4092  -28.9661 C   0  0  2  0  0  0  0  0  0  0  0  0
   14.6209    3.0068  -29.6538 C   0  0  0  0  0  0  0  0  0  0  0  0
   16.9362    3.5575  -30.1057 C   0  0  0  0  0  0  0  0  0  0  0  0
   15.7154    4.7555  -28.3626 C   0  0  0  0  0  0  0  0  0  0  0  0
   16.5378    5.2612  -27.3750 C   0  0  0  0  0  0  0  0  0  0  0  0
   16.3336    6.5111  -26.8201 C   0  0  0  0  0  0  0  0  0  0  0  0
   14.6771    5.5736  -28.7622 C   0  0  0  0  0  0  0  0  0  0  0  0
   14.4711    6.8207  -28.2106 C   0  0  0  0  0  0  0  0  0  0  0  0
   15.2945    7.3224  -27.2246 C   0  0  0  0  0  0  0  0  0  0  0  0
   15.0987    8.5804  -26.6575 O   0  0  0  0  0  0  0  0  0  0  0  0
  1  2  1  0
  2  3  2  0
  2  5  1  0
  3  4  1  0
  4  7  2  0
  5  6  2  0
  6  7  1  0
  7  8  1  0
  8  9  1  6
  8 10  1  0
  8 11  1  0
 11 12  2  0
 11 14  1  0
 12 13  1  0
 13 16  2  0
 14 15  2  0
 15 16  1  0
 16 17  1  0
M  END
$$$$
