
     RDKit          3D

 17 18  0  0  0  0  0  0  0  0999 V2000
   14.8907    8.8649  -26.1455 O   0  0  0  0  0  0  0  0  0  0  0  0
   15.2386    7.6011  -26.5981 C   0  0  0  0  0  0  0  0  0  0  0  0
   14.4495    6.4917  -26.3994 C   0  0  0  0  0  0  0  0  0  0  0  0
   14.8264    5.2397  -26.8653 C   0  0  0  0  0  0  0  0  0  0  0  0
   16.4177    7.4572  -27.2700 C   0  0  0  0  0  0  0  0  0  0  0  0
   16.7874    6.1923  -27.7346 C   0  0  0  0  0  0  0  0  0  0  0  0
   16.0127    5.0743  -27.5456 C   0  0  0  0  0  0  0  0  0  0  0  0
   16.4543    3.7855  -28.0550 C   0  0  2  0  0  0  0  0  0  0  0  0
   16.3348    2.7928  -26.8888 C   0  0  0  0  0  0  0  0  0  0  0  0
   17.9308    3.8753  -28.4770 C   0  0  0  0  0  0  0  0  0  0  0  0
   15.7222    3.2533  -29.1877 C   0  0  0  0  0  0  0  0  0  0  0  0
   14.6862    3.9682  -29.7297 C   0  0  0  0  0  0  0  0  0  0  0  0
   13.9669    3.4728  -30.8246 C   0  0  0  0  0  0  0  0  0  0  0  0
   16.0207    2.0301  -29.7684 C   0  0  0  0  0  0  0  0  0  0  0  0
   15.3290    1.5253  -30.8417 C   0  0  0  0  0  0  0  0  0  0  0  0
   14.2874    2.2541  -31.3794 C   0  0  0  0  0  0  0  0  0  0  0  0
   13.5805    1.7326  -32.4798 O   0  0  0  0  0  0  0  0  0  0  0  0
  1  2  1  0
  2  3  2  0
  2  5  1  0
  3  4  1  0
  4  7  2  0
  5  6  2  0
  6  7  1  0
  8  7  1  1
  9  8  1  6
 10  8  1  6
  8 11  1  0
 11 12  2  0
 11 14  1  0
 12 13  1  0
 13 16  2  0
 14 15  2  0
 15 16  1  0
 16 17  1  0
M  END
$$$$
