
     RDKit          3D

 17 18  0  0  0  0  0  0  0  0999 V2000
   16.1748    2.4331  -33.5748 O   0  0  0  0  0  0  0  0  0  0  0  0
   16.0892    2.7693  -32.2322 C   0  0  0  0  0  0  0  0  0  0  0  0
   16.5346    3.9712  -31.7320 C   0  0  0  0  0  0  0  0  0  0  0  0
   16.4345    4.2776  -30.3819 C   0  0  0  0  0  0  0  0  0  0  0  0
   15.5375    1.8638  -31.3731 C   0  0  0  0  0  0  0  0  0  0  0  0
   15.4417    2.1826  -30.0160 C   0  0  0  0  0  0  0  0  0  0  0  0
   15.8808    3.3767  -29.4992 C   0  0  0  0  0  0  0  0  0  0  0  0
   15.7516    3.6478  -28.0760 C   0  0  2  0  0  0  0  0  0  0  0  0
   17.0551    3.1658  -27.4214 C   0  0  0  0  0  0  0  0  0  0  0  0
   14.5801    2.8346  -27.4996 C   0  0  0  0  0  0  0  0  0  0  0  0
   15.5327    5.0306  -27.6990 C   0  0  0  0  0  0  0  0  0  0  0  0
   14.3936    5.6774  -28.1017 C   0  0  0  0  0  0  0  0  0  0  0  0
   14.1622    7.0125  -27.7476 C   0  0  0  0  0  0  0  0  0  0  0  0
   16.4349    5.7530  -26.9330 C   0  0  0  0  0  0  0  0  0  0  0  0
   16.2285    7.0622  -26.5744 C   0  0  0  0  0  0  0  0  0  0  0  0
   15.0776    7.7035  -26.9857 C   0  0  0  0  0  0  0  0  0  0  0  0
   14.8699    9.0462  -26.6159 O   0  0  0  0  0  0  0  0  0  0  0  0
  1  2  1  0
  2  3  2  0
  2  5  1  0
  3  4  1  0
  4  7  2  0
  5  6  2  0
  6  7  1  0
  8  7  1  6
  9  8  1  6
 10  8  1  6
  8 11  1  0
 11 12  2  0
 11 14  1  0
 12 13  1  0
 13 16  2  0
 14 15  2  0
 15 16  1  0
 16 17  1  0
M  END
$$$$
