
     RDKit          3D

 17 18  0  0  0  0  0  0  0  0999 V2000
   16.4695   -1.1143  -25.7279 O   0  0  0  0  0  0  0  0  0  0  0  0
   16.3557    0.0704  -26.4396 C   0  0  0  0  0  0  0  0  0  0  0  0
   16.6120    1.3036  -25.8857 C   0  0  0  0  0  0  0  0  0  0  0  0
   16.4889    2.4715  -26.6255 C   0  0  0  0  0  0  0  0  0  0  0  0
   15.9722    0.0043  -27.7477 C   0  0  0  0  0  0  0  0  0  0  0  0
   15.8514    1.1863  -28.4830 C   0  0  0  0  0  0  0  0  0  0  0  0
   16.1029    2.4253  -27.9470 C   0  0  0  0  0  0  0  0  0  0  0  0
   15.9592    3.6182  -28.7667 C   0  0  2  0  0  0  0  0  0  0  0  0
   14.7398    3.3806  -29.6703 C   0  0  0  0  0  0  0  0  0  0  0  0
   17.2045    3.7887  -29.6535 C   0  0  0  0  0  0  0  0  0  0  0  0
   15.7692    4.8694  -28.0590 C   0  0  0  0  0  0  0  0  0  0  0  0
   14.5486    5.4920  -28.0858 C   0  0  0  0  0  0  0  0  0  0  0  0
   14.3436    6.7003  -27.4081 C   0  0  0  0  0  0  0  0  0  0  0  0
   16.7799    5.4859  -27.3373 C   0  0  0  0  0  0  0  0  0  0  0  0
   16.6012    6.6702  -26.6659 C   0  0  0  0  0  0  0  0  0  0  0  0
   15.3675    7.2883  -26.6998 C   0  0  0  0  0  0  0  0  0  0  0  0
   15.1886    8.5028  -26.0100 O   0  0  0  0  0  0  0  0  0  0  0  0
  1  2  1  0
  2  3  2  0
  2  5  1  0
  3  4  1  0
  4  7  2  0
  5  6  2  0
  6  7  1  0
  8  7  1  1
  9  8  1  6
 10  8  1  6
  8 11  1  0
 11 12  2  0
 11 14  1  0
 12 13  1  0
 13 16  2  0
 14 15  2  0
 15 16  1  0
 16 17  1  0
M  END
$$$$
