
     RDKit          3D

 17 18  0  0  0  0  0  0  0  0999 V2000
   20.2958    0.9160  -29.0036 O   0  0  0  0  0  0  0  0  0  0  0  0
   19.0327    1.4833  -28.9285 C   0  0  0  0  0  0  0  0  0  0  0  0
   18.0663    1.2874  -29.8881 C   0  0  0  0  0  0  0  0  0  0  0  0
   16.8107    1.8699  -29.7835 C   0  0  0  0  0  0  0  0  0  0  0  0
   18.7406    2.2702  -27.8525 C   0  0  0  0  0  0  0  0  0  0  0  0
   17.4736    2.8516  -27.7573 C   0  0  0  0  0  0  0  0  0  0  0  0
   16.4970    2.6673  -28.7050 C   0  0  0  0  0  0  0  0  0  0  0  0
   15.1972    3.3006  -28.5466 C   0  0  2  0  0  0  0  0  0  0  0  0
   14.4231    2.4547  -27.5244 C   0  0  0  0  0  0  0  0  0  0  0  0
   14.4411    3.2700  -29.8858 C   0  0  0  0  0  0  0  0  0  0  0  0
   15.2006    4.6781  -28.0941 C   0  0  0  0  0  0  0  0  0  0  0  0
   15.1889    4.9574  -26.7524 C   0  0  0  0  0  0  0  0  0  0  0  0
   15.1931    6.2808  -26.2942 C   0  0  0  0  0  0  0  0  0  0  0  0
   15.2166    5.7560  -28.9661 C   0  0  0  0  0  0  0  0  0  0  0  0
   15.2209    7.0608  -28.5390 C   0  0  0  0  0  0  0  0  0  0  0  0
   15.2090    7.3303  -27.1853 C   0  0  0  0  0  0  0  0  0  0  0  0
   15.2131    8.6699  -26.7516 O   0  0  0  0  0  0  0  0  0  0  0  0
  1  2  1  0
  2  3  2  0
  2  5  1  0
  3  4  1  0
  4  7  2  0
  5  6  2  0
  6  7  1  0
  8  7  1  6
  9  8  1  6
 10  8  1  6
  8 11  1  0
 11 12  2  0
 11 14  1  0
 12 13  1  0
 13 16  2  0
 14 15  2  0
 15 16  1  0
 16 17  1  0
M  END
$$$$
