
     RDKit          3D

 17 18  0  0  0  0  0  0  0  0999 V2000
   15.9005    2.6601  -33.4172 O   0  0  0  0  0  0  0  0  0  0  0  0
   15.8206    2.8726  -32.0492 C   0  0  0  0  0  0  0  0  0  0  0  0
   14.9148    2.2228  -31.2427 C   0  0  0  0  0  0  0  0  0  0  0  0
   14.8604    2.4580  -29.8758 C   0  0  0  0  0  0  0  0  0  0  0  0
   16.6816    3.7672  -31.4828 C   0  0  0  0  0  0  0  0  0  0  0  0
   16.6180    3.9963  -30.1059 C   0  0  0  0  0  0  0  0  0  0  0  0
   15.7208    3.3572  -29.2857 C   0  0  0  0  0  0  0  0  0  0  0  0
   15.7063    3.6400  -27.8591 C   0  0  2  0  0  0  0  0  0  0  0  0
   17.0911    3.2460  -27.3235 C   0  0  0  0  0  0  0  0  0  0  0  0
   14.6441    2.7664  -27.1701 C   0  0  0  0  0  0  0  0  0  0  0  0
   15.4391    5.0124  -27.4752 C   0  0  0  0  0  0  0  0  0  0  0  0
   14.3451    5.6640  -27.9819 C   0  0  0  0  0  0  0  0  0  0  0  0
   14.0683    6.9891  -27.6232 C   0  0  0  0  0  0  0  0  0  0  0  0
   16.2495    5.7198  -26.6003 C   0  0  0  0  0  0  0  0  0  0  0  0
   15.9972    7.0191  -26.2351 C   0  0  0  0  0  0  0  0  0  0  0  0
   14.8924    7.6654  -26.7518 C   0  0  0  0  0  0  0  0  0  0  0  0
   14.6375    8.9979  -26.3748 O   0  0  0  0  0  0  0  0  0  0  0  0
  1  2  1  0
  2  3  2  0
  2  5  1  0
  3  4  1  0
  4  7  2  0
  5  6  2  0
  6  7  1  0
  8  7  1  6
  9  8  1  6
 10  8  1  6
  8 11  1  0
 11 12  2  0
 11 14  1  0
 12 13  1  0
 13 16  2  0
 14 15  2  0
 15 16  1  0
 16 17  1  0
M  END
$$$$
