
     RDKit          3D

 17 18  0  0  0  0  0  0  0  0999 V2000
   16.2359    2.6921  -33.2347 O   0  0  0  0  0  0  0  0  0  0  0  0
   16.1674    2.8902  -31.8644 C   0  0  0  0  0  0  0  0  0  0  0  0
   15.9415    4.1496  -31.3470 C   0  0  0  0  0  0  0  0  0  0  0  0
   15.8781    4.3176  -29.9579 C   0  0  0  0  0  0  0  0  0  0  0  0
   16.3303    1.7977  -31.0190 C   0  0  0  0  0  0  0  0  0  0  0  0
   16.2601    2.0029  -29.6365 C   0  0  0  0  0  0  0  0  0  0  0  0
   16.0366    3.2485  -29.1099 C   0  0  0  0  0  0  0  0  0  0  0  0
   15.9688    3.4396  -27.6644 C   0  0  2  0  0  0  0  0  0  0  0  0
   17.2537    2.9574  -26.9750 C   0  0  0  0  0  0  0  0  0  0  0  0
   14.8557    2.6183  -27.0228 C   0  0  0  0  0  0  0  0  0  0  0  0
   15.7748    4.8666  -27.2766 C   0  0  0  0  0  0  0  0  0  0  0  0
   14.5967    5.5429  -27.5253 C   0  0  0  0  0  0  0  0  0  0  0  0
   14.4198    6.8651  -27.1615 C   0  0  0  0  0  0  0  0  0  0  0  0
   16.7652    5.5906  -26.6425 C   0  0  0  0  0  0  0  0  0  0  0  0
   16.5915    6.9094  -26.2785 C   0  0  0  0  0  0  0  0  0  0  0  0
   15.4135    7.5816  -26.5285 C   0  0  0  0  0  0  0  0  0  0  0  0
   15.2235    8.9141  -26.1668 O   0  0  0  0  0  0  0  0  0  0  0  0
  1  2  1  0
  2  3  2  0
  2  5  1  0
  3  4  1  0
  4  7  2  0
  5  6  2  0
  6  7  1  0
  7  8  1  0
  8  9  1  1
  8 10  1  0
  8 11  1  0
 11 12  2  0
 11 14  1  0
 12 13  1  0
 13 16  2  0
 14 15  2  0
 15 16  1  0
 16 17  1  0
M  END
$$$$
