
     RDKit          3D

 17 18  0  0  0  0  0  0  0  0999 V2000
   16.6374   -0.4478  -25.1647 O   0  0  0  0  0  0  0  0  0  0  0  0
   16.5321    0.5333  -26.1384 C   0  0  0  0  0  0  0  0  0  0  0  0
   17.6571    1.0084  -26.7814 C   0  0  0  0  0  0  0  0  0  0  0  0
   17.5181    2.0003  -27.7606 C   0  0  0  0  0  0  0  0  0  0  0  0
   15.2729    1.0311  -26.4567 C   0  0  0  0  0  0  0  0  0  0  0  0
   15.1720    2.0213  -27.4405 C   0  0  0  0  0  0  0  0  0  0  0  0
   16.2814    2.5019  -28.0863 C   0  0  0  0  0  0  0  0  0  0  0  0
   16.1528    3.5362  -29.1082 C   0  0  2  0  0  0  0  0  0  0  0  0
   15.0271    3.2068  -30.0997 C   0  0  0  0  0  0  0  0  0  0  0  0
   17.4039    3.6564  -29.9717 C   0  0  0  0  0  0  0  0  0  0  0  0
   15.8521    4.8810  -28.5377 C   0  0  0  0  0  0  0  0  0  0  0  0
   16.6664    5.4797  -27.5967 C   0  0  0  0  0  0  0  0  0  0  0  0
   16.3857    6.7280  -27.0724 C   0  0  0  0  0  0  0  0  0  0  0  0
   14.7407    5.6042  -28.9233 C   0  0  0  0  0  0  0  0  0  0  0  0
   14.4582    6.8494  -28.4022 C   0  0  0  0  0  0  0  0  0  0  0  0
   15.2738    7.4443  -27.4625 C   0  0  0  0  0  0  0  0  0  0  0  0
   15.0011    8.7017  -26.9267 O   0  0  0  0  0  0  0  0  0  0  0  0
  1  2  1  0
  2  3  2  0
  2  5  1  0
  3  4  1  0
  4  7  2  0
  5  6  2  0
  6  7  1  0
  7  8  1  0
  8  9  1  6
  8 10  1  0
  8 11  1  0
 11 12  2  0
 11 14  1  0
 12 13  1  0
 13 16  2  0
 14 15  2  0
 15 16  1  0
 16 17  1  0
M  END
$$$$
