
     RDKit          3D

 17 18  0  0  0  0  0  0  0  0999 V2000
   18.2527   -0.5582  -25.5261 O   0  0  0  0  0  0  0  0  0  0  0  0
   17.7109    0.4027  -26.3657 C   0  0  0  0  0  0  0  0  0  0  0  0
   16.4538    0.9185  -26.1239 C   0  0  0  0  0  0  0  0  0  0  0  0
   15.9335    1.8880  -26.9907 C   0  0  0  0  0  0  0  0  0  0  0  0
   18.4558    0.8386  -27.4564 C   0  0  0  0  0  0  0  0  0  0  0  0
   17.9044    1.8089  -28.3008 C   0  0  0  0  0  0  0  0  0  0  0  0
   16.6570    2.3289  -28.0721 C   0  0  0  0  0  0  0  0  0  0  0  0
   16.1009    3.3392  -28.9669 C   0  0  2  0  0  0  0  0  0  0  0  0
   14.7198    2.9217  -29.4931 C   0  0  0  0  0  0  0  0  0  0  0  0
   16.9482    3.5333  -30.2198 C   0  0  0  0  0  0  0  0  0  0  0  0
   15.9340    4.6675  -28.3096 C   0  0  0  0  0  0  0  0  0  0  0  0
   16.8406    5.1506  -27.3866 C   0  0  0  0  0  0  0  0  0  0  0  0
   16.6839    6.3840  -26.7816 C   0  0  0  0  0  0  0  0  0  0  0  0
   14.8617    5.4907  -28.5916 C   0  0  0  0  0  0  0  0  0  0  0  0
   14.7028    6.7213  -27.9898 C   0  0  0  0  0  0  0  0  0  0  0  0
   15.6103    7.2005  -27.0685 C   0  0  0  0  0  0  0  0  0  0  0  0
   15.4629    8.4418  -26.4520 O   0  0  0  0  0  0  0  0  0  0  0  0
  1  2  1  0
  2  3  2  0
  2  5  1  0
  3  4  1  0
  4  7  2  0
  5  6  2  0
  6  7  1  0
  7  8  1  0
  8  9  1  6
  8 10  1  0
  8 11  1  0
 11 12  2  0
 11 14  1  0
 12 13  1  0
 13 16  2  0
 14 15  2  0
 15 16  1  0
 16 17  1  0
M  END
$$$$
