
     RDKit          3D

 17 18  0  0  0  0  0  0  0  0999 V2000
   15.1020    8.4791  -26.6070 O   0  0  0  0  0  0  0  0  0  0  0  0
   15.3054    7.2403  -27.1950 C   0  0  0  0  0  0  0  0  0  0  0  0
   14.3736    6.7151  -28.0672 C   0  0  0  0  0  0  0  0  0  0  0  0
   14.6074    5.4607  -28.6448 C   0  0  0  0  0  0  0  0  0  0  0  0
   16.4650    6.5349  -26.8910 C   0  0  0  0  0  0  0  0  0  0  0  0
   16.6657    5.2849  -27.4873 C   0  0  0  0  0  0  0  0  0  0  0  0
   15.7480    4.7520  -28.3549 C   0  0  0  0  0  0  0  0  0  0  0  0
   15.9771    3.4455  -28.9641 C   0  0  2  0  0  0  0  0  0  0  0  0
   17.1507    3.4874  -29.9539 C   0  0  0  0  0  0  0  0  0  0  0  0
   14.7879    2.9773  -29.7959 C   0  0  0  0  0  0  0  0  0  0  0  0
   16.2888    2.3852  -27.9626 C   0  0  0  0  0  0  0  0  0  0  0  0
   15.4247    2.0694  -26.9326 C   0  0  0  0  0  0  0  0  0  0  0  0
   15.7160    1.0836  -26.0079 C   0  0  0  0  0  0  0  0  0  0  0  0
   17.4610    1.6570  -28.0130 C   0  0  0  0  0  0  0  0  0  0  0  0
   17.7542    0.6731  -27.0921 C   0  0  0  0  0  0  0  0  0  0  0  0
   16.8888    0.3605  -26.0648 C   0  0  0  0  0  0  0  0  0  0  0  0
   17.1715   -0.6308  -25.1267 O   0  0  0  0  0  0  0  0  0  0  0  0
  1  2  1  0
  2  3  2  0
  2  5  1  0
  3  4  1  0
  4  7  2  0
  5  6  2  0
  6  7  1  0
  7  8  1  0
  8  9  1  6
  8 10  1  0
  8 11  1  0
 11 12  2  0
 11 14  1  0
 12 13  1  0
 13 16  2  0
 14 15  2  0
 15 16  1  0
 16 17  1  0
M  END
$$$$
