
     RDKit          3D

 17 18  0  0  0  0  0  0  0  0999 V2000
   15.0877    8.9902  -26.3128 O   0  0  0  0  0  0  0  0  0  0  0  0
   15.2934    7.6745  -26.6980 C   0  0  0  0  0  0  0  0  0  0  0  0
   14.3686    7.0207  -27.4868 C   0  0  0  0  0  0  0  0  0  0  0  0
   14.6046    5.6912  -27.8592 C   0  0  0  0  0  0  0  0  0  0  0  0
   16.4481    7.0239  -26.2761 C   0  0  0  0  0  0  0  0  0  0  0  0
   16.6511    5.6959  -26.6679 C   0  0  0  0  0  0  0  0  0  0  0  0
   15.7404    5.0351  -27.4507 C   0  0  0  0  0  0  0  0  0  0  0  0
   15.9718    3.6493  -27.8462 C   0  0  2  0  0  0  0  0  0  0  0  0
   14.8284    2.7358  -27.3806 C   0  0  0  0  0  0  0  0  0  0  0  0
   17.2217    3.0628  -27.1986 C   0  0  0  0  0  0  0  0  0  0  0  0
   16.0917    3.4799  -29.3231 C   0  0  0  0  0  0  0  0  0  0  0  0
   14.9860    3.3684  -30.1429 C   0  0  0  0  0  0  0  0  0  0  0  0
   15.1013    3.2144  -31.5122 C   0  0  0  0  0  0  0  0  0  0  0  0
   17.3193    3.4285  -29.9535 C   0  0  0  0  0  0  0  0  0  0  0  0
   17.4374    3.2751  -31.3190 C   0  0  0  0  0  0  0  0  0  0  0  0
   16.3309    3.1640  -32.1345 C   0  0  0  0  0  0  0  0  0  0  0  0
   16.4345    3.0084  -33.5157 O   0  0  0  0  0  0  0  0  0  0  0  0
  1  2  1  0
  2  3  2  0
  2  5  1  0
  3  4  1  0
  4  7  2  0
  5  6  2  0
  6  7  1  0
  7  8  1  0
  8  9  1  1
  8 10  1  0
  8 11  1  0
 11 12  2  0
 11 14  1  0
 12 13  1  0
 13 16  2  0
 14 15  2  0
 15 16  1  0
 16 17  1  0
M  END
$$$$
