
     RDKit          3D

 17 18  0  0  0  0  0  0  0  0999 V2000
   13.5188   -1.2866  -26.5466 O   0  0  0  0  0  0  0  0  0  0  0  0
   14.2271   -0.2145  -27.0669 C   0  0  0  0  0  0  0  0  0  0  0  0
   14.1718    0.0762  -28.4150 C   0  0  0  0  0  0  0  0  0  0  0  0
   14.8991    1.1658  -28.9106 C   0  0  0  0  0  0  0  0  0  0  0  0
   14.9951    0.5638  -26.2071 C   0  0  0  0  0  0  0  0  0  0  0  0
   15.7081    1.6449  -26.7373 C   0  0  0  0  0  0  0  0  0  0  0  0
   15.6619    1.9441  -28.0742 C   0  0  0  0  0  0  0  0  0  0  0  0
   16.4150    3.0758  -28.6058 C   0  0  2  0  0  0  0  0  0  0  0  0
   16.2835    3.1679  -30.1332 C   0  0  0  0  0  0  0  0  0  0  0  0
   17.9134    2.9438  -28.3553 C   0  0  0  0  0  0  0  0  0  0  0  0
   15.9653    4.3845  -28.0495 C   0  0  0  0  0  0  0  0  0  0  0  0
   16.7569    5.1346  -27.2022 C   0  0  0  0  0  0  0  0  0  0  0  0
   16.3374    6.3489  -26.6909 C   0  0  0  0  0  0  0  0  0  0  0  0
   14.7299    4.9204  -28.3552 C   0  0  0  0  0  0  0  0  0  0  0  0
   14.3089    6.1313  -27.8467 C   0  0  0  0  0  0  0  0  0  0  0  0
   15.1022    6.8777  -27.0008 C   0  0  0  0  0  0  0  0  0  0  0  0
   14.6903    8.1027  -26.4790 O   0  0  0  0  0  0  0  0  0  0  0  0
  1  2  1  0
  2  3  2  0
  2  5  1  0
  3  4  1  0
  4  7  2  0
  5  6  2  0
  6  7  1  0
  7  8  1  0
  8  9  1  6
  8 10  1  0
  8 11  1  0
 11 12  2  0
 11 14  1  0
 12 13  1  0
 13 16  2  0
 14 15  2  0
 15 16  1  0
 16 17  1  0
M  END
$$$$
