
     RDKit          3D

 17 18  0  0  0  0  0  0  0  0999 V2000
   15.0109    8.9999  -26.1782 O   0  0  0  0  0  0  0  0  0  0  0  0
   15.2749    7.6906  -26.5508 C   0  0  0  0  0  0  0  0  0  0  0  0
   16.3542    6.9809  -26.0768 C   0  0  0  0  0  0  0  0  0  0  0  0
   16.5908    5.6708  -26.4695 C   0  0  0  0  0  0  0  0  0  0  0  0
   14.4227    7.0836  -27.4270 C   0  0  0  0  0  0  0  0  0  0  0  0
   14.6704    5.7644  -27.8156 C   0  0  0  0  0  0  0  0  0  0  0  0
   15.7422    5.0411  -27.3530 C   0  0  0  0  0  0  0  0  0  0  0  0
   15.9438    3.6705  -27.7962 C   0  0  2  0  0  0  0  0  0  0  0  0
   14.8271    2.8361  -27.1507 C   0  0  0  0  0  0  0  0  0  0  0  0
   17.3010    3.1569  -27.2860 C   0  0  0  0  0  0  0  0  0  0  0  0
   15.9168    3.4440  -29.2281 C   0  0  0  0  0  0  0  0  0  0  0  0
   14.8759    2.7536  -29.7920 C   0  0  0  0  0  0  0  0  0  0  0  0
   14.8300    2.5249  -31.1730 C   0  0  0  0  0  0  0  0  0  0  0  0
   16.9110    3.9000  -30.0803 C   0  0  0  0  0  0  0  0  0  0  0  0
   16.8863    3.6871  -31.4365 C   0  0  0  0  0  0  0  0  0  0  0  0
   15.8329    2.9905  -31.9935 C   0  0  0  0  0  0  0  0  0  0  0  0
   15.8116    2.7742  -33.3847 O   0  0  0  0  0  0  0  0  0  0  0  0
  1  2  1  0
  2  3  2  0
  2  5  1  0
  3  4  1  0
  4  7  2  0
  5  6  2  0
  6  7  1  0
  8  7  1  6
  9  8  1  6
 10  8  1  6
  8 11  1  0
 11 12  2  0
 11 14  1  0
 12 13  1  0
 13 16  2  0
 14 15  2  0
 15 16  1  0
 16 17  1  0
M  END
$$$$
