
     RDKit          3D

 17 18  0  0  0  0  0  0  0  0999 V2000
   16.2411    1.9222  -33.2216 O   0  0  0  0  0  0  0  0  0  0  0  0
   16.0694    2.3413  -31.9109 C   0  0  0  0  0  0  0  0  0  0  0  0
   14.9325    2.9802  -31.4725 C   0  0  0  0  0  0  0  0  0  0  0  0
   14.7914    3.3874  -30.1530 C   0  0  0  0  0  0  0  0  0  0  0  0
   17.0765    2.1067  -31.0202 C   0  0  0  0  0  0  0  0  0  0  0  0
   16.9239    2.5209  -29.6944 C   0  0  0  0  0  0  0  0  0  0  0  0
   15.7967    3.1597  -29.2393 C   0  0  0  0  0  0  0  0  0  0  0  0
   15.6997    3.5650  -27.8458 C   0  0  2  0  0  0  0  0  0  0  0  0
   16.9852    3.0773  -27.1606 C   0  0  0  0  0  0  0  0  0  0  0  0
   14.4957    2.8694  -27.1880 C   0  0  0  0  0  0  0  0  0  0  0  0
   15.5565    4.9858  -27.5947 C   0  0  0  0  0  0  0  0  0  0  0  0
   16.6214    5.7080  -27.1227 C   0  0  0  0  0  0  0  0  0  0  0  0
   16.5046    7.0814  -26.8747 C   0  0  0  0  0  0  0  0  0  0  0  0
   14.3715    5.6721  -27.8123 C   0  0  0  0  0  0  0  0  0  0  0  0
   14.2347    7.0177  -27.5760 C   0  0  0  0  0  0  0  0  0  0  0  0
   15.3140    7.7349  -27.1007 C   0  0  0  0  0  0  0  0  0  0  0  0
   15.1693    9.1146  -26.8594 O   0  0  0  0  0  0  0  0  0  0  0  0
  1  2  1  0
  2  3  2  0
  2  5  1  0
  3  4  1  0
  4  7  2  0
  5  6  2  0
  6  7  1  0
  8  7  1  6
  9  8  1  6
 10  8  1  6
  8 11  1  0
 11 12  2  0
 11 14  1  0
 12 13  1  0
 13 16  2  0
 14 15  2  0
 15 16  1  0
 16 17  1  0
M  END
$$$$
