
     RDKit          3D

 17 18  0  0  0  0  0  0  0  0999 V2000
   15.8629    8.0042  -25.8889 O   0  0  0  0  0  0  0  0  0  0  0  0
   15.7231    6.8495  -26.6440 C   0  0  0  0  0  0  0  0  0  0  0  0
   14.9323    6.7817  -27.7679 C   0  0  0  0  0  0  0  0  0  0  0  0
   14.8135    5.6099  -28.5024 C   0  0  0  0  0  0  0  0  0  0  0  0
   16.4026    5.7335  -26.2501 C   0  0  0  0  0  0  0  0  0  0  0  0
   16.2757    4.5593  -26.9968 C   0  0  0  0  0  0  0  0  0  0  0  0
   15.4913    4.4732  -28.1208 C   0  0  0  0  0  0  0  0  0  0  0  0
   15.4023    3.2205  -28.8545 C   0  0  2  0  0  0  0  0  0  0  0  0
   15.2470    3.5946  -30.3363 C   0  0  0  0  0  0  0  0  0  0  0  0
   14.1500    2.4475  -28.4070 C   0  0  0  0  0  0  0  0  0  0  0  0
   16.5272    2.3148  -28.7253 C   0  0  0  0  0  0  0  0  0  0  0  0
   16.6109    1.2087  -29.5301 C   0  0  0  0  0  0  0  0  0  0  0  0
   17.6895    0.3218  -29.4223 C   0  0  0  0  0  0  0  0  0  0  0  0
   17.5497    2.5116  -27.8097 C   0  0  0  0  0  0  0  0  0  0  0  0
   18.6159    1.6554  -27.6868 C   0  0  0  0  0  0  0  0  0  0  0  0
   18.6898    0.5445  -28.5027 C   0  0  0  0  0  0  0  0  0  0  0  0
   19.7848   -0.3312  -28.3733 O   0  0  0  0  0  0  0  0  0  0  0  0
  1  2  1  0
  2  3  2  0
  2  5  1  0
  3  4  1  0
  4  7  2  0
  5  6  2  0
  6  7  1  0
  8  7  1  1
  9  8  1  6
 10  8  1  6
  8 11  1  0
 11 12  2  0
 11 14  1  0
 12 13  1  0
 13 16  2  0
 14 15  2  0
 15 16  1  0
 16 17  1  0
M  END
$$$$
