
     RDKit          3D

 17 18  0  0  0  0  0  0  0  0999 V2000
   18.4648   -0.7066  -26.3439 O   0  0  0  0  0  0  0  0  0  0  0  0
   17.8373    0.3232  -27.0286 C   0  0  0  0  0  0  0  0  0  0  0  0
   18.2256    0.7331  -28.2833 C   0  0  0  0  0  0  0  0  0  0  0  0
   17.5763    1.7679  -28.9423 C   0  0  0  0  0  0  0  0  0  0  0  0
   16.7882    0.9548  -26.4261 C   0  0  0  0  0  0  0  0  0  0  0  0
   16.1419    1.9953  -27.0985 C   0  0  0  0  0  0  0  0  0  0  0  0
   16.5156    2.4177  -28.3507 C   0  0  0  0  0  0  0  0  0  0  0  0
   15.8006    3.5069  -28.9972 C   0  0  2  0  0  0  0  0  0  0  0  0
   14.3663    3.0084  -29.2291 C   0  0  0  0  0  0  0  0  0  0  0  0
   16.4443    3.8097  -30.3611 C   0  0  0  0  0  0  0  0  0  0  0  0
   15.7391    4.7603  -28.2709 C   0  0  0  0  0  0  0  0  0  0  0  0
   16.7564    5.1094  -27.4215 C   0  0  0  0  0  0  0  0  0  0  0  0
   16.7172    6.3159  -26.7114 C   0  0  0  0  0  0  0  0  0  0  0  0
   14.6813    5.6485  -28.3922 C   0  0  0  0  0  0  0  0  0  0  0  0
   14.6222    6.8362  -27.7059 C   0  0  0  0  0  0  0  0  0  0  0  0
   15.6525    7.1775  -26.8531 C   0  0  0  0  0  0  0  0  0  0  0  0
   15.5877    8.3963  -26.1510 O   0  0  0  0  0  0  0  0  0  0  0  0
  1  2  1  0
  2  3  2  0
  2  5  1  0
  3  4  1  0
  4  7  2  0
  5  6  2  0
  6  7  1  0
  8  7  1  1
  9  8  1  6
 10  8  1  6
  8 11  1  0
 11 12  2  0
 11 14  1  0
 12 13  1  0
 13 16  2  0
 14 15  2  0
 15 16  1  0
 16 17  1  0
M  END
$$$$
