
     RDKit          3D

 17 18  0  0  0  0  0  0  0  0999 V2000
   16.6124    2.8926  -33.3229 O   0  0  0  0  0  0  0  0  0  0  0  0
   16.3435    3.1066  -31.9794 C   0  0  0  0  0  0  0  0  0  0  0  0
   15.0796    3.3651  -31.5013 C   0  0  0  0  0  0  0  0  0  0  0  0
   14.8435    3.5750  -30.1497 C   0  0  0  0  0  0  0  0  0  0  0  0
   17.3829    3.0573  -31.0965 C   0  0  0  0  0  0  0  0  0  0  0  0
   17.1339    3.2701  -29.7381 C   0  0  0  0  0  0  0  0  0  0  0  0
   15.8795    3.5294  -29.2431 C   0  0  0  0  0  0  0  0  0  0  0  0
   15.6869    3.7414  -27.8171 C   0  0  2  0  0  0  0  0  0  0  0  0
   16.9332    3.1741  -27.1209 C   0  0  0  0  0  0  0  0  0  0  0  0
   14.4542    2.9548  -27.3397 C   0  0  0  0  0  0  0  0  0  0  0  0
   15.5056    5.1141  -27.3867 C   0  0  0  0  0  0  0  0  0  0  0  0
   16.4496    5.7130  -26.5942 C   0  0  0  0  0  0  0  0  0  0  0  0
   16.2944    7.0381  -26.1685 C   0  0  0  0  0  0  0  0  0  0  0  0
   14.4019    5.8741  -27.7429 C   0  0  0  0  0  0  0  0  0  0  0  0
   14.2293    7.1743  -27.3370 C   0  0  0  0  0  0  0  0  0  0  0  0
   15.1867    7.7673  -26.5389 C   0  0  0  0  0  0  0  0  0  0  0  0
   15.0057    9.1009  -26.1247 O   0  0  0  0  0  0  0  0  0  0  0  0
  1  2  1  0
  2  3  2  0
  2  5  1  0
  3  4  1  0
  4  7  2  0
  5  6  2  0
  6  7  1  0
  8  7  1  6
  9  8  1  6
 10  8  1  6
  8 11  1  0
 11 12  2  0
 11 14  1  0
 12 13  1  0
 13 16  2  0
 14 15  2  0
 15 16  1  0
 16 17  1  0
M  END
$$$$
