
     RDKit          3D

 17 18  0  0  0  0  0  0  0  0999 V2000
   15.8494    2.8082  -33.4024 O   0  0  0  0  0  0  0  0  0  0  0  0
   15.8996    3.0616  -32.0399 C   0  0  0  0  0  0  0  0  0  0  0  0
   16.8844    3.8251  -31.4566 C   0  0  0  0  0  0  0  0  0  0  0  0
   16.9064    4.0602  -30.0889 C   0  0  0  0  0  0  0  0  0  0  0  0
   14.9258    2.5273  -31.2469 C   0  0  0  0  0  0  0  0  0  0  0  0
   14.9577    2.7703  -29.8713 C   0  0  0  0  0  0  0  0  0  0  0  0
   15.9325    3.5295  -29.2720 C   0  0  0  0  0  0  0  0  0  0  0  0
   15.9085    3.7454  -27.8338 C   0  0  2  0  0  0  0  0  0  0  0  0
   17.2864    3.3173  -27.3067 C   0  0  0  0  0  0  0  0  0  0  0  0
   14.8352    2.8479  -27.1945 C   0  0  0  0  0  0  0  0  0  0  0  0
   15.6473    5.1002  -27.3882 C   0  0  0  0  0  0  0  0  0  0  0  0
   16.5187    5.7181  -26.5297 C   0  0  0  0  0  0  0  0  0  0  0  0
   16.2857    7.0265  -26.0881 C   0  0  0  0  0  0  0  0  0  0  0  0
   14.5365    5.8242  -27.7940 C   0  0  0  0  0  0  0  0  0  0  0  0
   14.2884    7.1075  -27.3736 C   0  0  0  0  0  0  0  0  0  0  0  0
   15.1730    7.7198  -26.5090 C   0  0  0  0  0  0  0  0  0  0  0  0
   14.9147    9.0359  -26.0802 O   0  0  0  0  0  0  0  0  0  0  0  0
  1  2  1  0
  2  3  2  0
  2  5  1  0
  3  4  1  0
  4  7  2  0
  5  6  2  0
  6  7  1  0
  8  7  1  6
  9  8  1  6
 10  8  1  6
  8 11  1  0
 11 12  2  0
 11 14  1  0
 12 13  1  0
 13 16  2  0
 14 15  2  0
 15 16  1  0
 16 17  1  0
M  END
$$$$
