
     RDKit          3D

 17 18  0  0  0  0  0  0  0  0999 V2000
   15.2885    8.3857  -26.4023 O   0  0  0  0  0  0  0  0  0  0  0  0
   15.2609    7.1420  -27.0151 C   0  0  0  0  0  0  0  0  0  0  0  0
   14.3053    6.7836  -27.9378 C   0  0  0  0  0  0  0  0  0  0  0  0
   14.3054    5.5300  -28.5336 C   0  0  0  0  0  0  0  0  0  0  0  0
   16.2274    6.2370  -26.6845 C   0  0  0  0  0  0  0  0  0  0  0  0
   16.2179    4.9779  -27.2903 C   0  0  0  0  0  0  0  0  0  0  0  0
   15.2723    4.6030  -28.2129 C   0  0  0  0  0  0  0  0  0  0  0  0
   15.3186    3.2765  -28.8078 C   0  0  2  0  0  0  0  0  0  0  0  0
   15.6605    3.4772  -30.2919 C   0  0  0  0  0  0  0  0  0  0  0  0
   13.9332    2.6160  -28.7057 C   0  0  0  0  0  0  0  0  0  0  0  0
   16.2738    2.3461  -28.2385 C   0  0  0  0  0  0  0  0  0  0  0  0
   15.9080    1.5485  -27.1858 C   0  0  0  0  0  0  0  0  0  0  0  0
   16.8149    0.6424  -26.6220 C   0  0  0  0  0  0  0  0  0  0  0  0
   17.5699    2.2146  -28.7132 C   0  0  0  0  0  0  0  0  0  0  0  0
   18.4753    1.3333  -28.1757 C   0  0  0  0  0  0  0  0  0  0  0  0
   18.0957    0.5349  -27.1157 C   0  0  0  0  0  0  0  0  0  0  0  0
   19.0273   -0.3674  -26.5673 O   0  0  0  0  0  0  0  0  0  0  0  0
  1  2  1  0
  2  3  2  0
  2  5  1  0
  3  4  1  0
  4  7  2  0
  5  6  2  0
  6  7  1  0
  8  7  1  1
  9  8  1  6
 10  8  1  6
  8 11  1  0
 11 12  2  0
 11 14  1  0
 12 13  1  0
 13 16  2  0
 14 15  2  0
 15 16  1  0
 16 17  1  0
M  END
$$$$
