
     RDKit          3D

 17 18  0  0  0  0  0  0  0  0999 V2000
   15.0247    8.9980  -26.2826 O   0  0  0  0  0  0  0  0  0  0  0  0
   15.1972    7.6802  -26.6765 C   0  0  0  0  0  0  0  0  0  0  0  0
   16.3465    6.9922  -26.3438 C   0  0  0  0  0  0  0  0  0  0  0  0
   16.4915    5.6616  -26.7568 C   0  0  0  0  0  0  0  0  0  0  0  0
   14.1920    7.0624  -27.4132 C   0  0  0  0  0  0  0  0  0  0  0  0
   14.3709    5.7319  -27.8083 C   0  0  0  0  0  0  0  0  0  0  0  0
   15.5076    5.0375  -27.4847 C   0  0  0  0  0  0  0  0  0  0  0  0
   15.6737    3.6507  -27.9087 C   0  0  2  0  0  0  0  0  0  0  0  0
   14.4071    2.8262  -27.6355 C   0  0  0  0  0  0  0  0  0  0  0  0
   16.7742    2.9352  -27.1326 C   0  0  0  0  0  0  0  0  0  0  0  0
   15.9731    3.5211  -29.3640 C   0  0  0  0  0  0  0  0  0  0  0  0
   14.9960    3.6544  -30.3307 C   0  0  0  0  0  0  0  0  0  0  0  0
   15.2783    3.5365  -31.6792 C   0  0  0  0  0  0  0  0  0  0  0  0
   17.2488    3.2631  -29.8254 C   0  0  0  0  0  0  0  0  0  0  0  0
   17.5334    3.1450  -31.1697 C   0  0  0  0  0  0  0  0  0  0  0  0
   16.5549    3.2788  -32.1323 C   0  0  0  0  0  0  0  0  0  0  0  0
   16.8271    3.1618  -33.4942 O   0  0  0  0  0  0  0  0  0  0  0  0
  1  2  1  0
  2  3  2  0
  2  5  1  0
  3  4  1  0
  4  7  2  0
  5  6  2  0
  6  7  1  0
  7  8  1  0
  8  9  1  6
  8 10  1  0
  8 11  1  0
 11 12  2  0
 11 14  1  0
 12 13  1  0
 13 16  2  0
 14 15  2  0
 15 16  1  0
 16 17  1  0
M  END
$$$$
