
     RDKit          3D

 17 18  0  0  0  0  0  0  0  0999 V2000
   15.3048    2.7354  -33.2321 O   0  0  0  0  0  0  0  0  0  0  0  0
   15.4735    2.9625  -31.8750 C   0  0  0  0  0  0  0  0  0  0  0  0
   16.5535    3.6871  -31.4130 C   0  0  0  0  0  0  0  0  0  0  0  0
   16.6967    3.8993  -30.0359 C   0  0  0  0  0  0  0  0  0  0  0  0
   14.5356    2.4478  -30.9862 C   0  0  0  0  0  0  0  0  0  0  0  0
   14.7104    2.6800  -29.6173 C   0  0  0  0  0  0  0  0  0  0  0  0
   15.7787    3.3976  -29.1455 C   0  0  0  0  0  0  0  0  0  0  0  0
   15.9421    3.6263  -27.7131 C   0  0  2  0  0  0  0  0  0  0  0  0
   17.3653    3.2820  -27.2499 C   0  0  0  0  0  0  0  0  0  0  0  0
   15.0367    2.7292  -26.8760 C   0  0  0  0  0  0  0  0  0  0  0  0
   15.6854    5.0416  -27.3189 C   0  0  0  0  0  0  0  0  0  0  0  0
   16.5299    5.7346  -26.4740 C   0  0  0  0  0  0  0  0  0  0  0  0
   16.2900    7.0476  -26.1132 C   0  0  0  0  0  0  0  0  0  0  0  0
   14.5872    5.7393  -27.7815 C   0  0  0  0  0  0  0  0  0  0  0  0
   14.3454    7.0490  -27.4234 C   0  0  0  0  0  0  0  0  0  0  0  0
   15.1910    7.7379  -26.5794 C   0  0  0  0  0  0  0  0  0  0  0  0
   14.9596    9.0613  -26.2085 O   0  0  0  0  0  0  0  0  0  0  0  0
  1  2  1  0
  2  3  2  0
  2  5  1  0
  3  4  1  0
  4  7  2  0
  5  6  2  0
  6  7  1  0
  7  8  1  0
  8  9  1  1
  8 10  1  0
  8 11  1  0
 11 12  2  0
 11 14  1  0
 12 13  1  0
 13 16  2  0
 14 15  2  0
 15 16  1  0
 16 17  1  0
M  END
$$$$
