
     RDKit          3D

 17 18  0  0  0  0  0  0  0  0999 V2000
   13.3951    8.1514  -28.1280 O   0  0  0  0  0  0  0  0  0  0  0  0
   13.9715    6.9037  -28.3087 C   0  0  0  0  0  0  0  0  0  0  0  0
   13.5083    6.0514  -29.2905 C   0  0  0  0  0  0  0  0  0  0  0  0
   14.1111    4.7969  -29.4481 C   0  0  0  0  0  0  0  0  0  0  0  0
   15.0252    6.5248  -27.4836 C   0  0  0  0  0  0  0  0  0  0  0  0
   15.6037    5.2643  -27.6702 C   0  0  0  0  0  0  0  0  0  0  0  0
   15.1528    4.4084  -28.6412 C   0  0  0  0  0  0  0  0  0  0  0  0
   15.7702    3.0974  -28.8171 C   0  0  2  0  0  0  0  0  0  0  0  0
   16.7939    3.1098  -29.9619 C   0  0  0  0  0  0  0  0  0  0  0  0
   14.7581    2.0291  -29.2165 C   0  0  0  0  0  0  0  0  0  0  0  0
   16.4860    2.6251  -27.5968 C   0  0  0  0  0  0  0  0  0  0  0  0
   17.8421    2.3638  -27.5943 C   0  0  0  0  0  0  0  0  0  0  0  0
   18.5025    1.9289  -26.4601 C   0  0  0  0  0  0  0  0  0  0  0  0
   15.8297    2.4257  -26.3983 C   0  0  0  0  0  0  0  0  0  0  0  0
   16.4858    1.9920  -25.2654 C   0  0  0  0  0  0  0  0  0  0  0  0
   17.8403    1.7321  -25.2667 C   0  0  0  0  0  0  0  0  0  0  0  0
   18.5168    1.2932  -24.1300 O   0  0  0  0  0  0  0  0  0  0  0  0
  1  2  1  0
  2  3  2  0
  2  5  1  0
  3  4  1  0
  4  7  2  0
  5  6  2  0
  6  7  1  0
  7  8  1  0
  8  9  1  6
  8 10  1  0
  8 11  1  0
 11 12  2  0
 11 14  1  0
 12 13  1  0
 13 16  2  0
 14 15  2  0
 15 16  1  0
 16 17  1  0
M  END
$$$$
