
     RDKit          3D

 17 18  0  0  0  0  0  0  0  0999 V2000
   15.2671    2.7512  -33.3669 O   0  0  0  0  0  0  0  0  0  0  0  0
   15.4199    2.9336  -32.0013 C   0  0  0  0  0  0  0  0  0  0  0  0
   16.6271    3.3518  -31.4791 C   0  0  0  0  0  0  0  0  0  0  0  0
   16.7503    3.5266  -30.0949 C   0  0  0  0  0  0  0  0  0  0  0  0
   14.3356    2.6879  -31.1654 C   0  0  0  0  0  0  0  0  0  0  0  0
   14.4950    2.8737  -29.7876 C   0  0  0  0  0  0  0  0  0  0  0  0
   15.6886    3.2883  -29.2563 C   0  0  0  0  0  0  0  0  0  0  0  0
   15.8328    3.4741  -27.8157 C   0  0  2  0  0  0  0  0  0  0  0  0
   17.2094    3.0017  -27.3253 C   0  0  0  0  0  0  0  0  0  0  0  0
   14.8336    2.6402  -27.0209 C   0  0  0  0  0  0  0  0  0  0  0  0
   15.6854    4.8979  -27.3969 C   0  0  0  0  0  0  0  0  0  0  0  0
   14.5948    5.6627  -27.7613 C   0  0  0  0  0  0  0  0  0  0  0  0
   14.4605    6.9816  -27.3685 C   0  0  0  0  0  0  0  0  0  0  0  0
   16.6334    5.5299  -26.6166 C   0  0  0  0  0  0  0  0  0  0  0  0
   16.5020    6.8452  -26.2232 C   0  0  0  0  0  0  0  0  0  0  0  0
   15.4115    7.6059  -26.5891 C   0  0  0  0  0  0  0  0  0  0  0  0
   15.2651    8.9361  -26.1996 O   0  0  0  0  0  0  0  0  0  0  0  0
  1  2  1  0
  2  3  2  0
  2  5  1  0
  3  4  1  0
  4  7  2  0
  5  6  2  0
  6  7  1  0
  7  8  1  0
  8  9  1  1
  8 10  1  0
  8 11  1  0
 11 12  2  0
 11 14  1  0
 12 13  1  0
 13 16  2  0
 14 15  2  0
 15 16  1  0
 16 17  1  0
M  END
$$$$
