
     RDKit          3D

 17 18  0  0  0  0  0  0  0  0999 V2000
   15.1518    9.0709  -26.0837 O   0  0  0  0  0  0  0  0  0  0  0  0
   15.2630    7.7650  -26.5368 C   0  0  0  0  0  0  0  0  0  0  0  0
   14.3198    7.1696  -27.3423 C   0  0  0  0  0  0  0  0  0  0  0  0
   14.4606    5.8596  -27.7791 C   0  0  0  0  0  0  0  0  0  0  0  0
   16.3593    7.0427  -26.1639 C   0  0  0  0  0  0  0  0  0  0  0  0
   16.4909    5.7248  -26.6093 C   0  0  0  0  0  0  0  0  0  0  0  0
   15.5598    5.1145  -27.4134 C   0  0  0  0  0  0  0  0  0  0  0  0
   15.7563    3.7390  -27.8435 C   0  0  2  0  0  0  0  0  0  0  0  0
   14.4648    2.9849  -27.4926 C   0  0  0  0  0  0  0  0  0  0  0  0
   16.9217    3.1136  -27.0581 C   0  0  0  0  0  0  0  0  0  0  0  0
   16.0380    3.5363  -29.2513 C   0  0  0  0  0  0  0  0  0  0  0  0
   17.3342    3.4114  -29.6786 C   0  0  0  0  0  0  0  0  0  0  0  0
   17.6280    3.2140  -31.0336 C   0  0  0  0  0  0  0  0  0  0  0  0
   15.0429    3.4588  -30.2137 C   0  0  0  0  0  0  0  0  0  0  0  0
   15.3081    3.2659  -31.5470 C   0  0  0  0  0  0  0  0  0  0  0  0
   16.6173    3.1415  -31.9659 C   0  0  0  0  0  0  0  0  0  0  0  0
   16.8849    2.9440  -33.3341 O   0  0  0  0  0  0  0  0  0  0  0  0
  1  2  1  0
  2  3  2  0
  2  5  1  0
  3  4  1  0
  4  7  2  0
  5  6  2  0
  6  7  1  0
  8  7  1  6
  9  8  1  6
 10  8  1  6
  8 11  1  0
 11 12  2  0
 11 14  1  0
 12 13  1  0
 13 16  2  0
 14 15  2  0
 15 16  1  0
 16 17  1  0
M  END
$$$$
