
     RDKit          3D

 17 18  0  0  0  0  0  0  0  0999 V2000
   14.8375    8.8909  -26.4187 O   0  0  0  0  0  0  0  0  0  0  0  0
   15.2749    7.6396  -26.8260 C   0  0  0  0  0  0  0  0  0  0  0  0
   16.2775    6.9514  -26.1824 C   0  0  0  0  0  0  0  0  0  0  0  0
   16.6926    5.6997  -26.6154 C   0  0  0  0  0  0  0  0  0  0  0  0
   14.6807    7.0700  -27.9145 C   0  0  0  0  0  0  0  0  0  0  0  0
   15.1064    5.8096  -28.3418 C   0  0  0  0  0  0  0  0  0  0  0  0
   16.1052    5.1084  -27.7120 C   0  0  0  0  0  0  0  0  0  0  0  0
   16.5017    3.7994  -28.2067 C   0  0  2  0  0  0  0  0  0  0  0  0
   16.2927    2.8145  -27.0465 C   0  0  0  0  0  0  0  0  0  0  0  0
   17.9949    3.8171  -28.5757 C   0  0  0  0  0  0  0  0  0  0  0  0
   15.7855    3.3024  -29.3653 C   0  0  0  0  0  0  0  0  0  0  0  0
   14.4959    2.8578  -29.2335 C   0  0  0  0  0  0  0  0  0  0  0  0
   13.7859    2.3750  -30.3400 C   0  0  0  0  0  0  0  0  0  0  0  0
   16.3473    3.2520  -30.6319 C   0  0  0  0  0  0  0  0  0  0  0  0
   15.6700    2.7826  -31.7301 C   0  0  0  0  0  0  0  0  0  0  0  0
   14.3715    2.3373  -31.5856 C   0  0  0  0  0  0  0  0  0  0  0  0
   13.6806    1.8566  -32.7144 O   0  0  0  0  0  0  0  0  0  0  0  0
  1  2  1  0
  2  3  2  0
  2  5  1  0
  3  4  1  0
  4  7  2  0
  5  6  2  0
  6  7  1  0
  8  7  1  1
  9  8  1  6
 10  8  1  6
  8 11  1  0
 11 12  2  0
 11 14  1  0
 12 13  1  0
 13 16  2  0
 14 15  2  0
 15 16  1  0
 16 17  1  0
M  END
$$$$
