
     RDKit          3D

 17 18  0  0  0  0  0  0  0  0999 V2000
   15.0550    9.0675  -26.5717 O   0  0  0  0  0  0  0  0  0  0  0  0
   15.2476    7.7359  -26.9058 C   0  0  0  0  0  0  0  0  0  0  0  0
   16.3408    7.0426  -26.4273 C   0  0  0  0  0  0  0  0  0  0  0  0
   16.5080    5.6982  -26.7830 C   0  0  0  0  0  0  0  0  0  0  0  0
   14.3200    7.1098  -27.7318 C   0  0  0  0  0  0  0  0  0  0  0  0
   14.5189    5.7655  -28.0660 C   0  0  0  0  0  0  0  0  0  0  0  0
   15.6005    5.0658  -27.5977 C   0  0  0  0  0  0  0  0  0  0  0  0
   15.7889    3.6645  -27.9604 C   0  0  2  0  0  0  0  0  0  0  0  0
   14.6487    2.7884  -27.4210 C   0  0  0  0  0  0  0  0  0  0  0  0
   17.0532    3.0721  -27.3473 C   0  0  0  0  0  0  0  0  0  0  0  0
   15.8441    3.4495  -29.4352 C   0  0  0  0  0  0  0  0  0  0  0  0
   14.7881    2.9049  -30.1392 C   0  0  0  0  0  0  0  0  0  0  0  0
   14.8421    2.7099  -31.5070 C   0  0  0  0  0  0  0  0  0  0  0  0
   16.9567    3.7877  -30.1799 C   0  0  0  0  0  0  0  0  0  0  0  0
   17.0134    3.5944  -31.5443 C   0  0  0  0  0  0  0  0  0  0  0  0
   15.9568    3.0502  -32.2440 C   0  0  0  0  0  0  0  0  0  0  0  0
   15.9995    2.8487  -33.6224 O   0  0  0  0  0  0  0  0  0  0  0  0
  1  2  1  0
  2  3  2  0
  2  5  1  0
  3  4  1  0
  4  7  2  0
  5  6  2  0
  6  7  1  0
  7  8  1  0
  8  9  1  1
  8 10  1  0
  8 11  1  0
 11 12  2  0
 11 14  1  0
 12 13  1  0
 13 16  2  0
 14 15  2  0
 15 16  1  0
 16 17  1  0
M  END
$$$$
