
     RDKit          3D

 17 18  0  0  0  0  0  0  0  0999 V2000
   14.4719    8.6626  -26.5106 O   0  0  0  0  0  0  0  0  0  0  0  0
   14.9534    7.4198  -26.8934 C   0  0  0  0  0  0  0  0  0  0  0  0
   14.6118    6.8190  -28.0831 C   0  0  0  0  0  0  0  0  0  0  0  0
   15.1113    5.5734  -28.4371 C   0  0  0  0  0  0  0  0  0  0  0  0
   15.8040    6.7680  -26.0483 C   0  0  0  0  0  0  0  0  0  0  0  0
   16.3009    5.5145  -26.4148 C   0  0  0  0  0  0  0  0  0  0  0  0
   15.9709    4.8999  -27.5977 C   0  0  0  0  0  0  0  0  0  0  0  0
   16.5233    3.5936  -27.9205 C   0  0  2  0  0  0  0  0  0  0  0  0
   16.3913    2.7397  -26.6504 C   0  0  0  0  0  0  0  0  0  0  0  0
   18.0153    3.7350  -28.2670 C   0  0  0  0  0  0  0  0  0  0  0  0
   15.8995    2.8819  -29.0189 C   0  0  0  0  0  0  0  0  0  0  0  0
   16.6603    2.4481  -30.0730 C   0  0  0  0  0  0  0  0  0  0  0  0
   16.0778    1.7579  -31.1434 C   0  0  0  0  0  0  0  0  0  0  0  0
   14.5409    2.6080  -29.0624 C   0  0  0  0  0  0  0  0  0  0  0  0
   13.9490    1.9334  -30.1014 C   0  0  0  0  0  0  0  0  0  0  0  0
   14.7252    1.5011  -31.1578 C   0  0  0  0  0  0  0  0  0  0  0  0
   14.1141    0.8097  -32.2214 O   0  0  0  0  0  0  0  0  0  0  0  0
  1  2  1  0
  2  3  2  0
  2  5  1  0
  3  4  1  0
  4  7  2  0
  5  6  2  0
  6  7  1  0
  8  7  1  1
  9  8  1  6
 10  8  1  6
  8 11  1  0
 11 12  2  0
 11 14  1  0
 12 13  1  0
 13 16  2  0
 14 15  2  0
 15 16  1  0
 16 17  1  0
M  END
$$$$
