
     RDKit          3D

 17 18  0  0  0  0  0  0  0  0999 V2000
   13.1638    1.1003  -31.9778 O   0  0  0  0  0  0  0  0  0  0  0  0
   13.9946    1.7409  -31.0716 C   0  0  0  0  0  0  0  0  0  0  0  0
   13.5381    2.0710  -29.8117 C   0  0  0  0  0  0  0  0  0  0  0  0
   14.4014    2.7183  -28.9187 C   0  0  0  0  0  0  0  0  0  0  0  0
   15.2969    2.0457  -31.4536 C   0  0  0  0  0  0  0  0  0  0  0  0
   16.1316    2.6923  -30.5352 C   0  0  0  0  0  0  0  0  0  0  0  0
   15.6904    3.0258  -29.2810 C   0  0  0  0  0  0  0  0  0  0  0  0
   16.5780    3.7015  -28.3396 C   0  0  2  0  0  0  0  0  0  0  0  0
   17.9399    4.0115  -28.9781 C   0  0  0  0  0  0  0  0  0  0  0  0
   16.9081    2.8340  -27.1296 C   0  0  0  0  0  0  0  0  0  0  0  0
   16.0232    4.9947  -27.8455 C   0  0  0  0  0  0  0  0  0  0  0  0
   16.3596    5.5160  -26.6117 C   0  0  0  0  0  0  0  0  0  0  0  0
   15.8454    6.7168  -26.1585 C   0  0  0  0  0  0  0  0  0  0  0  0
   15.1424    5.7452  -28.5991 C   0  0  0  0  0  0  0  0  0  0  0  0
   14.6280    6.9433  -28.1497 C   0  0  0  0  0  0  0  0  0  0  0  0
   14.9662    7.4608  -26.9169 C   0  0  0  0  0  0  0  0  0  0  0  0
   14.4544    8.6699  -26.4493 O   0  0  0  0  0  0  0  0  0  0  0  0
  1  2  1  0
  2  3  2  0
  2  5  1  0
  3  4  1  0
  4  7  2  0
  5  6  2  0
  6  7  1  0
  7  8  1  0
  8  9  1  6
  8 10  1  0
  8 11  1  0
 11 12  2  0
 11 14  1  0
 12 13  1  0
 13 16  2  0
 14 15  2  0
 15 16  1  0
 16 17  1  0
M  END
$$$$
