
     RDKit          3D

 17 18  0  0  0  0  0  0  0  0999 V2000
   13.0987    1.0767  -31.9904 O   0  0  0  0  0  0  0  0  0  0  0  0
   13.9327    1.7356  -31.1005 C   0  0  0  0  0  0  0  0  0  0  0  0
   13.5299    1.9690  -29.8013 C   0  0  0  0  0  0  0  0  0  0  0  0
   14.3951    2.6378  -28.9260 C   0  0  0  0  0  0  0  0  0  0  0  0
   15.1833    2.1580  -31.5392 C   0  0  0  0  0  0  0  0  0  0  0  0
   16.0216    2.8226  -30.6370 C   0  0  0  0  0  0  0  0  0  0  0  0
   15.6334    3.0608  -29.3442 C   0  0  0  0  0  0  0  0  0  0  0  0
   16.5235    3.7574  -28.4206 C   0  0  2  0  0  0  0  0  0  0  0  0
   17.9219    3.9470  -29.0265 C   0  0  0  0  0  0  0  0  0  0  0  0
   16.7629    2.9665  -27.1390 C   0  0  0  0  0  0  0  0  0  0  0  0
   16.0241    5.1112  -28.0436 C   0  0  0  0  0  0  0  0  0  0  0  0
   15.0721    5.7780  -28.7895 C   0  0  0  0  0  0  0  0  0  0  0  0
   14.6094    7.0318  -28.4350 C   0  0  0  0  0  0  0  0  0  0  0  0
   16.4858    5.7723  -26.9226 C   0  0  0  0  0  0  0  0  0  0  0  0
   16.0262    7.0229  -26.5666 C   0  0  0  0  0  0  0  0  0  0  0  0
   15.0753    7.6858  -27.3138 C   0  0  0  0  0  0  0  0  0  0  0  0
   14.6015    8.9497  -26.9668 O   0  0  0  0  0  0  0  0  0  0  0  0
  1  2  1  0
  2  3  2  0
  2  5  1  0
  3  4  1  0
  4  7  2  0
  5  6  2  0
  6  7  1  0
  7  8  1  0
  8  9  1  6
  8 10  1  0
  8 11  1  0
 11 12  2  0
 11 14  1  0
 12 13  1  0
 13 16  2  0
 14 15  2  0
 15 16  1  0
 16 17  1  0
M  END
$$$$
