
     RDKit          3D

 17 18  0  0  0  0  0  0  0  0999 V2000
   15.3368    8.9061  -26.4965 O   0  0  0  0  0  0  0  0  0  0  0  0
   15.5593    7.5808  -26.8367 C   0  0  0  0  0  0  0  0  0  0  0  0
   14.6863    6.9139  -27.6722 C   0  0  0  0  0  0  0  0  0  0  0  0
   14.9380    5.5749  -27.9972 C   0  0  0  0  0  0  0  0  0  0  0  0
   16.6778    6.9339  -26.3218 C   0  0  0  0  0  0  0  0  0  0  0  0
   16.8980    5.5961  -26.6685 C   0  0  0  0  0  0  0  0  0  0  0  0
   16.0385    4.9223  -27.4969 C   0  0  0  0  0  0  0  0  0  0  0  0
   16.2869    3.5265  -27.8440 C   0  0  2  0  0  0  0  0  0  0  0  0
   15.3992    2.5791  -27.0236 C   0  0  0  0  0  0  0  0  0  0  0  0
   17.7132    3.0940  -27.5215 C   0  0  0  0  0  0  0  0  0  0  0  0
   16.0270    3.2315  -29.2827 C   0  0  0  0  0  0  0  0  0  0  0  0
   16.7004    3.8791  -30.2997 C   0  0  0  0  0  0  0  0  0  0  0  0
   16.4586    3.6006  -31.6323 C   0  0  0  0  0  0  0  0  0  0  0  0
   15.0978    2.2892  -29.6771 C   0  0  0  0  0  0  0  0  0  0  0  0
   14.8546    2.0093  -31.0054 C   0  0  0  0  0  0  0  0  0  0  0  0
   15.5291    2.6580  -32.0184 C   0  0  0  0  0  0  0  0  0  0  0  0
   15.2939    2.3861  -33.3650 O   0  0  0  0  0  0  0  0  0  0  0  0
  1  2  1  0
  2  3  2  0
  2  5  1  0
  3  4  1  0
  4  7  2  0
  5  6  2  0
  6  7  1  0
  7  8  1  0
  8  9  1  1
  8 10  1  0
  8 11  1  0
 11 12  2  0
 11 14  1  0
 12 13  1  0
 13 16  2  0
 14 15  2  0
 15 16  1  0
 16 17  1  0
M  END
$$$$
