
     RDKit          3D

 17 18  0  0  0  0  0  0  0  0999 V2000
   13.4415    4.9463  -33.1558 O   0  0  0  0  0  0  0  0  0  0  0  0
   14.1032    4.5171  -32.0158 C   0  0  0  0  0  0  0  0  0  0  0  0
   13.9988    5.2237  -30.8349 C   0  0  0  0  0  0  0  0  0  0  0  0
   14.6798    4.7649  -29.7001 C   0  0  0  0  0  0  0  0  0  0  0  0
   14.8746    3.3615  -32.0820 C   0  0  0  0  0  0  0  0  0  0  0  0
   15.5405    2.9324  -30.9284 C   0  0  0  0  0  0  0  0  0  0  0  0
   15.4454    3.6253  -29.7495 C   0  0  0  0  0  0  0  0  0  0  0  0
   16.1499    3.1601  -28.5587 C   0  0  2  0  0  0  0  0  0  0  0  0
   17.5979    2.7647  -28.8837 C   0  0  0  0  0  0  0  0  0  0  0  0
   15.5276    1.8970  -27.9735 C   0  0  0  0  0  0  0  0  0  0  0  0
   16.2101    4.1896  -27.4813 C   0  0  0  0  0  0  0  0  0  0  0  0
   15.2878    4.2345  -26.4544 C   0  0  0  0  0  0  0  0  0  0  0  0
   15.3488    5.1888  -25.4557 C   0  0  0  0  0  0  0  0  0  0  0  0
   17.1968    5.1553  -27.4503 C   0  0  0  0  0  0  0  0  0  0  0  0
   17.2602    6.1083  -26.4554 C   0  0  0  0  0  0  0  0  0  0  0  0
   16.3373    6.1500  -25.4314 C   0  0  0  0  0  0  0  0  0  0  0  0
   16.3883    7.1070  -24.4195 O   0  0  0  0  0  0  0  0  0  0  0  0
  1  2  1  0
  2  3  2  0
  2  5  1  0
  3  4  1  0
  4  7  2  0
  5  6  2  0
  6  7  1  0
  7  8  1  0
  8  9  1  6
  8 10  1  0
  8 11  1  0
 11 12  2  0
 11 14  1  0
 12 13  1  0
 13 16  2  0
 14 15  2  0
 15 16  1  0
 16 17  1  0
M  END
$$$$
