
     RDKit          3D

 25 27  0  0  0  0  0  0  0  0999 V2000
   14.6879   22.6524   19.5447 C   0  0  0  0  0  0  0  0  0  0  0  0
   15.5730   22.2002   18.4849 C   0  0  0  0  0  0  0  0  0  0  0  0
   17.7323   21.3655   17.7685 C   0  0  0  0  0  0  0  0  0  0  0  0
   16.8703   21.7975   18.7459 C   0  0  0  0  0  0  0  0  0  0  0  0
   15.1062   22.1745   17.1963 C   0  0  0  0  0  0  0  0  0  0  0  0
   15.9460   21.7464   16.1933 C   0  0  0  0  0  0  0  0  0  0  0  0
   17.2375   21.3488   16.4758 C   0  0  0  0  0  0  0  0  0  0  0  0
   19.0956   20.9422   18.0461 C   0  0  0  0  0  0  0  0  0  0  0  0
   21.7582   20.1609   18.5117 C   0  0  0  0  0  0  0  0  0  0  0  0
   20.7668   19.8458   19.4156 C   0  0  0  0  0  0  0  0  0  0  0  0
   19.4443   20.2375   19.1777 C   0  0  0  0  0  0  0  0  0  0  0  0
   21.4231   20.8656   17.3752 C   0  0  0  0  0  0  0  0  0  0  0  0
   20.1096   21.2421   17.1614 C   0  0  0  0  0  0  0  0  0  0  0  0
   13.5041   22.9949   19.2269 O   0  0  0  0  0  0  0  0  0  0  0  0
   15.0195   22.7496   20.9114 N   0  0  0  0  0  0  0  0  0  0  0  0
   14.0246   22.9172   21.9099 N   0  0  0  0  0  0  0  0  0  0  0  0
   14.5187   24.1547   22.9793 S   0  0  1  0  0  6  0  0  0  0  0  0
   13.8992   23.8776   24.3350 O   0  0  0  0  0  0  0  0  0  0  0  0
   16.0038   24.1373   23.1889 O   0  0  0  0  0  0  0  0  0  0  0  0
   13.9913   25.6932   22.3575 C   0  0  0  0  0  0  0  0  0  0  0  0
   14.8715   26.5098   21.6786 C   0  0  0  0  0  0  0  0  0  0  0  0
   14.4996   27.7290   21.1766 C   0  0  0  0  0  0  0  0  0  0  0  0
   13.2059   28.1589   21.3524 C   0  0  0  0  0  0  0  0  0  0  0  0
   12.2794   27.3728   22.0301 C   0  0  0  0  0  0  0  0  0  0  0  0
   12.7036   26.1409   22.5227 C   0  0  0  0  0  0  0  0  0  0  0  0
  2  1  1  0
  1 14  2  0
  1 15  1  0
  4  2  2  0
  2  5  1  0
  3  4  1  0
  3  7  2  0
  8  3  1  0
  6  5  2  0
  7  6  1  0
 11  8  2  0
  8 13  1  0
 10  9  2  0
  9 12  1  0
 10 11  1  0
 12 13  2  0
 15 16  1  0
 17 16  1  6
 17 18  2  0
 17 19  2  0
 17 20  1  0
 20 21  2  0
 20 25  1  0
 21 22  1  0
 22 23  2  0
 23 24  1  0
 24 25  2  0
M  END
$$$$
