
     RDKit          3D

 25 27  0  0  0  0  0  0  0  0999 V2000
   17.8762   23.7143   20.8543 C   0  0  0  0  0  0  0  0  0  0  0  0
   18.3843   22.6913   19.9564 C   0  0  0  0  0  0  0  0  0  0  0  0
   18.0358   21.1560   18.1142 C   0  0  0  0  0  0  0  0  0  0  0  0
   17.5876   22.1244   18.9780 C   0  0  0  0  0  0  0  0  0  0  0  0
   19.6857   22.2809   20.0866 C   0  0  0  0  0  0  0  0  0  0  0  0
   20.1654   21.3113   19.2356 C   0  0  0  0  0  0  0  0  0  0  0  0
   19.3530   20.7586   18.2658 C   0  0  0  0  0  0  0  0  0  0  0  0
   17.1959   20.5622   17.0861 C   0  0  0  0  0  0  0  0  0  0  0  0
   15.6369   19.4147   15.0442 C   0  0  0  0  0  0  0  0  0  0  0  0
   15.0971   19.6499   16.2902 C   0  0  0  0  0  0  0  0  0  0  0  0
   15.8783   20.2211   17.3014 C   0  0  0  0  0  0  0  0  0  0  0  0
   16.9540   19.7513   14.8152 C   0  0  0  0  0  0  0  0  0  0  0  0
   17.7065   20.3145   15.8296 C   0  0  0  0  0  0  0  0  0  0  0  0
   18.7074   24.3051   21.6158 O   0  0  0  0  0  0  0  0  0  0  0  0
   16.5311   24.1213   20.9648 N   0  0  0  0  0  0  0  0  0  0  0  0
   16.1704   25.3405   21.5960 N   0  0  0  0  0  0  0  0  0  0  0  0
   15.1196   24.9979   22.8988 S   0  0  1  0  0  6  0  0  0  0  0  0
   14.1475   26.1535   23.0333 O   0  0  0  0  0  0  0  0  0  0  0  0
   14.2853   23.7819   22.6248 O   0  0  0  0  0  0  0  0  0  0  0  0
   16.0562   24.8008   24.3534 C   0  0  0  0  0  0  0  0  0  0  0  0
   15.4289   24.5873   25.5631 C   0  0  0  0  0  0  0  0  0  0  0  0
   16.1269   24.4310   26.7315 C   0  0  0  0  0  0  0  0  0  0  0  0
   17.5000   24.4881   26.7037 C   0  0  0  0  0  0  0  0  0  0  0  0
   18.1806   24.7014   25.5092 C   0  0  0  0  0  0  0  0  0  0  0  0
   17.4284   24.8546   24.3469 C   0  0  0  0  0  0  0  0  0  0  0  0
  2  1  1  0
  1 14  2  0
  1 15  1  0
  4  2  2  0
  2  5  1  0
  3  4  1  0
  3  7  2  0
  8  3  1  0
  6  5  2  0
  7  6  1  0
 11  8  2  0
  8 13  1  0
 10  9  2  0
  9 12  1  0
 10 11  1  0
 12 13  2  0
 15 16  1  0
 17 16  1  6
 17 18  2  0
 17 19  2  0
 17 20  1  0
 20 21  2  0
 20 25  1  0
 21 22  1  0
 22 23  2  0
 23 24  1  0
 24 25  2  0
M  END
$$$$
