
     RDKit          3D

 25 27  0  0  0  0  0  0  0  0999 V2000
   16.6583   24.4393   23.0311 C   0  0  0  0  0  0  0  0  0  0  0  0
   18.0471   24.8596   23.0542 C   0  0  0  0  0  0  0  0  0  0  0  0
   20.3566   24.6662   22.3627 C   0  0  0  0  0  0  0  0  0  0  0  0
   19.0249   24.2398   22.3217 C   0  0  0  0  0  0  0  0  0  0  0  0
   18.4053   25.9237   23.8416 C   0  0  0  0  0  0  0  0  0  0  0  0
   19.7046   26.3876   23.9211 C   0  0  0  0  0  0  0  0  0  0  0  0
   20.6585   25.7409   23.1721 C   0  0  0  0  0  0  0  0  0  0  0  0
   21.3831   23.9957   21.5784 C   0  0  0  0  0  0  0  0  0  0  0  0
   23.3030   22.6843   19.9889 C   0  0  0  0  0  0  0  0  0  0  0  0
   23.6326   23.1777   21.2256 C   0  0  0  0  0  0  0  0  0  0  0  0
   22.6799   23.8284   22.0144 C   0  0  0  0  0  0  0  0  0  0  0  0
   22.0156   22.8467   19.5482 C   0  0  0  0  0  0  0  0  0  0  0  0
   21.0812   23.4894   20.3314 C   0  0  0  0  0  0  0  0  0  0  0  0
   16.0401   24.3257   24.1181 O   0  0  0  0  0  0  0  0  0  0  0  0
   15.9215   24.1393   21.8711 N   0  0  0  0  0  0  0  0  0  0  0  0
   14.9370   23.2617   21.6402 N   0  0  0  0  0  0  0  0  0  0  0  0
   14.5064   22.6965   20.1408 S   0  0  1  0  0  6  0  0  0  0  0  0
   13.5393   21.5267   20.3075 O   0  0  0  0  0  0  0  0  0  0  0  0
   13.7600   23.6974   19.2884 O   0  0  0  0  0  0  0  0  0  0  0  0
   15.8760   22.0462   19.2771 C   0  0  0  0  0  0  0  0  0  0  0  0
   16.3871   22.7612   18.1844 C   0  0  0  0  0  0  0  0  0  0  0  0
   17.4859   22.3319   17.4718 C   0  0  0  0  0  0  0  0  0  0  0  0
   18.1308   21.1752   17.8067 C   0  0  0  0  0  0  0  0  0  0  0  0
   17.6449   20.4509   18.8831 C   0  0  0  0  0  0  0  0  0  0  0  0
   16.5429   20.8960   19.5860 C   0  0  0  0  0  0  0  0  0  0  0  0
  2  1  1  0
  1 14  2  0
  1 15  1  0
  4  2  2  0
  2  5  1  0
  3  4  1  0
  3  7  2  0
  8  3  1  0
  6  5  2  0
  7  6  1  0
 11  8  2  0
  8 13  1  0
 10  9  2  0
  9 12  1  0
 10 11  1  0
 12 13  2  0
 15 16  1  0
 17 16  1  1
 17 18  2  0
 17 19  2  0
 17 20  1  0
 20 21  2  0
 20 25  1  0
 21 22  1  0
 22 23  2  0
 23 24  1  0
 24 25  2  0
M  END
$$$$
