
     RDKit          3D

 25 27  0  0  0  0  0  0  0  0999 V2000
   16.8206   22.5497   22.3684 C   0  0  0  0  0  0  0  0  0  0  0  0
   17.8553   21.8624   21.6147 C   0  0  0  0  0  0  0  0  0  0  0  0
   18.9188   21.3495   19.4985 C   0  0  0  0  0  0  0  0  0  0  0  0
   17.9543   21.9851   20.2405 C   0  0  0  0  0  0  0  0  0  0  0  0
   18.7528   21.0737   22.2868 C   0  0  0  0  0  0  0  0  0  0  0  0
   19.7320   20.4228   21.5714 C   0  0  0  0  0  0  0  0  0  0  0  0
   19.8128   20.5591   20.2000 C   0  0  0  0  0  0  0  0  0  0  0  0
   19.0206   21.4809   18.0538 C   0  0  0  0  0  0  0  0  0  0  0  0
   19.3017   21.7292   15.2652 C   0  0  0  0  0  0  0  0  0  0  0  0
   18.0520   21.7251   15.8463 C   0  0  0  0  0  0  0  0  0  0  0  0
   17.9195   21.6013   17.2342 C   0  0  0  0  0  0  0  0  0  0  0  0
   20.4119   21.6096   16.0736 C   0  0  0  0  0  0  0  0  0  0  0  0
   20.2564   21.4884   17.4425 C   0  0  0  0  0  0  0  0  0  0  0  0
   16.3678   21.9818   23.4134 O   0  0  0  0  0  0  0  0  0  0  0  0
   16.2619   23.8037   22.0484 N   0  0  0  0  0  0  0  0  0  0  0  0
   15.2657   24.4054   22.8613 N   0  0  0  0  0  0  0  0  0  0  0  0
   14.5064   25.6514   21.9725 S   0  0  1  0  0  6  0  0  0  0  0  0
   13.4904   26.3203   22.8773 O   0  0  0  0  0  0  0  0  0  0  0  0
   15.4838   26.7203   21.5824 O   0  0  0  0  0  0  0  0  0  0  0  0
   13.7343   24.9659   20.5705 C   0  0  0  0  0  0  0  0  0  0  0  0
   12.5834   24.2175   20.7041 C   0  0  0  0  0  0  0  0  0  0  0  0
   11.9462   23.6572   19.6286 C   0  0  0  0  0  0  0  0  0  0  0  0
   12.4670   23.8435   18.3702 C   0  0  0  0  0  0  0  0  0  0  0  0
   13.6258   24.5900   18.1818 C   0  0  0  0  0  0  0  0  0  0  0  0
   14.2386   25.1403   19.3051 C   0  0  0  0  0  0  0  0  0  0  0  0
  2  1  1  0
  1 14  2  0
  1 15  1  0
  4  2  2  0
  2  5  1  0
  3  4  1  0
  3  7  2  0
  8  3  1  0
  6  5  2  0
  7  6  1  0
 11  8  2  0
  8 13  1  0
 10  9  2  0
  9 12  1  0
 10 11  1  0
 12 13  2  0
 15 16  1  0
 17 16  1  1
 17 18  2  0
 17 19  2  0
 17 20  1  0
 20 21  2  0
 20 25  1  0
 21 22  1  0
 22 23  2  0
 23 24  1  0
 24 25  2  0
M  END
$$$$
