
     RDKit          3D

 25 27  0  0  0  0  0  0  0  0999 V2000
   17.0675   25.5523   22.0032 C   0  0  0  0  0  0  0  0  0  0  0  0
   18.2162   26.2364   22.5677 C   0  0  0  0  0  0  0  0  0  0  0  0
   20.5581   26.3634   23.1580 C   0  0  0  0  0  0  0  0  0  0  0  0
   19.4679   25.6811   22.6077 C   0  0  0  0  0  0  0  0  0  0  0  0
   18.0500   27.4949   23.0864 C   0  0  0  0  0  0  0  0  0  0  0  0
   19.0903   28.2149   23.6423 C   0  0  0  0  0  0  0  0  0  0  0  0
   20.3318   27.6257   23.6649 C   0  0  0  0  0  0  0  0  0  0  0  0
   21.8814   25.7582   23.1930 C   0  0  0  0  0  0  0  0  0  0  0  0
   24.4272   24.5539   23.1688 C   0  0  0  0  0  0  0  0  0  0  0  0
   23.9899   25.2517   24.2659 C   0  0  0  0  0  0  0  0  0  0  0  0
   22.7266   25.8493   24.2778 C   0  0  0  0  0  0  0  0  0  0  0  0
   23.5926   24.4589   22.0861 C   0  0  0  0  0  0  0  0  0  0  0  0
   22.3480   25.0507   22.1048 C   0  0  0  0  0  0  0  0  0  0  0  0
   16.4086   26.1187   21.0968 O   0  0  0  0  0  0  0  0  0  0  0  0
   16.6125   24.2785   22.3891 N   0  0  0  0  0  0  0  0  0  0  0  0
   16.4973   23.1285   21.7132 N   0  0  0  0  0  0  0  0  0  0  0  0
   15.1358   22.6424   20.8988 S   0  0  1  0  0  6  0  0  0  0  0  0
   14.9393   21.1425   21.1064 O   0  0  0  0  0  0  0  0  0  0  0  0
   13.8546   23.2731   21.3951 O   0  0  0  0  0  0  0  0  0  0  0  0
   15.3035   22.8540   19.1750 C   0  0  0  0  0  0  0  0  0  0  0  0
   15.7879   24.0767   18.6883 C   0  0  0  0  0  0  0  0  0  0  0  0
   15.9801   24.3105   17.3437 C   0  0  0  0  0  0  0  0  0  0  0  0
   15.7026   23.3457   16.4174 C   0  0  0  0  0  0  0  0  0  0  0  0
   15.2230   22.1285   16.8736 C   0  0  0  0  0  0  0  0  0  0  0  0
   15.0365   21.9115   18.2244 C   0  0  0  0  0  0  0  0  0  0  0  0
  2  1  1  0
  1 14  2  0
  1 15  1  0
  4  2  2  0
  2  5  1  0
  3  4  1  0
  3  7  2  0
  8  3  1  0
  6  5  2  0
  7  6  1  0
 11  8  2  0
  8 13  1  0
 10  9  2  0
  9 12  1  0
 10 11  1  0
 12 13  2  0
 15 16  1  0
 17 16  1  1
 17 18  2  0
 17 19  2  0
 17 20  1  0
 20 21  2  0
 20 25  1  0
 21 22  1  0
 22 23  2  0
 23 24  1  0
 24 25  2  0
M  END
$$$$
