
     RDKit          3D

 25 27  0  0  0  0  0  0  0  0999 V2000
    8.0769   17.4574   18.6274 C   0  0  0  0  0  0  0  0  0  0  0  0
    9.1102   18.4782   18.6615 C   0  0  0  0  0  0  0  0  0  0  0  0
   11.4498   19.0995   18.5487 C   0  0  0  0  0  0  0  0  0  0  0  0
   10.4489   18.1601   18.5207 C   0  0  0  0  0  0  0  0  0  0  0  0
    8.7441   19.7873   18.8385 C   0  0  0  0  0  0  0  0  0  0  0  0
    9.7241   20.7532   18.8712 C   0  0  0  0  0  0  0  0  0  0  0  0
   11.0547   20.4138   18.7286 C   0  0  0  0  0  0  0  0  0  0  0  0
   12.8565   18.7619   18.3998 C   0  0  0  0  0  0  0  0  0  0  0  0
   15.5555   18.0363   18.0746 C   0  0  0  0  0  0  0  0  0  0  0  0
   15.2182   19.2439   18.6467 C   0  0  0  0  0  0  0  0  0  0  0  0
   13.8735   19.5985   18.8055 C   0  0  0  0  0  0  0  0  0  0  0  0
   14.5478   17.1897   17.6643 C   0  0  0  0  0  0  0  0  0  0  0  0
   13.2262   17.5615   17.8313 C   0  0  0  0  0  0  0  0  0  0  0  0
    6.8626   17.8385   18.6231 O   0  0  0  0  0  0  0  0  0  0  0  0
    8.2935   16.0648   18.5981 N   0  0  0  0  0  0  0  0  0  0  0  0
    7.2149   15.1420   18.6120 N   0  0  0  0  0  0  0  0  0  0  0  0
    7.5703   13.8611   17.5387 S   0  0  1  0  0  6  0  0  0  0  0  0
    8.9978   13.4188   17.7933 O   0  0  0  0  0  0  0  0  0  0  0  0
    6.7088   12.6636   17.8102 O   0  0  0  0  0  0  0  0  0  0  0  0
    7.3741   14.4160   15.9000 C   0  0  0  0  0  0  0  0  0  0  0  0
    6.1131   14.5966   15.3712 C   0  0  0  0  0  0  0  0  0  0  0  0
    5.9136   15.0277   14.0862 C   0  0  0  0  0  0  0  0  0  0  0  0
    7.0039   15.2908   13.2915 C   0  0  0  0  0  0  0  0  0  0  0  0
    8.2969   15.1243   13.7773 C   0  0  0  0  0  0  0  0  0  0  0  0
    8.4501   14.6842   15.0900 C   0  0  0  0  0  0  0  0  0  0  0  0
  2  1  1  0
  1 14  2  0
  1 15  1  0
  4  2  2  0
  2  5  1  0
  3  4  1  0
  3  7  2  0
  8  3  1  0
  6  5  2  0
  7  6  1  0
 11  8  2  0
  8 13  1  0
 10  9  2  0
  9 12  1  0
 10 11  1  0
 12 13  2  0
 15 16  1  0
 17 16  1  1
 17 18  2  0
 17 19  2  0
 17 20  1  0
 20 21  2  0
 20 25  1  0
 21 22  1  0
 22 23  2  0
 23 24  1  0
 24 25  2  0
M  END
$$$$
