
     RDKit          3D

 25 27  0  0  0  0  0  0  0  0999 V2000
   17.7147   25.0708   23.8906 C   0  0  0  0  0  0  0  0  0  0  0  0
   18.8769   25.8953   24.1655 C   0  0  0  0  0  0  0  0  0  0  0  0
   21.2467   26.3651   24.0522 C   0  0  0  0  0  0  0  0  0  0  0  0
   20.1437   25.5509   23.7739 C   0  0  0  0  0  0  0  0  0  0  0  0
   18.7084   27.0734   24.8470 C   0  0  0  0  0  0  0  0  0  0  0  0
   19.7610   27.9161   25.1494 C   0  0  0  0  0  0  0  0  0  0  0  0
   21.0174   27.5377   24.7406 C   0  0  0  0  0  0  0  0  0  0  0  0
   22.5861   25.9836   23.6293 C   0  0  0  0  0  0  0  0  0  0  0  0
   25.1921   25.3377   22.7788 C   0  0  0  0  0  0  0  0  0  0  0  0
   24.3942   24.3959   23.3771 C   0  0  0  0  0  0  0  0  0  0  0  0
   23.1010   24.7165   23.7992 C   0  0  0  0  0  0  0  0  0  0  0  0
   24.6874   26.5999   22.6063 C   0  0  0  0  0  0  0  0  0  0  0  0
   23.4111   26.9091   23.0249 C   0  0  0  0  0  0  0  0  0  0  0  0
   16.6253   25.3518   24.4479 O   0  0  0  0  0  0  0  0  0  0  0  0
   17.6968   23.9553   23.0339 N   0  0  0  0  0  0  0  0  0  0  0  0
   16.7151   23.1164   22.6801 N   0  0  0  0  0  0  0  0  0  0  0  0
   15.5831   23.4263   21.5073 S   0  0  1  0  0  6  0  0  0  0  0  0
   16.2766   24.0449   20.2958 O   0  0  0  0  0  0  0  0  0  0  0  0
   14.8897   22.1952   20.9697 O   0  0  0  0  0  0  0  0  0  0  0  0
   14.4179   24.6146   22.0315 C   0  0  0  0  0  0  0  0  0  0  0  0
   13.8225   24.4667   23.2925 C   0  0  0  0  0  0  0  0  0  0  0  0
   12.9187   25.3792   23.7923 C   0  0  0  0  0  0  0  0  0  0  0  0
   12.5615   26.4811   23.0684 C   0  0  0  0  0  0  0  0  0  0  0  0
   13.1364   26.6499   21.8191 C   0  0  0  0  0  0  0  0  0  0  0  0
   14.0403   25.7256   21.3341 C   0  0  0  0  0  0  0  0  0  0  0  0
  2  1  1  0
  1 14  2  0
  1 15  1  0
  4  2  2  0
  2  5  1  0
  3  4  1  0
  3  7  2  0
  8  3  1  0
  6  5  2  0
  7  6  1  0
 11  8  2  0
  8 13  1  0
 10  9  2  0
  9 12  1  0
 10 11  1  0
 12 13  2  0
 15 16  1  0
 17 16  1  1
 17 18  2  0
 17 19  2  0
 17 20  1  0
 20 21  2  0
 20 25  1  0
 21 22  1  0
 22 23  2  0
 23 24  1  0
 24 25  2  0
M  END
$$$$
