
     RDKit          3D

 25 27  0  0  0  0  0  0  0  0999 V2000
   14.8184   22.6419   19.1538 C   0  0  0  0  0  0  0  0  0  0  0  0
   15.8312   22.2260   18.2012 C   0  0  0  0  0  0  0  0  0  0  0  0
   18.0675   21.5046   17.6288 C   0  0  0  0  0  0  0  0  0  0  0  0
   17.1107   21.9027   18.5685 C   0  0  0  0  0  0  0  0  0  0  0  0
   15.5011   22.1505   16.8723 C   0  0  0  0  0  0  0  0  0  0  0  0
   16.4048   21.7639   15.9011 C   0  0  0  0  0  0  0  0  0  0  0  0
   17.6791   21.4470   16.3070 C   0  0  0  0  0  0  0  0  0  0  0  0
   19.4230   21.1652   18.0363 C   0  0  0  0  0  0  0  0  0  0  0  0
   22.0450   20.4345   18.7593 C   0  0  0  0  0  0  0  0  0  0  0  0
   21.4214   21.4993   19.3584 C   0  0  0  0  0  0  0  0  0  0  0  0
   20.1203   21.8619   18.9996 C   0  0  0  0  0  0  0  0  0  0  0  0
   21.3583   19.7367   17.8005 C   0  0  0  0  0  0  0  0  0  0  0  0
   20.0753   20.0998   17.4516 C   0  0  0  0  0  0  0  0  0  0  0  0
   13.7413   23.1229   18.7236 O   0  0  0  0  0  0  0  0  0  0  0  0
   14.9363   22.5532   20.5526 N   0  0  0  0  0  0  0  0  0  0  0  0
   14.1316   22.9555   21.5442 N   0  0  0  0  0  0  0  0  0  0  0  0
   14.3641   24.3227   22.4552 S   0  0  1  0  0  6  0  0  0  0  0  0
   13.7712   25.5206   21.7172 O   0  0  0  0  0  0  0  0  0  0  0  0
   13.6618   24.3063   23.7939 O   0  0  0  0  0  0  0  0  0  0  0  0
   16.0589   24.6898   22.6490 C   0  0  0  0  0  0  0  0  0  0  0  0
   16.8122   23.9404   23.5640 C   0  0  0  0  0  0  0  0  0  0  0  0
   18.1621   24.1464   23.7507 C   0  0  0  0  0  0  0  0  0  0  0  0
   18.8303   25.1033   23.0409 C   0  0  0  0  0  0  0  0  0  0  0  0
   18.1077   25.8570   22.1301 C   0  0  0  0  0  0  0  0  0  0  0  0
   16.7558   25.6369   21.9559 C   0  0  0  0  0  0  0  0  0  0  0  0
  2  1  1  0
  1 14  2  0
  1 15  1  0
  4  2  2  0
  2  5  1  0
  3  4  1  0
  3  7  2  0
  8  3  1  0
  6  5  2  0
  7  6  1  0
 11  8  2  0
  8 13  1  0
 10  9  2  0
  9 12  1  0
 10 11  1  0
 12 13  2  0
 15 16  1  0
 17 16  1  6
 17 18  2  0
 17 19  2  0
 17 20  1  0
 20 21  2  0
 20 25  1  0
 21 22  1  0
 22 23  2  0
 23 24  1  0
 24 25  2  0
M  END
$$$$
