
     RDKit          3D

 25 27  0  0  0  0  0  0  0  0999 V2000
   16.5011   23.8871   22.0271 C   0  0  0  0  0  0  0  0  0  0  0  0
   17.0107   24.7131   23.1082 C   0  0  0  0  0  0  0  0  0  0  0  0
   18.8738   25.7702   24.2414 C   0  0  0  0  0  0  0  0  0  0  0  0
   18.3594   24.9942   23.2323 C   0  0  0  0  0  0  0  0  0  0  0  0
   16.1292   25.2236   24.0255 C   0  0  0  0  0  0  0  0  0  0  0  0
   16.6135   26.0055   25.0495 C   0  0  0  0  0  0  0  0  0  0  0  0
   17.9637   26.2737   25.1548 C   0  0  0  0  0  0  0  0  0  0  0  0
   20.2922   26.0644   24.3690 C   0  0  0  0  0  0  0  0  0  0  0  0
   23.0412   26.6418   24.5318 C   0  0  0  0  0  0  0  0  0  0  0  0
   22.3035   26.4155   25.6737 C   0  0  0  0  0  0  0  0  0  0  0  0
   20.9364   26.1288   25.5854 C   0  0  0  0  0  0  0  0  0  0  0  0
   22.4092   26.5803   23.3081 C   0  0  0  0  0  0  0  0  0  0  0  0
   21.0573   26.2954   23.2456 C   0  0  0  0  0  0  0  0  0  0  0  0
   15.2784   23.5367   22.0703 O   0  0  0  0  0  0  0  0  0  0  0  0
   17.2419   23.4297   20.9184 N   0  0  0  0  0  0  0  0  0  0  0  0
   16.6483   22.6391   19.8997 N   0  0  0  0  0  0  0  0  0  0  0  0
   17.7777   21.4663   19.3825 S   0  0  1  0  0  6  0  0  0  0  0  0
   19.1511   22.1083   19.3774 O   0  0  0  0  0  0  0  0  0  0  0  0
   17.8577   20.3198   20.3464 O   0  0  0  0  0  0  0  0  0  0  0  0
   17.3428   20.9161   17.7887 C   0  0  0  0  0  0  0  0  0  0  0  0
   17.8449   21.5496   16.6711 C   0  0  0  0  0  0  0  0  0  0  0  0
   17.5257   21.1521   15.3996 C   0  0  0  0  0  0  0  0  0  0  0  0
   16.6760   20.0857   15.2250 C   0  0  0  0  0  0  0  0  0  0  0  0
   16.1424   19.4129   16.3196 C   0  0  0  0  0  0  0  0  0  0  0  0
   16.4956   19.8531   17.5930 C   0  0  0  0  0  0  0  0  0  0  0  0
  2  1  1  0
  1 14  2  0
  1 15  1  0
  4  2  2  0
  2  5  1  0
  3  4  1  0
  3  7  2  0
  8  3  1  0
  6  5  2  0
  7  6  1  0
 11  8  2  0
  8 13  1  0
 10  9  2  0
  9 12  1  0
 10 11  1  0
 12 13  2  0
 15 16  1  0
 17 16  1  1
 17 18  2  0
 17 19  2  0
 17 20  1  0
 20 21  2  0
 20 25  1  0
 21 22  1  0
 22 23  2  0
 23 24  1  0
 24 25  2  0
M  END
$$$$
