
     RDKit          3D

 25 27  0  0  0  0  0  0  0  0999 V2000
   17.8776   25.6714   21.0027 C   0  0  0  0  0  0  0  0  0  0  0  0
   18.7537   26.6419   21.6363 C   0  0  0  0  0  0  0  0  0  0  0  0
   20.1361   27.3105   23.5109 C   0  0  0  0  0  0  0  0  0  0  0  0
   19.3055   26.4149   22.8842 C   0  0  0  0  0  0  0  0  0  0  0  0
   19.0368   27.8101   20.9772 C   0  0  0  0  0  0  0  0  0  0  0  0
   19.8665   28.7287   21.5788 C   0  0  0  0  0  0  0  0  0  0  0  0
   20.4066   28.4821   22.8252 C   0  0  0  0  0  0  0  0  0  0  0  0
   20.7152   27.0688   24.8228 C   0  0  0  0  0  0  0  0  0  0  0  0
   21.9079   26.6353   27.3341 C   0  0  0  0  0  0  0  0  0  0  0  0
   20.5938   26.2844   27.1121 C   0  0  0  0  0  0  0  0  0  0  0  0
   20.0068   26.5028   25.8605 C   0  0  0  0  0  0  0  0  0  0  0  0
   22.6283   27.2023   26.3045 C   0  0  0  0  0  0  0  0  0  0  0  0
   22.0271   27.4086   25.0762 C   0  0  0  0  0  0  0  0  0  0  0  0
   17.3639   25.9765   19.8790 O   0  0  0  0  0  0  0  0  0  0  0  0
   17.5368   24.4055   21.5209 N   0  0  0  0  0  0  0  0  0  0  0  0
   16.5695   23.5782   20.8923 N   0  0  0  0  0  0  0  0  0  0  0  0
   15.4848   22.9983   22.0781 S   0  0  1  0  0  6  0  0  0  0  0  0
   14.6621   21.8865   21.4571 O   0  0  0  0  0  0  0  0  0  0  0  0
   16.2150   22.3802   23.2334 O   0  0  0  0  0  0  0  0  0  0  0  0
   14.4639   24.3052   22.6086 C   0  0  0  0  0  0  0  0  0  0  0  0
   13.4957   24.8181   21.7706 C   0  0  0  0  0  0  0  0  0  0  0  0
   12.6741   25.8480   22.1462 C   0  0  0  0  0  0  0  0  0  0  0  0
   12.8147   26.3934   23.4001 C   0  0  0  0  0  0  0  0  0  0  0  0
   13.7762   25.9121   24.2830 C   0  0  0  0  0  0  0  0  0  0  0  0
   14.5884   24.8638   23.8569 C   0  0  0  0  0  0  0  0  0  0  0  0
  2  1  1  0
  1 14  2  0
  1 15  1  0
  4  2  2  0
  2  5  1  0
  3  4  1  0
  3  7  2  0
  8  3  1  0
  6  5  2  0
  7  6  1  0
 11  8  2  0
  8 13  1  0
 10  9  2  0
  9 12  1  0
 10 11  1  0
 12 13  2  0
 15 16  1  0
 17 16  1  6
 17 18  2  0
 17 19  2  0
 17 20  1  0
 20 21  2  0
 20 25  1  0
 21 22  1  0
 22 23  2  0
 23 24  1  0
 24 25  2  0
M  END
$$$$
