
     RDKit          3D

 25 27  0  0  0  0  0  0  0  0999 V2000
   15.3792   23.4512   21.6486 C   0  0  0  0  0  0  0  0  0  0  0  0
   15.8913   24.5485   22.4486 C   0  0  0  0  0  0  0  0  0  0  0  0
   17.2400   26.5331   22.7511 C   0  0  0  0  0  0  0  0  0  0  0  0
   16.7619   25.4851   21.9573 C   0  0  0  0  0  0  0  0  0  0  0  0
   15.4909   24.6601   23.7555 C   0  0  0  0  0  0  0  0  0  0  0  0
   15.9307   25.6738   24.5853 C   0  0  0  0  0  0  0  0  0  0  0  0
   16.8035   26.5951   24.0576 C   0  0  0  0  0  0  0  0  0  0  0  0
   18.1653   27.5194   22.2131 C   0  0  0  0  0  0  0  0  0  0  0  0
   20.0053   29.4256   21.2578 C   0  0  0  0  0  0  0  0  0  0  0  0
   18.9747   28.9853   20.4668 C   0  0  0  0  0  0  0  0  0  0  0  0
   18.0617   28.0393   20.9409 C   0  0  0  0  0  0  0  0  0  0  0  0
   20.1151   28.9134   22.5240 C   0  0  0  0  0  0  0  0  0  0  0  0
   19.2111   27.9808   22.9851 C   0  0  0  0  0  0  0  0  0  0  0  0
   14.1930   23.0770   21.8198 O   0  0  0  0  0  0  0  0  0  0  0  0
   16.1100   22.7496   20.6728 N   0  0  0  0  0  0  0  0  0  0  0  0
   16.1590   21.4495   20.3566 N   0  0  0  0  0  0  0  0  0  0  0  0
   17.4568   20.6968   19.6480 S   0  0  1  0  0  6  0  0  0  0  0  0
   18.7173   21.0180   20.4476 O   0  0  0  0  0  0  0  0  0  0  0  0
   17.3754   19.1872   19.6436 O   0  0  0  0  0  0  0  0  0  0  0  0
   17.7592   21.3059   18.0411 C   0  0  0  0  0  0  0  0  0  0  0  0
   17.0786   20.7273   16.9601 C   0  0  0  0  0  0  0  0  0  0  0  0
   17.2372   21.1732   15.6657 C   0  0  0  0  0  0  0  0  0  0  0  0
   18.0763   22.2124   15.3798 C   0  0  0  0  0  0  0  0  0  0  0  0
   18.7600   22.8012   16.4312 C   0  0  0  0  0  0  0  0  0  0  0  0
   18.5889   22.3417   17.7220 C   0  0  0  0  0  0  0  0  0  0  0  0
  2  1  1  0
  1 14  2  0
  1 15  1  0
  4  2  2  0
  2  5  1  0
  3  4  1  0
  3  7  2  0
  8  3  1  0
  6  5  2  0
  7  6  1  0
 11  8  2  0
  8 13  1  0
 10  9  2  0
  9 12  1  0
 10 11  1  0
 12 13  2  0
 15 16  1  0
 17 16  1  1
 17 18  2  0
 17 19  2  0
 17 20  1  0
 20 21  2  0
 20 25  1  0
 21 22  1  0
 22 23  2  0
 23 24  1  0
 24 25  2  0
M  END
$$$$
