
     RDKit          3D

 25 27  0  0  0  0  0  0  0  0999 V2000
   15.6692   22.5160   18.7410 C   0  0  0  0  0  0  0  0  0  0  0  0
   16.5475   21.7732   17.8534 C   0  0  0  0  0  0  0  0  0  0  0  0
   18.4728   20.3386   17.5254 C   0  0  0  0  0  0  0  0  0  0  0  0
   17.6236   21.0505   18.3361 C   0  0  0  0  0  0  0  0  0  0  0  0
   16.2996   21.7928   16.5054 C   0  0  0  0  0  0  0  0  0  0  0  0
   17.1328   21.0891   15.6658 C   0  0  0  0  0  0  0  0  0  0  0  0
   18.2015   20.3742   16.1685 C   0  0  0  0  0  0  0  0  0  0  0  0
   19.6031   19.5792   18.0358 C   0  0  0  0  0  0  0  0  0  0  0  0
   21.7740   18.0499   18.9661 C   0  0  0  0  0  0  0  0  0  0  0  0
   21.4898   19.2768   19.5257 C   0  0  0  0  0  0  0  0  0  0  0  0
   20.4084   20.0324   19.0581 C   0  0  0  0  0  0  0  0  0  0  0  0
   20.9763   17.5845   17.9426 C   0  0  0  0  0  0  0  0  0  0  0  0
   19.9132   18.3486   17.4970 C   0  0  0  0  0  0  0  0  0  0  0  0
   14.7842   23.2640   18.2147 O   0  0  0  0  0  0  0  0  0  0  0  0
   15.7037   22.4873   20.1500 N   0  0  0  0  0  0  0  0  0  0  0  0
   14.7695   23.2140   20.9337 N   0  0  0  0  0  0  0  0  0  0  0  0
   15.4912   23.6039   22.4324 S   0  0  1  0  0  6  0  0  0  0  0  0
   14.3846   23.9441   23.4111 O   0  0  0  0  0  0  0  0  0  0  0  0
   16.2148   22.4262   23.0150 O   0  0  0  0  0  0  0  0  0  0  0  0
   16.5667   24.9559   22.2155 C   0  0  0  0  0  0  0  0  0  0  0  0
   17.9321   24.7628   22.1838 C   0  0  0  0  0  0  0  0  0  0  0  0
   18.8138   25.7983   22.0193 C   0  0  0  0  0  0  0  0  0  0  0  0
   18.3270   27.0763   21.8806 C   0  0  0  0  0  0  0  0  0  0  0  0
   16.9583   27.3244   21.9058 C   0  0  0  0  0  0  0  0  0  0  0  0
   16.1006   26.2400   22.0754 C   0  0  0  0  0  0  0  0  0  0  0  0
  2  1  1  0
  1 14  2  0
  1 15  1  0
  4  2  2  0
  2  5  1  0
  3  4  1  0
  3  7  2  0
  8  3  1  0
  6  5  2  0
  7  6  1  0
 11  8  2  0
  8 13  1  0
 10  9  2  0
  9 12  1  0
 10 11  1  0
 12 13  2  0
 15 16  1  0
 17 16  1  6
 17 18  2  0
 17 19  2  0
 17 20  1  0
 20 21  2  0
 20 25  1  0
 21 22  1  0
 22 23  2  0
 23 24  1  0
 24 25  2  0
M  END
$$$$
