
     RDKit          3D

 25 27  0  0  0  0  0  0  0  0999 V2000
   10.3435   20.7062   19.4283 C   0  0  0  0  0  0  0  0  0  0  0  0
   11.7095   21.0933   19.7284 C   0  0  0  0  0  0  0  0  0  0  0  0
   14.0131   21.4836   19.1035 C   0  0  0  0  0  0  0  0  0  0  0  0
   12.7040   21.1057   18.7864 C   0  0  0  0  0  0  0  0  0  0  0  0
   12.0276   21.4648   21.0097 C   0  0  0  0  0  0  0  0  0  0  0  0
   13.3030   21.8469   21.3796 C   0  0  0  0  0  0  0  0  0  0  0  0
   14.2748   21.8471   20.4076 C   0  0  0  0  0  0  0  0  0  0  0  0
   15.0579   21.4905   18.0902 C   0  0  0  0  0  0  0  0  0  0  0  0
   17.1418   21.4650   16.1958 C   0  0  0  0  0  0  0  0  0  0  0  0
   15.8934   21.9246   15.8614 C   0  0  0  0  0  0  0  0  0  0  0  0
   14.8593   21.9372   16.8015 C   0  0  0  0  0  0  0  0  0  0  0  0
   17.3473   21.0191   17.4752 C   0  0  0  0  0  0  0  0  0  0  0  0
   16.3229   21.0345   18.3972 C   0  0  0  0  0  0  0  0  0  0  0  0
    9.4476   20.9319   20.2786 O   0  0  0  0  0  0  0  0  0  0  0  0
    9.9199   20.0844   18.2398 N   0  0  0  0  0  0  0  0  0  0  0  0
    8.7112   19.6908   17.8193 N   0  0  0  0  0  0  0  0  0  0  0  0
    8.3979   18.2513   17.0560 S   0  0  1  0  0  6  0  0  0  0  0  0
    6.9510   18.2499   16.5681 O   0  0  0  0  0  0  0  0  0  0  0  0
    9.2255   18.0117   15.8138 O   0  0  0  0  0  0  0  0  0  0  0  0
    8.5190   16.8988   18.1518 C   0  0  0  0  0  0  0  0  0  0  0  0
    9.6615   16.0874   18.0999 C   0  0  0  0  0  0  0  0  0  0  0  0
    9.8475   15.0212   18.9531 C   0  0  0  0  0  0  0  0  0  0  0  0
    8.9121   14.7075   19.8979 C   0  0  0  0  0  0  0  0  0  0  0  0
    7.7742   15.4948   19.9693 C   0  0  0  0  0  0  0  0  0  0  0  0
    7.6045   16.5593   19.1065 C   0  0  0  0  0  0  0  0  0  0  0  0
  2  1  1  0
  1 14  2  0
  1 15  1  0
  4  2  2  0
  2  5  1  0
  3  4  1  0
  3  7  2  0
  8  3  1  0
  6  5  2  0
  7  6  1  0
 11  8  2  0
  8 13  1  0
 10  9  2  0
  9 12  1  0
 10 11  1  0
 12 13  2  0
 15 16  1  0
 17 16  1  1
 17 18  2  0
 17 19  2  0
 17 20  1  0
 20 21  2  0
 20 25  1  0
 21 22  1  0
 22 23  2  0
 23 24  1  0
 24 25  2  0
M  END
$$$$
