
     RDKit          3D

 25 27  0  0  0  0  0  0  0  0999 V2000
   17.7040   26.0547   21.0770 C   0  0  0  0  0  0  0  0  0  0  0  0
   18.6268   26.9644   21.7305 C   0  0  0  0  0  0  0  0  0  0  0  0
   20.4163   27.4534   23.2821 C   0  0  0  0  0  0  0  0  0  0  0  0
   19.5380   26.5545   22.6676 C   0  0  0  0  0  0  0  0  0  0  0  0
   18.5917   28.2951   21.4010 C   0  0  0  0  0  0  0  0  0  0  0  0
   19.4347   29.2272   21.9756 C   0  0  0  0  0  0  0  0  0  0  0  0
   20.3357   28.7793   22.9118 C   0  0  0  0  0  0  0  0  0  0  0  0
   21.3781   27.0010   24.2765 C   0  0  0  0  0  0  0  0  0  0  0  0
   23.2538   26.0441   26.1467 C   0  0  0  0  0  0  0  0  0  0  0  0
   22.6294   27.2513   26.3320 C   0  0  0  0  0  0  0  0  0  0  0  0
   21.6986   27.7261   25.4039 C   0  0  0  0  0  0  0  0  0  0  0  0
   22.9405   25.3172   25.0282 C   0  0  0  0  0  0  0  0  0  0  0  0
   22.0216   25.7915   24.1171 C   0  0  0  0  0  0  0  0  0  0  0  0
   16.9454   26.4994   20.1807 O   0  0  0  0  0  0  0  0  0  0  0  0
   17.5782   24.6834   21.3637 N   0  0  0  0  0  0  0  0  0  0  0  0
   16.6821   23.7679   20.9743 N   0  0  0  0  0  0  0  0  0  0  0  0
   15.4619   23.1732   21.9285 S   0  0  1  0  0  6  0  0  0  0  0  0
   14.9144   21.8945   21.2988 O   0  0  0  0  0  0  0  0  0  0  0  0
   15.8995   22.7645   23.3167 O   0  0  0  0  0  0  0  0  0  0  0  0
   14.1070   24.2701   22.0036 C   0  0  0  0  0  0  0  0  0  0  0  0
   13.2060   24.1588   23.0724 C   0  0  0  0  0  0  0  0  0  0  0  0
   12.1305   25.0077   23.2211 C   0  0  0  0  0  0  0  0  0  0  0  0
   11.8958   26.0067   22.3195 C   0  0  0  0  0  0  0  0  0  0  0  0
   12.7723   26.1374   21.2545 C   0  0  0  0  0  0  0  0  0  0  0  0
   13.8449   25.2780   21.1213 C   0  0  0  0  0  0  0  0  0  0  0  0
  2  1  1  0
  1 14  2  0
  1 15  1  0
  4  2  2  0
  2  5  1  0
  3  4  1  0
  3  7  2  0
  8  3  1  0
  6  5  2  0
  7  6  1  0
 11  8  2  0
  8 13  1  0
 10  9  2  0
  9 12  1  0
 10 11  1  0
 12 13  2  0
 15 16  1  0
 17 16  1  6
 17 18  2  0
 17 19  2  0
 17 20  1  0
 20 21  2  0
 20 25  1  0
 21 22  1  0
 22 23  2  0
 23 24  1  0
 24 25  2  0
M  END
$$$$
