
     RDKit          3D

 25 27  0  0  0  0  0  0  0  0999 V2000
   14.7940   22.8605   18.6730 C   0  0  0  0  0  0  0  0  0  0  0  0
   15.9772   22.4577   17.9354 C   0  0  0  0  0  0  0  0  0  0  0  0
   18.1665   21.4412   17.7856 C   0  0  0  0  0  0  0  0  0  0  0  0
   17.0379   21.8185   18.5209 C   0  0  0  0  0  0  0  0  0  0  0  0
   16.0444   22.7249   16.5920 C   0  0  0  0  0  0  0  0  0  0  0  0
   17.1337   22.3757   15.8166 C   0  0  0  0  0  0  0  0  0  0  0  0
   18.1790   21.7357   16.4385 C   0  0  0  0  0  0  0  0  0  0  0  0
   19.2852   20.7632   18.4239 C   0  0  0  0  0  0  0  0  0  0  0  0
   21.4634   19.3993   19.5760 C   0  0  0  0  0  0  0  0  0  0  0  0
   20.7802   20.3565   20.2822 C   0  0  0  0  0  0  0  0  0  0  0  0
   19.6993   21.0333   19.7104 C   0  0  0  0  0  0  0  0  0  0  0  0
   21.0578   19.1251   18.2961 C   0  0  0  0  0  0  0  0  0  0  0  0
   19.9909   19.7964   17.7386 C   0  0  0  0  0  0  0  0  0  0  0  0
   13.9616   23.6193   18.1181 O   0  0  0  0  0  0  0  0  0  0  0  0
   14.4864   22.4682   19.9883 N   0  0  0  0  0  0  0  0  0  0  0  0
   13.4587   22.7677   20.7926 N   0  0  0  0  0  0  0  0  0  0  0  0
   13.6060   23.2904   22.3604 S   0  0  1  0  0  6  0  0  0  0  0  0
   12.2423   23.2114   23.0427 O   0  0  0  0  0  0  0  0  0  0  0  0
   14.5173   22.4413   23.2172 O   0  0  0  0  0  0  0  0  0  0  0  0
   14.0682   24.9710   22.4409 C   0  0  0  0  0  0  0  0  0  0  0  0
   15.4294   25.2934   22.5389 C   0  0  0  0  0  0  0  0  0  0  0  0
   15.8774   26.5963   22.5737 C   0  0  0  0  0  0  0  0  0  0  0  0
   15.0000   27.6415   22.5130 C   0  0  0  0  0  0  0  0  0  0  0  0
   13.6493   27.3487   22.4156 C   0  0  0  0  0  0  0  0  0  0  0  0
   13.2182   26.0373   22.3818 C   0  0  0  0  0  0  0  0  0  0  0  0
  2  1  1  0
  1 14  2  0
  1 15  1  0
  4  2  2  0
  2  5  1  0
  3  4  1  0
  3  7  2  0
  8  3  1  0
  6  5  2  0
  7  6  1  0
 11  8  2  0
  8 13  1  0
 10  9  2  0
  9 12  1  0
 10 11  1  0
 12 13  2  0
 15 16  1  0
 17 16  1  6
 17 18  2  0
 17 19  2  0
 17 20  1  0
 20 21  2  0
 20 25  1  0
 21 22  1  0
 22 23  2  0
 23 24  1  0
 24 25  2  0
M  END
$$$$
