
     RDKit          3D

 25 27  0  0  0  0  0  0  0  0999 V2000
   14.6087   26.9331   21.4333 C   0  0  0  0  0  0  0  0  0  0  0  0
   15.2260   28.2253   21.1981 C   0  0  0  0  0  0  0  0  0  0  0  0
   17.1418   29.6974   21.0905 C   0  0  0  0  0  0  0  0  0  0  0  0
   16.5731   28.4407   21.3234 C   0  0  0  0  0  0  0  0  0  0  0  0
   14.4329   29.2831   20.8340 C   0  0  0  0  0  0  0  0  0  0  0  0
   14.9398   30.5455   20.5917 C   0  0  0  0  0  0  0  0  0  0  0  0
   16.2959   30.7240   20.7272 C   0  0  0  0  0  0  0  0  0  0  0  0
   18.5752   29.9091   21.2288 C   0  0  0  0  0  0  0  0  0  0  0  0
   21.3299   30.4035   21.5434 C   0  0  0  0  0  0  0  0  0  0  0  0
   20.8868   29.2678   20.9145 C   0  0  0  0  0  0  0  0  0  0  0  0
   19.5198   29.0225   20.7584 C   0  0  0  0  0  0  0  0  0  0  0  0
   20.3969   31.2900   22.0139 C   0  0  0  0  0  0  0  0  0  0  0  0
   19.0503   31.0417   21.8564 C   0  0  0  0  0  0  0  0  0  0  0  0
   13.4889   26.6925   20.9189 O   0  0  0  0  0  0  0  0  0  0  0  0
   15.1652   25.8976   22.2057 N   0  0  0  0  0  0  0  0  0  0  0  0
   14.7576   24.6453   22.4473 N   0  0  0  0  0  0  0  0  0  0  0  0
   15.4622   23.2829   21.8146 S   0  0  1  0  0  6  0  0  0  0  0  0
   14.7698   22.0499   22.3906 O   0  0  0  0  0  0  0  0  0  0  0  0
   15.3161   23.1443   20.3163 O   0  0  0  0  0  0  0  0  0  0  0  0
   17.1349   23.1399   22.2900 C   0  0  0  0  0  0  0  0  0  0  0  0
   18.1228   23.1423   21.2947 C   0  0  0  0  0  0  0  0  0  0  0  0
   19.4668   23.0667   21.5903 C   0  0  0  0  0  0  0  0  0  0  0  0
   19.8968   22.9855   22.8843 C   0  0  0  0  0  0  0  0  0  0  0  0
   18.9397   22.9817   23.8860 C   0  0  0  0  0  0  0  0  0  0  0  0
   17.5974   23.0582   23.5717 C   0  0  0  0  0  0  0  0  0  0  0  0
  2  1  1  0
  1 14  2  0
  1 15  1  0
  4  2  2  0
  2  5  1  0
  3  4  1  0
  3  7  2  0
  8  3  1  0
  6  5  2  0
  7  6  1  0
 11  8  2  0
  8 13  1  0
 10  9  2  0
  9 12  1  0
 10 11  1  0
 12 13  2  0
 15 16  1  0
 17 16  1  1
 17 18  2  0
 17 19  2  0
 17 20  1  0
 20 21  2  0
 20 25  1  0
 21 22  1  0
 22 23  2  0
 23 24  1  0
 24 25  2  0
M  END
$$$$
