
     RDKit          3D

 25 27  0  0  0  0  0  0  0  0999 V2000
   17.2433   27.7024   27.5946 C   0  0  0  0  0  0  0  0  0  0  0  0
   17.7908   26.5616   26.8807 C   0  0  0  0  0  0  0  0  0  0  0  0
   17.6879   24.9967   25.0333 C   0  0  0  0  0  0  0  0  0  0  0  0
   17.1971   26.0723   25.7312 C   0  0  0  0  0  0  0  0  0  0  0  0
   18.9235   25.9584   27.3628 C   0  0  0  0  0  0  0  0  0  0  0  0
   19.4407   24.8774   26.6858 C   0  0  0  0  0  0  0  0  0  0  0  0
   18.8321   24.4051   25.5401 C   0  0  0  0  0  0  0  0  0  0  0  0
   17.0618   24.4849   23.8247 C   0  0  0  0  0  0  0  0  0  0  0  0
   15.8435   23.5740   21.4576 C   0  0  0  0  0  0  0  0  0  0  0  0
   16.2600   22.6803   22.4205 C   0  0  0  0  0  0  0  0  0  0  0  0
   16.8653   23.1403   23.5957 C   0  0  0  0  0  0  0  0  0  0  0  0
   16.0338   24.9221   21.6740 C   0  0  0  0  0  0  0  0  0  0  0  0
   16.6343   25.3533   22.8428 C   0  0  0  0  0  0  0  0  0  0  0  0
   18.0268   28.3678   28.3450 O   0  0  0  0  0  0  0  0  0  0  0  0
   15.9078   28.1497   27.5349 N   0  0  0  0  0  0  0  0  0  0  0  0
   15.4460   29.2275   28.3351 N   0  0  0  0  0  0  0  0  0  0  0  0
   13.7634   29.4079   28.1003 S   0  0  1  0  0  6  0  0  0  0  0  0
   13.3422   30.7256   28.7205 O   0  0  0  0  0  0  0  0  0  0  0  0
   13.4207   29.5053   26.6432 O   0  0  0  0  0  0  0  0  0  0  0  0
   12.9340   28.0739   28.8515 C   0  0  0  0  0  0  0  0  0  0  0  0
   11.7956   27.5479   28.2771 C   0  0  0  0  0  0  0  0  0  0  0  0
   11.1104   26.5018   28.8364 C   0  0  0  0  0  0  0  0  0  0  0  0
   11.5682   25.9531   30.0106 C   0  0  0  0  0  0  0  0  0  0  0  0
   12.7117   26.4472   30.6301 C   0  0  0  0  0  0  0  0  0  0  0  0
   13.3750   27.5118   30.0243 C   0  0  0  0  0  0  0  0  0  0  0  0
  2  1  1  0
  1 14  2  0
  1 15  1  0
  4  2  2  0
  2  5  1  0
  3  4  1  0
  3  7  2  0
  8  3  1  0
  6  5  2  0
  7  6  1  0
 11  8  2  0
  8 13  1  0
 10  9  2  0
  9 12  1  0
 10 11  1  0
 12 13  2  0
 15 16  1  0
 17 16  1  6
 17 18  2  0
 17 19  2  0
 17 20  1  0
 20 21  2  0
 20 25  1  0
 21 22  1  0
 22 23  2  0
 23 24  1  0
 24 25  2  0
M  END
$$$$
