
     RDKit          3D

 25 27  0  0  0  0  0  0  0  0999 V2000
   15.1569   23.6973   21.2128 C   0  0  0  0  0  0  0  0  0  0  0  0
   15.2580   24.8007   22.1525 C   0  0  0  0  0  0  0  0  0  0  0  0
   16.5778   26.1397   23.6815 C   0  0  0  0  0  0  0  0  0  0  0  0
   16.4481   25.1051   22.7883 C   0  0  0  0  0  0  0  0  0  0  0  0
   14.1435   25.5553   22.4125 C   0  0  0  0  0  0  0  0  0  0  0  0
   14.2407   26.5999   23.3034 C   0  0  0  0  0  0  0  0  0  0  0  0
   15.4385   26.8865   23.9271 C   0  0  0  0  0  0  0  0  0  0  0  0
   17.8306   26.4576   24.3479 C   0  0  0  0  0  0  0  0  0  0  0  0
   20.2932   27.0729   25.5622 C   0  0  0  0  0  0  0  0  0  0  0  0
   19.1491   26.9488   26.3205 C   0  0  0  0  0  0  0  0  0  0  0  0
   17.9275   26.6425   25.7100 C   0  0  0  0  0  0  0  0  0  0  0  0
   20.2105   26.8903   24.1982 C   0  0  0  0  0  0  0  0  0  0  0  0
   18.9924   26.5884   23.6171 C   0  0  0  0  0  0  0  0  0  0  0  0
   14.2668   23.7667   20.3058 O   0  0  0  0  0  0  0  0  0  0  0  0
   15.9618   22.5401   21.2092 N   0  0  0  0  0  0  0  0  0  0  0  0
   15.8121   21.5307   20.2223 N   0  0  0  0  0  0  0  0  0  0  0  0
   17.3614   20.9914   19.7449 S   0  0  1  0  0  6  0  0  0  0  0  0
   18.3907   21.7143   20.5911 O   0  0  0  0  0  0  0  0  0  0  0  0
   17.5436   19.5294   20.0266 O   0  0  0  0  0  0  0  0  0  0  0  0
   17.5924   21.3375   18.0541 C   0  0  0  0  0  0  0  0  0  0  0  0
   18.3168   22.4437   17.6615 C   0  0  0  0  0  0  0  0  0  0  0  0
   18.5194   22.7551   16.3429 C   0  0  0  0  0  0  0  0  0  0  0  0
   17.9847   21.9409   15.3730 C   0  0  0  0  0  0  0  0  0  0  0  0
   17.2460   20.8132   15.7167 C   0  0  0  0  0  0  0  0  0  0  0  0
   17.0665   20.5370   17.0701 C   0  0  0  0  0  0  0  0  0  0  0  0
  2  1  1  0
  1 14  2  0
  1 15  1  0
  4  2  2  0
  2  5  1  0
  3  4  1  0
  3  7  2  0
  8  3  1  0
  6  5  2  0
  7  6  1  0
 11  8  2  0
  8 13  1  0
 10  9  2  0
  9 12  1  0
 10 11  1  0
 12 13  2  0
 15 16  1  0
 17 16  1  1
 17 18  2  0
 17 19  2  0
 17 20  1  0
 20 21  2  0
 20 25  1  0
 21 22  1  0
 22 23  2  0
 23 24  1  0
 24 25  2  0
M  END
$$$$
