
     RDKit          3D

 25 27  0  0  0  0  0  0  0  0999 V2000
   18.0275   28.5830   21.7126 C   0  0  0  0  0  0  0  0  0  0  0  0
   19.4541   28.8290   21.6117 C   0  0  0  0  0  0  0  0  0  0  0  0
   21.7655   28.2158   21.9734 C   0  0  0  0  0  0  0  0  0  0  0  0
   20.3959   27.9534   22.0841 C   0  0  0  0  0  0  0  0  0  0  0  0
   19.8875   29.9869   21.0184 C   0  0  0  0  0  0  0  0  0  0  0  0
   21.2269   30.2981   20.8821 C   0  0  0  0  0  0  0  0  0  0  0  0
   22.1429   29.3958   21.3679 C   0  0  0  0  0  0  0  0  0  0  0  0
   22.7528   27.2746   22.4815 C   0  0  0  0  0  0  0  0  0  0  0  0
   24.6067   25.3794   23.4316 C   0  0  0  0  0  0  0  0  0  0  0  0
   24.8342   26.7234   23.5848 C   0  0  0  0  0  0  0  0  0  0  0  0
   23.9142   27.6639   23.1133 C   0  0  0  0  0  0  0  0  0  0  0  0
   23.4542   24.9844   22.8044 C   0  0  0  0  0  0  0  0  0  0  0  0
   22.5512   25.9173   22.3420 C   0  0  0  0  0  0  0  0  0  0  0  0
   17.2353   29.3483   21.1099 O   0  0  0  0  0  0  0  0  0  0  0  0
   17.4350   27.5376   22.4438 N   0  0  0  0  0  0  0  0  0  0  0  0
   16.2451   27.4330   23.0486 N   0  0  0  0  0  0  0  0  0  0  0  0
   15.9129   26.4098   24.3118 S   0  0  1  0  0  6  0  0  0  0  0  0
   16.6605   26.8910   25.5532 O   0  0  0  0  0  0  0  0  0  0  0  0
   14.4585   26.3795   24.7233 O   0  0  0  0  0  0  0  0  0  0  0  0
   16.5054   24.7966   24.0101 C   0  0  0  0  0  0  0  0  0  0  0  0
   17.3400   24.1942   24.9624 C   0  0  0  0  0  0  0  0  0  0  0  0
   17.8220   22.9116   24.8137 C   0  0  0  0  0  0  0  0  0  0  0  0
   17.5009   22.1646   23.7162 C   0  0  0  0  0  0  0  0  0  0  0  0
   16.6771   22.7377   22.7608 C   0  0  0  0  0  0  0  0  0  0  0  0
   16.2032   24.0240   22.9262 C   0  0  0  0  0  0  0  0  0  0  0  0
  2  1  1  0
  1 14  2  0
  1 15  1  0
  4  2  2  0
  2  5  1  0
  3  4  1  0
  3  7  2  0
  8  3  1  0
  6  5  2  0
  7  6  1  0
 11  8  2  0
  8 13  1  0
 10  9  2  0
  9 12  1  0
 10 11  1  0
 12 13  2  0
 15 16  1  0
 17 16  1  6
 17 18  2  0
 17 19  2  0
 17 20  1  0
 20 21  2  0
 20 25  1  0
 21 22  1  0
 22 23  2  0
 23 24  1  0
 24 25  2  0
M  END
$$$$
