
     RDKit          3D

 25 27  0  0  0  0  0  0  0  0999 V2000
   15.4135   23.3115   18.2378 C   0  0  0  0  0  0  0  0  0  0  0  0
   16.0408   22.1314   17.6722 C   0  0  0  0  0  0  0  0  0  0  0  0
   17.7964   20.4702   17.5864 C   0  0  0  0  0  0  0  0  0  0  0  0
   17.2135   21.6096   18.1510 C   0  0  0  0  0  0  0  0  0  0  0  0
   15.4396   21.5045   16.6109 C   0  0  0  0  0  0  0  0  0  0  0  0
   15.9701   20.3768   16.0139 C   0  0  0  0  0  0  0  0  0  0  0  0
   17.1477   19.8819   16.5213 C   0  0  0  0  0  0  0  0  0  0  0  0
   19.0433   19.9294   18.1072 C   0  0  0  0  0  0  0  0  0  0  0  0
   21.4210   18.7918   19.0994 C   0  0  0  0  0  0  0  0  0  0  0  0
   21.2658   20.1533   19.0369 C   0  0  0  0  0  0  0  0  0  0  0  0
   20.0859   20.7177   18.5445 C   0  0  0  0  0  0  0  0  0  0  0  0
   20.3889   18.0011   18.6665 C   0  0  0  0  0  0  0  0  0  0  0  0
   19.2281   18.5646   18.1822 C   0  0  0  0  0  0  0  0  0  0  0  0
   14.4991   23.8812   17.5930 O   0  0  0  0  0  0  0  0  0  0  0  0
   15.7452   23.8910   19.4758 N   0  0  0  0  0  0  0  0  0  0  0  0
   15.3414   25.0209   20.0700 N   0  0  0  0  0  0  0  0  0  0  0  0
   15.7053   25.4508   21.6307 S   0  0  1  0  0  6  0  0  0  0  0  0
   17.1431   25.0396   21.9390 O   0  0  0  0  0  0  0  0  0  0  0  0
   15.6637   26.9392   21.8928 O   0  0  0  0  0  0  0  0  0  0  0  0
   14.7193   24.5905   22.7849 C   0  0  0  0  0  0  0  0  0  0  0  0
   15.2084   23.3966   23.3342 C   0  0  0  0  0  0  0  0  0  0  0  0
   14.5054   22.6763   24.2758 C   0  0  0  0  0  0  0  0  0  0  0  0
   13.2857   23.1033   24.7184 C   0  0  0  0  0  0  0  0  0  0  0  0
   12.7810   24.2808   24.1908 C   0  0  0  0  0  0  0  0  0  0  0  0
   13.4990   24.9898   23.2483 C   0  0  0  0  0  0  0  0  0  0  0  0
  2  1  1  0
  1 14  2  0
  1 15  1  0
  4  2  2  0
  2  5  1  0
  3  4  1  0
  3  7  2  0
  8  3  1  0
  6  5  2  0
  7  6  1  0
 11  8  2  0
  8 13  1  0
 10  9  2  0
  9 12  1  0
 10 11  1  0
 12 13  2  0
 15 16  1  0
 17 16  1  6
 17 18  2  0
 17 19  2  0
 17 20  1  0
 20 21  2  0
 20 25  1  0
 21 22  1  0
 22 23  2  0
 23 24  1  0
 24 25  2  0
M  END
$$$$
