
     RDKit          3D

 25 27  0  0  0  0  0  0  0  0999 V2000
   17.0063   24.0396   21.7708 C   0  0  0  0  0  0  0  0  0  0  0  0
   17.7507   23.9584   20.5276 C   0  0  0  0  0  0  0  0  0  0  0  0
   18.3248   22.8809   18.4398 C   0  0  0  0  0  0  0  0  0  0  0  0
   17.5938   22.9342   19.6314 C   0  0  0  0  0  0  0  0  0  0  0  0
   18.6532   24.9468   20.2289 C   0  0  0  0  0  0  0  0  0  0  0  0
   19.4022   24.9454   19.0676 C   0  0  0  0  0  0  0  0  0  0  0  0
   19.2180   23.9019   18.1923 C   0  0  0  0  0  0  0  0  0  0  0  0
   18.1462   21.7849   17.4989 C   0  0  0  0  0  0  0  0  0  0  0  0
   17.8985   19.6625   15.6643 C   0  0  0  0  0  0  0  0  0  0  0  0
   16.7932   20.1908   16.2816 C   0  0  0  0  0  0  0  0  0  0  0  0
   16.9162   21.2440   17.1920 C   0  0  0  0  0  0  0  0  0  0  0  0
   19.1250   20.1949   15.9642 C   0  0  0  0  0  0  0  0  0  0  0  0
   19.2389   21.2335   16.8630 C   0  0  0  0  0  0  0  0  0  0  0  0
   17.4419   24.7725   22.6925 O   0  0  0  0  0  0  0  0  0  0  0  0
   15.8093   23.3537   22.0449 N   0  0  0  0  0  0  0  0  0  0  0  0
   15.0026   23.3566   23.1136 N   0  0  0  0  0  0  0  0  0  0  0  0
   13.3648   23.6171   23.0614 S   0  0  1  0  0  6  0  0  0  0  0  0
   12.7611   22.7738   21.9408 O   0  0  0  0  0  0  0  0  0  0  0  0
   12.6259   23.1892   24.3090 O   0  0  0  0  0  0  0  0  0  0  0  0
   12.9858   25.2706   22.6531 C   0  0  0  0  0  0  0  0  0  0  0  0
   13.0811   26.2517   23.6505 C   0  0  0  0  0  0  0  0  0  0  0  0
   12.8309   27.5837   23.4002 C   0  0  0  0  0  0  0  0  0  0  0  0
   12.4751   28.0079   22.1515 C   0  0  0  0  0  0  0  0  0  0  0  0
   12.3745   27.0572   21.1485 C   0  0  0  0  0  0  0  0  0  0  0  0
   12.6289   25.7269   21.4172 C   0  0  0  0  0  0  0  0  0  0  0  0
  2  1  1  0
  1 14  2  0
  1 15  1  0
  4  2  2  0
  2  5  1  0
  3  4  1  0
  3  7  2  0
  8  3  1  0
  6  5  2  0
  7  6  1  0
 11  8  2  0
  8 13  1  0
 10  9  2  0
  9 12  1  0
 10 11  1  0
 12 13  2  0
 15 16  1  0
 17 16  1  1
 17 18  2  0
 17 19  2  0
 17 20  1  0
 20 21  2  0
 20 25  1  0
 21 22  1  0
 22 23  2  0
 23 24  1  0
 24 25  2  0
M  END
$$$$
