
     RDKit          3D

 25 27  0  0  0  0  0  0  0  0999 V2000
   17.8827   22.0152   22.2459 C   0  0  0  0  0  0  0  0  0  0  0  0
   19.2528   22.4094   22.5260 C   0  0  0  0  0  0  0  0  0  0  0  0
   20.9278   24.1428   22.7749 C   0  0  0  0  0  0  0  0  0  0  0  0
   19.6423   23.7366   22.5153 C   0  0  0  0  0  0  0  0  0  0  0  0
   20.1786   21.4381   22.8066 C   0  0  0  0  0  0  0  0  0  0  0  0
   21.4762   21.8130   23.0712 C   0  0  0  0  0  0  0  0  0  0  0  0
   21.8438   23.1436   23.0552 C   0  0  0  0  0  0  0  0  0  0  0  0
   21.3341   25.5391   22.7634 C   0  0  0  0  0  0  0  0  0  0  0  0
   22.0487   28.2606   22.7815 C   0  0  0  0  0  0  0  0  0  0  0  0
   22.8940   27.3173   22.2383 C   0  0  0  0  0  0  0  0  0  0  0  0
   22.5323   25.9652   22.2325 C   0  0  0  0  0  0  0  0  0  0  0  0
   20.8467   27.8479   23.3159 C   0  0  0  0  0  0  0  0  0  0  0  0
   20.5107   26.5065   23.2991 C   0  0  0  0  0  0  0  0  0  0  0  0
   17.4757   20.9028   22.7112 O   0  0  0  0  0  0  0  0  0  0  0  0
   16.9472   22.7577   21.4972 N   0  0  0  0  0  0  0  0  0  0  0  0
   15.6410   22.2660   21.2379 N   0  0  0  0  0  0  0  0  0  0  0  0
   14.7103   23.5149   20.5357 S   0  0  1  0  0  6  0  0  0  0  0  0
   13.2474   23.2094   20.7907 O   0  0  0  0  0  0  0  0  0  0  0  0
   14.9804   24.8357   21.1934 O   0  0  0  0  0  0  0  0  0  0  0  0
   15.0422   23.5855   18.8279 C   0  0  0  0  0  0  0  0  0  0  0  0
   14.5457   22.6170   17.9804 C   0  0  0  0  0  0  0  0  0  0  0  0
   14.7858   22.6322   16.6318 C   0  0  0  0  0  0  0  0  0  0  0  0
   15.5473   23.6449   16.0988 C   0  0  0  0  0  0  0  0  0  0  0  0
   16.0714   24.6457   16.9108 C   0  0  0  0  0  0  0  0  0  0  0  0
   15.8006   24.5884   18.2759 C   0  0  0  0  0  0  0  0  0  0  0  0
  2  1  1  0
  1 14  2  0
  1 15  1  0
  4  2  2  0
  2  5  1  0
  3  4  1  0
  3  7  2  0
  8  3  1  0
  6  5  2  0
  7  6  1  0
 11  8  2  0
  8 13  1  0
 10  9  2  0
  9 12  1  0
 10 11  1  0
 12 13  2  0
 15 16  1  0
 17 16  1  1
 17 18  2  0
 17 19  2  0
 17 20  1  0
 20 21  2  0
 20 25  1  0
 21 22  1  0
 22 23  2  0
 23 24  1  0
 24 25  2  0
M  END
$$$$
