
     RDKit          3D

 25 27  0  0  0  0  0  0  0  0999 V2000
   18.1669   27.0424   23.4071 C   0  0  0  0  0  0  0  0  0  0  0  0
   19.4873   27.4337   22.9494 C   0  0  0  0  0  0  0  0  0  0  0  0
   21.9020   27.3197   23.0226 C   0  0  0  0  0  0  0  0  0  0  0  0
   20.6416   26.9246   23.4833 C   0  0  0  0  0  0  0  0  0  0  0  0
   19.5932   28.3535   21.9378 C   0  0  0  0  0  0  0  0  0  0  0  0
   20.8110   28.7803   21.4435 C   0  0  0  0  0  0  0  0  0  0  0  0
   21.9475   28.2477   22.0036 C   0  0  0  0  0  0  0  0  0  0  0  0
   23.1186   26.7691   23.6016 C   0  0  0  0  0  0  0  0  0  0  0  0
   25.5028   25.6795   24.6311 C   0  0  0  0  0  0  0  0  0  0  0  0
   24.5691   26.2410   25.4646 C   0  0  0  0  0  0  0  0  0  0  0  0
   23.3859   26.7817   24.9536 C   0  0  0  0  0  0  0  0  0  0  0  0
   25.2443   25.6632   23.2855 C   0  0  0  0  0  0  0  0  0  0  0  0
   24.0753   26.1982   22.7885 C   0  0  0  0  0  0  0  0  0  0  0  0
   17.2533   27.9032   23.4331 O   0  0  0  0  0  0  0  0  0  0  0  0
   17.8073   25.7519   23.8361 N   0  0  0  0  0  0  0  0  0  0  0  0
   16.6413   25.2410   24.2510 N   0  0  0  0  0  0  0  0  0  0  0  0
   16.1639   25.1401   25.8368 S   0  0  1  0  0  6  0  0  0  0  0  0
   15.0585   24.0939   25.9594 O   0  0  0  0  0  0  0  0  0  0  0  0
   17.2453   24.6735   26.7847 O   0  0  0  0  0  0  0  0  0  0  0  0
   15.4532   26.6330   26.3942 C   0  0  0  0  0  0  0  0  0  0  0  0
   15.0321   27.5763   25.4458 C   0  0  0  0  0  0  0  0  0  0  0  0
   14.4317   28.7640   25.8040 C   0  0  0  0  0  0  0  0  0  0  0  0
   14.2194   29.0744   27.1172 C   0  0  0  0  0  0  0  0  0  0  0  0
   14.6265   28.1581   28.0734 C   0  0  0  0  0  0  0  0  0  0  0  0
   15.2263   26.9729   27.6965 C   0  0  0  0  0  0  0  0  0  0  0  0
  2  1  1  0
  1 14  2  0
  1 15  1  0
  4  2  2  0
  2  5  1  0
  3  4  1  0
  3  7  2  0
  8  3  1  0
  6  5  2  0
  7  6  1  0
 11  8  2  0
  8 13  1  0
 10  9  2  0
  9 12  1  0
 10 11  1  0
 12 13  2  0
 15 16  1  0
 17 16  1  6
 17 18  2  0
 17 19  2  0
 17 20  1  0
 20 21  2  0
 20 25  1  0
 21 22  1  0
 22 23  2  0
 23 24  1  0
 24 25  2  0
M  END
$$$$
