
     RDKit          3D

 25 27  0  0  0  0  0  0  0  0999 V2000
   15.9803   22.1909   20.9318 C   0  0  0  0  0  0  0  0  0  0  0  0
   16.7953   21.6004   19.8863 C   0  0  0  0  0  0  0  0  0  0  0  0
   18.3872   21.7442   18.0712 C   0  0  0  0  0  0  0  0  0  0  0  0
   17.6117   22.3397   19.0717 C   0  0  0  0  0  0  0  0  0  0  0  0
   16.7523   20.2426   19.6986 C   0  0  0  0  0  0  0  0  0  0  0  0
   17.4959   19.6011   18.7265 C   0  0  0  0  0  0  0  0  0  0  0  0
   18.3036   20.3753   17.9282 C   0  0  0  0  0  0  0  0  0  0  0  0
   19.2489   22.5449   17.2139 C   0  0  0  0  0  0  0  0  0  0  0  0
   20.8397   24.1540   15.5371 C   0  0  0  0  0  0  0  0  0  0  0  0
   21.3691   23.0562   16.1665 C   0  0  0  0  0  0  0  0  0  0  0  0
   20.5796   22.2577   16.9986 C   0  0  0  0  0  0  0  0  0  0  0  0
   19.5174   24.4463   15.7462 C   0  0  0  0  0  0  0  0  0  0  0  0
   18.7447   23.6544   16.5681 C   0  0  0  0  0  0  0  0  0  0  0  0
   15.1135   21.4817   21.4994 O   0  0  0  0  0  0  0  0  0  0  0  0
   16.0751   23.5210   21.3794 N   0  0  0  0  0  0  0  0  0  0  0  0
   15.4262   24.1880   22.3421 N   0  0  0  0  0  0  0  0  0  0  0  0
   15.8236   25.7096   22.8711 S   0  0  1  0  0  6  0  0  0  0  0  0
   16.4307   26.4976   21.7127 O   0  0  0  0  0  0  0  0  0  0  0  0
   14.6444   26.5384   23.3272 O   0  0  0  0  0  0  0  0  0  0  0  0
   17.0614   25.6640   24.1001 C   0  0  0  0  0  0  0  0  0  0  0  0
   18.0648   26.6435   24.0851 C   0  0  0  0  0  0  0  0  0  0  0  0
   19.0578   26.6959   25.0393 C   0  0  0  0  0  0  0  0  0  0  0  0
   19.1049   25.7819   26.0533 C   0  0  0  0  0  0  0  0  0  0  0  0
   18.1241   24.8039   26.0901 C   0  0  0  0  0  0  0  0  0  0  0  0
   17.1365   24.7666   25.1258 C   0  0  0  0  0  0  0  0  0  0  0  0
  2  1  1  0
  1 14  2  0
  1 15  1  0
  4  2  2  0
  2  5  1  0
  3  4  1  0
  3  7  2  0
  8  3  1  0
  6  5  2  0
  7  6  1  0
 11  8  2  0
  8 13  1  0
 10  9  2  0
  9 12  1  0
 10 11  1  0
 12 13  2  0
 15 16  1  0
 17 16  1  6
 17 18  2  0
 17 19  2  0
 17 20  1  0
 20 21  2  0
 20 25  1  0
 21 22  1  0
 22 23  2  0
 23 24  1  0
 24 25  2  0
M  END
$$$$
