
     RDKit          3D

 25 27  0  0  0  0  0  0  0  0999 V2000
   14.9266   23.4895   18.9797 C   0  0  0  0  0  0  0  0  0  0  0  0
   15.7956   22.8056   18.0399 C   0  0  0  0  0  0  0  0  0  0  0  0
   17.8117   21.5948   17.4756 C   0  0  0  0  0  0  0  0  0  0  0  0
   16.9934   22.2487   18.4029 C   0  0  0  0  0  0  0  0  0  0  0  0
   15.4079   22.7079   16.7280 C   0  0  0  0  0  0  0  0  0  0  0  0
   16.1756   22.0741   15.7697 C   0  0  0  0  0  0  0  0  0  0  0  0
   17.3711   21.5273   16.1707 C   0  0  0  0  0  0  0  0  0  0  0  0
   19.0819   21.0091   17.8783 C   0  0  0  0  0  0  0  0  0  0  0  0
   21.4982   19.8490   18.7429 C   0  0  0  0  0  0  0  0  0  0  0  0
   21.4055   20.4441   17.5105 C   0  0  0  0  0  0  0  0  0  0  0  0
   20.2064   21.0198   17.0815 C   0  0  0  0  0  0  0  0  0  0  0  0
   20.3844   19.8342   19.5411 C   0  0  0  0  0  0  0  0  0  0  0  0
   19.2051   20.4040   19.1116 C   0  0  0  0  0  0  0  0  0  0  0  0
   14.1871   24.4137   18.5611 O   0  0  0  0  0  0  0  0  0  0  0  0
   14.8347   23.2038   20.3540 N   0  0  0  0  0  0  0  0  0  0  0  0
   14.1343   23.7771   21.3406 N   0  0  0  0  0  0  0  0  0  0  0  0
   14.7153   24.0682   22.8673 S   0  0  1  0  0  6  0  0  0  0  0  0
   13.5840   24.6129   23.7361 O   0  0  0  0  0  0  0  0  0  0  0  0
   15.2023   22.8353   23.5941 O   0  0  0  0  0  0  0  0  0  0  0  0
   15.9395   25.3115   22.8670 C   0  0  0  0  0  0  0  0  0  0  0  0
   15.5504   26.6427   22.6601 C   0  0  0  0  0  0  0  0  0  0  0  0
   16.4517   27.6853   22.6784 C   0  0  0  0  0  0  0  0  0  0  0  0
   17.7802   27.4599   22.9024 C   0  0  0  0  0  0  0  0  0  0  0  0
   18.1896   26.1526   23.1099 C   0  0  0  0  0  0  0  0  0  0  0  0
   17.2728   25.1204   23.0883 C   0  0  0  0  0  0  0  0  0  0  0  0
  2  1  1  0
  1 14  2  0
  1 15  1  0
  4  2  2  0
  2  5  1  0
  3  4  1  0
  3  7  2  0
  8  3  1  0
  6  5  2  0
  7  6  1  0
 11  8  2  0
  8 13  1  0
 10  9  2  0
  9 12  1  0
 10 11  1  0
 12 13  2  0
 15 16  1  0
 17 16  1  6
 17 18  2  0
 17 19  2  0
 17 20  1  0
 20 21  2  0
 20 25  1  0
 21 22  1  0
 22 23  2  0
 23 24  1  0
 24 25  2  0
M  END
$$$$
