
     RDKit          3D

 25 27  0  0  0  0  0  0  0  0999 V2000
   15.4527   29.1958   21.7881 C   0  0  0  0  0  0  0  0  0  0  0  0
   15.5507   30.4993   21.1576 C   0  0  0  0  0  0  0  0  0  0  0  0
   16.8098   32.3161   20.1762 C   0  0  0  0  0  0  0  0  0  0  0  0
   16.7444   31.0571   20.7827 C   0  0  0  0  0  0  0  0  0  0  0  0
   14.4021   31.2108   20.9228 C   0  0  0  0  0  0  0  0  0  0  0  0
   14.4069   32.4580   20.3278 C   0  0  0  0  0  0  0  0  0  0  0  0
   15.6231   32.9858   19.9652 C   0  0  0  0  0  0  0  0  0  0  0  0
   18.0868   32.8944   19.7847 C   0  0  0  0  0  0  0  0  0  0  0  0
   20.5978   33.9768   19.1098 C   0  0  0  0  0  0  0  0  0  0  0  0
   19.5152   34.1442   18.2842 C   0  0  0  0  0  0  0  0  0  0  0  0
   18.2692   33.6071   18.6192 C   0  0  0  0  0  0  0  0  0  0  0  0
   20.4245   33.2694   20.2706 C   0  0  0  0  0  0  0  0  0  0  0  0
   19.1929   32.7425   20.5946 C   0  0  0  0  0  0  0  0  0  0  0  0
   14.3990   28.8957   22.4014 O   0  0  0  0  0  0  0  0  0  0  0  0
   16.4574   28.2115   21.7747 N   0  0  0  0  0  0  0  0  0  0  0  0
   16.5135   26.9850   22.3089 N   0  0  0  0  0  0  0  0  0  0  0  0
   17.8152   25.9624   22.1946 S   0  0  1  0  0  6  0  0  0  0  0  0
   17.4664   24.6345   22.8627 O   0  0  0  0  0  0  0  0  0  0  0  0
   18.1965   25.5950   20.7786 O   0  0  0  0  0  0  0  0  0  0  0  0
   19.1958   26.5732   23.0695 C   0  0  0  0  0  0  0  0  0  0  0  0
   19.2812   26.3346   24.4488 C   0  0  0  0  0  0  0  0  0  0  0  0
   20.3546   26.7547   25.2042 C   0  0  0  0  0  0  0  0  0  0  0  0
   21.3941   27.4304   24.6308 C   0  0  0  0  0  0  0  0  0  0  0  0
   21.3332   27.6782   23.2690 C   0  0  0  0  0  0  0  0  0  0  0  0
   20.2501   27.2498   22.5275 C   0  0  0  0  0  0  0  0  0  0  0  0
  2  1  1  0
  1 14  2  0
  1 15  1  0
  4  2  2  0
  2  5  1  0
  3  4  1  0
  3  7  2  0
  8  3  1  0
  6  5  2  0
  7  6  1  0
 11  8  2  0
  8 13  1  0
 10  9  2  0
  9 12  1  0
 10 11  1  0
 12 13  2  0
 15 16  1  0
 17 16  1  6
 17 18  2  0
 17 19  2  0
 17 20  1  0
 20 21  2  0
 20 25  1  0
 21 22  1  0
 22 23  2  0
 23 24  1  0
 24 25  2  0
M  END
$$$$
