
     RDKit          3D

 25 27  0  0  0  0  0  0  0  0999 V2000
   16.2196   23.4096   21.0913 C   0  0  0  0  0  0  0  0  0  0  0  0
   17.5368   22.8794   21.3910 C   0  0  0  0  0  0  0  0  0  0  0  0
   19.8161   23.1133   22.1653 C   0  0  0  0  0  0  0  0  0  0  0  0
   18.5553   23.6508   21.8851 C   0  0  0  0  0  0  0  0  0  0  0  0
   17.7814   21.5477   21.1727 C   0  0  0  0  0  0  0  0  0  0  0  0
   19.0066   20.9632   21.4310 C   0  0  0  0  0  0  0  0  0  0  0  0
   20.0045   21.7684   21.9261 C   0  0  0  0  0  0  0  0  0  0  0  0
   20.8874   23.9476   22.6895 C   0  0  0  0  0  0  0  0  0  0  0  0
   23.0229   25.5179   23.6411 C   0  0  0  0  0  0  0  0  0  0  0  0
   21.7581   25.6686   24.1501 C   0  0  0  0  0  0  0  0  0  0  0  0
   20.6984   24.8893   23.6778 C   0  0  0  0  0  0  0  0  0  0  0  0
   23.2189   24.5835   22.6580 C   0  0  0  0  0  0  0  0  0  0  0  0
   22.1693   23.8185   22.1970 C   0  0  0  0  0  0  0  0  0  0  0  0
   15.7699   23.2951   19.9247 O   0  0  0  0  0  0  0  0  0  0  0  0
   15.3779   24.0578   22.0134 N   0  0  0  0  0  0  0  0  0  0  0  0
   14.5217   25.0781   21.8773 N   0  0  0  0  0  0  0  0  0  0  0  0
   14.7690   26.6063   22.4745 S   0  0  1  0  0  6  0  0  0  0  0  0
   16.0476   27.1783   21.8669 O   0  0  0  0  0  0  0  0  0  0  0  0
   13.6892   27.5998   22.1104 O   0  0  0  0  0  0  0  0  0  0  0  0
   15.0412   26.5906   24.1979 C   0  0  0  0  0  0  0  0  0  0  0  0
   16.3597   26.5458   24.6733 C   0  0  0  0  0  0  0  0  0  0  0  0
   16.6591   26.5640   26.0184 C   0  0  0  0  0  0  0  0  0  0  0  0
   15.6683   26.6277   26.9566 C   0  0  0  0  0  0  0  0  0  0  0  0
   14.3569   26.6733   26.5118 C   0  0  0  0  0  0  0  0  0  0  0  0
   14.0753   26.6543   25.1602 C   0  0  0  0  0  0  0  0  0  0  0  0
  2  1  1  0
  1 14  2  0
  1 15  1  0
  4  2  2  0
  2  5  1  0
  3  4  1  0
  3  7  2  0
  8  3  1  0
  6  5  2  0
  7  6  1  0
 11  8  2  0
  8 13  1  0
 10  9  2  0
  9 12  1  0
 10 11  1  0
 12 13  2  0
 15 16  1  0
 17 16  1  6
 17 18  2  0
 17 19  2  0
 17 20  1  0
 20 21  2  0
 20 25  1  0
 21 22  1  0
 22 23  2  0
 23 24  1  0
 24 25  2  0
M  END
$$$$
