
     RDKit          3D

 25 27  0  0  0  0  0  0  0  0999 V2000
   18.0595   26.6624   22.3521 C   0  0  0  0  0  0  0  0  0  0  0  0
   19.1781   26.9712   23.2234 C   0  0  0  0  0  0  0  0  0  0  0  0
   21.4087   26.5745   24.0699 C   0  0  0  0  0  0  0  0  0  0  0  0
   20.3456   26.2546   23.2187 C   0  0  0  0  0  0  0  0  0  0  0  0
   19.0700   28.0258   24.0934 C   0  0  0  0  0  0  0  0  0  0  0  0
   20.0871   28.3869   24.9563 C   0  0  0  0  0  0  0  0  0  0  0  0
   21.2436   27.6449   24.9234 C   0  0  0  0  0  0  0  0  0  0  0  0
   22.6421   25.8020   24.0522 C   0  0  0  0  0  0  0  0  0  0  0  0
   24.9750   24.2244   24.0224 C   0  0  0  0  0  0  0  0  0  0  0  0
   25.0511   25.5930   23.9692 C   0  0  0  0  0  0  0  0  0  0  0  0
   23.8934   26.3758   23.9841 C   0  0  0  0  0  0  0  0  0  0  0  0
   23.7344   23.6463   24.0904 C   0  0  0  0  0  0  0  0  0  0  0  0
   22.5969   24.4245   24.1046 C   0  0  0  0  0  0  0  0  0  0  0  0
   17.0155   27.3548   22.4356 O   0  0  0  0  0  0  0  0  0  0  0  0
   18.0373   25.6301   21.3967 N   0  0  0  0  0  0  0  0  0  0  0  0
   17.1030   25.2465   20.5177 N   0  0  0  0  0  0  0  0  0  0  0  0
   15.9744   24.0620   20.7937 S   0  0  1  0  0  6  0  0  0  0  0  0
   15.2274   23.7722   19.4940 O   0  0  0  0  0  0  0  0  0  0  0  0
   16.5574   22.7308   21.2102 O   0  0  0  0  0  0  0  0  0  0  0  0
   14.7523   24.5843   21.9244 C   0  0  0  0  0  0  0  0  0  0  0  0
   14.8020   24.1060   23.2416 C   0  0  0  0  0  0  0  0  0  0  0  0
   13.8940   24.4966   24.2021 C   0  0  0  0  0  0  0  0  0  0  0  0
   12.8944   25.3788   23.9048 C   0  0  0  0  0  0  0  0  0  0  0  0
   12.8244   25.8661   22.6096 C   0  0  0  0  0  0  0  0  0  0  0  0
   13.7427   25.4640   21.6601 C   0  0  0  0  0  0  0  0  0  0  0  0
  2  1  1  0
  1 14  2  0
  1 15  1  0
  4  2  2  0
  2  5  1  0
  3  4  1  0
  3  7  2  0
  8  3  1  0
  6  5  2  0
  7  6  1  0
 11  8  2  0
  8 13  1  0
 10  9  2  0
  9 12  1  0
 10 11  1  0
 12 13  2  0
 15 16  1  0
 17 16  1  6
 17 18  2  0
 17 19  2  0
 17 20  1  0
 20 21  2  0
 20 25  1  0
 21 22  1  0
 22 23  2  0
 23 24  1  0
 24 25  2  0
M  END
$$$$
