
     RDKit          3D

 25 27  0  0  0  0  0  0  0  0999 V2000
   21.7860   32.4239   12.1702 C   0  0  0  0  0  0  0  0  0  0  0  0
   20.3718   32.2909   11.8731 C   0  0  0  0  0  0  0  0  0  0  0  0
   18.4409   31.0181   11.1655 C   0  0  0  0  0  0  0  0  0  0  0  0
   19.8080   31.1182   11.4447 C   0  0  0  0  0  0  0  0  0  0  0  0
   19.5563   33.3830   12.0253 C   0  0  0  0  0  0  0  0  0  0  0  0
   18.2000   33.3420   11.7642 C   0  0  0  0  0  0  0  0  0  0  0  0
   17.6697   32.1484   11.3362 C   0  0  0  0  0  0  0  0  0  0  0  0
   17.8582   29.7643   10.7104 C   0  0  0  0  0  0  0  0  0  0  0  0
   16.6601   27.3484    9.8983 C   0  0  0  0  0  0  0  0  0  0  0  0
   17.7884   27.8179    9.2752 C   0  0  0  0  0  0  0  0  0  0  0  0
   18.3829   29.0168    9.6783 C   0  0  0  0  0  0  0  0  0  0  0  0
   16.1324   28.0860   10.9255 C   0  0  0  0  0  0  0  0  0  0  0  0
   16.7239   29.2675   11.3178 C   0  0  0  0  0  0  0  0  0  0  0  0
   22.1736   33.4038   12.8527 O   0  0  0  0  0  0  0  0  0  0  0  0
   22.7894   31.5311   11.7520 N   0  0  0  0  0  0  0  0  0  0  0  0
   24.0934   31.4518   12.0453 N   0  0  0  0  0  0  0  0  0  0  0  0
   25.0197   30.0859   11.8747 S   0  0  1  0  0  6  0  0  0  0  0  0
   24.9207   29.5929   10.4330 O   0  0  0  0  0  0  0  0  0  0  0  0
   26.4975   30.3018   12.1094 O   0  0  0  0  0  0  0  0  0  0  0  0
   24.4218   28.7727   12.8559 C   0  0  0  0  0  0  0  0  0  0  0  0
   24.9898   28.5611   14.1204 C   0  0  0  0  0  0  0  0  0  0  0  0
   24.5512   27.5670   14.9683 C   0  0  0  0  0  0  0  0  0  0  0  0
   23.5300   26.7356   14.6052 C   0  0  0  0  0  0  0  0  0  0  0  0
   22.9520   26.9248   13.3603 C   0  0  0  0  0  0  0  0  0  0  0  0
   23.4040   27.9260   12.5237 C   0  0  0  0  0  0  0  0  0  0  0  0
  2  1  1  0
  1 14  2  0
  1 15  1  0
  4  2  2  0
  2  5  1  0
  3  4  1  0
  3  7  2  0
  8  3  1  0
  6  5  2  0
  7  6  1  0
 11  8  2  0
  8 13  1  0
 10  9  2  0
  9 12  1  0
 10 11  1  0
 12 13  2  0
 15 16  1  0
 17 16  1  6
 17 18  2  0
 17 19  2  0
 17 20  1  0
 20 21  2  0
 20 25  1  0
 21 22  1  0
 22 23  2  0
 23 24  1  0
 24 25  2  0
M  END
$$$$
