
     RDKit          3D

 25 27  0  0  0  0  0  0  0  0999 V2000
   15.4429   23.1848   21.7560 C   0  0  0  0  0  0  0  0  0  0  0  0
   16.8804   23.3553   21.8805 C   0  0  0  0  0  0  0  0  0  0  0  0
   18.7795   24.5671   22.7733 C   0  0  0  0  0  0  0  0  0  0  0  0
   17.4267   24.3776   22.6353 C   0  0  0  0  0  0  0  0  0  0  0  0
   17.7113   22.4793   21.2314 C   0  0  0  0  0  0  0  0  0  0  0  0
   19.0728   22.6424   21.3498 C   0  0  0  0  0  0  0  0  0  0  0  0
   19.5972   23.6697   22.1085 C   0  0  0  0  0  0  0  0  0  0  0  0
   19.3510   25.6425   23.5681 C   0  0  0  0  0  0  0  0  0  0  0  0
   20.5027   27.6661   25.1480 C   0  0  0  0  0  0  0  0  0  0  0  0
   19.5997   27.9801   24.1554 C   0  0  0  0  0  0  0  0  0  0  0  0
   19.0306   26.9685   23.3732 C   0  0  0  0  0  0  0  0  0  0  0  0
   20.8321   26.3433   25.3539 C   0  0  0  0  0  0  0  0  0  0  0  0
   20.2570   25.3609   24.5685 C   0  0  0  0  0  0  0  0  0  0  0  0
   14.9421   22.0698   22.1107 O   0  0  0  0  0  0  0  0  0  0  0  0
   14.5362   24.1500   21.2729 N   0  0  0  0  0  0  0  0  0  0  0  0
   13.1695   24.1473   21.6567 N   0  0  0  0  0  0  0  0  0  0  0  0
   12.5741   25.7472   21.5897 S   0  0  1  0  0  6  0  0  0  0  0  0
   12.9851   26.3450   20.2585 O   0  0  0  0  0  0  0  0  0  0  0  0
   11.0746   25.7754   21.6134 O   0  0  0  0  0  0  0  0  0  0  0  0
   13.2393   26.6617   22.9137 C   0  0  0  0  0  0  0  0  0  0  0  0
   14.1627   27.6589   22.6781 C   0  0  0  0  0  0  0  0  0  0  0  0
   14.7138   28.3995   23.6903 C   0  0  0  0  0  0  0  0  0  0  0  0
   14.3376   28.1447   24.9876 C   0  0  0  0  0  0  0  0  0  0  0  0
   13.4099   27.1495   25.2784 C   0  0  0  0  0  0  0  0  0  0  0  0
   12.8768   26.4226   24.2165 C   0  0  0  0  0  0  0  0  0  0  0  0
  2  1  1  0
  1 14  2  0
  1 15  1  0
  4  2  2  0
  2  5  1  0
  3  4  1  0
  3  7  2  0
  8  3  1  0
  6  5  2  0
  7  6  1  0
 11  8  2  0
  8 13  1  0
 10  9  2  0
  9 12  1  0
 10 11  1  0
 12 13  2  0
 15 16  1  0
 17 16  1  6
 17 18  2  0
 17 19  2  0
 17 20  1  0
 20 21  2  0
 20 25  1  0
 21 22  1  0
 22 23  2  0
 23 24  1  0
 24 25  2  0
M  END
$$$$
