
     RDKit          3D

 25 27  0  0  0  0  0  0  0  0999 V2000
    4.3157   16.5403   14.4383 C   0  0  0  0  0  0  0  0  0  0  0  0
    5.6136   16.3468   15.0620 C   0  0  0  0  0  0  0  0  0  0  0  0
    7.9164   15.6046   14.9264 C   0  0  0  0  0  0  0  0  0  0  0  0
    6.6780   15.8013   14.3673 C   0  0  0  0  0  0  0  0  0  0  0  0
    5.7820   16.7151   16.3717 C   0  0  0  0  0  0  0  0  0  0  0  0
    7.0118   16.5307   16.9614 C   0  0  0  0  0  0  0  0  0  0  0  0
    8.0611   15.9843   16.2496 C   0  0  0  0  0  0  0  0  0  0  0  0
    9.0339   15.0313   14.1932 C   0  0  0  0  0  0  0  0  0  0  0  0
   11.2480   13.9747   12.8155 C   0  0  0  0  0  0  0  0  0  0  0  0
    9.9827   13.4738   12.5980 C   0  0  0  0  0  0  0  0  0  0  0  0
    8.8856   14.0041   13.2868 C   0  0  0  0  0  0  0  0  0  0  0  0
   11.4105   15.0026   13.7197 C   0  0  0  0  0  0  0  0  0  0  0  0
   10.3118   15.5106   14.3886 C   0  0  0  0  0  0  0  0  0  0  0  0
    3.3980   17.0877   15.1295 O   0  0  0  0  0  0  0  0  0  0  0  0
    3.9703   16.1744   13.1214 N   0  0  0  0  0  0  0  0  0  0  0  0
    2.6935   16.4701   12.5759 N   0  0  0  0  0  0  0  0  0  0  0  0
    2.5024   15.6027   11.1165 S   0  0  1  0  0  6  0  0  0  0  0  0
    1.5520   16.3821   10.2291 O   0  0  0  0  0  0  0  0  0  0  0  0
    3.7949   15.5091   10.3612 O   0  0  0  0  0  0  0  0  0  0  0  0
    1.8668   14.0206   11.4698 C   0  0  0  0  0  0  0  0  0  0  0  0
    0.5730   13.8745   11.9251 C   0  0  0  0  0  0  0  0  0  0  0  0
    0.0347   12.6494   12.2186 C   0  0  0  0  0  0  0  0  0  0  0  0
    0.8057   11.5231   12.0557 C   0  0  0  0  0  0  0  0  0  0  0  0
    2.1166   11.6165   11.5993 C   0  0  0  0  0  0  0  0  0  0  0  0
    2.6206   12.8833   11.3139 C   0  0  0  0  0  0  0  0  0  0  0  0
  2  1  1  0
  1 14  2  0
  1 15  1  0
  4  2  2  0
  2  5  1  0
  3  4  1  0
  3  7  2  0
  8  3  1  0
  6  5  2  0
  7  6  1  0
 11  8  2  0
  8 13  1  0
 10  9  2  0
  9 12  1  0
 10 11  1  0
 12 13  2  0
 15 16  1  0
 17 16  1  1
 17 18  2  0
 17 19  2  0
 17 20  1  0
 20 21  2  0
 20 25  1  0
 21 22  1  0
 22 23  2  0
 23 24  1  0
 24 25  2  0
M  END
$$$$
