
     RDKit          3D

 25 27  0  0  0  0  0  0  0  0999 V2000
   15.8677   22.3431   20.3399 C   0  0  0  0  0  0  0  0  0  0  0  0
   16.7419   21.7256   19.3573 C   0  0  0  0  0  0  0  0  0  0  0  0
   18.9648   21.3537   18.4669 C   0  0  0  0  0  0  0  0  0  0  0  0
   18.1110   21.9215   19.3800 C   0  0  0  0  0  0  0  0  0  0  0  0
   16.1913   20.9307   18.3857 C   0  0  0  0  0  0  0  0  0  0  0  0
   17.0206   20.3468   17.4553 C   0  0  0  0  0  0  0  0  0  0  0  0
   18.3847   20.5556   17.4960 C   0  0  0  0  0  0  0  0  0  0  0  0
   20.4039   21.5611   18.4935 C   0  0  0  0  0  0  0  0  0  0  0  0
   23.1755   22.0385   18.5794 C   0  0  0  0  0  0  0  0  0  0  0  0
   22.6847   20.8415   18.1044 C   0  0  0  0  0  0  0  0  0  0  0  0
   21.3048   20.6107   18.0645 C   0  0  0  0  0  0  0  0  0  0  0  0
   22.2853   22.9982   19.0118 C   0  0  0  0  0  0  0  0  0  0  0  0
   20.9260   22.7476   18.9629 C   0  0  0  0  0  0  0  0  0  0  0  0
   14.7461   21.7883   20.5718 O   0  0  0  0  0  0  0  0  0  0  0  0
   16.1468   23.5151   21.0718 N   0  0  0  0  0  0  0  0  0  0  0  0
   15.2900   23.9682   22.1090 N   0  0  0  0  0  0  0  0  0  0  0  0
   15.8480   25.4851   22.6628 S   0  0  1  0  0  6  0  0  0  0  0  0
   16.2668   26.2999   21.4549 O   0  0  0  0  0  0  0  0  0  0  0  0
   14.7519   26.2622   23.3294 O   0  0  0  0  0  0  0  0  0  0  0  0
   17.1908   25.2413   23.7442 C   0  0  0  0  0  0  0  0  0  0  0  0
   18.1928   26.1848   23.8356 C   0  0  0  0  0  0  0  0  0  0  0  0
   19.2683   26.0312   24.6700 C   0  0  0  0  0  0  0  0  0  0  0  0
   19.3578   24.8996   25.4453 C   0  0  0  0  0  0  0  0  0  0  0  0
   18.3735   23.9179   25.3900 C   0  0  0  0  0  0  0  0  0  0  0  0
   17.2988   24.1181   24.5268 C   0  0  0  0  0  0  0  0  0  0  0  0
  2  1  1  0
  1 14  2  0
  1 15  1  0
  4  2  2  0
  2  5  1  0
  3  4  1  0
  3  7  2  0
  8  3  1  0
  6  5  2  0
  7  6  1  0
 11  8  2  0
  8 13  1  0
 10  9  2  0
  9 12  1  0
 10 11  1  0
 12 13  2  0
 15 16  1  0
 17 16  1  6
 17 18  2  0
 17 19  2  0
 17 20  1  0
 20 21  2  0
 20 25  1  0
 21 22  1  0
 22 23  2  0
 23 24  1  0
 24 25  2  0
M  END
$$$$
