
     RDKit          3D

 25 27  0  0  0  0  0  0  0  0999 V2000
   16.8015   23.0214   22.3462 C   0  0  0  0  0  0  0  0  0  0  0  0
   17.9611   23.8249   22.6936 C   0  0  0  0  0  0  0  0  0  0  0  0
   19.0462   25.9863   22.8456 C   0  0  0  0  0  0  0  0  0  0  0  0
   17.9677   25.1982   22.5282 C   0  0  0  0  0  0  0  0  0  0  0  0
   19.0736   23.2017   23.1965 C   0  0  0  0  0  0  0  0  0  0  0  0
   20.1716   23.9641   23.5246 C   0  0  0  0  0  0  0  0  0  0  0  0
   20.1571   25.3337   23.3516 C   0  0  0  0  0  0  0  0  0  0  0  0
   19.0500   27.4300   22.6712 C   0  0  0  0  0  0  0  0  0  0  0  0
   19.1419   30.2220   22.3342 C   0  0  0  0  0  0  0  0  0  0  0  0
   17.9336   29.5608   22.3802 C   0  0  0  0  0  0  0  0  0  0  0  0
   17.8952   28.1718   22.5481 C   0  0  0  0  0  0  0  0  0  0  0  0
   20.3050   29.4921   22.4562 C   0  0  0  0  0  0  0  0  0  0  0  0
   20.2424   28.1204   22.6212 C   0  0  0  0  0  0  0  0  0  0  0  0
   16.9082   21.7557   22.4251 O   0  0  0  0  0  0  0  0  0  0  0  0
   15.5510   23.5166   21.9240 N   0  0  0  0  0  0  0  0  0  0  0  0
   14.4644   22.6497   21.6358 N   0  0  0  0  0  0  0  0  0  0  0  0
   13.6971   23.1830   20.2055 S   0  0  1  0  0  6  0  0  0  0  0  0
   12.3480   22.4975   20.1138 O   0  0  0  0  0  0  0  0  0  0  0  0
   13.4136   24.6552   20.2518 O   0  0  0  0  0  0  0  0  0  0  0  0
   14.6940   22.7792   18.8361 C   0  0  0  0  0  0  0  0  0  0  0  0
   14.5841   21.5432   18.2338 C   0  0  0  0  0  0  0  0  0  0  0  0
   15.3512   21.1833   17.1574 C   0  0  0  0  0  0  0  0  0  0  0  0
   16.2639   22.0805   16.6558 C   0  0  0  0  0  0  0  0  0  0  0  0
   16.4134   23.3400   17.2274 C   0  0  0  0  0  0  0  0  0  0  0  0
   15.6115   23.6612   18.3201 C   0  0  0  0  0  0  0  0  0  0  0  0
  2  1  1  0
  1 14  2  0
  1 15  1  0
  4  2  2  0
  2  5  1  0
  3  4  1  0
  3  7  2  0
  8  3  1  0
  6  5  2  0
  7  6  1  0
 11  8  2  0
  8 13  1  0
 10  9  2  0
  9 12  1  0
 10 11  1  0
 12 13  2  0
 15 16  1  0
 17 16  1  1
 17 18  2  0
 17 19  2  0
 17 20  1  0
 20 21  2  0
 20 25  1  0
 21 22  1  0
 22 23  2  0
 23 24  1  0
 24 25  2  0
M  END
$$$$
