
     RDKit          3D

 25 27  0  0  0  0  0  0  0  0999 V2000
   17.3207   26.1110   21.2114 C   0  0  0  0  0  0  0  0  0  0  0  0
   17.8360   26.5907   22.4804 C   0  0  0  0  0  0  0  0  0  0  0  0
   18.0100   26.5097   24.8913 C   0  0  0  0  0  0  0  0  0  0  0  0
   17.4980   26.0269   23.6823 C   0  0  0  0  0  0  0  0  0  0  0  0
   18.7004   27.6554   22.4858 C   0  0  0  0  0  0  0  0  0  0  0  0
   19.2365   28.1738   23.6491 C   0  0  0  0  0  0  0  0  0  0  0  0
   18.8746   27.5824   24.8358 C   0  0  0  0  0  0  0  0  0  0  0  0
   17.6397   25.8991   26.1597 C   0  0  0  0  0  0  0  0  0  0  0  0
   16.9426   24.6289   28.5747 C   0  0  0  0  0  0  0  0  0  0  0  0
   16.8904   25.9947   28.4581 C   0  0  0  0  0  0  0  0  0  0  0  0
   17.2364   26.6250   27.2597 C   0  0  0  0  0  0  0  0  0  0  0  0
   17.3427   23.9002   27.4854 C   0  0  0  0  0  0  0  0  0  0  0  0
   17.6824   24.5283   26.3066 C   0  0  0  0  0  0  0  0  0  0  0  0
   17.1907   26.9231   20.2628 O   0  0  0  0  0  0  0  0  0  0  0  0
   16.9432   24.7835   20.9397 N   0  0  0  0  0  0  0  0  0  0  0  0
   16.3069   24.2308   19.8994 N   0  0  0  0  0  0  0  0  0  0  0  0
   15.8131   22.6485   19.8249 S   0  0  1  0  0  6  0  0  0  0  0  0
   15.6309   22.1155   21.2441 O   0  0  0  0  0  0  0  0  0  0  0  0
   14.4707   22.4454   19.1598 O   0  0  0  0  0  0  0  0  0  0  0  0
   17.0259   21.6263   19.0978 C   0  0  0  0  0  0  0  0  0  0  0  0
   17.1397   21.6021   17.7003 C   0  0  0  0  0  0  0  0  0  0  0  0
   18.0929   20.8471   17.0515 C   0  0  0  0  0  0  0  0  0  0  0  0
   18.9786   20.0809   17.7547 C   0  0  0  0  0  0  0  0  0  0  0  0
   18.8867   20.0883   19.1371 C   0  0  0  0  0  0  0  0  0  0  0  0
   17.9254   20.8508   19.7705 C   0  0  0  0  0  0  0  0  0  0  0  0
  2  1  1  0
  1 14  2  0
  1 15  1  0
  4  2  2  0
  2  5  1  0
  3  4  1  0
  3  7  2  0
  8  3  1  0
  6  5  2  0
  7  6  1  0
 11  8  2  0
  8 13  1  0
 10  9  2  0
  9 12  1  0
 10 11  1  0
 12 13  2  0
 15 16  1  0
 17 16  1  1
 17 18  2  0
 17 19  2  0
 17 20  1  0
 20 21  2  0
 20 25  1  0
 21 22  1  0
 22 23  2  0
 23 24  1  0
 24 25  2  0
M  END
$$$$
