
     RDKit          3D

 30 31  0  0  0  0  0  0  0  0999 V2000
    9.3709   29.4151    5.1684 O   0  0  0  0  0  0  0  0  0  0  0  0
   11.1207   32.6696    5.2042 O   0  0  0  0  0  0  0  0  0  0  0  0
   10.9860   30.4106    3.9394 O   0  0  0  0  0  0  0  0  0  0  0  0
   11.0621   32.5756    8.6708 O   0  0  0  0  0  0  0  0  0  0  0  0
    8.5000   38.1263   11.5742 O   0  0  0  0  0  0  0  0  0  0  0  0
   11.3539   35.1880   12.4151 C   0  0  0  0  0  0  0  0  0  0  0  0
   11.3257   36.4594   11.6964 C   0  0  0  0  0  0  0  0  0  0  0  0
   10.2218   33.2526    7.8394 C   0  0  2  0  0  0  0  0  0  0  0  0
   10.2154   34.5151   12.6825 C   0  0  0  0  0  0  0  0  0  0  0  0
   10.2918   36.7258   10.6765 C   0  0  1  0  0  0  0  0  0  0  0  0
    9.8745   30.5089    4.5007 C   0  0  0  0  0  0  0  0  0  0  0  0
    9.0035   35.2319   12.1618 C   0  0  1  0  0  0  0  0  0  0  0  0
    9.2260   35.6086   10.7208 C   0  0  2  0  0  0  0  0  0  0  0  0
    9.7332   32.7865    5.4003 C   0  0  2  0  0  0  0  0  0  0  0  0
   12.2362   37.4070   11.9368 C   0  0  0  0  0  0  0  0  0  0  0  0
    9.6665   38.0731   10.7515 C   0  0  2  0  0  0  0  0  0  0  0  0
    9.2694   34.2126    8.5912 C   0  0  0  0  0  0  0  0  0  0  0  0
    9.4793   32.4539    6.8294 C   0  0  0  0  0  0  0  0  0  0  0  0
    9.8146   34.4734    9.9487 C   0  0  0  0  0  0  0  0  0  0  0  0
   10.6411   39.0745   11.3116 C   0  0  0  0  0  0  0  0  0  0  0  0
    7.7969   34.3913   12.3525 C   0  0  0  0  0  0  0  0  0  0  0  0
    9.0918   31.7906    4.4559 C   0  0  0  0  0  0  0  0  0  0  0  0
   12.0903   38.6492   11.1364 C   0  0  1  0  0  0  0  0  0  0  0  0
   12.9503   39.7190   11.7591 C   0  0  0  0  0  0  0  0  0  0  0  0
    7.4998   39.0655   11.3647 C   0  0  0  0  0  0  0  0  0  0  0  0
    6.3909   38.8896   10.4042 C   0  0  2  0  0  0  0  0  0  0  0  0
    7.5590   40.1181   12.0402 O   0  0  0  0  0  0  0  0  0  0  0  0
    6.6470   39.7888    9.2170 C   0  0  0  0  0  0  0  0  0  0  0  0
    5.0553   39.2355   11.0297 C   0  0  0  0  0  0  0  0  0  0  0  0
    6.7750   41.2339    9.6120 C   0  0  0  0  0  0  0  0  0  0  0  0
 11  1  1  0
 14  2  1  1
 11  3  2  0
  8  4  1  1
 16  5  1  1
  5 25  1  0
  7  6  1  0
  9  6  2  0
 10  7  1  1
  7 15  2  0
 17  8  1  0
  8 18  1  0
 12  9  1  0
 13 10  1  0
 10 16  1  0
 22 11  1  0
 13 12  1  0
 12 21  1  6
 13 19  1  6
 18 14  1  0
 14 22  1  0
 15 23  1  0
 16 20  1  0
 17 19  1  0
 20 23  1  0
 23 24  1  1
 25 26  1  0
 25 27  2  0
 26 28  1  0
 26 29  1  1
 28 30  1  0
M  END
$$$$
