
     RDKit          3D

 30 31  0  0  0  0  0  0  0  0999 V2000
    9.4256   31.1925    2.3189 O   0  0  0  0  0  0  0  0  0  0  0  0
   10.3822   32.4280    4.9110 O   0  0  0  0  0  0  0  0  0  0  0  0
    8.4362   29.2895    3.0329 O   0  0  0  0  0  0  0  0  0  0  0  0
   10.2753   34.8670    5.7315 O   0  0  0  0  0  0  0  0  0  0  0  0
    9.1210   37.4022   11.8280 O   0  0  0  0  0  0  0  0  0  0  0  0
   10.6111   33.6979   10.5858 C   0  0  0  0  0  0  0  0  0  0  0  0
   11.1459   35.0448   10.7694 C   0  0  0  0  0  0  0  0  0  0  0  0
    8.9335   34.6968    5.8934 C   0  0  2  0  0  0  0  0  0  0  0  0
    9.2840   33.4873   10.4646 C   0  0  0  0  0  0  0  0  0  0  0  0
   10.4689   36.2126   10.1709 C   0  0  1  0  0  0  0  0  0  0  0  0
    8.7796   30.4624    3.2912 C   0  0  0  0  0  0  0  0  0  0  0  0
    8.5024   34.7665   10.5447 C   0  0  1  0  0  0  0  0  0  0  0  0
    9.1002   35.7776    9.6022 C   0  0  2  0  0  0  0  0  0  0  0  0
    9.0063   32.5043    4.6313 C   0  0  2  0  0  0  0  0  0  0  0  0
   12.2616   35.2530   11.4741 C   0  0  0  0  0  0  0  0  0  0  0  0
   10.3316   37.3892   11.0700 C   0  0  2  0  0  0  0  0  0  0  0  0
    8.3946   35.3358    7.1953 C   0  0  0  0  0  0  0  0  0  0  0  0
    8.3991   33.3209    5.7184 C   0  0  0  0  0  0  0  0  0  0  0  0
    9.4033   35.1666    8.2732 C   0  0  0  0  0  0  0  0  0  0  0  0
   11.4658   37.4301   12.0591 C   0  0  0  0  0  0  0  0  0  0  0  0
    7.0700   34.5032   10.2662 C   0  0  0  0  0  0  0  0  0  0  0  0
    8.4991   31.0767    4.6333 C   0  0  0  0  0  0  0  0  0  0  0  0
   12.6929   36.6698   11.5817 C   0  0  1  0  0  0  0  0  0  0  0  0
   13.7327   36.7683   12.6683 C   0  0  0  0  0  0  0  0  0  0  0  0
    8.3342   38.5411   11.9299 C   0  0  0  0  0  0  0  0  0  0  0  0
    7.8381   39.0894   13.2090 C   0  0  2  0  0  0  0  0  0  0  0  0
    8.0384   39.1240   10.8619 O   0  0  0  0  0  0  0  0  0  0  0  0
    7.1400   40.3988   12.9227 C   0  0  0  0  0  0  0  0  0  0  0  0
    8.9690   39.3162   14.1910 C   0  0  0  0  0  0  0  0  0  0  0  0
    7.4720   40.9368   11.5586 C   0  0  0  0  0  0  0  0  0  0  0  0
 11  1  1  0
 14  2  1  1
 11  3  2  0
  8  4  1  1
 16  5  1  1
  5 25  1  0
  7  6  1  0
  9  6  2  0
 10  7  1  1
  7 15  2  0
 17  8  1  0
  8 18  1  0
 12  9  1  0
 13 10  1  0
 10 16  1  0
 22 11  1  0
 13 12  1  0
 12 21  1  6
 13 19  1  6
 18 14  1  0
 14 22  1  0
 15 23  1  0
 16 20  1  0
 17 19  1  0
 20 23  1  0
 23 24  1  1
 25 26  1  0
 25 27  2  0
 26 28  1  0
 26 29  1  1
 28 30  1  0
M  END
$$$$
