
     RDKit          3D

 30 31  0  0  0  0  0  0  0  0999 V2000
    8.8010   29.4041    4.8149 O   0  0  0  0  0  0  0  0  0  0  0  0
   10.5452   30.6534    5.3761 O   0  0  0  0  0  0  0  0  0  0  0  0
    8.2257   29.3418    2.6297 O   0  0  0  0  0  0  0  0  0  0  0  0
    9.4763   32.0323    7.6463 O   0  0  0  0  0  0  0  0  0  0  0  0
    8.1378   38.7587    9.2540 O   0  0  0  0  0  0  0  0  0  0  0  0
    7.8834   35.0129   11.0950 C   0  0  0  0  0  0  0  0  0  0  0  0
    8.8766   36.0801   11.0025 C   0  0  0  0  0  0  0  0  0  0  0  0
    9.3369   32.9398    6.6401 C   0  0  2  0  0  0  0  0  0  0  0  0
    6.8744   34.9229   10.2039 C   0  0  0  0  0  0  0  0  0  0  0  0
    9.2670   36.6345    9.6908 C   0  0  1  0  0  0  0  0  0  0  0  0
    8.8679   29.9118    3.5369 C   0  0  0  0  0  0  0  0  0  0  0  0
    6.9318   36.0172    9.1777 C   0  0  1  0  0  0  0  0  0  0  0  0
    8.3204   36.0881    8.5994 C   0  0  2  0  0  0  0  0  0  0  0  0
   10.1469   31.7331    4.5682 C   0  0  2  0  0  0  0  0  0  0  0  0
    9.4610   36.5742   12.0974 C   0  0  0  0  0  0  0  0  0  0  0  0
    9.3559   38.1181    9.6363 C   0  0  2  0  0  0  0  0  0  0  0  0
    8.3858   34.1051    7.0027 C   0  0  0  0  0  0  0  0  0  0  0  0
    9.0308   32.4085    5.2861 C   0  0  0  0  0  0  0  0  0  0  0  0
    8.8415   34.7267    8.2730 C   0  0  0  0  0  0  0  0  0  0  0  0
    9.7356   38.6718   10.9837 C   0  0  0  0  0  0  0  0  0  0  0  0
    5.8927   35.7963    8.1432 C   0  0  0  0  0  0  0  0  0  0  0  0
    9.7015   31.1290    3.2522 C   0  0  0  0  0  0  0  0  0  0  0  0
   10.4508   37.6552   11.8593 C   0  0  1  0  0  0  0  0  0  0  0  0
   10.7468   38.3264   13.1759 C   0  0  0  0  0  0  0  0  0  0  0  0
    8.0859   39.6625    8.2019 C   0  0  0  0  0  0  0  0  0  0  0  0
    6.8728   40.4141    7.8190 C   0  0  2  0  0  0  0  0  0  0  0  0
    9.1411   39.8371    7.5509 O   0  0  0  0  0  0  0  0  0  0  0  0
    6.5461   40.0830    6.3812 C   0  0  0  0  0  0  0  0  0  0  0  0
    7.0761   41.9079    7.9669 C   0  0  0  0  0  0  0  0  0  0  0  0
    7.6102   40.5559    5.4301 C   0  0  0  0  0  0  0  0  0  0  0  0
 11  1  1  0
 14  2  1  1
 11  3  2  0
  8  4  1  1
 16  5  1  1
  5 25  1  0
  7  6  1  0
  9  6  2  0
 10  7  1  1
  7 15  2  0
 17  8  1  0
  8 18  1  0
 12  9  1  0
 13 10  1  0
 10 16  1  0
 22 11  1  0
 13 12  1  0
 12 21  1  6
 13 19  1  1
 18 14  1  0
 14 22  1  0
 15 23  1  0
 16 20  1  0
 17 19  1  0
 20 23  1  0
 23 24  1  1
 25 26  1  0
 25 27  2  0
 26 28  1  0
 26 29  1  6
 28 30  1  0
M  END
$$$$
