
     RDKit          3D

 30 31  0  0  0  0  0  0  0  0999 V2000
    8.3455   36.0390   18.4734 O   0  0  0  0  0  0  0  0  0  0  0  0
    8.8720   36.3558   16.5343 O   0  0  0  0  0  0  0  0  0  0  0  0
    6.1388   35.8710   18.9342 O   0  0  0  0  0  0  0  0  0  0  0  0
   10.0277   36.9684   14.1765 O   0  0  0  0  0  0  0  0  0  0  0  0
    8.5570   36.0230    7.2078 O   0  0  0  0  0  0  0  0  0  0  0  0
    9.1128   32.8004    9.8136 C   0  0  0  0  0  0  0  0  0  0  0  0
    7.9839   33.4192    9.1234 C   0  0  0  0  0  0  0  0  0  0  0  0
    9.0431   36.1793   13.6634 C   0  0  2  0  0  0  0  0  0  0  0  0
   10.2696   33.4709    9.9945 C   0  0  0  0  0  0  0  0  0  0  0  0
    7.7532   34.8750    9.2112 C   0  0  1  0  0  0  0  0  0  0  0  0
    7.0508   35.7760   18.0859 C   0  0  0  0  0  0  0  0  0  0  0  0
   10.2142   34.8539    9.4130 C   0  0  1  0  0  0  0  0  0  0  0  0
    8.9661   35.5477    9.8912 C   0  0  2  0  0  0  0  0  0  0  0  0
    8.0392   35.4408   15.8661 C   0  0  2  0  0  0  0  0  0  0  0  0
    7.1298   32.6856    8.4045 C   0  0  0  0  0  0  0  0  0  0  0  0
    7.4194   35.5378    7.9224 C   0  0  2  0  0  0  0  0  0  0  0  0
    8.6620   36.5532   12.2112 C   0  0  0  0  0  0  0  0  0  0  0  0
    7.8274   35.9850   14.4963 C   0  0  0  0  0  0  0  0  0  0  0  0
    8.7592   35.3419   11.3562 C   0  0  0  0  0  0  0  0  0  0  0  0
    6.7061   34.5786    7.0072 C   0  0  0  0  0  0  0  0  0  0  0  0
   11.4493   35.5983    9.7581 C   0  0  0  0  0  0  0  0  0  0  0  0
    6.7540   35.3830   16.6664 C   0  0  0  0  0  0  0  0  0  0  0  0
    6.0287   33.4418    7.7559 C   0  0  1  0  0  0  0  0  0  0  0  0
    5.3817   32.5500    6.7275 C   0  0  0  0  0  0  0  0  0  0  0  0
    8.6053   37.3137    6.6996 C   0  0  0  0  0  0  0  0  0  0  0  0
    8.8161   37.6310    5.2720 C   0  0  2  0  0  0  0  0  0  0  0  0
    8.4594   38.2513    7.5166 O   0  0  0  0  0  0  0  0  0  0  0  0
    9.9735   38.5970    5.1685 C   0  0  0  0  0  0  0  0  0  0  0  0
    7.5785   38.2466    4.6521 C   0  0  0  0  0  0  0  0  0  0  0  0
   11.2917   37.9447    5.4807 C   0  0  0  0  0  0  0  0  0  0  0  0
 11  1  1  0
 14  2  1  1
 11  3  2  0
  8  4  1  1
 16  5  1  6
  5 25  1  0
  7  6  1  0
  9  6  2  0
 10  7  1  6
  7 15  2  0
 17  8  1  0
  8 18  1  0
 12  9  1  0
 13 10  1  0
 10 16  1  0
 22 11  1  0
 13 12  1  0
 12 21  1  1
 13 19  1  1
 18 14  1  0
 14 22  1  0
 15 23  1  0
 16 20  1  0
 17 19  1  0
 20 23  1  0
 23 24  1  6
 25 26  1  0
 25 27  2  0
 26 28  1  0
 26 29  1  1
 28 30  1  0
M  END
$$$$
