
     RDKit          3D

 30 31  0  0  0  0  0  0  0  0999 V2000
    4.7651   43.3311   15.3686 O   0  0  0  0  0  0  0  0  0  0  0  0
    8.2065   40.6660   14.9410 O   0  0  0  0  0  0  0  0  0  0  0  0
    6.6540   42.7729   16.4780 O   0  0  0  0  0  0  0  0  0  0  0  0
    9.2859   39.2698   13.2477 O   0  0  0  0  0  0  0  0  0  0  0  0
    8.8477   34.3097    8.6511 O   0  0  0  0  0  0  0  0  0  0  0  0
   11.7665   36.1452   11.0169 C   0  0  0  0  0  0  0  0  0  0  0  0
   10.8277   35.0362   11.1671 C   0  0  0  0  0  0  0  0  0  0  0  0
    7.9973   38.8795   13.0408 C   0  0  2  0  0  0  0  0  0  0  0  0
   11.5833   37.0879   10.0691 C   0  0  0  0  0  0  0  0  0  0  0  0
    9.3953   35.2140   10.8558 C   0  0  1  0  0  0  0  0  0  0  0  0
    6.0240   42.7742   15.3994 C   0  0  0  0  0  0  0  0  0  0  0  0
   10.3500   36.8312    9.2524 C   0  0  1  0  0  0  0  0  0  0  0  0
    9.1838   36.5829   10.1722 C   0  0  2  0  0  0  0  0  0  0  0  0
    6.9098   40.7170   14.3995 C   0  0  2  0  0  0  0  0  0  0  0  0
   11.2380   33.8395   11.5961 C   0  0  0  0  0  0  0  0  0  0  0  0
    8.7823   34.1140   10.0646 C   0  0  2  0  0  0  0  0  0  0  0  0
    7.8184   38.0376   11.7551 C   0  0  0  0  0  0  0  0  0  0  0  0
    6.9480   39.9278   13.1373 C   0  0  0  0  0  0  0  0  0  0  0  0
    9.1512   37.5774   11.2864 C   0  0  0  0  0  0  0  0  0  0  0  0
    9.4730   32.8085   10.3563 C   0  0  0  0  0  0  0  0  0  0  0  0
   10.1137   37.9621    8.3229 C   0  0  0  0  0  0  0  0  0  0  0  0
    6.6170   42.1827   14.1521 C   0  0  0  0  0  0  0  0  0  0  0  0
   10.1801   32.8029   11.7023 C   0  0  1  0  0  0  0  0  0  0  0  0
   10.8455   31.4591   11.8540 C   0  0  0  0  0  0  0  0  0  0  0  0
    7.7104   34.2834    7.8559 C   0  0  0  0  0  0  0  0  0  0  0  0
    7.7006   33.8467    6.4444 C   0  0  2  0  0  0  0  0  0  0  0  0
    6.6387   34.6560    8.3855 O   0  0  0  0  0  0  0  0  0  0  0  0
    7.9226   35.0610    5.5727 C   0  0  0  0  0  0  0  0  0  0  0  0
    6.3877   33.1862    6.0774 C   0  0  0  0  0  0  0  0  0  0  0  0
    7.0540   36.2201    5.9757 C   0  0  0  0  0  0  0  0  0  0  0  0
 11  1  1  0
 14  2  1  6
 11  3  2  0
  8  4  1  6
 16  5  1  6
  5 25  1  0
  7  6  1  0
  9  6  2  0
 10  7  1  6
  7 15  2  0
 17  8  1  0
  8 18  1  0
 12  9  1  0
 13 10  1  0
 10 16  1  0
 22 11  1  0
 13 12  1  0
 12 21  1  1
 13 19  1  1
 18 14  1  0
 14 22  1  0
 15 23  1  0
 16 20  1  0
 17 19  1  0
 20 23  1  0
 23 24  1  6
 25 26  1  0
 25 27  2  0
 26 28  1  0
 26 29  1  6
 28 30  1  0
M  END
$$$$
