
     RDKit          3D

 30 31  0  0  0  0  0  0  0  0999 V2000
    8.5081   36.0277   18.4895 O   0  0  0  0  0  0  0  0  0  0  0  0
    9.2023   36.7337   15.7618 O   0  0  0  0  0  0  0  0  0  0  0  0
    8.3172   33.8031   18.1360 O   0  0  0  0  0  0  0  0  0  0  0  0
    9.8458   34.1874   13.0723 O   0  0  0  0  0  0  0  0  0  0  0  0
    8.5504   36.3666    6.8078 O   0  0  0  0  0  0  0  0  0  0  0  0
   10.2478   32.9098    8.4370 C   0  0  0  0  0  0  0  0  0  0  0  0
    8.9318   33.3110    7.9460 C   0  0  0  0  0  0  0  0  0  0  0  0
    8.5754   34.6692   12.9745 C   0  0  2  0  0  0  0  0  0  0  0  0
   11.1693   33.8306    8.7883 C   0  0  0  0  0  0  0  0  0  0  0  0
    8.2943   34.5528    8.4272 C   0  0  1  0  0  0  0  0  0  0  0  0
    8.1417   34.9606   17.7003 C   0  0  0  0  0  0  0  0  0  0  0  0
   10.6619   35.2316    8.6050 C   0  0  1  0  0  0  0  0  0  0  0  0
    9.3120   35.3641    9.2592 C   0  0  2  0  0  0  0  0  0  0  0  0
    8.6598   35.4989   15.3640 C   0  0  2  0  0  0  0  0  0  0  0  0
    8.2703   32.5632    7.0584 C   0  0  0  0  0  0  0  0  0  0  0  0
    7.6708   35.3909    7.3686 C   0  0  2  0  0  0  0  0  0  0  0  0
    8.2080   35.1224   11.5415 C   0  0  0  0  0  0  0  0  0  0  0  0
    8.1576   35.6863   13.9747 C   0  0  0  0  0  0  0  0  0  0  0  0
    9.3023   34.7349   10.6139 C   0  0  0  0  0  0  0  0  0  0  0  0
    7.1923   34.5297    6.2302 C   0  0  0  0  0  0  0  0  0  0  0  0
   11.6506   36.2017    9.1341 C   0  0  0  0  0  0  0  0  0  0  0  0
    7.5433   35.1976   16.3427 C   0  0  0  0  0  0  0  0  0  0  0  0
    6.9443   33.0880    6.6446 C   0  0  1  0  0  0  0  0  0  0  0  0
    6.4994   32.3380    5.4154 C   0  0  0  0  0  0  0  0  0  0  0  0
    8.1906   37.7033    6.7068 C   0  0  0  0  0  0  0  0  0  0  0  0
    8.1394   38.4500    5.4328 C   0  0  2  0  0  0  0  0  0  0  0  0
    7.8953   38.2937    7.7708 O   0  0  0  0  0  0  0  0  0  0  0  0
    8.8685   39.7598    5.6232 C   0  0  0  0  0  0  0  0  0  0  0  0
    6.7114   38.7167    5.0034 C   0  0  0  0  0  0  0  0  0  0  0  0
   10.3391   39.5646    5.8680 C   0  0  0  0  0  0  0  0  0  0  0  0
 11  1  1  0
 14  2  1  1
 11  3  2  0
  8  4  1  6
 16  5  1  6
  5 25  1  0
  7  6  1  0
  9  6  2  0
 10  7  1  6
  7 15  2  0
 17  8  1  0
  8 18  1  0
 12  9  1  0
 13 10  1  0
 10 16  1  0
 22 11  1  0
 13 12  1  0
 12 21  1  1
 13 19  1  1
 18 14  1  0
 14 22  1  0
 15 23  1  0
 16 20  1  0
 17 19  1  0
 20 23  1  0
 23 24  1  6
 25 26  1  0
 25 27  2  0
 26 28  1  0
 26 29  1  1
 28 30  1  0
M  END
$$$$
