
     RDKit          3D

 30 31  0  0  0  0  0  0  0  0999 V2000
    8.2716   29.5199    2.3882 O   0  0  0  0  0  0  0  0  0  0  0  0
   10.4909   30.7946    5.6955 O   0  0  0  0  0  0  0  0  0  0  0  0
   10.4141   29.4792    3.1081 O   0  0  0  0  0  0  0  0  0  0  0  0
    9.3298   32.2222    7.2151 O   0  0  0  0  0  0  0  0  0  0  0  0
    8.8450   38.2492   10.4243 O   0  0  0  0  0  0  0  0  0  0  0  0
    7.3056   34.3759   10.7600 C   0  0  0  0  0  0  0  0  0  0  0  0
    8.4493   35.1091   11.2968 C   0  0  0  0  0  0  0  0  0  0  0  0
   10.1384   33.1579    6.6438 C   0  0  2  0  0  0  0  0  0  0  0  0
    6.6569   34.8085    9.6589 C   0  0  0  0  0  0  0  0  0  0  0  0
    9.3527   35.8576   10.4002 C   0  0  1  0  0  0  0  0  0  0  0  0
    9.3086   30.0606    3.1149 C   0  0  0  0  0  0  0  0  0  0  0  0
    7.2553   36.0734    9.1148 C   0  0  1  0  0  0  0  0  0  0  0  0
    8.7456   35.9040    8.9805 C   0  0  2  0  0  0  0  0  0  0  0  0
   10.3927   31.6784    4.6063 C   0  0  2  0  0  0  0  0  0  0  0  0
    8.7111   35.1145   12.6067 C   0  0  0  0  0  0  0  0  0  0  0  0
    9.7245   37.2174   10.8740 C   0  0  2  0  0  0  0  0  0  0  0  0
    9.7640   34.6057    7.0406 C   0  0  0  0  0  0  0  0  0  0  0  0
   10.3663   33.0528    5.1787 C   0  0  0  0  0  0  0  0  0  0  0  0
    9.0880   34.5873    8.3638 C   0  0  0  0  0  0  0  0  0  0  0  0
    9.7229   37.2684   12.3787 C   0  0  0  0  0  0  0  0  0  0  0  0
    6.6033   36.4312    7.8321 C   0  0  0  0  0  0  0  0  0  0  0  0
    9.1010   31.3265    3.8971 C   0  0  0  0  0  0  0  0  0  0  0  0
    9.9031   35.8997   13.0157 C   0  0  1  0  0  0  0  0  0  0  0  0
    9.8562   36.0906   14.5100 C   0  0  0  0  0  0  0  0  0  0  0  0
    9.3237   39.4239    9.8608 C   0  0  0  0  0  0  0  0  0  0  0  0
    8.4842   40.6076    9.5830 C   0  0  2  0  0  0  0  0  0  0  0  0
   10.5430   39.4623    9.5784 O   0  0  0  0  0  0  0  0  0  0  0  0
    8.7252   41.0327    8.1531 C   0  0  0  0  0  0  0  0  0  0  0  0
    8.8122   41.7522   10.5195 C   0  0  0  0  0  0  0  0  0  0  0  0
    8.3404   39.9648    7.1671 C   0  0  0  0  0  0  0  0  0  0  0  0
 11  1  1  0
 14  2  1  1
 11  3  2  0
  8  4  1  6
 16  5  1  6
  5 25  1  0
  7  6  1  0
  9  6  2  0
 10  7  1  1
  7 15  2  0
 17  8  1  0
  8 18  1  0
 12  9  1  0
 13 10  1  0
 10 16  1  0
 22 11  1  0
 13 12  1  0
 12 21  1  6
 13 19  1  1
 18 14  1  0
 14 22  1  0
 15 23  1  0
 16 20  1  0
 17 19  1  0
 20 23  1  0
 23 24  1  1
 25 26  1  0
 25 27  2  0
 26 28  1  0
 26 29  1  1
 28 30  1  0
M  END
$$$$
