
     RDKit          3D

 30 31  0  0  0  0  0  0  0  0999 V2000
   11.9240   31.2074    6.8349 O   0  0  0  0  0  0  0  0  0  0  0  0
    9.3807   30.5963    4.0747 O   0  0  0  0  0  0  0  0  0  0  0  0
   11.6193   29.9150    5.0054 O   0  0  0  0  0  0  0  0  0  0  0  0
    6.6948   33.0424    6.2056 O   0  0  0  0  0  0  0  0  0  0  0  0
    8.6581   39.0222    8.7827 O   0  0  0  0  0  0  0  0  0  0  0  0
    5.1895   36.6909    8.6456 C   0  0  0  0  0  0  0  0  0  0  0  0
    6.3196   36.8520    9.5570 C   0  0  0  0  0  0  0  0  0  0  0  0
    8.0377   33.0767    6.4315 C   0  0  2  0  0  0  0  0  0  0  0  0
    5.2680   37.0987    7.3618 C   0  0  0  0  0  0  0  0  0  0  0  0
    7.7071   36.7864    9.0561 C   0  0  1  0  0  0  0  0  0  0  0  0
   11.1195   30.4402    6.0226 C   0  0  0  0  0  0  0  0  0  0  0  0
    6.6056   37.7022    7.0447 C   0  0  1  0  0  0  0  0  0  0  0  0
    7.6960   36.7744    7.5115 C   0  0  2  0  0  0  0  0  0  0  0  0
    8.8246   30.9444    5.3183 C   0  0  2  0  0  0  0  0  0  0  0  0
    6.1276   37.0539   10.8635 C   0  0  0  0  0  0  0  0  0  0  0  0
    8.6162   37.8393    9.5822 C   0  0  2  0  0  0  0  0  0  0  0  0
    8.5571   34.4915    6.7817 C   0  0  0  0  0  0  0  0  0  0  0  0
    8.9118   32.4275    5.4197 C   0  0  0  0  0  0  0  0  0  0  0  0
    7.4032   35.3597    7.1319 C   0  0  0  0  0  0  0  0  0  0  0  0
    8.1888   38.2611   10.9628 C   0  0  0  0  0  0  0  0  0  0  0  0
    6.6942   38.0043    5.5957 C   0  0  0  0  0  0  0  0  0  0  0  0
    9.6693   30.2464    6.3645 C   0  0  0  0  0  0  0  0  0  0  0  0
    7.3628   37.2013   11.6744 C   0  0  1  0  0  0  0  0  0  0  0  0
    6.9825   37.7589   13.0220 C   0  0  0  0  0  0  0  0  0  0  0  0
    9.6666   39.9653    8.9246 C   0  0  0  0  0  0  0  0  0  0  0  0
    9.4271   41.3871    9.2475 C   0  0  2  0  0  0  0  0  0  0  0  0
   10.8429   39.5668    8.7654 O   0  0  0  0  0  0  0  0  0  0  0  0
    9.4793   42.1789    7.9614 C   0  0  0  0  0  0  0  0  0  0  0  0
   10.4626   41.9175   10.2176 C   0  0  0  0  0  0  0  0  0  0  0  0
    8.4479   41.7223    6.9672 C   0  0  0  0  0  0  0  0  0  0  0  0
 11  1  1  0
 14  2  1  6
 11  3  2  0
  8  4  1  6
 16  5  1  6
  5 25  1  0
  7  6  1  0
  9  6  2  0
 10  7  1  1
  7 15  2  0
 17  8  1  0
  8 18  1  0
 12  9  1  0
 13 10  1  0
 10 16  1  0
 22 11  1  0
 13 12  1  0
 12 21  1  6
 13 19  1  1
 18 14  1  0
 14 22  1  0
 15 23  1  0
 16 20  1  0
 17 19  1  0
 20 23  1  0
 23 24  1  1
 25 26  1  0
 25 27  2  0
 26 28  1  0
 26 29  1  1
 28 30  1  0
M  END
$$$$
