
     RDKit          3D

 30 31  0  0  0  0  0  0  0  0999 V2000
   10.2280   31.8467    3.1028 O   0  0  0  0  0  0  0  0  0  0  0  0
    9.1072   30.4151    7.4638 O   0  0  0  0  0  0  0  0  0  0  0  0
   11.6590   31.4754    4.8130 O   0  0  0  0  0  0  0  0  0  0  0  0
    9.6024   31.6503    9.7965 O   0  0  0  0  0  0  0  0  0  0  0  0
    9.2899   36.8324   13.9458 O   0  0  0  0  0  0  0  0  0  0  0  0
    6.6561   35.4169   11.0226 C   0  0  0  0  0  0  0  0  0  0  0  0
    6.9347   35.1230   12.4261 C   0  0  0  0  0  0  0  0  0  0  0  0
   10.1730   32.6013    9.0055 C   0  0  2  0  0  0  0  0  0  0  0  0
    7.5585   36.0626   10.2550 C   0  0  0  0  0  0  0  0  0  0  0  0
    8.3143   34.8592   12.8814 C   0  0  1  0  0  0  0  0  0  0  0  0
   10.4752   31.6025    4.4351 C   0  0  0  0  0  0  0  0  0  0  0  0
    8.8033   36.4068   11.0203 C   0  0  1  0  0  0  0  0  0  0  0  0
    9.3031   35.1816   11.7392 C   0  0  2  0  0  0  0  0  0  0  0  0
    9.8956   31.3771    6.8079 C   0  0  2  0  0  0  0  0  0  0  0  0
    5.9511   35.0775   13.3289 C   0  0  0  0  0  0  0  0  0  0  0  0
    8.7026   35.5452   14.1425 C   0  0  2  0  0  0  0  0  0  0  0  0
   10.1319   34.0152    9.6324 C   0  0  0  0  0  0  0  0  0  0  0  0
    9.7496   32.6412    7.5813 C   0  0  0  0  0  0  0  0  0  0  0  0
    9.2785   33.9828   10.8484 C   0  0  0  0  0  0  0  0  0  0  0  0
    7.4988   35.7454   15.0241 C   0  0  0  0  0  0  0  0  0  0  0  0
    9.8167   36.9852   10.1053 C   0  0  0  0  0  0  0  0  0  0  0  0
    9.3336   31.4933    5.4058 C   0  0  0  0  0  0  0  0  0  0  0  0
    6.3744   34.7687   14.7183 C   0  0  1  0  0  0  0  0  0  0  0  0
    5.2323   35.0946   15.6462 C   0  0  0  0  0  0  0  0  0  0  0  0
   10.0175   37.4645   14.9445 C   0  0  0  0  0  0  0  0  0  0  0  0
    9.4368   38.4228   15.9076 C   0  0  2  0  0  0  0  0  0  0  0  0
   11.2376   37.1926   15.0166 O   0  0  0  0  0  0  0  0  0  0  0  0
    9.3460   37.7429   17.2542 C   0  0  0  0  0  0  0  0  0  0  0  0
    8.0604   38.8817   15.4720 C   0  0  0  0  0  0  0  0  0  0  0  0
   10.6863   37.6224   17.9248 C   0  0  0  0  0  0  0  0  0  0  0  0
 11  1  1  0
 14  2  1  1
 11  3  2  0
  8  4  1  1
 16  5  1  6
  5 25  1  0
  7  6  1  0
  9  6  2  0
 10  7  1  6
  7 15  2  0
 17  8  1  0
  8 18  1  0
 12  9  1  0
 13 10  1  0
 10 16  1  0
 22 11  1  0
 13 12  1  0
 12 21  1  6
 13 19  1  6
 18 14  1  0
 14 22  1  0
 15 23  1  0
 16 20  1  0
 17 19  1  0
 20 23  1  0
 23 24  1  1
 25 26  1  0
 25 27  2  0
 26 28  1  0
 26 29  1  6
 28 30  1  0
M  END
$$$$
