
     RDKit          3D

 30 31  0  0  0  0  0  0  0  0999 V2000
    9.7190   31.5012    1.8917 O   0  0  0  0  0  0  0  0  0  0  0  0
    9.8046   30.9408    6.1507 O   0  0  0  0  0  0  0  0  0  0  0  0
   11.1511   30.7863    3.4880 O   0  0  0  0  0  0  0  0  0  0  0  0
    8.8265   32.3418    8.5572 O   0  0  0  0  0  0  0  0  0  0  0  0
    8.4469   38.5389    9.3324 O   0  0  0  0  0  0  0  0  0  0  0  0
    9.0754   35.8284   12.4537 C   0  0  0  0  0  0  0  0  0  0  0  0
    9.8726   36.8238   11.7414 C   0  0  0  0  0  0  0  0  0  0  0  0
    9.9094   32.9092    7.9563 C   0  0  2  0  0  0  0  0  0  0  0  0
    7.9394   35.3349   11.9186 C   0  0  0  0  0  0  0  0  0  0  0  0
    9.9264   36.8308   10.2659 C   0  0  1  0  0  0  0  0  0  0  0  0
   10.1445   31.4678    3.2008 C   0  0  0  0  0  0  0  0  0  0  0  0
    7.6471   35.9314   10.5723 C   0  0  1  0  0  0  0  0  0  0  0  0
    8.8776   35.8431    9.7085 C   0  0  2  0  0  0  0  0  0  0  0  0
   10.1765   32.1586    5.5542 C   0  0  2  0  0  0  0  0  0  0  0  0
   10.5774   37.7448   12.4045 C   0  0  0  0  0  0  0  0  0  0  0  0
    9.7932   38.1723    9.6379 C   0  0  2  0  0  0  0  0  0  0  0  0
   10.4784   34.1126    8.7449 C   0  0  0  0  0  0  0  0  0  0  0  0
    9.7901   33.2326    6.5105 C   0  0  0  0  0  0  0  0  0  0  0  0
    9.5145   34.4957    9.8089 C   0  0  0  0  0  0  0  0  0  0  0  0
   10.3383   39.2371   10.5521 C   0  0  0  0  0  0  0  0  0  0  0  0
    6.4733   35.2594    9.9645 C   0  0  0  0  0  0  0  0  0  0  0  0
    9.4030   32.2411    4.2541 C   0  0  0  0  0  0  0  0  0  0  0  0
   11.3420   38.6947   11.5572 C   0  0  1  0  0  0  0  0  0  0  0  0
   11.7833   39.8501   12.4185 C   0  0  0  0  0  0  0  0  0  0  0  0
    8.1198   39.2129    8.1639 C   0  0  0  0  0  0  0  0  0  0  0  0
    7.5192   40.5624    8.1303 C   0  0  2  0  0  0  0  0  0  0  0  0
    8.3559   38.6245    7.0841 O   0  0  0  0  0  0  0  0  0  0  0  0
    6.0282   40.4211    8.3314 C   0  0  0  0  0  0  0  0  0  0  0  0
    7.7944   41.2593    6.8138 C   0  0  0  0  0  0  0  0  0  0  0  0
    5.5218   39.0672    7.9178 C   0  0  0  0  0  0  0  0  0  0  0  0
 11  1  1  0
 14  2  1  1
 11  3  2  0
  8  4  1  1
 16  5  1  1
  5 25  1  0
  7  6  1  0
  9  6  2  0
 10  7  1  1
  7 15  2  0
 17  8  1  0
  8 18  1  0
 12  9  1  0
 13 10  1  0
 10 16  1  0
 22 11  1  0
 13 12  1  0
 12 21  1  6
 13 19  1  1
 18 14  1  0
 14 22  1  0
 15 23  1  0
 16 20  1  0
 17 19  1  0
 20 23  1  0
 23 24  1  1
 25 26  1  0
 25 27  2  0
 26 28  1  0
 26 29  1  6
 28 30  1  0
M  END
$$$$
