
     RDKit          3D

 30 31  0  0  0  0  0  0  0  0999 V2000
    7.5653   38.5394   18.6152 O   0  0  0  0  0  0  0  0  0  0  0  0
    8.4007   39.7874   15.6666 O   0  0  0  0  0  0  0  0  0  0  0  0
    5.3410   38.3749   18.2475 O   0  0  0  0  0  0  0  0  0  0  0  0
    7.5547   39.0361   13.1400 O   0  0  0  0  0  0  0  0  0  0  0  0
    8.7858   34.4166    8.3049 O   0  0  0  0  0  0  0  0  0  0  0  0
   10.9562   36.1266   11.4434 C   0  0  0  0  0  0  0  0  0  0  0  0
   10.1561   34.9206   11.2453 C   0  0  0  0  0  0  0  0  0  0  0  0
    8.6738   38.3566   13.5160 C   0  0  2  0  0  0  0  0  0  0  0  0
   10.8320   37.1868   10.6181 C   0  0  0  0  0  0  0  0  0  0  0  0
    8.7953   35.0038   10.6783 C   0  0  1  0  0  0  0  0  0  0  0  0
    6.4921   38.4039   17.7635 C   0  0  0  0  0  0  0  0  0  0  0  0
    9.8145   36.9443    9.5412 C   0  0  1  0  0  0  0  0  0  0  0  0
    8.5400   36.4372   10.1625 C   0  0  2  0  0  0  0  0  0  0  0  0
    8.1970   38.4366   16.0002 C   0  0  2  0  0  0  0  0  0  0  0  0
   10.6301   33.7169   11.5785 C   0  0  0  0  0  0  0  0  0  0  0  0
    8.4856   33.9904    9.6348 C   0  0  2  0  0  0  0  0  0  0  0  0
    9.2277   37.4377   12.4013 C   0  0  0  0  0  0  0  0  0  0  0  0
    8.6264   37.6402   14.8175 C   0  0  0  0  0  0  0  0  0  0  0  0
    8.1743   37.2312   11.3738 C   0  0  0  0  0  0  0  0  0  0  0  0
    9.2721   32.7297    9.8766 C   0  0  0  0  0  0  0  0  0  0  0  0
    9.6111   38.1811    8.7489 C   0  0  0  0  0  0  0  0  0  0  0  0
    6.7152   38.2940   16.2817 C   0  0  0  0  0  0  0  0  0  0  0  0
    9.7128   32.5774   11.3238 C   0  0  1  0  0  0  0  0  0  0  0  0
   10.5055   31.2991   11.4193 C   0  0  0  0  0  0  0  0  0  0  0  0
    7.8249   34.4185    7.3033 C   0  0  0  0  0  0  0  0  0  0  0  0
    8.1076   34.1010    5.8882 C   0  0  2  0  0  0  0  0  0  0  0  0
    6.6545   34.7093    7.6400 O   0  0  0  0  0  0  0  0  0  0  0  0
    8.3947   35.3947    5.1620 C   0  0  0  0  0  0  0  0  0  0  0  0
    6.9378   33.3953    5.2338 C   0  0  0  0  0  0  0  0  0  0  0  0
    7.6202   36.5521    5.7289 C   0  0  0  0  0  0  0  0  0  0  0  0
 11  1  1  0
 14  2  1  6
 11  3  2  0
  8  4  1  6
 16  5  1  6
  5 25  1  0
  7  6  1  0
  9  6  2  0
 10  7  1  6
  7 15  2  0
 17  8  1  0
  8 18  1  0
 12  9  1  0
 13 10  1  0
 10 16  1  0
 22 11  1  0
 13 12  1  0
 12 21  1  1
 13 19  1  1
 18 14  1  0
 14 22  1  0
 15 23  1  0
 16 20  1  0
 17 19  1  0
 20 23  1  0
 23 24  1  6
 25 26  1  0
 25 27  2  0
 26 28  1  0
 26 29  1  6
 28 30  1  0
M  END
$$$$
