
     RDKit          3D

 30 31  0  0  0  0  0  0  0  0999 V2000
    6.2552   39.6338   18.1140 O   0  0  0  0  0  0  0  0  0  0  0  0
    8.8758   39.7461   15.4209 O   0  0  0  0  0  0  0  0  0  0  0  0
    7.5932   40.5719   16.5520 O   0  0  0  0  0  0  0  0  0  0  0  0
   10.2478   37.3238   13.2032 O   0  0  0  0  0  0  0  0  0  0  0  0
    8.9790   35.6715    7.4867 O   0  0  0  0  0  0  0  0  0  0  0  0
    8.4751   32.6336   10.3155 C   0  0  0  0  0  0  0  0  0  0  0  0
    7.6037   33.5336    9.5642 C   0  0  0  0  0  0  0  0  0  0  0  0
    8.9767   36.9287   13.4925 C   0  0  2  0  0  0  0  0  0  0  0  0
    9.7873   32.9057   10.4716 C   0  0  0  0  0  0  0  0  0  0  0  0
    7.8564   34.9883    9.5486 C   0  0  1  0  0  0  0  0  0  0  0  0
    7.1934   39.5292   17.1118 C   0  0  0  0  0  0  0  0  0  0  0  0
   10.1793   34.1881    9.7965 C   0  0  1  0  0  0  0  0  0  0  0  0
    9.2248   35.2794   10.2034 C   0  0  2  0  0  0  0  0  0  0  0  0
    8.6906   38.3592   15.5605 C   0  0  2  0  0  0  0  0  0  0  0  0
    6.5550   33.0664    8.8813 C   0  0  0  0  0  0  0  0  0  0  0  0
    7.7489   35.6311    8.2117 C   0  0  2  0  0  0  0  0  0  0  0  0
    8.2130   36.3934   12.2579 C   0  0  0  0  0  0  0  0  0  0  0  0
    8.1327   37.8755   14.2674 C   0  0  0  0  0  0  0  0  0  0  0  0
    8.9692   35.2550   11.6749 C   0  0  0  0  0  0  0  0  0  0  0  0
    6.7596   34.8916    7.3510 C   0  0  0  0  0  0  0  0  0  0  0  0
   11.5904   34.5162   10.1128 C   0  0  0  0  0  0  0  0  0  0  0  0
    7.7183   38.1804   16.7085 C   0  0  0  0  0  0  0  0  0  0  0  0
    5.7545   34.0900    8.1627 C   0  0  1  0  0  0  0  0  0  0  0  0
    4.8491   33.3848    7.1856 C   0  0  0  0  0  0  0  0  0  0  0  0
    9.1398   36.4710    6.3636 C   0  0  0  0  0  0  0  0  0  0  0  0
    9.8523   36.0435    5.1418 C   0  0  2  0  0  0  0  0  0  0  0  0
    8.6439   37.6198    6.4088 O   0  0  0  0  0  0  0  0  0  0  0  0
   11.3267   36.3114    5.3365 C   0  0  0  0  0  0  0  0  0  0  0  0
    9.3538   36.7876    3.9201 C   0  0  0  0  0  0  0  0  0  0  0  0
   11.5902   37.2537    6.4781 C   0  0  0  0  0  0  0  0  0  0  0  0
 11  1  1  0
 14  2  1  6
 11  3  2  0
  8  4  1  6
 16  5  1  6
  5 25  1  0
  7  6  1  0
  9  6  2  0
 10  7  1  6
  7 15  2  0
 17  8  1  0
  8 18  1  0
 12  9  1  0
 13 10  1  0
 10 16  1  0
 22 11  1  0
 13 12  1  0
 12 21  1  1
 13 19  1  1
 18 14  1  0
 14 22  1  0
 15 23  1  0
 16 20  1  0
 17 19  1  0
 20 23  1  0
 23 24  1  6
 25 26  1  0
 25 27  2  0
 26 28  1  0
 26 29  1  6
 28 30  1  0
M  END
$$$$
