
     RDKit          3D

 30 31  0  0  0  0  0  0  0  0999 V2000
    8.1183   33.4872    4.7411 O   0  0  0  0  0  0  0  0  0  0  0  0
   11.1681   31.1017    7.4970 O   0  0  0  0  0  0  0  0  0  0  0  0
   10.2754   34.1435    4.9033 O   0  0  0  0  0  0  0  0  0  0  0  0
    9.1876   31.4040   10.0000 O   0  0  0  0  0  0  0  0  0  0  0  0
    8.6650   37.4435   12.9353 O   0  0  0  0  0  0  0  0  0  0  0  0
    7.1688   33.5938   13.5883 C   0  0  0  0  0  0  0  0  0  0  0  0
    8.1886   34.4481   14.1917 C   0  0  0  0  0  0  0  0  0  0  0  0
   10.0923   32.3013    9.5185 C   0  0  2  0  0  0  0  0  0  0  0  0
    6.7101   33.8326   12.3421 C   0  0  0  0  0  0  0  0  0  0  0  0
    9.2172   35.0991   13.3559 C   0  0  1  0  0  0  0  0  0  0  0  0
    9.4180   33.2659    5.1379 C   0  0  0  0  0  0  0  0  0  0  0  0
    7.3674   35.0312   11.7215 C   0  0  1  0  0  0  0  0  0  0  0  0
    8.8617   34.9120   11.8644 C   0  0  2  0  0  0  0  0  0  0  0  0
   10.6361   32.3230    7.0469 C   0  0  2  0  0  0  0  0  0  0  0  0
    8.2217   34.6548   15.5110 C   0  0  0  0  0  0  0  0  0  0  0  0
    9.4749   36.5286   13.6752 C   0  0  2  0  0  0  0  0  0  0  0  0
   10.4366   33.4180   10.5325 C   0  0  0  0  0  0  0  0  0  0  0  0
    9.8293   32.8722    8.1715 C   0  0  0  0  0  0  0  0  0  0  0  0
    9.3311   33.5368   11.5183 C   0  0  0  0  0  0  0  0  0  0  0  0
    9.2143   36.7967   15.1336 C   0  0  0  0  0  0  0  0  0  0  0  0
    6.9380   35.1698   10.3090 C   0  0  0  0  0  0  0  0  0  0  0  0
    9.7849   31.9886    5.8389 C   0  0  0  0  0  0  0  0  0  0  0  0
    9.3100   35.5442   15.9901 C   0  0  1  0  0  0  0  0  0  0  0  0
    9.0037   35.9470   17.4098 C   0  0  0  0  0  0  0  0  0  0  0  0
    9.1327   38.6952   12.5596 C   0  0  0  0  0  0  0  0  0  0  0  0
    8.3035   39.7192   11.8910 C   0  0  2  0  0  0  0  0  0  0  0  0
   10.3320   38.9522   12.8114 O   0  0  0  0  0  0  0  0  0  0  0  0
    8.9817   40.1050   10.5969 C   0  0  0  0  0  0  0  0  0  0  0  0
    8.1275   40.9458   12.7623 C   0  0  0  0  0  0  0  0  0  0  0  0
    8.7056   39.1230    9.4923 C   0  0  0  0  0  0  0  0  0  0  0  0
 11  1  1  0
 14  2  1  1
 11  3  2  0
  8  4  1  1
 16  5  1  6
  5 25  1  0
  7  6  1  0
  9  6  2  0
 10  7  1  1
  7 15  2  0
 17  8  1  0
  8 18  1  0
 12  9  1  0
 13 10  1  0
 10 16  1  0
 22 11  1  0
 13 12  1  0
 12 21  1  6
 13 19  1  1
 18 14  1  0
 14 22  1  0
 15 23  1  0
 16 20  1  0
 17 19  1  0
 20 23  1  0
 23 24  1  1
 25 26  1  0
 25 27  2  0
 26 28  1  0
 26 29  1  1
 28 30  1  0
M  END
$$$$
