
     RDKit          3D

 30 31  0  0  0  0  0  0  0  0999 V2000
    6.9508   43.5534    2.8847 O   0  0  0  0  0  0  0  0  0  0  0  0
    8.6213   41.3974    3.6860 O   0  0  0  0  0  0  0  0  0  0  0  0
    6.0949   42.9188    0.8910 O   0  0  0  0  0  0  0  0  0  0  0  0
    9.1893   39.1913    5.6708 O   0  0  0  0  0  0  0  0  0  0  0  0
    8.8870   35.4165   10.2824 O   0  0  0  0  0  0  0  0  0  0  0  0
    7.0713   34.2481    6.7015 C   0  0  0  0  0  0  0  0  0  0  0  0
    8.4216   34.2266    7.2583 C   0  0  0  0  0  0  0  0  0  0  0  0
    7.8466   39.4172    5.6293 C   0  0  2  0  0  0  0  0  0  0  0  0
    6.1228   35.0625    7.2090 C   0  0  0  0  0  0  0  0  0  0  0  0
    9.0160   35.4461    7.8410 C   0  0  1  0  0  0  0  0  0  0  0  0
    6.5680   42.5750    1.9947 C   0  0  0  0  0  0  0  0  0  0  0  0
    6.6405   35.8818    8.3555 C   0  0  1  0  0  0  0  0  0  0  0  0
    7.9333   36.5419    7.9548 C   0  0  2  0  0  0  0  0  0  0  0  0
    7.2664   41.0301    3.7674 C   0  0  2  0  0  0  0  0  0  0  0  0
    9.1537   33.1092    7.2472 C   0  0  0  0  0  0  0  0  0  0  0  0
    9.7208   35.2458    9.1352 C   0  0  2  0  0  0  0  0  0  0  0  0
    7.0328   38.3824    6.4422 C   0  0  0  0  0  0  0  0  0  0  0  0
    7.2375   39.6366    4.2914 C   0  0  0  0  0  0  0  0  0  0  0  0
    7.8356   37.1407    6.5898 C   0  0  0  0  0  0  0  0  0  0  0  0
   10.2907   33.8546    9.2136 C   0  0  0  0  0  0  0  0  0  0  0  0
    5.6105   36.8576    8.7864 C   0  0  0  0  0  0  0  0  0  0  0  0
    6.7218   41.1250    2.3568 C   0  0  0  0  0  0  0  0  0  0  0  0
   10.5075   33.2277    7.8455 C   0  0  1  0  0  0  0  0  0  0  0  0
   11.0511   31.8399    8.0689 C   0  0  0  0  0  0  0  0  0  0  0  0
    9.2116   36.3071   11.2963 C   0  0  0  0  0  0  0  0  0  0  0  0
    9.5710   35.8983   12.6699 C   0  0  2  0  0  0  0  0  0  0  0  0
    9.1927   37.5257   11.0090 O   0  0  0  0  0  0  0  0  0  0  0  0
    8.4671   36.3452   13.6000 C   0  0  0  0  0  0  0  0  0  0  0  0
   10.8863   36.5112   13.1047 C   0  0  0  0  0  0  0  0  0  0  0  0
    7.3897   35.3071   13.7482 C   0  0  0  0  0  0  0  0  0  0  0  0
 11  1  1  0
 14  2  1  6
 11  3  2  0
  8  4  1  6
 16  5  1  1
  5 25  1  0
  7  6  1  0
  9  6  2  0
 10  7  1  1
  7 15  2  0
 17  8  1  0
  8 18  1  0
 12  9  1  0
 13 10  1  0
 10 16  1  0
 22 11  1  0
 13 12  1  0
 12 21  1  6
 13 19  1  6
 18 14  1  0
 14 22  1  0
 15 23  1  0
 16 20  1  0
 17 19  1  0
 20 23  1  0
 23 24  1  1
 25 26  1  0
 25 27  2  0
 26 28  1  0
 26 29  1  1
 28 30  1  0
M  END
$$$$
