
     RDKit          3D

 31 32  0  0  0  0  0  0  0  0999 V2000
  -10.3937   33.1362   -3.9828 O   0  0  0  0  0  0  0  0  0  0  0  0
  -10.5151   31.1093   -4.9808 O   0  0  0  0  0  0  0  0  0  0  0  0
  -11.5090   32.8567   -7.4081 O   0  0  0  0  0  0  0  0  0  0  0  0
   -9.5410   32.6507   -9.9488 O   0  0  0  0  0  0  0  0  0  0  0  0
   -8.4793   37.9575  -13.2064 O   0  0  0  0  0  0  0  0  0  0  0  0
  -10.4052   39.0850  -13.0808 O   0  0  0  0  0  0  0  0  0  0  0  0
  -10.1576   32.4370   -5.0009 C   0  0  0  0  0  0  0  0  0  0  0  0
   -9.5008   33.1160   -6.1575 C   0  0  0  0  0  0  0  0  0  0  0  0
  -10.5219   33.7991   -7.0399 C   0  0  1  0  0  0  0  0  0  0  0  0
   -9.8224   34.3105   -8.2770 C   0  0  0  0  0  0  0  0  0  0  0  0
  -10.3971   33.6567   -9.5003 C   0  0  1  0  0  0  0  0  0  0  0  0
  -10.5346   34.7153  -10.6342 C   0  0  0  0  0  0  0  0  0  0  0  0
   -9.4537   34.3901  -11.6000 C   0  0  0  0  0  0  0  0  0  0  0  0
   -8.6955   35.5643  -12.1595 C   0  0  1  0  0  0  0  0  0  0  0  0
   -7.2135   35.2519  -12.0751 C   0  0  2  0  0  0  0  0  0  0  0  0
   -6.9853   33.8532  -12.5693 C   0  0  0  0  0  0  0  0  0  0  0  0
   -7.4818   33.6362  -13.7726 C   0  0  0  0  0  0  0  0  0  0  0  0
   -8.1626   34.7354  -14.4441 C   0  0  0  0  0  0  0  0  0  0  0  0
   -8.0557   34.9043  -15.7616 C   0  0  0  0  0  0  0  0  0  0  0  0
   -8.7728   36.0521  -16.4026 C   0  0  1  0  0  0  0  0  0  0  0  0
   -8.4763   37.2904  -15.5329 C   0  0  0  0  0  0  0  0  0  0  0  0
   -9.0111   37.0484  -14.1571 C   0  0  1  0  0  0  0  0  0  0  0  0
   -9.0068   35.6535  -13.6568 C   0  0  2  0  0  0  0  0  0  0  0  0
   -6.5833   35.5413  -10.7674 C   0  0  0  0  0  0  0  0  0  0  0  0
   -9.1908   39.0368  -12.7433 C   0  0  0  0  0  0  0  0  0  0  0  0
   -8.5751   40.0996  -11.8890 C   0  0  1  0  0  0  0  0  0  0  0  0
   -9.2750   40.1526  -10.5720 C   0  0  0  0  0  0  0  0  0  0  0  0
  -10.3523   39.0676  -10.4857 C   0  0  0  0  0  0  0  0  0  0  0  0
   -7.1081   39.7593  -11.6294 C   0  0  0  0  0  0  0  0  0  0  0  0
   -8.6111   41.4511  -12.5595 C   0  0  0  0  0  0  0  0  0  0  0  0
   -8.1022   36.2930  -17.7368 C   0  0  0  0  0  0  0  0  0  0  0  0
  7  1  2  0
  7  2  1  0
  9  3  1  6
 11  4  1  6
 22  5  1  1
  5 25  1  0
 25  6  2  0
  8  7  1  0
  9  8  1  0
 10  9  1  0
 11 10  1  0
 12 11  1  0
 13 12  1  0
 14 13  1  6
 14 15  1  0
 23 14  1  0
 16 15  1  0
 15 24  1  1
 17 16  2  0
 18 17  1  0
 19 18  2  0
 23 18  1  6
 20 19  1  0
 21 20  1  0
 20 31  1  6
 21 22  1  0
 22 23  1  0
 25 26  1  0
 26 27  1  0
 26 29  1  1
 26 30  1  0
 27 28  1  0
M  END
$$$$
