
     RDKit          3D

 31 32  0  0  0  0  0  0  0  0999 V2000
   -8.4210   30.4854   -4.1405 O   0  0  0  0  0  0  0  0  0  0  0  0
  -10.0308   30.8354   -2.5896 O   0  0  0  0  0  0  0  0  0  0  0  0
  -10.9865   31.3247   -5.4851 O   0  0  0  0  0  0  0  0  0  0  0  0
  -10.5635   33.6011   -8.7867 O   0  0  0  0  0  0  0  0  0  0  0  0
   -8.2162   39.2871   -9.4162 O   0  0  0  0  0  0  0  0  0  0  0  0
   -9.9686   40.2583   -8.4253 O   0  0  0  0  0  0  0  0  0  0  0  0
   -9.2745   31.2695   -3.6529 C   0  0  0  0  0  0  0  0  0  0  0  0
   -9.3959   32.6201   -4.2784 C   0  0  0  0  0  0  0  0  0  0  0  0
  -10.3989   32.6082   -5.4106 C   0  0  1  0  0  0  0  0  0  0  0  0
   -9.6718   32.9089   -6.6997 C   0  0  0  0  0  0  0  0  0  0  0  0
  -10.3918   33.9870   -7.4571 C   0  0  1  0  0  0  0  0  0  0  0  0
   -9.5373   35.2888   -7.4383 C   0  0  0  0  0  0  0  0  0  0  0  0
   -8.9228   35.3676   -8.7886 C   0  0  0  0  0  0  0  0  0  0  0  0
   -8.2780   36.6811   -9.1428 C   0  0  1  0  0  0  0  0  0  0  0  0
   -6.8483   36.4047   -9.5679 C   0  0  2  0  0  0  0  0  0  0  0  0
   -6.8415   35.2385  -10.5126 C   0  0  0  0  0  0  0  0  0  0  0  0
   -7.6554   35.3930  -11.5399 C   0  0  0  0  0  0  0  0  0  0  0  0
   -8.4283   36.6250  -11.6257 C   0  0  0  0  0  0  0  0  0  0  0  0
   -8.6710   37.2005  -12.8028 C   0  0  0  0  0  0  0  0  0  0  0  0
   -9.4678   38.4680  -12.8359 C   0  0  1  0  0  0  0  0  0  0  0  0
   -8.8781   39.3811  -11.7423 C   0  0  0  0  0  0  0  0  0  0  0  0
   -9.0352   38.7045  -10.4175 C   0  0  1  0  0  0  0  0  0  0  0  0
   -8.9756   37.2239  -10.3939 C   0  0  2  0  0  0  0  0  0  0  0  0
   -5.8737   36.2906   -8.4597 C   0  0  0  0  0  0  0  0  0  0  0  0
   -8.7128   40.1499   -8.4703 C   0  0  0  0  0  0  0  0  0  0  0  0
   -7.8288   40.9220   -7.5426 C   0  0  1  0  0  0  0  0  0  0  0  0
   -7.2405   40.0002   -6.5270 C   0  0  0  0  0  0  0  0  0  0  0  0
   -8.3380   39.3754   -5.6608 C   0  0  0  0  0  0  0  0  0  0  0  0
   -6.6798   41.5460   -8.3339 C   0  0  0  0  0  0  0  0  0  0  0  0
   -8.5712   42.0477   -6.8650 C   0  0  0  0  0  0  0  0  0  0  0  0
   -9.1690   39.1348  -14.1603 C   0  0  0  0  0  0  0  0  0  0  0  0
  7  1  2  0
  7  2  1  0
  9  3  1  6
 11  4  1  6
 22  5  1  1
  5 25  1  0
 25  6  2  0
  8  7  1  0
  9  8  1  0
 10  9  1  0
 11 10  1  0
 12 11  1  0
 13 12  1  0
 14 13  1  6
 14 15  1  0
 23 14  1  0
 16 15  1  0
 15 24  1  1
 17 16  2  0
 18 17  1  0
 19 18  2  0
 23 18  1  6
 20 19  1  0
 21 20  1  0
 20 31  1  6
 21 22  1  0
 22 23  1  0
 25 26  1  0
 26 27  1  0
 26 29  1  6
 26 30  1  0
 27 28  1  0
M  END
$$$$
