
     RDKit          3D

 31 32  0  0  0  0  0  0  0  0999 V2000
  -11.0311   30.5974   -3.8123 O   0  0  0  0  0  0  0  0  0  0  0  0
   -9.8388   30.9952   -1.9309 O   0  0  0  0  0  0  0  0  0  0  0  0
  -10.6893   31.9109   -6.0331 O   0  0  0  0  0  0  0  0  0  0  0  0
  -10.4927   32.8943   -7.6886 O   0  0  0  0  0  0  0  0  0  0  0  0
   -8.1082   38.9410   -9.4016 O   0  0  0  0  0  0  0  0  0  0  0  0
   -8.5903   38.9991   -7.2198 O   0  0  0  0  0  0  0  0  0  0  0  0
  -10.0772   31.2099   -3.2681 C   0  0  0  0  0  0  0  0  0  0  0  0
   -9.2764   32.1292   -4.1304 C   0  0  0  0  0  0  0  0  0  0  0  0
  -10.1595   32.8532   -5.1224 C   0  0  1  0  0  0  0  0  0  0  0  0
   -9.3181   33.8617   -5.8681 C   0  0  0  0  0  0  0  0  0  0  0  0
   -9.8602   34.0594   -7.2542 C   0  0  1  0  0  0  0  0  0  0  0  0
   -8.6844   34.3631   -8.2291 C   0  0  0  0  0  0  0  0  0  0  0  0
   -9.3034   35.0905   -9.3669 C   0  0  0  0  0  0  0  0  0  0  0  0
   -8.6621   36.4012   -9.7374 C   0  0  1  0  0  0  0  0  0  0  0  0
   -7.8437   36.1862  -10.9965 C   0  0  2  0  0  0  0  0  0  0  0  0
   -8.6633   35.3998  -11.9776 C   0  0  0  0  0  0  0  0  0  0  0  0
   -9.8422   35.9389  -12.2247 C   0  0  0  0  0  0  0  0  0  0  0  0
  -10.1882   37.1786  -11.5421 C   0  0  0  0  0  0  0  0  0  0  0  0
  -10.8947   38.1256  -12.1585 C   0  0  0  0  0  0  0  0  0  0  0  0
  -11.2210   39.3829  -11.4134 C   0  0  1  0  0  0  0  0  0  0  0  0
   -9.9116   39.8420  -10.7408 C   0  0  0  0  0  0  0  0  0  0  0  0
   -9.4629   38.7778   -9.7902 C   0  0  1  0  0  0  0  0  0  0  0  0
   -9.7769   37.3721  -10.1390 C   0  0  2  0  0  0  0  0  0  0  0  0
   -6.4825   35.6477  -10.7774 C   0  0  0  0  0  0  0  0  0  0  0  0
   -7.7457   39.2663   -8.1177 C   0  0  0  0  0  0  0  0  0  0  0  0
   -6.4311   39.9005   -7.7892 C   0  0  1  0  0  0  0  0  0  0  0  0
   -6.5789   40.7643   -6.5812 C   0  0  0  0  0  0  0  0  0  0  0  0
   -6.6298   39.9139   -5.3087 C   0  0  0  0  0  0  0  0  0  0  0  0
   -5.4061   38.8134   -7.4683 C   0  0  0  0  0  0  0  0  0  0  0  0
   -5.8884   40.7022   -8.9469 C   0  0  0  0  0  0  0  0  0  0  0  0
  -11.5602   40.4283  -12.4526 C   0  0  0  0  0  0  0  0  0  0  0  0
  7  1  2  0
  7  2  1  0
  9  3  1  6
 11  4  1  6
 22  5  1  6
  5 25  1  0
 25  6  2  0
  8  7  1  0
  9  8  1  0
 10  9  1  0
 11 10  1  0
 12 11  1  0
 13 12  1  0
 14 13  1  6
 14 15  1  0
 23 14  1  0
 16 15  1  0
 15 24  1  1
 17 16  2  0
 18 17  1  0
 19 18  2  0
 23 18  1  6
 20 19  1  0
 21 20  1  0
 20 31  1  6
 21 22  1  0
 22 23  1  0
 25 26  1  0
 26 27  1  0
 26 29  1  1
 26 30  1  0
 27 28  1  0
M  END
$$$$
