
     RDKit          3D

 31 32  0  0  0  0  0  0  0  0999 V2000
  -11.7631   30.8392   -4.9895 O   0  0  0  0  0  0  0  0  0  0  0  0
  -10.2932   31.1185   -3.2923 O   0  0  0  0  0  0  0  0  0  0  0  0
   -9.6229   34.2395   -4.0621 O   0  0  0  0  0  0  0  0  0  0  0  0
   -9.2994   34.7311   -7.5124 O   0  0  0  0  0  0  0  0  0  0  0  0
   -8.8343   39.5931   -9.4771 O   0  0  0  0  0  0  0  0  0  0  0  0
  -10.9531   40.2958   -9.3626 O   0  0  0  0  0  0  0  0  0  0  0  0
  -10.7293   31.4137   -4.5626 C   0  0  0  0  0  0  0  0  0  0  0  0
  -10.0566   32.3794   -5.4819 C   0  0  0  0  0  0  0  0  0  0  0  0
   -8.9976   33.1773   -4.7541 C   0  0  1  0  0  0  0  0  0  0  0  0
   -8.0313   33.7345   -5.7723 C   0  0  0  0  0  0  0  0  0  0  0  0
   -8.5739   35.0081   -6.3535 C   0  0  1  0  0  0  0  0  0  0  0  0
   -7.3906   35.9453   -6.7365 C   0  0  0  0  0  0  0  0  0  0  0  0
   -7.4285   36.0298   -8.2191 C   0  0  0  0  0  0  0  0  0  0  0  0
   -7.5444   37.4153   -8.7968 C   0  0  1  0  0  0  0  0  0  0  0  0
   -6.1597   37.8658   -9.2221 C   0  0  2  0  0  0  0  0  0  0  0  0
   -5.4964   36.7476   -9.9721 C   0  0  0  0  0  0  0  0  0  0  0  0
   -6.2158   36.2966  -10.9822 C   0  0  0  0  0  0  0  0  0  0  0  0
   -7.5115   36.9137  -11.2335 C   0  0  0  0  0  0  0  0  0  0  0  0
   -7.9555   37.0917  -12.4773 C   0  0  0  0  0  0  0  0  0  0  0  0
   -9.2927   37.7341  -12.6812 C   0  0  1  0  0  0  0  0  0  0  0  0
   -9.3238   38.9740  -11.7651 C   0  0  0  0  0  0  0  0  0  0  0  0
   -9.1756   38.5248  -10.3461 C   0  0  1  0  0  0  0  0  0  0  0  0
   -8.3550   37.3170  -10.0928 C   0  0  2  0  0  0  0  0  0  0  0  0
   -5.3286   38.4469   -8.1439 C   0  0  0  0  0  0  0  0  0  0  0  0
   -9.7480   40.5379   -9.0794 C   0  0  0  0  0  0  0  0  0  0  0  0
   -9.3519   41.7845   -8.3533 C   0  0  1  0  0  0  0  0  0  0  0  0
   -7.8755   41.9767   -8.4551 C   0  0  0  0  0  0  0  0  0  0  0  0
   -7.4913   42.5079   -9.8391 C   0  0  0  0  0  0  0  0  0  0  0  0
  -10.0296   42.9905   -9.0028 C   0  0  0  0  0  0  0  0  0  0  0  0
   -9.7807   41.7533   -6.9067 C   0  0  0  0  0  0  0  0  0  0  0  0
   -9.3151   38.2493  -14.1032 C   0  0  0  0  0  0  0  0  0  0  0  0
  7  1  2  0
  7  2  1  0
  9  3  1  6
 11  4  1  6
 22  5  1  1
  5 25  1  0
 25  6  2  0
  8  7  1  0
  9  8  1  0
 10  9  1  0
 11 10  1  0
 12 11  1  0
 13 12  1  0
 14 13  1  6
 14 15  1  0
 23 14  1  0
 16 15  1  0
 15 24  1  1
 17 16  2  0
 18 17  1  0
 19 18  2  0
 23 18  1  6
 20 19  1  0
 21 20  1  0
 20 31  1  6
 21 22  1  0
 22 23  1  0
 25 26  1  0
 26 27  1  0
 26 29  1  6
 26 30  1  0
 27 28  1  0
M  END
$$$$
