
     RDKit          3D

 31 32  0  0  0  0  0  0  0  0999 V2000
  -10.7336   31.4280   -3.2904 O   0  0  0  0  0  0  0  0  0  0  0  0
   -8.8983   30.4781   -2.3693 O   0  0  0  0  0  0  0  0  0  0  0  0
  -10.8265   31.9078   -5.7158 O   0  0  0  0  0  0  0  0  0  0  0  0
  -10.9998   33.1385   -7.8088 O   0  0  0  0  0  0  0  0  0  0  0  0
   -7.4751   38.6655   -7.7416 O   0  0  0  0  0  0  0  0  0  0  0  0
   -7.1542   37.6945   -5.7541 O   0  0  0  0  0  0  0  0  0  0  0  0
   -9.4949   31.2233   -3.3592 C   0  0  0  0  0  0  0  0  0  0  0  0
   -8.7693   31.8147   -4.5227 C   0  0  0  0  0  0  0  0  0  0  0  0
   -9.6912   32.6718   -5.3614 C   0  0  1  0  0  0  0  0  0  0  0  0
   -8.9528   33.0923   -6.6099 C   0  0  0  0  0  0  0  0  0  0  0  0
   -9.8623   33.8859   -7.5028 C   0  0  1  0  0  0  0  0  0  0  0  0
   -9.1236   34.2090   -8.8351 C   0  0  0  0  0  0  0  0  0  0  0  0
   -9.5906   35.5665   -9.2170 C   0  0  0  0  0  0  0  0  0  0  0  0
   -8.5940   36.6805   -9.0368 C   0  0  1  0  0  0  0  0  0  0  0  0
   -7.6819   36.6975  -10.2489 C   0  0  2  0  0  0  0  0  0  0  0  0
   -8.5213   36.5779  -11.4874 C   0  0  0  0  0  0  0  0  0  0  0  0
   -9.4783   37.4836  -11.5598 C   0  0  0  0  0  0  0  0  0  0  0  0
   -9.5973   38.4469  -10.4733 C   0  0  0  0  0  0  0  0  0  0  0  0
   -9.9463   39.7104  -10.7134 C   0  0  0  0  0  0  0  0  0  0  0  0
  -10.0510   40.6616   -9.5616 C   0  0  1  0  0  0  0  0  0  0  0  0
   -8.7803   40.4577   -8.7122 C   0  0  0  0  0  0  0  0  0  0  0  0
   -8.7561   39.0460   -8.2181 C   0  0  1  0  0  0  0  0  0  0  0  0
   -9.3589   38.0068   -9.0859 C   0  0  2  0  0  0  0  0  0  0  0  0
   -6.5462   35.7498  -10.1946 C   0  0  0  0  0  0  0  0  0  0  0  0
   -7.1232   38.7664   -6.4181 C   0  0  0  0  0  0  0  0  0  0  0  0
   -6.7252   40.0637   -5.7882 C   0  0  1  0  0  0  0  0  0  0  0  0
   -5.8645   40.8362   -6.7315 C   0  0  0  0  0  0  0  0  0  0  0  0
   -5.3618   42.1256   -6.0756 C   0  0  0  0  0  0  0  0  0  0  0  0
   -7.9743   40.8961   -5.5012 C   0  0  0  0  0  0  0  0  0  0  0  0
   -6.0122   39.8558   -4.4744 C   0  0  0  0  0  0  0  0  0  0  0  0
   -9.9624   42.0563  -10.1402 C   0  0  0  0  0  0  0  0  0  0  0  0
  7  1  2  0
  7  2  1  0
  9  3  1  6
 11  4  1  6
 22  5  1  6
  5 25  1  0
 25  6  2  0
  8  7  1  0
  9  8  1  0
 10  9  1  0
 11 10  1  0
 12 11  1  0
 13 12  1  0
 14 13  1  6
 14 15  1  0
 23 14  1  0
 16 15  1  0
 15 24  1  1
 17 16  2  0
 18 17  1  0
 19 18  2  0
 23 18  1  6
 20 19  1  0
 21 20  1  0
 20 31  1  6
 21 22  1  0
 22 23  1  0
 25 26  1  0
 26 27  1  0
 26 29  1  1
 26 30  1  0
 27 28  1  0
M  END
$$$$
