
     RDKit          3D

 31 32  0  0  0  0  0  0  0  0999 V2000
  -10.8576   31.5174   -2.4070 O   0  0  0  0  0  0  0  0  0  0  0  0
   -9.7381   30.2504   -3.9105 O   0  0  0  0  0  0  0  0  0  0  0  0
   -8.2928   32.0381   -5.6235 O   0  0  0  0  0  0  0  0  0  0  0  0
  -10.6036   32.6620   -8.4166 O   0  0  0  0  0  0  0  0  0  0  0  0
   -8.2486   38.5716   -8.7831 O   0  0  0  0  0  0  0  0  0  0  0  0
   -9.5744   38.8672   -7.0080 O   0  0  0  0  0  0  0  0  0  0  0  0
  -10.2520   31.4606   -3.5075 C   0  0  0  0  0  0  0  0  0  0  0  0
  -10.1405   32.7270   -4.2910 C   0  0  0  0  0  0  0  0  0  0  0  0
   -9.6407   32.4581   -5.6930 C   0  0  1  0  0  0  0  0  0  0  0  0
   -9.7326   33.7380   -6.4896 C   0  0  0  0  0  0  0  0  0  0  0  0
  -10.8661   33.6531   -7.4706 C   0  0  1  0  0  0  0  0  0  0  0  0
  -11.0027   35.0118   -8.2194 C   0  0  0  0  0  0  0  0  0  0  0  0
   -9.9782   34.9656   -9.2942 C   0  0  0  0  0  0  0  0  0  0  0  0
   -9.0362   36.1384   -9.3566 C   0  0  1  0  0  0  0  0  0  0  0  0
   -7.8361   35.7349  -10.1920 C   0  0  2  0  0  0  0  0  0  0  0  0
   -8.3209   35.0412  -11.4316 C   0  0  0  0  0  0  0  0  0  0  0  0
   -9.2009   35.7476  -12.1157 C   0  0  0  0  0  0  0  0  0  0  0  0
   -9.5780   37.0585  -11.6039 C   0  0  0  0  0  0  0  0  0  0  0  0
   -9.8182   38.0740  -12.4326 C   0  0  0  0  0  0  0  0  0  0  0  0
  -10.1991   39.4022  -11.8552 C   0  0  1  0  0  0  0  0  0  0  0  0
   -9.2039   39.6804  -10.7107 C   0  0  0  0  0  0  0  0  0  0  0  0
   -9.3478   38.6064   -9.6795 C   0  0  1  0  0  0  0  0  0  0  0  0
   -9.7263   37.2528  -10.1494 C   0  0  2  0  0  0  0  0  0  0  0  0
   -6.7801   34.9989   -9.4613 C   0  0  0  0  0  0  0  0  0  0  0  0
   -8.3900   38.8039   -7.4371 C   0  0  0  0  0  0  0  0  0  0  0  0
   -7.2182   38.9740   -6.5226 C   0  0  1  0  0  0  0  0  0  0  0  0
   -5.9536   38.7330   -7.2776 C   0  0  0  0  0  0  0  0  0  0  0  0
   -5.4123   40.0411   -7.8617 C   0  0  0  0  0  0  0  0  0  0  0  0
   -7.1861   40.4082   -5.9958 C   0  0  0  0  0  0  0  0  0  0  0  0
   -7.3005   38.0576   -5.3264 C   0  0  0  0  0  0  0  0  0  0  0  0
   -9.9245   40.4359  -12.9247 C   0  0  0  0  0  0  0  0  0  0  0  0
  7  1  2  0
  7  2  1  0
  9  3  1  1
 11  4  1  6
 22  5  1  6
  5 25  1  0
 25  6  2  0
  8  7  1  0
  9  8  1  0
 10  9  1  0
 11 10  1  0
 12 11  1  0
 13 12  1  0
 14 13  1  6
 14 15  1  0
 23 14  1  0
 16 15  1  0
 15 24  1  1
 17 16  2  0
 18 17  1  0
 19 18  2  0
 23 18  1  6
 20 19  1  0
 21 20  1  0
 20 31  1  6
 21 22  1  0
 22 23  1  0
 25 26  1  0
 26 27  1  0
 26 29  1  1
 26 30  1  0
 27 28  1  0
M  END
$$$$
