
     RDKit          3D

 31 32  0  0  0  0  0  0  0  0999 V2000
   -7.9826   28.0417   -5.6707 O   0  0  0  0  0  0  0  0  0  0  0  0
   -9.3737   28.7185   -4.0196 O   0  0  0  0  0  0  0  0  0  0  0  0
  -10.5309   31.0630   -5.8148 O   0  0  0  0  0  0  0  0  0  0  0  0
  -11.0905   33.3326   -6.0827 O   0  0  0  0  0  0  0  0  0  0  0  0
   -8.4170   38.7149   -8.5253 O   0  0  0  0  0  0  0  0  0  0  0  0
   -9.6312   40.4763   -7.8778 O   0  0  0  0  0  0  0  0  0  0  0  0
   -8.5455   28.9991   -5.0809 C   0  0  0  0  0  0  0  0  0  0  0  0
   -8.2639   30.3744   -5.5901 C   0  0  0  0  0  0  0  0  0  0  0  0
   -9.3252   31.3516   -5.1357 C   0  0  1  0  0  0  0  0  0  0  0  0
   -8.8705   32.7498   -5.4813 C   0  0  0  0  0  0  0  0  0  0  0  0
  -10.0029   33.7188   -5.2990 C   0  0  1  0  0  0  0  0  0  0  0  0
   -9.5501   35.1342   -5.7646 C   0  0  0  0  0  0  0  0  0  0  0  0
   -9.3336   35.0088   -7.2290 C   0  0  0  0  0  0  0  0  0  0  0  0
   -8.6703   36.1823   -7.8993 C   0  0  1  0  0  0  0  0  0  0  0  0
   -7.4300   35.6783   -8.6127 C   0  0  2  0  0  0  0  0  0  0  0  0
   -7.7802   34.4289   -9.3671 C   0  0  0  0  0  0  0  0  0  0  0  0
   -8.8076   34.5804  -10.1813 C   0  0  0  0  0  0  0  0  0  0  0  0
   -9.4487   35.8872  -10.2439 C   0  0  0  0  0  0  0  0  0  0  0  0
   -9.9220   36.3633  -11.3951 C   0  0  0  0  0  0  0  0  0  0  0  0
  -10.5691   37.7137  -11.4060 C   0  0  1  0  0  0  0  0  0  0  0  0
   -9.6328   38.6510  -10.6171 C   0  0  0  0  0  0  0  0  0  0  0  0
   -9.5172   38.1430   -9.2149 C   0  0  1  0  0  0  0  0  0  0  0  0
   -9.6033   36.6780   -9.0086 C   0  0  2  0  0  0  0  0  0  0  0  0
   -6.2234   35.5541   -7.7644 C   0  0  0  0  0  0  0  0  0  0  0  0
   -8.4877   39.9457   -7.9206 C   0  0  0  0  0  0  0  0  0  0  0  0
   -7.2882   40.6283   -7.3431 C   0  0  1  0  0  0  0  0  0  0  0  0
   -6.9206   41.7997   -8.1917 C   0  0  0  0  0  0  0  0  0  0  0  0
   -8.0714   42.8084   -8.2525 C   0  0  0  0  0  0  0  0  0  0  0  0
   -7.6199   41.1460   -5.9440 C   0  0  0  0  0  0  0  0  0  0  0  0
   -6.1161   39.6873   -7.2079 C   0  0  0  0  0  0  0  0  0  0  0  0
  -10.5493   38.1936  -12.8403 C   0  0  0  0  0  0  0  0  0  0  0  0
  7  1  2  0
  7  2  1  0
  9  3  1  6
 11  4  1  6
 22  5  1  6
  5 25  1  0
 25  6  2  0
  8  7  1  0
  9  8  1  0
 10  9  1  0
 11 10  1  0
 12 11  1  0
 13 12  1  0
 14 13  1  6
 14 15  1  0
 23 14  1  0
 16 15  1  0
 15 24  1  1
 17 16  2  0
 18 17  1  0
 19 18  2  0
 23 18  1  6
 20 19  1  0
 21 20  1  0
 20 31  1  6
 21 22  1  0
 22 23  1  0
 25 26  1  0
 26 27  1  0
 26 29  1  1
 26 30  1  0
 27 28  1  0
M  END
$$$$
