
     RDKit          3D

 31 32  0  0  0  0  0  0  0  0999 V2000
   -7.9558   30.2375  -10.1392 O   0  0  0  0  0  0  0  0  0  0  0  0
   -6.8737   28.2714  -10.4270 O   0  0  0  0  0  0  0  0  0  0  0  0
   -7.9282   30.0414   -6.0451 O   0  0  0  0  0  0  0  0  0  0  0  0
   -6.5873   32.5023   -6.9069 O   0  0  0  0  0  0  0  0  0  0  0  0
   -8.3847   37.8163   -9.3014 O   0  0  0  0  0  0  0  0  0  0  0  0
   -6.7052   38.3049  -10.6930 O   0  0  0  0  0  0  0  0  0  0  0  0
   -7.5339   29.1711   -9.6235 C   0  0  0  0  0  0  0  0  0  0  0  0
   -7.7898   28.9704   -8.1660 C   0  0  0  0  0  0  0  0  0  0  0  0
   -7.5328   30.2414   -7.3874 C   0  0  1  0  0  0  0  0  0  0  0  0
   -8.3533   31.3529   -7.9976 C   0  0  0  0  0  0  0  0  0  0  0  0
   -7.7420   32.6842   -7.6682 C   0  0  1  0  0  0  0  0  0  0  0  0
   -8.7500   33.5199   -6.8252 C   0  0  0  0  0  0  0  0  0  0  0  0
   -8.0821   34.8293   -6.6103 C   0  0  0  0  0  0  0  0  0  0  0  0
   -8.5877   35.9719   -7.4503 C   0  0  1  0  0  0  0  0  0  0  0  0
  -10.0324   36.2337   -7.0692 C   0  0  2  0  0  0  0  0  0  0  0  0
  -10.1441   36.2407   -5.5724 C   0  0  0  0  0  0  0  0  0  0  0  0
   -9.3061   37.0768   -4.9894 C   0  0  0  0  0  0  0  0  0  0  0  0
   -8.4126   37.8567   -5.8357 C   0  0  0  0  0  0  0  0  0  0  0  0
   -8.0987   39.1140   -5.5245 C   0  0  0  0  0  0  0  0  0  0  0  0
   -7.1786   39.8733   -6.4297 C   0  0  1  0  0  0  0  0  0  0  0  0
   -7.6876   39.6359   -7.8657 C   0  0  0  0  0  0  0  0  0  0  0  0
   -7.6157   38.1717   -8.1633 C   0  0  1  0  0  0  0  0  0  0  0  0
   -7.8235   37.2331   -7.0355 C   0  0  2  0  0  0  0  0  0  0  0  0
  -11.0274   35.3716   -7.7455 C   0  0  0  0  0  0  0  0  0  0  0  0
   -7.8626   37.8184  -10.5714 C   0  0  0  0  0  0  0  0  0  0  0  0
   -8.6107   37.2794  -11.7496 C   0  0  1  0  0  0  0  0  0  0  0  0
   -9.0960   38.4093  -12.5953 C   0  0  0  0  0  0  0  0  0  0  0  0
   -7.9607   39.3942  -12.8890 C   0  0  0  0  0  0  0  0  0  0  0  0
   -7.6738   36.4229  -12.6006 C   0  0  0  0  0  0  0  0  0  0  0  0
   -9.7646   36.4020  -11.3299 C   0  0  0  0  0  0  0  0  0  0  0  0
   -7.3925   41.3413   -6.1347 C   0  0  0  0  0  0  0  0  0  0  0  0
  7  1  2  0
  7  2  1  0
  9  3  1  1
 11  4  1  1
 22  5  1  6
  5 25  1  0
 25  6  2  0
  8  7  1  0
  9  8  1  0
 10  9  1  0
 11 10  1  0
 12 11  1  0
 13 12  1  0
 14 13  1  1
 14 15  1  0
 23 14  1  0
 16 15  1  0
 15 24  1  6
 17 16  2  0
 18 17  1  0
 19 18  2  0
 23 18  1  1
 20 19  1  0
 21 20  1  0
 20 31  1  1
 21 22  1  0
 22 23  1  0
 25 26  1  0
 26 27  1  0
 26 29  1  6
 26 30  1  0
 27 28  1  0
M  END
$$$$
