
     RDKit          3D

 31 32  0  0  0  0  0  0  0  0999 V2000
  -10.4883   29.0852   -4.2268 O   0  0  0  0  0  0  0  0  0  0  0  0
   -8.3774   29.2963   -3.4402 O   0  0  0  0  0  0  0  0  0  0  0  0
  -10.5703   32.2064   -5.3354 O   0  0  0  0  0  0  0  0  0  0  0  0
  -10.1526   34.0780   -7.2346 O   0  0  0  0  0  0  0  0  0  0  0  0
   -8.3900   39.4353   -8.7686 O   0  0  0  0  0  0  0  0  0  0  0  0
   -9.6620   40.2528   -7.1224 O   0  0  0  0  0  0  0  0  0  0  0  0
   -9.3336   29.5539   -4.3943 C   0  0  0  0  0  0  0  0  0  0  0  0
   -9.0971   30.3604   -5.6287 C   0  0  0  0  0  0  0  0  0  0  0  0
   -9.2047   31.8414   -5.3410 C   0  0  1  0  0  0  0  0  0  0  0  0
   -8.4823   32.5965   -6.4314 C   0  0  0  0  0  0  0  0  0  0  0  0
   -8.9751   34.0136   -6.4892 C   0  0  1  0  0  0  0  0  0  0  0  0
   -7.9079   34.9022   -7.1938 C   0  0  0  0  0  0  0  0  0  0  0  0
   -8.5815   35.4239   -8.4108 C   0  0  0  0  0  0  0  0  0  0  0  0
   -8.2040   36.8215   -8.8242 C   0  0  1  0  0  0  0  0  0  0  0  0
   -7.0598   36.7267   -9.8158 C   0  0  2  0  0  0  0  0  0  0  0  0
   -7.3802   35.6616  -10.8235 C   0  0  0  0  0  0  0  0  0  0  0  0
   -8.5487   35.8332  -11.4121 C   0  0  0  0  0  0  0  0  0  0  0  0
   -9.3504   36.9869  -11.0262 C   0  0  0  0  0  0  0  0  0  0  0  0
  -10.0805   37.6453  -11.9259 C   0  0  0  0  0  0  0  0  0  0  0  0
  -10.8841   38.8269  -11.4780 C   0  0  1  0  0  0  0  0  0  0  0  0
   -9.9465   39.6850  -10.6051 C   0  0  0  0  0  0  0  0  0  0  0  0
   -9.5157   38.8736   -9.4245 C   0  0  1  0  0  0  0  0  0  0  0  0
   -9.3773   37.4103   -9.6136 C   0  0  2  0  0  0  0  0  0  0  0  0
   -5.7137   36.6031   -9.2127 C   0  0  0  0  0  0  0  0  0  0  0  0
   -8.5019   40.1627   -7.6092 C   0  0  0  0  0  0  0  0  0  0  0  0
   -7.3267   40.8150   -6.9522 C   0  0  1  0  0  0  0  0  0  0  0  0
   -7.0234   40.1229   -5.6652 C   0  0  0  0  0  0  0  0  0  0  0  0
   -8.2367   40.1575   -4.7313 C   0  0  0  0  0  0  0  0  0  0  0  0
   -6.1009   40.6871   -7.8559 C   0  0  0  0  0  0  0  0  0  0  0  0
   -7.5596   42.2873   -6.7165 C   0  0  0  0  0  0  0  0  0  0  0  0
  -11.1851   39.6422  -12.7160 C   0  0  0  0  0  0  0  0  0  0  0  0
  7  1  2  0
  7  2  1  0
  9  3  1  6
 11  4  1  6
 22  5  1  6
  5 25  1  0
 25  6  2  0
  8  7  1  0
  9  8  1  0
 10  9  1  0
 11 10  1  0
 12 11  1  0
 13 12  1  0
 14 13  1  6
 14 15  1  0
 23 14  1  0
 16 15  1  0
 15 24  1  1
 17 16  2  0
 18 17  1  0
 19 18  2  0
 23 18  1  6
 20 19  1  0
 21 20  1  0
 20 31  1  6
 21 22  1  0
 22 23  1  0
 25 26  1  0
 26 27  1  0
 26 29  1  6
 26 30  1  0
 27 28  1  0
M  END
$$$$
