
     RDKit          3D

 31 32  0  0  0  0  0  0  0  0999 V2000
   -9.2025   29.9718   -5.3210 O   0  0  0  0  0  0  0  0  0  0  0  0
   -8.0683   29.4885   -3.4238 O   0  0  0  0  0  0  0  0  0  0  0  0
  -10.9325   31.5531   -5.4286 O   0  0  0  0  0  0  0  0  0  0  0  0
  -10.7105   32.8292   -7.4999 O   0  0  0  0  0  0  0  0  0  0  0  0
   -8.1354   38.6484   -8.9495 O   0  0  0  0  0  0  0  0  0  0  0  0
   -9.0526   39.1462   -6.9729 O   0  0  0  0  0  0  0  0  0  0  0  0
   -8.8359   30.3450   -4.1776 C   0  0  0  0  0  0  0  0  0  0  0  0
   -9.2715   31.7017   -3.7306 C   0  0  0  0  0  0  0  0  0  0  0  0
   -9.9973   32.4332   -4.8378 C   0  0  1  0  0  0  0  0  0  0  0  0
   -8.9851   32.8663   -5.8716 C   0  0  0  0  0  0  0  0  0  0  0  0
   -9.6706   33.6038   -6.9855 C   0  0  1  0  0  0  0  0  0  0  0  0
   -8.6514   33.8678   -8.1329 C   0  0  0  0  0  0  0  0  0  0  0  0
   -9.3429   34.8031   -9.0569 C   0  0  0  0  0  0  0  0  0  0  0  0
   -8.6347   36.1035   -9.3290 C   0  0  1  0  0  0  0  0  0  0  0  0
   -7.5977   35.8584  -10.4087 C   0  0  2  0  0  0  0  0  0  0  0  0
   -8.2258   35.0531  -11.5085 C   0  0  0  0  0  0  0  0  0  0  0  0
   -9.3343   35.5900  -11.9822 C   0  0  0  0  0  0  0  0  0  0  0  0
   -9.7927   36.8455  -11.4023 C   0  0  0  0  0  0  0  0  0  0  0  0
  -10.3655   37.7807  -12.1595 C   0  0  0  0  0  0  0  0  0  0  0  0
  -10.8160   39.0550  -11.5149 C   0  0  1  0  0  0  0  0  0  0  0  0
   -9.6516   39.5250  -10.6199 C   0  0  0  0  0  0  0  0  0  0  0  0
   -9.3952   38.4807   -9.5802 C   0  0  1  0  0  0  0  0  0  0  0  0
   -9.6485   37.0686   -9.9515 C   0  0  2  0  0  0  0  0  0  0  0  0
   -6.3049   35.3210   -9.9285 C   0  0  0  0  0  0  0  0  0  0  0  0
   -8.0101   39.1635   -7.6828 C   0  0  0  0  0  0  0  0  0  0  0  0
   -6.7207   39.7160   -7.1628 C   0  0  1  0  0  0  0  0  0  0  0  0
   -6.5187   41.0980   -7.6886 C   0  0  0  0  0  0  0  0  0  0  0  0
   -7.6614   42.0182   -7.2494 C   0  0  0  0  0  0  0  0  0  0  0  0
   -6.7778   39.7960   -5.6378 C   0  0  0  0  0  0  0  0  0  0  0  0
   -5.5469   38.8385   -7.5232 C   0  0  0  0  0  0  0  0  0  0  0  0
  -10.9485   40.0783  -12.6209 C   0  0  0  0  0  0  0  0  0  0  0  0
  7  1  2  0
  7  2  1  0
  9  3  1  6
 11  4  1  6
 22  5  1  6
  5 25  1  0
 25  6  2  0
  8  7  1  0
  9  8  1  0
 10  9  1  0
 11 10  1  0
 12 11  1  0
 13 12  1  0
 14 13  1  6
 14 15  1  0
 23 14  1  0
 16 15  1  0
 15 24  1  1
 17 16  2  0
 18 17  1  0
 19 18  2  0
 23 18  1  6
 20 19  1  0
 21 20  1  0
 20 31  1  6
 21 22  1  0
 22 23  1  0
 25 26  1  0
 26 27  1  0
 26 29  1  1
 26 30  1  0
 27 28  1  0
M  END
$$$$
