
     RDKit          3D

 31 32  0  0  0  0  0  0  0  0999 V2000
   -8.0899   29.9023   -2.9194 O   0  0  0  0  0  0  0  0  0  0  0  0
   -9.4013   29.3277   -4.6712 O   0  0  0  0  0  0  0  0  0  0  0  0
  -10.7270   31.0184   -5.4689 O   0  0  0  0  0  0  0  0  0  0  0  0
   -9.9731   31.7597   -8.6128 O   0  0  0  0  0  0  0  0  0  0  0  0
   -7.1007   38.2741   -7.5529 O   0  0  0  0  0  0  0  0  0  0  0  0
   -6.3115   37.4957   -5.6119 O   0  0  0  0  0  0  0  0  0  0  0  0
   -8.7970   30.2822   -3.8872 C   0  0  0  0  0  0  0  0  0  0  0  0
   -8.9205   31.7544   -4.1055 C   0  0  0  0  0  0  0  0  0  0  0  0
   -9.7798   32.0561   -5.3131 C   0  0  1  0  0  0  0  0  0  0  0  0
   -8.8906   32.1184   -6.5322 C   0  0  0  0  0  0  0  0  0  0  0  0
   -9.6334   32.7395   -7.6797 C   0  0  1  0  0  0  0  0  0  0  0  0
   -8.7152   33.7810   -8.3850 C   0  0  0  0  0  0  0  0  0  0  0  0
   -9.4416   35.0724   -8.2777 C   0  0  0  0  0  0  0  0  0  0  0  0
   -8.6034   36.3137   -8.4297 C   0  0  1  0  0  0  0  0  0  0  0  0
   -8.5383   36.6606   -9.9050 C   0  0  2  0  0  0  0  0  0  0  0  0
   -9.9182   36.5602  -10.4868 C   0  0  0  0  0  0  0  0  0  0  0  0
  -10.8137   37.2784   -9.8357 C   0  0  0  0  0  0  0  0  0  0  0  0
  -10.3705   38.0472   -8.6802 C   0  0  0  0  0  0  0  0  0  0  0  0
  -10.8871   39.2471   -8.4171 C   0  0  0  0  0  0  0  0  0  0  0  0
  -10.3945   39.9979   -7.2187 C   0  0  1  0  0  0  0  0  0  0  0  0
   -8.8553   39.9145   -7.2557 C   0  0  0  0  0  0  0  0  0  0  0  0
   -8.4514   38.4769   -7.1687 C   0  0  1  0  0  0  0  0  0  0  0  0
   -9.3590   37.4733   -7.7731 C   0  0  2  0  0  0  0  0  0  0  0  0
   -7.5031   35.9365  -10.6762 C   0  0  0  0  0  0  0  0  0  0  0  0
   -6.0804   38.1926   -6.6375 C   0  0  0  0  0  0  0  0  0  0  0  0
   -4.7681   38.8842   -6.8320 C   0  0  1  0  0  0  0  0  0  0  0  0
   -4.9491   40.3571   -6.6747 C   0  0  0  0  0  0  0  0  0  0  0  0
   -5.5213   40.6893   -5.2936 C   0  0  0  0  0  0  0  0  0  0  0  0
   -3.7805   38.4144   -5.7645 C   0  0  0  0  0  0  0  0  0  0  0  0
   -4.1599   38.5688   -8.1767 C   0  0  0  0  0  0  0  0  0  0  0  0
  -10.7520   41.4510   -7.4390 C   0  0  0  0  0  0  0  0  0  0  0  0
  7  1  2  0
  7  2  1  0
  9  3  1  6
 11  4  1  6
 22  5  1  6
  5 25  1  0
 25  6  2  0
  8  7  1  0
  9  8  1  0
 10  9  1  0
 11 10  1  0
 12 11  1  0
 13 12  1  0
 14 13  1  6
 14 15  1  0
 23 14  1  0
 16 15  1  0
 15 24  1  6
 17 16  2  0
 18 17  1  0
 19 18  2  0
 23 18  1  6
 20 19  1  0
 21 20  1  0
 20 31  1  6
 21 22  1  0
 22 23  1  0
 25 26  1  0
 26 27  1  0
 26 29  1  1
 26 30  1  0
 27 28  1  0
M  END
$$$$
