
     RDKit          3D

 31 32  0  0  0  0  0  0  0  0999 V2000
   -6.1466   29.1447   -5.4868 O   0  0  0  0  0  0  0  0  0  0  0  0
   -8.2301   28.3125   -5.1938 O   0  0  0  0  0  0  0  0  0  0  0  0
   -9.7120   30.2546   -5.6054 O   0  0  0  0  0  0  0  0  0  0  0  0
  -10.5566   32.9833   -6.5164 O   0  0  0  0  0  0  0  0  0  0  0  0
   -7.3904   38.3593   -8.2794 O   0  0  0  0  0  0  0  0  0  0  0  0
   -6.1660   36.6839   -7.4489 O   0  0  0  0  0  0  0  0  0  0  0  0
   -7.3225   29.3401   -5.0866 C   0  0  0  0  0  0  0  0  0  0  0  0
   -7.6366   30.6872   -4.5238 C   0  0  0  0  0  0  0  0  0  0  0  0
   -8.8425   31.2948   -5.2052 C   0  0  1  0  0  0  0  0  0  0  0  0
   -8.3733   32.0593   -6.4203 C   0  0  0  0  0  0  0  0  0  0  0  0
   -9.2004   33.2997   -6.5988 C   0  0  1  0  0  0  0  0  0  0  0  0
   -8.9294   33.9015   -8.0093 C   0  0  0  0  0  0  0  0  0  0  0  0
   -9.7796   35.1176   -8.0808 C   0  0  0  0  0  0  0  0  0  0  0  0
   -9.0888   36.3785   -8.5277 C   0  0  1  0  0  0  0  0  0  0  0  0
   -9.6196   36.7453   -9.9006 C   0  0  2  0  0  0  0  0  0  0  0  0
  -11.1155   36.6227   -9.8893 C   0  0  0  0  0  0  0  0  0  0  0  0
  -11.6894   37.3133   -8.9222 C   0  0  0  0  0  0  0  0  0  0  0  0
  -10.8354   38.0767   -8.0220 C   0  0  0  0  0  0  0  0  0  0  0  0
  -11.2226   39.2619   -7.5515 C   0  0  0  0  0  0  0  0  0  0  0  0
  -10.3059   40.0078   -6.6319 C   0  0  1  0  0  0  0  0  0  0  0  0
   -8.9067   39.9579   -7.2780 C   0  0  0  0  0  0  0  0  0  0  0  0
   -8.4805   38.5283   -7.3872 C   0  0  1  0  0  0  0  0  0  0  0  0
   -9.5387   37.5132   -7.6021 C   0  0  2  0  0  0  0  0  0  0  0  0
   -8.9650   36.0533  -11.0334 C   0  0  0  0  0  0  0  0  0  0  0  0
   -6.1734   37.8729   -7.8696 C   0  0  0  0  0  0  0  0  0  0  0  0
   -4.9231   38.6934   -7.9133 C   0  0  1  0  0  0  0  0  0  0  0  0
   -5.1861   39.9703   -8.6396 C   0  0  0  0  0  0  0  0  0  0  0  0
   -3.9708   40.3786   -9.4771 C   0  0  0  0  0  0  0  0  0  0  0  0
   -4.4913   39.0418   -6.4894 C   0  0  0  0  0  0  0  0  0  0  0  0
   -3.7820   37.9456   -8.5586 C   0  0  0  0  0  0  0  0  0  0  0  0
  -10.7427   41.4556   -6.6631 C   0  0  0  0  0  0  0  0  0  0  0  0
  7  1  2  0
  7  2  1  0
  9  3  1  6
 11  4  1  6
 22  5  1  6
  5 25  1  0
 25  6  2  0
  8  7  1  0
  9  8  1  0
 10  9  1  0
 11 10  1  0
 12 11  1  0
 13 12  1  0
 14 13  1  1
 14 15  1  0
 23 14  1  0
 16 15  1  0
 15 24  1  6
 17 16  2  0
 18 17  1  0
 19 18  2  0
 23 18  1  6
 20 19  1  0
 21 20  1  0
 20 31  1  6
 21 22  1  0
 22 23  1  0
 25 26  1  0
 26 27  1  0
 26 29  1  1
 26 30  1  0
 27 28  1  0
M  END
$$$$
