
     RDKit          3D

 31 32  0  0  0  0  0  0  0  0999 V2000
   -6.8791   36.6978  -18.1654 O   0  0  0  0  0  0  0  0  0  0  0  0
   -6.2257   37.6638  -16.2265 O   0  0  0  0  0  0  0  0  0  0  0  0
   -7.6972   34.0019  -15.0250 O   0  0  0  0  0  0  0  0  0  0  0  0
   -8.9865   33.7350  -12.9967 O   0  0  0  0  0  0  0  0  0  0  0  0
   -8.4647   36.7489   -7.0836 O   0  0  0  0  0  0  0  0  0  0  0  0
   -7.5894   37.9864   -8.7263 O   0  0  0  0  0  0  0  0  0  0  0  0
   -7.0395   36.8010  -16.9225 C   0  0  0  0  0  0  0  0  0  0  0  0
   -8.1116   35.9674  -16.3015 C   0  0  0  0  0  0  0  0  0  0  0  0
   -7.6667   35.4139  -14.9660 C   0  0  1  0  0  0  0  0  0  0  0  0
   -8.6235   35.8978  -13.9024 C   0  0  0  0  0  0  0  0  0  0  0  0
   -8.5323   35.0178  -12.6893 C   0  0  1  0  0  0  0  0  0  0  0  0
   -9.4407   35.5953  -11.5639 C   0  0  0  0  0  0  0  0  0  0  0  0
   -9.2936   34.6518  -10.4259 C   0  0  0  0  0  0  0  0  0  0  0  0
   -9.3539   35.2636   -9.0516 C   0  0  1  0  0  0  0  0  0  0  0  0
  -10.6505   34.8256   -8.3972 C   0  0  2  0  0  0  0  0  0  0  0  0
  -10.8293   33.3517   -8.6169 C   0  0  0  0  0  0  0  0  0  0  0  0
   -9.7942   32.6348   -8.2219 C   0  0  0  0  0  0  0  0  0  0  0  0
   -8.6530   33.3339   -7.6461 C   0  0  0  0  0  0  0  0  0  0  0  0
   -7.9608   32.8018   -6.6393 C   0  0  0  0  0  0  0  0  0  0  0  0
   -6.7982   33.5629   -6.0810 C   0  0  1  0  0  0  0  0  0  0  0  0
   -7.2836   35.0126   -5.8801 C   0  0  0  0  0  0  0  0  0  0  0  0
   -7.6802   35.5733   -7.2089 C   0  0  1  0  0  0  0  0  0  0  0  0
   -8.2408   34.6336   -8.2084 C   0  0  2  0  0  0  0  0  0  0  0  0
  -11.8374   35.6374   -8.7480 C   0  0  0  0  0  0  0  0  0  0  0  0
   -8.0399   37.9692   -7.5482 C   0  0  0  0  0  0  0  0  0  0  0  0
   -8.1014   39.2121   -6.7177 C   0  0  1  0  0  0  0  0  0  0  0  0
   -6.7220   39.6157   -6.3159 C   0  0  0  0  0  0  0  0  0  0  0  0
   -6.1095   38.5831   -5.3652 C   0  0  0  0  0  0  0  0  0  0  0  0
   -8.7029   40.3485   -7.5437 C   0  0  0  0  0  0  0  0  0  0  0  0
   -8.9735   39.0318   -5.4993 C   0  0  0  0  0  0  0  0  0  0  0  0
   -6.5341   33.0026   -4.7011 C   0  0  0  0  0  0  0  0  0  0  0  0
  7  1  2  0
  7  2  1  0
  9  3  1  6
 11  4  1  6
 22  5  1  1
  5 25  1  0
 25  6  2  0
  8  7  1  0
  9  8  1  0
 10  9  1  0
 11 10  1  0
 12 11  1  0
 13 12  1  0
 14 13  1  6
 14 15  1  0
 23 14  1  0
 16 15  1  0
 15 24  1  6
 17 16  2  0
 18 17  1  0
 19 18  2  0
 23 18  1  1
 20 19  1  0
 21 20  1  0
 20 31  1  1
 21 22  1  0
 22 23  1  0
 25 26  1  0
 26 27  1  0
 26 29  1  6
 26 30  1  0
 27 28  1  0
M  END
$$$$
