
     RDKit          3D

 31 32  0  0  0  0  0  0  0  0999 V2000
  -10.1875   31.4785   -3.4221 O   0  0  0  0  0  0  0  0  0  0  0  0
   -8.0012   31.4345   -2.8413 O   0  0  0  0  0  0  0  0  0  0  0  0
   -9.5456   30.8267   -7.4065 O   0  0  0  0  0  0  0  0  0  0  0  0
   -8.7998   32.7801   -8.2484 O   0  0  0  0  0  0  0  0  0  0  0  0
   -8.0455   38.9967   -9.1439 O   0  0  0  0  0  0  0  0  0  0  0  0
   -8.9896   39.4702   -7.1740 O   0  0  0  0  0  0  0  0  0  0  0  0
   -9.0021   31.2334   -3.7626 C   0  0  0  0  0  0  0  0  0  0  0  0
   -8.7802   30.7402   -5.1546 C   0  0  0  0  0  0  0  0  0  0  0  0
   -9.8232   31.2921   -6.1009 C   0  0  1  0  0  0  0  0  0  0  0  0
   -9.7472   32.8002   -6.0732 C   0  0  0  0  0  0  0  0  0  0  0  0
   -9.8115   33.3444   -7.4711 C   0  0  1  0  0  0  0  0  0  0  0  0
   -9.5906   34.8856   -7.4351 C   0  0  0  0  0  0  0  0  0  0  0  0
   -9.6791   35.3222   -8.8522 C   0  0  0  0  0  0  0  0  0  0  0  0
   -8.8128   36.4922   -9.2359 C   0  0  1  0  0  0  0  0  0  0  0  0
   -7.7549   35.9977  -10.2042 C   0  0  2  0  0  0  0  0  0  0  0  0
   -8.4120   35.1267  -11.2349 C   0  0  0  0  0  0  0  0  0  0  0  0
   -9.4248   35.7122  -11.8455 C   0  0  0  0  0  0  0  0  0  0  0  0
   -9.7661   37.0749  -11.4590 C   0  0  0  0  0  0  0  0  0  0  0  0
  -10.1867   37.9583  -12.3637 C   0  0  0  0  0  0  0  0  0  0  0  0
  -10.5215   39.3472  -11.9149 C   0  0  1  0  0  0  0  0  0  0  0  0
   -9.3601   39.8034  -11.0091 C   0  0  0  0  0  0  0  0  0  0  0  0
   -9.2809   38.8834   -9.8323 C   0  0  1  0  0  0  0  0  0  0  0  0
   -9.6746   37.4700  -10.0409 C   0  0  2  0  0  0  0  0  0  0  0  0
   -6.5597   35.3928   -9.5747 C   0  0  0  0  0  0  0  0  0  0  0  0
   -7.9515   39.5414   -7.8869 C   0  0  0  0  0  0  0  0  0  0  0  0
   -6.6992   40.1846   -7.3804 C   0  0  1  0  0  0  0  0  0  0  0  0
   -5.7489   39.1331   -6.9132 C   0  0  0  0  0  0  0  0  0  0  0  0
   -5.2433   38.2959   -8.0917 C   0  0  0  0  0  0  0  0  0  0  0  0
   -6.0270   40.9563   -8.5153 C   0  0  0  0  0  0  0  0  0  0  0  0
   -6.9813   41.1697   -6.2725 C   0  0  0  0  0  0  0  0  0  0  0  0
  -10.4768   40.2245  -13.1463 C   0  0  0  0  0  0  0  0  0  0  0  0
  7  1  2  0
  7  2  1  0
  9  3  1  6
 11  4  1  6
 22  5  1  6
  5 25  1  0
 25  6  2  0
  8  7  1  0
  9  8  1  0
 10  9  1  0
 11 10  1  0
 12 11  1  0
 13 12  1  0
 14 13  1  6
 14 15  1  0
 23 14  1  0
 16 15  1  0
 15 24  1  1
 17 16  2  0
 18 17  1  0
 19 18  2  0
 23 18  1  6
 20 19  1  0
 21 20  1  0
 20 31  1  6
 21 22  1  0
 22 23  1  0
 25 26  1  0
 26 27  1  0
 26 29  1  6
 26 30  1  0
 27 28  1  0
M  END
$$$$
