
     RDKit          3D

 31 32  0  0  0  0  0  0  0  0999 V2000
  -10.3303   33.8247   -3.5313 O   0  0  0  0  0  0  0  0  0  0  0  0
   -8.5626   32.5386   -2.9478 O   0  0  0  0  0  0  0  0  0  0  0  0
  -11.6894   31.9318   -6.5611 O   0  0  0  0  0  0  0  0  0  0  0  0
   -9.7769   32.4703   -8.9427 O   0  0  0  0  0  0  0  0  0  0  0  0
   -8.5041   38.4381  -10.3549 O   0  0  0  0  0  0  0  0  0  0  0  0
   -9.6409   40.3625  -10.3426 O   0  0  0  0  0  0  0  0  0  0  0  0
   -9.5617   32.8756   -3.8306 C   0  0  0  0  0  0  0  0  0  0  0  0
   -9.8018   32.1886   -5.1346 C   0  0  0  0  0  0  0  0  0  0  0  0
  -10.8696   32.8991   -5.9364 C   0  0  1  0  0  0  0  0  0  0  0  0
  -10.1957   33.7482   -6.9879 C   0  0  0  0  0  0  0  0  0  0  0  0
  -10.6798   33.3559   -8.3540 C   0  0  1  0  0  0  0  0  0  0  0  0
  -10.7688   34.6242   -9.2533 C   0  0  0  0  0  0  0  0  0  0  0  0
   -9.5754   34.5573  -10.1354 C   0  0  0  0  0  0  0  0  0  0  0  0
   -8.7900   35.8338  -10.2782 C   0  0  1  0  0  0  0  0  0  0  0  0
   -7.3289   35.4700  -10.4623 C   0  0  2  0  0  0  0  0  0  0  0  0
   -7.2297   34.3617  -11.4697 C   0  0  0  0  0  0  0  0  0  0  0  0
   -7.8316   34.6373  -12.6112 C   0  0  0  0  0  0  0  0  0  0  0  0
   -8.4914   35.9293  -12.7464 C   0  0  0  0  0  0  0  0  0  0  0  0
   -8.4774   36.5873  -13.9051 C   0  0  0  0  0  0  0  0  0  0  0  0
   -9.1678   37.9135  -13.9903 C   0  0  1  0  0  0  0  0  0  0  0  0
   -8.7257   38.7144  -12.7491 C   0  0  0  0  0  0  0  0  0  0  0  0
   -9.1655   37.9790  -11.5231 C   0  0  1  0  0  0  0  0  0  0  0  0
   -9.2112   36.4993  -11.5921 C   0  0  2  0  0  0  0  0  0  0  0  0
   -6.5811   35.2174   -9.2102 C   0  0  0  0  0  0  0  0  0  0  0  0
   -8.8736   39.5903   -9.7056 C   0  0  0  0  0  0  0  0  0  0  0  0
   -8.4013   39.9227   -8.3255 C   0  0  1  0  0  0  0  0  0  0  0  0
   -7.0272   39.3777   -8.1206 C   0  0  0  0  0  0  0  0  0  0  0  0
   -5.9817   40.2766   -8.7870 C   0  0  0  0  0  0  0  0  0  0  0  0
   -8.3353   41.4406   -8.1606 C   0  0  0  0  0  0  0  0  0  0  0  0
   -9.3401   39.3962   -7.2677 C   0  0  0  0  0  0  0  0  0  0  0  0
   -8.5896   38.6280  -15.1916 C   0  0  0  0  0  0  0  0  0  0  0  0
  7  1  2  0
  7  2  1  0
  9  3  1  6
 11  4  1  6
 22  5  1  1
  5 25  1  0
 25  6  2  0
  8  7  1  0
  9  8  1  0
 10  9  1  0
 11 10  1  0
 12 11  1  0
 13 12  1  0
 14 13  1  6
 14 15  1  0
 23 14  1  0
 16 15  1  0
 15 24  1  1
 17 16  2  0
 18 17  1  0
 19 18  2  0
 23 18  1  6
 20 19  1  0
 21 20  1  0
 20 31  1  6
 21 22  1  0
 22 23  1  0
 25 26  1  0
 26 27  1  0
 26 29  1  6
 26 30  1  0
 27 28  1  0
M  END
$$$$
