
     RDKit          3D

 31 32  0  0  0  0  0  0  0  0999 V2000
  -10.8337   29.5032   -4.0958 O   0  0  0  0  0  0  0  0  0  0  0  0
   -9.2295   28.2619   -5.0983 O   0  0  0  0  0  0  0  0  0  0  0  0
  -10.5620   31.6577   -4.2665 O   0  0  0  0  0  0  0  0  0  0  0  0
  -10.0313   33.4175   -6.2318 O   0  0  0  0  0  0  0  0  0  0  0  0
   -8.3552   38.5367   -8.7242 O   0  0  0  0  0  0  0  0  0  0  0  0
   -9.9151   39.5277   -7.4668 O   0  0  0  0  0  0  0  0  0  0  0  0
   -9.6092   29.3353   -4.3272 C   0  0  0  0  0  0  0  0  0  0  0  0
   -8.6612   30.3270   -3.7372 C   0  0  0  0  0  0  0  0  0  0  0  0
   -9.2315   31.7267   -3.7943 C   0  0  1  0  0  0  0  0  0  0  0  0
   -8.3965   32.5472   -4.7486 C   0  0  0  0  0  0  0  0  0  0  0  0
   -9.1644   33.7584   -5.1933 C   0  0  1  0  0  0  0  0  0  0  0  0
   -8.1702   34.8320   -5.7266 C   0  0  0  0  0  0  0  0  0  0  0  0
   -8.3250   34.8026   -7.2037 C   0  0  0  0  0  0  0  0  0  0  0  0
   -7.9606   36.0705   -7.9292 C   0  0  1  0  0  0  0  0  0  0  0  0
   -6.5919   35.8788   -8.5546 C   0  0  2  0  0  0  0  0  0  0  0  0
   -6.5526   34.5396   -9.2311 C   0  0  0  0  0  0  0  0  0  0  0  0
   -7.5344   34.3609  -10.0945 C   0  0  0  0  0  0  0  0  0  0  0  0
   -8.4957   35.4406  -10.2760 C   0  0  0  0  0  0  0  0  0  0  0  0
   -9.0114   35.7037  -11.4762 C   0  0  0  0  0  0  0  0  0  0  0  0
   -9.9931   36.8267  -11.6095 C   0  0  1  0  0  0  0  0  0  0  0  0
   -9.3874   38.0259  -10.8529 C   0  0  0  0  0  0  0  0  0  0  0  0
   -9.2217   37.6503   -9.4145 C   0  0  1  0  0  0  0  0  0  0  0  0
   -8.9263   36.2309   -9.1075 C   0  0  2  0  0  0  0  0  0  0  0  0
   -5.4468   36.1339   -7.6521 C   0  0  0  0  0  0  0  0  0  0  0  0
   -8.8147   39.6534   -8.0703 C   0  0  0  0  0  0  0  0  0  0  0  0
   -8.0654   40.9484   -8.0662 C   0  0  1  0  0  0  0  0  0  0  0  0
   -7.6208   41.2662   -6.6775 C   0  0  0  0  0  0  0  0  0  0  0  0
   -7.6256   40.0080   -5.8046 C   0  0  0  0  0  0  0  0  0  0  0  0
   -6.8195   40.8199   -8.9418 C   0  0  0  0  0  0  0  0  0  0  0  0
   -8.8935   42.0791   -8.6260 C   0  0  0  0  0  0  0  0  0  0  0  0
  -10.0191   37.2098  -13.0725 C   0  0  0  0  0  0  0  0  0  0  0  0
  7  1  2  0
  7  2  1  0
  9  3  1  6
 11  4  1  6
 22  5  1  6
  5 25  1  0
 25  6  2  0
  8  7  1  0
  9  8  1  0
 10  9  1  0
 11 10  1  0
 12 11  1  0
 13 12  1  0
 14 13  1  6
 14 15  1  0
 23 14  1  0
 16 15  1  0
 15 24  1  1
 17 16  2  0
 18 17  1  0
 19 18  2  0
 23 18  1  6
 20 19  1  0
 21 20  1  0
 20 31  1  6
 21 22  1  0
 22 23  1  0
 25 26  1  0
 26 27  1  0
 26 29  1  6
 26 30  1  0
 27 28  1  0
M  END
$$$$
