
     RDKit          3D

 31 32  0  0  0  0  0  0  0  0999 V2000
   -6.4850   27.6468   -5.7591 O   0  0  0  0  0  0  0  0  0  0  0  0
   -8.5907   28.3518   -5.3252 O   0  0  0  0  0  0  0  0  0  0  0  0
   -9.0182   29.9639   -8.3174 O   0  0  0  0  0  0  0  0  0  0  0  0
   -9.9926   32.0069   -8.4170 O   0  0  0  0  0  0  0  0  0  0  0  0
   -8.8578   38.2017  -10.6876 O   0  0  0  0  0  0  0  0  0  0  0  0
   -7.5565   39.5992  -11.8495 O   0  0  0  0  0  0  0  0  0  0  0  0
   -7.3940   28.4846   -5.9894 C   0  0  0  0  0  0  0  0  0  0  0  0
   -7.0929   29.5637   -6.9768 C   0  0  0  0  0  0  0  0  0  0  0  0
   -8.2987   30.4488   -7.2014 C   0  0  1  0  0  0  0  0  0  0  0  0
   -7.8187   31.8536   -7.4789 C   0  0  0  0  0  0  0  0  0  0  0  0
   -8.9864   32.7439   -7.7921 C   0  0  1  0  0  0  0  0  0  0  0  0
   -8.5309   33.8665   -8.7707 C   0  0  0  0  0  0  0  0  0  0  0  0
   -8.8301   35.1392   -8.0654 C   0  0  0  0  0  0  0  0  0  0  0  0
   -9.2533   36.2913   -8.9373 C   0  0  1  0  0  0  0  0  0  0  0  0
  -10.7466   36.4918   -8.7613 C   0  0  2  0  0  0  0  0  0  0  0  0
  -11.0715   36.4454   -7.2967 C   0  0  0  0  0  0  0  0  0  0  0  0
  -10.3579   37.2896   -6.5759 C   0  0  0  0  0  0  0  0  0  0  0  0
   -9.3828   38.1266   -7.2623 C   0  0  0  0  0  0  0  0  0  0  0  0
   -9.1647   39.3827   -6.8743 C   0  0  0  0  0  0  0  0  0  0  0  0
   -8.1540   40.2019   -7.6158 C   0  0  1  0  0  0  0  0  0  0  0  0
   -8.4429   39.9952   -9.1162 C   0  0  0  0  0  0  0  0  0  0  0  0
   -8.2735   38.5449   -9.4411 C   0  0  1  0  0  0  0  0  0  0  0  0
   -8.6049   37.5631   -8.3816 C   0  0  2  0  0  0  0  0  0  0  0  0
  -11.6010   35.6195   -9.5979 C   0  0  0  0  0  0  0  0  0  0  0  0
   -8.3133   38.5908  -11.8867 C   0  0  0  0  0  0  0  0  0  0  0  0
   -8.5927   37.8713  -13.1683 C   0  0  1  0  0  0  0  0  0  0  0  0
   -8.9935   38.8535  -14.2179 C   0  0  0  0  0  0  0  0  0  0  0  0
   -8.0656   40.0718  -14.2040 C   0  0  0  0  0  0  0  0  0  0  0  0
   -7.3238   37.1650  -13.6441 C   0  0  0  0  0  0  0  0  0  0  0  0
   -9.6583   36.8159  -13.0000 C   0  0  0  0  0  0  0  0  0  0  0  0
   -8.4636   41.6514   -7.3139 C   0  0  0  0  0  0  0  0  0  0  0  0
  7  1  2  0
  7  2  1  0
  9  3  1  6
 11  4  1  6
 22  5  1  6
  5 25  1  0
 25  6  2  0
  8  7  1  0
  9  8  1  0
 10  9  1  0
 11 10  1  0
 12 11  1  0
 13 12  1  0
 14 13  1  1
 14 15  1  0
 23 14  1  0
 16 15  1  0
 15 24  1  6
 17 16  2  0
 18 17  1  0
 19 18  2  0
 23 18  1  1
 20 19  1  0
 21 20  1  0
 20 31  1  1
 21 22  1  0
 22 23  1  0
 25 26  1  0
 26 27  1  0
 26 29  1  6
 26 30  1  0
 27 28  1  0
M  END
$$$$
