
     RDKit          3D

 31 32  0  0  0  0  0  0  0  0999 V2000
   -7.7908   28.3335   -7.1048 O   0  0  0  0  0  0  0  0  0  0  0  0
   -9.3979   29.8703   -7.5228 O   0  0  0  0  0  0  0  0  0  0  0  0
  -10.3987   30.7189   -5.4364 O   0  0  0  0  0  0  0  0  0  0  0  0
  -10.5886   33.1296   -6.0794 O   0  0  0  0  0  0  0  0  0  0  0  0
   -8.2533   38.4371   -8.5488 O   0  0  0  0  0  0  0  0  0  0  0  0
   -8.8834   40.0523   -7.1381 O   0  0  0  0  0  0  0  0  0  0  0  0
   -8.4802   29.2939   -6.6763 C   0  0  0  0  0  0  0  0  0  0  0  0
   -8.2396   29.7319   -5.2691 C   0  0  0  0  0  0  0  0  0  0  0  0
   -9.1011   30.9235   -4.9144 C   0  0  1  0  0  0  0  0  0  0  0  0
   -8.4931   32.1581   -5.5364 C   0  0  0  0  0  0  0  0  0  0  0  0
   -9.4128   33.3312   -5.3562 C   0  0  1  0  0  0  0  0  0  0  0  0
   -8.7231   34.6158   -5.9033 C   0  0  0  0  0  0  0  0  0  0  0  0
   -9.1293   34.6950   -7.3301 C   0  0  0  0  0  0  0  0  0  0  0  0
   -8.6064   35.8792   -8.0987 C   0  0  1  0  0  0  0  0  0  0  0  0
   -7.8048   35.3596   -9.2771 C   0  0  2  0  0  0  0  0  0  0  0  0
   -8.5818   34.2624   -9.9443 C   0  0  0  0  0  0  0  0  0  0  0  0
   -9.8065   34.6196  -10.2818 C   0  0  0  0  0  0  0  0  0  0  0  0
  -10.2354   35.9782   -9.9767 C   0  0  0  0  0  0  0  0  0  0  0  0
  -11.0319   36.6480  -10.8091 C   0  0  0  0  0  0  0  0  0  0  0  0
  -11.4409   38.0431  -10.4504 C   0  0  1  0  0  0  0  0  0  0  0  0
  -10.1570   38.7719  -10.0053 C   0  0  0  0  0  0  0  0  0  0  0  0
   -9.5995   38.0711   -8.8072 C   0  0  1  0  0  0  0  0  0  0  0  0
   -9.8064   36.6066   -8.7133 C   0  0  2  0  0  0  0  0  0  0  0  0
   -6.3992   35.0076   -8.9752 C   0  0  0  0  0  0  0  0  0  0  0  0
   -7.9212   39.4783   -7.7174 C   0  0  0  0  0  0  0  0  0  0  0  0
   -6.5070   39.9166   -7.5026 C   0  0  1  0  0  0  0  0  0  0  0  0
   -5.7777   38.8859   -6.7069 C   0  0  0  0  0  0  0  0  0  0  0  0
   -6.7092   38.2318   -5.6823 C   0  0  0  0  0  0  0  0  0  0  0  0
   -5.8044   40.0532   -8.8528 C   0  0  0  0  0  0  0  0  0  0  0  0
   -6.4321   41.2600   -6.8191 C   0  0  0  0  0  0  0  0  0  0  0  0
  -11.8901   38.7076  -11.7328 C   0  0  0  0  0  0  0  0  0  0  0  0
  7  1  2  0
  7  2  1  0
  9  3  1  6
 11  4  1  6
 22  5  1  6
  5 25  1  0
 25  6  2  0
  8  7  1  0
  9  8  1  0
 10  9  1  0
 11 10  1  0
 12 11  1  0
 13 12  1  0
 14 13  1  1
 14 15  1  0
 23 14  1  0
 16 15  1  0
 15 24  1  1
 17 16  2  0
 18 17  1  0
 19 18  2  0
 23 18  1  6
 20 19  1  0
 21 20  1  0
 20 31  1  6
 21 22  1  0
 22 23  1  0
 25 26  1  0
 26 27  1  0
 26 29  1  6
 26 30  1  0
 27 28  1  0
M  END
$$$$
