
     RDKit          3D

 31 32  0  0  0  0  0  0  0  0999 V2000
  -10.9223   31.3807   -3.2719 O   0  0  0  0  0  0  0  0  0  0  0  0
   -9.5703   29.5666   -3.2525 O   0  0  0  0  0  0  0  0  0  0  0  0
  -10.9583   32.8867   -5.2652 O   0  0  0  0  0  0  0  0  0  0  0  0
   -9.9318   32.3779   -7.6142 O   0  0  0  0  0  0  0  0  0  0  0  0
   -7.4288   38.6448   -7.0920 O   0  0  0  0  0  0  0  0  0  0  0  0
   -7.0983   38.2442   -4.9179 O   0  0  0  0  0  0  0  0  0  0  0  0
   -9.8754   30.8307   -3.6995 C   0  0  0  0  0  0  0  0  0  0  0  0
   -9.0431   31.6070   -4.6662 C   0  0  0  0  0  0  0  0  0  0  0  0
   -9.6040   32.9961   -4.8754 C   0  0  1  0  0  0  0  0  0  0  0  0
   -8.8142   33.6733   -5.9703 C   0  0  0  0  0  0  0  0  0  0  0  0
   -9.6069   33.6835   -7.2454 C   0  0  1  0  0  0  0  0  0  0  0  0
   -8.7452   34.3067   -8.3831 C   0  0  0  0  0  0  0  0  0  0  0  0
   -9.4402   35.5678   -8.7481 C   0  0  0  0  0  0  0  0  0  0  0  0
   -8.6565   36.8360   -8.5380 C   0  0  1  0  0  0  0  0  0  0  0  0
   -8.3649   37.4406   -9.8984 C   0  0  2  0  0  0  0  0  0  0  0  0
   -9.6211   37.4123  -10.7194 C   0  0  0  0  0  0  0  0  0  0  0  0
  -10.6499   37.9821  -10.1209 C   0  0  0  0  0  0  0  0  0  0  0  0
  -10.4477   38.5440   -8.7920 C   0  0  0  0  0  0  0  0  0  0  0  0
  -11.0648   39.6656   -8.4216 C   0  0  0  0  0  0  0  0  0  0  0  0
  -10.8201   40.2033   -7.0455 C   0  0  1  0  0  0  0  0  0  0  0  0
   -9.2941   40.1644   -6.8284 C   0  0  0  0  0  0  0  0  0  0  0  0
   -8.8335   38.7441   -6.9193 C   0  0  1  0  0  0  0  0  0  0  0  0
   -9.5723   37.8424   -7.8344 C   0  0  2  0  0  0  0  0  0  0  0  0
   -7.1781   36.8896  -10.5902 C   0  0  0  0  0  0  0  0  0  0  0  0
   -6.5666   38.4969   -6.0335 C   0  0  0  0  0  0  0  0  0  0  0  0
   -5.0833   38.6255   -6.1801 C   0  0  1  0  0  0  0  0  0  0  0  0
   -4.7674   39.4299   -7.3968 C   0  0  0  0  0  0  0  0  0  0  0  0
   -5.2266   40.8804   -7.2230 C   0  0  0  0  0  0  0  0  0  0  0  0
   -4.5126   39.3610   -4.9681 C   0  0  0  0  0  0  0  0  0  0  0  0
   -4.4059   37.2787   -6.2484 C   0  0  0  0  0  0  0  0  0  0  0  0
  -11.2135   41.6636   -7.0733 C   0  0  0  0  0  0  0  0  0  0  0  0
  7  1  2  0
  7  2  1  0
  9  3  1  6
 11  4  1  6
 22  5  1  6
  5 25  1  0
 25  6  2  0
  8  7  1  0
  9  8  1  0
 10  9  1  0
 11 10  1  0
 12 11  1  0
 13 12  1  0
 14 13  1  6
 14 15  1  0
 23 14  1  0
 16 15  1  0
 15 24  1  6
 17 16  2  0
 18 17  1  0
 19 18  2  0
 23 18  1  6
 20 19  1  0
 21 20  1  0
 20 31  1  6
 21 22  1  0
 22 23  1  0
 25 26  1  0
 26 27  1  0
 26 29  1  1
 26 30  1  0
 27 28  1  0
M  END
$$$$
