
     RDKit          3D

 22 25  0  0  0  0  0  0  0  0999 V2000
  -12.6508    8.8252  -29.0202 C   0  0  0  0  0  0  0  0  0  0  0  0
  -12.1355    4.4780  -28.1873 C   0  0  0  0  0  0  0  0  0  0  0  0
   -9.8194    4.2401  -28.7902 C   0  0  0  0  0  0  0  0  0  0  0  0
  -12.1501    3.2235  -27.6579 C   0  0  0  0  0  0  0  0  0  0  0  0
  -12.9221    6.8846  -30.1473 C   0  0  0  0  0  0  0  0  0  0  0  0
  -12.6748    8.2358  -30.2626 C   0  0  0  0  0  0  0  0  0  0  0  0
  -12.7110   11.6925  -21.8581 N   0  0  0  0  0  0  0  0  0  0  0  0
  -12.7731   10.6810  -22.8470 C   0  0  0  0  0  0  0  0  0  0  0  0
  -12.9354    9.3495  -22.6735 N   0  0  0  0  0  0  0  0  0  0  0  0
  -12.9433    8.7265  -23.8386 N   0  0  0  0  0  0  0  0  0  0  0  0
  -12.7871    9.6106  -24.8389 C   0  0  0  0  0  0  0  0  0  0  0  0
  -12.6788   10.8419  -24.2339 C   0  0  0  0  0  0  0  0  0  0  0  0
  -12.7383    9.3510  -26.2775 C   0  0  0  0  0  0  0  0  0  0  0  0
  -12.5010   10.3529  -27.1889 C   0  0  0  0  0  0  0  0  0  0  0  0
  -12.4580   10.0937  -28.5400 C   0  0  0  0  0  0  0  0  0  0  0  0
  -12.8899    7.8058  -28.1239 C   0  0  0  0  0  0  0  0  0  0  0  0
  -12.9309    8.0853  -26.7529 C   0  0  0  0  0  0  0  0  0  0  0  0
  -13.0482    6.6631  -28.8077 N   0  0  0  0  0  0  0  0  0  0  0  0
  -13.3078    5.3873  -28.2095 C   0  0  0  0  0  0  0  0  0  0  0  0
  -10.9641    4.9883  -28.7561 C   0  0  0  0  0  0  0  0  0  0  0  0
   -9.8434    2.9766  -28.2542 C   0  0  0  0  0  0  0  0  0  0  0  0
  -10.9832    2.4620  -27.6932 C   0  0  0  0  0  0  0  0  0  0  0  0
  1  6  1  0
  1 15  2  0
 16  1  1  0
  2  4  2  0
 19  2  1  0
  2 20  1  0
 20  3  2  0
  3 21  1  0
  4 22  1  0
  5  6  2  0
 18  5  1  0
  8  7  1  0
  8  9  1  0
 12  8  2  0
 10  9  1  0
 11 10  2  0
 11 12  1  0
 13 11  1  0
 13 14  2  0
 17 13  1  0
 15 14  1  0
 16 17  2  0
 18 16  1  0
 18 19  1  0
 21 22  2  0
M  END
$$$$
