
     RDKit          3D

 22 25  0  0  0  0  0  0  0  0999 V2000
  -23.9205   18.2824  -11.8975 C   0  0  0  0  0  0  0  0  0  0  0  0
  -22.5751   21.9027   -9.7603 C   0  0  0  0  0  0  0  0  0  0  0  0
  -21.4124   23.3657   -8.2462 C   0  0  0  0  0  0  0  0  0  0  0  0
  -22.9540   21.0987   -8.7285 C   0  0  0  0  0  0  0  0  0  0  0  0
  -24.9392   20.2101  -11.3007 C   0  0  0  0  0  0  0  0  0  0  0  0
  -25.1250   18.8787  -11.6056 C   0  0  0  0  0  0  0  0  0  0  0  0
  -16.3023   18.3407  -13.0344 N   0  0  0  0  0  0  0  0  0  0  0  0
  -17.5815   17.7478  -12.9035 C   0  0  0  0  0  0  0  0  0  0  0  0
  -17.9098   16.4385  -12.9876 N   0  0  0  0  0  0  0  0  0  0  0  0
  -19.2085   16.2726  -12.8103 N   0  0  0  0  0  0  0  0  0  0  0  0
  -19.8038   17.4594  -12.6007 C   0  0  0  0  0  0  0  0  0  0  0  0
  -18.7968   18.3958  -12.6560 C   0  0  0  0  0  0  0  0  0  0  0  0
  -21.2208   17.7320  -12.3612 C   0  0  0  0  0  0  0  0  0  0  0  0
  -22.1798   16.7546  -12.4856 C   0  0  0  0  0  0  0  0  0  0  0  0
  -23.5097   17.0259  -12.2571 C   0  0  0  0  0  0  0  0  0  0  0  0
  -22.9754   19.2772  -11.7669 C   0  0  0  0  0  0  0  0  0  0  0  0
  -21.6268   18.9857  -12.0028 C   0  0  0  0  0  0  0  0  0  0  0  0
  -23.5953   20.4125  -11.4129 N   0  0  0  0  0  0  0  0  0  0  0  0
  -22.9330   21.6615  -11.1799 C   0  0  0  0  0  0  0  0  0  0  0  0
  -21.8005   23.0416   -9.5173 C   0  0  0  0  0  0  0  0  0  0  0  0
  -21.7989   22.5496   -7.2124 C   0  0  0  0  0  0  0  0  0  0  0  0
  -22.5579   21.4300   -7.4338 C   0  0  0  0  0  0  0  0  0  0  0  0
  1  6  1  0
  1 15  2  0
 16  1  1  0
  2  4  2  0
 19  2  1  0
  2 20  1  0
 20  3  2  0
  3 21  1  0
  4 22  1  0
  5  6  2  0
 18  5  1  0
  8  7  1  0
  8  9  1  0
 12  8  2  0
 10  9  1  0
 11 10  2  0
 11 12  1  0
 13 11  1  0
 13 14  2  0
 17 13  1  0
 15 14  1  0
 16 17  2  0
 18 16  1  0
 18 19  1  0
 21 22  2  0
M  END
$$$$
