
     RDKit          3D

 22 25  0  0  0  0  0  0  0  0999 V2000
  -23.6839   18.9881  -11.6037 C   0  0  0  0  0  0  0  0  0  0  0  0
  -22.5673   22.6256   -9.2099 C   0  0  0  0  0  0  0  0  0  0  0  0
  -22.3909   24.3115   -7.4606 C   0  0  0  0  0  0  0  0  0  0  0  0
  -22.9266   21.7008   -8.2528 C   0  0  0  0  0  0  0  0  0  0  0  0
  -24.4898   20.8706  -10.7763 C   0  0  0  0  0  0  0  0  0  0  0  0
  -24.8321   19.6124  -11.1606 C   0  0  0  0  0  0  0  0  0  0  0  0
  -16.8512   16.1265  -13.8395 N   0  0  0  0  0  0  0  0  0  0  0  0
  -17.8094   17.0626  -13.3718 C   0  0  0  0  0  0  0  0  0  0  0  0
  -17.5101   18.3372  -13.0633 N   0  0  0  0  0  0  0  0  0  0  0  0
  -18.6272   18.9121  -12.6679 N   0  0  0  0  0  0  0  0  0  0  0  0
  -19.6661   18.0630  -12.7016 C   0  0  0  0  0  0  0  0  0  0  0  0
  -19.1605   16.8635  -13.1530 C   0  0  0  0  0  0  0  0  0  0  0  0
  -21.0663   18.3487  -12.3320 C   0  0  0  0  0  0  0  0  0  0  0  0
  -22.0781   17.4290  -12.4672 C   0  0  0  0  0  0  0  0  0  0  0  0
  -23.3949   17.7371  -12.1057 C   0  0  0  0  0  0  0  0  0  0  0  0
  -22.6845   19.9283  -11.4589 C   0  0  0  0  0  0  0  0  0  0  0  0
  -21.3816   19.5885  -11.8291 C   0  0  0  0  0  0  0  0  0  0  0  0
  -23.1591   21.0619  -10.9628 N   0  0  0  0  0  0  0  0  0  0  0  0
  -22.4506   22.2887  -10.6629 C   0  0  0  0  0  0  0  0  0  0  0  0
  -22.3033   23.9323   -8.7832 C   0  0  0  0  0  0  0  0  0  0  0  0
  -22.7513   23.3802   -6.5063 C   0  0  0  0  0  0  0  0  0  0  0  0
  -23.0123   22.0942   -6.9176 C   0  0  0  0  0  0  0  0  0  0  0  0
  1  6  1  0
  1 15  2  0
 16  1  1  0
  2  4  2  0
 19  2  1  0
  2 20  1  0
 20  3  2  0
  3 21  1  0
  4 22  1  0
  5  6  2  0
 18  5  1  0
  8  7  1  0
  8  9  1  0
 12  8  2  0
 10  9  1  0
 11 10  2  0
 11 12  1  0
 13 11  1  0
 13 14  2  0
 17 13  1  0
 15 14  1  0
 16 17  2  0
 18 16  1  0
 19 18  1  6
 21 22  2  0
M  END
$$$$
