
     RDKit          3D

 22 25  0  0  0  0  0  0  0  0999 V2000
  -23.6496   18.8891  -13.1543 C   0  0  0  0  0  0  0  0  0  0  0  0
  -24.2098   20.1072   -8.9159 C   0  0  0  0  0  0  0  0  0  0  0  0
  -23.8645   19.4877   -6.6177 C   0  0  0  0  0  0  0  0  0  0  0  0
  -25.4526   19.5508   -8.9028 C   0  0  0  0  0  0  0  0  0  0  0  0
  -25.0730   20.2298  -12.0202 C   0  0  0  0  0  0  0  0  0  0  0  0
  -24.9045   19.4517  -13.1456 C   0  0  0  0  0  0  0  0  0  0  0  0
  -16.4250   16.1964  -12.8819 N   0  0  0  0  0  0  0  0  0  0  0  0
  -17.5854   16.8391  -12.3865 C   0  0  0  0  0  0  0  0  0  0  0  0
  -17.7802   17.3920  -11.1677 N   0  0  0  0  0  0  0  0  0  0  0  0
  -18.9971   17.8983  -11.0761 N   0  0  0  0  0  0  0  0  0  0  0  0
  -19.6672   17.7070  -12.2255 C   0  0  0  0  0  0  0  0  0  0  0  0
  -18.7956   17.0436  -13.0586 C   0  0  0  0  0  0  0  0  0  0  0  0
  -21.0353   18.1074  -12.5536 C   0  0  0  0  0  0  0  0  0  0  0  0
  -21.6653   17.6728  -13.6959 C   0  0  0  0  0  0  0  0  0  0  0  0
  -22.9531   18.0580  -13.9917 C   0  0  0  0  0  0  0  0  0  0  0  0
  -23.0369   19.3364  -12.0035 C   0  0  0  0  0  0  0  0  0  0  0  0
  -21.7267   18.9360  -11.7166 C   0  0  0  0  0  0  0  0  0  0  0  0
  -23.8936   20.1292  -11.3432 N   0  0  0  0  0  0  0  0  0  0  0  0
  -23.6075   20.7745  -10.0963 C   0  0  0  0  0  0  0  0  0  0  0  0
  -23.4123   20.0752   -7.7673 C   0  0  0  0  0  0  0  0  0  0  0  0
  -25.1185   18.9295   -6.6138 C   0  0  0  0  0  0  0  0  0  0  0  0
  -25.9123   18.9526   -7.7308 C   0  0  0  0  0  0  0  0  0  0  0  0
  1  6  1  0
  1 15  2  0
 16  1  1  0
  2  4  2  0
 19  2  1  0
  2 20  1  0
 20  3  2  0
  3 21  1  0
  4 22  1  0
  5  6  2  0
 18  5  1  0
  8  7  1  0
  8  9  1  0
 12  8  2  0
 10  9  1  0
 11 10  2  0
 11 12  1  0
 13 11  1  0
 13 14  2  0
 17 13  1  0
 15 14  1  0
 16 17  2  0
 18 16  1  0
 18 19  1  0
 21 22  2  0
M  END
$$$$
