
     RDKit          3D

 22 25  0  0  0  0  0  0  0  0999 V2000
  -20.9506   21.6830   -5.8450 C   0  0  0  0  0  0  0  0  0  0  0  0
  -23.0049   21.4871   -9.8615 C   0  0  0  0  0  0  0  0  0  0  0  0
  -24.3692   19.4755   -9.7017 C   0  0  0  0  0  0  0  0  0  0  0  0
  -23.7613   21.8886  -10.9418 C   0  0  0  0  0  0  0  0  0  0  0  0
  -22.7461   22.2541   -6.9974 C   0  0  0  0  0  0  0  0  0  0  0  0
  -22.2894   22.0017   -5.7421 C   0  0  0  0  0  0  0  0  0  0  0  0
  -14.4622   20.2715   -9.7434 N   0  0  0  0  0  0  0  0  0  0  0  0
  -15.2967   20.4868   -8.6163 C   0  0  0  0  0  0  0  0  0  0  0  0
  -14.8460   20.4791   -7.3489 N   0  0  0  0  0  0  0  0  0  0  0  0
  -15.8815   20.7105   -6.5686 N   0  0  0  0  0  0  0  0  0  0  0  0
  -17.0124   20.8731   -7.2729 C   0  0  0  0  0  0  0  0  0  0  0  0
  -16.6576   20.7326   -8.5968 C   0  0  0  0  0  0  0  0  0  0  0  0
  -18.3632   21.1465   -6.7442 C   0  0  0  0  0  0  0  0  0  0  0  0
  -18.6719   21.0738   -5.4073 C   0  0  0  0  0  0  0  0  0  0  0  0
  -19.9655   21.3404   -4.9434 C   0  0  0  0  0  0  0  0  0  0  0  0
  -20.6645   21.7624   -7.1924 C   0  0  0  0  0  0  0  0  0  0  0  0
  -19.3638   21.4903   -7.6217 C   0  0  0  0  0  0  0  0  0  0  0  0
  -21.7366   22.1046   -7.8922 N   0  0  0  0  0  0  0  0  0  0  0  0
  -21.8654   22.2927   -9.3222 C   0  0  0  0  0  0  0  0  0  0  0  0
  -23.3329   20.2683   -9.2564 C   0  0  0  0  0  0  0  0  0  0  0  0
  -25.1233   19.8832  -10.7847 C   0  0  0  0  0  0  0  0  0  0  0  0
  -24.8074   21.0796  -11.3846 C   0  0  0  0  0  0  0  0  0  0  0  0
  1  6  1  0
  1 15  2  0
 16  1  1  0
  2  4  2  0
 19  2  1  0
  2 20  1  0
 20  3  2  0
  3 21  1  0
  4 22  1  0
  5  6  2  0
 18  5  1  0
  8  7  1  0
  8  9  1  0
 12  8  2  0
 10  9  1  0
 11 10  2  0
 11 12  1  0
 13 11  1  0
 13 14  2  0
 17 13  1  0
 15 14  1  0
 16 17  2  0
 18 16  1  0
 19 18  1  6
 21 22  2  0
M  END
$$$$
