
     RDKit          3D

 22 25  0  0  0  0  0  0  0  0999 V2000
  -23.8157   19.1211  -12.1496 C   0  0  0  0  0  0  0  0  0  0  0  0
  -22.2140   22.5040   -9.7128 C   0  0  0  0  0  0  0  0  0  0  0  0
  -21.8197   24.6491   -8.6990 C   0  0  0  0  0  0  0  0  0  0  0  0
  -22.1436   23.0535  -10.9567 C   0  0  0  0  0  0  0  0  0  0  0  0
  -24.5961   20.5739  -10.6035 C   0  0  0  0  0  0  0  0  0  0  0  0
  -24.9320   19.7630  -11.6665 C   0  0  0  0  0  0  0  0  0  0  0  0
  -16.3437   17.2541  -12.0220 N   0  0  0  0  0  0  0  0  0  0  0  0
  -17.6539   17.2914  -12.5574 C   0  0  0  0  0  0  0  0  0  0  0  0
  -18.1005   16.7547  -13.7158 N   0  0  0  0  0  0  0  0  0  0  0  0
  -19.3893   16.9985  -13.8747 N   0  0  0  0  0  0  0  0  0  0  0  0
  -19.8596   17.7064  -12.8334 C   0  0  0  0  0  0  0  0  0  0  0  0
  -18.7834   17.8987  -11.9975 C   0  0  0  0  0  0  0  0  0  0  0  0
  -21.2225   18.1865  -12.6065 C   0  0  0  0  0  0  0  0  0  0  0  0
  -22.2784   17.7691  -13.3820 C   0  0  0  0  0  0  0  0  0  0  0  0
  -23.5557   18.2297  -13.1569 C   0  0  0  0  0  0  0  0  0  0  0  0
  -22.7716   19.5525  -11.3598 C   0  0  0  0  0  0  0  0  0  0  0  0
  -21.4781   19.0751  -11.6014 C   0  0  0  0  0  0  0  0  0  0  0  0
  -23.2509   20.4123  -10.4490 N   0  0  0  0  0  0  0  0  0  0  0  0
  -22.4572   21.0641   -9.4500 C   0  0  0  0  0  0  0  0  0  0  0  0
  -22.0512   23.3062   -8.5787 C   0  0  0  0  0  0  0  0  0  0  0  0
  -21.7502   25.1943   -9.9568 C   0  0  0  0  0  0  0  0  0  0  0  0
  -21.9077   24.4219  -11.0780 C   0  0  0  0  0  0  0  0  0  0  0  0
  1  6  1  0
  1 15  2  0
 16  1  1  0
  2  4  2  0
 19  2  1  0
  2 20  1  0
 20  3  2  0
  3 21  1  0
  4 22  1  0
  5  6  2  0
 18  5  1  0
  8  7  1  0
  8  9  1  0
 12  8  2  0
 10  9  1  0
 11 10  2  0
 11 12  1  0
 13 11  1  0
 13 14  2  0
 17 13  1  0
 15 14  1  0
 16 17  2  0
 18 16  1  0
 18 19  1  0
 21 22  2  0
M  END
$$$$
