
     RDKit          3D

 22 25  0  0  0  0  0  0  0  0999 V2000
  -23.9624   18.4156  -11.9423 C   0  0  0  0  0  0  0  0  0  0  0  0
  -22.7174   22.3308  -10.1944 C   0  0  0  0  0  0  0  0  0  0  0  0
  -22.5409   21.7210   -7.8745 C   0  0  0  0  0  0  0  0  0  0  0  0
  -22.6437   23.6528   -9.8759 C   0  0  0  0  0  0  0  0  0  0  0  0
  -24.9034   20.4238  -11.5051 C   0  0  0  0  0  0  0  0  0  0  0  0
  -25.1388   19.0764  -11.6761 C   0  0  0  0  0  0  0  0  0  0  0  0
  -16.3841   18.1134  -13.2878 N   0  0  0  0  0  0  0  0  0  0  0  0
  -17.6760   17.5783  -13.0654 C   0  0  0  0  0  0  0  0  0  0  0  0
  -18.0462   16.2784  -13.0138 N   0  0  0  0  0  0  0  0  0  0  0  0
  -19.3433   16.1732  -12.7859 N   0  0  0  0  0  0  0  0  0  0  0  0
  -19.8957   17.3936  -12.6754 C   0  0  0  0  0  0  0  0  0  0  0  0
  -18.8631   18.2867  -12.8483 C   0  0  0  0  0  0  0  0  0  0  0  0
  -21.2959   17.7346  -12.4246 C   0  0  0  0  0  0  0  0  0  0  0  0
  -22.2876   16.7821  -12.4288 C   0  0  0  0  0  0  0  0  0  0  0  0
  -23.6010   17.1178  -12.1912 C   0  0  0  0  0  0  0  0  0  0  0  0
  -22.9840   19.3864  -11.9332 C   0  0  0  0  0  0  0  0  0  0  0  0
  -21.6526   19.0293  -12.1768 C   0  0  0  0  0  0  0  0  0  0  0  0
  -23.5581   20.5701  -11.6726 N   0  0  0  0  0  0  0  0  0  0  0  0
  -22.8513   21.8129  -11.5783 C   0  0  0  0  0  0  0  0  0  0  0  0
  -22.6657   21.3606   -9.1883 C   0  0  0  0  0  0  0  0  0  0  0  0
  -22.4673   23.0558   -7.5629 C   0  0  0  0  0  0  0  0  0  0  0  0
  -22.5166   24.0188   -8.5371 C   0  0  0  0  0  0  0  0  0  0  0  0
  1  6  1  0
  1 15  2  0
 16  1  1  0
  2  4  2  0
 19  2  1  0
  2 20  1  0
 20  3  2  0
  3 21  1  0
  4 22  1  0
  5  6  2  0
 18  5  1  0
  8  7  1  0
  8  9  1  0
 12  8  2  0
 10  9  1  0
 11 10  2  0
 11 12  1  0
 13 11  1  0
 13 14  2  0
 17 13  1  0
 15 14  1  0
 16 17  2  0
 18 16  1  0
 18 19  1  0
 21 22  2  0
M  END
$$$$
