
     RDKit          3D

 22 25  0  0  0  0  0  0  0  0999 V2000
  -22.8075   19.4028  -14.0922 C   0  0  0  0  0  0  0  0  0  0  0  0
  -23.9968   20.4548   -9.9019 C   0  0  0  0  0  0  0  0  0  0  0  0
  -23.4833   22.8045   -9.9127 C   0  0  0  0  0  0  0  0  0  0  0  0
  -24.3805   20.5214   -8.5971 C   0  0  0  0  0  0  0  0  0  0  0  0
  -24.6597   20.0401  -12.9640 C   0  0  0  0  0  0  0  0  0  0  0  0
  -24.0338   20.0172  -14.1920 C   0  0  0  0  0  0  0  0  0  0  0  0
  -15.7716   16.5622  -12.7007 N   0  0  0  0  0  0  0  0  0  0  0  0
  -17.1642   16.7225  -12.5011 C   0  0  0  0  0  0  0  0  0  0  0  0
  -17.9506   16.1303  -11.5735 N   0  0  0  0  0  0  0  0  0  0  0  0
  -19.2029   16.5316  -11.7012 N   0  0  0  0  0  0  0  0  0  0  0  0
  -19.3088   17.4067  -12.7159 C   0  0  0  0  0  0  0  0  0  0  0  0
  -18.0385   17.5376  -13.2287 C   0  0  0  0  0  0  0  0  0  0  0  0
  -20.5070   18.0928  -13.1987 C   0  0  0  0  0  0  0  0  0  0  0  0
  -20.6522   18.4617  -14.5153 C   0  0  0  0  0  0  0  0  0  0  0  0
  -21.7854   19.1071  -14.9553 C   0  0  0  0  0  0  0  0  0  0  0  0
  -22.6827   19.0416  -12.7679 C   0  0  0  0  0  0  0  0  0  0  0  0
  -21.5239   18.3860  -12.3356 C   0  0  0  0  0  0  0  0  0  0  0  0
  -23.7883   19.4263  -12.1135 N   0  0  0  0  0  0  0  0  0  0  0  0
  -24.0204   19.2143  -10.7156 C   0  0  0  0  0  0  0  0  0  0  0  0
  -23.5461   21.6023  -10.5625 C   0  0  0  0  0  0  0  0  0  0  0  0
  -23.8721   22.8622   -8.5975 C   0  0  0  0  0  0  0  0  0  0  0  0
  -24.3161   21.7468   -7.9361 C   0  0  0  0  0  0  0  0  0  0  0  0
  1  6  1  0
  1 15  2  0
 16  1  1  0
  2  4  2  0
 19  2  1  0
  2 20  1  0
 20  3  2  0
  3 21  1  0
  4 22  1  0
  5  6  2  0
 18  5  1  0
  8  7  1  0
  8  9  1  0
 12  8  2  0
 10  9  1  0
 11 10  2  0
 11 12  1  0
 13 11  1  0
 13 14  2  0
 17 13  1  0
 15 14  1  0
 16 17  2  0
 18 16  1  0
 18 19  1  0
 21 22  2  0
M  END
$$$$
