
     RDKit          3D

 22 25  0  0  0  0  0  0  0  0999 V2000
  -23.9893   19.4244  -11.5594 C   0  0  0  0  0  0  0  0  0  0  0  0
  -22.4670   22.6948   -8.9753 C   0  0  0  0  0  0  0  0  0  0  0  0
  -22.3707   21.4719   -6.9066 C   0  0  0  0  0  0  0  0  0  0  0  0
  -22.1109   23.8446   -8.3385 C   0  0  0  0  0  0  0  0  0  0  0  0
  -24.8502   21.3278  -10.6959 C   0  0  0  0  0  0  0  0  0  0  0  0
  -25.1410   20.0654  -11.1669 C   0  0  0  0  0  0  0  0  0  0  0  0
  -17.2283   16.1571  -13.3296 N   0  0  0  0  0  0  0  0  0  0  0  0
  -18.1022   17.2171  -12.9864 C   0  0  0  0  0  0  0  0  0  0  0  0
  -17.8022   18.5231  -12.8026 N   0  0  0  0  0  0  0  0  0  0  0  0
  -18.8870   19.2097  -12.4903 N   0  0  0  0  0  0  0  0  0  0  0  0
  -19.9562   18.3961  -12.4517 C   0  0  0  0  0  0  0  0  0  0  0  0
  -19.4811   17.1420  -12.7607 C   0  0  0  0  0  0  0  0  0  0  0  0
  -21.3453   18.7398  -12.1485 C   0  0  0  0  0  0  0  0  0  0  0  0
  -22.3778   17.8613  -12.3779 C   0  0  0  0  0  0  0  0  0  0  0  0
  -23.6802   18.1987  -12.0877 C   0  0  0  0  0  0  0  0  0  0  0  0
  -22.9693   20.3203  -11.3212 C   0  0  0  0  0  0  0  0  0  0  0  0
  -21.6498   19.9625  -11.6218 C   0  0  0  0  0  0  0  0  0  0  0  0
  -23.4962   21.4425  -10.8097 N   0  0  0  0  0  0  0  0  0  0  0  0
  -22.7373   22.5973  -10.4310 C   0  0  0  0  0  0  0  0  0  0  0  0
  -22.5975   21.5029   -8.2552 C   0  0  0  0  0  0  0  0  0  0  0  0
  -22.0121   22.6356   -6.2731 C   0  0  0  0  0  0  0  0  0  0  0  0
  -21.8801   23.8117   -6.9643 C   0  0  0  0  0  0  0  0  0  0  0  0
  1  6  1  0
  1 15  2  0
 16  1  1  0
  2  4  2  0
 19  2  1  0
  2 20  1  0
 20  3  2  0
  3 21  1  0
  4 22  1  0
  5  6  2  0
 18  5  1  0
  8  7  1  0
  8  9  1  0
 12  8  2  0
 10  9  1  0
 11 10  2  0
 11 12  1  0
 13 11  1  0
 13 14  2  0
 17 13  1  0
 15 14  1  0
 16 17  2  0
 18 16  1  0
 18 19  1  0
 21 22  2  0
M  END
$$$$
