
     RDKit          3D

 22 25  0  0  0  0  0  0  0  0999 V2000
  -23.5677   19.1079  -11.3324 C   0  0  0  0  0  0  0  0  0  0  0  0
  -22.4579   23.1322   -9.5455 C   0  0  0  0  0  0  0  0  0  0  0  0
  -21.9395   23.0540   -7.1982 C   0  0  0  0  0  0  0  0  0  0  0  0
  -23.1238   24.3088   -9.3824 C   0  0  0  0  0  0  0  0  0  0  0  0
  -24.3877   21.1060  -10.6655 C   0  0  0  0  0  0  0  0  0  0  0  0
  -24.6877   19.7821  -10.9052 C   0  0  0  0  0  0  0  0  0  0  0  0
  -17.0533   15.7859  -13.7915 N   0  0  0  0  0  0  0  0  0  0  0  0
  -17.8609   16.8360  -13.2915 C   0  0  0  0  0  0  0  0  0  0  0  0
  -17.4942   18.1016  -12.9865 N   0  0  0  0  0  0  0  0  0  0  0  0
  -18.5305   18.7923  -12.5454 N   0  0  0  0  0  0  0  0  0  0  0  0
  -19.6318   18.0219  -12.5360 C   0  0  0  0  0  0  0  0  0  0  0  0
  -19.2291   16.7910  -13.0013 C   0  0  0  0  0  0  0  0  0  0  0  0
  -20.9875   18.3850  -12.1240 C   0  0  0  0  0  0  0  0  0  0  0  0
  -22.0091   17.4651  -12.0954 C   0  0  0  0  0  0  0  0  0  0  0  0
  -23.2801   17.8214  -11.7054 C   0  0  0  0  0  0  0  0  0  0  0  0
  -22.5582   20.0460  -11.3535 C   0  0  0  0  0  0  0  0  0  0  0  0
  -21.2708   19.6684  -11.7527 C   0  0  0  0  0  0  0  0  0  0  0  0
  -23.0606   21.2241  -10.9556 N   0  0  0  0  0  0  0  0  0  0  0  0
  -22.3029   22.4353  -10.8462 C   0  0  0  0  0  0  0  0  0  0  0  0
  -21.8631   22.5022   -8.4476 C   0  0  0  0  0  0  0  0  0  0  0  0
  -22.6126   24.2402   -7.0433 C   0  0  0  0  0  0  0  0  0  0  0  0
  -23.2009   24.8702   -8.1090 C   0  0  0  0  0  0  0  0  0  0  0  0
  1  6  1  0
  1 15  2  0
 16  1  1  0
  2  4  2  0
 19  2  1  0
  2 20  1  0
 20  3  2  0
  3 21  1  0
  4 22  1  0
  5  6  2  0
 18  5  1  0
  8  7  1  0
  8  9  1  0
 12  8  2  0
 10  9  1  0
 11 10  2  0
 11 12  1  0
 13 11  1  0
 13 14  2  0
 17 13  1  0
 15 14  1  0
 16 17  2  0
 18 16  1  0
 18 19  1  0
 21 22  2  0
M  END
$$$$
