
     RDKit          3D

 22 25  0  0  0  0  0  0  0  0999 V2000
  -23.0360   18.9249  -13.3798 C   0  0  0  0  0  0  0  0  0  0  0  0
  -23.7021   21.2721   -9.5241 C   0  0  0  0  0  0  0  0  0  0  0  0
  -25.2302   23.0498  -10.1860 C   0  0  0  0  0  0  0  0  0  0  0  0
  -23.6164   21.8412   -8.2715 C   0  0  0  0  0  0  0  0  0  0  0  0
  -24.3733   19.9482  -11.9506 C   0  0  0  0  0  0  0  0  0  0  0  0
  -24.2838   19.4949  -13.2291 C   0  0  0  0  0  0  0  0  0  0  0  0
  -15.7256   16.3973  -13.5285 N   0  0  0  0  0  0  0  0  0  0  0  0
  -16.9864   16.7814  -13.0031 C   0  0  0  0  0  0  0  0  0  0  0  0
  -17.2778   16.7642  -11.6900 N   0  0  0  0  0  0  0  0  0  0  0  0
  -18.5218   17.1782  -11.5643 N   0  0  0  0  0  0  0  0  0  0  0  0
  -19.0737   17.4724  -12.7519 C   0  0  0  0  0  0  0  0  0  0  0  0
  -18.0999   17.2235  -13.6942 C   0  0  0  0  0  0  0  0  0  0  0  0
  -20.4428   17.9628  -13.0043 C   0  0  0  0  0  0  0  0  0  0  0  0
  -21.0726   17.8309  -14.2183 C   0  0  0  0  0  0  0  0  0  0  0  0
  -22.3727   18.3090  -14.4197 C   0  0  0  0  0  0  0  0  0  0  0  0
  -22.4241   19.0690  -12.1516 C   0  0  0  0  0  0  0  0  0  0  0  0
  -21.1265   18.5807  -11.9844 C   0  0  0  0  0  0  0  0  0  0  0  0
  -23.2195   19.6824  -11.2871 N   0  0  0  0  0  0  0  0  0  0  0  0
  -22.9629   20.0282   -9.9045 C   0  0  0  0  0  0  0  0  0  0  0  0
  -24.5217   21.9013  -10.4683 C   0  0  0  0  0  0  0  0  0  0  0  0
  -25.1401   23.6153   -8.9290 C   0  0  0  0  0  0  0  0  0  0  0  0
  -24.3369   23.0030   -7.9957 C   0  0  0  0  0  0  0  0  0  0  0  0
  1  6  1  0
  1 15  2  0
 16  1  1  0
  2  4  2  0
 19  2  1  0
  2 20  1  0
 20  3  2  0
  3 21  1  0
  4 22  1  0
  5  6  2  0
 18  5  1  0
  8  7  1  0
  8  9  1  0
 12  8  2  0
 10  9  1  0
 11 10  2  0
 11 12  1  0
 13 11  1  0
 13 14  2  0
 17 13  1  0
 15 14  1  0
 16 17  2  0
 18 16  1  0
 19 18  1  6
 21 22  2  0
M  END
$$$$
