
     RDKit          3D

 22 25  0  0  0  0  0  0  0  0999 V2000
  -23.1952   18.7476  -13.2693 C   0  0  0  0  0  0  0  0  0  0  0  0
  -23.5516   21.3969   -9.5910 C   0  0  0  0  0  0  0  0  0  0  0  0
  -24.6027   23.4132  -10.4645 C   0  0  0  0  0  0  0  0  0  0  0  0
  -23.6359   21.9284   -8.3219 C   0  0  0  0  0  0  0  0  0  0  0  0
  -24.4790   19.8191  -11.8265 C   0  0  0  0  0  0  0  0  0  0  0  0
  -24.4480   19.2949  -13.0803 C   0  0  0  0  0  0  0  0  0  0  0  0
  -15.7923   16.5418  -13.6803 N   0  0  0  0  0  0  0  0  0  0  0  0
  -17.0567   16.8446  -13.1123 C   0  0  0  0  0  0  0  0  0  0  0  0
  -17.3187   16.7515  -11.7962 N   0  0  0  0  0  0  0  0  0  0  0  0
  -18.5763   17.1041  -11.6262 N   0  0  0  0  0  0  0  0  0  0  0  0
  -19.1657   17.4307  -12.7869 C   0  0  0  0  0  0  0  0  0  0  0  0
  -18.2028   17.2702  -13.7591 C   0  0  0  0  0  0  0  0  0  0  0  0
  -20.5598   17.8722  -12.9883 C   0  0  0  0  0  0  0  0  0  0  0  0
  -21.2520   17.6550  -14.1552 C   0  0  0  0  0  0  0  0  0  0  0  0
  -22.5739   18.0889  -14.3089 C   0  0  0  0  0  0  0  0  0  0  0  0
  -22.5205   18.9774  -12.0880 C   0  0  0  0  0  0  0  0  0  0  0  0
  -21.2026   18.5313  -11.9676 C   0  0  0  0  0  0  0  0  0  0  0  0
  -23.2834   19.6203  -11.2157 N   0  0  0  0  0  0  0  0  0  0  0  0
  -22.9602   20.0516   -9.8716 C   0  0  0  0  0  0  0  0  0  0  0  0
  -24.0459   22.1659  -10.6510 C   0  0  0  0  0  0  0  0  0  0  0  0
  -24.6844   23.9403   -9.1904 C   0  0  0  0  0  0  0  0  0  0  0  0
  -24.2009   23.1909   -8.1436 C   0  0  0  0  0  0  0  0  0  0  0  0
  1  6  1  0
  1 15  2  0
 16  1  1  0
  2  4  2  0
 19  2  1  0
  2 20  1  0
 20  3  2  0
  3 21  1  0
  4 22  1  0
  5  6  2  0
 18  5  1  0
  8  7  1  0
  8  9  1  0
 12  8  2  0
 10  9  1  0
 11 10  2  0
 11 12  1  0
 13 11  1  0
 13 14  2  0
 17 13  1  0
 15 14  1  0
 16 17  2  0
 18 16  1  0
 19 18  1  6
 21 22  2  0
M  END
$$$$
