
     RDKit          3D

 22 25  0  0  0  0  0  0  0  0999 V2000
  -23.8134   20.7284  -12.1745 C   0  0  0  0  0  0  0  0  0  0  0  0
  -25.7808   18.4162   -8.8774 C   0  0  0  0  0  0  0  0  0  0  0  0
  -27.7135   17.5274  -10.0640 C   0  0  0  0  0  0  0  0  0  0  0  0
  -26.2158   17.7787   -7.7351 C   0  0  0  0  0  0  0  0  0  0  0  0
  -25.3093   20.9421  -10.5638 C   0  0  0  0  0  0  0  0  0  0  0  0
  -24.9419   21.4194  -11.7825 C   0  0  0  0  0  0  0  0  0  0  0  0
  -17.4686   16.5470  -13.6350 N   0  0  0  0  0  0  0  0  0  0  0  0
  -18.6388   16.9955  -12.9696 C   0  0  0  0  0  0  0  0  0  0  0  0
  -19.0933   16.4542  -11.8250 N   0  0  0  0  0  0  0  0  0  0  0  0
  -20.1872   17.1093  -11.4950 N   0  0  0  0  0  0  0  0  0  0  0  0
  -20.4805   18.0727  -12.3822 C   0  0  0  0  0  0  0  0  0  0  0  0
  -19.4938   18.0167  -13.3422 C   0  0  0  0  0  0  0  0  0  0  0  0
  -21.6242   19.0051  -12.3437 C   0  0  0  0  0  0  0  0  0  0  0  0
  -21.9021   19.8901  -13.3573 C   0  0  0  0  0  0  0  0  0  0  0  0
  -22.9968   20.7596  -13.2848 C   0  0  0  0  0  0  0  0  0  0  0  0
  -23.5543   19.8484  -11.1439 C   0  0  0  0  0  0  0  0  0  0  0  0
  -22.4542   18.9946  -11.2481 C   0  0  0  0  0  0  0  0  0  0  0  0
  -24.4473   19.9696  -10.1723 N   0  0  0  0  0  0  0  0  0  0  0  0
  -24.5343   19.2422   -8.9231 C   0  0  0  0  0  0  0  0  0  0  0  0
  -26.5540   18.2726  -10.0353 C   0  0  0  0  0  0  0  0  0  0  0  0
  -28.1441   16.8910   -8.9162 C   0  0  0  0  0  0  0  0  0  0  0  0
  -27.3899   17.0272   -7.7744 C   0  0  0  0  0  0  0  0  0  0  0  0
  1  6  1  0
  1 15  2  0
 16  1  1  0
  2  4  2  0
 19  2  1  0
  2 20  1  0
 20  3  2  0
  3 21  1  0
  4 22  1  0
  5  6  2  0
 18  5  1  0
  8  7  1  0
  8  9  1  0
 12  8  2  0
 10  9  1  0
 11 10  2  0
 11 12  1  0
 13 11  1  0
 13 14  2  0
 17 13  1  0
 15 14  1  0
 16 17  2  0
 18 16  1  0
 19 18  1  6
 21 22  2  0
M  END
$$$$
