
     RDKit          3D

 22 25  0  0  0  0  0  0  0  0999 V2000
  -23.2439   21.8146  -10.9639 C   0  0  0  0  0  0  0  0  0  0  0  0
  -26.1313   18.6512   -9.7701 C   0  0  0  0  0  0  0  0  0  0  0  0
  -27.4528   16.9589   -8.6863 C   0  0  0  0  0  0  0  0  0  0  0  0
  -25.6823   19.1034   -8.5667 C   0  0  0  0  0  0  0  0  0  0  0  0
  -25.4881   21.6721  -10.7332 C   0  0  0  0  0  0  0  0  0  0  0  0
  -24.4009   22.5197  -10.7279 C   0  0  0  0  0  0  0  0  0  0  0  0
  -19.1679   15.6872  -13.2420 N   0  0  0  0  0  0  0  0  0  0  0  0
  -19.3933   16.8997  -12.5463 C   0  0  0  0  0  0  0  0  0  0  0  0
  -18.5411   17.5732  -11.7404 N   0  0  0  0  0  0  0  0  0  0  0  0
  -19.1128   18.6677  -11.2705 N   0  0  0  0  0  0  0  0  0  0  0  0
  -20.3679   18.7739  -11.7397 C   0  0  0  0  0  0  0  0  0  0  0  0
  -20.5598   17.6724  -12.5420 C   0  0  0  0  0  0  0  0  0  0  0  0
  -21.3484   19.8261  -11.4730 C   0  0  0  0  0  0  0  0  0  0  0  0
  -20.9786   21.1412  -11.3171 C   0  0  0  0  0  0  0  0  0  0  0  0
  -21.9125   22.1207  -11.0664 C   0  0  0  0  0  0  0  0  0  0  0  0
  -23.6365   20.5023  -11.1170 C   0  0  0  0  0  0  0  0  0  0  0  0
  -22.6749   19.5175  -11.3715 C   0  0  0  0  0  0  0  0  0  0  0  0
  -24.9687   20.4352  -10.9776 N   0  0  0  0  0  0  0  0  0  0  0  0
  -25.7366   19.2297  -11.0781 C   0  0  0  0  0  0  0  0  0  0  0  0
  -27.0209   17.5736   -9.8296 C   0  0  0  0  0  0  0  0  0  0  0  0
  -26.9949   17.4215   -7.4778 C   0  0  0  0  0  0  0  0  0  0  0  0
  -26.1230   18.4764   -7.4025 C   0  0  0  0  0  0  0  0  0  0  0  0
  1  6  1  0
  1 15  2  0
 16  1  1  0
  2  4  2  0
 19  2  1  0
  2 20  1  0
 20  3  2  0
  3 21  1  0
  4 22  1  0
  5  6  2  0
 18  5  1  0
  8  7  1  0
  8  9  1  0
 12  8  2  0
 10  9  1  0
 11 10  2  0
 11 12  1  0
 13 11  1  0
 13 14  2  0
 17 13  1  0
 15 14  1  0
 16 17  2  0
 18 16  1  0
 18 19  1  0
 21 22  2  0
M  END
$$$$
