
     RDKit          3D

 22 25  0  0  0  0  0  0  0  0999 V2000
  -13.3548    7.1850  -28.5799 C   0  0  0  0  0  0  0  0  0  0  0  0
   -9.5525    4.9206  -28.3049 C   0  0  0  0  0  0  0  0  0  0  0  0
   -7.8733    3.2859  -27.6407 C   0  0  0  0  0  0  0  0  0  0  0  0
  -10.5227    4.1234  -27.7361 C   0  0  0  0  0  0  0  0  0  0  0  0
  -12.1458    5.8837  -29.8926 C   0  0  0  0  0  0  0  0  0  0  0  0
  -13.4121    6.3139  -29.6489 C   0  0  0  0  0  0  0  0  0  0  0  0
  -12.2744   11.7978  -22.4623 N   0  0  0  0  0  0  0  0  0  0  0  0
  -11.9635   10.9618  -23.5658 C   0  0  0  0  0  0  0  0  0  0  0  0
  -10.7056   10.6636  -23.9375 N   0  0  0  0  0  0  0  0  0  0  0  0
  -10.7897    9.8733  -24.9878 N   0  0  0  0  0  0  0  0  0  0  0  0
  -12.0645    9.6323  -25.3319 C   0  0  0  0  0  0  0  0  0  0  0  0
  -12.8386   10.3252  -24.4271 C   0  0  0  0  0  0  0  0  0  0  0  0
  -12.5459    8.7969  -26.4496 C   0  0  0  0  0  0  0  0  0  0  0  0
  -13.8676    8.7314  -26.8191 C   0  0  0  0  0  0  0  0  0  0  0  0
  -14.2863    7.9270  -27.8855 C   0  0  0  0  0  0  0  0  0  0  0  0
  -12.0219    7.2344  -28.2273 C   0  0  0  0  0  0  0  0  0  0  0  0
  -11.6378    8.0471  -27.1586 C   0  0  0  0  0  0  0  0  0  0  0  0
  -11.2883    6.4562  -29.0099 N   0  0  0  0  0  0  0  0  0  0  0  0
   -9.8597    6.2221  -28.9756 C   0  0  0  0  0  0  0  0  0  0  0  0
   -8.2272    4.4747  -28.2424 C   0  0  0  0  0  0  0  0  0  0  0  0
   -8.8500    2.4915  -27.0726 C   0  0  0  0  0  0  0  0  0  0  0  0
  -10.1546    2.9226  -27.1298 C   0  0  0  0  0  0  0  0  0  0  0  0
  1  6  1  0
  1 15  2  0
 16  1  1  0
  2  4  2  0
 19  2  1  0
  2 20  1  0
 20  3  2  0
  3 21  1  0
  4 22  1  0
  5  6  2  0
 18  5  1  0
  8  7  1  0
  8  9  1  0
 12  8  2  0
 10  9  1  0
 11 10  2  0
 11 12  1  0
 13 11  1  0
 13 14  2  0
 17 13  1  0
 15 14  1  0
 16 17  2  0
 18 16  1  0
 19 18  1  6
 21 22  2  0
M  END
$$$$
