
     RDKit          3D

 22 25  0  0  0  0  0  0  0  0999 V2000
  -23.2596   18.7474  -12.6814 C   0  0  0  0  0  0  0  0  0  0  0  0
  -23.2136   21.8697   -9.3443 C   0  0  0  0  0  0  0  0  0  0  0  0
  -23.6461   23.6808   -7.7739 C   0  0  0  0  0  0  0  0  0  0  0  0
  -24.1957   22.3776  -10.1676 C   0  0  0  0  0  0  0  0  0  0  0  0
  -24.2822   20.0565  -11.2258 C   0  0  0  0  0  0  0  0  0  0  0  0
  -24.4729   19.3152  -12.3492 C   0  0  0  0  0  0  0  0  0  0  0  0
  -16.0461   16.3426  -14.1093 N   0  0  0  0  0  0  0  0  0  0  0  0
  -17.1601   16.8405  -13.3852 C   0  0  0  0  0  0  0  0  0  0  0  0
  -17.1089   17.1696  -12.0819 N   0  0  0  0  0  0  0  0  0  0  0  0
  -18.3098   17.5904  -11.7417 N   0  0  0  0  0  0  0  0  0  0  0  0
  -19.1645   17.5537  -12.7760 C   0  0  0  0  0  0  0  0  0  0  0  0
  -18.4430   17.0728  -13.8467 C   0  0  0  0  0  0  0  0  0  0  0  0
  -20.5873   17.9466  -12.7740 C   0  0  0  0  0  0  0  0  0  0  0  0
  -21.4822   17.5202  -13.7254 C   0  0  0  0  0  0  0  0  0  0  0  0
  -22.8249   17.9145  -13.6903 C   0  0  0  0  0  0  0  0  0  0  0  0
  -22.3794   19.1887  -11.7148 C   0  0  0  0  0  0  0  0  0  0  0  0
  -21.0467   18.7764  -11.7791 C   0  0  0  0  0  0  0  0  0  0  0  0
  -22.9844   19.9753  -10.8366 N   0  0  0  0  0  0  0  0  0  0  0  0
  -22.4256   20.6429   -9.6795 C   0  0  0  0  0  0  0  0  0  0  0  0
  -22.9577   22.5457   -8.1456 C   0  0  0  0  0  0  0  0  0  0  0  0
  -24.6290   24.1848   -8.6031 C   0  0  0  0  0  0  0  0  0  0  0  0
  -24.8864   23.5264   -9.7827 C   0  0  0  0  0  0  0  0  0  0  0  0
  1  6  1  0
  1 15  2  0
 16  1  1  0
  2  4  2  0
 19  2  1  0
  2 20  1  0
 20  3  2  0
  3 21  1  0
  4 22  1  0
  5  6  2  0
 18  5  1  0
  8  7  1  0
  8  9  1  0
 12  8  2  0
 10  9  1  0
 11 10  2  0
 11 12  1  0
 13 11  1  0
 13 14  2  0
 17 13  1  0
 15 14  1  0
 16 17  2  0
 18 16  1  0
 19 18  1  6
 21 22  2  0
M  END
$$$$
