
     RDKit          3D

 22 25  0  0  0  0  0  0  0  0999 V2000
  -23.8951   20.4340  -12.2897 C   0  0  0  0  0  0  0  0  0  0  0  0
  -22.4797   22.0930   -8.4216 C   0  0  0  0  0  0  0  0  0  0  0  0
  -21.4793   24.1135   -9.2591 C   0  0  0  0  0  0  0  0  0  0  0  0
  -22.0182   22.3571   -7.1680 C   0  0  0  0  0  0  0  0  0  0  0  0
  -24.8478   21.5671  -10.5813 C   0  0  0  0  0  0  0  0  0  0  0  0
  -24.9233   21.2717  -11.9257 C   0  0  0  0  0  0  0  0  0  0  0  0
  -17.4574   16.4555  -13.7840 N   0  0  0  0  0  0  0  0  0  0  0  0
  -18.5609   16.8856  -13.0081 C   0  0  0  0  0  0  0  0  0  0  0  0
  -18.8900   16.5227  -11.7474 N   0  0  0  0  0  0  0  0  0  0  0  0
  -19.9932   17.1378  -11.3596 N   0  0  0  0  0  0  0  0  0  0  0  0
  -20.4488   17.9361  -12.3402 C   0  0  0  0  0  0  0  0  0  0  0  0
  -19.5615   17.7897  -13.3819 C   0  0  0  0  0  0  0  0  0  0  0  0
  -21.6344   18.7927  -12.3333 C   0  0  0  0  0  0  0  0  0  0  0  0
  -22.3686   19.0264  -13.4721 C   0  0  0  0  0  0  0  0  0  0  0  0
  -23.4822   19.8350  -13.4505 C   0  0  0  0  0  0  0  0  0  0  0  0
  -23.1737   20.2130  -11.1362 C   0  0  0  0  0  0  0  0  0  0  0  0
  -22.0432   19.3883  -11.1743 C   0  0  0  0  0  0  0  0  0  0  0  0
  -23.7513   20.8912  -10.1337 N   0  0  0  0  0  0  0  0  0  0  0  0
  -23.2817   20.8972   -8.7800 C   0  0  0  0  0  0  0  0  0  0  0  0
  -22.2086   22.9758   -9.4720 C   0  0  0  0  0  0  0  0  0  0  0  0
  -21.0183   24.3717   -7.9923 C   0  0  0  0  0  0  0  0  0  0  0  0
  -21.2753   23.5166   -6.9524 C   0  0  0  0  0  0  0  0  0  0  0  0
  1  6  1  0
  1 15  2  0
 16  1  1  0
  2  4  2  0
 19  2  1  0
  2 20  1  0
 20  3  2  0
  3 21  1  0
  4 22  1  0
  5  6  2  0
 18  5  1  0
  8  7  1  0
  8  9  1  0
 12  8  2  0
 10  9  1  0
 11 10  2  0
 11 12  1  0
 13 11  1  0
 13 14  2  0
 17 13  1  0
 15 14  1  0
 16 17  2  0
 18 16  1  0
 18 19  1  0
 21 22  2  0
M  END
$$$$
