
     RDKit          3D

 22 25  0  0  0  0  0  0  0  0999 V2000
  -23.8807   19.8076  -11.2329 C   0  0  0  0  0  0  0  0  0  0  0  0
  -22.0938   23.3519   -9.1731 C   0  0  0  0  0  0  0  0  0  0  0  0
  -21.6311   25.1496   -7.6438 C   0  0  0  0  0  0  0  0  0  0  0  0
  -22.0287   22.4436   -8.1607 C   0  0  0  0  0  0  0  0  0  0  0  0
  -24.5504   21.8255  -10.4653 C   0  0  0  0  0  0  0  0  0  0  0  0
  -24.9477   20.5409  -10.7688 C   0  0  0  0  0  0  0  0  0  0  0  0
  -17.5687   16.0651  -13.6145 N   0  0  0  0  0  0  0  0  0  0  0  0
  -18.3295   17.1857  -13.2021 C   0  0  0  0  0  0  0  0  0  0  0  0
  -17.9245   18.4692  -13.0684 N   0  0  0  0  0  0  0  0  0  0  0  0
  -18.9232   19.2317  -12.6602 N   0  0  0  0  0  0  0  0  0  0  0  0
  -20.0361   18.4944  -12.5034 C   0  0  0  0  0  0  0  0  0  0  0  0
  -19.6808   17.2081  -12.8393 C   0  0  0  0  0  0  0  0  0  0  0  0
  -21.3612   18.9360  -12.0688 C   0  0  0  0  0  0  0  0  0  0  0  0
  -22.4480   18.0938  -12.0817 C   0  0  0  0  0  0  0  0  0  0  0  0
  -23.6891   18.5234  -11.6699 C   0  0  0  0  0  0  0  0  0  0  0  0
  -22.8045   20.6685  -11.2117 C   0  0  0  0  0  0  0  0  0  0  0  0
  -21.5486   20.2169  -11.6338 C   0  0  0  0  0  0  0  0  0  0  0  0
  -23.2183   21.8594  -10.7543 N   0  0  0  0  0  0  0  0  0  0  0  0
  -22.3730   23.0044  -10.5883 C   0  0  0  0  0  0  0  0  0  0  0  0
  -21.8938   24.7115   -8.9128 C   0  0  0  0  0  0  0  0  0  0  0  0
  -21.5674   24.2270   -6.6295 C   0  0  0  0  0  0  0  0  0  0  0  0
  -21.7610   22.8912   -6.8681 C   0  0  0  0  0  0  0  0  0  0  0  0
  1  6  1  0
  1 15  2  0
 16  1  1  0
  2  4  2  0
 19  2  1  0
  2 20  1  0
 20  3  2  0
  3 21  1  0
  4 22  1  0
  5  6  2  0
 18  5  1  0
  8  7  1  0
  8  9  1  0
 12  8  2  0
 10  9  1  0
 11 10  2  0
 11 12  1  0
 13 11  1  0
 13 14  2  0
 17 13  1  0
 15 14  1  0
 16 17  2  0
 18 16  1  0
 18 19  1  0
 21 22  2  0
M  END
$$$$
