
     RDKit          3D

 22 25  0  0  0  0  0  0  0  0999 V2000
  -12.5559    9.7587  -28.6177 C   0  0  0  0  0  0  0  0  0  0  0  0
  -10.8338    5.6716  -28.7015 C   0  0  0  0  0  0  0  0  0  0  0  0
   -9.4642    3.6965  -28.7887 C   0  0  0  0  0  0  0  0  0  0  0  0
   -9.7283    6.4665  -28.7171 C   0  0  0  0  0  0  0  0  0  0  0  0
  -12.3526    8.1320  -30.1741 C   0  0  0  0  0  0  0  0  0  0  0  0
  -12.4826    9.4883  -29.9641 C   0  0  0  0  0  0  0  0  0  0  0  0
  -12.7598   10.7859  -20.9741 N   0  0  0  0  0  0  0  0  0  0  0  0
  -12.7417   10.0429  -22.1794 C   0  0  0  0  0  0  0  0  0  0  0  0
  -12.7684    8.6997  -22.3352 N   0  0  0  0  0  0  0  0  0  0  0  0
  -12.7382    8.3797  -23.6167 N   0  0  0  0  0  0  0  0  0  0  0  0
  -12.6902    9.4907  -24.3716 C   0  0  0  0  0  0  0  0  0  0  0  0
  -12.6917   10.5434  -23.4852 C   0  0  0  0  0  0  0  0  0  0  0  0
  -12.6449    9.5934  -25.8300 C   0  0  0  0  0  0  0  0  0  0  0  0
  -12.7304   10.8042  -26.4761 C   0  0  0  0  0  0  0  0  0  0  0  0
  -12.6865   10.8854  -27.8493 C   0  0  0  0  0  0  0  0  0  0  0  0
  -12.4683    8.5346  -27.9904 C   0  0  0  0  0  0  0  0  0  0  0  0
  -12.5146    8.4682  -26.5929 C   0  0  0  0  0  0  0  0  0  0  0  0
  -12.3482    7.5817  -28.9265 N   0  0  0  0  0  0  0  0  0  0  0  0
  -12.2263    6.1812  -28.6495 C   0  0  0  0  0  0  0  0  0  0  0  0
  -10.7005    4.2798  -28.7374 C   0  0  0  0  0  0  0  0  0  0  0  0
   -8.3555    4.5055  -28.8042 C   0  0  0  0  0  0  0  0  0  0  0  0
   -8.4692    5.8710  -28.7694 C   0  0  0  0  0  0  0  0  0  0  0  0
  1  6  1  0
  1 15  2  0
 16  1  1  0
  2  4  2  0
 19  2  1  0
  2 20  1  0
 20  3  2  0
  3 21  1  0
  4 22  1  0
  5  6  2  0
 18  5  1  0
  8  7  1  0
  8  9  1  0
 12  8  2  0
 10  9  1  0
 11 10  2  0
 11 12  1  0
 13 11  1  0
 13 14  2  0
 17 13  1  0
 15 14  1  0
 16 17  2  0
 18 16  1  0
 18 19  1  0
 21 22  2  0
M  END
$$$$
