
     RDKit          3D

 22 25  0  0  0  0  0  0  0  0999 V2000
  -23.1909   20.5195  -10.5066 C   0  0  0  0  0  0  0  0  0  0  0  0
  -21.1441   23.8585   -8.1220 C   0  0  0  0  0  0  0  0  0  0  0  0
  -22.6883   24.4388   -6.3298 C   0  0  0  0  0  0  0  0  0  0  0  0
  -20.4433   25.0174   -7.8646 C   0  0  0  0  0  0  0  0  0  0  0  0
  -23.1783   22.3562   -9.2801 C   0  0  0  0  0  0  0  0  0  0  0  0
  -23.9914   21.4109   -9.8217 C   0  0  0  0  0  0  0  0  0  0  0  0
  -18.0990   16.0147  -14.2017 N   0  0  0  0  0  0  0  0  0  0  0  0
  -18.5959   17.0606  -13.3817 C   0  0  0  0  0  0  0  0  0  0  0  0
  -17.8046   17.9500  -12.7554 N   0  0  0  0  0  0  0  0  0  0  0  0
  -18.5936   18.7685  -12.0902 N   0  0  0  0  0  0  0  0  0  0  0  0
  -19.8889   18.4558  -12.2508 C   0  0  0  0  0  0  0  0  0  0  0  0
  -19.9130   17.3564  -13.0808 C   0  0  0  0  0  0  0  0  0  0  0  0
  -21.0542   19.1443  -11.6618 C   0  0  0  0  0  0  0  0  0  0  0  0
  -22.3442   18.6974  -11.8173 C   0  0  0  0  0  0  0  0  0  0  0  0
  -23.4244   19.3778  -11.2432 C   0  0  0  0  0  0  0  0  0  0  0  0
  -21.9041   20.9876  -10.3367 C   0  0  0  0  0  0  0  0  0  0  0  0
  -20.8492   20.2850  -10.9228 C   0  0  0  0  0  0  0  0  0  0  0  0
  -21.8867   22.0901   -9.6017 N   0  0  0  0  0  0  0  0  0  0  0  0
  -20.7519   22.8924   -9.1949 C   0  0  0  0  0  0  0  0  0  0  0  0
  -22.2700   23.5922   -7.3343 C   0  0  0  0  0  0  0  0  0  0  0  0
  -21.9820   25.5985   -6.0768 C   0  0  0  0  0  0  0  0  0  0  0  0
  -20.8745   25.8673   -6.8464 C   0  0  0  0  0  0  0  0  0  0  0  0
  1  6  1  0
  1 15  2  0
 16  1  1  0
  2  4  2  0
 19  2  1  0
  2 20  1  0
 20  3  2  0
  3 21  1  0
  4 22  1  0
  5  6  2  0
 18  5  1  0
  8  7  1  0
  8  9  1  0
 12  8  2  0
 10  9  1  0
 11 10  2  0
 11 12  1  0
 13 11  1  0
 13 14  2  0
 17 13  1  0
 15 14  1  0
 16 17  2  0
 18 16  1  0
 19 18  1  6
 21 22  2  0
M  END
$$$$
