
     RDKit          3D

 22 25  0  0  0  0  0  0  0  0999 V2000
  -12.5658    9.9863  -27.9835 C   0  0  0  0  0  0  0  0  0  0  0  0
  -11.8247    5.5615  -28.6873 C   0  0  0  0  0  0  0  0  0  0  0  0
  -10.3635    3.6162  -28.8068 C   0  0  0  0  0  0  0  0  0  0  0  0
  -11.3941    5.9355  -29.9423 C   0  0  0  0  0  0  0  0  0  0  0  0
  -12.4963    8.3004  -29.4086 C   0  0  0  0  0  0  0  0  0  0  0  0
  -12.4168    9.6542  -29.3147 C   0  0  0  0  0  0  0  0  0  0  0  0
  -13.5467   11.0840  -20.3870 N   0  0  0  0  0  0  0  0  0  0  0  0
  -13.3911   10.3998  -21.6202 C   0  0  0  0  0  0  0  0  0  0  0  0
  -13.3893    9.0589  -21.7280 N   0  0  0  0  0  0  0  0  0  0  0  0
  -13.2245    8.7735  -23.0032 N   0  0  0  0  0  0  0  0  0  0  0  0
  -13.1158    9.8808  -23.7538 C   0  0  0  0  0  0  0  0  0  0  0  0
  -13.2206   10.9418  -22.8812 C   0  0  0  0  0  0  0  0  0  0  0  0
  -12.9232    9.9545  -25.2154 C   0  0  0  0  0  0  0  0  0  0  0  0
  -12.7562   11.1403  -25.8890 C   0  0  0  0  0  0  0  0  0  0  0  0
  -12.5761   11.1700  -27.2769 C   0  0  0  0  0  0  0  0  0  0  0  0
  -12.7316    8.7831  -27.3290 C   0  0  0  0  0  0  0  0  0  0  0  0
  -12.9089    8.7889  -25.9439 C   0  0  0  0  0  0  0  0  0  0  0  0
  -12.6914    7.7652  -28.1766 N   0  0  0  0  0  0  0  0  0  0  0  0
  -12.8254    6.3496  -27.9026 C   0  0  0  0  0  0  0  0  0  0  0  0
  -11.2895    4.3898  -28.1398 C   0  0  0  0  0  0  0  0  0  0  0  0
   -9.9360    3.9963  -30.0640 C   0  0  0  0  0  0  0  0  0  0  0  0
  -10.4571    5.1463  -30.6089 C   0  0  0  0  0  0  0  0  0  0  0  0
  1  6  1  0
  1 15  2  0
 16  1  1  0
  2  4  2  0
 19  2  1  0
  2 20  1  0
 20  3  2  0
  3 21  1  0
  4 22  1  0
  5  6  2  0
 18  5  1  0
  8  7  1  0
  8  9  1  0
 12  8  2  0
 10  9  1  0
 11 10  2  0
 11 12  1  0
 13 11  1  0
 13 14  2  0
 17 13  1  0
 15 14  1  0
 16 17  2  0
 18 16  1  0
 19 18  1  6
 21 22  2  0
M  END
$$$$
