
     RDKit          3D

 22 25  0  0  0  0  0  0  0  0999 V2000
  -15.2433   11.3771  -25.6164 C   0  0  0  0  0  0  0  0  0  0  0  0
  -12.6034    8.5629  -28.0940 C   0  0  0  0  0  0  0  0  0  0  0  0
  -12.4968    7.2117  -30.1178 C   0  0  0  0  0  0  0  0  0  0  0  0
  -11.9557    9.5789  -28.7637 C   0  0  0  0  0  0  0  0  0  0  0  0
  -14.5572   10.4502  -27.5000 C   0  0  0  0  0  0  0  0  0  0  0  0
  -15.3528   11.4280  -26.9912 C   0  0  0  0  0  0  0  0  0  0  0  0
  -14.2433   10.3916  -18.0071 N   0  0  0  0  0  0  0  0  0  0  0  0
  -14.0586   10.2201  -19.4034 C   0  0  0  0  0  0  0  0  0  0  0  0
  -13.1676    9.3626  -19.9327 N   0  0  0  0  0  0  0  0  0  0  0  0
  -13.2650    9.4629  -21.2424 N   0  0  0  0  0  0  0  0  0  0  0  0
  -14.1933   10.3608  -21.6078 C   0  0  0  0  0  0  0  0  0  0  0  0
  -14.7178   10.8615  -20.4363 C   0  0  0  0  0  0  0  0  0  0  0  0
  -14.5786   10.7395  -22.9815 C   0  0  0  0  0  0  0  0  0  0  0  0
  -15.4515   11.7639  -23.2580 C   0  0  0  0  0  0  0  0  0  0  0  0
  -15.7930   12.0938  -24.5748 C   0  0  0  0  0  0  0  0  0  0  0  0
  -14.3645   10.3440  -25.3635 C   0  0  0  0  0  0  0  0  0  0  0  0
  -14.0449   10.0410  -24.0383 C   0  0  0  0  0  0  0  0  0  0  0  0
  -13.9473    9.7815  -26.4885 N   0  0  0  0  0  0  0  0  0  0  0  0
  -13.0307    8.6743  -26.6645 C   0  0  0  0  0  0  0  0  0  0  0  0
  -12.8631    7.3824  -28.7998 C   0  0  0  0  0  0  0  0  0  0  0  0
  -11.8480    8.2333  -30.7834 C   0  0  0  0  0  0  0  0  0  0  0  0
  -11.5892    9.3964  -30.0969 C   0  0  0  0  0  0  0  0  0  0  0  0
  1  6  1  0
  1 15  2  0
 16  1  1  0
  2  4  2  0
 19  2  1  0
  2 20  1  0
 20  3  2  0
  3 21  1  0
  4 22  1  0
  5  6  2  0
 18  5  1  0
  8  7  1  0
  8  9  1  0
 12  8  2  0
 10  9  1  0
 11 10  2  0
 11 12  1  0
 13 11  1  0
 13 14  2  0
 17 13  1  0
 15 14  1  0
 16 17  2  0
 18 16  1  0
 19 18  1  6
 21 22  2  0
M  END
$$$$
