
     RDKit          3D

 22 25  0  0  0  0  0  0  0  0999 V2000
  -23.2619   18.4279  -11.9902 C   0  0  0  0  0  0  0  0  0  0  0  0
  -23.1470   22.6419  -10.1746 C   0  0  0  0  0  0  0  0  0  0  0  0
  -25.4786   23.1943   -9.7364 C   0  0  0  0  0  0  0  0  0  0  0  0
  -22.7775   23.8393   -9.6001 C   0  0  0  0  0  0  0  0  0  0  0  0
  -24.1594   20.2404  -11.1029 C   0  0  0  0  0  0  0  0  0  0  0  0
  -24.4510   19.0084  -11.5978 C   0  0  0  0  0  0  0  0  0  0  0  0
  -16.2396   15.8222  -13.9319 N   0  0  0  0  0  0  0  0  0  0  0  0
  -17.2415   16.7004  -13.4440 C   0  0  0  0  0  0  0  0  0  0  0  0
  -16.9792   17.9292  -12.9639 N   0  0  0  0  0  0  0  0  0  0  0  0
  -18.1306   18.4577  -12.6035 N   0  0  0  0  0  0  0  0  0  0  0  0
  -19.1566   17.6217  -12.8270 C   0  0  0  0  0  0  0  0  0  0  0  0
  -18.6051   16.4816  -13.3693 C   0  0  0  0  0  0  0  0  0  0  0  0
  -20.5858   17.8670  -12.5509 C   0  0  0  0  0  0  0  0  0  0  0  0
  -21.5694   16.9486  -12.8280 C   0  0  0  0  0  0  0  0  0  0  0  0
  -22.9151   17.2175  -12.5517 C   0  0  0  0  0  0  0  0  0  0  0  0
  -22.2918   19.3660  -11.7031 C   0  0  0  0  0  0  0  0  0  0  0  0
  -20.9587   19.0658  -11.9912 C   0  0  0  0  0  0  0  0  0  0  0  0
  -22.8213   20.4576  -11.1701 N   0  0  0  0  0  0  0  0  0  0  0  0
  -22.1577   21.6679  -10.7322 C   0  0  0  0  0  0  0  0  0  0  0  0
  -24.5133   22.3427  -10.2300 C   0  0  0  0  0  0  0  0  0  0  0  0
  -25.1020   24.3926   -9.1619 C   0  0  0  0  0  0  0  0  0  0  0  0
  -23.7615   24.6939   -9.1037 C   0  0  0  0  0  0  0  0  0  0  0  0
  1  6  1  0
  1 15  2  0
 16  1  1  0
  2  4  2  0
 19  2  1  0
  2 20  1  0
 20  3  2  0
  3 21  1  0
  4 22  1  0
  5  6  2  0
 18  5  1  0
  8  7  1  0
  8  9  1  0
 12  8  2  0
 10  9  1  0
 11 10  2  0
 11 12  1  0
 13 11  1  0
 13 14  2  0
 17 13  1  0
 15 14  1  0
 16 17  2  0
 18 16  1  0
 19 18  1  6
 21 22  2  0
M  END
$$$$
