
     RDKit          3D

 22 25  0  0  0  0  0  0  0  0999 V2000
  -24.0212   19.6029  -11.8693 C   0  0  0  0  0  0  0  0  0  0  0  0
  -22.2762   22.7615   -9.3412 C   0  0  0  0  0  0  0  0  0  0  0  0
  -21.0234   24.7464   -8.6899 C   0  0  0  0  0  0  0  0  0  0  0  0
  -22.3847   23.2745  -10.6161 C   0  0  0  0  0  0  0  0  0  0  0  0
  -24.8325   21.0409  -10.4023 C   0  0  0  0  0  0  0  0  0  0  0  0
  -25.1499   20.3070  -11.5016 C   0  0  0  0  0  0  0  0  0  0  0  0
  -17.2039   16.3326  -13.5096 N   0  0  0  0  0  0  0  0  0  0  0  0
  -18.2132   16.9942  -12.7634 C   0  0  0  0  0  0  0  0  0  0  0  0
  -18.0503   17.3936  -11.4893 N   0  0  0  0  0  0  0  0  0  0  0  0
  -19.1768   17.9651  -11.1160 N   0  0  0  0  0  0  0  0  0  0  0  0
  -20.0898   17.9614  -12.0998 C   0  0  0  0  0  0  0  0  0  0  0  0
  -19.4886   17.3394  -13.1721 C   0  0  0  0  0  0  0  0  0  0  0  0
  -21.4594   18.5095  -12.0501 C   0  0  0  0  0  0  0  0  0  0  0  0
  -22.4344   18.1694  -12.9566 C   0  0  0  0  0  0  0  0  0  0  0  0
  -23.7230   18.7106  -12.8770 C   0  0  0  0  0  0  0  0  0  0  0  0
  -23.0586   19.9597  -10.9475 C   0  0  0  0  0  0  0  0  0  0  0  0
  -21.7832   19.4013  -11.0554 C   0  0  0  0  0  0  0  0  0  0  0  0
  -23.5366   20.8228  -10.0627 N   0  0  0  0  0  0  0  0  0  0  0  0
  -22.8603   21.4431   -8.9426 C   0  0  0  0  0  0  0  0  0  0  0  0
  -21.5857   23.5235   -8.3915 C   0  0  0  0  0  0  0  0  0  0  0  0
  -21.1356   25.2550   -9.9691 C   0  0  0  0  0  0  0  0  0  0  0  0
  -21.8126   24.5124  -10.9080 C   0  0  0  0  0  0  0  0  0  0  0  0
  1  6  1  0
  1 15  2  0
 16  1  1  0
  2  4  2  0
 19  2  1  0
  2 20  1  0
 20  3  2  0
  3 21  1  0
  4 22  1  0
  5  6  2  0
 18  5  1  0
  8  7  1  0
  8  9  1  0
 12  8  2  0
 10  9  1  0
 11 10  2  0
 11 12  1  0
 13 11  1  0
 13 14  2  0
 17 13  1  0
 15 14  1  0
 16 17  2  0
 18 16  1  0
 19 18  1  6
 21 22  2  0
M  END
$$$$
