
     RDKit          3D

 22 25  0  0  0  0  0  0  0  0999 V2000
  -23.7446   21.9154  -10.2421 C   0  0  0  0  0  0  0  0  0  0  0  0
  -26.5618   18.4984   -9.0754 C   0  0  0  0  0  0  0  0  0  0  0  0
  -28.2454   16.7868   -8.9321 C   0  0  0  0  0  0  0  0  0  0  0  0
  -27.5126   19.4710   -9.0084 C   0  0  0  0  0  0  0  0  0  0  0  0
  -25.4782   20.5868  -10.8245 C   0  0  0  0  0  0  0  0  0  0  0  0
  -24.8181   21.7678  -11.0890 C   0  0  0  0  0  0  0  0  0  0  0  0
  -17.5958   21.9976   -5.5836 N   0  0  0  0  0  0  0  0  0  0  0  0
  -18.8785   21.5919   -6.0253 C   0  0  0  0  0  0  0  0  0  0  0  0
  -19.7148   20.6943   -5.4558 N   0  0  0  0  0  0  0  0  0  0  0  0
  -20.8260   20.5815   -6.1616 N   0  0  0  0  0  0  0  0  0  0  0  0
  -20.7819   21.3956   -7.2302 C   0  0  0  0  0  0  0  0  0  0  0  0
  -19.5664   22.0370   -7.1597 C   0  0  0  0  0  0  0  0  0  0  0  0
  -21.7955   21.5835   -8.2680 C   0  0  0  0  0  0  0  0  0  0  0  0
  -21.8078   22.6937   -9.0790 C   0  0  0  0  0  0  0  0  0  0  0  0
  -22.7680   22.8571  -10.0514 C   0  0  0  0  0  0  0  0  0  0  0  0
  -23.7508   20.7945   -9.4401 C   0  0  0  0  0  0  0  0  0  0  0  0
  -22.7676   20.6427   -8.4553 C   0  0  0  0  0  0  0  0  0  0  0  0
  -24.7838   20.0178   -9.7982 N   0  0  0  0  0  0  0  0  0  0  0  0
  -25.1061   18.7620   -9.1883 C   0  0  0  0  0  0  0  0  0  0  0  0
  -26.9307   17.1498   -9.0371 C   0  0  0  0  0  0  0  0  0  0  0  0
  -29.1969   17.7740   -8.8650 C   0  0  0  0  0  0  0  0  0  0  0  0
  -28.8518   19.1000   -8.9014 C   0  0  0  0  0  0  0  0  0  0  0  0
  1  6  1  0
  1 15  2  0
 16  1  1  0
  2  4  2  0
 19  2  1  0
  2 20  1  0
 20  3  2  0
  3 21  1  0
  4 22  1  0
  5  6  2  0
 18  5  1  0
  8  7  1  0
  8  9  1  0
 12  8  2  0
 10  9  1  0
 11 10  2  0
 11 12  1  0
 13 11  1  0
 13 14  2  0
 17 13  1  0
 15 14  1  0
 16 17  2  0
 18 16  1  0
 18 19  1  0
 21 22  2  0
M  END
$$$$
