
     RDKit          3D

 22 25  0  0  0  0  0  0  0  0999 V2000
  116.2690  -43.8291 -137.7712 C   0  0  0  0  0  0  0  0  0  0  0  0
  114.0847  -47.7364 -137.8007 C   0  0  0  0  0  0  0  0  0  0  0  0
  113.6752  -50.1255 -138.0418 C   0  0  0  0  0  0  0  0  0  0  0  0
  114.7564  -47.7517 -139.0044 C   0  0  0  0  0  0  0  0  0  0  0  0
  114.5328  -44.8197 -138.7103 C   0  0  0  0  0  0  0  0  0  0  0  0
  115.4649  -43.8472 -138.8927 C   0  0  0  0  0  0  0  0  0  0  0  0
  118.2945  -46.0312 -130.6761 N   0  0  0  0  0  0  0  0  0  0  0  0
  118.4110  -45.3868 -131.9347 C   0  0  0  0  0  0  0  0  0  0  0  0
  119.4828  -44.6594 -132.2979 N   0  0  0  0  0  0  0  0  0  0  0  0
  119.2534  -44.2141 -133.5160 N   0  0  0  0  0  0  0  0  0  0  0  0
  118.0615  -44.6201 -133.9810 C   0  0  0  0  0  0  0  0  0  0  0  0
  117.5011  -45.3782 -132.9764 C   0  0  0  0  0  0  0  0  0  0  0  0
  117.4665  -44.3196 -135.2980 C   0  0  0  0  0  0  0  0  0  0  0  0
  117.9506  -43.3403 -136.1315 C   0  0  0  0  0  0  0  0  0  0  0  0
  117.3592  -43.0844 -137.3742 C   0  0  0  0  0  0  0  0  0  0  0  0
  115.7651  -44.8178 -136.9513 C   0  0  0  0  0  0  0  0  0  0  0  0
  116.3787  -45.0474 -135.7181 C   0  0  0  0  0  0  0  0  0  0  0  0
  114.7223  -45.4180 -137.5068 N   0  0  0  0  0  0  0  0  0  0  0  0
  113.9098  -46.4960 -136.9828 C   0  0  0  0  0  0  0  0  0  0  0  0
  113.5506  -48.9454 -137.3400 C   0  0  0  0  0  0  0  0  0  0  0  0
  114.3493  -50.1344 -139.2473 C   0  0  0  0  0  0  0  0  0  0  0  0
  114.8770  -48.9505 -139.7069 C   0  0  0  0  0  0  0  0  0  0  0  0
  1  6  1  0
  1 15  2  0
 16  1  1  0
  2  4  2  0
 19  2  1  0
  2 20  1  0
 20  3  2  0
  3 21  1  0
  4 22  1  0
  5  6  2  0
 18  5  1  0
  8  7  1  0
  8  9  1  0
 12  8  2  0
 10  9  1  0
 11 10  2  0
 11 12  1  0
 13 11  1  0
 13 14  2  0
 17 13  1  0
 15 14  1  0
 16 17  2  0
 18 16  1  0
 19 18  1  6
 21 22  2  0
M  END
$$$$
