
     RDKit          3D

 22 25  0  0  0  0  0  0  0  0999 V2000
  -13.4017    8.2248  -28.7601 C   0  0  0  0  0  0  0  0  0  0  0  0
   -9.2077    6.8503  -29.1958 C   0  0  0  0  0  0  0  0  0  0  0  0
   -9.5338    4.5114  -28.5988 C   0  0  0  0  0  0  0  0  0  0  0  0
   -7.8543    6.6119  -29.3040 C   0  0  0  0  0  0  0  0  0  0  0  0
  -12.0451    7.6528  -30.4065 C   0  0  0  0  0  0  0  0  0  0  0  0
  -13.3529    7.7108  -30.0400 C   0  0  0  0  0  0  0  0  0  0  0  0
  -12.7481   10.6400  -21.4397 N   0  0  0  0  0  0  0  0  0  0  0  0
  -12.4156   10.4334  -22.8035 C   0  0  0  0  0  0  0  0  0  0  0  0
  -11.2712   10.8685  -23.3607 N   0  0  0  0  0  0  0  0  0  0  0  0
  -11.2948   10.5056  -24.6266 N   0  0  0  0  0  0  0  0  0  0  0  0
  -12.4191    9.8407  -24.9356 C   0  0  0  0  0  0  0  0  0  0  0  0
  -13.1566    9.7829  -23.7733 C   0  0  0  0  0  0  0  0  0  0  0  0
  -12.7951    9.2829  -26.2495 C   0  0  0  0  0  0  0  0  0  0  0  0
  -14.0977    9.0449  -26.6159 C   0  0  0  0  0  0  0  0  0  0  0  0
  -14.4154    8.5146  -27.8718 C   0  0  0  0  0  0  0  0  0  0  0  0
  -12.0859    8.4551  -28.4147 C   0  0  0  0  0  0  0  0  0  0  0  0
  -11.8037    8.9851  -27.1539 C   0  0  0  0  0  0  0  0  0  0  0  0
  -11.2642    8.1146  -29.3971 N   0  0  0  0  0  0  0  0  0  0  0  0
   -9.8189    8.1937  -29.4404 C   0  0  0  0  0  0  0  0  0  0  0  0
  -10.0298    5.7750  -28.8394 C   0  0  0  0  0  0  0  0  0  0  0  0
   -8.1767    4.2788  -28.7088 C   0  0  0  0  0  0  0  0  0  0  0  0
   -7.3623    5.3302  -29.0586 C   0  0  0  0  0  0  0  0  0  0  0  0
  1  6  1  0
  1 15  2  0
 16  1  1  0
  2  4  2  0
 19  2  1  0
  2 20  1  0
 20  3  2  0
  3 21  1  0
  4 22  1  0
  5  6  2  0
 18  5  1  0
  8  7  1  0
  8  9  1  0
 12  8  2  0
 10  9  1  0
 11 10  2  0
 11 12  1  0
 13 11  1  0
 13 14  2  0
 17 13  1  0
 15 14  1  0
 16 17  2  0
 18 16  1  0
 19 18  1  6
 21 22  2  0
M  END
$$$$
