
     RDKit          3D

 22 25  0  0  0  0  0  0  0  0999 V2000
  -23.6394   17.9273  -11.7942 C   0  0  0  0  0  0  0  0  0  0  0  0
  -22.7857   21.9652   -9.9848 C   0  0  0  0  0  0  0  0  0  0  0  0
  -23.5325   23.8620   -8.7084 C   0  0  0  0  0  0  0  0  0  0  0  0
  -22.2992   21.3712   -8.8602 C   0  0  0  0  0  0  0  0  0  0  0  0
  -24.6735   19.8568  -11.2307 C   0  0  0  0  0  0  0  0  0  0  0  0
  -24.8379   18.5052  -11.4465 C   0  0  0  0  0  0  0  0  0  0  0  0
  -16.1365   18.1350  -13.5254 N   0  0  0  0  0  0  0  0  0  0  0  0
  -17.3797   17.5144  -13.2526 C   0  0  0  0  0  0  0  0  0  0  0  0
  -17.6656   16.1930  -13.2166 N   0  0  0  0  0  0  0  0  0  0  0  0
  -18.9403   16.0009  -12.9268 N   0  0  0  0  0  0  0  0  0  0  0  0
  -19.5607   17.1812  -12.7570 C   0  0  0  0  0  0  0  0  0  0  0  0
  -18.5955   18.1413  -12.9579 C   0  0  0  0  0  0  0  0  0  0  0  0
  -20.9644   17.4272  -12.4275 C   0  0  0  0  0  0  0  0  0  0  0  0
  -21.8979   16.4176  -12.4252 C   0  0  0  0  0  0  0  0  0  0  0  0
  -23.2155   16.6642  -12.1132 C   0  0  0  0  0  0  0  0  0  0  0  0
  -22.7199   18.9541  -11.7902 C   0  0  0  0  0  0  0  0  0  0  0  0
  -21.3835   18.6876  -12.1099 C   0  0  0  0  0  0  0  0  0  0  0  0
  -23.3487   20.0901  -11.4543 N   0  0  0  0  0  0  0  0  0  0  0  0
  -22.7118   21.3686  -11.3413 C   0  0  0  0  0  0  0  0  0  0  0  0
  -23.4053   23.2168   -9.9079 C   0  0  0  0  0  0  0  0  0  0  0  0
  -23.0392   23.2557   -7.5800 C   0  0  0  0  0  0  0  0  0  0  0  0
  -22.4294   22.0296   -7.6385 C   0  0  0  0  0  0  0  0  0  0  0  0
  1  6  1  0
  1 15  2  0
 16  1  1  0
  2  4  2  0
 19  2  1  0
  2 20  1  0
 20  3  2  0
  3 21  1  0
  4 22  1  0
  5  6  2  0
 18  5  1  0
  8  7  1  0
  8  9  1  0
 12  8  2  0
 10  9  1  0
 11 10  2  0
 11 12  1  0
 13 11  1  0
 13 14  2  0
 17 13  1  0
 15 14  1  0
 16 17  2  0
 18 16  1  0
 18 19  1  0
 21 22  2  0
M  END
$$$$
