
     RDKit          3D

 22 25  0  0  0  0  0  0  0  0999 V2000
  -22.0804   19.3035  -14.0257 C   0  0  0  0  0  0  0  0  0  0  0  0
  -24.3390   20.1279  -10.1405 C   0  0  0  0  0  0  0  0  0  0  0  0
  -25.9504   20.8525   -8.4637 C   0  0  0  0  0  0  0  0  0  0  0  0
  -24.4588   21.3558  -10.7554 C   0  0  0  0  0  0  0  0  0  0  0  0
  -23.8812   19.9530  -12.9242 C   0  0  0  0  0  0  0  0  0  0  0  0
  -23.2754   19.9841  -14.1408 C   0  0  0  0  0  0  0  0  0  0  0  0
  -15.4270   15.6603  -12.5009 N   0  0  0  0  0  0  0  0  0  0  0  0
  -16.7622   16.1105  -12.3341 C   0  0  0  0  0  0  0  0  0  0  0  0
  -17.5198   15.8017  -11.2663 N   0  0  0  0  0  0  0  0  0  0  0  0
  -18.6893   16.3820  -11.4409 N   0  0  0  0  0  0  0  0  0  0  0  0
  -18.7396   17.0701  -12.5922 C   0  0  0  0  0  0  0  0  0  0  0  0
  -17.5062   16.9083  -13.1844 C   0  0  0  0  0  0  0  0  0  0  0  0
  -19.8795   17.8441  -13.1218 C   0  0  0  0  0  0  0  0  0  0  0  0
  -19.9533   18.2691  -14.4263 C   0  0  0  0  0  0  0  0  0  0  0  0
  -21.0514   19.0016  -14.8921 C   0  0  0  0  0  0  0  0  0  0  0  0
  -22.0286   18.8876  -12.7111 C   0  0  0  0  0  0  0  0  0  0  0  0
  -20.9187   18.1585  -12.2789 C   0  0  0  0  0  0  0  0  0  0  0  0
  -23.1056   19.2730  -12.0421 N   0  0  0  0  0  0  0  0  0  0  0  0
  -23.4398   19.0468  -10.6514 C   0  0  0  0  0  0  0  0  0  0  0  0
  -25.1014   19.9016   -8.9886 C   0  0  0  0  0  0  0  0  0  0  0  0
  -26.0661   22.0809   -9.0845 C   0  0  0  0  0  0  0  0  0  0  0  0
  -25.3203   22.3110  -10.2167 C   0  0  0  0  0  0  0  0  0  0  0  0
  1  6  1  0
  1 15  2  0
 16  1  1  0
  2  4  2  0
 19  2  1  0
  2 20  1  0
 20  3  2  0
  3 21  1  0
  4 22  1  0
  5  6  2  0
 18  5  1  0
  8  7  1  0
  8  9  1  0
 12  8  2  0
 10  9  1  0
 11 10  2  0
 11 12  1  0
 13 11  1  0
 13 14  2  0
 17 13  1  0
 15 14  1  0
 16 17  2  0
 18 16  1  0
 19 18  1  6
 21 22  2  0
M  END
$$$$
