
     RDKit          3D

 22 25  0  0  0  0  0  0  0  0999 V2000
  -13.1494    9.8833  -28.4535 C   0  0  0  0  0  0  0  0  0  0  0  0
  -11.0526    5.9744  -28.5529 C   0  0  0  0  0  0  0  0  0  0  0  0
  -12.9149    4.5493  -28.0184 C   0  0  0  0  0  0  0  0  0  0  0  0
  -10.2943    4.8950  -28.8909 C   0  0  0  0  0  0  0  0  0  0  0  0
  -12.1487    8.6445  -30.0578 C   0  0  0  0  0  0  0  0  0  0  0  0
  -13.1003    9.6079  -29.8001 C   0  0  0  0  0  0  0  0  0  0  0  0
  -13.4420   10.4156  -20.7633 N   0  0  0  0  0  0  0  0  0  0  0  0
  -12.8359   10.1804  -22.0211 C   0  0  0  0  0  0  0  0  0  0  0  0
  -11.5582    9.8207  -22.2805 N   0  0  0  0  0  0  0  0  0  0  0  0
  -11.3657    9.6947  -23.5815 N   0  0  0  0  0  0  0  0  0  0  0  0
  -12.5021    9.9636  -24.2471 C   0  0  0  0  0  0  0  0  0  0  0  0
  -13.4347   10.2702  -23.2827 C   0  0  0  0  0  0  0  0  0  0  0  0
  -12.7321    9.9435  -25.6915 C   0  0  0  0  0  0  0  0  0  0  0  0
  -13.6714   10.7506  -26.2889 C   0  0  0  0  0  0  0  0  0  0  0  0
  -13.8769   10.7208  -27.6495 C   0  0  0  0  0  0  0  0  0  0  0  0
  -12.2023    9.0658  -27.8752 C   0  0  0  0  0  0  0  0  0  0  0  0
  -12.0051    9.1074  -26.4900 C   0  0  0  0  0  0  0  0  0  0  0  0
  -11.6187    8.3387  -28.8392 N   0  0  0  0  0  0  0  0  0  0  0  0
  -10.5785    7.3789  -28.6160 C   0  0  0  0  0  0  0  0  0  0  0  0
  -12.3693    5.8001  -28.1146 C   0  0  0  0  0  0  0  0  0  0  0  0
  -12.1432    3.4671  -28.3612 C   0  0  0  0  0  0  0  0  0  0  0  0
  -10.8513    3.6211  -28.7925 C   0  0  0  0  0  0  0  0  0  0  0  0
  1  6  1  0
  1 15  2  0
 16  1  1  0
  2  4  2  0
 19  2  1  0
  2 20  1  0
 20  3  2  0
  3 21  1  0
  4 22  1  0
  5  6  2  0
 18  5  1  0
  8  7  1  0
  8  9  1  0
 12  8  2  0
 10  9  1  0
 11 10  2  0
 11 12  1  0
 13 11  1  0
 13 14  2  0
 17 13  1  0
 15 14  1  0
 16 17  2  0
 18 16  1  0
 18 19  1  0
 21 22  2  0
M  END
$$$$
