
     RDKit          3D

 22 25  0  0  0  0  0  0  0  0999 V2000
  -12.5197    9.6874  -28.1147 C   0  0  0  0  0  0  0  0  0  0  0  0
  -12.1520    5.1260  -28.7478 C   0  0  0  0  0  0  0  0  0  0  0  0
  -13.2701    3.8489  -30.4517 C   0  0  0  0  0  0  0  0  0  0  0  0
  -10.9551    4.5714  -29.0855 C   0  0  0  0  0  0  0  0  0  0  0  0
  -12.3069    7.8654  -29.4356 C   0  0  0  0  0  0  0  0  0  0  0  0
  -12.3927    9.2410  -29.4094 C   0  0  0  0  0  0  0  0  0  0  0  0
  -13.3724   11.6938  -20.7142 N   0  0  0  0  0  0  0  0  0  0  0  0
  -13.1519   10.8088  -21.7973 C   0  0  0  0  0  0  0  0  0  0  0  0
  -12.9398    9.4736  -21.7575 N   0  0  0  0  0  0  0  0  0  0  0  0
  -12.7745    8.9926  -22.9769 N   0  0  0  0  0  0  0  0  0  0  0  0
  -12.8685    9.9814  -23.8826 C   0  0  0  0  0  0  0  0  0  0  0  0
  -13.1053   11.1277  -23.1590 C   0  0  0  0  0  0  0  0  0  0  0  0
  -12.7492    9.8910  -25.3376 C   0  0  0  0  0  0  0  0  0  0  0  0
  -12.7553   11.0090  -26.1379 C   0  0  0  0  0  0  0  0  0  0  0  0
  -12.6422   10.9086  -27.5060 C   0  0  0  0  0  0  0  0  0  0  0  0
  -12.5112    8.5535  -27.3312 C   0  0  0  0  0  0  0  0  0  0  0  0
  -12.6272    8.6720  -25.9412 C   0  0  0  0  0  0  0  0  0  0  0  0
  -12.3843    7.4831  -28.1290 N   0  0  0  0  0  0  0  0  0  0  0  0
  -12.3318    6.1275  -27.6678 C   0  0  0  0  0  0  0  0  0  0  0  0
  -13.3149    4.7626  -29.4346 C   0  0  0  0  0  0  0  0  0  0  0  0
  -12.0592    3.2951  -30.7853 C   0  0  0  0  0  0  0  0  0  0  0  0
  -10.9106    3.6406  -30.1220 C   0  0  0  0  0  0  0  0  0  0  0  0
  1  6  1  0
  1 15  2  0
 16  1  1  0
  2  4  2  0
 19  2  1  0
  2 20  1  0
 20  3  2  0
  3 21  1  0
  4 22  1  0
  5  6  2  0
 18  5  1  0
  8  7  1  0
  8  9  1  0
 12  8  2  0
 10  9  1  0
 11 10  2  0
 11 12  1  0
 13 11  1  0
 13 14  2  0
 17 13  1  0
 15 14  1  0
 16 17  2  0
 18 16  1  0
 18 19  1  0
 21 22  2  0
M  END
$$$$
