
     RDKit          3D

 22 25  0  0  0  0  0  0  0  0999 V2000
  -23.6010   18.5650  -11.6687 C   0  0  0  0  0  0  0  0  0  0  0  0
  -22.8797   22.6060   -9.7396 C   0  0  0  0  0  0  0  0  0  0  0  0
  -22.4786   22.3757   -7.3793 C   0  0  0  0  0  0  0  0  0  0  0  0
  -23.5289   23.7858   -9.5372 C   0  0  0  0  0  0  0  0  0  0  0  0
  -24.6216   20.4534  -10.9602 C   0  0  0  0  0  0  0  0  0  0  0  0
  -24.7872   19.1140  -11.2409 C   0  0  0  0  0  0  0  0  0  0  0  0
  -16.6916   15.9102  -13.8440 N   0  0  0  0  0  0  0  0  0  0  0  0
  -17.6420   16.8925  -13.4742 C   0  0  0  0  0  0  0  0  0  0  0  0
  -17.4661   18.2293  -13.3677 N   0  0  0  0  0  0  0  0  0  0  0  0
  -18.5893   18.8179  -12.9967 N   0  0  0  0  0  0  0  0  0  0  0  0
  -19.5622   17.9039  -12.8392 C   0  0  0  0  0  0  0  0  0  0  0  0
  -18.9844   16.6905  -13.1350 C   0  0  0  0  0  0  0  0  0  0  0  0
  -20.9522   18.1208  -12.4389 C   0  0  0  0  0  0  0  0  0  0  0  0
  -21.8789   17.1051  -12.4517 C   0  0  0  0  0  0  0  0  0  0  0  0
  -23.1837   17.3241  -12.0723 C   0  0  0  0  0  0  0  0  0  0  0  0
  -22.6882   19.5975  -11.6481 C   0  0  0  0  0  0  0  0  0  0  0  0
  -21.3648   19.3591  -12.0370 C   0  0  0  0  0  0  0  0  0  0  0  0
  -23.3088   20.7089  -11.2260 N   0  0  0  0  0  0  0  0  0  0  0  0
  -22.6752   21.9847  -11.0713 C   0  0  0  0  0  0  0  0  0  0  0  0
  -22.3522   21.8979   -8.6549 C   0  0  0  0  0  0  0  0  0  0  0  0
  -23.1345   23.5658   -7.1849 C   0  0  0  0  0  0  0  0  0  0  0  0
  -23.6571   24.2717   -8.2371 C   0  0  0  0  0  0  0  0  0  0  0  0
  1  6  1  0
  1 15  2  0
 16  1  1  0
  2  4  2  0
 19  2  1  0
  2 20  1  0
 20  3  2  0
  3 21  1  0
  4 22  1  0
  5  6  2  0
 18  5  1  0
  8  7  1  0
  8  9  1  0
 12  8  2  0
 10  9  1  0
 11 10  2  0
 11 12  1  0
 13 11  1  0
 13 14  2  0
 17 13  1  0
 15 14  1  0
 16 17  2  0
 18 16  1  0
 18 19  1  0
 21 22  2  0
M  END
$$$$
