
     RDKit          3D

 22 24  0  0  0  0  0  0  0  0999 V2000
   -8.0469  -31.7442  -15.6829 C   0  0  0  0  0  0  0  0  0  0  0  0
   -6.0758  -33.0577  -15.6950 C   0  0  0  0  0  0  0  0  0  0  0  0
  -12.4654  -31.7038  -15.2434 C   0  0  0  0  0  0  0  0  0  0  0  0
  -12.5637  -32.6111  -14.2250 C   0  0  0  0  0  0  0  0  0  0  0  0
  -13.4019  -33.6107  -14.6134 C   0  0  0  0  0  0  0  0  0  0  0  0
   -8.3717  -32.3273  -16.9102 C   0  0  0  0  0  0  0  0  0  0  0  0
  -15.4892  -30.5003  -16.9899 C   0  0  0  0  0  0  0  0  0  0  0  0
  -14.4708  -30.8028  -17.9009 C   0  0  0  0  0  0  0  0  0  0  0  0
  -14.5602  -30.2546  -19.1736 C   0  0  0  0  0  0  0  0  0  0  0  0
  -13.5126  -30.2586  -20.0207 C   0  0  0  0  0  0  0  0  0  0  0  0
  -12.3418  -30.7892  -19.6599 C   0  0  0  0  0  0  0  0  0  0  0  0
  -12.1121  -31.3946  -18.3597 C   0  0  0  0  0  0  0  0  0  0  0  0
  -13.2685  -31.3718  -17.5139 C   0  0  0  0  0  0  0  0  0  0  0  0
  -13.8247  -33.2891  -15.9191 C   0  0  0  0  0  0  0  0  0  0  0  0
  -10.9707  -31.6858  -17.9245 C   0  0  0  0  0  0  0  0  0  0  0  0
   -9.7316  -32.0039  -17.4440 C   0  0  0  0  0  0  0  0  0  0  0  0
   -7.6054  -33.2447  -17.5537 C   0  0  0  0  0  0  0  0  0  0  0  0
   -6.4040  -33.6300  -16.9223 C   0  0  0  0  0  0  0  0  0  0  0  0
   -6.8351  -32.1576  -15.0842 C   0  0  0  0  0  0  0  0  0  0  0  0
  -13.2678  -32.1426  -16.3248 N   0  0  0  0  0  0  0  0  0  0  0  0
  -15.4424  -30.1334  -15.7813 O   0  0  0  0  0  0  0  0  0  0  0  0
  -16.8727  -30.5925  -17.3683 O   0  0  0  0  0  0  0  0  0  0  0  0
  6  1  2  0
  1 19  1  0
  2 18  1  0
 19  2  2  0
  3  4  2  0
 20  3  1  0
  5  4  1  0
 14  5  2  0
 16  6  1  0
  6 17  1  0
  8  7  1  0
  7 21  2  0
  7 22  1  0
  8  9  2  0
 13  8  1  0
 10  9  1  0
 11 10  2  0
 12 11  1  0
 12 13  2  0
 15 12  1  0
 13 20  1  0
 20 14  1  0
 15 16  3  0
 17 18  2  0
M  END
$$$$
