
     RDKit          3D

 22 24  0  0  0  0  0  0  0  0999 V2000
   -4.5747  -30.8720   -4.4290 C   0  0  0  0  0  0  0  0  0  0  0  0
   -2.9188  -30.5282   -6.0873 C   0  0  0  0  0  0  0  0  0  0  0  0
   -8.3321  -33.3965   -1.5489 C   0  0  0  0  0  0  0  0  0  0  0  0
   -9.0936  -32.4080   -2.1083 C   0  0  0  0  0  0  0  0  0  0  0  0
   -8.6601  -31.2068   -1.6372 C   0  0  0  0  0  0  0  0  0  0  0  0
   -3.7693  -31.8944   -3.9214 C   0  0  0  0  0  0  0  0  0  0  0  0
   -8.2407  -34.8061    1.1290 C   0  0  0  0  0  0  0  0  0  0  0  0
   -6.9006  -34.4212    1.0082 C   0  0  0  0  0  0  0  0  0  0  0  0
   -5.9691  -35.0681    1.8093 C   0  0  0  0  0  0  0  0  0  0  0  0
   -4.6458  -34.9684    1.5771 C   0  0  0  0  0  0  0  0  0  0  0  0
   -4.1819  -34.2429    0.5568 C   0  0  0  0  0  0  0  0  0  0  0  0
   -5.0458  -33.5164   -0.3575 C   0  0  0  0  0  0  0  0  0  0  0  0
   -6.4379  -33.6511   -0.0463 C   0  0  0  0  0  0  0  0  0  0  0  0
   -7.5946  -31.4866   -0.7578 C   0  0  0  0  0  0  0  0  0  0  0  0
   -4.6472  -33.0258   -1.4426 C   0  0  0  0  0  0  0  0  0  0  0  0
   -4.2197  -32.4949   -2.6270 C   0  0  0  0  0  0  0  0  0  0  0  0
   -2.5733  -32.2649   -4.4460 C   0  0  0  0  0  0  0  0  0  0  0  0
   -2.1242  -31.5534   -5.5785 C   0  0  0  0  0  0  0  0  0  0  0  0
   -4.0883  -30.1844   -5.5640 C   0  0  0  0  0  0  0  0  0  0  0  0
   -7.3732  -32.8042   -0.6913 N   0  0  0  0  0  0  0  0  0  0  0  0
   -9.2948  -34.1206    1.2575 O   0  0  0  0  0  0  0  0  0  0  0  0
   -8.6155  -36.1936    1.1302 O   0  0  0  0  0  0  0  0  0  0  0  0
  6  1  2  0
  1 19  1  0
  2 18  1  0
 19  2  2  0
  3  4  2  0
 20  3  1  0
  5  4  1  0
 14  5  2  0
 16  6  1  0
  6 17  1  0
  8  7  1  0
  7 21  2  0
  7 22  1  0
  8  9  2  0
 13  8  1  0
 10  9  1  0
 11 10  2  0
 12 11  1  0
 12 13  2  0
 15 12  1  0
 13 20  1  0
 20 14  1  0
 15 16  3  0
 17 18  2  0
M  END
$$$$
