
     RDKit          3D

 22 24  0  0  0  0  0  0  0  0999 V2000
    0.9859  -20.9539    2.6736 C   0  0  0  0  0  0  0  0  0  0  0  0
    1.7700  -23.1796    2.2224 C   0  0  0  0  0  0  0  0  0  0  0  0
   -0.8217  -16.1619    2.3339 C   0  0  0  0  0  0  0  0  0  0  0  0
    0.2695  -16.0377    1.5014 C   0  0  0  0  0  0  0  0  0  0  0  0
   -0.0056  -16.7157    0.3185 C   0  0  0  0  0  0  0  0  0  0  0  0
   -0.2861  -21.3376    2.3525 C   0  0  0  0  0  0  0  0  0  0  0  0
   -3.7601  -14.9405    1.8042 C   0  0  0  0  0  0  0  0  0  0  0  0
   -4.0339  -16.3165    2.1973 C   0  0  0  0  0  0  0  0  0  0  0  0
   -5.3033  -16.6518    2.6199 C   0  0  0  0  0  0  0  0  0  0  0  0
   -5.5688  -17.9582    2.9946 C   0  0  0  0  0  0  0  0  0  0  0  0
   -4.5863  -18.9244    2.9513 C   0  0  0  0  0  0  0  0  0  0  0  0
   -3.3106  -18.5973    2.5288 C   0  0  0  0  0  0  0  0  0  0  0  0
   -3.0529  -17.2888    2.1558 C   0  0  0  0  0  0  0  0  0  0  0  0
   -1.2737  -17.2298    0.4895 C   0  0  0  0  0  0  0  0  0  0  0  0
   -2.2546  -19.5681    2.4665 C   0  0  0  0  0  0  0  0  0  0  0  0
   -1.3583  -20.3757    2.4207 C   0  0  0  0  0  0  0  0  0  0  0  0
   -0.5086  -22.6462    1.9690 C   0  0  0  0  0  0  0  0  0  0  0  0
    0.4951  -23.5851    1.8950 C   0  0  0  0  0  0  0  0  0  0  0  0
    2.0108  -21.8775    2.6073 C   0  0  0  0  0  0  0  0  0  0  0  0
   -1.7636  -16.8909    1.7132 N   0  0  0  0  0  0  0  0  0  0  0  0
   -3.3727  -14.6293    0.6505 O   0  0  0  0  0  0  0  0  0  0  0  0
   -3.9197  -13.8984    2.7074 O   0  0  0  0  0  0  0  0  0  0  0  0
  6  1  2  0
  1 19  1  0
  2 18  1  0
 19  2  2  0
  3  4  2  0
 20  3  1  0
  5  4  1  0
 14  5  2  0
 16  6  1  0
  6 17  1  0
  8  7  1  0
  7 21  2  0
  7 22  1  0
  8  9  2  0
 13  8  1  0
 10  9  1  0
 11 10  2  0
 12 11  1  0
 12 13  2  0
 15 12  1  0
 13 20  1  0
 20 14  1  0
 15 16  3  0
 17 18  2  0
M  END
$$$$
