
     RDKit          3D

 22 24  0  0  0  0  0  0  0  0999 V2000
   -5.6243  -28.8877   -9.5145 C   0  0  0  0  0  0  0  0  0  0  0  0
   -6.2798  -29.1239  -11.7783 C   0  0  0  0  0  0  0  0  0  0  0  0
   -4.4124  -30.1349   -4.9167 C   0  0  0  0  0  0  0  0  0  0  0  0
   -5.6794  -30.4371   -4.5003 C   0  0  0  0  0  0  0  0  0  0  0  0
   -5.8032  -31.7909   -4.4338 C   0  0  0  0  0  0  0  0  0  0  0  0
   -4.6706  -29.8812   -9.7490 C   0  0  0  0  0  0  0  0  0  0  0  0
   -1.6816  -32.6632   -3.6173 C   0  0  0  0  0  0  0  0  0  0  0  0
   -1.3924  -31.7038   -4.5943 C   0  0  0  0  0  0  0  0  0  0  0  0
   -0.0566  -31.4113   -4.8354 C   0  0  0  0  0  0  0  0  0  0  0  0
    0.3306  -30.7197   -5.9248 C   0  0  0  0  0  0  0  0  0  0  0  0
   -0.5640  -30.2937   -6.8197 C   0  0  0  0  0  0  0  0  0  0  0  0
   -1.9911  -30.5311   -6.6896 C   0  0  0  0  0  0  0  0  0  0  0  0
   -2.3371  -31.2570   -5.5036 C   0  0  0  0  0  0  0  0  0  0  0  0
   -4.5587  -32.3231   -4.8276 C   0  0  0  0  0  0  0  0  0  0  0  0
   -2.8111  -30.3432   -7.6221 C   0  0  0  0  0  0  0  0  0  0  0  0
   -3.7056  -30.1324   -8.6334 C   0  0  0  0  0  0  0  0  0  0  0  0
   -4.4911  -30.5110  -10.9381 C   0  0  0  0  0  0  0  0  0  0  0  0
   -5.3300  -30.1185  -12.0024 C   0  0  0  0  0  0  0  0  0  0  0  0
   -6.4442  -28.5238  -10.6067 C   0  0  0  0  0  0  0  0  0  0  0  0
   -3.6986  -31.3411   -5.1199 N   0  0  0  0  0  0  0  0  0  0  0  0
   -2.6159  -32.7313   -2.7689 O   0  0  0  0  0  0  0  0  0  0  0  0
   -0.8417  -33.8160   -3.4400 O   0  0  0  0  0  0  0  0  0  0  0  0
  6  1  2  0
  1 19  1  0
  2 18  1  0
 19  2  2  0
  3  4  2  0
 20  3  1  0
  5  4  1  0
 14  5  2  0
 16  6  1  0
  6 17  1  0
  8  7  1  0
  7 21  2  0
  7 22  1  0
  8  9  2  0
 13  8  1  0
 10  9  1  0
 11 10  2  0
 12 11  1  0
 12 13  2  0
 15 12  1  0
 13 20  1  0
 20 14  1  0
 15 16  3  0
 17 18  2  0
M  END
$$$$
