
     RDKit          3D

 22 24  0  0  0  0  0  0  0  0999 V2000
   -6.0268  -36.0901  -17.3778 C   0  0  0  0  0  0  0  0  0  0  0  0
   -5.8130  -37.6545  -19.1434 C   0  0  0  0  0  0  0  0  0  0  0  0
  -12.0192  -33.7997  -17.8050 C   0  0  0  0  0  0  0  0  0  0  0  0
  -12.3272  -33.9898  -19.1237 C   0  0  0  0  0  0  0  0  0  0  0  0
  -11.6700  -33.0543  -19.8624 C   0  0  0  0  0  0  0  0  0  0  0  0
   -7.1117  -35.5467  -18.0702 C   0  0  0  0  0  0  0  0  0  0  0  0
  -12.8441  -31.5796  -15.7315 C   0  0  0  0  0  0  0  0  0  0  0  0
  -11.4507  -31.5948  -15.6019 C   0  0  0  0  0  0  0  0  0  0  0  0
  -10.9042  -31.0464  -14.4491 C   0  0  0  0  0  0  0  0  0  0  0  0
   -9.6179  -31.2554  -14.1075 C   0  0  0  0  0  0  0  0  0  0  0  0
   -8.8202  -32.0078  -14.8691 C   0  0  0  0  0  0  0  0  0  0  0  0
   -9.2635  -32.6402  -16.0994 C   0  0  0  0  0  0  0  0  0  0  0  0
  -10.6345  -32.3660  -16.4131 C   0  0  0  0  0  0  0  0  0  0  0  0
  -10.9378  -32.2697  -18.9484 C   0  0  0  0  0  0  0  0  0  0  0  0
   -8.6045  -33.5260  -16.6978 C   0  0  0  0  0  0  0  0  0  0  0  0
   -7.8858  -34.4932  -17.3423 C   0  0  0  0  0  0  0  0  0  0  0  0
   -7.5679  -36.0008  -19.2654 C   0  0  0  0  0  0  0  0  0  0  0  0
   -6.8923  -37.1028  -19.8306 C   0  0  0  0  0  0  0  0  0  0  0  0
   -5.3779  -37.1928  -17.9784 C   0  0  0  0  0  0  0  0  0  0  0  0
  -11.1283  -32.7040  -17.6976 N   0  0  0  0  0  0  0  0  0  0  0  0
  -13.7427  -31.0823  -14.9950 O   0  0  0  0  0  0  0  0  0  0  0  0
  -13.4909  -32.2129  -16.8479 O   0  0  0  0  0  0  0  0  0  0  0  0
  6  1  2  0
  1 19  1  0
  2 18  1  0
 19  2  2  0
  3  4  2  0
 20  3  1  0
  5  4  1  0
 14  5  2  0
 16  6  1  0
  6 17  1  0
  8  7  1  0
  7 21  2  0
  7 22  1  0
  8  9  2  0
 13  8  1  0
 10  9  1  0
 11 10  2  0
 12 11  1  0
 12 13  2  0
 15 12  1  0
 13 20  1  0
 20 14  1  0
 15 16  3  0
 17 18  2  0
M  END
$$$$
