
     RDKit          3D

 22 24  0  0  0  0  0  0  0  0999 V2000
   -2.4015  -17.2546   -1.5165 C   0  0  0  0  0  0  0  0  0  0  0  0
   -3.4165  -15.1352   -1.8139 C   0  0  0  0  0  0  0  0  0  0  0  0
   -3.2426  -19.0905    4.4854 C   0  0  0  0  0  0  0  0  0  0  0  0
   -3.6467  -17.9389    5.1024 C   0  0  0  0  0  0  0  0  0  0  0  0
   -2.5614  -17.1367    5.2785 C   0  0  0  0  0  0  0  0  0  0  0  0
   -2.1708  -16.8914   -0.1874 C   0  0  0  0  0  0  0  0  0  0  0  0
   -1.6825  -21.5957    5.4423 C   0  0  0  0  0  0  0  0  0  0  0  0
   -0.9542  -21.2391    4.3017 C   0  0  0  0  0  0  0  0  0  0  0  0
   -0.1344  -22.2044    3.7322 C   0  0  0  0  0  0  0  0  0  0  0  0
    0.3854  -22.0525    2.4986 C   0  0  0  0  0  0  0  0  0  0  0  0
    0.1230  -20.9624    1.7738 C   0  0  0  0  0  0  0  0  0  0  0  0
   -0.7182  -19.8776    2.2488 C   0  0  0  0  0  0  0  0  0  0  0  0
   -1.2257  -20.0939    3.5712 C   0  0  0  0  0  0  0  0  0  0  0  0
   -1.4599  -17.8367    4.7457 C   0  0  0  0  0  0  0  0  0  0  0  0
   -1.1574  -18.9665    1.5044 C   0  0  0  0  0  0  0  0  0  0  0  0
   -1.6299  -17.9704    0.6969 C   0  0  0  0  0  0  0  0  0  0  0  0
   -2.5254  -15.6999    0.3579 C   0  0  0  0  0  0  0  0  0  0  0  0
   -3.1771  -14.7782   -0.4884 C   0  0  0  0  0  0  0  0  0  0  0  0
   -3.0569  -16.3029   -2.3304 C   0  0  0  0  0  0  0  0  0  0  0  0
   -1.8470  -19.0194    4.2550 N   0  0  0  0  0  0  0  0  0  0  0  0
   -2.7111  -22.3170    5.5809 O   0  0  0  0  0  0  0  0  0  0  0  0
   -1.3029  -21.1164    6.7431 O   0  0  0  0  0  0  0  0  0  0  0  0
  6  1  2  0
  1 19  1  0
  2 18  1  0
 19  2  2  0
  3  4  2  0
 20  3  1  0
  5  4  1  0
 14  5  2  0
 16  6  1  0
  6 17  1  0
  8  7  1  0
  7 21  2  0
  7 22  1  0
  8  9  2  0
 13  8  1  0
 10  9  1  0
 11 10  2  0
 12 11  1  0
 12 13  2  0
 15 12  1  0
 13 20  1  0
 20 14  1  0
 15 16  3  0
 17 18  2  0
M  END
$$$$
