
     RDKit          3D

 22 24  0  0  0  0  0  0  0  0999 V2000
   -8.7443  -33.4120  -15.7640 C   0  0  0  0  0  0  0  0  0  0  0  0
   -6.7737  -32.0388  -15.7082 C   0  0  0  0  0  0  0  0  0  0  0  0
  -13.8699  -29.7718  -16.7944 C   0  0  0  0  0  0  0  0  0  0  0  0
  -13.2532  -29.3230  -17.9423 C   0  0  0  0  0  0  0  0  0  0  0  0
  -12.8618  -30.4300  -18.6880 C   0  0  0  0  0  0  0  0  0  0  0  0
   -9.5083  -32.3279  -15.4333 C   0  0  0  0  0  0  0  0  0  0  0  0
  -16.6515  -31.3608  -16.6097 C   0  0  0  0  0  0  0  0  0  0  0  0
  -15.7668  -32.1457  -15.7588 C   0  0  0  0  0  0  0  0  0  0  0  0
  -16.3185  -33.0220  -14.8477 C   0  0  0  0  0  0  0  0  0  0  0  0
  -15.4821  -33.7704  -14.0366 C   0  0  0  0  0  0  0  0  0  0  0  0
  -14.1114  -33.6523  -14.1265 C   0  0  0  0  0  0  0  0  0  0  0  0
  -13.5494  -32.7761  -15.0372 C   0  0  0  0  0  0  0  0  0  0  0  0
  -14.3925  -32.0312  -15.8448 C   0  0  0  0  0  0  0  0  0  0  0  0
  -13.2657  -31.5199  -17.9459 C   0  0  0  0  0  0  0  0  0  0  0  0
  -12.1284  -32.6183  -15.1679 C   0  0  0  0  0  0  0  0  0  0  0  0
  -10.9352  -32.4799  -15.2901 C   0  0  0  0  0  0  0  0  0  0  0  0
   -8.8859  -31.1090  -15.2445 C   0  0  0  0  0  0  0  0  0  0  0  0
   -7.5267  -30.9349  -15.3745 C   0  0  0  0  0  0  0  0  0  0  0  0
   -7.3779  -33.2633  -15.9005 C   0  0  0  0  0  0  0  0  0  0  0  0
  -13.8763  -31.1148  -16.7990 N   0  0  0  0  0  0  0  0  0  0  0  0
  -16.3945  -31.1197  -17.8155 O   0  0  0  0  0  0  0  0  0  0  0  0
  -17.8371  -30.8379  -16.1114 O   0  0  0  0  0  0  0  0  0  0  0  0
  6  1  2  0
  1 19  1  0
  2 18  1  0
 19  2  2  0
  3  4  2  0
 20  3  1  0
  5  4  1  0
 14  5  2  0
 16  6  1  0
  6 17  1  0
  8  7  1  0
  7 21  2  0
  7 22  1  0
  8  9  2  0
 13  8  1  0
 10  9  1  0
 11 10  2  0
 12 11  1  0
 12 13  2  0
 15 12  1  0
 13 20  1  0
 20 14  1  0
 15 16  3  0
 17 18  2  0
M  END
$$$$
