
     RDKit          3D

 22 24  0  0  0  0  0  0  0  0999 V2000
   -7.7559  -18.0861  -14.0711 C   0  0  0  0  0  0  0  0  0  0  0  0
   -9.8761  -18.0660  -15.1271 C   0  0  0  0  0  0  0  0  0  0  0  0
   -2.8350  -14.7275  -14.1650 C   0  0  0  0  0  0  0  0  0  0  0  0
   -2.7379  -14.4913  -15.5084 C   0  0  0  0  0  0  0  0  0  0  0  0
   -3.6284  -13.5182  -15.8438 C   0  0  0  0  0  0  0  0  0  0  0  0
   -7.8740  -16.7002  -13.9407 C   0  0  0  0  0  0  0  0  0  0  0  0
   -2.6157  -11.9588  -11.8985 C   0  0  0  0  0  0  0  0  0  0  0  0
   -3.2357  -13.1207  -11.4251 C   0  0  0  0  0  0  0  0  0  0  0  0
   -3.2658  -13.3218  -10.0515 C   0  0  0  0  0  0  0  0  0  0  0  0
   -4.0641  -14.2505   -9.4899 C   0  0  0  0  0  0  0  0  0  0  0  0
   -4.8640  -15.0110  -10.2409 C   0  0  0  0  0  0  0  0  0  0  0  0
   -4.9309  -14.9043  -11.6880 C   0  0  0  0  0  0  0  0  0  0  0  0
   -4.0475  -13.9108  -12.2224 C   0  0  0  0  0  0  0  0  0  0  0  0
   -4.2880  -13.1560  -14.6517 C   0  0  0  0  0  0  0  0  0  0  0  0
   -5.8310  -15.4410  -12.3800 C   0  0  0  0  0  0  0  0  0  0  0  0
   -6.8107  -16.0308  -13.1281 C   0  0  0  0  0  0  0  0  0  0  0  0
   -8.9338  -15.9732  -14.3777 C   0  0  0  0  0  0  0  0  0  0  0  0
   -9.9833  -16.6827  -14.9986 C   0  0  0  0  0  0  0  0  0  0  0  0
   -8.8290  -18.7587  -14.6988 C   0  0  0  0  0  0  0  0  0  0  0  0
   -3.8220  -13.8698  -13.6209 N   0  0  0  0  0  0  0  0  0  0  0  0
   -1.6816  -11.7956  -12.7340 O   0  0  0  0  0  0  0  0  0  0  0  0
   -3.0128  -10.6616  -11.4237 O   0  0  0  0  0  0  0  0  0  0  0  0
  6  1  2  0
  1 19  1  0
  2 18  1  0
 19  2  2  0
  3  4  2  0
 20  3  1  0
  5  4  1  0
 14  5  2  0
 16  6  1  0
  6 17  1  0
  8  7  1  0
  7 21  2  0
  7 22  1  0
  8  9  2  0
 13  8  1  0
 10  9  1  0
 11 10  2  0
 12 11  1  0
 12 13  2  0
 15 12  1  0
 13 20  1  0
 20 14  1  0
 15 16  3  0
 17 18  2  0
M  END
$$$$
