
     RDKit          3D

 22 24  0  0  0  0  0  0  0  0999 V2000
   -6.8060  -34.3698  -18.5041 C   0  0  0  0  0  0  0  0  0  0  0  0
   -5.0245  -35.9195  -18.6920 C   0  0  0  0  0  0  0  0  0  0  0  0
   -9.8002  -31.0232  -15.0229 C   0  0  0  0  0  0  0  0  0  0  0  0
   -8.9789  -30.0271  -15.4740 C   0  0  0  0  0  0  0  0  0  0  0  0
   -9.0466  -29.9906  -16.8329 C   0  0  0  0  0  0  0  0  0  0  0  0
   -7.4488  -35.2990  -17.6825 C   0  0  0  0  0  0  0  0  0  0  0  0
  -13.1817  -31.0494  -15.8381 C   0  0  0  0  0  0  0  0  0  0  0  0
  -12.6339  -32.2930  -15.5037 C   0  0  0  0  0  0  0  0  0  0  0  0
  -13.4962  -33.2693  -15.0227 C   0  0  0  0  0  0  0  0  0  0  0  0
  -13.1238  -34.5610  -14.9350 C   0  0  0  0  0  0  0  0  0  0  0  0
  -11.9049  -34.9501  -15.3162 C   0  0  0  0  0  0  0  0  0  0  0  0
  -10.9061  -34.0330  -15.8371 C   0  0  0  0  0  0  0  0  0  0  0  0
  -11.3594  -32.6748  -15.8897 C   0  0  0  0  0  0  0  0  0  0  0  0
   -9.9454  -31.0078  -17.2129 C   0  0  0  0  0  0  0  0  0  0  0  0
   -9.8529  -34.4094  -16.4082 C   0  0  0  0  0  0  0  0  0  0  0  0
   -8.7067  -34.8252  -17.0252 C   0  0  0  0  0  0  0  0  0  0  0  0
   -6.9424  -36.5143  -17.3515 C   0  0  0  0  0  0  0  0  0  0  0  0
   -5.6750  -36.8434  -17.8767 C   0  0  0  0  0  0  0  0  0  0  0  0
   -5.5385  -34.7385  -19.0094 C   0  0  0  0  0  0  0  0  0  0  0  0
  -10.4190  -31.6436  -16.1355 N   0  0  0  0  0  0  0  0  0  0  0  0
  -12.9023  -30.2401  -16.7679 O   0  0  0  0  0  0  0  0  0  0  0  0
  -14.2479  -30.4771  -15.0625 O   0  0  0  0  0  0  0  0  0  0  0  0
  6  1  2  0
  1 19  1  0
  2 18  1  0
 19  2  2  0
  3  4  2  0
 20  3  1  0
  5  4  1  0
 14  5  2  0
 16  6  1  0
  6 17  1  0
  8  7  1  0
  7 21  2  0
  7 22  1  0
  8  9  2  0
 13  8  1  0
 10  9  1  0
 11 10  2  0
 12 11  1  0
 12 13  2  0
 15 12  1  0
 13 20  1  0
 20 14  1  0
 15 16  3  0
 17 18  2  0
M  END
$$$$
