
     RDKit          3D

 22 24  0  0  0  0  0  0  0  0999 V2000
    0.5777  -21.4673    1.2576 C   0  0  0  0  0  0  0  0  0  0  0  0
    0.2277  -23.6713    2.1475 C   0  0  0  0  0  0  0  0  0  0  0  0
   -3.6469  -18.1891    4.0446 C   0  0  0  0  0  0  0  0  0  0  0  0
   -4.7339  -19.0311    4.1393 C   0  0  0  0  0  0  0  0  0  0  0  0
   -5.4431  -18.9632    2.9447 C   0  0  0  0  0  0  0  0  0  0  0  0
   -0.4767  -21.0035    1.9934 C   0  0  0  0  0  0  0  0  0  0  0  0
   -4.4583  -14.9288    2.7393 C   0  0  0  0  0  0  0  0  0  0  0  0
   -3.1589  -15.3428    2.2264 C   0  0  0  0  0  0  0  0  0  0  0  0
   -2.3189  -14.3918    1.6856 C   0  0  0  0  0  0  0  0  0  0  0  0
   -1.0828  -14.7801    1.1968 C   0  0  0  0  0  0  0  0  0  0  0  0
   -0.6816  -16.0983    1.2430 C   0  0  0  0  0  0  0  0  0  0  0  0
   -1.5172  -17.0587    1.7835 C   0  0  0  0  0  0  0  0  0  0  0  0
   -2.7518  -16.6626    2.2702 C   0  0  0  0  0  0  0  0  0  0  0  0
   -4.7421  -18.0673    2.1651 C   0  0  0  0  0  0  0  0  0  0  0  0
   -1.1441  -18.4433    1.8537 C   0  0  0  0  0  0  0  0  0  0  0  0
   -0.8436  -19.6112    1.9124 C   0  0  0  0  0  0  0  0  0  0  0  0
   -1.1654  -21.8894    2.7995 C   0  0  0  0  0  0  0  0  0  0  0  0
   -0.8376  -23.2228    2.8964 C   0  0  0  0  0  0  0  0  0  0  0  0
    0.9266  -22.8013    1.3374 C   0  0  0  0  0  0  0  0  0  0  0  0
   -3.6542  -17.6013    2.8370 N   0  0  0  0  0  0  0  0  0  0  0  0
   -4.8081  -15.1170    3.9310 O   0  0  0  0  0  0  0  0  0  0  0  0
   -5.3793  -14.2975    1.9145 O   0  0  0  0  0  0  0  0  0  0  0  0
  6  1  2  0
  1 19  1  0
  2 18  1  0
 19  2  2  0
  3  4  2  0
 20  3  1  0
  5  4  1  0
 14  5  2  0
 16  6  1  0
  6 17  1  0
  8  7  1  0
  7 21  2  0
  7 22  1  0
  8  9  2  0
 13  8  1  0
 10  9  1  0
 11 10  2  0
 12 11  1  0
 12 13  2  0
 15 12  1  0
 13 20  1  0
 20 14  1  0
 15 16  3  0
 17 18  2  0
M  END
$$$$
