
     RDKit          3D

 22 24  0  0  0  0  0  0  0  0999 V2000
    0.1491  -22.0618    0.9271 C   0  0  0  0  0  0  0  0  0  0  0  0
    1.1498  -23.5912    2.4338 C   0  0  0  0  0  0  0  0  0  0  0  0
   -3.1964  -17.6750    4.3176 C   0  0  0  0  0  0  0  0  0  0  0  0
   -2.5367  -17.5863    5.5121 C   0  0  0  0  0  0  0  0  0  0  0  0
   -1.3119  -17.0350    5.2918 C   0  0  0  0  0  0  0  0  0  0  0  0
   -0.6290  -21.6099    1.9957 C   0  0  0  0  0  0  0  0  0  0  0  0
   -3.1173  -14.6771    2.1321 C   0  0  0  0  0  0  0  0  0  0  0  0
   -3.4577  -15.9127    1.5700 C   0  0  0  0  0  0  0  0  0  0  0  0
   -4.1812  -15.9046    0.3848 C   0  0  0  0  0  0  0  0  0  0  0  0
   -4.3179  -17.0134   -0.3681 C   0  0  0  0  0  0  0  0  0  0  0  0
   -3.7526  -18.1656    0.0001 C   0  0  0  0  0  0  0  0  0  0  0  0
   -2.9699  -18.3126    1.2149 C   0  0  0  0  0  0  0  0  0  0  0  0
   -2.8766  -17.1026    1.9766 C   0  0  0  0  0  0  0  0  0  0  0  0
   -1.2333  -16.7833    3.9071 C   0  0  0  0  0  0  0  0  0  0  0  0
   -2.2489  -19.3122    1.4561 C   0  0  0  0  0  0  0  0  0  0  0  0
   -1.4699  -20.4028    1.7229 C   0  0  0  0  0  0  0  0  0  0  0  0
   -0.5631  -22.1030    3.2588 C   0  0  0  0  0  0  0  0  0  0  0  0
    0.3656  -23.1390    3.4930 C   0  0  0  0  0  0  0  0  0  0  0  0
    1.0668  -23.1005    1.2041 C   0  0  0  0  0  0  0  0  0  0  0  0
   -2.3632  -17.1570    3.2963 N   0  0  0  0  0  0  0  0  0  0  0  0
   -3.1473  -14.2708    3.3286 O   0  0  0  0  0  0  0  0  0  0  0  0
   -2.6462  -13.5949    1.3119 O   0  0  0  0  0  0  0  0  0  0  0  0
  6  1  2  0
  1 19  1  0
  2 18  1  0
 19  2  2  0
  3  4  2  0
 20  3  1  0
  5  4  1  0
 14  5  2  0
 16  6  1  0
  6 17  1  0
  8  7  1  0
  7 21  2  0
  7 22  1  0
  8  9  2  0
 13  8  1  0
 10  9  1  0
 11 10  2  0
 12 11  1  0
 12 13  2  0
 15 12  1  0
 13 20  1  0
 20 14  1  0
 15 16  3  0
 17 18  2  0
M  END
$$$$
