
     RDKit          3D

 22 24  0  0  0  0  0  0  0  0999 V2000
   -4.0414  -20.9926    5.0265 C   0  0  0  0  0  0  0  0  0  0  0  0
   -3.0807  -21.9372    7.0157 C   0  0  0  0  0  0  0  0  0  0  0  0
   -1.0476  -19.1850    0.8195 C   0  0  0  0  0  0  0  0  0  0  0  0
    0.2203  -19.6742    1.0489 C   0  0  0  0  0  0  0  0  0  0  0  0
    0.9694  -18.6739    1.6596 C   0  0  0  0  0  0  0  0  0  0  0  0
   -3.1203  -19.9833    5.0617 C   0  0  0  0  0  0  0  0  0  0  0  0
   -1.1212  -15.9511   -0.7164 C   0  0  0  0  0  0  0  0  0  0  0  0
   -2.1914  -16.0306    0.2691 C   0  0  0  0  0  0  0  0  0  0  0  0
   -3.2207  -15.1142    0.2147 C   0  0  0  0  0  0  0  0  0  0  0  0
   -4.2403  -15.1854    1.1490 C   0  0  0  0  0  0  0  0  0  0  0  0
   -4.2410  -16.1554    2.1287 C   0  0  0  0  0  0  0  0  0  0  0  0
   -3.2130  -17.0786    2.1909 C   0  0  0  0  0  0  0  0  0  0  0  0
   -2.1970  -17.0008    1.2530 C   0  0  0  0  0  0  0  0  0  0  0  0
    0.1071  -17.6039    1.7753 C   0  0  0  0  0  0  0  0  0  0  0  0
   -3.1697  -18.1068    3.1920 C   0  0  0  0  0  0  0  0  0  0  0  0
   -3.1418  -18.9641    4.0416 C   0  0  0  0  0  0  0  0  0  0  0  0
   -2.1885  -19.9692    6.0818 C   0  0  0  0  0  0  0  0  0  0  0  0
   -2.1445  -20.9283    7.0681 C   0  0  0  0  0  0  0  0  0  0  0  0
   -4.0182  -21.9672    6.0049 C   0  0  0  0  0  0  0  0  0  0  0  0
   -1.1142  -17.9195    1.2644 N   0  0  0  0  0  0  0  0  0  0  0  0
   -0.7221  -16.9495   -1.3660 O   0  0  0  0  0  0  0  0  0  0  0  0
   -0.4879  -14.7446   -0.9817 O   0  0  0  0  0  0  0  0  0  0  0  0
  6  1  2  0
  1 19  1  0
  2 18  1  0
 19  2  2  0
  3  4  2  0
 20  3  1  0
  5  4  1  0
 14  5  2  0
 16  6  1  0
  6 17  1  0
  8  7  1  0
  7 21  2  0
  7 22  1  0
  8  9  2  0
 13  8  1  0
 10  9  1  0
 11 10  2  0
 12 11  1  0
 12 13  2  0
 15 12  1  0
 13 20  1  0
 20 14  1  0
 15 16  3  0
 17 18  2  0
M  END
$$$$
