
     RDKit          3D

 22 24  0  0  0  0  0  0  0  0999 V2000
    0.2430  -21.4404    1.2920 C   0  0  0  0  0  0  0  0  0  0  0  0
    0.7201  -23.7111    1.7678 C   0  0  0  0  0  0  0  0  0  0  0  0
   -2.7520  -16.8976    0.6598 C   0  0  0  0  0  0  0  0  0  0  0  0
   -3.3292  -17.3970   -0.4748 C   0  0  0  0  0  0  0  0  0  0  0  0
   -4.2843  -18.2979   -0.1158 C   0  0  0  0  0  0  0  0  0  0  0  0
   -0.4377  -21.3898    2.5109 C   0  0  0  0  0  0  0  0  0  0  0  0
   -4.8757  -15.5868    3.2467 C   0  0  0  0  0  0  0  0  0  0  0  0
   -3.5820  -15.9723    3.6161 C   0  0  0  0  0  0  0  0  0  0  0  0
   -3.0382  -15.3960    4.7564 C   0  0  0  0  0  0  0  0  0  0  0  0
   -1.9314  -15.8938    5.3414 C   0  0  0  0  0  0  0  0  0  0  0  0
   -1.3184  -16.9704    4.8436 C   0  0  0  0  0  0  0  0  0  0  0  0
   -1.7814  -17.6694    3.6575 C   0  0  0  0  0  0  0  0  0  0  0  0
   -2.9513  -17.0810    3.0758 C   0  0  0  0  0  0  0  0  0  0  0  0
   -4.2791  -18.3413    1.2932 C   0  0  0  0  0  0  0  0  0  0  0  0
   -1.3604  -18.8015    3.3137 C   0  0  0  0  0  0  0  0  0  0  0  0
   -0.9092  -20.0350    2.9365 C   0  0  0  0  0  0  0  0  0  0  0  0
   -0.5697  -22.4381    3.3632 C   0  0  0  0  0  0  0  0  0  0  0  0
    0.0341  -23.6541    2.9793 C   0  0  0  0  0  0  0  0  0  0  0  0
    0.8332  -22.6769    0.9449 C   0  0  0  0  0  0  0  0  0  0  0  0
   -3.3643  -17.4991    1.7863 N   0  0  0  0  0  0  0  0  0  0  0  0
   -6.0037  -15.8881    3.7306 O   0  0  0  0  0  0  0  0  0  0  0  0
   -5.0960  -14.7043    2.1338 O   0  0  0  0  0  0  0  0  0  0  0  0
  6  1  2  0
  1 19  1  0
  2 18  1  0
 19  2  2  0
  3  4  2  0
 20  3  1  0
  5  4  1  0
 14  5  2  0
 16  6  1  0
  6 17  1  0
  8  7  1  0
  7 21  2  0
  7 22  1  0
  8  9  2  0
 13  8  1  0
 10  9  1  0
 11 10  2  0
 12 11  1  0
 12 13  2  0
 15 12  1  0
 13 20  1  0
 20 14  1  0
 15 16  3  0
 17 18  2  0
M  END
$$$$
