
     RDKit          3D

 22 24  0  0  0  0  0  0  0  0999 V2000
   -7.4766  -20.9625    2.9527 C   0  0  0  0  0  0  0  0  0  0  0  0
   -8.9946  -22.6271    3.6843 C   0  0  0  0  0  0  0  0  0  0  0  0
   -4.1766  -17.4715    5.4570 C   0  0  0  0  0  0  0  0  0  0  0  0
   -5.1718  -16.5474    5.2970 C   0  0  0  0  0  0  0  0  0  0  0  0
   -5.1530  -16.1076    4.0091 C   0  0  0  0  0  0  0  0  0  0  0  0
   -6.5515  -21.4940    3.8545 C   0  0  0  0  0  0  0  0  0  0  0  0
   -0.8722  -16.9919    5.0980 C   0  0  0  0  0  0  0  0  0  0  0  0
   -1.1637  -18.1376    4.3490 C   0  0  0  0  0  0  0  0  0  0  0  0
   -0.1135  -18.9933    4.0442 C   0  0  0  0  0  0  0  0  0  0  0  0
   -0.3285  -20.2378    3.5751 C   0  0  0  0  0  0  0  0  0  0  0  0
   -1.5690  -20.6961    3.3915 C   0  0  0  0  0  0  0  0  0  0  0  0
   -2.7558  -19.9064    3.6702 C   0  0  0  0  0  0  0  0  0  0  0  0
   -2.4580  -18.5896    4.1506 C   0  0  0  0  0  0  0  0  0  0  0  0
   -4.1020  -16.7960    3.3700 C   0  0  0  0  0  0  0  0  0  0  0  0
   -3.9127  -20.3920    3.7231 C   0  0  0  0  0  0  0  0  0  0  0  0
   -5.1690  -20.9270    3.7777 C   0  0  0  0  0  0  0  0  0  0  0  0
   -6.7924  -22.5515    4.6711 C   0  0  0  0  0  0  0  0  0  0  0  0
   -8.0683  -23.1475    4.5857 C   0  0  0  0  0  0  0  0  0  0  0  0
   -8.7426  -21.5886    2.8983 C   0  0  0  0  0  0  0  0  0  0  0  0
   -3.4991  -17.6310    4.2235 N   0  0  0  0  0  0  0  0  0  0  0  0
   -1.1905  -16.6653    6.2767 O   0  0  0  0  0  0  0  0  0  0  0  0
   -0.0902  -15.9222    4.5411 O   0  0  0  0  0  0  0  0  0  0  0  0
  6  1  2  0
  1 19  1  0
  2 18  1  0
 19  2  2  0
  3  4  2  0
 20  3  1  0
  5  4  1  0
 14  5  2  0
 16  6  1  0
  6 17  1  0
  8  7  1  0
  7 21  2  0
  7 22  1  0
  8  9  2  0
 13  8  1  0
 10  9  1  0
 11 10  2  0
 12 11  1  0
 12 13  2  0
 15 12  1  0
 13 20  1  0
 20 14  1  0
 15 16  3  0
 17 18  2  0
M  END
$$$$
