
     RDKit          3D

 22 24  0  0  0  0  0  0  0  0999 V2000
   -5.4982  -20.6352    3.1425 C   0  0  0  0  0  0  0  0  0  0  0  0
   -6.9679  -22.5048    2.8007 C   0  0  0  0  0  0  0  0  0  0  0  0
   -2.1642  -17.4723    2.9159 C   0  0  0  0  0  0  0  0  0  0  0  0
   -1.1693  -18.4192    3.0302 C   0  0  0  0  0  0  0  0  0  0  0  0
   -0.6310  -18.6403    1.7669 C   0  0  0  0  0  0  0  0  0  0  0  0
   -5.9617  -20.0613    1.9919 C   0  0  0  0  0  0  0  0  0  0  0  0
   -1.1760  -14.6467    0.8493 C   0  0  0  0  0  0  0  0  0  0  0  0
   -2.5851  -14.9476    0.6327 C   0  0  0  0  0  0  0  0  0  0  0  0
   -3.3869  -14.0002    0.0313 C   0  0  0  0  0  0  0  0  0  0  0  0
   -4.7268  -14.2812   -0.1769 C   0  0  0  0  0  0  0  0  0  0  0  0
   -5.2683  -15.4896    0.2068 C   0  0  0  0  0  0  0  0  0  0  0  0
   -4.4718  -16.4456    0.8106 C   0  0  0  0  0  0  0  0  0  0  0  0
   -3.1328  -16.1571    1.0154 C   0  0  0  0  0  0  0  0  0  0  0  0
   -1.3358  -17.8029    0.9281 C   0  0  0  0  0  0  0  0  0  0  0  0
   -4.9895  -17.7182    1.2276 C   0  0  0  0  0  0  0  0  0  0  0  0
   -5.4361  -18.7862    1.5706 C   0  0  0  0  0  0  0  0  0  0  0  0
   -6.9279  -20.7251    1.2606 C   0  0  0  0  0  0  0  0  0  0  0  0
   -7.4474  -21.9424    1.6385 C   0  0  0  0  0  0  0  0  0  0  0  0
   -6.0036  -21.8565    3.5433 C   0  0  0  0  0  0  0  0  0  0  0  0
   -2.2640  -17.0973    1.6301 N   0  0  0  0  0  0  0  0  0  0  0  0
   -0.6467  -14.6627    1.9885 O   0  0  0  0  0  0  0  0  0  0  0  0
   -0.3465  -14.3240   -0.2159 O   0  0  0  0  0  0  0  0  0  0  0  0
  6  1  2  0
  1 19  1  0
  2 18  1  0
 19  2  2  0
  3  4  2  0
 20  3  1  0
  5  4  1  0
 14  5  2  0
 16  6  1  0
  6 17  1  0
  8  7  1  0
  7 21  2  0
  7 22  1  0
  8  9  2  0
 13  8  1  0
 10  9  1  0
 11 10  2  0
 12 11  1  0
 12 13  2  0
 15 12  1  0
 13 20  1  0
 20 14  1  0
 15 16  3  0
 17 18  2  0
M  END
$$$$
