
     RDKit          3D

 22 24  0  0  0  0  0  0  0  0999 V2000
   -0.0664  -22.2132    3.3436 C   0  0  0  0  0  0  0  0  0  0  0  0
    1.3893  -23.9824    2.6207 C   0  0  0  0  0  0  0  0  0  0  0  0
   -2.6979  -18.2204    4.6813 C   0  0  0  0  0  0  0  0  0  0  0  0
   -3.0686  -19.1156    5.6613 C   0  0  0  0  0  0  0  0  0  0  0  0
   -3.9365  -20.0446    5.0971 C   0  0  0  0  0  0  0  0  0  0  0  0
   -0.1485  -21.7563    2.0580 C   0  0  0  0  0  0  0  0  0  0  0  0
   -4.8909  -16.3047    3.0869 C   0  0  0  0  0  0  0  0  0  0  0  0
   -4.0275  -16.8346    2.0397 C   0  0  0  0  0  0  0  0  0  0  0  0
   -4.0011  -16.2060    0.8123 C   0  0  0  0  0  0  0  0  0  0  0  0
   -3.1822  -16.7056   -0.1864 C   0  0  0  0  0  0  0  0  0  0  0  0
   -2.3963  -17.8178    0.0280 C   0  0  0  0  0  0  0  0  0  0  0  0
   -2.4163  -18.4546    1.2556 C   0  0  0  0  0  0  0  0  0  0  0  0
   -3.2378  -17.9489    2.2493 C   0  0  0  0  0  0  0  0  0  0  0  0
   -4.0555  -19.6646    3.7768 C   0  0  0  0  0  0  0  0  0  0  0  0
   -1.6161  -19.6154    1.5268 C   0  0  0  0  0  0  0  0  0  0  0  0
   -0.9512  -20.5945    1.7654 C   0  0  0  0  0  0  0  0  0  0  0  0
    0.5457  -22.4263    1.0690 C   0  0  0  0  0  0  0  0  0  0  0  0
    1.3191  -23.5371    1.3192 C   0  0  0  0  0  0  0  0  0  0  0  0
    0.7032  -23.3261    3.6207 C   0  0  0  0  0  0  0  0  0  0  0  0
   -3.3023  -18.5581    3.5304 N   0  0  0  0  0  0  0  0  0  0  0  0
   -5.7767  -16.9953    3.6493 O   0  0  0  0  0  0  0  0  0  0  0  0
   -4.7660  -14.9893    3.5128 O   0  0  0  0  0  0  0  0  0  0  0  0
  6  1  2  0
  1 19  1  0
  2 18  1  0
 19  2  2  0
  3  4  2  0
 20  3  1  0
  5  4  1  0
 14  5  2  0
 16  6  1  0
  6 17  1  0
  8  7  1  0
  7 21  2  0
  7 22  1  0
  8  9  2  0
 13  8  1  0
 10  9  1  0
 11 10  2  0
 12 11  1  0
 12 13  2  0
 15 12  1  0
 13 20  1  0
 20 14  1  0
 15 16  3  0
 17 18  2  0
M  END
$$$$
