
     RDKit          3D

 22 24  0  0  0  0  0  0  0  0999 V2000
   -8.3278  -18.5143  -14.9999 C   0  0  0  0  0  0  0  0  0  0  0  0
  -10.6725  -18.3506  -14.7063 C   0  0  0  0  0  0  0  0  0  0  0  0
   -5.0269  -12.7369  -12.6232 C   0  0  0  0  0  0  0  0  0  0  0  0
   -6.0703  -12.0426  -12.0761 C   0  0  0  0  0  0  0  0  0  0  0  0
   -6.8274  -12.9033  -11.3422 C   0  0  0  0  0  0  0  0  0  0  0  0
   -8.2246  -17.2580  -14.3977 C   0  0  0  0  0  0  0  0  0  0  0  0
   -2.5490  -14.0195  -11.0093 C   0  0  0  0  0  0  0  0  0  0  0  0
   -2.8115  -14.7259  -12.1885 C   0  0  0  0  0  0  0  0  0  0  0  0
   -1.7621  -15.4276  -12.7670 C   0  0  0  0  0  0  0  0  0  0  0  0
   -1.9712  -16.3455  -13.7308 C   0  0  0  0  0  0  0  0  0  0  0  0
   -3.2053  -16.6177  -14.1616 C   0  0  0  0  0  0  0  0  0  0  0  0
   -4.3904  -15.9576  -13.6424 C   0  0  0  0  0  0  0  0  0  0  0  0
   -4.0979  -14.9835  -12.6332 C   0  0  0  0  0  0  0  0  0  0  0  0
   -6.2129  -14.1669  -11.4545 C   0  0  0  0  0  0  0  0  0  0  0  0
   -5.5592  -16.3587  -13.8663 C   0  0  0  0  0  0  0  0  0  0  0  0
   -6.8338  -16.7884  -14.1076 C   0  0  0  0  0  0  0  0  0  0  0  0
   -9.2793  -16.5281  -13.9533 C   0  0  0  0  0  0  0  0  0  0  0  0
  -10.5614  -17.0951  -14.1122 C   0  0  0  0  0  0  0  0  0  0  0  0
   -9.6297  -19.0464  -15.1400 C   0  0  0  0  0  0  0  0  0  0  0  0
   -5.1186  -14.0914  -12.2201 N   0  0  0  0  0  0  0  0  0  0  0  0
   -1.8934  -12.9588  -10.8033 O   0  0  0  0  0  0  0  0  0  0  0  0
   -3.0483  -14.4809   -9.7429 O   0  0  0  0  0  0  0  0  0  0  0  0
  6  1  2  0
  1 19  1  0
  2 18  1  0
 19  2  2  0
  3  4  2  0
 20  3  1  0
  5  4  1  0
 14  5  2  0
 16  6  1  0
  6 17  1  0
  8  7  1  0
  7 21  2  0
  7 22  1  0
  8  9  2  0
 13  8  1  0
 10  9  1  0
 11 10  2  0
 12 11  1  0
 12 13  2  0
 15 12  1  0
 13 20  1  0
 20 14  1  0
 15 16  3  0
 17 18  2  0
M  END
$$$$
