
     RDKit          3D

 22 24  0  0  0  0  0  0  0  0999 V2000
   -5.3654  -21.1171    3.3076 C   0  0  0  0  0  0  0  0  0  0  0  0
   -7.3411  -22.3154    3.9654 C   0  0  0  0  0  0  0  0  0  0  0  0
   -1.3746  -18.4748    1.7394 C   0  0  0  0  0  0  0  0  0  0  0  0
   -0.7924  -19.3118    2.6667 C   0  0  0  0  0  0  0  0  0  0  0  0
   -1.1871  -18.8989    3.9349 C   0  0  0  0  0  0  0  0  0  0  0  0
   -6.1155  -19.9924    3.1058 C   0  0  0  0  0  0  0  0  0  0  0  0
   -0.7737  -15.2744    1.4989 C   0  0  0  0  0  0  0  0  0  0  0  0
   -2.2265  -15.3651    1.4363 C   0  0  0  0  0  0  0  0  0  0  0  0
   -2.9423  -14.3003    0.9301 C   0  0  0  0  0  0  0  0  0  0  0  0
   -4.3233  -14.3815    0.8683 C   0  0  0  0  0  0  0  0  0  0  0  0
   -4.9900  -15.5069    1.3037 C   0  0  0  0  0  0  0  0  0  0  0  0
   -4.2805  -16.5795    1.8128 C   0  0  0  0  0  0  0  0  0  0  0  0
   -2.8997  -16.4907    1.8713 C   0  0  0  0  0  0  0  0  0  0  0  0
   -2.0055  -17.8107    3.7162 C   0  0  0  0  0  0  0  0  0  0  0  0
   -4.9296  -17.7724    2.2784 C   0  0  0  0  0  0  0  0  0  0  0  0
   -5.4750  -18.7807    2.6572 C   0  0  0  0  0  0  0  0  0  0  0  0
   -7.4760  -20.0503    3.3394 C   0  0  0  0  0  0  0  0  0  0  0  0
   -8.1137  -21.1925    3.7677 C   0  0  0  0  0  0  0  0  0  0  0  0
   -5.9817  -22.2761    3.7372 C   0  0  0  0  0  0  0  0  0  0  0  0
   -2.1155  -17.5582    2.3834 N   0  0  0  0  0  0  0  0  0  0  0  0
   -0.1367  -15.3327    2.5801 O   0  0  0  0  0  0  0  0  0  0  0  0
   -0.0211  -15.1168    0.3431 O   0  0  0  0  0  0  0  0  0  0  0  0
  6  1  2  0
  1 19  1  0
  2 18  1  0
 19  2  2  0
  3  4  2  0
 20  3  1  0
  5  4  1  0
 14  5  2  0
 16  6  1  0
  6 17  1  0
  8  7  1  0
  7 21  2  0
  7 22  1  0
  8  9  2  0
 13  8  1  0
 10  9  1  0
 11 10  2  0
 12 11  1  0
 12 13  2  0
 15 12  1  0
 13 20  1  0
 20 14  1  0
 15 16  3  0
 17 18  2  0
M  END
$$$$
