
     RDKit          3D

 22 24  0  0  0  0  0  0  0  0999 V2000
   -4.5999  -18.7346    5.4331 C   0  0  0  0  0  0  0  0  0  0  0  0
   -5.4690  -20.6271    6.5617 C   0  0  0  0  0  0  0  0  0  0  0  0
   -3.9823  -16.6010    0.0900 C   0  0  0  0  0  0  0  0  0  0  0  0
   -5.2069  -16.0276    0.2939 C   0  0  0  0  0  0  0  0  0  0  0  0
   -5.1744  -15.3401    1.4681 C   0  0  0  0  0  0  0  0  0  0  0  0
   -3.7288  -19.6035    4.7714 C   0  0  0  0  0  0  0  0  0  0  0  0
   -1.1051  -14.6785   -0.0289 C   0  0  0  0  0  0  0  0  0  0  0  0
   -0.9118  -16.0201    0.3195 C   0  0  0  0  0  0  0  0  0  0  0  0
    0.3363  -16.5768    0.0738 C   0  0  0  0  0  0  0  0  0  0  0  0
    0.7041  -17.7549    0.6141 C   0  0  0  0  0  0  0  0  0  0  0  0
   -0.1238  -18.4295    1.4154 C   0  0  0  0  0  0  0  0  0  0  0  0
   -1.4563  -17.9612    1.7547 C   0  0  0  0  0  0  0  0  0  0  0  0
   -1.7906  -16.7127    1.1362 C   0  0  0  0  0  0  0  0  0  0  0  0
   -3.8761  -15.5088    1.9909 C   0  0  0  0  0  0  0  0  0  0  0  0
   -2.1502  -18.4586    2.6756 C   0  0  0  0  0  0  0  0  0  0  0  0
   -2.9109  -18.9948    3.6762 C   0  0  0  0  0  0  0  0  0  0  0  0
   -3.6846  -20.9462    4.9669 C   0  0  0  0  0  0  0  0  0  0  0  0
   -4.5927  -21.4862    5.9019 C   0  0  0  0  0  0  0  0  0  0  0  0
   -5.4932  -19.3160    6.3614 C   0  0  0  0  0  0  0  0  0  0  0  0
   -3.1342  -16.2636    1.1728 N   0  0  0  0  0  0  0  0  0  0  0  0
   -1.4815  -13.6865    0.6578 O   0  0  0  0  0  0  0  0  0  0  0  0
   -0.8787  -14.2225   -1.3730 O   0  0  0  0  0  0  0  0  0  0  0  0
  6  1  2  0
  1 19  1  0
  2 18  1  0
 19  2  2  0
  3  4  2  0
 20  3  1  0
  5  4  1  0
 14  5  2  0
 16  6  1  0
  6 17  1  0
  8  7  1  0
  7 21  2  0
  7 22  1  0
  8  9  2  0
 13  8  1  0
 10  9  1  0
 11 10  2  0
 12 11  1  0
 12 13  2  0
 15 12  1  0
 13 20  1  0
 20 14  1  0
 15 16  3  0
 17 18  2  0
M  END
$$$$
