
     RDKit          3D

 22 24  0  0  0  0  0  0  0  0999 V2000
   -6.7283  -32.0000  -14.7781 C   0  0  0  0  0  0  0  0  0  0  0  0
   -6.1719  -30.2063  -13.3346 C   0  0  0  0  0  0  0  0  0  0  0  0
   -7.8056  -34.6206  -18.8587 C   0  0  0  0  0  0  0  0  0  0  0  0
   -6.7474  -35.4277  -18.5445 C   0  0  0  0  0  0  0  0  0  0  0  0
   -7.1644  -36.3598  -17.6445 C   0  0  0  0  0  0  0  0  0  0  0  0
   -7.9503  -31.3615  -15.0031 C   0  0  0  0  0  0  0  0  0  0  0  0
  -11.1540  -36.4217  -19.2835 C   0  0  0  0  0  0  0  0  0  0  0  0
  -11.1127  -35.0299  -19.1434 C   0  0  0  0  0  0  0  0  0  0  0  0
  -12.2156  -34.3052  -19.5754 C   0  0  0  0  0  0  0  0  0  0  0  0
  -12.3883  -33.0121  -19.2391 C   0  0  0  0  0  0  0  0  0  0  0  0
  -11.5003  -32.3803  -18.4679 C   0  0  0  0  0  0  0  0  0  0  0  0
  -10.3040  -33.0196  -17.9481 C   0  0  0  0  0  0  0  0  0  0  0  0
  -10.1725  -34.3872  -18.3548 C   0  0  0  0  0  0  0  0  0  0  0  0
   -8.5297  -36.1003  -17.4084 C   0  0  0  0  0  0  0  0  0  0  0  0
   -9.5883  -32.5180  -17.0463 C   0  0  0  0  0  0  0  0  0  0  0  0
   -8.8154  -31.9681  -16.0626 C   0  0  0  0  0  0  0  0  0  0  0  0
   -8.3220  -30.1870  -14.4327 C   0  0  0  0  0  0  0  0  0  0  0  0
   -7.3955  -29.5789  -13.5597 C   0  0  0  0  0  0  0  0  0  0  0  0
   -5.8289  -31.3577  -13.8970 C   0  0  0  0  0  0  0  0  0  0  0  0
   -8.9426  -35.0560  -18.1353 N   0  0  0  0  0  0  0  0  0  0  0  0
  -10.2291  -37.2715  -19.4239 O   0  0  0  0  0  0  0  0  0  0  0  0
  -12.4057  -37.1282  -19.2942 O   0  0  0  0  0  0  0  0  0  0  0  0
  6  1  2  0
  1 19  1  0
  2 18  1  0
 19  2  2  0
  3  4  2  0
 20  3  1  0
  5  4  1  0
 14  5  2  0
 16  6  1  0
  6 17  1  0
  8  7  1  0
  7 21  2  0
  7 22  1  0
  8  9  2  0
 13  8  1  0
 10  9  1  0
 11 10  2  0
 12 11  1  0
 12 13  2  0
 15 12  1  0
 13 20  1  0
 20 14  1  0
 15 16  3  0
 17 18  2  0
M  END
$$$$
