
     RDKit          3D

 22 24  0  0  0  0  0  0  0  0999 V2000
   -3.6723  -30.8468  -10.9600 C   0  0  0  0  0  0  0  0  0  0  0  0
   -4.9493  -28.8143  -11.0616 C   0  0  0  0  0  0  0  0  0  0  0  0
   -0.8587  -31.3235   -6.1329 C   0  0  0  0  0  0  0  0  0  0  0  0
   -1.1516  -30.2400   -5.3330 C   0  0  0  0  0  0  0  0  0  0  0  0
   -2.1099  -30.6309   -4.4038 C   0  0  0  0  0  0  0  0  0  0  0  0
   -3.8731  -30.9046   -9.6092 C   0  0  0  0  0  0  0  0  0  0  0  0
   -0.4534  -34.3957   -4.1895 C   0  0  0  0  0  0  0  0  0  0  0  0
   -1.0841  -34.6919   -5.4690 C   0  0  0  0  0  0  0  0  0  0  0  0
   -1.1111  -35.9966   -5.9156 C   0  0  0  0  0  0  0  0  0  0  0  0
   -1.7093  -36.2836   -7.1311 C   0  0  0  0  0  0  0  0  0  0  0  0
   -2.2759  -35.2877   -7.8979 C   0  0  0  0  0  0  0  0  0  0  0  0
   -2.2535  -33.9766   -7.4580 C   0  0  0  0  0  0  0  0  0  0  0  0
   -1.6534  -33.6976   -6.2415 C   0  0  0  0  0  0  0  0  0  0  0  0
   -2.3598  -31.9573   -4.6866 C   0  0  0  0  0  0  0  0  0  0  0  0
   -2.8300  -32.9055   -8.2206 C   0  0  0  0  0  0  0  0  0  0  0  0
   -3.3111  -31.9959   -8.8522 C   0  0  0  0  0  0  0  0  0  0  0  0
   -4.6145  -29.9080   -9.0043 C   0  0  0  0  0  0  0  0  0  0  0  0
   -5.1625  -28.8553   -9.7015 C   0  0  0  0  0  0  0  0  0  0  0  0
   -4.2118  -29.8004  -11.6823 C   0  0  0  0  0  0  0  0  0  0  0  0
   -1.5984  -32.3718   -5.7358 N   0  0  0  0  0  0  0  0  0  0  0  0
    0.6177  -34.9381   -3.8198 O   0  0  0  0  0  0  0  0  0  0  0  0
   -1.0227  -33.4841   -3.3109 O   0  0  0  0  0  0  0  0  0  0  0  0
  6  1  2  0
  1 19  1  0
  2 18  1  0
 19  2  2  0
  3  4  2  0
 20  3  1  0
  5  4  1  0
 14  5  2  0
 16  6  1  0
  6 17  1  0
  8  7  1  0
  7 21  2  0
  7 22  1  0
  8  9  2  0
 13  8  1  0
 10  9  1  0
 11 10  2  0
 12 11  1  0
 12 13  2  0
 15 12  1  0
 13 20  1  0
 20 14  1  0
 15 16  3  0
 17 18  2  0
M  END
$$$$
