
     RDKit          3D

 22 24  0  0  0  0  0  0  0  0999 V2000
    0.2366  -21.8339    3.4580 C   0  0  0  0  0  0  0  0  0  0  0  0
    1.5261  -23.7222    2.7208 C   0  0  0  0  0  0  0  0  0  0  0  0
   -4.1601  -19.4859    3.7681 C   0  0  0  0  0  0  0  0  0  0  0  0
   -4.0213  -19.7558    5.1125 C   0  0  0  0  0  0  0  0  0  0  0  0
   -3.1503  -18.8181    5.6574 C   0  0  0  0  0  0  0  0  0  0  0  0
   -0.0218  -21.5033    2.1571 C   0  0  0  0  0  0  0  0  0  0  0  0
   -4.9818  -16.1712    2.9279 C   0  0  0  0  0  0  0  0  0  0  0  0
   -4.0038  -16.6502    1.9599 C   0  0  0  0  0  0  0  0  0  0  0  0
   -3.8598  -15.9767    0.7649 C   0  0  0  0  0  0  0  0  0  0  0  0
   -2.9317  -16.4277   -0.1585 C   0  0  0  0  0  0  0  0  0  0  0  0
   -2.1529  -17.5359    0.0987 C   0  0  0  0  0  0  0  0  0  0  0  0
   -2.2904  -18.2175    1.2943 C   0  0  0  0  0  0  0  0  0  0  0  0
   -3.2207  -17.7603    2.2127 C   0  0  0  0  0  0  0  0  0  0  0  0
   -2.7935  -18.0073    4.6005 C   0  0  0  0  0  0  0  0  0  0  0  0
   -1.5025  -19.3761    1.6077 C   0  0  0  0  0  0  0  0  0  0  0  0
   -0.8296  -20.3452    1.8641 C   0  0  0  0  0  0  0  0  0  0  0  0
    0.5029  -22.2947    1.1535 C   0  0  0  0  0  0  0  0  0  0  0  0
    1.2768  -23.4051    1.4038 C   0  0  0  0  0  0  0  0  0  0  0  0
    1.0106  -22.9437    3.7355 C   0  0  0  0  0  0  0  0  0  0  0  0
   -3.4087  -18.4169    3.4577 N   0  0  0  0  0  0  0  0  0  0  0  0
   -5.9923  -16.8402    3.2584 O   0  0  0  0  0  0  0  0  0  0  0  0
   -4.8323  -14.9319    3.5352 O   0  0  0  0  0  0  0  0  0  0  0  0
  6  1  2  0
  1 19  1  0
  2 18  1  0
 19  2  2  0
  3  4  2  0
 20  3  1  0
  5  4  1  0
 14  5  2  0
 16  6  1  0
  6 17  1  0
  8  7  1  0
  7 21  2  0
  7 22  1  0
  8  9  2  0
 13  8  1  0
 10  9  1  0
 11 10  2  0
 12 11  1  0
 12 13  2  0
 15 12  1  0
 13 20  1  0
 20 14  1  0
 15 16  3  0
 17 18  2  0
M  END
$$$$
