
     RDKit          3D

 22 24  0  0  0  0  0  0  0  0999 V2000
   -0.9535  -44.9510   -6.1970 C   0  0  0  0  0  0  0  0  0  0  0  0
   -3.2513  -44.3327   -6.5281 C   0  0  0  0  0  0  0  0  0  0  0  0
    1.5212  -41.5684   -2.3571 C   0  0  0  0  0  0  0  0  0  0  0  0
    0.8539  -42.0221   -1.2398 C   0  0  0  0  0  0  0  0  0  0  0  0
    1.4977  -43.1674   -0.7830 C   0  0  0  0  0  0  0  0  0  0  0  0
   -0.6495  -43.6542   -5.8900 C   0  0  0  0  0  0  0  0  0  0  0  0
    5.1615  -41.6812   -1.9033 C   0  0  0  0  0  0  0  0  0  0  0  0
    4.8144  -41.9906   -3.2841 C   0  0  0  0  0  0  0  0  0  0  0  0
    5.7967  -41.9307   -4.2506 C   0  0  0  0  0  0  0  0  0  0  0  0
    5.4721  -42.2238   -5.5645 C   0  0  0  0  0  0  0  0  0  0  0  0
    4.1863  -42.5732   -5.9187 C   0  0  0  0  0  0  0  0  0  0  0  0
    3.1949  -42.6359   -4.9563 C   0  0  0  0  0  0  0  0  0  0  0  0
    3.5274  -42.3414   -3.6446 C   0  0  0  0  0  0  0  0  0  0  0  0
    2.5450  -43.3605   -1.6591 C   0  0  0  0  0  0  0  0  0  0  0  0
    1.8421  -42.9948   -5.2761 C   0  0  0  0  0  0  0  0  0  0  0  0
    0.7086  -43.3011   -5.5571 C   0  0  0  0  0  0  0  0  0  0  0  0
   -1.6604  -42.7126   -5.9078 C   0  0  0  0  0  0  0  0  0  0  0  0
   -2.9646  -43.0209   -6.2217 C   0  0  0  0  0  0  0  0  0  0  0  0
   -2.2550  -45.2860   -6.5154 C   0  0  0  0  0  0  0  0  0  0  0  0
    2.5543  -42.3881   -2.6113 N   0  0  0  0  0  0  0  0  0  0  0  0
    4.4971  -40.8795   -1.2006 O   0  0  0  0  0  0  0  0  0  0  0  0
    6.2621  -42.2722   -1.2978 O   0  0  0  0  0  0  0  0  0  0  0  0
  6  1  2  0
  1 19  1  0
  2 18  1  0
 19  2  2  0
  3  4  2  0
 20  3  1  0
  5  4  1  0
 14  5  2  0
 16  6  1  0
  6 17  1  0
  8  7  1  0
  7 21  2  0
  7 22  1  0
  8  9  2  0
 13  8  1  0
 10  9  1  0
 11 10  2  0
 12 11  1  0
 12 13  2  0
 15 12  1  0
 13 20  1  0
 20 14  1  0
 15 16  3  0
 17 18  2  0
M  END
$$$$
