
     RDKit          3D

 22 24  0  0  0  0  0  0  0  0999 V2000
  -12.0139  -28.8082  -19.7536 C   0  0  0  0  0  0  0  0  0  0  0  0
  -13.8639  -27.3678  -19.4174 C   0  0  0  0  0  0  0  0  0  0  0  0
  -11.8775  -33.6937  -15.0396 C   0  0  0  0  0  0  0  0  0  0  0  0
  -13.2174  -33.8588  -14.8215 C   0  0  0  0  0  0  0  0  0  0  0  0
  -13.8389  -34.0002  -16.0241 C   0  0  0  0  0  0  0  0  0  0  0  0
  -12.1757  -29.2273  -18.4308 C   0  0  0  0  0  0  0  0  0  0  0  0
  -10.0173  -36.0578  -16.6955 C   0  0  0  0  0  0  0  0  0  0  0  0
   -9.4934  -34.7610  -16.7420 C   0  0  0  0  0  0  0  0  0  0  0  0
   -8.1259  -34.6247  -16.9408 C   0  0  0  0  0  0  0  0  0  0  0  0
   -7.5736  -33.4410  -17.2709 C   0  0  0  0  0  0  0  0  0  0  0  0
   -8.3296  -32.3513  -17.4248 C   0  0  0  0  0  0  0  0  0  0  0  0
   -9.7712  -32.3544  -17.2470 C   0  0  0  0  0  0  0  0  0  0  0  0
  -10.2925  -33.6382  -16.8822 C   0  0  0  0  0  0  0  0  0  0  0  0
  -12.8297  -33.9155  -17.0047 C   0  0  0  0  0  0  0  0  0  0  0  0
  -10.5143  -31.4085  -17.6079 C   0  0  0  0  0  0  0  0  0  0  0  0
  -11.3168  -30.3753  -18.0028 C   0  0  0  0  0  0  0  0  0  0  0  0
  -13.1295  -28.7589  -17.5859 C   0  0  0  0  0  0  0  0  0  0  0  0
  -14.0148  -27.7867  -18.0971 C   0  0  0  0  0  0  0  0  0  0  0  0
  -12.9212  -27.8331  -20.2265 C   0  0  0  0  0  0  0  0  0  0  0  0
  -11.6334  -33.7353  -16.4340 N   0  0  0  0  0  0  0  0  0  0  0  0
  -11.0870  -36.5403  -17.1650 O   0  0  0  0  0  0  0  0  0  0  0  0
   -9.3180  -37.1152  -16.0183 O   0  0  0  0  0  0  0  0  0  0  0  0
  6  1  2  0
  1 19  1  0
  2 18  1  0
 19  2  2  0
  3  4  2  0
 20  3  1  0
  5  4  1  0
 14  5  2  0
 16  6  1  0
  6 17  1  0
  8  7  1  0
  7 21  2  0
  7 22  1  0
  8  9  2  0
 13  8  1  0
 10  9  1  0
 11 10  2  0
 12 11  1  0
 12 13  2  0
 15 12  1  0
 13 20  1  0
 20 14  1  0
 15 16  3  0
 17 18  2  0
M  END
$$$$
