
     RDKit          3D

 22 24  0  0  0  0  0  0  0  0999 V2000
    0.9804  -21.4885    1.6010 C   0  0  0  0  0  0  0  0  0  0  0  0
    1.2559  -23.8187    1.9251 C   0  0  0  0  0  0  0  0  0  0  0  0
   -5.1949  -19.0601    2.7720 C   0  0  0  0  0  0  0  0  0  0  0  0
   -5.9510  -20.1973    2.8451 C   0  0  0  0  0  0  0  0  0  0  0  0
   -5.4770  -20.9693    3.8609 C   0  0  0  0  0  0  0  0  0  0  0  0
   -0.1905  -21.5821    2.3574 C   0  0  0  0  0  0  0  0  0  0  0  0
   -4.9631  -16.8624    5.3518 C   0  0  0  0  0  0  0  0  0  0  0  0
   -3.8688  -16.8411    4.4797 C   0  0  0  0  0  0  0  0  0  0  0  0
   -3.1266  -15.6699    4.4046 C   0  0  0  0  0  0  0  0  0  0  0  0
   -1.9154  -15.6366    3.8156 C   0  0  0  0  0  0  0  0  0  0  0  0
   -1.3810  -16.7390    3.2850 C   0  0  0  0  0  0  0  0  0  0  0  0
   -2.0494  -18.0286    3.2950 C   0  0  0  0  0  0  0  0  0  0  0  0
   -3.3377  -17.9922    3.9211 C   0  0  0  0  0  0  0  0  0  0  0  0
   -4.3906  -20.2663    4.4200 C   0  0  0  0  0  0  0  0  0  0  0  0
   -1.4733  -19.1081    3.0121 C   0  0  0  0  0  0  0  0  0  0  0  0
   -0.8502  -20.2829    2.6977 C   0  0  0  0  0  0  0  0  0  0  0  0
   -0.6691  -22.7324    2.8964 C   0  0  0  0  0  0  0  0  0  0  0  0
    0.0837  -23.9046    2.6733 C   0  0  0  0  0  0  0  0  0  0  0  0
    1.7047  -22.6856    1.4010 C   0  0  0  0  0  0  0  0  0  0  0  0
   -4.2031  -19.1056    3.7820 N   0  0  0  0  0  0  0  0  0  0  0  0
   -6.1919  -17.0687    5.1400 O   0  0  0  0  0  0  0  0  0  0  0  0
   -4.7950  -16.6127    6.7572 O   0  0  0  0  0  0  0  0  0  0  0  0
  6  1  2  0
  1 19  1  0
  2 18  1  0
 19  2  2  0
  3  4  2  0
 20  3  1  0
  5  4  1  0
 14  5  2  0
 16  6  1  0
  6 17  1  0
  8  7  1  0
  7 21  2  0
  7 22  1  0
  8  9  2  0
 13  8  1  0
 10  9  1  0
 11 10  2  0
 12 11  1  0
 12 13  2  0
 15 12  1  0
 13 20  1  0
 20 14  1  0
 15 16  3  0
 17 18  2  0
M  END
$$$$
