
     RDKit          3D

 22 24  0  0  0  0  0  0  0  0999 V2000
   -5.3778  -17.6373    0.2674 C   0  0  0  0  0  0  0  0  0  0  0  0
   -5.3985  -15.8778   -1.3183 C   0  0  0  0  0  0  0  0  0  0  0  0
   -4.2617  -17.2358    5.0407 C   0  0  0  0  0  0  0  0  0  0  0  0
   -4.4166  -15.9150    5.3595 C   0  0  0  0  0  0  0  0  0  0  0  0
   -3.2416  -15.4496    5.8648 C   0  0  0  0  0  0  0  0  0  0  0  0
   -4.0484  -17.3011    0.5345 C   0  0  0  0  0  0  0  0  0  0  0  0
   -2.6922  -19.5784    7.4017 C   0  0  0  0  0  0  0  0  0  0  0  0
   -2.1976  -19.7742    6.1073 C   0  0  0  0  0  0  0  0  0  0  0  0
   -1.5786  -20.9858    5.8298 C   0  0  0  0  0  0  0  0  0  0  0  0
   -1.3199  -21.3749    4.5662 C   0  0  0  0  0  0  0  0  0  0  0  0
   -1.6580  -20.6047    3.5293 C   0  0  0  0  0  0  0  0  0  0  0  0
   -2.3100  -19.3153    3.6781 C   0  0  0  0  0  0  0  0  0  0  0  0
   -2.5421  -18.9543    5.0452 C   0  0  0  0  0  0  0  0  0  0  0  0
   -2.3446  -16.5369    5.8491 C   0  0  0  0  0  0  0  0  0  0  0  0
   -2.8361  -18.6922    2.7231 C   0  0  0  0  0  0  0  0  0  0  0  0
   -3.4153  -18.0177    1.6853 C   0  0  0  0  0  0  0  0  0  0  0  0
   -3.3688  -16.3000   -0.0809 C   0  0  0  0  0  0  0  0  0  0  0  0
   -4.0704  -15.5528   -1.0504 C   0  0  0  0  0  0  0  0  0  0  0  0
   -6.0444  -16.8642   -0.7103 C   0  0  0  0  0  0  0  0  0  0  0  0
   -2.9365  -17.6278    5.3501 N   0  0  0  0  0  0  0  0  0  0  0  0
   -3.8753  -19.4672    7.8323 O   0  0  0  0  0  0  0  0  0  0  0  0
   -1.8025  -19.4576    8.5241 O   0  0  0  0  0  0  0  0  0  0  0  0
  6  1  2  0
  1 19  1  0
  2 18  1  0
 19  2  2  0
  3  4  2  0
 20  3  1  0
  5  4  1  0
 14  5  2  0
 16  6  1  0
  6 17  1  0
  8  7  1  0
  7 21  2  0
  7 22  1  0
  8  9  2  0
 13  8  1  0
 10  9  1  0
 11 10  2  0
 12 11  1  0
 12 13  2  0
 15 12  1  0
 13 20  1  0
 20 14  1  0
 15 16  3  0
 17 18  2  0
M  END
$$$$
