
     RDKit          3D

 22 24  0  0  0  0  0  0  0  0999 V2000
   -7.6700  -33.9960  -18.6558 C   0  0  0  0  0  0  0  0  0  0  0  0
   -5.3470  -34.2798  -18.2904 C   0  0  0  0  0  0  0  0  0  0  0  0
  -12.2827  -31.0600  -19.2561 C   0  0  0  0  0  0  0  0  0  0  0  0
  -12.1253  -31.3768  -20.5770 C   0  0  0  0  0  0  0  0  0  0  0  0
  -12.0948  -32.7322  -20.6978 C   0  0  0  0  0  0  0  0  0  0  0  0
   -7.7672  -33.5758  -17.3271 C   0  0  0  0  0  0  0  0  0  0  0  0
  -14.9961  -32.2744  -17.4453 C   0  0  0  0  0  0  0  0  0  0  0  0
  -13.8763  -31.9173  -16.6857 C   0  0  0  0  0  0  0  0  0  0  0  0
  -14.0816  -31.5749  -15.3558 C   0  0  0  0  0  0  0  0  0  0  0  0
  -13.0596  -31.4852  -14.4825 C   0  0  0  0  0  0  0  0  0  0  0  0
  -11.8052  -31.7302  -14.8684 C   0  0  0  0  0  0  0  0  0  0  0  0
  -11.4510  -32.0979  -16.2283 C   0  0  0  0  0  0  0  0  0  0  0  0
  -12.5797  -32.1603  -17.1087 C   0  0  0  0  0  0  0  0  0  0  0  0
  -12.2391  -33.2500  -19.3946 C   0  0  0  0  0  0  0  0  0  0  0  0
  -10.3250  -32.5508  -16.5510 C   0  0  0  0  0  0  0  0  0  0  0  0
   -9.1018  -33.0434  -16.9096 C   0  0  0  0  0  0  0  0  0  0  0  0
   -6.7211  -33.4985  -16.4654 C   0  0  0  0  0  0  0  0  0  0  0  0
   -5.4535  -33.8654  -16.9644 C   0  0  0  0  0  0  0  0  0  0  0  0
   -6.3826  -34.3545  -19.1161 C   0  0  0  0  0  0  0  0  0  0  0  0
  -12.3598  -32.2583  -18.5051 N   0  0  0  0  0  0  0  0  0  0  0  0
  -16.0967  -31.6823  -17.6339 O   0  0  0  0  0  0  0  0  0  0  0  0
  -15.0298  -33.5096  -18.1793 O   0  0  0  0  0  0  0  0  0  0  0  0
  6  1  2  0
  1 19  1  0
  2 18  1  0
 19  2  2  0
  3  4  2  0
 20  3  1  0
  5  4  1  0
 14  5  2  0
 16  6  1  0
  6 17  1  0
  8  7  1  0
  7 21  2  0
  7 22  1  0
  8  9  2  0
 13  8  1  0
 10  9  1  0
 11 10  2  0
 12 11  1  0
 12 13  2  0
 15 12  1  0
 13 20  1  0
 20 14  1  0
 15 16  3  0
 17 18  2  0
M  END
$$$$
