
     RDKit          3D

 22 24  0  0  0  0  0  0  0  0999 V2000
   -0.6199  -22.5010    1.0757 C   0  0  0  0  0  0  0  0  0  0  0  0
    1.0364  -23.8346    2.1938 C   0  0  0  0  0  0  0  0  0  0  0  0
   -3.3740  -18.2722    4.2805 C   0  0  0  0  0  0  0  0  0  0  0  0
   -4.0529  -19.3296    4.8466 C   0  0  0  0  0  0  0  0  0  0  0  0
   -4.6844  -20.0368    3.8289 C   0  0  0  0  0  0  0  0  0  0  0  0
   -0.1907  -21.3971    1.7581 C   0  0  0  0  0  0  0  0  0  0  0  0
   -4.8438  -15.8374    2.6269 C   0  0  0  0  0  0  0  0  0  0  0  0
   -3.7115  -16.2109    1.7895 C   0  0  0  0  0  0  0  0  0  0  0  0
   -3.2738  -15.3290    0.8236 C   0  0  0  0  0  0  0  0  0  0  0  0
   -2.1980  -15.6791    0.0251 C   0  0  0  0  0  0  0  0  0  0  0  0
   -1.5610  -16.8918    0.1813 C   0  0  0  0  0  0  0  0  0  0  0  0
   -1.9930  -17.7824    1.1472 C   0  0  0  0  0  0  0  0  0  0  0  0
   -3.0695  -17.4250    1.9418 C   0  0  0  0  0  0  0  0  0  0  0  0
   -4.3544  -19.3650    2.6707 C   0  0  0  0  0  0  0  0  0  0  0  0
   -1.3623  -19.0565    1.3478 C   0  0  0  0  0  0  0  0  0  0  0  0
   -0.8316  -20.1256    1.5300 C   0  0  0  0  0  0  0  0  0  0  0  0
    0.8529  -21.5333    2.6532 C   0  0  0  0  0  0  0  0  0  0  0  0
    1.4829  -22.7338    2.8908 C   0  0  0  0  0  0  0  0  0  0  0  0
   -0.0040  -23.7174    1.2963 C   0  0  0  0  0  0  0  0  0  0  0  0
   -3.5598  -18.2960    2.9506 N   0  0  0  0  0  0  0  0  0  0  0  0
   -5.8953  -16.5218    2.6900 O   0  0  0  0  0  0  0  0  0  0  0  0
   -4.8044  -14.6874    3.4035 O   0  0  0  0  0  0  0  0  0  0  0  0
  6  1  2  0
  1 19  1  0
  2 18  1  0
 19  2  2  0
  3  4  2  0
 20  3  1  0
  5  4  1  0
 14  5  2  0
 16  6  1  0
  6 17  1  0
  8  7  1  0
  7 21  2  0
  7 22  1  0
  8  9  2  0
 13  8  1  0
 10  9  1  0
 11 10  2  0
 12 11  1  0
 12 13  2  0
 15 12  1  0
 13 20  1  0
 20 14  1  0
 15 16  3  0
 17 18  2  0
M  END
$$$$
