
     RDKit          3D

 22 24  0  0  0  0  0  0  0  0999 V2000
   -4.2186  -33.9962   -0.4732 C   0  0  0  0  0  0  0  0  0  0  0  0
   -5.7474  -34.8167    1.1393 C   0  0  0  0  0  0  0  0  0  0  0  0
   -2.2989  -33.3418   -5.3656 C   0  0  0  0  0  0  0  0  0  0  0  0
   -1.2689  -34.0730   -4.8418 C   0  0  0  0  0  0  0  0  0  0  0  0
   -0.5984  -33.2987   -3.9455 C   0  0  0  0  0  0  0  0  0  0  0  0
   -5.3021  -33.3717   -1.0957 C   0  0  0  0  0  0  0  0  0  0  0  0
   -2.3741  -30.9274   -7.3863 C   0  0  0  0  0  0  0  0  0  0  0  0
   -3.1502  -30.4443   -6.3266 C   0  0  0  0  0  0  0  0  0  0  0  0
   -4.0033  -29.3796   -6.5851 C   0  0  0  0  0  0  0  0  0  0  0  0
   -4.9756  -29.0266   -5.7218 C   0  0  0  0  0  0  0  0  0  0  0  0
   -5.1567  -29.6978   -4.5820 C   0  0  0  0  0  0  0  0  0  0  0  0
   -4.3362  -30.8302   -4.1892 C   0  0  0  0  0  0  0  0  0  0  0  0
   -3.3127  -31.1435   -5.1418 C   0  0  0  0  0  0  0  0  0  0  0  0
   -1.2530  -32.0503   -3.9318 C   0  0  0  0  0  0  0  0  0  0  0  0
   -4.6336  -31.6060   -3.2475 C   0  0  0  0  0  0  0  0  0  0  0  0
   -4.9613  -32.4544   -2.2276 C   0  0  0  0  0  0  0  0  0  0  0  0
   -6.5857  -33.4415   -0.6594 C   0  0  0  0  0  0  0  0  0  0  0  0
   -6.8237  -34.1957    0.5089 C   0  0  0  0  0  0  0  0  0  0  0  0
   -4.5000  -34.7418    0.6941 C   0  0  0  0  0  0  0  0  0  0  0  0
   -2.2884  -32.0529   -4.7787 N   0  0  0  0  0  0  0  0  0  0  0  0
   -1.2005  -31.3957   -7.4120 O   0  0  0  0  0  0  0  0  0  0  0  0
   -2.8818  -30.9388   -8.7309 O   0  0  0  0  0  0  0  0  0  0  0  0
  6  1  2  0
  1 19  1  0
  2 18  1  0
 19  2  2  0
  3  4  2  0
 20  3  1  0
  5  4  1  0
 14  5  2  0
 16  6  1  0
  6 17  1  0
  8  7  1  0
  7 21  2  0
  7 22  1  0
  8  9  2  0
 13  8  1  0
 10  9  1  0
 11 10  2  0
 12 11  1  0
 12 13  2  0
 15 12  1  0
 13 20  1  0
 20 14  1  0
 15 16  3  0
 17 18  2  0
M  END
$$$$
