
     RDKit          3D

 22 24  0  0  0  0  0  0  0  0999 V2000
    5.5831  -41.3173   -4.6381 C   0  0  0  0  0  0  0  0  0  0  0  0
    6.4332  -39.8809   -6.3187 C   0  0  0  0  0  0  0  0  0  0  0  0
    1.6632  -44.1418   -4.8602 C   0  0  0  0  0  0  0  0  0  0  0  0
    1.4312  -44.3409   -6.1931 C   0  0  0  0  0  0  0  0  0  0  0  0
    0.1573  -43.9531   -6.4748 C   0  0  0  0  0  0  0  0  0  0  0  0
    4.3925  -40.5892   -4.7017 C   0  0  0  0  0  0  0  0  0  0  0  0
   -0.8037  -45.2323   -2.3372 C   0  0  0  0  0  0  0  0  0  0  0  0
   -0.3229  -43.9504   -2.0471 C   0  0  0  0  0  0  0  0  0  0  0  0
   -0.4830  -43.4797   -0.7505 C   0  0  0  0  0  0  0  0  0  0  0  0
    0.1772  -42.3927   -0.3061 C   0  0  0  0  0  0  0  0  0  0  0  0
    1.0190  -41.7293   -1.1022 C   0  0  0  0  0  0  0  0  0  0  0  0
    1.2787  -42.1139   -2.4786 C   0  0  0  0  0  0  0  0  0  0  0  0
    0.5347  -43.2663   -2.8929 C   0  0  0  0  0  0  0  0  0  0  0  0
   -0.3984  -43.5033   -5.2598 C   0  0  0  0  0  0  0  0  0  0  0  0
    2.2259  -41.6488   -3.1596 C   0  0  0  0  0  0  0  0  0  0  0  0
    3.2519  -41.1373   -3.9032 C   0  0  0  0  0  0  0  0  0  0  0  0
    4.1805  -39.5302   -5.5240 C   0  0  0  0  0  0  0  0  0  0  0  0
    5.2445  -39.1560   -6.3716 C   0  0  0  0  0  0  0  0  0  0  0  0
    6.6237  -40.9100   -5.5036 C   0  0  0  0  0  0  0  0  0  0  0  0
    0.4947  -43.6025   -4.2689 N   0  0  0  0  0  0  0  0  0  0  0  0
   -0.3146  -46.1662   -3.0342 O   0  0  0  0  0  0  0  0  0  0  0  0
   -2.0663  -45.6843   -1.8200 O   0  0  0  0  0  0  0  0  0  0  0  0
  6  1  2  0
  1 19  1  0
  2 18  1  0
 19  2  2  0
  3  4  2  0
 20  3  1  0
  5  4  1  0
 14  5  2  0
 16  6  1  0
  6 17  1  0
  8  7  1  0
  7 21  2  0
  7 22  1  0
  8  9  2  0
 13  8  1  0
 10  9  1  0
 11 10  2  0
 12 11  1  0
 12 13  2  0
 15 12  1  0
 13 20  1  0
 20 14  1  0
 15 16  3  0
 17 18  2  0
M  END
$$$$
