
     RDKit          3D

 14 15  0  0  0  0  0  0  0  0999 V2000
   -9.6496  -13.3738  -14.4993 C   0  0  0  0  0  0  0  0  0  0  0  0
   -4.9747  -16.7362  -13.6519 C   0  0  0  0  0  0  0  0  0  0  0  0
   -5.9496  -15.7672  -13.5622 C   0  0  0  0  0  0  0  0  0  0  0  0
   -7.2040  -15.9525  -14.1097 C   0  0  0  0  0  0  0  0  0  0  0  0
   -7.4687  -17.1609  -14.7665 C   0  0  0  0  0  0  0  0  0  0  0  0
   -6.5172  -18.1534  -14.8757 C   0  0  0  0  0  0  0  0  0  0  0  0
   -5.2878  -17.9072  -14.3092 C   0  0  0  0  0  0  0  0  0  0  0  0
   -8.7831  -17.3766  -15.3501 C   0  0  0  0  0  0  0  0  0  0  0  0
   -9.9240  -17.3235  -14.5655 O   0  0  0  0  0  0  0  0  0  0  0  0
   -8.8885  -17.6138  -16.5780 O   0  0  0  0  0  0  0  0  0  0  0  0
   -8.2064  -14.9558  -14.0174 N   0  0  0  0  0  0  0  0  0  0  0  0
   -8.8208  -14.6036  -12.8792 C   0  0  0  0  0  0  0  0  0  0  0  0
   -9.7366  -13.6092  -13.1454 C   0  0  0  0  0  0  0  0  0  0  0  0
   -8.6972  -14.2225  -14.9980 C   0  0  0  0  0  0  0  0  0  0  0  0
  1 13  1  0
 14  1  2  0
  3  2  2  0
  2  7  1  0
  4  3  1  0
  4  5  2  0
 11  4  1  0
  5  6  1  0
  5  8  1  0
  6  7  2  0
  8  9  1  0
  8 10  2  0
 11 12  1  0
 11 14  1  0
 12 13  2  0
M  END
$$$$
