
     RDKit          3D

 14 15  0  0  0  0  0  0  0  0999 V2000
  -15.2336  -31.2077    1.2196 C   0  0  0  0  0  0  0  0  0  0  0  0
  -10.5298  -32.4481   -2.0315 C   0  0  0  0  0  0  0  0  0  0  0  0
  -11.6847  -31.8773   -1.5130 C   0  0  0  0  0  0  0  0  0  0  0  0
  -12.6232  -32.6226   -0.8246 C   0  0  0  0  0  0  0  0  0  0  0  0
  -12.3731  -33.9647   -0.6679 C   0  0  0  0  0  0  0  0  0  0  0  0
  -11.2349  -34.5766   -1.1681 C   0  0  0  0  0  0  0  0  0  0  0  0
  -10.3228  -33.7979   -1.8490 C   0  0  0  0  0  0  0  0  0  0  0  0
  -13.3482  -34.7436    0.0484 C   0  0  0  0  0  0  0  0  0  0  0  0
  -14.6521  -34.2711    0.2708 O   0  0  0  0  0  0  0  0  0  0  0  0
  -13.0809  -35.8808    0.5080 O   0  0  0  0  0  0  0  0  0  0  0  0
  -13.7945  -32.0033   -0.3076 N   0  0  0  0  0  0  0  0  0  0  0  0
  -14.8496  -31.4879   -0.9324 C   0  0  0  0  0  0  0  0  0  0  0  0
  -15.7652  -30.9852   -0.0490 C   0  0  0  0  0  0  0  0  0  0  0  0
  -14.0344  -31.8292    1.0129 C   0  0  0  0  0  0  0  0  0  0  0  0
  1 13  1  0
 14  1  2  0
  3  2  2  0
  2  7  1  0
  4  3  1  0
  4  5  2  0
 11  4  1  0
  5  6  1  0
  5  8  1  0
  6  7  2  0
  8  9  1  0
  8 10  2  0
 11 12  1  0
 11 14  1  0
 12 13  2  0
M  END
$$$$
