
     RDKit          3D

 14 15  0  0  0  0  0  0  0  0999 V2000
   -1.3497  -28.9659   -6.8032 C   0  0  0  0  0  0  0  0  0  0  0  0
   -4.4877  -27.6870  -11.3799 C   0  0  0  0  0  0  0  0  0  0  0  0
   -3.7983  -27.7970  -10.1795 C   0  0  0  0  0  0  0  0  0  0  0  0
   -3.8236  -28.9549   -9.4252 C   0  0  0  0  0  0  0  0  0  0  0  0
   -4.5630  -30.0077   -9.9081 C   0  0  0  0  0  0  0  0  0  0  0  0
   -5.2664  -29.9428  -11.1003 C   0  0  0  0  0  0  0  0  0  0  0  0
   -5.2154  -28.7695  -11.8233 C   0  0  0  0  0  0  0  0  0  0  0  0
   -4.5914  -31.2147   -9.1253 C   0  0  0  0  0  0  0  0  0  0  0  0
   -5.2845  -32.3581   -9.5557 O   0  0  0  0  0  0  0  0  0  0  0  0
   -3.9992  -31.3036   -8.0220 O   0  0  0  0  0  0  0  0  0  0  0  0
   -3.1048  -29.0308   -8.2003 N   0  0  0  0  0  0  0  0  0  0  0  0
   -3.5232  -29.2927   -6.9652 C   0  0  0  0  0  0  0  0  0  0  0  0
   -2.4929  -29.2671   -6.0657 C   0  0  0  0  0  0  0  0  0  0  0  0
   -1.7704  -28.8309   -8.0962 C   0  0  0  0  0  0  0  0  0  0  0  0
  1 13  1  0
 14  1  2  0
  3  2  2  0
  2  7  1  0
  4  3  1  0
  4  5  2  0
 11  4  1  0
  5  6  1  0
  5  8  1  0
  6  7  2  0
  8  9  1  0
  8 10  2  0
 11 12  1  0
 11 14  1  0
 12 13  2  0
M  END
$$$$
