
     RDKit          3D

 14 15  0  0  0  0  0  0  0  0999 V2000
  -10.6176  -30.3582  -14.2590 C   0  0  0  0  0  0  0  0  0  0  0  0
   -6.2583  -33.0531  -16.9145 C   0  0  0  0  0  0  0  0  0  0  0  0
   -7.0770  -32.1910  -16.2188 C   0  0  0  0  0  0  0  0  0  0  0  0
   -8.4324  -32.1189  -16.4743 C   0  0  0  0  0  0  0  0  0  0  0  0
   -8.9650  -32.9502  -17.4675 C   0  0  0  0  0  0  0  0  0  0  0  0
   -8.1758  -33.8255  -18.1842 C   0  0  0  0  0  0  0  0  0  0  0  0
   -6.8337  -33.8495  -17.8819 C   0  0  0  0  0  0  0  0  0  0  0  0
  -10.3897  -32.8902  -17.7525 C   0  0  0  0  0  0  0  0  0  0  0  0
  -11.2158  -32.0235  -17.0549 O   0  0  0  0  0  0  0  0  0  0  0  0
  -10.8796  -33.6305  -18.6397 O   0  0  0  0  0  0  0  0  0  0  0  0
   -9.2742  -31.2322  -15.7587 N   0  0  0  0  0  0  0  0  0  0  0  0
   -9.5588  -29.9808  -16.1458 C   0  0  0  0  0  0  0  0  0  0  0  0
  -10.4028  -29.4002  -15.2244 C   0  0  0  0  0  0  0  0  0  0  0  0
   -9.9057  -31.4697  -14.6251 C   0  0  0  0  0  0  0  0  0  0  0  0
  1 13  1  0
 14  1  2  0
  3  2  2  0
  2  7  1  0
  4  3  1  0
  4  5  2  0
 11  4  1  0
  5  6  1  0
  5  8  1  0
  6  7  2  0
  8  9  1  0
  8 10  2  0
 11 12  1  0
 11 14  1  0
 12 13  2  0
M  END
$$$$
