
     RDKit          3D

 14 15  0  0  0  0  0  0  0  0999 V2000
   -2.3000  -18.2002    3.4625 C   0  0  0  0  0  0  0  0  0  0  0  0
    0.3585  -23.0132    1.4442 C   0  0  0  0  0  0  0  0  0  0  0  0
   -0.5721  -22.0282    1.7475 C   0  0  0  0  0  0  0  0  0  0  0  0
   -0.2043  -20.7108    1.9460 C   0  0  0  0  0  0  0  0  0  0  0  0
    1.1302  -20.4032    1.8318 C   0  0  0  0  0  0  0  0  0  0  0  0
    2.0933  -21.3530    1.5309 C   0  0  0  0  0  0  0  0  0  0  0  0
    1.6852  -22.6564    1.3402 C   0  0  0  0  0  0  0  0  0  0  0  0
    1.5166  -19.0326    2.0377 C   0  0  0  0  0  0  0  0  0  0  0  0
    2.6513  -18.6903    2.7915 O   0  0  0  0  0  0  0  0  0  0  0  0
    0.8592  -18.0785    1.5544 O   0  0  0  0  0  0  0  0  0  0  0  0
   -1.1858  -19.7291    2.2552 N   0  0  0  0  0  0  0  0  0  0  0  0
   -2.1820  -19.2393    1.5225 C   0  0  0  0  0  0  0  0  0  0  0  0
   -2.8999  -18.2985    2.2088 C   0  0  0  0  0  0  0  0  0  0  0  0
   -1.2619  -19.0886    3.4450 C   0  0  0  0  0  0  0  0  0  0  0  0
  1 13  1  0
 14  1  2  0
  3  2  2  0
  2  7  1  0
  4  3  1  0
  4  5  2  0
 11  4  1  0
  5  6  1  0
  5  8  1  0
  6  7  2  0
  8  9  1  0
  8 10  2  0
 11 12  1  0
 11 14  1  0
 12 13  2  0
M  END
$$$$
