
     RDKit          3D

 14 15  0  0  0  0  0  0  0  0999 V2000
   -5.0770  -15.4224    1.5958 C   0  0  0  0  0  0  0  0  0  0  0  0
   -1.0356  -19.4358    2.1288 C   0  0  0  0  0  0  0  0  0  0  0  0
   -2.0219  -18.5503    1.7537 C   0  0  0  0  0  0  0  0  0  0  0  0
   -2.9916  -18.1309    2.6433 C   0  0  0  0  0  0  0  0  0  0  0  0
   -2.9519  -18.6301    3.9512 C   0  0  0  0  0  0  0  0  0  0  0  0
   -1.9796  -19.5179    4.3621 C   0  0  0  0  0  0  0  0  0  0  0  0
   -1.0426  -19.8965    3.4284 C   0  0  0  0  0  0  0  0  0  0  0  0
   -3.9635  -18.2015    4.9039 C   0  0  0  0  0  0  0  0  0  0  0  0
   -4.7607  -19.1285    5.5559 O   0  0  0  0  0  0  0  0  0  0  0  0
   -4.1187  -16.9787    5.1403 O   0  0  0  0  0  0  0  0  0  0  0  0
   -4.0058  -17.2203    2.2573 N   0  0  0  0  0  0  0  0  0  0  0  0
   -5.3118  -17.5188    2.2069 C   0  0  0  0  0  0  0  0  0  0  0  0
   -6.0166  -16.4092    1.7940 C   0  0  0  0  0  0  0  0  0  0  0  0
   -3.8534  -15.9620    1.8917 C   0  0  0  0  0  0  0  0  0  0  0  0
  1 13  1  0
 14  1  2  0
  3  2  2  0
  2  7  1  0
  4  3  1  0
  4  5  2  0
 11  4  1  0
  5  6  1  0
  5  8  1  0
  6  7  2  0
  8  9  1  0
  8 10  2  0
 11 12  1  0
 11 14  1  0
 12 13  2  0
M  END
$$$$
