
     RDKit          3D

 14 15  0  0  0  0  0  0  0  0999 V2000
   -3.5671  -18.5079    1.8501 C   0  0  0  0  0  0  0  0  0  0  0  0
    0.1851  -23.0148    1.6459 C   0  0  0  0  0  0  0  0  0  0  0  0
   -0.8843  -22.1816    1.9468 C   0  0  0  0  0  0  0  0  0  0  0  0
   -0.7900  -20.8062    1.8483 C   0  0  0  0  0  0  0  0  0  0  0  0
    0.4126  -20.2831    1.4374 C   0  0  0  0  0  0  0  0  0  0  0  0
    1.5058  -21.0759    1.1268 C   0  0  0  0  0  0  0  0  0  0  0  0
    1.3707  -22.4438    1.2380 C   0  0  0  0  0  0  0  0  0  0  0  0
    0.5142  -18.8515    1.3337 C   0  0  0  0  0  0  0  0  0  0  0  0
    1.2656  -18.2359    0.3192 O   0  0  0  0  0  0  0  0  0  0  0  0
   -0.0629  -18.0854    2.1437 O   0  0  0  0  0  0  0  0  0  0  0  0
   -1.9067  -19.9844    2.1651 N   0  0  0  0  0  0  0  0  0  0  0  0
   -2.5601  -19.8149    3.3111 C   0  0  0  0  0  0  0  0  0  0  0  0
   -3.5879  -18.9217    3.1803 C   0  0  0  0  0  0  0  0  0  0  0  0
   -2.5280  -19.1804    1.2712 C   0  0  0  0  0  0  0  0  0  0  0  0
  1 13  1  0
 14  1  2  0
  3  2  2  0
  2  7  1  0
  4  3  1  0
  4  5  2  0
 11  4  1  0
  5  6  1  0
  5  8  1  0
  6  7  2  0
  8  9  1  0
  8 10  2  0
 11 12  1  0
 11 14  1  0
 12 13  2  0
M  END
$$$$
