
     RDKit          3D

 14 15  0  0  0  0  0  0  0  0999 V2000
   -2.8403  -32.7373   -1.6813 C   0  0  0  0  0  0  0  0  0  0  0  0
   -1.5341  -29.8011   -6.4921 C   0  0  0  0  0  0  0  0  0  0  0  0
   -1.5473  -30.6356   -5.3964 C   0  0  0  0  0  0  0  0  0  0  0  0
   -2.7309  -31.1022   -4.8588 C   0  0  0  0  0  0  0  0  0  0  0  0
   -3.9331  -30.7050   -5.4576 C   0  0  0  0  0  0  0  0  0  0  0  0
   -3.9583  -29.8706   -6.5556 C   0  0  0  0  0  0  0  0  0  0  0  0
   -2.7457  -29.4406   -7.0432 C   0  0  0  0  0  0  0  0  0  0  0  0
   -5.1908  -31.1849   -4.9075 C   0  0  0  0  0  0  0  0  0  0  0  0
   -5.4663  -31.0594   -3.5552 O   0  0  0  0  0  0  0  0  0  0  0  0
   -6.0383  -31.7191   -5.6635 O   0  0  0  0  0  0  0  0  0  0  0  0
   -2.7443  -31.9604   -3.7318 N   0  0  0  0  0  0  0  0  0  0  0  0
   -2.6174  -33.2935   -3.7942 C   0  0  0  0  0  0  0  0  0  0  0  0
   -2.6734  -33.8161   -2.5205 C   0  0  0  0  0  0  0  0  0  0  0  0
   -2.8790  -31.6152   -2.4658 C   0  0  0  0  0  0  0  0  0  0  0  0
  1 13  1  0
 14  1  2  0
  3  2  2  0
  2  7  1  0
  4  3  1  0
  4  5  2  0
 11  4  1  0
  5  6  1  0
  5  8  1  0
  6  7  2  0
  8  9  1  0
  8 10  2  0
 11 12  1  0
 11 14  1  0
 12 13  2  0
M  END
$$$$
