
     RDKit          3D

 14 15  0  0  0  0  0  0  0  0999 V2000
   -4.0055  -28.7528   -8.1643 C   0  0  0  0  0  0  0  0  0  0  0  0
    0.0326  -31.1150   -4.5562 C   0  0  0  0  0  0  0  0  0  0  0  0
   -0.8624  -30.2350   -5.1502 C   0  0  0  0  0  0  0  0  0  0  0  0
   -1.8797  -30.6736   -5.9766 C   0  0  0  0  0  0  0  0  0  0  0  0
   -1.9781  -32.0270   -6.1941 C   0  0  0  0  0  0  0  0  0  0  0  0
   -1.1078  -32.9413   -5.6226 C   0  0  0  0  0  0  0  0  0  0  0  0
   -0.1061  -32.4631   -4.8041 C   0  0  0  0  0  0  0  0  0  0  0  0
   -3.0361  -32.4870   -7.0539 C   0  0  0  0  0  0  0  0  0  0  0  0
   -2.8443  -33.5412   -7.9621 O   0  0  0  0  0  0  0  0  0  0  0  0
   -4.1795  -31.9691   -7.0337 O   0  0  0  0  0  0  0  0  0  0  0  0
   -2.7777  -29.7425   -6.5677 N   0  0  0  0  0  0  0  0  0  0  0  0
   -3.4345  -28.7153   -6.0360 C   0  0  0  0  0  0  0  0  0  0  0  0
   -4.2033  -28.0704   -6.9658 C   0  0  0  0  0  0  0  0  0  0  0  0
   -3.1311  -29.7618   -7.8739 C   0  0  0  0  0  0  0  0  0  0  0  0
  1 13  1  0
 14  1  2  0
  3  2  2  0
  2  7  1  0
  4  3  1  0
  4  5  2  0
 11  4  1  0
  5  6  1  0
  5  8  1  0
  6  7  2  0
  8  9  1  0
  8 10  2  0
 11 12  1  0
 11 14  1  0
 12 13  2  0
M  END
$$$$
