
     RDKit          3D

 14 15  0  0  0  0  0  0  0  0999 V2000
   -8.6909  -29.9316  -15.0399 C   0  0  0  0  0  0  0  0  0  0  0  0
  -12.8881  -30.8267  -18.7009 C   0  0  0  0  0  0  0  0  0  0  0  0
  -11.9597  -30.5941  -17.6948 C   0  0  0  0  0  0  0  0  0  0  0  0
  -10.8555  -31.4061  -17.5167 C   0  0  0  0  0  0  0  0  0  0  0  0
  -10.7042  -32.4652  -18.3792 C   0  0  0  0  0  0  0  0  0  0  0  0
  -11.6051  -32.7353  -19.3969 C   0  0  0  0  0  0  0  0  0  0  0  0
  -12.6938  -31.9012  -19.5411 C   0  0  0  0  0  0  0  0  0  0  0  0
   -9.5557  -33.3126  -18.1966 C   0  0  0  0  0  0  0  0  0  0  0  0
   -9.2218  -34.3140  -19.1232 O   0  0  0  0  0  0  0  0  0  0  0  0
   -8.7983  -33.1977  -17.2021 O   0  0  0  0  0  0  0  0  0  0  0  0
   -9.9255  -31.1368  -16.4749 N   0  0  0  0  0  0  0  0  0  0  0  0
   -9.2004  -31.9630  -15.7261 C   0  0  0  0  0  0  0  0  0  0  0  0
   -8.4240  -31.2827  -14.8284 C   0  0  0  0  0  0  0  0  0  0  0  0
   -9.6097  -29.8912  -16.0504 C   0  0  0  0  0  0  0  0  0  0  0  0
  1 13  1  0
 14  1  2  0
  3  2  2  0
  2  7  1  0
  4  3  1  0
  4  5  2  0
 11  4  1  0
  5  6  1  0
  5  8  1  0
  6  7  2  0
  8  9  1  0
  8 10  2  0
 11 12  1  0
 11 14  1  0
 12 13  2  0
M  END
$$$$
