
     RDKit          3D

 14 15  0  0  0  0  0  0  0  0999 V2000
   -9.2071  -30.7399  -14.7359 C   0  0  0  0  0  0  0  0  0  0  0  0
   -6.0433  -34.0751  -18.1556 C   0  0  0  0  0  0  0  0  0  0  0  0
   -6.6171  -33.0850  -17.3889 C   0  0  0  0  0  0  0  0  0  0  0  0
   -7.9850  -33.0098  -17.2131 C   0  0  0  0  0  0  0  0  0  0  0  0
   -8.7876  -33.9726  -17.8378 C   0  0  0  0  0  0  0  0  0  0  0  0
   -8.2481  -34.9782  -18.6125 C   0  0  0  0  0  0  0  0  0  0  0  0
   -6.8791  -34.9979  -18.7483 C   0  0  0  0  0  0  0  0  0  0  0  0
  -10.2303  -33.9118  -17.6657 C   0  0  0  0  0  0  0  0  0  0  0  0
  -11.0822  -34.3566  -18.6640 O   0  0  0  0  0  0  0  0  0  0  0  0
  -10.7123  -33.4518  -16.6021 O   0  0  0  0  0  0  0  0  0  0  0  0
   -8.5749  -31.9914  -16.4246 N   0  0  0  0  0  0  0  0  0  0  0  0
   -9.3183  -30.9895  -16.9151 C   0  0  0  0  0  0  0  0  0  0  0  0
   -9.7335  -30.1815  -15.8792 C   0  0  0  0  0  0  0  0  0  0  0  0
   -8.5015  -31.8510  -15.1150 C   0  0  0  0  0  0  0  0  0  0  0  0
  1 13  1  0
 14  1  2  0
  3  2  2  0
  2  7  1  0
  4  3  1  0
  4  5  2  0
 11  4  1  0
  5  6  1  0
  5  8  1  0
  6  7  2  0
  8  9  1  0
  8 10  2  0
 11 12  1  0
 11 14  1  0
 12 13  2  0
M  END
$$$$
