
     RDKit          3D

 14 15  0  0  0  0  0  0  0  0999 V2000
  -12.6505  -32.7870  -19.1910 C   0  0  0  0  0  0  0  0  0  0  0  0
   -7.4360  -32.4658  -16.5434 C   0  0  0  0  0  0  0  0  0  0  0  0
   -8.4452  -32.7044  -17.4500 C   0  0  0  0  0  0  0  0  0  0  0  0
   -9.6707  -32.0758  -17.3477 C   0  0  0  0  0  0  0  0  0  0  0  0
   -9.8698  -31.1794  -16.2903 C   0  0  0  0  0  0  0  0  0  0  0  0
   -8.8824  -30.9160  -15.3639 C   0  0  0  0  0  0  0  0  0  0  0  0
   -7.6845  -31.5742  -15.5214 C   0  0  0  0  0  0  0  0  0  0  0  0
  -11.1528  -30.5067  -16.1640 C   0  0  0  0  0  0  0  0  0  0  0  0
  -11.6219  -30.1024  -14.9244 O   0  0  0  0  0  0  0  0  0  0  0  0
  -11.8455  -30.2884  -17.1876 O   0  0  0  0  0  0  0  0  0  0  0  0
  -10.7085  -32.3214  -18.2802 N   0  0  0  0  0  0  0  0  0  0  0  0
  -10.5566  -32.2746  -19.6113 C   0  0  0  0  0  0  0  0  0  0  0  0
  -11.7601  -32.5629  -20.2171 C   0  0  0  0  0  0  0  0  0  0  0  0
  -11.9640  -32.6287  -18.0164 C   0  0  0  0  0  0  0  0  0  0  0  0
  1 13  1  0
 14  1  2  0
  3  2  2  0
  2  7  1  0
  4  3  1  0
  4  5  2  0
 11  4  1  0
  5  6  1  0
  5  8  1  0
  6  7  2  0
  8  9  1  0
  8 10  2  0
 11 12  1  0
 11 14  1  0
 12 13  2  0
M  END
$$$$
