
     RDKit          3D

 14 15  0  0  0  0  0  0  0  0999 V2000
   -9.8672  -34.9873  -18.4828 C   0  0  0  0  0  0  0  0  0  0  0  0
   -7.5503  -30.9101  -14.9159 C   0  0  0  0  0  0  0  0  0  0  0  0
   -7.7095  -31.9039  -15.8727 C   0  0  0  0  0  0  0  0  0  0  0  0
   -8.9224  -32.1327  -16.4946 C   0  0  0  0  0  0  0  0  0  0  0  0
   -9.9799  -31.3340  -16.1305 C   0  0  0  0  0  0  0  0  0  0  0  0
   -9.8671  -30.3309  -15.1812 C   0  0  0  0  0  0  0  0  0  0  0  0
   -8.6396  -30.1347  -14.5838 C   0  0  0  0  0  0  0  0  0  0  0  0
  -11.2441  -31.5695  -16.7761 C   0  0  0  0  0  0  0  0  0  0  0  0
  -12.4155  -30.9099  -16.3690 O   0  0  0  0  0  0  0  0  0  0  0  0
  -11.3605  -32.3743  -17.7324 O   0  0  0  0  0  0  0  0  0  0  0  0
   -9.0477  -33.1600  -17.4701 N   0  0  0  0  0  0  0  0  0  0  0  0
   -8.3470  -33.3944  -18.5761 C   0  0  0  0  0  0  0  0  0  0  0  0
   -8.8026  -34.5011  -19.2387 C   0  0  0  0  0  0  0  0  0  0  0  0
   -9.9796  -34.1399  -17.4168 C   0  0  0  0  0  0  0  0  0  0  0  0
  1 13  1  0
 14  1  2  0
  3  2  2  0
  2  7  1  0
  4  3  1  0
  4  5  2  0
 11  4  1  0
  5  6  1  0
  5  8  1  0
  6  7  2  0
  8  9  1  0
  8 10  2  0
 11 12  1  0
 11 14  1  0
 12 13  2  0
M  END
$$$$
