
     RDKit          3D

 14 15  0  0  0  0  0  0  0  0999 V2000
  -19.9541  -30.3358   -4.7404 C   0  0  0  0  0  0  0  0  0  0  0  0
  -14.2711  -31.6506   -4.6818 C   0  0  0  0  0  0  0  0  0  0  0  0
  -15.5111  -31.1378   -4.9928 C   0  0  0  0  0  0  0  0  0  0  0  0
  -16.6729  -31.7438   -4.5564 C   0  0  0  0  0  0  0  0  0  0  0  0
  -16.5641  -32.9052   -3.7812 C   0  0  0  0  0  0  0  0  0  0  0  0
  -15.3396  -33.4471   -3.4503 C   0  0  0  0  0  0  0  0  0  0  0  0
  -14.2204  -32.7961   -3.9158 C   0  0  0  0  0  0  0  0  0  0  0  0
  -17.7749  -33.5592   -3.3113 C   0  0  0  0  0  0  0  0  0  0  0  0
  -17.9703  -33.8028   -1.9613 O   0  0  0  0  0  0  0  0  0  0  0  0
  -18.6548  -33.9081   -4.1355 O   0  0  0  0  0  0  0  0  0  0  0  0
  -17.9481  -31.2162   -4.8764 N   0  0  0  0  0  0  0  0  0  0  0  0
  -18.4304  -31.1055   -6.1223 C   0  0  0  0  0  0  0  0  0  0  0  0
  -19.6924  -30.5546   -6.0744 C   0  0  0  0  0  0  0  0  0  0  0  0
  -18.8563  -30.7563   -4.0374 C   0  0  0  0  0  0  0  0  0  0  0  0
  1 13  1  0
 14  1  2  0
  3  2  2  0
  2  7  1  0
  4  3  1  0
  4  5  2  0
 11  4  1  0
  5  6  1  0
  5  8  1  0
  6  7  2  0
  8  9  1  0
  8 10  2  0
 11 12  1  0
 11 14  1  0
 12 13  2  0
M  END
$$$$
