
     RDKit          3D

 14 15  0  0  0  0  0  0  0  0999 V2000
   -1.9360  -17.1812    0.4411 C   0  0  0  0  0  0  0  0  0  0  0  0
    0.6728  -22.3221    0.8845 C   0  0  0  0  0  0  0  0  0  0  0  0
   -0.1165  -21.2468    0.5408 C   0  0  0  0  0  0  0  0  0  0  0  0
   -0.4342  -20.2627    1.4564 C   0  0  0  0  0  0  0  0  0  0  0  0
    0.0686  -20.3813    2.7582 C   0  0  0  0  0  0  0  0  0  0  0  0
    0.8618  -21.4438    3.1380 C   0  0  0  0  0  0  0  0  0  0  0  0
    1.1416  -22.3903    2.1794 C   0  0  0  0  0  0  0  0  0  0  0  0
   -0.2537  -19.3562    3.7379 C   0  0  0  0  0  0  0  0  0  0  0  0
    0.7294  -18.8256    4.5578 O   0  0  0  0  0  0  0  0  0  0  0  0
   -1.4349  -18.9453    3.8446 O   0  0  0  0  0  0  0  0  0  0  0  0
   -1.2459  -19.1570    1.1027 N   0  0  0  0  0  0  0  0  0  0  0  0
   -2.5855  -19.1544    1.1539 C   0  0  0  0  0  0  0  0  0  0  0  0
   -3.0543  -17.9254    0.7439 C   0  0  0  0  0  0  0  0  0  0  0  0
   -0.8447  -17.9752    0.6753 C   0  0  0  0  0  0  0  0  0  0  0  0
  1 13  1  0
 14  1  2  0
  3  2  2  0
  2  7  1  0
  4  3  1  0
  4  5  2  0
 11  4  1  0
  5  6  1  0
  5  8  1  0
  6  7  2  0
  8  9  1  0
  8 10  2  0
 11 12  1  0
 11 14  1  0
 12 13  2  0
M  END
$$$$
