
     RDKit          3D

 14 15  0  0  0  0  0  0  0  0999 V2000
   -5.8010  -15.8057    1.7978 C   0  0  0  0  0  0  0  0  0  0  0  0
   -1.3932  -19.0941    3.2915 C   0  0  0  0  0  0  0  0  0  0  0  0
   -2.4497  -18.2047    3.1462 C   0  0  0  0  0  0  0  0  0  0  0  0
   -2.5710  -17.3881    2.0377 C   0  0  0  0  0  0  0  0  0  0  0  0
   -1.5990  -17.4862    1.0712 C   0  0  0  0  0  0  0  0  0  0  0  0
   -0.5276  -18.3590    1.1741 C   0  0  0  0  0  0  0  0  0  0  0  0
   -0.4431  -19.1568    2.2958 C   0  0  0  0  0  0  0  0  0  0  0  0
   -1.7222  -16.6374   -0.0842 C   0  0  0  0  0  0  0  0  0  0  0  0
   -0.6944  -15.7612   -0.4699 O   0  0  0  0  0  0  0  0  0  0  0  0
   -2.7524  -16.6393   -0.8016 O   0  0  0  0  0  0  0  0  0  0  0  0
   -3.6671  -16.4892    1.9234 N   0  0  0  0  0  0  0  0  0  0  0  0
   -3.6923  -15.1648    1.8022 C   0  0  0  0  0  0  0  0  0  0  0  0
   -4.9721  -14.6884    1.7209 C   0  0  0  0  0  0  0  0  0  0  0  0
   -4.9633  -16.8782    1.9203 C   0  0  0  0  0  0  0  0  0  0  0  0
  1 13  1  0
 14  1  2  0
  3  2  2  0
  2  7  1  0
  4  3  1  0
  4  5  2  0
 11  4  1  0
  5  6  1  0
  5  8  1  0
  6  7  2  0
  8  9  1  0
  8 10  2  0
 11 12  1  0
 11 14  1  0
 12 13  2  0
M  END
$$$$
