
     RDKit          3D

 14 15  0  0  0  0  0  0  0  0999 V2000
   -0.5639  -18.7626    3.3146 C   0  0  0  0  0  0  0  0  0  0  0  0
   -3.8196  -16.8395   -0.9580 C   0  0  0  0  0  0  0  0  0  0  0  0
   -2.8533  -17.1953   -0.0431 C   0  0  0  0  0  0  0  0  0  0  0  0
   -3.1449  -17.3256    1.3006 C   0  0  0  0  0  0  0  0  0  0  0  0
   -4.4594  -17.0858    1.7201 C   0  0  0  0  0  0  0  0  0  0  0  0
   -5.4526  -16.7278    0.8326 C   0  0  0  0  0  0  0  0  0  0  0  0
   -5.0977  -16.6148   -0.4919 C   0  0  0  0  0  0  0  0  0  0  0  0
   -4.7879  -17.2175    3.1306 C   0  0  0  0  0  0  0  0  0  0  0  0
   -4.8037  -16.1083    3.9609 O   0  0  0  0  0  0  0  0  0  0  0  0
   -5.0606  -18.3474    3.6042 O   0  0  0  0  0  0  0  0  0  0  0  0
   -2.1509  -17.6916    2.2414 N   0  0  0  0  0  0  0  0  0  0  0  0
   -1.8165  -16.9585    3.3128 C   0  0  0  0  0  0  0  0  0  0  0  0
   -0.8194  -17.6031    4.0119 C   0  0  0  0  0  0  0  0  0  0  0  0
   -1.4038  -18.7787    2.2328 C   0  0  0  0  0  0  0  0  0  0  0  0
  1 13  1  0
 14  1  2  0
  3  2  2  0
  2  7  1  0
  4  3  1  0
  4  5  2  0
 11  4  1  0
  5  6  1  0
  5  8  1  0
  6  7  2  0
  8  9  1  0
  8 10  2  0
 11 12  1  0
 11 14  1  0
 12 13  2  0
M  END
$$$$
