
     RDKit          3D

 14 15  0  0  0  0  0  0  0  0999 V2000
  -12.8136  -30.0316  -18.6713 C   0  0  0  0  0  0  0  0  0  0  0  0
   -7.7488  -31.6537  -16.2709 C   0  0  0  0  0  0  0  0  0  0  0  0
   -8.9397  -31.0114  -16.5830 C   0  0  0  0  0  0  0  0  0  0  0  0
  -10.0220  -31.6921  -17.1078 C   0  0  0  0  0  0  0  0  0  0  0  0
   -9.8795  -33.0434  -17.3133 C   0  0  0  0  0  0  0  0  0  0  0  0
   -8.7103  -33.7255  -17.0167 C   0  0  0  0  0  0  0  0  0  0  0  0
   -7.6535  -33.0098  -16.4946 C   0  0  0  0  0  0  0  0  0  0  0  0
  -11.0044  -33.7552  -17.8595 C   0  0  0  0  0  0  0  0  0  0  0  0
  -11.0738  -35.1579  -17.8345 O   0  0  0  0  0  0  0  0  0  0  0  0
  -11.9761  -33.1578  -18.3836 O   0  0  0  0  0  0  0  0  0  0  0  0
  -11.2261  -31.0004  -17.4153 N   0  0  0  0  0  0  0  0  0  0  0  0
  -12.1783  -30.5229  -16.6189 C   0  0  0  0  0  0  0  0  0  0  0  0
  -13.1776  -29.9182  -17.3312 C   0  0  0  0  0  0  0  0  0  0  0  0
  -11.6200  -30.6968  -18.6739 C   0  0  0  0  0  0  0  0  0  0  0  0
  1 13  1  0
 14  1  2  0
  3  2  2  0
  2  7  1  0
  4  3  1  0
  4  5  2  0
 11  4  1  0
  5  6  1  0
  5  8  1  0
  6  7  2  0
  8  9  1  0
  8 10  2  0
 11 12  1  0
 11 14  1  0
 12 13  2  0
M  END
$$$$
