
     RDKit          3D

 14 15  0  0  0  0  0  0  0  0999 V2000
   -2.7070  -17.0654    0.2107 C   0  0  0  0  0  0  0  0  0  0  0  0
   -1.6653  -20.9990    4.1606 C   0  0  0  0  0  0  0  0  0  0  0  0
   -1.9009  -20.1839    3.0613 C   0  0  0  0  0  0  0  0  0  0  0  0
   -2.9817  -19.3241    3.0067 C   0  0  0  0  0  0  0  0  0  0  0  0
   -3.8268  -19.3017    4.0902 C   0  0  0  0  0  0  0  0  0  0  0  0
   -3.6308  -20.0971    5.2078 C   0  0  0  0  0  0  0  0  0  0  0  0
   -2.5405  -20.9414    5.2231 C   0  0  0  0  0  0  0  0  0  0  0  0
   -4.9529  -18.4077    4.0366 C   0  0  0  0  0  0  0  0  0  0  0  0
   -6.2740  -18.8843    4.0129 O   0  0  0  0  0  0  0  0  0  0  0  0
   -4.8091  -17.1609    4.0086 O   0  0  0  0  0  0  0  0  0  0  0  0
   -3.1910  -18.5040    1.8638 N   0  0  0  0  0  0  0  0  0  0  0  0
   -4.2855  -18.2921    1.1384 C   0  0  0  0  0  0  0  0  0  0  0  0
   -4.0509  -17.4195    0.1113 C   0  0  0  0  0  0  0  0  0  0  0  0
   -2.2247  -17.7493    1.2909 C   0  0  0  0  0  0  0  0  0  0  0  0
  1 13  1  0
 14  1  2  0
  3  2  2  0
  2  7  1  0
  4  3  1  0
  4  5  2  0
 11  4  1  0
  5  6  1  0
  5  8  1  0
  6  7  2  0
  8  9  1  0
  8 10  2  0
 11 12  1  0
 11 14  1  0
 12 13  2  0
M  END
$$$$
