
     RDKit          3D

 14 15  0  0  0  0  0  0  0  0999 V2000
   -3.0324  -18.3124    1.8501 C   0  0  0  0  0  0  0  0  0  0  0  0
    0.4015  -23.0592    1.7395 C   0  0  0  0  0  0  0  0  0  0  0  0
   -0.6301  -22.1621    1.9833 C   0  0  0  0  0  0  0  0  0  0  0  0
   -0.4233  -20.7956    1.9953 C   0  0  0  0  0  0  0  0  0  0  0  0
    0.8535  -20.3475    1.7549 C   0  0  0  0  0  0  0  0  0  0  0  0
    1.9128  -21.2057    1.5070 C   0  0  0  0  0  0  0  0  0  0  0  0
    1.6647  -22.5623    1.5038 C   0  0  0  0  0  0  0  0  0  0  0  0
    1.0722  -18.9254    1.7666 C   0  0  0  0  0  0  0  0  0  0  0  0
    2.0845  -18.3274    0.9980 O   0  0  0  0  0  0  0  0  0  0  0  0
    0.3701  -18.1522    2.4631 O   0  0  0  0  0  0  0  0  0  0  0  0
   -1.5044  -19.9070    2.2488 N   0  0  0  0  0  0  0  0  0  0  0  0
   -2.2342  -19.7213    3.3452 C   0  0  0  0  0  0  0  0  0  0  0  0
   -3.1866  -18.7565    3.1617 C   0  0  0  0  0  0  0  0  0  0  0  0
   -1.9977  -19.0403    1.3338 C   0  0  0  0  0  0  0  0  0  0  0  0
  1 13  1  0
 14  1  2  0
  3  2  2  0
  2  7  1  0
  4  3  1  0
  4  5  2  0
 11  4  1  0
  5  6  1  0
  5  8  1  0
  6  7  2  0
  8  9  1  0
  8 10  2  0
 11 12  1  0
 11 14  1  0
 12 13  2  0
M  END
$$$$
