
     RDKit          3D

 14 15  0  0  0  0  0  0  0  0999 V2000
   -7.2072  -33.4183  -15.8078 C   0  0  0  0  0  0  0  0  0  0  0  0
   -7.2496  -33.2381  -21.6136 C   0  0  0  0  0  0  0  0  0  0  0  0
   -7.0574  -32.9911  -20.2606 C   0  0  0  0  0  0  0  0  0  0  0  0
   -8.0206  -33.2960  -19.3175 C   0  0  0  0  0  0  0  0  0  0  0  0
   -9.1904  -33.8590  -19.7682 C   0  0  0  0  0  0  0  0  0  0  0  0
   -9.4255  -34.1231  -21.1080 C   0  0  0  0  0  0  0  0  0  0  0  0
   -8.4391  -33.8040  -22.0174 C   0  0  0  0  0  0  0  0  0  0  0  0
  -10.1953  -34.1777  -18.7889 C   0  0  0  0  0  0  0  0  0  0  0  0
  -11.5658  -34.1184  -19.0907 O   0  0  0  0  0  0  0  0  0  0  0  0
   -9.8959  -34.5234  -17.6198 O   0  0  0  0  0  0  0  0  0  0  0  0
   -7.7882  -33.0285  -17.9401 N   0  0  0  0  0  0  0  0  0  0  0  0
   -7.9402  -31.9095  -17.2373 C   0  0  0  0  0  0  0  0  0  0  0  0
   -7.5998  -32.0865  -15.9242 C   0  0  0  0  0  0  0  0  0  0  0  0
   -7.3382  -33.9518  -17.0589 C   0  0  0  0  0  0  0  0  0  0  0  0
  1 13  1  0
 14  1  2  0
  3  2  2  0
  2  7  1  0
  4  3  1  0
  4  5  2  0
 11  4  1  0
  5  6  1  0
  5  8  1  0
  6  7  2  0
  8  9  1  0
  8 10  2  0
 11 12  1  0
 11 14  1  0
 12 13  2  0
M  END
$$$$
