
     RDKit          3D

 14 15  0  0  0  0  0  0  0  0999 V2000
   -2.8439  -18.4420    2.6851 C   0  0  0  0  0  0  0  0  0  0  0  0
    0.2789  -23.0262    1.2689 C   0  0  0  0  0  0  0  0  0  0  0  0
   -0.6223  -21.9775    1.3970 C   0  0  0  0  0  0  0  0  0  0  0  0
   -0.2098  -20.6898    1.6832 C   0  0  0  0  0  0  0  0  0  0  0  0
    1.1391  -20.4781    1.8389 C   0  0  0  0  0  0  0  0  0  0  0  0
    2.0739  -21.4940    1.7200 C   0  0  0  0  0  0  0  0  0  0  0  0
    1.6216  -22.7649    1.4337 C   0  0  0  0  0  0  0  0  0  0  0  0
    1.5718  -19.1386    2.1368 C   0  0  0  0  0  0  0  0  0  0  0  0
    2.7703  -18.6178    1.6217 O   0  0  0  0  0  0  0  0  0  0  0  0
    0.9003  -18.3724    2.8702 O   0  0  0  0  0  0  0  0  0  0  0  0
   -1.1621  -19.6406    1.8071 N   0  0  0  0  0  0  0  0  0  0  0  0
   -1.3941  -18.5854    1.0314 C   0  0  0  0  0  0  0  0  0  0  0  0
   -2.4135  -17.8138    1.5183 C   0  0  0  0  0  0  0  0  0  0  0  0
   -2.0541  -19.5487    2.8207 C   0  0  0  0  0  0  0  0  0  0  0  0
  1 13  1  0
 14  1  2  0
  3  2  2  0
  2  7  1  0
  4  3  1  0
  4  5  2  0
 11  4  1  0
  5  6  1  0
  5  8  1  0
  6  7  2  0
  8  9  1  0
  8 10  2  0
 11 12  1  0
 11 14  1  0
 12 13  2  0
M  END
$$$$
