
     RDKit          3D

 14 15  0  0  0  0  0  0  0  0999 V2000
   -2.1111  -20.8264    4.8113 C   0  0  0  0  0  0  0  0  0  0  0  0
   -2.2528  -17.1734    0.3982 C   0  0  0  0  0  0  0  0  0  0  0  0
   -1.9544  -17.9868    1.4690 C   0  0  0  0  0  0  0  0  0  0  0  0
   -2.8830  -18.2484    2.4575 C   0  0  0  0  0  0  0  0  0  0  0  0
   -4.1504  -17.6627    2.3481 C   0  0  0  0  0  0  0  0  0  0  0  0
   -4.4845  -16.8431    1.2902 C   0  0  0  0  0  0  0  0  0  0  0  0
   -3.5153  -16.6221    0.3390 C   0  0  0  0  0  0  0  0  0  0  0  0
   -5.1430  -17.9250    3.3779 C   0  0  0  0  0  0  0  0  0  0  0  0
   -5.7726  -16.8814    4.0373 O   0  0  0  0  0  0  0  0  0  0  0  0
   -5.4351  -19.1089    3.6751 O   0  0  0  0  0  0  0  0  0  0  0  0
   -2.5759  -19.0850    3.5587 N   0  0  0  0  0  0  0  0  0  0  0  0
   -2.4275  -18.6530    4.8190 C   0  0  0  0  0  0  0  0  0  0  0  0
   -2.1340  -19.7235    5.6354 C   0  0  0  0  0  0  0  0  0  0  0  0
   -2.3878  -20.3906    3.5426 C   0  0  0  0  0  0  0  0  0  0  0  0
  1 13  1  0
 14  1  2  0
  3  2  2  0
  2  7  1  0
  4  3  1  0
  4  5  2  0
 11  4  1  0
  5  6  1  0
  5  8  1  0
  6  7  2  0
  8  9  1  0
  8 10  2  0
 11 12  1  0
 11 14  1  0
 12 13  2  0
M  END
$$$$
