
     RDKit          3D

 14 15  0  0  0  0  0  0  0  0999 V2000
   -0.6626  -42.2662   -2.6725 C   0  0  0  0  0  0  0  0  0  0  0  0
    3.0970  -39.9414   -6.5345 C   0  0  0  0  0  0  0  0  0  0  0  0
    2.3161  -40.1807   -5.4114 C   0  0  0  0  0  0  0  0  0  0  0  0
    1.9172  -41.4554   -5.0561 C   0  0  0  0  0  0  0  0  0  0  0  0
    2.3240  -42.4922   -5.8611 C   0  0  0  0  0  0  0  0  0  0  0  0
    3.1033  -42.3004   -6.9907 C   0  0  0  0  0  0  0  0  0  0  0  0
    3.4802  -41.0131   -7.3109 C   0  0  0  0  0  0  0  0  0  0  0  0
    1.9105  -43.8206   -5.4940 C   0  0  0  0  0  0  0  0  0  0  0  0
    0.5948  -44.0992   -5.0888 O   0  0  0  0  0  0  0  0  0  0  0  0
    2.7045  -44.7927   -5.5182 O   0  0  0  0  0  0  0  0  0  0  0  0
    1.1173  -41.6619   -3.8984 N   0  0  0  0  0  0  0  0  0  0  0  0
    1.3713  -41.4194   -2.6155 C   0  0  0  0  0  0  0  0  0  0  0  0
    0.3177  -41.7692   -1.8161 C   0  0  0  0  0  0  0  0  0  0  0  0
   -0.1319  -42.1815   -3.9288 C   0  0  0  0  0  0  0  0  0  0  0  0
  1 13  1  0
 14  1  2  0
  3  2  2  0
  2  7  1  0
  4  3  1  0
  4  5  2  0
 11  4  1  0
  5  6  1  0
  5  8  1  0
  6  7  2  0
  8  9  1  0
  8 10  2  0
 11 12  1  0
 11 14  1  0
 12 13  2  0
M  END
$$$$
