
     RDKit          3D

 64 65  0  0  0  0  0  0  0  0999 V2000
   97.7256  219.0961  322.3946 C   0  0  1  0  0  0  0  0  0  0  0  0
   99.4191  217.3640  324.2522 C   0  0  0  0  0  0  0  0  0  0  0  0
   98.0850  217.0151  323.5493 C   0  0  2  0  0  0  0  0  0  0  0  0
   98.1667  216.2339  322.2229 C   0  0  1  0  0  0  0  0  0  0  0  0
   98.6706  217.1409  321.0885 C   0  0  1  0  0  0  0  0  0  0  0  0
   97.8207  218.4071  321.0095 C   0  0  1  0  0  0  0  0  0  0  0  0
   82.6559  221.9441  309.8647 C   0  0  0  0  0  0  0  0  0  0  0  0
   82.6404  220.9313  310.9967 C   0  0  0  0  0  0  0  0  0  0  0  0
   83.6900  221.1932  312.0833 C   0  0  0  0  0  0  0  0  0  0  0  0
   83.7227  220.1357  313.1950 C   0  0  0  0  0  0  0  0  0  0  0  0
   85.0910  219.4570  313.3386 C   0  0  0  0  0  0  0  0  0  0  0  0
   85.0987  218.3094  314.3560 C   0  0  0  0  0  0  0  0  0  0  0  0
   86.4202  217.5463  314.4805 C   0  0  0  0  0  0  0  0  0  0  0  0
   87.0550  217.6371  315.8723 C   0  0  0  0  0  0  0  0  0  0  0  0
   88.1461  218.7091  315.8903 C   0  0  0  0  0  0  0  0  0  0  0  0
   89.3126  218.3290  316.8103 C   0  0  0  0  0  0  0  0  0  0  0  0
   89.0694  218.8069  318.2494 C   0  0  0  0  0  0  0  0  0  0  0  0
   90.3697  218.8750  319.0655 C   0  0  0  0  0  0  0  0  0  0  0  0
   90.2063  219.7047  320.3471 C   0  0  0  0  0  0  0  0  0  0  0  0
   91.5180  219.8099  321.1376 C   0  0  0  0  0  0  0  0  0  0  0  0
   92.7177  220.3561  320.3466 C   0  0  1  0  0  0  0  0  0  0  0  0
   92.3459  221.6560  319.8353 O   0  0  0  0  0  0  0  0  0  0  0  0
   94.0656  220.5458  321.0786 C   0  0  1  0  0  0  0  0  0  0  0  0
   94.2731  221.9379  321.3675 O   0  0  0  0  0  0  0  0  0  0  0  0
   94.2833  219.6631  322.3394 C   0  0  2  0  0  0  0  0  0  0  0  0
   95.5875  219.9793  323.1090 C   0  0  0  0  0  0  0  0  0  0  0  0
   96.7477  220.1385  322.2725 O   0  0  0  0  0  0  0  0  0  0  0  0
   96.5012  218.0674  320.5370 O   0  0  0  0  0  0  0  0  0  0  0  0
  100.0468  217.4790  321.2923 O   0  0  0  0  0  0  0  0  0  0  0  0
   97.2582  218.1798  323.3954 O   0  0  0  0  0  0  0  0  0  0  0  0
   99.7126  216.5922  325.4066 O   0  0  0  0  0  0  0  0  0  0  0  0
   99.0367  215.1004  322.3439 O   0  0  0  0  0  0  0  0  0  0  0  0
   99.9905  215.2157  323.3979 C   0  0  0  0  0  0  0  0  0  0  0  0
  101.3553  214.9128  322.8747 C   0  0  2  0  0  0  0  0  0  0  0  0
  101.6985  213.5661  322.2908 C   0  0  0  0  0  0  0  0  0  0  0  0
  102.2568  213.9680  323.6281 C   0  0  0  0  0  0  0  0  0  0  0  0
   94.2837  218.2379  321.9707 N   0  0  0  0  0  0  0  0  0  0  0  0
   93.2286  217.4254  322.3291 C   0  0  0  0  0  0  0  0  0  0  0  0
   92.1571  217.8616  322.7416 O   0  0  0  0  0  0  0  0  0  0  0  0
   93.5154  215.9457  322.1633 C   0  0  0  0  0  0  0  0  0  0  0  0
   93.3067  215.1977  323.4772 C   0  0  0  0  0  0  0  0  0  0  0  0
   91.8650  214.7087  323.6203 C   0  0  0  0  0  0  0  0  0  0  0  0
   91.2897  214.1136  322.3289 C   0  0  0  0  0  0  0  0  0  0  0  0
   89.7653  213.9686  322.3693 C   0  0  0  0  0  0  0  0  0  0  0  0
   89.2430  212.7638  321.5796 C   0  0  0  0  0  0  0  0  0  0  0  0
   89.7662  211.4218  322.0990 C   0  0  0  0  0  0  0  0  0  0  0  0
   88.7348  210.3129  321.8780 C   0  0  0  0  0  0  0  0  0  0  0  0
   89.2152  208.9659  322.4257 C   0  0  0  0  0  0  0  0  0  0  0  0
   89.2167  208.9786  323.9548 C   0  0  0  0  0  0  0  0  0  0  0  0
   88.2357  207.9920  324.5954 C   0  0  0  0  0  0  0  0  0  0  0  0
   88.1909  207.9761  326.1273 C   0  0  0  0  0  0  0  0  0  0  0  0
   87.1048  207.0721  326.7115 C   0  0  0  0  0  0  0  0  0  0  0  0
   85.9771  206.8231  325.7036 C   0  0  0  0  0  0  0  0  0  0  0  0
   84.9478  205.8433  326.2696 C   0  0  0  0  0  0  0  0  0  0  0  0
   83.4906  206.2815  326.0992 C   0  0  0  0  0  0  0  0  0  0  0  0
   82.8352  206.9646  327.3067 C   0  0  0  0  0  0  0  0  0  0  0  0
   81.3780  207.3997  327.1286 C   0  0  0  0  0  0  0  0  0  0  0  0
   81.2022  208.8760  326.7676 C   0  0  0  0  0  0  0  0  0  0  0  0
   80.1540  209.0900  325.6684 C   0  0  0  0  0  0  0  0  0  0  0  0
   80.0232  210.5533  325.2299 C   0  0  0  0  0  0  0  0  0  0  0  0
   80.2787  210.7066  323.7305 C   0  0  0  0  0  0  0  0  0  0  0  0
   80.2275  212.1629  323.2578 C   0  0  0  0  0  0  0  0  0  0  0  0
   80.5993  212.4002  321.7935 C   0  0  0  0  0  0  0  0  0  0  0  0
   82.0470  212.8164  321.5900 C   0  0  0  0  0  0  0  0  0  0  0  0
  1  6  1  0
  1 27  1  6
  1 30  1  0
  3  2  1  6
  2 31  1  0
  3  4  1  0
 30  3  1  0
  5  4  1  0
  4 32  1  1
  6  5  1  0
  5 29  1  1
  6 28  1  1
  8  7  1  0
  9  8  1  0
 10  9  1  0
 11 10  1  0
 12 11  1  0
 13 12  1  0
 14 13  1  0
 15 14  1  0
 16 15  1  0
 17 16  1  0
 18 17  1  0
 19 18  1  0
 20 19  1  0
 21 20  1  0
 21 22  1  1
 23 21  1  0
 23 24  1  1
 25 23  1  0
 25 26  1  6
 25 37  1  0
 26 27  1  0
 32 33  1  0
 34 33  1  1
 34 35  1  0
 34 36  1  0
 35 36  1  0
 37 38  1  0
 38 39  2  0
 38 40  1  0
 40 41  1  0
 41 42  1  0
 42 43  1  0
 43 44  1  0
 44 45  1  0
 45 46  1  0
 46 47  1  0
 47 48  1  0
 48 49  1  0
 49 50  1  0
 50 51  1  0
 51 52  1  0
 52 53  1  0
 53 54  1  0
 54 55  1  0
 55 56  1  0
 56 57  1  0
 57 58  1  0
 58 59  1  0
 59 60  1  0
 60 61  1  0
 61 62  1  0
 62 63  1  0
 63 64  1  0
M  END
$$$$
