
     RDKit          3D

 64 65  0  0  0  0  0  0  0  0999 V2000
   96.2923  220.5475  320.5589 C   0  0  1  0  0  0  0  0  0  0  0  0
   96.7145  220.8291  317.5488 C   0  0  0  0  0  0  0  0  0  0  0  0
   95.8119  219.8302  318.3122 C   0  0  2  0  0  0  0  0  0  0  0  0
   94.3210  220.1934  318.4601 C   0  0  1  0  0  0  0  0  0  0  0  0
   94.1373  221.3296  319.4792 C   0  0  1  0  0  0  0  0  0  0  0  0
   94.8205  220.9711  320.7969 C   0  0  1  0  0  0  0  0  0  0  0  0
   94.9518  215.7234  338.0748 C   0  0  0  0  0  0  0  0  0  0  0  0
   95.3612  214.2898  337.7842 C   0  0  0  0  0  0  0  0  0  0  0  0
   96.0301  214.0960  336.4182 C   0  0  0  0  0  0  0  0  0  0  0  0
   95.9078  212.6743  335.8533 C   0  0  0  0  0  0  0  0  0  0  0  0
   96.6847  212.4787  334.5450 C   0  0  0  0  0  0  0  0  0  0  0  0
   95.8007  212.5537  333.2939 C   0  0  0  0  0  0  0  0  0  0  0  0
   96.4886  213.0770  332.0300 C   0  0  0  0  0  0  0  0  0  0  0  0
   96.0038  212.4038  330.7415 C   0  0  0  0  0  0  0  0  0  0  0  0
   96.4416  213.2148  329.5206 C   0  0  0  0  0  0  0  0  0  0  0  0
   95.4865  213.0323  328.3348 C   0  0  0  0  0  0  0  0  0  0  0  0
   96.2553  212.7623  327.0331 C   0  0  0  0  0  0  0  0  0  0  0  0
   95.4247  213.1070  325.7869 C   0  0  0  0  0  0  0  0  0  0  0  0
   95.0055  214.5839  325.7607 C   0  0  0  0  0  0  0  0  0  0  0  0
   95.4950  215.3002  324.4944 C   0  0  0  0  0  0  0  0  0  0  0  0
   95.1753  216.8024  324.4262 C   0  0  1  0  0  0  0  0  0  0  0  0
   94.9220  217.2547  325.7755 O   0  0  0  0  0  0  0  0  0  0  0  0
   96.2350  217.7613  323.8378 C   0  0  1  0  0  0  0  0  0  0  0  0
   97.4328  217.7113  324.6299 O   0  0  0  0  0  0  0  0  0  0  0  0
   96.5441  217.5851  322.3247 C   0  0  2  0  0  0  0  0  0  0  0  0
   97.3916  218.7293  321.7201 C   0  0  0  0  0  0  0  0  0  0  0  0
   96.7810  220.0298  321.8044 O   0  0  0  0  0  0  0  0  0  0  0  0
   94.0963  219.8986  321.4334 O   0  0  0  0  0  0  0  0  0  0  0  0
   94.6677  222.5552  318.9628 O   0  0  0  0  0  0  0  0  0  0  0  0
   96.3749  219.4921  319.5898 O   0  0  0  0  0  0  0  0  0  0  0  0
   97.7061  220.2374  316.7236 O   0  0  0  0  0  0  0  0  0  0  0  0
   93.7591  220.5910  317.2021 O   0  0  0  0  0  0  0  0  0  0  0  0
   93.2701  221.9305  317.1867 C   0  0  0  0  0  0  0  0  0  0  0  0
   92.0099  221.9953  316.3893 C   0  0  2  0  0  0  0  0  0  0  0  0
   91.5939  223.2511  315.6665 C   0  0  0  0  0  0  0  0  0  0  0  0
   90.8431  222.8073  316.8916 C   0  0  0  0  0  0  0  0  0  0  0  0
   95.2927  217.4658  321.5586 N   0  0  0  0  0  0  0  0  0  0  0  0
   94.6118  216.2672  321.5190 C   0  0  0  0  0  0  0  0  0  0  0  0
   95.1239  215.2180  321.1374 O   0  0  0  0  0  0  0  0  0  0  0  0
   93.1749  216.3669  321.9927 C   0  0  0  0  0  0  0  0  0  0  0  0
   92.5307  214.9859  322.0796 C   0  0  0  0  0  0  0  0  0  0  0  0
   91.1050  214.9972  321.5267 C   0  0  0  0  0  0  0  0  0  0  0  0
   90.4418  213.6141  321.5164 C   0  0  0  0  0  0  0  0  0  0  0  0
   88.9574  213.6699  321.1422 C   0  0  0  0  0  0  0  0  0  0  0  0
   88.7042  213.6341  319.6314 C   0  0  0  0  0  0  0  0  0  0  0  0
   87.2226  213.7367  319.2594 C   0  0  0  0  0  0  0  0  0  0  0  0
   87.0440  213.7753  317.7399 C   0  0  0  0  0  0  0  0  0  0  0  0
   85.9038  214.7075  317.3203 C   0  0  0  0  0  0  0  0  0  0  0  0
   85.9743  214.9996  315.8209 C   0  0  0  0  0  0  0  0  0  0  0  0
   85.4904  216.3984  315.4267 C   0  0  0  0  0  0  0  0  0  0  0  0
   86.5570  217.3615  314.8941 C   0  0  0  0  0  0  0  0  0  0  0  0
   86.0985  218.2063  313.7049 C   0  0  0  0  0  0  0  0  0  0  0  0
   86.4008  219.6935  313.9206 C   0  0  0  0  0  0  0  0  0  0  0  0
   85.8381  220.5350  312.7740 C   0  0  0  0  0  0  0  0  0  0  0  0
   84.3281  220.7788  312.8446 C   0  0  0  0  0  0  0  0  0  0  0  0
   83.7003  221.5328  311.6649 C   0  0  0  0  0  0  0  0  0  0  0  0
   82.5713  220.8102  310.9247 C   0  0  0  0  0  0  0  0  0  0  0  0
   81.2563  220.7350  311.7033 C   0  0  0  0  0  0  0  0  0  0  0  0
   81.2365  219.5780  312.7102 C   0  0  0  0  0  0  0  0  0  0  0  0
   79.8258  219.0587  313.0114 C   0  0  0  0  0  0  0  0  0  0  0  0
   79.5145  219.1377  314.5060 C   0  0  0  0  0  0  0  0  0  0  0  0
   78.1147  218.6230  314.8565 C   0  0  0  0  0  0  0  0  0  0  0  0
   77.7362  218.6812  316.3371 C   0  0  0  0  0  0  0  0  0  0  0  0
   76.3417  218.1537  316.6330 C   0  0  0  0  0  0  0  0  0  0  0  0
  1  6  1  0
  1 27  1  1
  1 30  1  0
  3  2  1  1
  2 31  1  0
  3  4  1  0
 30  3  1  0
  5  4  1  0
  4 32  1  6
  6  5  1  0
  5 29  1  6
  6 28  1  6
  8  7  1  0
  9  8  1  0
 10  9  1  0
 11 10  1  0
 12 11  1  0
 13 12  1  0
 14 13  1  0
 15 14  1  0
 16 15  1  0
 17 16  1  0
 18 17  1  0
 19 18  1  0
 20 19  1  0
 21 20  1  0
 21 22  1  1
 23 21  1  0
 23 24  1  1
 25 23  1  0
 25 26  1  6
 25 37  1  0
 26 27  1  0
 32 33  1  0
 34 33  1  1
 34 35  1  0
 34 36  1  0
 35 36  1  0
 37 38  1  0
 38 39  2  0
 38 40  1  0
 40 41  1  0
 41 42  1  0
 42 43  1  0
 43 44  1  0
 44 45  1  0
 45 46  1  0
 46 47  1  0
 47 48  1  0
 48 49  1  0
 49 50  1  0
 50 51  1  0
 51 52  1  0
 52 53  1  0
 53 54  1  0
 54 55  1  0
 55 56  1  0
 56 57  1  0
 57 58  1  0
 58 59  1  0
 59 60  1  0
 60 61  1  0
 61 62  1  0
 62 63  1  0
 63 64  1  0
M  END
$$$$
