
     RDKit          3D

 64 65  0  0  0  0  0  0  0  0999 V2000
   94.7981  220.0186  322.6831 C   0  0  1  0  0  0  0  0  0  0  0  0
   97.8341  219.7014  322.6596 C   0  0  0  0  0  0  0  0  0  0  0  0
   96.8155  219.3671  321.5434 C   0  0  2  0  0  0  0  0  0  0  0  0
   96.5972  220.4253  320.4438 C   0  0  1  0  0  0  0  0  0  0  0  0
   95.7955  221.6182  320.9895 C   0  0  1  0  0  0  0  0  0  0  0  0
   94.5049  221.1305  321.6439 C   0  0  1  0  0  0  0  0  0  0  0  0
   84.2936  206.0577  323.3803 C   0  0  0  0  0  0  0  0  0  0  0  0
   85.4225  206.7078  324.1616 C   0  0  0  0  0  0  0  0  0  0  0  0
   86.4377  205.7130  324.7365 C   0  0  0  0  0  0  0  0  0  0  0  0
   87.6038  206.3677  325.4894 C   0  0  0  0  0  0  0  0  0  0  0  0
   88.9741  205.8248  325.0640 C   0  0  0  0  0  0  0  0  0  0  0  0
   89.9695  206.9231  324.6696 C   0  0  0  0  0  0  0  0  0  0  0  0
   89.9023  207.3821  323.2105 C   0  0  0  0  0  0  0  0  0  0  0  0
   89.2355  208.7495  323.0253 C   0  0  0  0  0  0  0  0  0  0  0  0
   89.9980  209.5770  321.9892 C   0  0  0  0  0  0  0  0  0  0  0  0
   89.2792  210.8906  321.6582 C   0  0  0  0  0  0  0  0  0  0  0  0
   89.9123  211.5847  320.4434 C   0  0  0  0  0  0  0  0  0  0  0  0
   91.0363  212.5512  320.8483 C   0  0  0  0  0  0  0  0  0  0  0  0
   90.7029  214.0078  320.4948 C   0  0  0  0  0  0  0  0  0  0  0  0
   91.7893  214.9810  320.9734 C   0  0  0  0  0  0  0  0  0  0  0  0
   91.5509  216.4568  320.6152 C   0  0  1  0  0  0  0  0  0  0  0  0
   90.1462  216.7318  320.8168 O   0  0  0  0  0  0  0  0  0  0  0  0
   92.3234  217.5446  321.3954 C   0  0  1  0  0  0  0  0  0  0  0  0
   93.5854  217.8000  320.7577 O   0  0  0  0  0  0  0  0  0  0  0  0
   91.5468  218.8624  321.6715 C   0  0  2  0  0  0  0  0  0  0  0  0
   92.4030  219.9685  322.3323 C   0  0  0  0  0  0  0  0  0  0  0  0
   93.5300  219.4796  323.0821 O   0  0  0  0  0  0  0  0  0  0  0  0
   93.6135  220.6306  320.6264 O   0  0  0  0  0  0  0  0  0  0  0  0
   96.5797  222.3591  321.9308 O   0  0  0  0  0  0  0  0  0  0  0  0
   95.5564  218.9509  322.0960 O   0  0  0  0  0  0  0  0  0  0  0  0
   98.3388  218.5817  323.3709 O   0  0  0  0  0  0  0  0  0  0  0  0
   97.8482  220.8946  319.9233 O   0  0  0  0  0  0  0  0  0  0  0  0
   98.0650  222.2910  320.1153 C   0  0  0  0  0  0  0  0  0  0  0  0
   99.3456  222.6942  319.4627 C   0  0  2  0  0  0  0  0  0  0  0  0
   99.5102  224.0415  318.8069 C   0  0  0  0  0  0  0  0  0  0  0  0
   99.4232  222.8012  317.9609 C   0  0  0  0  0  0  0  0  0  0  0  0
   90.3761  218.5961  322.5234 N   0  0  0  0  0  0  0  0  0  0  0  0
   89.1403  218.3656  321.9566 C   0  0  0  0  0  0  0  0  0  0  0  0
   88.9547  218.3361  320.7428 O   0  0  0  0  0  0  0  0  0  0  0  0
   88.0350  218.1498  322.9721 C   0  0  0  0  0  0  0  0  0  0  0  0
   87.6289  216.6798  323.0341 C   0  0  0  0  0  0  0  0  0  0  0  0
   86.7944  216.3816  324.2803 C   0  0  0  0  0  0  0  0  0  0  0  0
   86.3546  214.9158  324.3858 C   0  0  0  0  0  0  0  0  0  0  0  0
   85.5032  214.6391  325.6288 C   0  0  0  0  0  0  0  0  0  0  0  0
   84.0030  214.5373  325.3340 C   0  0  0  0  0  0  0  0  0  0  0  0
   83.3867  213.2033  325.7640 C   0  0  0  0  0  0  0  0  0  0  0  0
   81.9239  213.1122  325.3240 C   0  0  0  0  0  0  0  0  0  0  0  0
   81.2800  211.7881  325.7449 C   0  0  0  0  0  0  0  0  0  0  0  0
   80.3816  211.2504  324.6304 C   0  0  0  0  0  0  0  0  0  0  0  0
   80.2482  212.1821  323.4221 C   0  0  0  0  0  0  0  0  0  0  0  0
   81.0049  211.7657  322.1561 C   0  0  0  0  0  0  0  0  0  0  0  0
   80.9307  212.7859  321.0194 C   0  0  0  0  0  0  0  0  0  0  0  0
   81.6226  212.2694  319.7530 C   0  0  0  0  0  0  0  0  0  0  0  0
   81.6914  213.3631  318.6859 C   0  0  0  0  0  0  0  0  0  0  0  0
   82.5085  212.9918  317.4453 C   0  0  0  0  0  0  0  0  0  0  0  0
   82.7520  214.1118  316.4252 C   0  0  0  0  0  0  0  0  0  0  0  0
   83.2491  213.6727  315.0451 C   0  0  0  0  0  0  0  0  0  0  0  0
   83.6017  214.8284  314.1068 C   0  0  0  0  0  0  0  0  0  0  0  0
   84.1209  214.3425  312.7476 C   0  0  0  0  0  0  0  0  0  0  0  0
   83.6128  215.1800  311.5682 C   0  0  0  0  0  0  0  0  0  0  0  0
   84.7063  215.3783  310.5185 C   0  0  0  0  0  0  0  0  0  0  0  0
   85.6770  216.5108  310.8683 C   0  0  0  0  0  0  0  0  0  0  0  0
   86.6649  216.9033  309.7688 C   0  0  0  0  0  0  0  0  0  0  0  0
   87.5785  218.0565  310.1508 C   0  0  0  0  0  0  0  0  0  0  0  0
  1  6  1  0
  1 27  1  6
  1 30  1  0
  3  2  1  1
  2 31  1  0
  3  4  1  0
 30  3  1  0
  5  4  1  0
  4 32  1  1
  6  5  1  0
  5 29  1  1
  6 28  1  6
  8  7  1  0
  9  8  1  0
 10  9  1  0
 11 10  1  0
 12 11  1  0
 13 12  1  0
 14 13  1  0
 15 14  1  0
 16 15  1  0
 17 16  1  0
 18 17  1  0
 19 18  1  0
 20 19  1  0
 21 20  1  0
 21 22  1  1
 23 21  1  0
 23 24  1  6
 25 23  1  0
 25 26  1  1
 25 37  1  0
 26 27  1  0
 32 33  1  0
 34 33  1  6
 34 35  1  0
 34 36  1  0
 35 36  1  0
 37 38  1  0
 38 39  2  0
 38 40  1  0
 40 41  1  0
 41 42  1  0
 42 43  1  0
 43 44  1  0
 44 45  1  0
 45 46  1  0
 46 47  1  0
 47 48  1  0
 48 49  1  0
 49 50  1  0
 50 51  1  0
 51 52  1  0
 52 53  1  0
 53 54  1  0
 54 55  1  0
 55 56  1  0
 56 57  1  0
 57 58  1  0
 58 59  1  0
 59 60  1  0
 60 61  1  0
 61 62  1  0
 62 63  1  0
 63 64  1  0
M  END
$$$$
