
     RDKit          3D

 64 65  0  0  0  0  0  0  0  0999 V2000
   97.1737  219.0759  322.7838 C   0  0  1  0  0  0  0  0  0  0  0  0
   96.4649  221.0208  325.0274 C   0  0  0  0  0  0  0  0  0  0  0  0
   95.9817  219.5656  324.8167 C   0  0  2  0  0  0  0  0  0  0  0  0
   96.7269  218.4542  325.5821 C   0  0  1  0  0  0  0  0  0  0  0  0
   98.1170  218.2124  324.9716 C   0  0  1  0  0  0  0  0  0  0  0  0
   97.9960  217.9562  323.4711 C   0  0  1  0  0  0  0  0  0  0  0  0
   81.4415  224.0524  310.5429 C   0  0  0  0  0  0  0  0  0  0  0  0
   81.6660  222.7264  311.2492 C   0  0  0  0  0  0  0  0  0  0  0  0
   81.4468  222.7817  312.7657 C   0  0  0  0  0  0  0  0  0  0  0  0
   81.7996  221.4814  313.5006 C   0  0  0  0  0  0  0  0  0  0  0  0
   83.2931  221.3641  313.8308 C   0  0  0  0  0  0  0  0  0  0  0  0
   83.6619  220.0491  314.5288 C   0  0  0  0  0  0  0  0  0  0  0  0
   85.1602  219.8043  314.7269 C   0  0  0  0  0  0  0  0  0  0  0  0
   85.6018  218.3778  314.3826 C   0  0  0  0  0  0  0  0  0  0  0  0
   87.1163  218.2363  314.5444 C   0  0  0  0  0  0  0  0  0  0  0  0
   87.5020  217.7249  315.9377 C   0  0  0  0  0  0  0  0  0  0  0  0
   89.0205  217.5335  316.0634 C   0  0  0  0  0  0  0  0  0  0  0  0
   89.6088  218.3223  317.2438 C   0  0  0  0  0  0  0  0  0  0  0  0
   91.1027  218.6217  317.0531 C   0  0  0  0  0  0  0  0  0  0  0  0
   91.7501  219.1665  318.3339 C   0  0  0  0  0  0  0  0  0  0  0  0
   93.1929  219.6729  318.1746 C   0  0  1  0  0  0  0  0  0  0  0  0
   93.1603  220.8015  317.2721 O   0  0  0  0  0  0  0  0  0  0  0  0
   93.9579  220.1435  319.4323 C   0  0  1  0  0  0  0  0  0  0  0  0
   93.0506  220.7809  320.3462 O   0  0  0  0  0  0  0  0  0  0  0  0
   94.8210  219.0649  320.1449 C   0  0  2  0  0  0  0  0  0  0  0  0
   96.1978  219.5806  320.6262 C   0  0  0  0  0  0  0  0  0  0  0  0
   96.9326  218.6455  321.4368 O   0  0  0  0  0  0  0  0  0  0  0  0
   97.3644  216.6780  323.2548 O   0  0  0  0  0  0  0  0  0  0  0  0
   98.9725  219.3341  325.2160 O   0  0  0  0  0  0  0  0  0  0  0  0
   95.8977  219.2427  323.4194 O   0  0  0  0  0  0  0  0  0  0  0  0
   95.6592  222.0182  324.4189 O   0  0  0  0  0  0  0  0  0  0  0  0
   96.8713  218.7897  326.9688 O   0  0  0  0  0  0  0  0  0  0  0  0
   96.7567  217.6722  327.8473 C   0  0  0  0  0  0  0  0  0  0  0  0
   98.1174  217.2128  328.2545 C   0  0  2  0  0  0  0  0  0  0  0  0
   98.3328  216.3689  329.4850 C   0  0  0  0  0  0  0  0  0  0  0  0
   98.7776  217.8054  329.4735 C   0  0  0  0  0  0  0  0  0  0  0  0
   95.0311  217.9103  319.2561 N   0  0  0  0  0  0  0  0  0  0  0  0
   93.9563  217.1714  318.8083 C   0  0  0  0  0  0  0  0  0  0  0  0
   92.7891  217.4924  319.0165 O   0  0  0  0  0  0  0  0  0  0  0  0
   94.3514  215.9291  318.0339 C   0  0  0  0  0  0  0  0  0  0  0  0
   94.1449  214.6719  318.8745 C   0  0  0  0  0  0  0  0  0  0  0  0
   92.6731  214.4794  319.2418 C   0  0  0  0  0  0  0  0  0  0  0  0
   92.3986  213.1789  320.0076 C   0  0  0  0  0  0  0  0  0  0  0  0
   90.9114  212.9691  320.3083 C   0  0  0  0  0  0  0  0  0  0  0  0
   90.3375  211.6864  319.6974 C   0  0  0  0  0  0  0  0  0  0  0  0
   88.8591  211.4631  320.0271 C   0  0  0  0  0  0  0  0  0  0  0  0
   88.4778  209.9916  319.8500 C   0  0  0  0  0  0  0  0  0  0  0  0
   87.2731  209.8194  318.9204 C   0  0  0  0  0  0  0  0  0  0  0  0
   86.9185  208.3396  318.7707 C   0  0  0  0  0  0  0  0  0  0  0  0
   86.8121  207.5785  320.0958 C   0  0  0  0  0  0  0  0  0  0  0  0
   86.0922  206.2263  320.0469 C   0  0  0  0  0  0  0  0  0  0  0  0
   86.3230  205.3505  321.2790 C   0  0  0  0  0  0  0  0  0  0  0  0
   85.2221  205.5507  322.3265 C   0  0  0  0  0  0  0  0  0  0  0  0
   84.2350  204.3825  322.3087 C   0  0  0  0  0  0  0  0  0  0  0  0
   83.2222  204.3869  323.4571 C   0  0  0  0  0  0  0  0  0  0  0  0
   83.7321  204.8792  324.8180 C   0  0  0  0  0  0  0  0  0  0  0  0
   83.1490  204.1826  326.0505 C   0  0  0  0  0  0  0  0  0  0  0  0
   83.2800  204.9845  327.3468 C   0  0  0  0  0  0  0  0  0  0  0  0
   81.9431  205.5809  327.8050 C   0  0  0  0  0  0  0  0  0  0  0  0
   82.0368  207.0635  328.1837 C   0  0  0  0  0  0  0  0  0  0  0  0
   81.9008  207.2586  329.6938 C   0  0  0  0  0  0  0  0  0  0  0  0
   82.8176  208.3563  330.2430 C   0  0  0  0  0  0  0  0  0  0  0  0
   82.1152  209.5231  330.9385 C   0  0  0  0  0  0  0  0  0  0  0  0
   81.3830  210.4526  329.9843 C   0  0  0  0  0  0  0  0  0  0  0  0
  1  6  1  0
  1 27  1  6
  1 30  1  0
  3  2  1  6
  2 31  1  0
  3  4  1  0
 30  3  1  0
  5  4  1  0
  4 32  1  1
  6  5  1  0
  5 29  1  6
  6 28  1  1
  8  7  1  0
  9  8  1  0
 10  9  1  0
 11 10  1  0
 12 11  1  0
 13 12  1  0
 14 13  1  0
 15 14  1  0
 16 15  1  0
 17 16  1  0
 18 17  1  0
 19 18  1  0
 20 19  1  0
 21 20  1  0
 21 22  1  6
 23 21  1  0
 23 24  1  1
 25 23  1  0
 25 26  1  6
 25 37  1  0
 26 27  1  0
 32 33  1  0
 34 33  1  1
 34 35  1  0
 34 36  1  0
 35 36  1  0
 37 38  1  0
 38 39  2  0
 38 40  1  0
 40 41  1  0
 41 42  1  0
 42 43  1  0
 43 44  1  0
 44 45  1  0
 45 46  1  0
 46 47  1  0
 47 48  1  0
 48 49  1  0
 49 50  1  0
 50 51  1  0
 51 52  1  0
 52 53  1  0
 53 54  1  0
 54 55  1  0
 55 56  1  0
 56 57  1  0
 57 58  1  0
 58 59  1  0
 59 60  1  0
 60 61  1  0
 61 62  1  0
 62 63  1  0
 63 64  1  0
M  END
$$$$
