
     RDKit          3D

 64 65  0  0  0  0  0  0  0  0999 V2000
   98.3290  219.0801  321.2319 C   0  0  1  0  0  0  0  0  0  0  0  0
  100.3360  221.2868  320.5831 C   0  0  0  0  0  0  0  0  0  0  0  0
   99.2604  221.2506  321.6953 C   0  0  2  0  0  0  0  0  0  0  0  0
   99.7117  220.8131  323.1030 C   0  0  1  0  0  0  0  0  0  0  0  0
   99.9803  219.3000  323.1414 C   0  0  1  0  0  0  0  0  0  0  0  0
   98.7673  218.5360  322.6154 C   0  0  1  0  0  0  0  0  0  0  0  0
   81.1239  220.3457  316.5833 C   0  0  0  0  0  0  0  0  0  0  0  0
   81.8690  219.4007  317.5101 C   0  0  0  0  0  0  0  0  0  0  0  0
   80.9628  218.4143  318.2563 C   0  0  0  0  0  0  0  0  0  0  0  0
   81.7119  217.4521  319.1881 C   0  0  0  0  0  0  0  0  0  0  0  0
   82.8266  216.6735  318.4777 C   0  0  0  0  0  0  0  0  0  0  0  0
   83.5401  215.6646  319.3862 C   0  0  0  0  0  0  0  0  0  0  0  0
   85.0282  215.9315  319.6284 C   0  0  0  0  0  0  0  0  0  0  0  0
   85.2966  217.0885  320.5968 C   0  0  0  0  0  0  0  0  0  0  0  0
   86.1030  218.1872  319.9021 C   0  0  0  0  0  0  0  0  0  0  0  0
   87.3105  218.6312  320.7366 C   0  0  0  0  0  0  0  0  0  0  0  0
   88.6268  218.1203  320.1326 C   0  0  0  0  0  0  0  0  0  0  0  0
   89.7360  219.1830  320.1761 C   0  0  0  0  0  0  0  0  0  0  0  0
   91.0230  218.7055  319.4881 C   0  0  0  0  0  0  0  0  0  0  0  0
   92.1335  219.7638  319.5431 C   0  0  0  0  0  0  0  0  0  0  0  0
   93.5071  219.2994  319.0323 C   0  0  1  0  0  0  0  0  0  0  0  0
   93.7271  219.9239  317.7475 O   0  0  0  0  0  0  0  0  0  0  0  0
   94.7590  219.6059  319.8852 C   0  0  1  0  0  0  0  0  0  0  0  0
   95.0921  220.9998  319.7806 O   0  0  0  0  0  0  0  0  0  0  0  0
   94.7002  219.1433  321.3679 C   0  0  2  0  0  0  0  0  0  0  0  0
   96.0514  218.6300  321.9191 C   0  0  0  0  0  0  0  0  0  0  0  0
   97.0740  218.4586  320.9210 O   0  0  0  0  0  0  0  0  0  0  0  0
   97.6824  218.6561  323.5579 O   0  0  0  0  0  0  0  0  0  0  0  0
  101.1422  218.9785  322.3691 O   0  0  0  0  0  0  0  0  0  0  0  0
   98.1092  220.4975  321.2811 O   0  0  0  0  0  0  0  0  0  0  0  0
  100.4481  222.5215  319.8921 O   0  0  0  0  0  0  0  0  0  0  0  0
  100.8958  221.5141  323.5065 O   0  0  0  0  0  0  0  0  0  0  0  0
  101.8781  221.6257  322.4787 C   0  0  0  0  0  0  0  0  0  0  0  0
  102.8215  222.7357  322.8050 C   0  0  2  0  0  0  0  0  0  0  0  0
  102.9808  223.9311  321.9006 C   0  0  0  0  0  0  0  0  0  0  0  0
  104.0827  222.9123  321.9978 C   0  0  0  0  0  0  0  0  0  0  0  0
   93.6883  218.0869  321.5332 N   0  0  0  0  0  0  0  0  0  0  0  0
   93.5282  217.4601  322.7511 C   0  0  0  0  0  0  0  0  0  0  0  0
   93.3735  218.0725  323.8045 O   0  0  0  0  0  0  0  0  0  0  0  0
   93.5585  215.9465  322.6660 C   0  0  0  0  0  0  0  0  0  0  0  0
   92.4226  215.3303  323.4782 C   0  0  0  0  0  0  0  0  0  0  0  0
   91.1212  215.2855  322.6766 C   0  0  0  0  0  0  0  0  0  0  0  0
   89.8640  215.2310  323.5536 C   0  0  0  0  0  0  0  0  0  0  0  0
   89.2787  213.8198  323.6658 C   0  0  0  0  0  0  0  0  0  0  0  0
   89.0293  213.1500  322.3105 C   0  0  0  0  0  0  0  0  0  0  0  0
   88.2842  211.8167  322.4178 C   0  0  0  0  0  0  0  0  0  0  0  0
   87.2451  211.6822  321.3022 C   0  0  0  0  0  0  0  0  0  0  0  0
   87.6899  210.6934  320.2208 C   0  0  0  0  0  0  0  0  0  0  0  0
   86.5326  210.3803  319.2717 C   0  0  0  0  0  0  0  0  0  0  0  0
   85.1939  210.1252  319.9707 C   0  0  0  0  0  0  0  0  0  0  0  0
   84.0340  209.6767  319.0749 C   0  0  0  0  0  0  0  0  0  0  0  0
   82.9072  208.9624  319.8221 C   0  0  0  0  0  0  0  0  0  0  0  0
   83.4016  207.6732  320.4878 C   0  0  0  0  0  0  0  0  0  0  0  0
   82.2692  206.9877  321.2542 C   0  0  0  0  0  0  0  0  0  0  0  0
   82.7296  205.9171  322.2475 C   0  0  0  0  0  0  0  0  0  0  0  0
   82.5966  204.4579  321.7920 C   0  0  0  0  0  0  0  0  0  0  0  0
   83.4709  203.4381  322.5268 C   0  0  0  0  0  0  0  0  0  0  0  0
   82.7234  202.1852  322.9876 C   0  0  0  0  0  0  0  0  0  0  0  0
   83.0174  201.8321  324.4511 C   0  0  0  0  0  0  0  0  0  0  0  0
   82.2373  200.6102  324.9500 C   0  0  0  0  0  0  0  0  0  0  0  0
   83.0710  199.7834  325.9290 C   0  0  0  0  0  0  0  0  0  0  0  0
   82.2555  198.7080  326.6540 C   0  0  0  0  0  0  0  0  0  0  0  0
   83.0436  197.8005  327.5994 C   0  0  0  0  0  0  0  0  0  0  0  0
   82.1806  196.7914  328.3393 C   0  0  0  0  0  0  0  0  0  0  0  0
  1  6  1  0
  1 27  1  1
  1 30  1  0
  3  2  1  6
  2 31  1  0
  3  4  1  0
 30  3  1  0
  5  4  1  0
  4 32  1  6
  6  5  1  0
  5 29  1  6
  6 28  1  1
  8  7  1  0
  9  8  1  0
 10  9  1  0
 11 10  1  0
 12 11  1  0
 13 12  1  0
 14 13  1  0
 15 14  1  0
 16 15  1  0
 17 16  1  0
 18 17  1  0
 19 18  1  0
 20 19  1  0
 21 20  1  0
 21 22  1  6
 23 21  1  0
 23 24  1  1
 25 23  1  0
 25 26  1  6
 25 37  1  0
 26 27  1  0
 32 33  1  0
 34 33  1  6
 34 35  1  0
 34 36  1  0
 35 36  1  0
 37 38  1  0
 38 39  2  0
 38 40  1  0
 40 41  1  0
 41 42  1  0
 42 43  1  0
 43 44  1  0
 44 45  1  0
 45 46  1  0
 46 47  1  0
 47 48  1  0
 48 49  1  0
 49 50  1  0
 50 51  1  0
 51 52  1  0
 52 53  1  0
 53 54  1  0
 54 55  1  0
 55 56  1  0
 56 57  1  0
 57 58  1  0
 58 59  1  0
 59 60  1  0
 60 61  1  0
 61 62  1  0
 62 63  1  0
 63 64  1  0
M  END
$$$$
