
     RDKit          3D

 64 65  0  0  0  0  0  0  0  0999 V2000
   97.4802  218.4544  323.9965 C   0  0  1  0  0  0  0  0  0  0  0  0
   99.0266  215.8233  324.0616 C   0  0  0  0  0  0  0  0  0  0  0  0
   97.9431  216.2868  323.0583 C   0  0  2  0  0  0  0  0  0  0  0  0
   98.4252  216.9069  321.7319 C   0  0  1  0  0  0  0  0  0  0  0  0
   98.9892  218.3179  321.9653 C   0  0  1  0  0  0  0  0  0  0  0  0
   97.9715  219.1746  322.7150 C   0  0  1  0  0  0  0  0  0  0  0  0
   80.3670  211.7027  321.9704 C   0  0  0  0  0  0  0  0  0  0  0  0
   81.6154  212.5679  321.9836 C   0  0  0  0  0  0  0  0  0  0  0  0
   81.5558  213.7648  321.0271 C   0  0  0  0  0  0  0  0  0  0  0  0
   82.8526  214.5830  320.9609 C   0  0  0  0  0  0  0  0  0  0  0  0
   82.7699  215.7621  319.9831 C   0  0  0  0  0  0  0  0  0  0  0  0
   83.4944  217.0191  320.4809 C   0  0  0  0  0  0  0  0  0  0  0  0
   84.8383  217.3158  319.8100 C   0  0  0  0  0  0  0  0  0  0  0  0
   85.9267  217.7727  320.7874 C   0  0  0  0  0  0  0  0  0  0  0  0
   87.2229  218.0784  320.0349 C   0  0  0  0  0  0  0  0  0  0  0  0
   87.8640  219.3913  320.5007 C   0  0  0  0  0  0  0  0  0  0  0  0
   89.2151  219.6303  319.8110 C   0  0  0  0  0  0  0  0  0  0  0  0
   90.1015  220.6103  320.5956 C   0  0  0  0  0  0  0  0  0  0  0  0
   91.5065  220.0450  320.8487 C   0  0  0  0  0  0  0  0  0  0  0  0
   92.5129  221.1440  321.2171 C   0  0  0  0  0  0  0  0  0  0  0  0
   93.9380  220.6529  321.5193 C   0  0  1  0  0  0  0  0  0  0  0  0
   94.8576  221.6319  320.9854 O   0  0  0  0  0  0  0  0  0  0  0  0
   94.3492  220.4274  322.9919 C   0  0  1  0  0  0  0  0  0  0  0  0
   93.7787  221.4530  323.8210 O   0  0  0  0  0  0  0  0  0  0  0  0
   94.0701  219.0098  323.5651 C   0  0  2  0  0  0  0  0  0  0  0  0
   95.1314  218.5234  324.5802 C   0  0  0  0  0  0  0  0  0  0  0  0
   96.3857  219.2258  324.5114 O   0  0  0  0  0  0  0  0  0  0  0  0
   96.8534  219.4552  321.8484 O   0  0  0  0  0  0  0  0  0  0  0  0
  100.2171  218.2508  322.6983 O   0  0  0  0  0  0  0  0  0  0  0  0
   96.9801  217.1441  323.6921 O   0  0  0  0  0  0  0  0  0  0  0  0
   98.6138  214.8173  324.9736 O   0  0  0  0  0  0  0  0  0  0  0  0
   99.4312  216.0914  321.1162 O   0  0  0  0  0  0  0  0  0  0  0  0
  100.7634  216.4433  321.4840 C   0  0  0  0  0  0  0  0  0  0  0  0
  101.6499  215.2486  321.3619 C   0  0  2  0  0  0  0  0  0  0  0  0
  102.9139  215.1143  322.1722 C   0  0  0  0  0  0  0  0  0  0  0  0
  102.9952  215.3756  320.6934 C   0  0  0  0  0  0  0  0  0  0  0  0
   93.9732  218.0276  322.4729 N   0  0  0  0  0  0  0  0  0  0  0  0
   93.5096  216.7529  322.7216 C   0  0  0  0  0  0  0  0  0  0  0  0
   93.9568  216.0399  323.6162 O   0  0  0  0  0  0  0  0  0  0  0  0
   92.3959  216.3170  321.7895 C   0  0  0  0  0  0  0  0  0  0  0  0
   91.2652  215.6458  322.5648 C   0  0  0  0  0  0  0  0  0  0  0  0
   91.5582  214.1658  322.8132 C   0  0  0  0  0  0  0  0  0  0  0  0
   90.2978  213.3234  323.0469 C   0  0  0  0  0  0  0  0  0  0  0  0
   90.5982  211.8263  323.1698 C   0  0  0  0  0  0  0  0  0  0  0  0
   90.1033  211.0019  321.9768 C   0  0  0  0  0  0  0  0  0  0  0  0
   88.6881  210.4482  322.1641 C   0  0  0  0  0  0  0  0  0  0  0  0
   88.0550  210.1040  320.8139 C   0  0  0  0  0  0  0  0  0  0  0  0
   87.2905  211.2906  320.2202 C   0  0  0  0  0  0  0  0  0  0  0  0
   87.2833  211.2138  318.6929 C   0  0  0  0  0  0  0  0  0  0  0  0
   86.5914  212.3944  318.0046 C   0  0  0  0  0  0  0  0  0  0  0  0
   85.1224  212.1902  317.6186 C   0  0  0  0  0  0  0  0  0  0  0  0
   84.3424  213.4902  317.4182 C   0  0  0  0  0  0  0  0  0  0  0  0
   82.8840  213.2181  317.0327 C   0  0  0  0  0  0  0  0  0  0  0  0
   82.6949  213.3125  315.5178 C   0  0  0  0  0  0  0  0  0  0  0  0
   81.9953  214.5887  315.0417 C   0  0  0  0  0  0  0  0  0  0  0  0
   81.9277  214.8072  313.5245 C   0  0  0  0  0  0  0  0  0  0  0  0
   81.9898  216.2609  313.0476 C   0  0  0  0  0  0  0  0  0  0  0  0
   83.3417  216.9401  313.2747 C   0  0  0  0  0  0  0  0  0  0  0  0
   83.2721  218.4612  313.0901 C   0  0  0  0  0  0  0  0  0  0  0  0
   84.5221  219.1923  313.5938 C   0  0  0  0  0  0  0  0  0  0  0  0
   85.0223  220.2063  312.5649 C   0  0  0  0  0  0  0  0  0  0  0  0
   85.8192  219.5632  311.4254 C   0  0  0  0  0  0  0  0  0  0  0  0
   86.5540  220.5325  310.4984 C   0  0  0  0  0  0  0  0  0  0  0  0
   87.4134  219.8438  309.4507 C   0  0  0  0  0  0  0  0  0  0  0  0
  1  6  1  0
  1 27  1  6
  1 30  1  0
  3  2  1  1
  2 31  1  0
  3  4  1  0
 30  3  1  0
  5  4  1  0
  4 32  1  1
  6  5  1  0
  5 29  1  1
  6 28  1  6
  8  7  1  0
  9  8  1  0
 10  9  1  0
 11 10  1  0
 12 11  1  0
 13 12  1  0
 14 13  1  0
 15 14  1  0
 16 15  1  0
 17 16  1  0
 18 17  1  0
 19 18  1  0
 20 19  1  0
 21 20  1  0
 21 22  1  1
 23 21  1  0
 23 24  1  1
 25 23  1  0
 25 26  1  1
 25 37  1  0
 26 27  1  0
 32 33  1  0
 34 33  1  1
 34 35  1  0
 34 36  1  0
 35 36  1  0
 37 38  1  0
 38 39  2  0
 38 40  1  0
 40 41  1  0
 41 42  1  0
 42 43  1  0
 43 44  1  0
 44 45  1  0
 45 46  1  0
 46 47  1  0
 47 48  1  0
 48 49  1  0
 49 50  1  0
 50 51  1  0
 51 52  1  0
 52 53  1  0
 53 54  1  0
 54 55  1  0
 55 56  1  0
 56 57  1  0
 57 58  1  0
 58 59  1  0
 59 60  1  0
 60 61  1  0
 61 62  1  0
 62 63  1  0
 63 64  1  0
M  END
$$$$
