
     RDKit          3D

 64 65  0  0  0  0  0  0  0  0999 V2000
   92.0030  216.7678  322.3647 C   0  0  1  0  0  0  0  0  0  0  0  0
   94.3918  217.9778  320.8990 C   0  0  0  0  0  0  0  0  0  0  0  0
   92.9370  217.8006  320.4014 C   0  0  2  0  0  0  0  0  0  0  0  0
   91.9930  219.0128  320.5272 C   0  0  1  0  0  0  0  0  0  0  0  0
   91.5948  219.2412  321.9944 C   0  0  1  0  0  0  0  0  0  0  0  0
   91.0327  217.9544  322.5942 C   0  0  1  0  0  0  0  0  0  0  0  0
   94.5318  204.4854  328.8502 C   0  0  0  0  0  0  0  0  0  0  0  0
   93.6556  205.5291  328.1792 C   0  0  0  0  0  0  0  0  0  0  0  0
   92.2812  205.0054  327.7458 C   0  0  0  0  0  0  0  0  0  0  0  0
   91.1159  205.5044  328.6108 C   0  0  0  0  0  0  0  0  0  0  0  0
   89.7507  204.9936  328.1325 C   0  0  0  0  0  0  0  0  0  0  0  0
   88.7408  206.1157  327.8610 C   0  0  0  0  0  0  0  0  0  0  0  0
   87.5260  206.1501  328.7922 C   0  0  0  0  0  0  0  0  0  0  0  0
   86.5335  207.2719  328.4682 C   0  0  0  0  0  0  0  0  0  0  0  0
   86.6708  207.6973  327.0053 C   0  0  0  0  0  0  0  0  0  0  0  0
   85.5743  208.6842  326.5866 C   0  0  0  0  0  0  0  0  0  0  0  0
   85.7881  209.1822  325.1497 C   0  0  0  0  0  0  0  0  0  0  0  0
   85.6968  210.7128  325.0467 C   0  0  0  0  0  0  0  0  0  0  0  0
   86.9006  211.4099  325.6969 C   0  0  0  0  0  0  0  0  0  0  0  0
   88.0576  211.6060  324.7074 C   0  0  0  0  0  0  0  0  0  0  0  0
   88.1410  213.0001  324.0648 C   0  0  1  0  0  0  0  0  0  0  0  0
   87.5721  213.9445  324.9996 O   0  0  0  0  0  0  0  0  0  0  0  0
   89.5293  213.5564  323.6750 C   0  0  1  0  0  0  0  0  0  0  0  0
   90.5586  212.8271  324.3630 O   0  0  0  0  0  0  0  0  0  0  0  0
   89.8190  213.6510  322.1508 C   0  0  2  0  0  0  0  0  0  0  0  0
   90.5221  214.9619  321.7261 C   0  0  0  0  0  0  0  0  0  0  0  0
   91.3056  215.5793  322.7635 O   0  0  0  0  0  0  0  0  0  0  0  0
   89.7532  217.6674  321.9939 O   0  0  0  0  0  0  0  0  0  0  0  0
   92.7217  219.6917  322.7541 O   0  0  0  0  0  0  0  0  0  0  0  0
   92.3304  216.6309  320.9740 O   0  0  0  0  0  0  0  0  0  0  0  0
   95.2408  216.8595  320.6919 O   0  0  0  0  0  0  0  0  0  0  0  0
   92.6083  220.2018  320.0135 O   0  0  0  0  0  0  0  0  0  0  0  0
   93.0089  220.1001  318.6487 C   0  0  0  0  0  0  0  0  0  0  0  0
   92.0403  220.8380  317.7852 C   0  0  2  0  0  0  0  0  0  0  0  0
   91.0150  220.1156  316.9490 C   0  0  0  0  0  0  0  0  0  0  0  0
   92.1830  220.7912  316.2850 C   0  0  0  0  0  0  0  0  0  0  0  0
   88.5698  213.5128  321.3842 N   0  0  0  0  0  0  0  0  0  0  0  0
   88.2801  212.3331  320.7316 C   0  0  0  0  0  0  0  0  0  0  0  0
   88.9395  211.3071  320.8774 O   0  0  0  0  0  0  0  0  0  0  0  0
   87.0710  212.4217  319.8208 C   0  0  0  0  0  0  0  0  0  0  0  0
   87.3401  211.7322  318.4860 C   0  0  0  0  0  0  0  0  0  0  0  0
   86.8168  212.5607  317.3122 C   0  0  0  0  0  0  0  0  0  0  0  0
   87.5038  213.9250  317.1718 C   0  0  0  0  0  0  0  0  0  0  0  0
   86.9141  214.7735  316.0410 C   0  0  0  0  0  0  0  0  0  0  0  0
   85.3828  214.8259  316.0484 C   0  0  0  0  0  0  0  0  0  0  0  0
   84.7873  215.4182  314.7682 C   0  0  0  0  0  0  0  0  0  0  0  0
   85.2857  216.8482  314.5466 C   0  0  0  0  0  0  0  0  0  0  0  0
   84.7617  217.4412  313.2356 C   0  0  0  0  0  0  0  0  0  0  0  0
   85.1943  218.9013  313.0967 C   0  0  0  0  0  0  0  0  0  0  0  0
   84.6883  219.5917  311.8264 C   0  0  0  0  0  0  0  0  0  0  0  0
   85.4165  220.8759  311.4149 C   0  0  0  0  0  0  0  0  0  0  0  0
   86.1299  220.7849  310.0655 C   0  0  0  0  0  0  0  0  0  0  0  0
   85.3123  221.4465  308.9504 C   0  0  0  0  0  0  0  0  0  0  0  0
   85.8675  222.8324  308.6176 C   0  0  0  0  0  0  0  0  0  0  0  0
   85.8322  223.8285  309.7799 C   0  0  0  0  0  0  0  0  0  0  0  0
   86.4959  225.1902  309.5353 C   0  0  0  0  0  0  0  0  0  0  0  0
   86.5481  226.1417  310.7338 C   0  0  0  0  0  0  0  0  0  0  0  0
   87.9091  226.8060  310.9505 C   0  0  0  0  0  0  0  0  0  0  0  0
   88.6778  226.1967  312.1297 C   0  0  0  0  0  0  0  0  0  0  0  0
   90.1497  226.6224  312.1809 C   0  0  0  0  0  0  0  0  0  0  0  0
   90.6537  227.0389  310.7990 C   0  0  0  0  0  0  0  0  0  0  0  0
   92.1327  227.4387  310.7939 C   0  0  0  0  0  0  0  0  0  0  0  0
   92.4728  228.7184  310.0288 C   0  0  0  0  0  0  0  0  0  0  0  0
   93.9546  229.0573  310.0323 C   0  0  0  0  0  0  0  0  0  0  0  0
  1  6  1  0
  1 27  1  6
  1 30  1  0
  3  2  1  1
  2 31  1  0
  3  4  1  0
 30  3  1  0
  5  4  1  0
  4 32  1  1
  6  5  1  0
  5 29  1  1
  6 28  1  6
  8  7  1  0
  9  8  1  0
 10  9  1  0
 11 10  1  0
 12 11  1  0
 13 12  1  0
 14 13  1  0
 15 14  1  0
 16 15  1  0
 17 16  1  0
 18 17  1  0
 19 18  1  0
 20 19  1  0
 21 20  1  0
 21 22  1  1
 23 21  1  0
 23 24  1  1
 25 23  1  0
 25 26  1  1
 25 37  1  0
 26 27  1  0
 32 33  1  0
 34 33  1  1
 34 35  1  0
 34 36  1  0
 35 36  1  0
 37 38  1  0
 38 39  2  0
 38 40  1  0
 40 41  1  0
 41 42  1  0
 42 43  1  0
 43 44  1  0
 44 45  1  0
 45 46  1  0
 46 47  1  0
 47 48  1  0
 48 49  1  0
 49 50  1  0
 50 51  1  0
 51 52  1  0
 52 53  1  0
 53 54  1  0
 54 55  1  0
 55 56  1  0
 56 57  1  0
 57 58  1  0
 58 59  1  0
 59 60  1  0
 60 61  1  0
 61 62  1  0
 62 63  1  0
 63 64  1  0
M  END
$$$$
