
     RDKit          3D

 64 65  0  0  0  0  0  0  0  0999 V2000
   91.7777  217.6581  321.8969 C   0  0  1  0  0  0  0  0  0  0  0  0
   93.2675  216.5139  324.3031 C   0  0  0  0  0  0  0  0  0  0  0  0
   93.6624  216.4697  322.8073 C   0  0  2  0  0  0  0  0  0  0  0  0
   94.6479  217.5426  322.3031 C   0  0  1  0  0  0  0  0  0  0  0  0
   93.9573  218.9128  322.2082 C   0  0  1  0  0  0  0  0  0  0  0  0
   92.6822  218.8035  321.3752 C   0  0  1  0  0  0  0  0  0  0  0  0
   88.7989  228.3461  306.5935 C   0  0  0  0  0  0  0  0  0  0  0  0
   87.9708  227.4418  307.4901 C   0  0  0  0  0  0  0  0  0  0  0  0
   87.7160  226.0472  306.9060 C   0  0  0  0  0  0  0  0  0  0  0  0
   86.9178  225.1149  307.8275 C   0  0  0  0  0  0  0  0  0  0  0  0
   86.6094  223.7559  307.1862 C   0  0  0  0  0  0  0  0  0  0  0  0
   87.3343  222.5846  307.8607 C   0  0  0  0  0  0  0  0  0  0  0  0
   87.1574  222.4845  309.3782 C   0  0  0  0  0  0  0  0  0  0  0  0
   87.9147  221.3117  310.0103 C   0  0  0  0  0  0  0  0  0  0  0  0
   88.6021  221.7569  311.3023 C   0  0  0  0  0  0  0  0  0  0  0  0
   87.6468  221.7320  312.5017 C   0  0  0  0  0  0  0  0  0  0  0  0
   87.8132  220.4453  313.3233 C   0  0  0  0  0  0  0  0  0  0  0  0
   86.8930  220.4198  314.5539 C   0  0  0  0  0  0  0  0  0  0  0  0
   87.0758  219.1433  315.3874 C   0  0  0  0  0  0  0  0  0  0  0  0
   88.0691  219.3442  316.5403 C   0  0  0  0  0  0  0  0  0  0  0  0
   88.8734  218.0957  316.9374 C   0  0  1  0  0  0  0  0  0  0  0  0
   89.7920  217.8090  315.8588 O   0  0  0  0  0  0  0  0  0  0  0  0
   89.7196  218.1374  318.2300 C   0  0  1  0  0  0  0  0  0  0  0  0
   90.9117  218.9086  318.0089 O   0  0  0  0  0  0  0  0  0  0  0  0
   88.9742  218.5954  319.5147 C   0  0  2  0  0  0  0  0  0  0  0  0
   89.8674  218.6374  320.7771 C   0  0  0  0  0  0  0  0  0  0  0  0
   90.7243  217.4923  320.9373 O   0  0  0  0  0  0  0  0  0  0  0  0
   93.0320  218.5655  319.9965 O   0  0  0  0  0  0  0  0  0  0  0  0
   93.6544  219.4118  323.5156 O   0  0  0  0  0  0  0  0  0  0  0  0
   92.5004  216.4200  321.9639 O   0  0  0  0  0  0  0  0  0  0  0  0
   92.5237  215.3965  324.7640 O   0  0  0  0  0  0  0  0  0  0  0  0
   95.7862  217.6458  323.1690 O   0  0  0  0  0  0  0  0  0  0  0  0
   97.0046  217.2029  322.5748 C   0  0  0  0  0  0  0  0  0  0  0  0
   97.6328  218.3277  321.8206 C   0  0  2  0  0  0  0  0  0  0  0  0
   98.5118  218.0830  320.6206 C   0  0  0  0  0  0  0  0  0  0  0  0
   99.1202  218.5562  321.9120 C   0  0  0  0  0  0  0  0  0  0  0  0
   87.8226  217.7167  319.7774 N   0  0  0  0  0  0  0  0  0  0  0  0
   87.8311  216.4084  319.3415 C   0  0  0  0  0  0  0  0  0  0  0  0
   88.5070  215.5301  319.8710 O   0  0  0  0  0  0  0  0  0  0  0  0
   86.9266  216.1572  318.1507 C   0  0  0  0  0  0  0  0  0  0  0  0
   85.6517  215.4333  318.5754 C   0  0  0  0  0  0  0  0  0  0  0  0
   85.9638  214.2046  319.4305 C   0  0  0  0  0  0  0  0  0  0  0  0
   84.7166  213.4101  319.8381 C   0  0  0  0  0  0  0  0  0  0  0  0
   85.0444  211.9888  320.3059 C   0  0  0  0  0  0  0  0  0  0  0  0
   84.1042  211.4713  321.3996 C   0  0  0  0  0  0  0  0  0  0  0  0
   84.8352  211.0105  322.6635 C   0  0  0  0  0  0  0  0  0  0  0  0
   84.8723  209.4827  322.7448 C   0  0  0  0  0  0  0  0  0  0  0  0
   86.3035  208.9406  322.6935 C   0  0  0  0  0  0  0  0  0  0  0  0
   86.8663  208.7776  324.1060 C   0  0  0  0  0  0  0  0  0  0  0  0
   87.5681  207.4393  324.3556 C   0  0  0  0  0  0  0  0  0  0  0  0
   86.6587  206.2301  324.5999 C   0  0  0  0  0  0  0  0  0  0  0  0
   87.4091  204.9106  324.7837 C   0  0  0  0  0  0  0  0  0  0  0  0
   87.9369  204.7574  326.2146 C   0  0  0  0  0  0  0  0  0  0  0  0
   86.9516  203.9659  327.0762 C   0  0  0  0  0  0  0  0  0  0  0  0
   86.9318  204.3680  328.5536 C   0  0  0  0  0  0  0  0  0  0  0  0
   87.9258  203.6464  329.4731 C   0  0  0  0  0  0  0  0  0  0  0  0
   87.8062  203.9506  330.9690 C   0  0  0  0  0  0  0  0  0  0  0  0
   87.7095  202.7088  331.8573 C   0  0  0  0  0  0  0  0  0  0  0  0
   88.5704  201.5494  331.3402 C   0  0  0  0  0  0  0  0  0  0  0  0
   89.8008  201.2704  332.2113 C   0  0  0  0  0  0  0  0  0  0  0  0
   90.5553  200.0336  331.7234 C   0  0  0  0  0  0  0  0  0  0  0  0
   91.6468  199.5733  332.6947 C   0  0  0  0  0  0  0  0  0  0  0  0
   92.4640  198.3595  332.2499 C   0  0  0  0  0  0  0  0  0  0  0  0
   93.1319  197.6185  333.3968 C   0  0  0  0  0  0  0  0  0  0  0  0
  1  6  1  0
  1 27  1  6
  1 30  1  0
  3  2  1  1
  2 31  1  0
  3  4  1  0
 30  3  1  0
  5  4  1  0
  4 32  1  1
  6  5  1  0
  5 29  1  1
  6 28  1  6
  8  7  1  0
  9  8  1  0
 10  9  1  0
 11 10  1  0
 12 11  1  0
 13 12  1  0
 14 13  1  0
 15 14  1  0
 16 15  1  0
 17 16  1  0
 18 17  1  0
 19 18  1  0
 20 19  1  0
 21 20  1  0
 21 22  1  6
 23 21  1  0
 23 24  1  6
 25 23  1  0
 25 26  1  1
 25 37  1  0
 26 27  1  0
 32 33  1  0
 34 33  1  1
 34 35  1  0
 34 36  1  0
 35 36  1  0
 37 38  1  0
 38 39  2  0
 38 40  1  0
 40 41  1  0
 41 42  1  0
 42 43  1  0
 43 44  1  0
 44 45  1  0
 45 46  1  0
 46 47  1  0
 47 48  1  0
 48 49  1  0
 49 50  1  0
 50 51  1  0
 51 52  1  0
 52 53  1  0
 53 54  1  0
 54 55  1  0
 55 56  1  0
 56 57  1  0
 57 58  1  0
 58 59  1  0
 59 60  1  0
 60 61  1  0
 61 62  1  0
 62 63  1  0
 63 64  1  0
M  END
$$$$
