
     RDKit          3D

 64 65  0  0  0  0  0  0  0  0999 V2000
   97.5003  218.7255  323.5028 C   0  0  1  0  0  0  0  0  0  0  0  0
   99.1685  218.6697  326.0586 C   0  0  0  0  0  0  0  0  0  0  0  0
   98.9724  217.5540  325.0041 C   0  0  2  0  0  0  0  0  0  0  0  0
  100.0537  217.4115  323.9146 C   0  0  1  0  0  0  0  0  0  0  0  0
   99.9557  218.5607  322.8983 C   0  0  1  0  0  0  0  0  0  0  0  0
   98.5340  218.6592  322.3499 C   0  0  1  0  0  0  0  0  0  0  0  0
   82.4088  213.5013  313.6872 C   0  0  0  0  0  0  0  0  0  0  0  0
   82.3822  215.0201  313.6904 C   0  0  0  0  0  0  0  0  0  0  0  0
   83.7466  215.6691  313.4287 C   0  0  0  0  0  0  0  0  0  0  0  0
   83.7258  217.2036  313.4374 C   0  0  0  0  0  0  0  0  0  0  0  0
   85.0956  217.8247  313.1355 C   0  0  0  0  0  0  0  0  0  0  0  0
   85.0973  219.3573  313.1975 C   0  0  0  0  0  0  0  0  0  0  0  0
   86.4745  220.0107  313.3413 C   0  0  0  0  0  0  0  0  0  0  0  0
   87.3173  219.4264  314.4800 C   0  0  0  0  0  0  0  0  0  0  0  0
   88.6842  220.1110  314.5354 C   0  0  0  0  0  0  0  0  0  0  0  0
   89.1217  220.4093  315.9746 C   0  0  0  0  0  0  0  0  0  0  0  0
   89.7532  219.1751  316.6350 C   0  0  0  0  0  0  0  0  0  0  0  0
   91.0610  219.5144  317.3672 C   0  0  0  0  0  0  0  0  0  0  0  0
   90.8538  220.5689  318.4641 C   0  0  0  0  0  0  0  0  0  0  0  0
   91.6035  220.2131  319.7555 C   0  0  0  0  0  0  0  0  0  0  0  0
   92.8936  219.3999  319.5614 C   0  0  1  0  0  0  0  0  0  0  0  0
   93.1854  219.3787  318.1459 O   0  0  0  0  0  0  0  0  0  0  0  0
   94.1847  219.8764  320.2647 C   0  0  1  0  0  0  0  0  0  0  0  0
   94.4736  221.2329  319.8890 O   0  0  0  0  0  0  0  0  0  0  0  0
   94.2253  219.6908  321.8074 C   0  0  2  0  0  0  0  0  0  0  0  0
   95.6391  219.8319  322.4193 C   0  0  0  0  0  0  0  0  0  0  0  0
   96.2029  218.5996  322.9037 O   0  0  0  0  0  0  0  0  0  0  0  0
   98.2653  217.5160  321.5128 O   0  0  0  0  0  0  0  0  0  0  0  0
  100.3402  219.7992  323.5052 O   0  0  0  0  0  0  0  0  0  0  0  0
   97.6669  217.6248  324.4087 O   0  0  0  0  0  0  0  0  0  0  0  0
   98.2343  218.6611  327.1270 O   0  0  0  0  0  0  0  0  0  0  0  0
  101.3674  217.3992  324.4895 O   0  0  0  0  0  0  0  0  0  0  0  0
  102.0490  216.1552  324.3433 C   0  0  0  0  0  0  0  0  0  0  0  0
  101.4330  215.1367  325.2442 C   0  0  2  0  0  0  0  0  0  0  0  0
  102.2628  214.0833  325.9328 C   0  0  0  0  0  0  0  0  0  0  0  0
  101.3470  213.6973  324.8041 C   0  0  0  0  0  0  0  0  0  0  0  0
   93.6771  218.3758  322.1779 N   0  0  0  0  0  0  0  0  0  0  0  0
   92.8424  217.7003  321.3127 C   0  0  0  0  0  0  0  0  0  0  0  0
   91.7993  218.1800  320.8764 O   0  0  0  0  0  0  0  0  0  0  0  0
   93.3351  216.3129  320.9497 C   0  0  0  0  0  0  0  0  0  0  0  0
   92.2884  215.5564  320.1362 C   0  0  0  0  0  0  0  0  0  0  0  0
   91.3922  214.7020  321.0334 C   0  0  0  0  0  0  0  0  0  0  0  0
   89.8967  214.8553  320.7283 C   0  0  0  0  0  0  0  0  0  0  0  0
   89.4242  213.9379  319.5963 C   0  0  0  0  0  0  0  0  0  0  0  0
   88.0852  213.2503  319.8830 C   0  0  0  0  0  0  0  0  0  0  0  0
   86.8731  214.1567  319.6522 C   0  0  0  0  0  0  0  0  0  0  0  0
   85.6370  213.3310  319.2881 C   0  0  0  0  0  0  0  0  0  0  0  0
   84.3956  214.2083  319.1038 C   0  0  0  0  0  0  0  0  0  0  0  0
   83.8652  214.6786  320.4587 C   0  0  0  0  0  0  0  0  0  0  0  0
   82.5467  214.0245  320.8824 C   0  0  0  0  0  0  0  0  0  0  0  0
   82.0727  214.3138  322.3107 C   0  0  0  0  0  0  0  0  0  0  0  0
   81.8327  213.0619  323.1554 C   0  0  0  0  0  0  0  0  0  0  0  0
   81.3449  213.4179  324.5642 C   0  0  0  0  0  0  0  0  0  0  0  0
   81.1228  212.1553  325.3985 C   0  0  0  0  0  0  0  0  0  0  0  0
   81.4537  210.8472  324.6746 C   0  0  0  0  0  0  0  0  0  0  0  0
   81.7638  209.6336  325.5608 C   0  0  0  0  0  0  0  0  0  0  0  0
   82.0972  208.3303  324.8296 C   0  0  0  0  0  0  0  0  0  0  0  0
   81.3784  207.0979  325.3820 C   0  0  0  0  0  0  0  0  0  0  0  0
   82.3497  206.0691  325.9743 C   0  0  0  0  0  0  0  0  0  0  0  0
   82.3435  204.7285  325.2302 C   0  0  0  0  0  0  0  0  0  0  0  0
   83.3746  203.7648  325.8176 C   0  0  0  0  0  0  0  0  0  0  0  0
   84.8203  204.1897  325.5414 C   0  0  0  0  0  0  0  0  0  0  0  0
   85.8983  203.4088  326.2944 C   0  0  0  0  0  0  0  0  0  0  0  0
   87.3098  203.9102  326.0358 C   0  0  0  0  0  0  0  0  0  0  0  0
  1  6  1  0
  1 27  1  6
  1 30  1  0
  3  2  1  6
  2 31  1  0
  3  4  1  0
 30  3  1  0
  5  4  1  0
  4 32  1  1
  6  5  1  0
  5 29  1  1
  6 28  1  6
  8  7  1  0
  9  8  1  0
 10  9  1  0
 11 10  1  0
 12 11  1  0
 13 12  1  0
 14 13  1  0
 15 14  1  0
 16 15  1  0
 17 16  1  0
 18 17  1  0
 19 18  1  0
 20 19  1  0
 21 20  1  0
 21 22  1  6
 23 21  1  0
 23 24  1  1
 25 23  1  0
 25 26  1  6
 25 37  1  0
 26 27  1  0
 32 33  1  0
 34 33  1  6
 34 35  1  0
 34 36  1  0
 35 36  1  0
 37 38  1  0
 38 39  2  0
 38 40  1  0
 40 41  1  0
 41 42  1  0
 42 43  1  0
 43 44  1  0
 44 45  1  0
 45 46  1  0
 46 47  1  0
 47 48  1  0
 48 49  1  0
 49 50  1  0
 50 51  1  0
 51 52  1  0
 52 53  1  0
 53 54  1  0
 54 55  1  0
 55 56  1  0
 56 57  1  0
 57 58  1  0
 58 59  1  0
 59 60  1  0
 60 61  1  0
 61 62  1  0
 62 63  1  0
 63 64  1  0
M  END
$$$$
