
     RDKit          3D

 64 65  0  0  0  0  0  0  0  0999 V2000
   95.5247  218.7738  324.6798 C   0  0  1  0  0  0  0  0  0  0  0  0
   97.3099  218.2843  327.1071 C   0  0  0  0  0  0  0  0  0  0  0  0
   96.8757  217.2873  326.0058 C   0  0  2  0  0  0  0  0  0  0  0  0
   97.8542  217.0520  324.8380 C   0  0  1  0  0  0  0  0  0  0  0  0
   97.8820  218.2689  323.8990 C   0  0  1  0  0  0  0  0  0  0  0  0
   96.4647  218.6254  323.4565 C   0  0  1  0  0  0  0  0  0  0  0  0
   78.9890  222.2164  308.9867 C   0  0  0  0  0  0  0  0  0  0  0  0
   79.4934  221.9111  310.3866 C   0  0  0  0  0  0  0  0  0  0  0  0
   80.5982  220.8490  310.4345 C   0  0  0  0  0  0  0  0  0  0  0  0
   81.1380  220.5649  311.8427 C   0  0  0  0  0  0  0  0  0  0  0  0
   82.5382  221.1458  312.0780 C   0  0  0  0  0  0  0  0  0  0  0  0
   83.0359  220.9733  313.5185 C   0  0  0  0  0  0  0  0  0  0  0  0
   84.2699  220.0832  313.6885 C   0  0  0  0  0  0  0  0  0  0  0  0
   85.5378  220.8548  314.0701 C   0  0  0  0  0  0  0  0  0  0  0  0
   86.0114  220.4430  315.4651 C   0  0  0  0  0  0  0  0  0  0  0  0
   87.5301  220.2384  315.5213 C   0  0  0  0  0  0  0  0  0  0  0  0
   87.9238  219.2731  316.6490 C   0  0  0  0  0  0  0  0  0  0  0  0
   88.9262  219.9035  317.6284 C   0  0  0  0  0  0  0  0  0  0  0  0
   89.7480  218.8447  318.3776 C   0  0  0  0  0  0  0  0  0  0  0  0
   90.8208  219.4760  319.2758 C   0  0  0  0  0  0  0  0  0  0  0  0
   91.6047  218.4875  320.1542 C   0  0  1  0  0  0  0  0  0  0  0  0
   91.9774  217.3665  319.3211 O   0  0  0  0  0  0  0  0  0  0  0  0
   92.9030  218.9708  320.8394 C   0  0  1  0  0  0  0  0  0  0  0  0
   93.6266  219.8425  319.9555 O   0  0  0  0  0  0  0  0  0  0  0  0
   92.7317  219.6025  322.2492 C   0  0  2  0  0  0  0  0  0  0  0  0
   94.0578  219.7661  323.0287 C   0  0  0  0  0  0  0  0  0  0  0  0
   94.1909  218.8932  324.1653 O   0  0  0  0  0  0  0  0  0  0  0  0
   95.9674  217.5978  322.5752 O   0  0  0  0  0  0  0  0  0  0  0  0
   98.4951  219.3879  324.5486 O   0  0  0  0  0  0  0  0  0  0  0  0
   95.5657  217.6016  325.5069 O   0  0  0  0  0  0  0  0  0  0  0  0
   96.5373  218.2431  328.2970 O   0  0  0  0  0  0  0  0  0  0  0  0
   99.1804  216.7955  325.3193 O   0  0  0  0  0  0  0  0  0  0  0  0
   99.2850  215.6225  326.1236 C   0  0  0  0  0  0  0  0  0  0  0  0
  100.7001  215.4394  326.5620 C   0  0  2  0  0  0  0  0  0  0  0  0
  101.0454  215.0217  327.9687 C   0  0  0  0  0  0  0  0  0  0  0  0
  101.3264  216.4272  327.5133 C   0  0  0  0  0  0  0  0  0  0  0  0
   91.8014  218.7988  323.0590 N   0  0  0  0  0  0  0  0  0  0  0  0
   90.7594  218.1241  322.4585 C   0  0  0  0  0  0  0  0  0  0  0  0
   90.0204  218.6390  321.6234 O   0  0  0  0  0  0  0  0  0  0  0  0
   90.6146  216.6883  322.9240 C   0  0  0  0  0  0  0  0  0  0  0  0
   89.1700  216.3815  323.3096 C   0  0  0  0  0  0  0  0  0  0  0  0
   88.6842  215.0799  322.6706 C   0  0  0  0  0  0  0  0  0  0  0  0
   87.4339  215.2555  321.7995 C   0  0  0  0  0  0  0  0  0  0  0  0
   86.7520  213.9255  321.4641 C   0  0  0  0  0  0  0  0  0  0  0  0
   87.7360  212.7983  321.1339 C   0  0  0  0  0  0  0  0  0  0  0  0
   87.5168  212.1845  319.7485 C   0  0  0  0  0  0  0  0  0  0  0  0
   88.1253  210.7824  319.6715 C   0  0  0  0  0  0  0  0  0  0  0  0
   89.6470  210.8078  319.8418 C   0  0  0  0  0  0  0  0  0  0  0  0
   90.2507  209.4522  319.4728 C   0  0  0  0  0  0  0  0  0  0  0  0
   91.7728  209.4640  319.3026 C   0  0  0  0  0  0  0  0  0  0  0  0
   92.3004  209.2038  317.8874 C   0  0  0  0  0  0  0  0  0  0  0  0
   92.2392  207.7378  317.4571 C   0  0  0  0  0  0  0  0  0  0  0  0
   92.6794  207.5598  315.9997 C   0  0  0  0  0  0  0  0  0  0  0  0
   92.0664  208.6425  315.1100 C   0  0  0  0  0  0  0  0  0  0  0  0
   92.8052  208.8750  313.7891 C   0  0  0  0  0  0  0  0  0  0  0  0
   92.5674  210.2251  313.0998 C   0  0  0  0  0  0  0  0  0  0  0  0
   93.8176  210.9722  312.6274 C   0  0  0  0  0  0  0  0  0  0  0  0
   93.5343  212.1242  311.6612 C   0  0  0  0  0  0  0  0  0  0  0  0
   94.8181  212.7446  311.0960 C   0  0  0  0  0  0  0  0  0  0  0  0
   95.0461  214.1906  311.5516 C   0  0  0  0  0  0  0  0  0  0  0  0
   96.4439  214.6775  311.1692 C   0  0  0  0  0  0  0  0  0  0  0  0
   97.2401  215.2160  312.3622 C   0  0  0  0  0  0  0  0  0  0  0  0
   98.5869  215.8584  312.0273 C   0  0  0  0  0  0  0  0  0  0  0  0
   99.7657  215.2132  312.7378 C   0  0  0  0  0  0  0  0  0  0  0  0
  1  6  1  0
  1 27  1  6
  1 30  1  0
  3  2  1  6
  2 31  1  0
  3  4  1  0
 30  3  1  0
  5  4  1  0
  4 32  1  1
  6  5  1  0
  5 29  1  1
  6 28  1  6
  8  7  1  0
  9  8  1  0
 10  9  1  0
 11 10  1  0
 12 11  1  0
 13 12  1  0
 14 13  1  0
 15 14  1  0
 16 15  1  0
 17 16  1  0
 18 17  1  0
 19 18  1  0
 20 19  1  0
 21 20  1  0
 21 22  1  6
 23 21  1  0
 23 24  1  6
 25 23  1  0
 25 26  1  1
 25 37  1  0
 26 27  1  0
 32 33  1  0
 34 33  1  1
 34 35  1  0
 34 36  1  0
 35 36  1  0
 37 38  1  0
 38 39  2  0
 38 40  1  0
 40 41  1  0
 41 42  1  0
 42 43  1  0
 43 44  1  0
 44 45  1  0
 45 46  1  0
 46 47  1  0
 47 48  1  0
 48 49  1  0
 49 50  1  0
 50 51  1  0
 51 52  1  0
 52 53  1  0
 53 54  1  0
 54 55  1  0
 55 56  1  0
 56 57  1  0
 57 58  1  0
 58 59  1  0
 59 60  1  0
 60 61  1  0
 61 62  1  0
 62 63  1  0
 63 64  1  0
M  END
$$$$
