
     RDKit          3D

 64 65  0  0  0  0  0  0  0  0999 V2000
   95.9438  218.7543  323.6126 C   0  0  1  0  0  0  0  0  0  0  0  0
   98.7222  219.7404  322.8214 C   0  0  0  0  0  0  0  0  0  0  0  0
   97.3633  220.4715  322.7022 C   0  0  2  0  0  0  0  0  0  0  0  0
   96.9860  221.4529  323.8297 C   0  0  1  0  0  0  0  0  0  0  0  0
   96.6042  220.6901  325.1086 C   0  0  1  0  0  0  0  0  0  0  0  0
   95.5242  219.6551  324.8020 C   0  0  1  0  0  0  0  0  0  0  0  0
   84.3224  206.6466  328.2642 C   0  0  0  0  0  0  0  0  0  0  0  0
   83.2447  207.0239  327.2625 C   0  0  0  0  0  0  0  0  0  0  0  0
   83.7869  207.4568  325.8952 C   0  0  0  0  0  0  0  0  0  0  0  0
   83.0059  206.8923  324.7007 C   0  0  0  0  0  0  0  0  0  0  0  0
   82.9027  207.8785  323.5302 C   0  0  0  0  0  0  0  0  0  0  0  0
   84.0882  207.7998  322.5602 C   0  0  0  0  0  0  0  0  0  0  0  0
   84.0329  208.7621  321.3706 C   0  0  0  0  0  0  0  0  0  0  0  0
   85.4129  209.1989  320.8675 C   0  0  0  0  0  0  0  0  0  0  0  0
   85.8962  210.4278  321.6396 C   0  0  0  0  0  0  0  0  0  0  0  0
   87.2958  210.8724  321.1982 C   0  0  0  0  0  0  0  0  0  0  0  0
   87.7638  212.1077  321.9813 C   0  0  0  0  0  0  0  0  0  0  0  0
   89.2196  212.4807  321.6603 C   0  0  0  0  0  0  0  0  0  0  0  0
   89.6854  213.7194  322.4390 C   0  0  0  0  0  0  0  0  0  0  0  0
   91.1110  214.1398  322.0556 C   0  0  0  0  0  0  0  0  0  0  0  0
   91.8937  214.8791  323.1529 C   0  0  1  0  0  0  0  0  0  0  0  0
   91.7737  214.1062  324.3684 O   0  0  0  0  0  0  0  0  0  0  0  0
   93.4042  215.1322  322.9456 C   0  0  1  0  0  0  0  0  0  0  0  0
   94.0861  213.8831  322.7468 O   0  0  0  0  0  0  0  0  0  0  0  0
   93.7745  216.1655  321.8450 C   0  0  2  0  0  0  0  0  0  0  0  0
   95.0076  217.0338  322.1891 C   0  0  0  0  0  0  0  0  0  0  0  0
   94.7958  217.9680  323.2633 O   0  0  0  0  0  0  0  0  0  0  0  0
   94.2882  220.3318  324.4951 O   0  0  0  0  0  0  0  0  0  0  0  0
   97.7553  220.0534  325.6737 O   0  0  0  0  0  0  0  0  0  0  0  0
   96.2924  219.5435  322.4658 O   0  0  0  0  0  0  0  0  0  0  0  0
   99.1552  219.0759  321.6444 O   0  0  0  0  0  0  0  0  0  0  0  0
   98.0682  222.3484  324.1183 O   0  0  0  0  0  0  0  0  0  0  0  0
   98.0692  223.5285  323.3177 C   0  0  0  0  0  0  0  0  0  0  0  0
   99.2660  224.3575  323.6475 C   0  0  2  0  0  0  0  0  0  0  0  0
   99.8808  225.2962  322.6409 C   0  0  0  0  0  0  0  0  0  0  0  0
  100.6003  224.0328  323.0252 C   0  0  0  0  0  0  0  0  0  0  0  0
   92.6314  217.0520  321.5719 N   0  0  0  0  0  0  0  0  0  0  0  0
   92.6435  217.8860  320.4737 C   0  0  0  0  0  0  0  0  0  0  0  0
   93.0943  217.5495  319.3817 O   0  0  0  0  0  0  0  0  0  0  0  0
   92.0464  219.2539  320.7409 C   0  0  0  0  0  0  0  0  0  0  0  0
   90.6479  219.3670  320.1398 C   0  0  0  0  0  0  0  0  0  0  0  0
   90.6808  219.2351  318.6167 C   0  0  0  0  0  0  0  0  0  0  0  0
   89.2935  219.3070  317.9663 C   0  0  0  0  0  0  0  0  0  0  0  0
   89.3485  219.2170  316.4381 C   0  0  0  0  0  0  0  0  0  0  0  0
   88.8722  220.4905  315.7315 C   0  0  0  0  0  0  0  0  0  0  0  0
   87.3694  220.4990  315.4386 C   0  0  0  0  0  0  0  0  0  0  0  0
   87.0938  220.0754  313.9940 C   0  0  0  0  0  0  0  0  0  0  0  0
   85.6003  220.1209  313.6584 C   0  0  0  0  0  0  0  0  0  0  0  0
   85.3614  219.6776  312.2146 C   0  0  0  0  0  0  0  0  0  0  0  0
   85.5430  218.1754  311.9770 C   0  0  0  0  0  0  0  0  0  0  0  0
   84.9021  217.6058  310.7067 C   0  0  0  0  0  0  0  0  0  0  0  0
   85.4411  218.2101  309.4096 C   0  0  0  0  0  0  0  0  0  0  0  0
   84.3362  218.3644  308.3585 C   0  0  0  0  0  0  0  0  0  0  0  0
   84.2651  219.8058  307.8513 C   0  0  0  0  0  0  0  0  0  0  0  0
   82.8482  220.3114  307.5663 C   0  0  0  0  0  0  0  0  0  0  0  0
   81.9939  219.4579  306.6196 C   0  0  0  0  0  0  0  0  0  0  0  0
   80.8701  220.1884  305.8795 C   0  0  0  0  0  0  0  0  0  0  0  0
   79.8950  220.9326  306.7939 C   0  0  0  0  0  0  0  0  0  0  0  0
   78.7393  221.5769  306.0181 C   0  0  0  0  0  0  0  0  0  0  0  0
   77.6194  222.1044  306.9226 C   0  0  0  0  0  0  0  0  0  0  0  0
   77.7637  223.6073  307.1629 C   0  0  0  0  0  0  0  0  0  0  0  0
   76.6125  224.4244  306.5679 C   0  0  0  0  0  0  0  0  0  0  0  0
   76.6271  225.9209  306.8831 C   0  0  0  0  0  0  0  0  0  0  0  0
   75.6387  226.7291  306.0584 C   0  0  0  0  0  0  0  0  0  0  0  0
  1  6  1  0
  1 27  1  6
  1 30  1  0
  3  2  1  1
  2 31  1  0
  3  4  1  0
 30  3  1  0
  5  4  1  0
  4 32  1  1
  6  5  1  0
  5 29  1  6
  6 28  1  6
  8  7  1  0
  9  8  1  0
 10  9  1  0
 11 10  1  0
 12 11  1  0
 13 12  1  0
 14 13  1  0
 15 14  1  0
 16 15  1  0
 17 16  1  0
 18 17  1  0
 19 18  1  0
 20 19  1  0
 21 20  1  0
 21 22  1  1
 23 21  1  0
 23 24  1  6
 25 23  1  0
 25 26  1  1
 25 37  1  0
 26 27  1  0
 32 33  1  0
 34 33  1  6
 34 35  1  0
 34 36  1  0
 35 36  1  0
 37 38  1  0
 38 39  2  0
 38 40  1  0
 40 41  1  0
 41 42  1  0
 42 43  1  0
 43 44  1  0
 44 45  1  0
 45 46  1  0
 46 47  1  0
 47 48  1  0
 48 49  1  0
 49 50  1  0
 50 51  1  0
 51 52  1  0
 52 53  1  0
 53 54  1  0
 54 55  1  0
 55 56  1  0
 56 57  1  0
 57 58  1  0
 58 59  1  0
 59 60  1  0
 60 61  1  0
 61 62  1  0
 62 63  1  0
 63 64  1  0
M  END
$$$$
