
     RDKit          3D

 64 65  0  0  0  0  0  0  0  0999 V2000
   97.3372  217.8791  325.2236 C   0  0  1  0  0  0  0  0  0  0  0  0
   96.3871  216.9002  327.9544 C   0  0  0  0  0  0  0  0  0  0  0  0
   96.0314  216.3539  326.5508 C   0  0  2  0  0  0  0  0  0  0  0  0
   96.8335  215.1409  326.0389 C   0  0  1  0  0  0  0  0  0  0  0  0
   98.2612  215.5585  325.6508 C   0  0  1  0  0  0  0  0  0  0  0  0
   98.2198  216.7303  324.6726 C   0  0  1  0  0  0  0  0  0  0  0  0
   84.9845  220.8517  308.2624 C   0  0  0  0  0  0  0  0  0  0  0  0
   85.7240  220.9751  309.5835 C   0  0  0  0  0  0  0  0  0  0  0  0
   86.1694  219.6335  310.1775 C   0  0  0  0  0  0  0  0  0  0  0  0
   87.0239  219.7593  311.4460 C   0  0  0  0  0  0  0  0  0  0  0  0
   87.5494  218.4100  311.9527 C   0  0  0  0  0  0  0  0  0  0  0  0
   87.2854  218.1742  313.4451 C   0  0  0  0  0  0  0  0  0  0  0  0
   88.2389  217.1969  314.1379 C   0  0  0  0  0  0  0  0  0  0  0  0
   88.7378  217.6860  315.5018 C   0  0  0  0  0  0  0  0  0  0  0  0
   89.6658  216.6464  316.1327 C   0  0  0  0  0  0  0  0  0  0  0  0
   90.3380  217.1715  317.4070 C   0  0  0  0  0  0  0  0  0  0  0  0
   91.8099  217.5308  317.1563 C   0  0  0  0  0  0  0  0  0  0  0  0
   92.4916  218.0942  318.4130 C   0  0  0  0  0  0  0  0  0  0  0  0
   93.8624  218.7116  318.1009 C   0  0  0  0  0  0  0  0  0  0  0  0
   94.4476  219.4577  319.3080 C   0  0  0  0  0  0  0  0  0  0  0  0
   95.6973  218.8159  319.9323 C   0  0  1  0  0  0  0  0  0  0  0  0
   96.8052  219.0607  319.0367 O   0  0  0  0  0  0  0  0  0  0  0  0
   96.1553  219.2888  321.3305 C   0  0  1  0  0  0  0  0  0  0  0  0
   96.3306  220.7150  321.3308 O   0  0  0  0  0  0  0  0  0  0  0  0
   95.2786  218.8217  322.5259 C   0  0  2  0  0  0  0  0  0  0  0  0
   95.8284  219.2424  323.9094 C   0  0  0  0  0  0  0  0  0  0  0  0
   97.1842  218.8303  324.1606 O   0  0  0  0  0  0  0  0  0  0  0  0
   97.7021  216.2761  323.4055 O   0  0  0  0  0  0  0  0  0  0  0  0
   99.0133  215.9118  326.8167 O   0  0  0  0  0  0  0  0  0  0  0  0
   96.0282  217.4032  325.5696 O   0  0  0  0  0  0  0  0  0  0  0  0
   95.4710  217.8463  328.4836 O   0  0  0  0  0  0  0  0  0  0  0  0
   96.8962  214.1075  327.0310 O   0  0  0  0  0  0  0  0  0  0  0  0
   98.2043  213.8911  327.5562 C   0  0  0  0  0  0  0  0  0  0  0  0
   98.6026  212.4688  327.3403 C   0  0  2  0  0  0  0  0  0  0  0  0
   99.8467  211.8913  327.9656 C   0  0  0  0  0  0  0  0  0  0  0  0
   99.8006  212.1451  326.4840 C   0  0  0  0  0  0  0  0  0  0  0  0
   95.1219  217.3581  322.5028 N   0  0  0  0  0  0  0  0  0  0  0  0
   93.9787  216.7720  323.0041 C   0  0  0  0  0  0  0  0  0  0  0  0
   93.1016  217.4044  323.5865 O   0  0  0  0  0  0  0  0  0  0  0  0
   93.9064  215.2762  322.7660 C   0  0  0  0  0  0  0  0  0  0  0  0
   92.6730  214.9124  321.9437 C   0  0  0  0  0  0  0  0  0  0  0  0
   92.6428  213.4205  321.6096 C   0  0  0  0  0  0  0  0  0  0  0  0
   91.8665  213.0963  320.3270 C   0  0  0  0  0  0  0  0  0  0  0  0
   90.5464  212.3687  320.5995 C   0  0  0  0  0  0  0  0  0  0  0  0
   89.3091  213.2531  320.4129 C   0  0  0  0  0  0  0  0  0  0  0  0
   88.8670  213.3819  318.9526 C   0  0  0  0  0  0  0  0  0  0  0  0
   88.1445  214.7104  318.7176 C   0  0  0  0  0  0  0  0  0  0  0  0
   87.4672  214.7595  317.3450 C   0  0  0  0  0  0  0  0  0  0  0  0
   86.4469  215.8972  317.2908 C   0  0  0  0  0  0  0  0  0  0  0  0
   86.4159  216.6547  315.9600 C   0  0  0  0  0  0  0  0  0  0  0  0
   85.0965  217.3482  315.6032 C   0  0  0  0  0  0  0  0  0  0  0  0
   85.2491  218.5218  314.6348 C   0  0  0  0  0  0  0  0  0  0  0  0
   84.7017  218.1796  313.2446 C   0  0  0  0  0  0  0  0  0  0  0  0
   84.9915  219.3075  312.2529 C   0  0  0  0  0  0  0  0  0  0  0  0
   83.7516  219.8835  311.5633 C   0  0  0  0  0  0  0  0  0  0  0  0
   83.9280  221.2309  310.8508 C   0  0  0  0  0  0  0  0  0  0  0  0
   82.9748  221.5090  309.6852 C   0  0  0  0  0  0  0  0  0  0  0  0
   82.4150  222.9326  309.6566 C   0  0  0  0  0  0  0  0  0  0  0  0
   80.8849  222.9589  309.5521 C   0  0  0  0  0  0  0  0  0  0  0  0
   80.3761  223.0740  308.1104 C   0  0  0  0  0  0  0  0  0  0  0  0
   78.9014  223.4752  308.0744 C   0  0  0  0  0  0  0  0  0  0  0  0
   78.6927  224.9902  307.9830 C   0  0  0  0  0  0  0  0  0  0  0  0
   77.2736  225.4464  307.6412 C   0  0  0  0  0  0  0  0  0  0  0  0
   77.0971  226.9560  307.6529 C   0  0  0  0  0  0  0  0  0  0  0  0
  1  6  1  0
  1 27  1  6
  1 30  1  0
  3  2  1  1
  2 31  1  0
  3  4  1  0
 30  3  1  0
  5  4  1  0
  4 32  1  1
  6  5  1  0
  5 29  1  1
  6 28  1  6
  8  7  1  0
  9  8  1  0
 10  9  1  0
 11 10  1  0
 12 11  1  0
 13 12  1  0
 14 13  1  0
 15 14  1  0
 16 15  1  0
 17 16  1  0
 18 17  1  0
 19 18  1  0
 20 19  1  0
 21 20  1  0
 21 22  1  6
 23 21  1  0
 23 24  1  6
 25 23  1  0
 25 26  1  1
 25 37  1  0
 26 27  1  0
 32 33  1  0
 34 33  1  1
 34 35  1  0
 34 36  1  0
 35 36  1  0
 37 38  1  0
 38 39  2  0
 38 40  1  0
 40 41  1  0
 41 42  1  0
 42 43  1  0
 43 44  1  0
 44 45  1  0
 45 46  1  0
 46 47  1  0
 47 48  1  0
 48 49  1  0
 49 50  1  0
 50 51  1  0
 51 52  1  0
 52 53  1  0
 53 54  1  0
 54 55  1  0
 55 56  1  0
 56 57  1  0
 57 58  1  0
 58 59  1  0
 59 60  1  0
 60 61  1  0
 61 62  1  0
 62 63  1  0
 63 64  1  0
M  END
$$$$
