
     RDKit          3D

 64 65  0  0  0  0  0  0  0  0999 V2000
   96.3701  218.3612  322.4273 C   0  0  1  0  0  0  0  0  0  0  0  0
   98.3635  217.8559  324.6834 C   0  0  0  0  0  0  0  0  0  0  0  0
   97.2683  216.9139  324.1279 C   0  0  2  0  0  0  0  0  0  0  0  0
   97.6991  215.8668  323.0817 C   0  0  1  0  0  0  0  0  0  0  0  0
   97.9840  216.5370  321.7278 C   0  0  1  0  0  0  0  0  0  0  0  0
   96.7894  217.3856  321.2983 C   0  0  1  0  0  0  0  0  0  0  0  0
   93.3710  225.6757  306.7762 C   0  0  0  0  0  0  0  0  0  0  0  0
   93.4611  225.6603  308.2925 C   0  0  0  0  0  0  0  0  0  0  0  0
   94.6215  224.8211  308.8406 C   0  0  0  0  0  0  0  0  0  0  0  0
   95.5855  225.5968  309.7486 C   0  0  0  0  0  0  0  0  0  0  0  0
   95.3175  225.3705  311.2420 C   0  0  0  0  0  0  0  0  0  0  0  0
   96.1145  226.3115  312.1541 C   0  0  0  0  0  0  0  0  0  0  0  0
   96.4040  225.7794  313.5602 C   0  0  0  0  0  0  0  0  0  0  0  0
   95.1430  225.4356  314.3602 C   0  0  0  0  0  0  0  0  0  0  0  0
   95.4939  224.5330  315.5443 C   0  0  0  0  0  0  0  0  0  0  0  0
   94.2767  224.2482  316.4326 C   0  0  0  0  0  0  0  0  0  0  0  0
   94.7017  223.8452  317.8522 C   0  0  0  0  0  0  0  0  0  0  0  0
   94.0018  222.5613  318.3247 C   0  0  0  0  0  0  0  0  0  0  0  0
   94.8419  221.7879  319.3513 C   0  0  0  0  0  0  0  0  0  0  0  0
   94.6663  222.3389  320.7732 C   0  0  0  0  0  0  0  0  0  0  0  0
   94.2552  221.3024  321.8315 C   0  0  1  0  0  0  0  0  0  0  0  0
   94.3486  221.9410  323.1248 O   0  0  0  0  0  0  0  0  0  0  0  0
   92.8417  220.6821  321.7536 C   0  0  1  0  0  0  0  0  0  0  0  0
   92.3894  220.6665  320.3899 O   0  0  0  0  0  0  0  0  0  0  0  0
   92.6731  219.2910  322.4264 C   0  0  2  0  0  0  0  0  0  0  0  0
   94.0060  218.6420  322.8682 C   0  0  0  0  0  0  0  0  0  0  0  0
   95.1280  218.9539  322.0226 O   0  0  0  0  0  0  0  0  0  0  0  0
   95.6863  216.5202  320.9604 O   0  0  0  0  0  0  0  0  0  0  0  0
   99.1633  217.3449  321.8081 O   0  0  0  0  0  0  0  0  0  0  0  0
   96.1334  217.6574  323.6555 O   0  0  0  0  0  0  0  0  0  0  0  0
   98.6384  217.7110  326.0682 O   0  0  0  0  0  0  0  0  0  0  0  0
   98.8677  215.1564  323.5131 O   0  0  0  0  0  0  0  0  0  0  0  0
   99.1379  213.9780  322.7568 C   0  0  0  0  0  0  0  0  0  0  0  0
  100.4127  213.3607  323.2283 C   0  0  2  0  0  0  0  0  0  0  0  0
  101.4098  214.1346  324.0526 C   0  0  0  0  0  0  0  0  0  0  0  0
  101.7250  213.7901  322.6230 C   0  0  0  0  0  0  0  0  0  0  0  0
   91.9731  218.3668  321.5192 N   0  0  0  0  0  0  0  0  0  0  0  0
   92.0611  217.0038  321.7096 C   0  0  0  0  0  0  0  0  0  0  0  0
   92.2101  216.4899  322.8152 O   0  0  0  0  0  0  0  0  0  0  0  0
   91.9539  216.2014  320.4275 C   0  0  0  0  0  0  0  0  0  0  0  0
   90.5615  215.5944  320.2771 C   0  0  0  0  0  0  0  0  0  0  0  0
   89.4696  216.6547  320.4237 C   0  0  0  0  0  0  0  0  0  0  0  0
   88.6490  216.8688  319.1455 C   0  0  0  0  0  0  0  0  0  0  0  0
   88.0402  218.2718  319.0585 C   0  0  0  0  0  0  0  0  0  0  0  0
   87.4798  218.6120  317.6736 C   0  0  0  0  0  0  0  0  0  0  0  0
   86.0053  218.2362  317.5038 C   0  0  0  0  0  0  0  0  0  0  0  0
   85.2978  219.2169  316.5659 C   0  0  0  0  0  0  0  0  0  0  0  0
   83.9979  218.6353  316.0028 C   0  0  0  0  0  0  0  0  0  0  0  0
   83.2901  219.6620  315.1179 C   0  0  0  0  0  0  0  0  0  0  0  0
   83.0193  219.1835  313.6882 C   0  0  0  0  0  0  0  0  0  0  0  0
   81.6279  218.6002  313.4188 C   0  0  0  0  0  0  0  0  0  0  0  0
   81.3575  218.2820  311.9478 C   0  0  0  0  0  0  0  0  0  0  0  0
   80.2254  217.2605  311.7914 C   0  0  0  0  0  0  0  0  0  0  0  0
   80.6788  216.0713  310.9431 C   0  0  0  0  0  0  0  0  0  0  0  0
   80.2761  214.7024  311.4985 C   0  0  0  0  0  0  0  0  0  0  0  0
   80.4983  214.4805  313.0004 C   0  0  0  0  0  0  0  0  0  0  0  0
   80.9762  213.0860  313.4142 C   0  0  0  0  0  0  0  0  0  0  0  0
   81.5319  213.0084  314.8376 C   0  0  0  0  0  0  0  0  0  0  0  0
   82.7435  213.9259  315.0449 C   0  0  0  0  0  0  0  0  0  0  0  0
   83.4390  213.7183  316.3953 C   0  0  0  0  0  0  0  0  0  0  0  0
   83.0422  214.8046  317.3950 C   0  0  0  0  0  0  0  0  0  0  0  0
   83.8864  214.7826  318.6732 C   0  0  0  0  0  0  0  0  0  0  0  0
   83.5821  215.8837  319.6900 C   0  0  0  0  0  0  0  0  0  0  0  0
   84.3733  215.7589  320.9818 C   0  0  0  0  0  0  0  0  0  0  0  0
  1  6  1  0
  1 27  1  6
  1 30  1  0
  3  2  1  6
  2 31  1  0
  3  4  1  0
 30  3  1  0
  5  4  1  0
  4 32  1  1
  6  5  1  0
  5 29  1  1
  6 28  1  1
  8  7  1  0
  9  8  1  0
 10  9  1  0
 11 10  1  0
 12 11  1  0
 13 12  1  0
 14 13  1  0
 15 14  1  0
 16 15  1  0
 17 16  1  0
 18 17  1  0
 19 18  1  0
 20 19  1  0
 21 20  1  0
 21 22  1  1
 23 21  1  0
 23 24  1  6
 25 23  1  0
 25 26  1  6
 25 37  1  0
 26 27  1  0
 32 33  1  0
 34 33  1  6
 34 35  1  0
 34 36  1  0
 35 36  1  0
 37 38  1  0
 38 39  2  0
 38 40  1  0
 40 41  1  0
 41 42  1  0
 42 43  1  0
 43 44  1  0
 44 45  1  0
 45 46  1  0
 46 47  1  0
 47 48  1  0
 48 49  1  0
 49 50  1  0
 50 51  1  0
 51 52  1  0
 52 53  1  0
 53 54  1  0
 54 55  1  0
 55 56  1  0
 56 57  1  0
 57 58  1  0
 58 59  1  0
 59 60  1  0
 60 61  1  0
 61 62  1  0
 62 63  1  0
 63 64  1  0
M  END
$$$$
