
     RDKit          3D

 33 37  0  0  0  0  0  0  0  0999 V2000
  -59.8130   33.2937   15.8139 N   0  0  0  0  0  4  0  0  0  0  0  0
  -59.6016   32.4934   14.6120 C   0  0  0  0  0  0  0  0  0  0  0  0
  -58.4958   31.5153   14.8475 C   0  0  0  0  0  0  0  0  0  0  0  0
  -57.6258   31.6466   15.9041 C   0  0  0  0  0  0  0  0  0  0  0  0
  -56.6178   30.7360   16.0995 C   0  0  0  0  0  0  0  0  0  0  0  0
  -56.4861   29.6887   15.2261 C   0  0  0  0  0  0  0  0  0  0  0  0
  -57.3513   29.5503   14.1678 C   0  0  0  0  0  0  0  0  0  0  0  0
  -58.3671   30.4578   13.9610 C   0  0  0  0  0  0  0  0  0  0  0  0
  -55.4459   28.6901   15.3674 C   0  0  0  0  0  0  0  0  0  0  0  0
  -54.3985   28.6020   14.5265 N   0  0  0  0  0  0  0  0  0  0  0  0
  -53.4611   27.6734   14.6842 C   0  0  0  0  0  0  0  0  0  0  0  0
  -53.5104   26.7332   15.7358 C   0  0  0  0  0  0  0  0  0  0  0  0
  -52.6085   25.8120   15.9182 O   0  0  0  0  0  0  0  0  0  0  0  0
  -51.7275   24.9095   16.1130 C   0  0  0  0  0  0  0  0  0  0  0  0
  -52.3779   23.5877   16.5856 C   0  0  1  0  0  0  0  0  0  0  0  0
  -51.6071   23.1461   17.8115 C   0  0  0  0  0  0  0  0  0  0  0  0
  -52.2470   21.9360   18.4550 C   0  0  0  0  0  0  0  0  0  0  0  0
  -53.4250   21.5040   17.7631 N   0  0  0  0  0  4  0  0  0  0  0  0
  -54.3796   22.5400   17.4973 C   0  0  0  0  0  0  0  0  0  0  0  0
  -53.7964   23.8161   16.9894 C   0  0  0  0  0  0  0  0  0  0  0  0
  -54.5999   26.8665   16.5658 N   0  0  0  0  0  0  0  0  0  0  0  0
  -55.5392   27.7951   16.4098 C   0  0  0  0  0  0  0  0  0  0  0  0
  -56.6757   27.9009   17.3157 C   0  0  0  0  0  0  0  0  0  0  0  0
  -57.8587   27.2459   17.1693 C   0  0  0  0  0  0  0  0  0  0  0  0
  -58.8837   27.4200   18.1032 C   0  0  0  0  0  0  0  0  0  0  0  0
  -58.7430   28.2521   19.1993 C   0  0  0  0  0  0  0  0  0  0  0  0
  -57.5320   28.9195   19.3447 C   0  0  0  0  0  0  0  0  0  0  0  0
  -56.5296   28.7391   18.4170 C   0  0  0  0  0  0  0  0  0  0  0  0
  -59.7882   28.4507   20.1826 C   0  0  0  0  0  0  0  0  0  0  0  0
  -61.0107   27.8187   20.2301 C   0  0  0  0  0  0  0  0  0  0  0  0
  -61.6932   28.2909   21.3079 N   0  0  0  0  0  0  0  0  0  0  0  0
  -60.9388   29.1830   21.9189 N   0  0  0  0  0  0  0  0  0  0  0  0
  -59.7555   29.3103   21.2555 C   0  0  0  0  0  0  0  0  0  0  0  0
  1  2  1  0
  2  3  1  0
  3  4  2  0
  3  8  1  0
  4  5  1  0
  5  6  2  0
  6  7  1  0
  6  9  1  0
  7  8  2  0
  9 10  2  0
  9 22  1  0
 10 11  1  0
 11 12  2  0
 12 13  1  0
 12 21  1  0
 13 14  1  0
 15 14  1  1
 15 16  1  0
 15 20  1  0
 16 17  1  0
 17 18  1  0
 18 19  1  0
 19 20  1  0
 21 22  2  0
 22 23  1  0
 23 24  2  0
 23 28  1  0
 24 25  1  0
 25 26  2  0
 26 27  1  0
 26 29  1  0
 27 28  2  0
 29 30  2  0
 29 33  1  0
 30 31  1  0
 31 32  1  0
 32 33  2  0
M  CHG  2   1   1  18   1
M  END
$$$$
