
     RDKit          3D

 33 37  0  0  0  0  0  0  0  0999 V2000
  -60.1177   30.3726    7.4480 N   0  0  0  0  0  4  0  0  0  0  0  0
  -60.6865   30.3875    8.8242 C   0  0  0  0  0  0  0  0  0  0  0  0
  -60.0775   29.2933    9.6229 C   0  0  0  0  0  0  0  0  0  0  0  0
  -60.2493   29.2734   10.9876 C   0  0  0  0  0  0  0  0  0  0  0  0
  -59.7161   28.2946   11.7967 C   0  0  0  0  0  0  0  0  0  0  0  0
  -58.9580   27.2532   11.2479 C   0  0  0  0  0  0  0  0  0  0  0  0
  -58.7939   27.2868    9.8729 C   0  0  0  0  0  0  0  0  0  0  0  0
  -59.3327   28.2728    9.0709 C   0  0  0  0  0  0  0  0  0  0  0  0
  -58.3951   26.2286   12.0826 C   0  0  0  0  0  0  0  0  0  0  0  0
  -57.0768   26.0039   12.1226 N   0  0  0  0  0  0  0  0  0  0  0  0
  -56.5149   25.0586   12.8865 C   0  0  0  0  0  0  0  0  0  0  0  0
  -57.2994   24.2649   13.6781 C   0  0  0  0  0  0  0  0  0  0  0  0
  -56.7868   23.2676   14.4933 O   0  0  0  0  0  0  0  0  0  0  0  0
  -56.9683   21.9239   14.1059 C   0  0  0  0  0  0  0  0  0  0  0  0
  -55.9350   21.1025   14.8796 C   0  0  1  0  0  0  0  0  0  0  0  0
  -54.5563   21.4124   14.3816 C   0  0  0  0  0  0  0  0  0  0  0  0
  -53.5411   21.1672   15.4735 C   0  0  0  0  0  0  0  0  0  0  0  0
  -53.9761   20.1232   16.3524 N   0  0  0  0  0  4  0  0  0  0  0  0
  -55.1659   20.4515   17.0990 C   0  0  0  0  0  0  0  0  0  0  0  0
  -56.0888   21.3630   16.3613 C   0  0  0  0  0  0  0  0  0  0  0  0
  -58.6255   24.4605   13.6647 N   0  0  0  0  0  0  0  0  0  0  0  0
  -59.1770   25.4304   12.8779 C   0  0  0  0  0  0  0  0  0  0  0  0
  -60.6155   25.6495   12.8545 C   0  0  0  0  0  0  0  0  0  0  0  0
  -61.3363   26.1972   13.8909 C   0  0  0  0  0  0  0  0  0  0  0  0
  -62.7033   26.3792   13.7952 C   0  0  0  0  0  0  0  0  0  0  0  0
  -63.3814   26.0143   12.6527 C   0  0  0  0  0  0  0  0  0  0  0  0
  -62.6758   25.4630   11.6020 C   0  0  0  0  0  0  0  0  0  0  0  0
  -61.3103   25.2899   11.7186 C   0  0  0  0  0  0  0  0  0  0  0  0
  -64.8216   26.2087   12.5526 C   0  0  0  0  0  0  0  0  0  0  0  0
  -65.6368   25.8814   11.5092 C   0  0  0  0  0  0  0  0  0  0  0  0
  -66.8900   26.2341   11.8345 N   0  0  0  0  0  0  0  0  0  0  0  0
  -66.9098   26.7798   13.0576 N   0  0  0  0  0  0  0  0  0  0  0  0
  -65.6331   26.7702   13.5146 C   0  0  0  0  0  0  0  0  0  0  0  0
  1  2  1  1
  2  3  1  6
  3  4  2  0
  3  8  1  0
  4  5  1  0
  5  6  2  0
  6  7  1  0
  6  9  1  0
  7  8  2  0
  9 10  2  0
  9 22  1  0
 10 11  1  0
 11 12  2  0
 12 13  1  0
 12 21  1  0
 14 13  1  1
 15 14  1  6
 16 15  1  1
 15 20  1  0
 17 16  1  1
 18 17  1  1
 19 18  1  1
 20 19  1  6
 21 22  2  0
 22 23  1  0
 23 24  2  0
 23 28  1  0
 24 25  1  0
 25 26  2  0
 26 27  1  0
 26 29  1  0
 27 28  2  0
 29 30  2  0
 29 33  1  0
 30 31  1  0
 31 32  1  0
 32 33  2  0
M  CHG  2   1   1  18   1
M  END
$$$$
