
     RDKit          3D

 33 37  0  0  0  0  0  0  0  0999 V2000
  -61.5584   22.6965   20.8225 N   0  0  0  0  0  4  0  0  0  0  0  0
  -60.5383   23.7701   20.9790 C   0  0  0  0  0  0  0  0  0  0  0  0
  -59.9221   24.0630   19.6598 C   0  0  0  0  0  0  0  0  0  0  0  0
  -59.4438   23.0279   18.8900 C   0  0  0  0  0  0  0  0  0  0  0  0
  -58.8588   23.2177   17.6577 C   0  0  0  0  0  0  0  0  0  0  0  0
  -58.7240   24.5056   17.1250 C   0  0  0  0  0  0  0  0  0  0  0  0
  -59.2102   25.5370   17.9114 C   0  0  0  0  0  0  0  0  0  0  0  0
  -59.7950   25.3359   19.1456 C   0  0  0  0  0  0  0  0  0  0  0  0
  -58.1132   24.7152   15.8420 C   0  0  0  0  0  0  0  0  0  0  0  0
  -58.8384   24.7488   14.7183 N   0  0  0  0  0  0  0  0  0  0  0  0
  -58.3059   24.9408   13.5048 C   0  0  0  0  0  0  0  0  0  0  0  0
  -56.9554   25.1149   13.3717 C   0  0  0  0  0  0  0  0  0  0  0  0
  -56.3361   25.3179   12.1482 O   0  0  0  0  0  0  0  0  0  0  0  0
  -57.0755   25.0749   10.9724 C   0  0  0  0  0  0  0  0  0  0  0  0
  -56.2243   25.5843    9.8075 C   0  0  1  0  0  0  0  0  0  0  0  0
  -54.9645   26.2072   10.3268 C   0  0  0  0  0  0  0  0  0  0  0  0
  -53.8721   26.1169    9.2868 C   0  0  0  0  0  0  0  0  0  0  0  0
  -54.4207   26.1443    7.9639 N   0  0  0  0  0  4  0  0  0  0  0  0
  -55.2440   25.0012    7.6534 C   0  0  0  0  0  0  0  0  0  0  0  0
  -55.9564   24.4504    8.8434 C   0  0  0  0  0  0  0  0  0  0  0  0
  -56.1956   25.0875   14.4757 N   0  0  0  0  0  0  0  0  0  0  0  0
  -56.7600   24.8902   15.7031 C   0  0  0  0  0  0  0  0  0  0  0  0
  -55.9438   24.8567   16.9075 C   0  0  0  0  0  0  0  0  0  0  0  0
  -54.9035   23.9809   17.1186 C   0  0  0  0  0  0  0  0  0  0  0  0
  -54.1683   24.0107   18.2889 C   0  0  0  0  0  0  0  0  0  0  0  0
  -54.4612   24.9236   19.2785 C   0  0  0  0  0  0  0  0  0  0  0  0
  -55.5013   25.8104   19.0854 C   0  0  0  0  0  0  0  0  0  0  0  0
  -56.2232   25.7635   17.9086 C   0  0  0  0  0  0  0  0  0  0  0  0
  -53.6842   24.9550   20.5102 C   0  0  0  0  0  0  0  0  0  0  0  0
  -52.6509   24.1385   20.8655 C   0  0  0  0  0  0  0  0  0  0  0  0
  -52.2234   24.5143   22.0807 N   0  0  0  0  0  0  0  0  0  0  0  0
  -52.9493   25.5498   22.5222 N   0  0  0  0  0  0  0  0  0  0  0  0
  -53.8592   25.8334   21.5576 C   0  0  0  0  0  0  0  0  0  0  0  0
  1  2  1  1
  2  3  1  6
  3  4  2  0
  3  8  1  0
  4  5  1  0
  5  6  2  0
  6  7  1  0
  6  9  1  0
  7  8  2  0
  9 10  2  0
  9 22  1  0
 10 11  1  0
 11 12  2  0
 12 13  1  0
 12 21  1  0
 14 13  1  1
 15 14  1  1
 16 15  1  1
 15 20  1  0
 17 16  1  1
 18 17  1  1
 19 18  1  1
 20 19  1  6
 21 22  2  0
 22 23  1  0
 23 24  2  0
 23 28  1  0
 24 25  1  0
 25 26  2  0
 26 27  1  0
 26 29  1  0
 27 28  2  0
 29 30  2  0
 29 33  1  0
 30 31  1  0
 31 32  1  0
 32 33  2  0
M  CHG  2   1   1  18   1
M  END
$$$$
