
     RDKit          3D

 33 37  0  0  0  0  0  0  0  0999 V2000
  -58.9980   28.2378   23.1898 N   0  0  0  0  0  4  0  0  0  0  0  0
  -57.5768   27.9699   22.8346 C   0  0  0  0  0  0  0  0  0  0  0  0
  -57.5011   27.4771   21.4356 C   0  0  0  0  0  0  0  0  0  0  0  0
  -56.3001   27.5191   20.7660 C   0  0  0  0  0  0  0  0  0  0  0  0
  -56.1490   27.0825   19.4685 C   0  0  0  0  0  0  0  0  0  0  0  0
  -57.2405   26.5648   18.7605 C   0  0  0  0  0  0  0  0  0  0  0  0
  -58.4425   26.5290   19.4479 C   0  0  0  0  0  0  0  0  0  0  0  0
  -58.5832   26.9692   20.7487 C   0  0  0  0  0  0  0  0  0  0  0  0
  -57.0948   26.1091   17.4061 C   0  0  0  0  0  0  0  0  0  0  0  0
  -58.1225   26.1193   16.5495 N   0  0  0  0  0  0  0  0  0  0  0  0
  -58.0264   25.7023   15.2808 C   0  0  0  0  0  0  0  0  0  0  0  0
  -56.8317   25.2362   14.8039 C   0  0  0  0  0  0  0  0  0  0  0  0
  -56.6594   24.7886   13.5033 O   0  0  0  0  0  0  0  0  0  0  0  0
  -55.6584   23.8283   13.2504 C   0  0  0  0  0  0  0  0  0  0  0  0
  -55.5200   23.7310   11.7297 C   0  0  1  0  0  0  0  0  0  0  0  0
  -56.8748   23.6444   11.0959 C   0  0  0  0  0  0  0  0  0  0  0  0
  -56.8266   24.1896    9.6876 C   0  0  0  0  0  0  0  0  0  0  0  0
  -55.5354   23.9842    9.1027 N   0  0  0  0  0  4  0  0  0  0  0  0
  -54.4786   24.7154    9.7580 C   0  0  0  0  0  0  0  0  0  0  0  0
  -54.7147   24.9050   11.2193 C   0  0  0  0  0  0  0  0  0  0  0  0
  -55.7787   25.2109   15.6332 N   0  0  0  0  0  0  0  0  0  0  0  0
  -55.8995   25.6410   16.9232 C   0  0  0  0  0  0  0  0  0  0  0  0
  -54.7632   25.6157   17.8320 C   0  0  0  0  0  0  0  0  0  0  0  0
  -54.7290   24.9153   19.0161 C   0  0  0  0  0  0  0  0  0  0  0  0
  -53.6106   24.9351   19.8282 C   0  0  0  0  0  0  0  0  0  0  0  0
  -52.4959   25.6612   19.4695 C   0  0  0  0  0  0  0  0  0  0  0  0
  -52.5109   26.3706   18.2854 C   0  0  0  0  0  0  0  0  0  0  0  0
  -53.6389   26.3371   17.4887 C   0  0  0  0  0  0  0  0  0  0  0  0
  -51.3173   25.6794   20.3253 C   0  0  0  0  0  0  0  0  0  0  0  0
  -51.0923   24.9422   21.4506 C   0  0  0  0  0  0  0  0  0  0  0  0
  -49.8820   25.2712   21.9278 N   0  0  0  0  0  0  0  0  0  0  0  0
  -49.3172   26.1994   21.1445 N   0  0  0  0  0  0  0  0  0  0  0  0
  -50.1969   26.4618   20.1465 C   0  0  0  0  0  0  0  0  0  0  0  0
  1  2  1  1
  2  3  1  6
  3  4  2  0
  3  8  1  0
  4  5  1  0
  5  6  2  0
  6  7  1  0
  6  9  1  0
  7  8  2  0
  9 10  2  0
  9 22  1  0
 10 11  1  0
 11 12  2  0
 12 13  1  0
 12 21  1  0
 14 13  1  1
 15 14  1  1
 16 15  1  1
 15 20  1  0
 17 16  1  1
 18 17  1  1
 19 18  1  1
 20 19  1  6
 21 22  2  0
 22 23  1  0
 23 24  2  0
 23 28  1  0
 24 25  1  0
 25 26  2  0
 26 27  1  0
 26 29  1  0
 27 28  2  0
 29 30  2  0
 29 33  1  0
 30 31  1  0
 31 32  1  0
 32 33  2  0
M  CHG  2   1   1  18   1
M  END
$$$$
