
     RDKit          3D

 33 37  0  0  0  0  0  0  0  0999 V2000
  -57.5845   33.1700    9.9483 N   0  0  0  0  0  4  0  0  0  0  0  0
  -57.5255   33.0854   11.4340 C   0  0  0  0  0  0  0  0  0  0  0  0
  -57.7319   31.6769   11.8577 C   0  0  0  0  0  0  0  0  0  0  0  0
  -58.5311   31.4059   12.9442 C   0  0  0  0  0  0  0  0  0  0  0  0
  -58.7704   30.1281   13.3992 C   0  0  0  0  0  0  0  0  0  0  0  0
  -58.1947   29.0250   12.7572 C   0  0  0  0  0  0  0  0  0  0  0  0
  -57.3929   29.3138   11.6653 C   0  0  0  0  0  0  0  0  0  0  0  0
  -57.1595   30.5985   11.2172 C   0  0  0  0  0  0  0  0  0  0  0  0
  -58.4354   27.6883   13.2248 C   0  0  0  0  0  0  0  0  0  0  0  0
  -59.6675   27.1676   13.2531 N   0  0  0  0  0  0  0  0  0  0  0  0
  -59.9319   25.9272   13.6824 C   0  0  0  0  0  0  0  0  0  0  0  0
  -58.9140   25.1251   14.1212 C   0  0  0  0  0  0  0  0  0  0  0  0
  -59.1139   23.8321   14.5793 O   0  0  0  0  0  0  0  0  0  0  0  0
  -57.9940   23.0915   15.0104 C   0  0  0  0  0  0  0  0  0  0  0  0
  -58.5107   21.7054   15.4012 C   0  0  1  0  0  0  0  0  0  0  0  0
  -59.4446   21.8162   16.5675 C   0  0  0  0  0  0  0  0  0  0  0  0
  -60.4270   20.6683   16.5587 C   0  0  0  0  0  0  0  0  0  0  0  0
  -59.8445   19.5000   15.9692 N   0  0  0  0  0  4  0  0  0  0  0  0
  -59.5282   19.6523   14.5701 C   0  0  0  0  0  0  0  0  0  0  0  0
  -59.1565   21.0497   14.2012 C   0  0  0  0  0  0  0  0  0  0  0  0
  -57.6652   25.6123   14.1077 N   0  0  0  0  0  0  0  0  0  0  0  0
  -57.4186   26.8803   13.6656 C   0  0  0  0  0  0  0  0  0  0  0  0
  -56.0670   27.4194   13.6489 C   0  0  0  0  0  0  0  0  0  0  0  0
  -55.0085   26.8459   12.9822 C   0  0  0  0  0  0  0  0  0  0  0  0
  -53.7506   27.4184   13.0081 C   0  0  0  0  0  0  0  0  0  0  0  0
  -53.5247   28.5845   13.7065 C   0  0  0  0  0  0  0  0  0  0  0  0
  -54.5739   29.1749   14.3819 C   0  0  0  0  0  0  0  0  0  0  0  0
  -55.8229   28.5861   14.3429 C   0  0  0  0  0  0  0  0  0  0  0  0
  -52.1990   29.1877   13.7310 C   0  0  0  0  0  0  0  0  0  0  0  0
  -51.7402   30.1590   14.5715 C   0  0  0  0  0  0  0  0  0  0  0  0
  -50.4648   30.4210   14.2468 N   0  0  0  0  0  0  0  0  0  0  0  0
  -50.0848   29.6479   13.2211 N   0  0  0  0  0  0  0  0  0  0  0  0
  -51.1511   28.8779   12.8913 C   0  0  0  0  0  0  0  0  0  0  0  0
  1  2  1  1
  2  3  1  6
  3  4  2  0
  3  8  1  0
  4  5  1  0
  5  6  2  0
  6  7  1  0
  6  9  1  0
  7  8  2  0
  9 10  2  0
  9 22  1  0
 10 11  1  0
 11 12  2  0
 12 13  1  0
 12 21  1  0
 14 13  1  1
 15 14  1  6
 16 15  1  1
 15 20  1  0
 17 16  1  1
 18 17  1  1
 19 18  1  1
 20 19  1  6
 21 22  2  0
 22 23  1  0
 23 24  2  0
 23 28  1  0
 24 25  1  0
 25 26  2  0
 26 27  1  0
 26 29  1  0
 27 28  2  0
 29 30  2  0
 29 33  1  0
 30 31  1  0
 31 32  1  0
 32 33  2  0
M  CHG  2   1   1  18   1
M  END
$$$$
