
     RDKit          3D

 33 37  0  0  0  0  0  0  0  0999 V2000
  -57.5281   28.9836    8.2768 N   0  0  0  0  0  4  0  0  0  0  0  0
  -58.2721   28.7047    9.5009 C   0  0  0  0  0  0  0  0  0  0  0  0
  -57.3213   28.3352   10.5938 C   0  0  0  0  0  0  0  0  0  0  0  0
  -57.5626   28.6666   11.9062 C   0  0  0  0  0  0  0  0  0  0  0  0
  -56.6744   28.3167   12.8923 C   0  0  0  0  0  0  0  0  0  0  0  0
  -55.5382   27.6300   12.5539 C   0  0  0  0  0  0  0  0  0  0  0  0
  -55.2897   27.2950   11.2448 C   0  0  0  0  0  0  0  0  0  0  0  0
  -56.1735   27.6405   10.2460 C   0  0  0  0  0  0  0  0  0  0  0  0
  -54.5548   27.2289   13.5393 C   0  0  0  0  0  0  0  0  0  0  0  0
  -53.2328   27.4195   13.3719 N   0  0  0  0  0  0  0  0  0  0  0  0
  -52.3567   27.0393   14.2960 C   0  0  0  0  0  0  0  0  0  0  0  0
  -52.7604   26.4183   15.4976 C   0  0  0  0  0  0  0  0  0  0  0  0
  -51.9280   26.0348   16.4224 O   0  0  0  0  0  0  0  0  0  0  0  0
  -51.1164   25.6719   17.3379 C   0  0  0  0  0  0  0  0  0  0  0  0
  -51.8610   24.9672   18.4964 C   0  0  1  0  0  0  0  0  0  0  0  0
  -53.1930   24.5152   17.9366 C   0  0  0  0  0  0  0  0  0  0  0  0
  -53.9539   23.6778   18.9404 C   0  0  0  0  0  0  0  0  0  0  0  0
  -53.2364   23.5052   20.1686 N   0  0  0  0  0  4  0  0  0  0  0  0
  -51.8815   23.0627   20.0157 C   0  0  0  0  0  0  0  0  0  0  0  0
  -51.1119   23.7554   18.9413 C   0  0  0  0  0  0  0  0  0  0  0  0
  -54.1204   26.2470   15.6189 N   0  0  0  0  0  0  0  0  0  0  0  0
  -54.9989   26.6267   14.6954 C   0  0  0  0  0  0  0  0  0  0  0  0
  -56.4321   26.4275   14.8676 C   0  0  0  0  0  0  0  0  0  0  0  0
  -57.2124   25.6318   14.0878 C   0  0  0  0  0  0  0  0  0  0  0  0
  -58.5806   25.5119   14.3459 C   0  0  0  0  0  0  0  0  0  0  0  0
  -59.1918   26.1856   15.3881 C   0  0  0  0  0  0  0  0  0  0  0  0
  -58.3902   26.9978   16.1824 C   0  0  0  0  0  0  0  0  0  0  0  0
  -57.0427   27.1073   15.9174 C   0  0  0  0  0  0  0  0  0  0  0  0
  -60.6071   26.0794   15.6784 C   0  0  0  0  0  0  0  0  0  0  0  0
  -61.5251   25.2764   15.0392 C   0  0  0  0  0  0  0  0  0  0  0  0
  -62.7409   25.4761   15.6157 N   0  0  0  0  0  0  0  0  0  0  0  0
  -62.6027   26.3661   16.5786 N   0  0  0  0  0  0  0  0  0  0  0  0
  -61.3012   26.7629   16.6492 C   0  0  0  0  0  0  0  0  0  0  0  0
  1  2  1  0
  2  3  1  0
  3  4  2  0
  3  8  1  0
  4  5  1  0
  5  6  2  0
  6  7  1  0
  6  9  1  0
  7  8  2  0
  9 10  2  0
  9 22  1  0
 10 11  1  0
 11 12  2  0
 12 13  1  0
 12 21  1  0
 13 14  1  0
 15 14  1  6
 15 16  1  0
 15 20  1  0
 16 17  1  0
 17 18  1  0
 18 19  1  0
 19 20  1  0
 21 22  2  0
 22 23  1  0
 23 24  2  0
 23 28  1  0
 24 25  1  0
 25 26  2  0
 26 27  1  0
 26 29  1  0
 27 28  2  0
 29 30  2  0
 29 33  1  0
 30 31  1  0
 31 32  1  0
 32 33  2  0
M  CHG  2   1   1  18   1
M  END
$$$$
