
     RDKit          3D

 33 37  0  0  0  0  0  0  0  0999 V2000
  -56.4674   28.6181   23.2595 N   0  0  0  0  0  4  0  0  0  0  0  0
  -55.5300   29.3777   22.3866 C   0  0  0  0  0  0  0  0  0  0  0  0
  -55.6474   28.8870   20.9897 C   0  0  0  0  0  0  0  0  0  0  0  0
  -54.5228   28.4540   20.3263 C   0  0  0  0  0  0  0  0  0  0  0  0
  -54.5493   27.9862   19.0312 C   0  0  0  0  0  0  0  0  0  0  0  0
  -55.7537   27.9311   18.3193 C   0  0  0  0  0  0  0  0  0  0  0  0
  -56.8770   28.3703   19.0004 C   0  0  0  0  0  0  0  0  0  0  0  0
  -56.8396   28.8375   20.2989 C   0  0  0  0  0  0  0  0  0  0  0  0
  -55.7925   27.4475   16.9673 C   0  0  0  0  0  0  0  0  0  0  0  0
  -56.3832   28.1454   15.9906 N   0  0  0  0  0  0  0  0  0  0  0  0
  -56.4406   27.7279   14.7197 C   0  0  0  0  0  0  0  0  0  0  0  0
  -55.8766   26.5320   14.3678 C   0  0  0  0  0  0  0  0  0  0  0  0
  -55.8984   26.0376   13.0729 O   0  0  0  0  0  0  0  0  0  0  0  0
  -55.4383   24.7238   12.8476 C   0  0  0  0  0  0  0  0  0  0  0  0
  -55.6221   24.4463   11.3542 C   0  0  1  0  0  0  0  0  0  0  0  0
  -57.0798   24.4466   11.0080 C   0  0  0  0  0  0  0  0  0  0  0  0
  -57.2704   24.8260    9.5580 C   0  0  0  0  0  0  0  0  0  0  0  0
  -56.1494   24.4118    8.7684 N   0  0  0  0  0  4  0  0  0  0  0  0
  -54.9196   25.0845    9.1091 C   0  0  0  0  0  0  0  0  0  0  0  0
  -54.8349   25.4578   10.5515 C   0  0  0  0  0  0  0  0  0  0  0  0
  -55.2753   25.8043   15.3196 N   0  0  0  0  0  0  0  0  0  0  0  0
  -55.2287   26.2495   16.6094 C   0  0  0  0  0  0  0  0  0  0  0  0
  -54.5803   25.4662   17.6504 C   0  0  0  0  0  0  0  0  0  0  0  0
  -53.3430   24.8770   17.5244 C   0  0  0  0  0  0  0  0  0  0  0  0
  -52.7874   24.1492   18.5600 C   0  0  0  0  0  0  0  0  0  0  0  0
  -53.4630   23.9951   19.7508 C   0  0  0  0  0  0  0  0  0  0  0  0
  -54.7056   24.5786   19.8965 C   0  0  0  0  0  0  0  0  0  0  0  0
  -55.2425   25.3017   18.8491 C   0  0  0  0  0  0  0  0  0  0  0  0
  -52.8752   23.2297   20.8419 C   0  0  0  0  0  0  0  0  0  0  0  0
  -51.6450   22.6416   20.8800 C   0  0  0  0  0  0  0  0  0  0  0  0
  -51.5090   22.0396   22.0715 N   0  0  0  0  0  0  0  0  0  0  0  0
  -52.6146   22.2208   22.8056 N   0  0  0  0  0  0  0  0  0  0  0  0
  -53.4704   22.9575   22.0547 C   0  0  0  0  0  0  0  0  0  0  0  0
  1  2  1  1
  2  3  1  6
  3  4  2  0
  3  8  1  0
  4  5  1  0
  5  6  2  0
  6  7  1  0
  6  9  1  0
  7  8  2  0
  9 10  2  0
  9 22  1  0
 10 11  1  0
 11 12  2  0
 12 13  1  0
 12 21  1  0
 14 13  1  1
 15 14  1  1
 16 15  1  1
 15 20  1  0
 17 16  1  1
 18 17  1  1
 19 18  1  1
 20 19  1  6
 21 22  2  0
 22 23  1  0
 23 24  2  0
 23 28  1  0
 24 25  1  0
 25 26  2  0
 26 27  1  0
 26 29  1  0
 27 28  2  0
 29 30  2  0
 29 33  1  0
 30 31  1  0
 31 32  1  0
 32 33  2  0
M  CHG  2   1   1  18   1
M  END
$$$$
