
     RDKit          3D

 33 37  0  0  0  0  0  0  0  0999 V2000
  -57.0924   30.0742    8.7882 N   0  0  0  0  0  4  0  0  0  0  0  0
  -57.1699   30.7580   10.0752 C   0  0  0  0  0  0  0  0  0  0  0  0
  -57.5316   29.7774   11.1442 C   0  0  0  0  0  0  0  0  0  0  0  0
  -58.7445   29.1299   11.1525 C   0  0  0  0  0  0  0  0  0  0  0  0
  -59.0541   28.2340   12.1450 C   0  0  0  0  0  0  0  0  0  0  0  0
  -58.1372   27.9899   13.1334 C   0  0  0  0  0  0  0  0  0  0  0  0
  -56.9230   28.6329   13.1323 C   0  0  0  0  0  0  0  0  0  0  0  0
  -56.6005   29.5342   12.1415 C   0  0  0  0  0  0  0  0  0  0  0  0
  -58.3942   27.0596   14.2138 C   0  0  0  0  0  0  0  0  0  0  0  0
  -59.1899   27.3548   15.2586 N   0  0  0  0  0  0  0  0  0  0  0  0
  -59.4047   26.4781   16.2339 C   0  0  0  0  0  0  0  0  0  0  0  0
  -58.8144   25.1960   16.2293 C   0  0  0  0  0  0  0  0  0  0  0  0
  -59.0048   24.3145   17.1685 O   0  0  0  0  0  0  0  0  0  0  0  0
  -59.2077   23.4513   18.0862 C   0  0  0  0  0  0  0  0  0  0  0  0
  -59.8450   22.1644   17.5107 C   0  0  1  0  0  0  0  0  0  0  0  0
  -61.2384   22.0784   18.0963 C   0  0  0  0  0  0  0  0  0  0  0  0
  -62.0188   20.9340   17.4886 C   0  0  0  0  0  0  0  0  0  0  0  0
  -61.2641   20.2148   16.5057 N   0  0  0  0  0  4  0  0  0  0  0  0
  -60.6446   21.0343   15.5059 C   0  0  0  0  0  0  0  0  0  0  0  0
  -59.9727   22.2605   16.0268 C   0  0  0  0  0  0  0  0  0  0  0  0
  -58.0110   24.9449   15.1406 N   0  0  0  0  0  0  0  0  0  0  0  0
  -57.7947   25.8208   14.1634 C   0  0  0  0  0  0  0  0  0  0  0  0
  -56.9373   25.5106   13.0268 C   0  0  0  0  0  0  0  0  0  0  0  0
  -55.5823   25.6290   13.0114 C   0  0  0  0  0  0  0  0  0  0  0  0
  -54.8568   25.3000   11.8633 C   0  0  0  0  0  0  0  0  0  0  0  0
  -55.4738   24.8469   10.7110 C   0  0  0  0  0  0  0  0  0  0  0  0
  -56.8588   24.7276   10.7315 C   0  0  0  0  0  0  0  0  0  0  0  0
  -57.5623   25.0552   11.8697 C   0  0  0  0  0  0  0  0  0  0  0  0
  -54.7466   24.4986    9.5074 C   0  0  0  0  0  0  0  0  0  0  0  0
  -55.2823   24.1844    8.2784 C   0  0  0  0  0  0  0  0  0  0  0  0
  -54.2589   23.9195    7.4222 N   0  0  0  0  0  0  0  0  0  0  0  0
  -53.1231   24.0590    8.0770 N   0  0  0  0  0  0  0  0  0  0  0  0
  -53.3811   24.4156    9.3665 C   0  0  0  0  0  0  0  0  0  0  0  0
  1  2  1  0
  2  3  1  0
  3  4  2  0
  3  8  1  0
  4  5  1  0
  5  6  2  0
  6  7  1  0
  6  9  1  0
  7  8  2  0
  9 10  2  0
  9 22  1  0
 10 11  1  0
 11 12  2  0
 12 13  1  0
 12 21  1  0
 13 14  1  0
 15 14  1  1
 15 16  1  0
 15 20  1  0
 16 17  1  0
 17 18  1  0
 18 19  1  0
 19 20  1  0
 21 22  2  0
 22 23  1  0
 23 24  2  0
 23 28  1  0
 24 25  1  0
 25 26  2  0
 26 27  1  0
 26 29  1  0
 27 28  2  0
 29 30  2  0
 29 33  1  0
 30 31  1  0
 31 32  1  0
 32 33  2  0
M  CHG  2   1   1  18   1
M  END
$$$$
