
     RDKit          3D

 33 37  0  0  0  0  0  0  0  0999 V2000
  -52.7058   30.8071   13.3134 N   0  0  0  0  0  4  0  0  0  0  0  0
  -52.1001   29.4887   13.1567 C   0  0  0  0  0  0  0  0  0  0  0  0
  -53.1524   28.4341   13.2816 C   0  0  0  0  0  0  0  0  0  0  0  0
  -53.9327   28.3197   14.4079 C   0  0  0  0  0  0  0  0  0  0  0  0
  -54.8923   27.3428   14.4996 C   0  0  0  0  0  0  0  0  0  0  0  0
  -55.0661   26.4776   13.4516 C   0  0  0  0  0  0  0  0  0  0  0  0
  -54.2904   26.5853   12.3226 C   0  0  0  0  0  0  0  0  0  0  0  0
  -53.3240   27.5615   12.2186 C   0  0  0  0  0  0  0  0  0  0  0  0
  -56.0571   25.4212   13.4772 C   0  0  0  0  0  0  0  0  0  0  0  0
  -56.9034   25.1882   12.4566 N   0  0  0  0  0  0  0  0  0  0  0  0
  -57.8015   24.2103   12.5123 C   0  0  0  0  0  0  0  0  0  0  0  0
  -57.9179   23.3661   13.6375 C   0  0  0  0  0  0  0  0  0  0  0  0
  -58.7861   22.3995   13.7231 O   0  0  0  0  0  0  0  0  0  0  0  0
  -59.6256   21.4427   13.8141 C   0  0  0  0  0  0  0  0  0  0  0  0
  -60.4040   21.5085   15.1494 C   0  0  1  0  0  0  0  0  0  0  0  0
  -61.1994   20.2239   15.2446 C   0  0  0  0  0  0  0  0  0  0  0  0
  -61.8903   20.1049   16.5849 C   0  0  0  0  0  0  0  0  0  0  0  0
  -61.6236   21.2217   17.4419 N   0  0  0  0  0  4  0  0  0  0  0  0
  -60.2363   21.5555   17.5795 C   0  0  0  0  0  0  0  0  0  0  0  0
  -59.4605   21.5543   16.3049 C   0  0  0  0  0  0  0  0  0  0  0  0
  -57.0308   23.6462   14.6515 N   0  0  0  0  0  0  0  0  0  0  0  0
  -56.1312   24.6243   14.5979 C   0  0  0  0  0  0  0  0  0  0  0  0
  -55.2088   24.8834   15.6958 C   0  0  0  0  0  0  0  0  0  0  0  0
  -53.8531   24.8085   15.6152 C   0  0  0  0  0  0  0  0  0  0  0  0
  -53.0620   25.0812   16.7345 C   0  0  0  0  0  0  0  0  0  0  0  0
  -53.6132   25.4335   17.9534 C   0  0  0  0  0  0  0  0  0  0  0  0
  -54.9993   25.5088   18.0310 C   0  0  0  0  0  0  0  0  0  0  0  0
  -55.7678   25.2375   16.9202 C   0  0  0  0  0  0  0  0  0  0  0  0
  -52.8174   25.7218   19.1291 C   0  0  0  0  0  0  0  0  0  0  0  0
  -51.4443   25.7956   19.2014 C   0  0  0  0  0  0  0  0  0  0  0  0
  -51.0998   26.0875   20.4846 N   0  0  0  0  0  0  0  0  0  0  0  0
  -52.2042   26.1947   21.1968 N   0  0  0  0  0  0  0  0  0  0  0  0
  -53.2854   25.9761   20.3970 C   0  0  0  0  0  0  0  0  0  0  0  0
  1  2  1  0
  2  3  1  0
  3  4  2  0
  3  8  1  0
  4  5  1  0
  5  6  2  0
  6  7  1  0
  6  9  1  0
  7  8  2  0
  9 10  2  0
  9 22  1  0
 10 11  1  0
 11 12  2  0
 12 13  1  0
 12 21  1  0
 13 14  1  0
 15 14  1  6
 15 16  1  0
 15 20  1  0
 16 17  1  0
 17 18  1  0
 18 19  1  0
 19 20  1  0
 21 22  2  0
 22 23  1  0
 23 24  2  0
 23 28  1  0
 24 25  1  0
 25 26  2  0
 26 27  1  0
 26 29  1  0
 27 28  2  0
 29 30  2  0
 29 33  1  0
 30 31  1  0
 31 32  1  0
 32 33  2  0
M  CHG  2   1   1  18   1
M  END
$$$$
