
     RDKit          3D

 33 37  0  0  0  0  0  0  0  0999 V2000
  -53.0973   26.7775   10.0902 N   0  0  0  0  0  4  0  0  0  0  0  0
  -53.1440   25.4118   10.6024 C   0  0  0  0  0  0  0  0  0  0  0  0
  -54.2569   25.2841   11.5924 C   0  0  0  0  0  0  0  0  0  0  0  0
  -54.3717   26.1348   12.6665 C   0  0  0  0  0  0  0  0  0  0  0  0
  -55.4021   25.9974   13.5626 C   0  0  0  0  0  0  0  0  0  0  0  0
  -56.3207   24.9983   13.3751 C   0  0  0  0  0  0  0  0  0  0  0  0
  -56.2132   24.1442   12.3044 C   0  0  0  0  0  0  0  0  0  0  0  0
  -55.1834   24.2718   11.3981 C   0  0  0  0  0  0  0  0  0  0  0  0
  -57.4333   24.7912   14.2797 C   0  0  0  0  0  0  0  0  0  0  0  0
  -58.7091   24.7001   13.8601 N   0  0  0  0  0  0  0  0  0  0  0  0
  -59.7071   24.5100   14.7167 C   0  0  0  0  0  0  0  0  0  0  0  0
  -59.4870   24.3935   16.1061 C   0  0  0  0  0  0  0  0  0  0  0  0
  -60.4421   24.2065   16.9711 O   0  0  0  0  0  0  0  0  0  0  0  0
  -61.3844   24.0379   17.8149 C   0  0  0  0  0  0  0  0  0  0  0  0
  -62.7198   23.7163   17.1032 C   0  0  1  0  0  0  0  0  0  0  0  0
  -63.8162   24.3099   17.9621 C   0  0  0  0  0  0  0  0  0  0  0  0
  -65.1657   24.1884   17.2900 C   0  0  0  0  0  0  0  0  0  0  0  0
  -65.0860   23.5541   16.0077 N   0  0  0  0  0  4  0  0  0  0  0  0
  -64.0941   24.0995   15.1282 C   0  0  0  0  0  0  0  0  0  0  0  0
  -62.7733   24.3757   15.7653 C   0  0  0  0  0  0  0  0  0  0  0  0
  -58.1671   24.4936   16.4821 N   0  0  0  0  0  0  0  0  0  0  0  0
  -57.1667   24.6839   15.6265 C   0  0  0  0  0  0  0  0  0  0  0  0
  -55.7821   24.7813   16.0698 C   0  0  0  0  0  0  0  0  0  0  0  0
  -54.7256   24.1555   15.4848 C   0  0  0  0  0  0  0  0  0  0  0  0
  -53.4347   24.3221   15.9936 C   0  0  0  0  0  0  0  0  0  0  0  0
  -53.1784   25.1175   17.0961 C   0  0  0  0  0  0  0  0  0  0  0  0
  -54.2614   25.7551   17.6907 C   0  0  0  0  0  0  0  0  0  0  0  0
  -55.5289   25.5825   17.1793 C   0  0  0  0  0  0  0  0  0  0  0  0
  -51.8509   25.3081   17.6440 C   0  0  0  0  0  0  0  0  0  0  0  0
  -50.6669   24.8274   17.1311 C   0  0  0  0  0  0  0  0  0  0  0  0
  -49.6546   25.2299   17.9457 N   0  0  0  0  0  0  0  0  0  0  0  0
  -50.1713   25.9353   18.9326 N   0  0  0  0  0  0  0  0  0  0  0  0
  -51.5236   26.0066   18.7826 C   0  0  0  0  0  0  0  0  0  0  0  0
  1  2  1  0
  2  3  1  0
  3  4  2  0
  3  8  1  0
  4  5  1  0
  5  6  2  0
  6  7  1  0
  6  9  1  0
  7  8  2  0
  9 10  2  0
  9 22  1  0
 10 11  1  0
 11 12  2  0
 12 13  1  0
 12 21  1  0
 13 14  1  0
 15 14  1  1
 15 16  1  0
 15 20  1  0
 16 17  1  0
 17 18  1  0
 18 19  1  0
 19 20  1  0
 21 22  2  0
 22 23  1  0
 23 24  2  0
 23 28  1  0
 24 25  1  0
 25 26  2  0
 26 27  1  0
 26 29  1  0
 27 28  2  0
 29 30  2  0
 29 33  1  0
 30 31  1  0
 31 32  1  0
 32 33  2  0
M  CHG  2   1   1  18   1
M  END
$$$$
