
     RDKit          3D

 33 37  0  0  0  0  0  0  0  0999 V2000
  -58.1254   28.5187    9.9280 N   0  0  0  0  0  4  0  0  0  0  0  0
  -56.8077   29.1418    9.8556 C   0  0  0  0  0  0  0  0  0  0  0  0
  -56.0284   28.8142   11.0887 C   0  0  0  0  0  0  0  0  0  0  0  0
  -55.6106   29.7906   11.9619 C   0  0  0  0  0  0  0  0  0  0  0  0
  -54.8958   29.4653   13.0874 C   0  0  0  0  0  0  0  0  0  0  0  0
  -54.6009   28.1501   13.3337 C   0  0  0  0  0  0  0  0  0  0  0  0
  -55.0148   27.1685   12.4661 C   0  0  0  0  0  0  0  0  0  0  0  0
  -55.7329   27.4824   11.3330 C   0  0  0  0  0  0  0  0  0  0  0  0
  -53.8494   27.7314   14.4994 C   0  0  0  0  0  0  0  0  0  0  0  0
  -52.5127   27.8606   14.5922 N   0  0  0  0  0  0  0  0  0  0  0  0
  -51.8533   27.4659   15.6763 C   0  0  0  0  0  0  0  0  0  0  0  0
  -52.5131   26.8927   16.7846 C   0  0  0  0  0  0  0  0  0  0  0  0
  -51.8967   26.4965   17.8609 O   0  0  0  0  0  0  0  0  0  0  0  0
  -51.3053   26.1133   18.9249 C   0  0  0  0  0  0  0  0  0  0  0  0
  -51.8029   24.7170   19.3678 C   0  0  1  0  0  0  0  0  0  0  0  0
  -53.3028   24.8316   19.5383 C   0  0  0  0  0  0  0  0  0  0  0  0
  -53.9263   23.4843   19.8277 C   0  0  0  0  0  0  0  0  0  0  0  0
  -52.9594   22.4274   19.8628 N   0  0  0  0  0  4  0  0  0  0  0  0
  -52.0786   22.3811   18.7328 C   0  0  0  0  0  0  0  0  0  0  0  0
  -51.5349   23.7034   18.3056 C   0  0  0  0  0  0  0  0  0  0  0  0
  -53.8770   26.7832   16.6389 N   0  0  0  0  0  0  0  0  0  0  0  0
  -54.5390   27.1776   15.5549 C   0  0  0  0  0  0  0  0  0  0  0  0
  -55.9859   27.0446   15.4452 C   0  0  0  0  0  0  0  0  0  0  0  0
  -56.6353   26.0061   14.8538 C   0  0  0  0  0  0  0  0  0  0  0  0
  -58.0317   25.9796   14.8072 C   0  0  0  0  0  0  0  0  0  0  0  0
  -58.8026   26.9912   15.3513 C   0  0  0  0  0  0  0  0  0  0  0  0
  -58.1344   28.0507   15.9546 C   0  0  0  0  0  0  0  0  0  0  0  0
  -56.7574   28.0648   15.9938 C   0  0  0  0  0  0  0  0  0  0  0  0
  -60.2509   26.9891   15.3175 C   0  0  0  0  0  0  0  0  0  0  0  0
  -61.0680   25.9544   14.9204 C   0  0  0  0  0  0  0  0  0  0  0  0
  -62.3604   26.3618   15.0394 N   0  0  0  0  0  0  0  0  0  0  0  0
  -62.3654   27.6001   15.4921 N   0  0  0  0  0  0  0  0  0  0  0  0
  -61.0835   28.0233   15.6764 C   0  0  0  0  0  0  0  0  0  0  0  0
  1  2  1  0
  2  3  1  0
  3  4  2  0
  3  8  1  0
  4  5  1  0
  5  6  2  0
  6  7  1  0
  6  9  1  0
  7  8  2  0
  9 10  2  0
  9 22  1  0
 10 11  1  0
 11 12  2  0
 12 13  1  0
 12 21  1  0
 13 14  1  0
 15 14  1  6
 15 16  1  0
 15 20  1  0
 16 17  1  0
 17 18  1  0
 18 19  1  0
 19 20  1  0
 21 22  2  0
 22 23  1  0
 23 24  2  0
 23 28  1  0
 24 25  1  0
 25 26  2  0
 26 27  1  0
 26 29  1  0
 27 28  2  0
 29 30  2  0
 29 33  1  0
 30 31  1  0
 31 32  1  0
 32 33  2  0
M  CHG  2   1   1  18   1
M  END
$$$$
