
     RDKit          3D

 33 37  0  0  0  0  0  0  0  0999 V2000
  -61.7932   32.4138   12.7399 N   0  0  0  0  0  4  0  0  0  0  0  0
  -62.2919   31.0231   12.9277 C   0  0  0  0  0  0  0  0  0  0  0  0
  -61.1759   30.1546   13.3815 C   0  0  0  0  0  0  0  0  0  0  0  0
  -61.4560   28.9496   13.9833 C   0  0  0  0  0  0  0  0  0  0  0  0
  -60.4779   28.0898   14.4318 C   0  0  0  0  0  0  0  0  0  0  0  0
  -59.1238   28.4164   14.2892 C   0  0  0  0  0  0  0  0  0  0  0  0
  -58.8578   29.6323   13.6815 C   0  0  0  0  0  0  0  0  0  0  0  0
  -59.8458   30.4870   13.2354 C   0  0  0  0  0  0  0  0  0  0  0  0
  -58.0957   27.5283   14.7556 C   0  0  0  0  0  0  0  0  0  0  0  0
  -57.0751   27.1650   13.9705 N   0  0  0  0  0  0  0  0  0  0  0  0
  -56.0989   26.3394   14.3685 C   0  0  0  0  0  0  0  0  0  0  0  0
  -56.1154   25.8234   15.6355 C   0  0  0  0  0  0  0  0  0  0  0  0
  -55.1392   24.9636   16.1147 O   0  0  0  0  0  0  0  0  0  0  0  0
  -54.1616   24.4896   15.2158 C   0  0  0  0  0  0  0  0  0  0  0  0
  -53.4514   23.3285   15.9148 C   0  0  1  0  0  0  0  0  0  0  0  0
  -52.4814   23.8557   16.9277 C   0  0  0  0  0  0  0  0  0  0  0  0
  -52.2733   22.8402   18.0270 C   0  0  0  0  0  0  0  0  0  0  0  0
  -52.4315   21.5065   17.5291 N   0  0  0  0  0  4  0  0  0  0  0  0
  -53.7694   21.2104   17.0783 C   0  0  0  0  0  0  0  0  0  0  0  0
  -54.4787   22.4004   16.5235 C   0  0  0  0  0  0  0  0  0  0  0  0
  -57.1226   26.1649   16.4516 N   0  0  0  0  0  0  0  0  0  0  0  0
  -58.1075   27.0084   16.0247 C   0  0  0  0  0  0  0  0  0  0  0  0
  -59.2063   27.3837   16.9020 C   0  0  0  0  0  0  0  0  0  0  0  0
  -60.2205   26.5362   17.2853 C   0  0  0  0  0  0  0  0  0  0  0  0
  -61.2312   26.9629   18.1264 C   0  0  0  0  0  0  0  0  0  0  0  0
  -61.2476   28.2550   18.6043 C   0  0  0  0  0  0  0  0  0  0  0  0
  -60.2389   29.1203   18.2310 C   0  0  0  0  0  0  0  0  0  0  0  0
  -59.2386   28.6735   17.3896 C   0  0  0  0  0  0  0  0  0  0  0  0
  -62.3121   28.7024   19.4923 C   0  0  0  0  0  0  0  0  0  0  0  0
  -63.3568   27.9712   19.9764 C   0  0  0  0  0  0  0  0  0  0  0  0
  -64.0987   28.7725   20.7564 N   0  0  0  0  0  0  0  0  0  0  0  0
  -63.5650   30.0005   20.7912 N   0  0  0  0  0  0  0  0  0  0  0  0
  -62.4561   29.9710   20.0113 C   0  0  0  0  0  0  0  0  0  0  0  0
  1  2  1  1
  2  3  1  6
  3  4  2  0
  3  8  1  0
  4  5  1  0
  5  6  2  0
  6  7  1  0
  6  9  1  0
  7  8  2  0
  9 10  2  0
  9 22  1  0
 10 11  1  0
 11 12  2  0
 12 13  1  0
 12 21  1  0
 14 13  1  1
 15 14  1  1
 16 15  1  1
 15 20  1  0
 17 16  1  1
 18 17  1  1
 19 18  1  1
 20 19  1  6
 21 22  2  0
 22 23  1  0
 23 24  2  0
 23 28  1  0
 24 25  1  0
 25 26  2  0
 26 27  1  0
 26 29  1  0
 27 28  2  0
 29 30  2  0
 29 33  1  0
 30 31  1  0
 31 32  1  0
 32 33  2  0
M  CHG  2   1   1  18   1
M  END
$$$$
