
     RDKit          3D

 33 37  0  0  0  0  0  0  0  0999 V2000
  -59.4977   25.7649   22.4373 N   0  0  0  0  0  4  0  0  0  0  0  0
  -59.3938   27.0687   21.7250 C   0  0  0  0  0  0  0  0  0  0  0  0
  -59.0237   26.8292   20.3067 C   0  0  0  0  0  0  0  0  0  0  0  0
  -59.0089   27.8831   19.4226 C   0  0  0  0  0  0  0  0  0  0  0  0
  -58.6781   27.7423   18.0931 C   0  0  0  0  0  0  0  0  0  0  0  0
  -58.3346   26.4878   17.5745 C   0  0  0  0  0  0  0  0  0  0  0  0
  -58.3540   25.4369   18.4766 C   0  0  0  0  0  0  0  0  0  0  0  0
  -58.6871   25.5888   19.8076 C   0  0  0  0  0  0  0  0  0  0  0  0
  -57.9905   26.3291   16.1890 C   0  0  0  0  0  0  0  0  0  0  0  0
  -58.7823   26.7892   15.2137 N   0  0  0  0  0  0  0  0  0  0  0  0
  -58.4966   26.6598   13.9120 C   0  0  0  0  0  0  0  0  0  0  0  0
  -57.3448   26.0308   13.5251 C   0  0  0  0  0  0  0  0  0  0  0  0
  -56.9854   25.8609   12.1970 O   0  0  0  0  0  0  0  0  0  0  0  0
  -55.8515   25.0759   11.9031 C   0  0  0  0  0  0  0  0  0  0  0  0
  -55.7446   25.0161   10.3779 C   0  0  1  0  0  0  0  0  0  0  0  0
  -54.5288   24.2366    9.9792 C   0  0  0  0  0  0  0  0  0  0  0  0
  -54.7309   23.6184    8.6154 C   0  0  0  0  0  0  0  0  0  0  0  0
  -55.5963   24.4267    7.8096 N   0  0  0  0  0  4  0  0  0  0  0  0
  -56.9441   24.5164    8.3158 C   0  0  0  0  0  0  0  0  0  0  0  0
  -57.0186   24.4376    9.8041 C   0  0  0  0  0  0  0  0  0  0  0  0
  -56.5258   25.5563   14.4744 N   0  0  0  0  0  0  0  0  0  0  0  0
  -56.8372   25.6994   15.7959 C   0  0  0  0  0  0  0  0  0  0  0  0
  -55.9561   25.1861   16.8342 C   0  0  0  0  0  0  0  0  0  0  0  0
  -55.2685   23.9967   16.7536 C   0  0  0  0  0  0  0  0  0  0  0  0
  -54.4446   23.5746   17.7801 C   0  0  0  0  0  0  0  0  0  0  0  0
  -54.2907   24.3393   18.9159 C   0  0  0  0  0  0  0  0  0  0  0  0
  -54.9723   25.5356   19.0155 C   0  0  0  0  0  0  0  0  0  0  0  0
  -55.7905   25.9386   17.9781 C   0  0  0  0  0  0  0  0  0  0  0  0
  -53.4204   23.8941   19.9958 C   0  0  0  0  0  0  0  0  0  0  0  0
  -52.7229   22.7247   20.0765 C   0  0  0  0  0  0  0  0  0  0  0  0
  -52.0517   22.7206   21.2385 N   0  0  0  0  0  0  0  0  0  0  0  0
  -52.2944   23.8527   21.9121 N   0  0  0  0  0  0  0  0  0  0  0  0
  -53.1420   24.5897   21.1525 C   0  0  0  0  0  0  0  0  0  0  0  0
  1  2  1  1
  2  3  1  6
  3  4  2  0
  3  8  1  0
  4  5  1  0
  5  6  2  0
  6  7  1  0
  6  9  1  0
  7  8  2  0
  9 10  2  0
  9 22  1  0
 10 11  1  0
 11 12  2  0
 12 13  1  0
 12 21  1  0
 14 13  1  1
 15 14  1  1
 16 15  1  1
 15 20  1  0
 17 16  1  1
 18 17  1  1
 19 18  1  1
 20 19  1  6
 21 22  2  0
 22 23  1  0
 23 24  2  0
 23 28  1  0
 24 25  1  0
 25 26  2  0
 26 27  1  0
 26 29  1  0
 27 28  2  0
 29 30  2  0
 29 33  1  0
 30 31  1  0
 31 32  1  0
 32 33  2  0
M  CHG  2   1   1  18   1
M  END
$$$$
