
     RDKit          3D

 33 37  0  0  0  0  0  0  0  0999 V2000
  -57.8613   34.3155   12.8160 N   0  0  0  0  0  4  0  0  0  0  0  0
  -58.2072   33.0440   12.1221 C   0  0  0  0  0  0  0  0  0  0  0  0
  -57.6050   31.9010   12.8548 C   0  0  0  0  0  0  0  0  0  0  0  0
  -58.2343   30.6779   12.8385 C   0  0  0  0  0  0  0  0  0  0  0  0
  -57.7404   29.5714   13.4932 C   0  0  0  0  0  0  0  0  0  0  0  0
  -56.5465   29.6492   14.2205 C   0  0  0  0  0  0  0  0  0  0  0  0
  -55.9246   30.8869   14.2274 C   0  0  0  0  0  0  0  0  0  0  0  0
  -56.4283   31.9900   13.5678 C   0  0  0  0  0  0  0  0  0  0  0  0
  -56.0237   28.5022   14.9092 C   0  0  0  0  0  0  0  0  0  0  0  0
  -56.6708   27.9504   15.9420 N   0  0  0  0  0  0  0  0  0  0  0  0
  -56.2157   26.8825   16.6092 C   0  0  0  0  0  0  0  0  0  0  0  0
  -55.0325   26.3016   16.2423 C   0  0  0  0  0  0  0  0  0  0  0  0
  -54.5011   25.1954   16.8872 O   0  0  0  0  0  0  0  0  0  0  0  0
  -53.2523   24.7022   16.4563 C   0  0  0  0  0  0  0  0  0  0  0  0
  -52.9221   23.5062   17.3516 C   0  0  1  0  0  0  0  0  0  0  0  0
  -53.4400   23.7444   18.7372 C   0  0  0  0  0  0  0  0  0  0  0  0
  -53.7214   22.4269   19.4214 C   0  0  0  0  0  0  0  0  0  0  0  0
  -52.8401   21.4034   18.9445 N   0  0  0  0  0  4  0  0  0  0  0  0
  -53.0275   21.0793   17.5514 C   0  0  0  0  0  0  0  0  0  0  0  0
  -53.4785   22.2431   16.7335 C   0  0  0  0  0  0  0  0  0  0  0  0
  -54.3552   26.8267   15.2114 N   0  0  0  0  0  0  0  0  0  0  0  0
  -54.8382   27.9162   14.5454 C   0  0  0  0  0  0  0  0  0  0  0  0
  -54.1098   28.4951   13.4264 C   0  0  0  0  0  0  0  0  0  0  0  0
  -52.8831   29.1101   13.5309 C   0  0  0  0  0  0  0  0  0  0  0  0
  -52.2478   29.6346   12.4209 C   0  0  0  0  0  0  0  0  0  0  0  0
  -52.8311   29.5540   11.1752 C   0  0  0  0  0  0  0  0  0  0  0  0
  -54.0616   28.9410   11.0500 C   0  0  0  0  0  0  0  0  0  0  0  0
  -54.6790   28.4235   12.1722 C   0  0  0  0  0  0  0  0  0  0  0  0
  -52.1595   30.1054   10.0062 C   0  0  0  0  0  0  0  0  0  0  0  0
  -50.9695   30.7707    9.9646 C   0  0  0  0  0  0  0  0  0  0  0  0
  -50.7239   31.1035    8.6879 N   0  0  0  0  0  0  0  0  0  0  0  0
  -51.7198   30.6731    7.9023 N   0  0  0  0  0  0  0  0  0  0  0  0
  -52.6171   30.0522    8.7073 C   0  0  0  0  0  0  0  0  0  0  0  0
  1  2  1  1
  2  3  1  6
  3  4  2  0
  3  8  1  0
  4  5  1  0
  5  6  2  0
  6  7  1  0
  6  9  1  0
  7  8  2  0
  9 10  2  0
  9 22  1  0
 10 11  1  0
 11 12  2  0
 12 13  1  0
 12 21  1  0
 14 13  1  1
 15 14  1  6
 16 15  1  1
 15 20  1  0
 17 16  1  1
 18 17  1  1
 19 18  1  1
 20 19  1  6
 21 22  2  0
 22 23  1  0
 23 24  2  0
 23 28  1  0
 24 25  1  0
 25 26  2  0
 26 27  1  0
 26 29  1  0
 27 28  2  0
 29 30  2  0
 29 33  1  0
 30 31  1  0
 31 32  1  0
 32 33  2  0
M  CHG  2   1   1  18   1
M  END
$$$$
