
     RDKit          3D

 33 37  0  0  0  0  0  0  0  0999 V2000
  -57.9976   28.3835    8.7445 N   0  0  0  0  0  4  0  0  0  0  0  0
  -58.4404   28.6936   10.1000 C   0  0  0  0  0  0  0  0  0  0  0  0
  -57.4326   28.1940   11.0847 C   0  0  0  0  0  0  0  0  0  0  0  0
  -56.3412   27.4555   10.6922 C   0  0  0  0  0  0  0  0  0  0  0  0
  -55.4295   27.0072   11.6149 C   0  0  0  0  0  0  0  0  0  0  0  0
  -55.6187   27.3047   12.9389 C   0  0  0  0  0  0  0  0  0  0  0  0
  -56.7066   28.0422   13.3392 C   0  0  0  0  0  0  0  0  0  0  0  0
  -57.6287   28.4977   12.4226 C   0  0  0  0  0  0  0  0  0  0  0  0
  -54.7002   26.8645   13.9692 C   0  0  0  0  0  0  0  0  0  0  0  0
  -53.3949   27.1935   13.9735 N   0  0  0  0  0  0  0  0  0  0  0  0
  -52.5788   26.7726   14.9341 C   0  0  0  0  0  0  0  0  0  0  0  0
  -53.0317   25.9622   15.9973 C   0  0  0  0  0  0  0  0  0  0  0  0
  -52.2585   25.5340   16.9534 O   0  0  0  0  0  0  0  0  0  0  0  0
  -51.4897   25.1094   17.8793 C   0  0  0  0  0  0  0  0  0  0  0  0
  -52.2943   24.7447   19.1493 C   0  0  1  0  0  0  0  0  0  0  0  0
  -51.8864   23.3358   19.5242 C   0  0  0  0  0  0  0  0  0  0  0  0
  -52.4992   22.9203   20.8432 C   0  0  0  0  0  0  0  0  0  0  0  0
  -53.3059   23.9523   21.4239 N   0  0  0  0  0  4  0  0  0  0  0  0
  -52.6724   25.2356   21.5055 C   0  0  0  0  0  0  0  0  0  0  0  0
  -51.9282   25.6478   20.2797 C   0  0  0  0  0  0  0  0  0  0  0  0
  -54.3721   25.6550   15.9458 N   0  0  0  0  0  0  0  0  0  0  0  0
  -55.1907   26.0752   14.9854 C   0  0  0  0  0  0  0  0  0  0  0  0
  -56.6056   25.7271   14.9725 C   0  0  0  0  0  0  0  0  0  0  0  0
  -57.1788   24.8053   14.1529 C   0  0  0  0  0  0  0  0  0  0  0  0
  -58.5504   24.5482   14.2278 C   0  0  0  0  0  0  0  0  0  0  0  0
  -59.3720   25.2084   15.1238 C   0  0  0  0  0  0  0  0  0  0  0  0
  -58.7816   26.1496   15.9595 C   0  0  0  0  0  0  0  0  0  0  0  0
  -57.4284   26.3938   15.8755 C   0  0  0  0  0  0  0  0  0  0  0  0
  -60.7961   24.9613   15.2232 C   0  0  0  0  0  0  0  0  0  0  0  0
  -61.6571   25.4547   16.1778 C   0  0  0  0  0  0  0  0  0  0  0  0
  -62.9049   24.9833   15.9112 N   0  0  0  0  0  0  0  0  0  0  0  0
  -62.8408   24.2242   14.8351 N   0  0  0  0  0  0  0  0  0  0  0  0
  -61.5569   24.1851   14.3806 C   0  0  0  0  0  0  0  0  0  0  0  0
  1  2  1  0
  2  3  1  0
  3  4  2  0
  3  8  1  0
  4  5  1  0
  5  6  2  0
  6  7  1  0
  6  9  1  0
  7  8  2  0
  9 10  2  0
  9 22  1  0
 10 11  1  0
 11 12  2  0
 12 13  1  0
 12 21  1  0
 13 14  1  0
 15 14  1  6
 15 16  1  0
 15 20  1  0
 16 17  1  0
 17 18  1  0
 18 19  1  0
 19 20  1  0
 21 22  2  0
 22 23  1  0
 23 24  2  0
 23 28  1  0
 24 25  1  0
 25 26  2  0
 26 27  1  0
 26 29  1  0
 27 28  2  0
 29 30  2  0
 29 33  1  0
 30 31  1  0
 31 32  1  0
 32 33  2  0
M  CHG  2   1   1  18   1
M  END
$$$$
