
     RDKit          3D

 33 37  0  0  0  0  0  0  0  0999 V2000
  -56.4522   30.9799    6.9728 N   0  0  0  0  0  4  0  0  0  0  0  0
  -55.4576   30.5654    8.0008 C   0  0  0  0  0  0  0  0  0  0  0  0
  -55.9900   29.4091    8.7660 C   0  0  0  0  0  0  0  0  0  0  0  0
  -56.6016   29.6228    9.9796 C   0  0  0  0  0  0  0  0  0  0  0  0
  -57.1191   28.6041   10.7486 C   0  0  0  0  0  0  0  0  0  0  0  0
  -57.0414   27.2752   10.3144 C   0  0  0  0  0  0  0  0  0  0  0  0
  -56.4231   27.0761    9.0910 C   0  0  0  0  0  0  0  0  0  0  0  0
  -55.9076   28.1044    8.3279 C   0  0  0  0  0  0  0  0  0  0  0  0
  -57.5754   26.2048   11.1095 C   0  0  0  0  0  0  0  0  0  0  0  0
  -58.6096   25.4681   10.6880 N   0  0  0  0  0  0  0  0  0  0  0  0
  -59.1355   24.4635   11.4002 C   0  0  0  0  0  0  0  0  0  0  0  0
  -58.6129   24.1480   12.6247 C   0  0  0  0  0  0  0  0  0  0  0  0
  -59.1064   23.1223   13.4160 O   0  0  0  0  0  0  0  0  0  0  0  0
  -58.2325   22.4998   14.3310 C   0  0  0  0  0  0  0  0  0  0  0  0
  -59.0834   21.5389   15.1638 C   0  0  1  0  0  0  0  0  0  0  0  0
  -60.4230   22.1496   15.4418 C   0  0  0  0  0  0  0  0  0  0  0  0
  -61.4550   21.0665   15.6535 C   0  0  0  0  0  0  0  0  0  0  0  0
  -60.8576   19.8924   16.2159 N   0  0  0  0  0  4  0  0  0  0  0  0
  -59.9050   19.2512   15.3428 C   0  0  0  0  0  0  0  0  0  0  0  0
  -59.1887   20.2093   14.4509 C   0  0  0  0  0  0  0  0  0  0  0  0
  -57.5755   24.8643   13.0806 N   0  0  0  0  0  0  0  0  0  0  0  0
  -57.0552   25.8845   12.3374 C   0  0  0  0  0  0  0  0  0  0  0  0
  -55.9306   26.6694   12.8242 C   0  0  0  0  0  0  0  0  0  0  0  0
  -55.9247   27.3690   14.0093 C   0  0  0  0  0  0  0  0  0  0  0  0
  -54.8159   28.0910   14.4094 C   0  0  0  0  0  0  0  0  0  0  0  0
  -53.6826   28.1279   13.6265 C   0  0  0  0  0  0  0  0  0  0  0  0
  -53.6693   27.4326   12.4340 C   0  0  0  0  0  0  0  0  0  0  0  0
  -54.7881   26.7176   12.0530 C   0  0  0  0  0  0  0  0  0  0  0  0
  -52.5143   28.8875   14.0505 C   0  0  0  0  0  0  0  0  0  0  0  0
  -51.3557   29.0903   13.3599 C   0  0  0  0  0  0  0  0  0  0  0  0
  -50.5466   29.8457   14.1185 N   0  0  0  0  0  0  0  0  0  0  0  0
  -51.1473   30.1377   15.2794 N   0  0  0  0  0  0  0  0  0  0  0  0
  -52.3687   29.5494   15.2505 C   0  0  0  0  0  0  0  0  0  0  0  0
  1  2  1  1
  2  3  1  6
  3  4  2  0
  3  8  1  0
  4  5  1  0
  5  6  2  0
  6  7  1  0
  6  9  1  0
  7  8  2  0
  9 10  2  0
  9 22  1  0
 10 11  1  0
 11 12  2  0
 12 13  1  0
 12 21  1  0
 14 13  1  1
 15 14  1  6
 16 15  1  1
 15 20  1  0
 17 16  1  1
 18 17  1  1
 19 18  1  1
 20 19  1  6
 21 22  2  0
 22 23  1  0
 23 24  2  0
 23 28  1  0
 24 25  1  0
 25 26  2  0
 26 27  1  0
 26 29  1  0
 27 28  2  0
 29 30  2  0
 29 33  1  0
 30 31  1  0
 31 32  1  0
 32 33  2  0
M  CHG  2   1   1  18   1
M  END
$$$$
