
     RDKit          3D

 33 37  0  0  0  0  0  0  0  0999 V2000
  -59.7859   31.3132   10.8669 N   0  0  0  0  0  4  0  0  0  0  0  0
  -60.2619   30.5706   12.0296 C   0  0  0  0  0  0  0  0  0  0  0  0
  -59.1522   29.7337   12.5801 C   0  0  0  0  0  0  0  0  0  0  0  0
  -58.6776   28.6298   11.9117 C   0  0  0  0  0  0  0  0  0  0  0  0
  -57.6580   27.8765   12.4375 C   0  0  0  0  0  0  0  0  0  0  0  0
  -57.1145   28.2374   13.6423 C   0  0  0  0  0  0  0  0  0  0  0  0
  -57.5830   29.3391   14.3165 C   0  0  0  0  0  0  0  0  0  0  0  0
  -58.6060   30.1032   13.7991 C   0  0  0  0  0  0  0  0  0  0  0  0
  -56.0378   27.4901   14.2598 C   0  0  0  0  0  0  0  0  0  0  0  0
  -56.1073   27.0114   15.5160 N   0  0  0  0  0  0  0  0  0  0  0  0
  -55.1010   26.3295   16.0529 C   0  0  0  0  0  0  0  0  0  0  0  0
  -53.9102   26.0702   15.3408 C   0  0  0  0  0  0  0  0  0  0  0  0
  -52.9069   25.4054   15.8376 O   0  0  0  0  0  0  0  0  0  0  0  0
  -51.9215   24.7464   16.3100 C   0  0  0  0  0  0  0  0  0  0  0  0
  -52.3607   23.3339   16.7629 C   0  0  1  0  0  0  0  0  0  0  0  0
  -51.4971   22.9790   17.9547 C   0  0  0  0  0  0  0  0  0  0  0  0
  -51.9367   21.6745   18.5813 C   0  0  0  0  0  0  0  0  0  0  0  0
  -53.0613   21.0936   17.9098 N   0  0  0  0  0  4  0  0  0  0  0  0
  -54.1623   21.9871   17.6989 C   0  0  0  0  0  0  0  0  0  0  0  0
  -53.7842   23.3457   17.2111 C   0  0  0  0  0  0  0  0  0  0  0  0
  -53.8903   26.5807   14.0630 N   0  0  0  0  0  0  0  0  0  0  0  0
  -54.8963   27.2633   13.5237 C   0  0  0  0  0  0  0  0  0  0  0  0
  -54.8325   27.7837   12.1641 C   0  0  0  0  0  0  0  0  0  0  0  0
  -54.8317   29.1017   11.8282 C   0  0  0  0  0  0  0  0  0  0  0  0
  -54.7646   29.4897   10.4873 C   0  0  0  0  0  0  0  0  0  0  0  0
  -54.6971   28.5662    9.4595 C   0  0  0  0  0  0  0  0  0  0  0  0
  -54.6982   27.2202    9.8077 C   0  0  0  0  0  0  0  0  0  0  0  0
  -54.7647   26.8510   11.1333 C   0  0  0  0  0  0  0  0  0  0  0  0
  -54.6263   28.9403    8.0618 C   0  0  0  0  0  0  0  0  0  0  0  0
  -54.8072   28.1155    6.9741 C   0  0  0  0  0  0  0  0  0  0  0  0
  -54.6560   28.8592    5.8451 N   0  0  0  0  0  0  0  0  0  0  0  0
  -54.3911   30.1015    6.1986 N   0  0  0  0  0  0  0  0  0  0  0  0
  -54.3640   30.1927    7.5578 C   0  0  0  0  0  0  0  0  0  0  0  0
  1  2  1  0
  2  3  1  0
  3  4  2  0
  3  8  1  0
  4  5  1  0
  5  6  2  0
  6  7  1  0
  6  9  1  0
  7  8  2  0
  9 10  2  0
  9 22  1  0
 10 11  1  0
 11 12  2  0
 12 13  1  0
 12 21  1  0
 13 14  1  0
 15 14  1  1
 15 16  1  0
 15 20  1  0
 16 17  1  0
 17 18  1  0
 18 19  1  0
 19 20  1  0
 21 22  2  0
 22 23  1  0
 23 24  2  0
 23 28  1  0
 24 25  1  0
 25 26  2  0
 26 27  1  0
 26 29  1  0
 27 28  2  0
 29 30  2  0
 29 33  1  0
 30 31  1  0
 31 32  1  0
 32 33  2  0
M  CHG  2   1   1  18   1
M  END
$$$$
