
     RDKit          3D

 33 37  0  0  0  0  0  0  0  0999 V2000
  -52.2133   31.1293   14.2190 N   0  0  0  0  0  4  0  0  0  0  0  0
  -51.5934   29.8330   13.8276 C   0  0  0  0  0  0  0  0  0  0  0  0
  -52.6063   28.7512   13.9245 C   0  0  0  0  0  0  0  0  0  0  0  0
  -53.8147   28.8943   13.2828 C   0  0  0  0  0  0  0  0  0  0  0  0
  -54.8047   27.9377   13.3255 C   0  0  0  0  0  0  0  0  0  0  0  0
  -54.6157   26.7500   14.0426 C   0  0  0  0  0  0  0  0  0  0  0  0
  -53.3944   26.6206   14.6831 C   0  0  0  0  0  0  0  0  0  0  0  0
  -52.4086   27.5857   14.6340 C   0  0  0  0  0  0  0  0  0  0  0  0
  -55.6424   25.7468   14.0961 C   0  0  0  0  0  0  0  0  0  0  0  0
  -56.5720   25.6446   13.1393 N   0  0  0  0  0  0  0  0  0  0  0  0
  -57.5444   24.7243   13.1543 C   0  0  0  0  0  0  0  0  0  0  0  0
  -57.6203   23.8279   14.1851 C   0  0  0  0  0  0  0  0  0  0  0  0
  -58.5991   22.8495   14.2660 O   0  0  0  0  0  0  0  0  0  0  0  0
  -58.5114   21.8955   15.3006 C   0  0  0  0  0  0  0  0  0  0  0  0
  -59.9131   21.3067   15.4723 C   0  0  1  0  0  0  0  0  0  0  0  0
  -60.9079   22.4056   15.6904 C   0  0  0  0  0  0  0  0  0  0  0  0
  -62.2766   21.9692   15.2225 C   0  0  0  0  0  0  0  0  0  0  0  0
  -62.4405   20.5537   15.3676 N   0  0  0  0  0  4  0  0  0  0  0  0
  -61.5604   19.7786   14.5276 C   0  0  0  0  0  0  0  0  0  0  0  0
  -60.2509   20.4477   14.2743 C   0  0  0  0  0  0  0  0  0  0  0  0
  -56.7059   23.8992   15.1627 N   0  0  0  0  0  0  0  0  0  0  0  0
  -55.7229   24.8460   15.1271 C   0  0  0  0  0  0  0  0  0  0  0  0
  -54.7266   24.9332   16.1844 C   0  0  0  0  0  0  0  0  0  0  0  0
  -53.7688   23.9767   16.4320 C   0  0  0  0  0  0  0  0  0  0  0  0
  -52.8506   24.1301   17.4539 C   0  0  0  0  0  0  0  0  0  0  0  0
  -52.8724   25.2514   18.2543 C   0  0  0  0  0  0  0  0  0  0  0  0
  -53.8259   26.2222   18.0217 C   0  0  0  0  0  0  0  0  0  0  0  0
  -54.7340   26.0489   16.9952 C   0  0  0  0  0  0  0  0  0  0  0  0
  -51.9028   25.4125   19.3294 C   0  0  0  0  0  0  0  0  0  0  0  0
  -50.8403   24.6087   19.6216 C   0  0  0  0  0  0  0  0  0  0  0  0
  -50.2117   25.1229   20.6899 N   0  0  0  0  0  0  0  0  0  0  0  0
  -50.8361   26.2356   21.0975 N   0  0  0  0  0  0  0  0  0  0  0  0
  -51.8870   26.4269   20.2622 C   0  0  0  0  0  0  0  0  0  0  0  0
  1  2  1  1
  2  3  1  6
  3  4  2  0
  3  8  1  0
  4  5  1  0
  5  6  2  0
  6  7  1  0
  6  9  1  0
  7  8  2  0
  9 10  2  0
  9 22  1  0
 10 11  1  0
 11 12  2  0
 12 13  1  0
 12 21  1  0
 14 13  1  1
 15 14  1  6
 16 15  1  1
 15 20  1  0
 17 16  1  1
 18 17  1  1
 19 18  1  1
 20 19  1  6
 21 22  2  0
 22 23  1  0
 23 24  2  0
 23 28  1  0
 24 25  1  0
 25 26  2  0
 26 27  1  0
 26 29  1  0
 27 28  2  0
 29 30  2  0
 29 33  1  0
 30 31  1  0
 31 32  1  0
 32 33  2  0
M  CHG  2   1   1  18   1
M  END
$$$$
