
     RDKit          3D

 33 37  0  0  0  0  0  0  0  0999 V2000
  -59.4848   27.6817   20.0237 N   0  0  0  0  0  4  0  0  0  0  0  0
  -59.6162   28.4712   18.8034 C   0  0  0  0  0  0  0  0  0  0  0  0
  -58.9060   27.7842   17.6814 C   0  0  0  0  0  0  0  0  0  0  0  0
  -58.2832   26.5705   17.8540 C   0  0  0  0  0  0  0  0  0  0  0  0
  -57.6370   25.9594   16.8088 C   0  0  0  0  0  0  0  0  0  0  0  0
  -57.6185   26.5742   15.5845 C   0  0  0  0  0  0  0  0  0  0  0  0
  -58.2385   27.7869   15.4038 C   0  0  0  0  0  0  0  0  0  0  0  0
  -58.8903   28.4104   16.4452 C   0  0  0  0  0  0  0  0  0  0  0  0
  -56.9553   25.9907   14.4362 C   0  0  0  0  0  0  0  0  0  0  0  0
  -55.9287   26.5887   13.8034 N   0  0  0  0  0  0  0  0  0  0  0  0
  -55.3421   26.0261   12.7520 C   0  0  0  0  0  0  0  0  0  0  0  0
  -55.7597   24.7776   12.2429 C   0  0  0  0  0  0  0  0  0  0  0  0
  -55.2062   24.1997   11.2158 O   0  0  0  0  0  0  0  0  0  0  0  0
  -54.6592   23.6480   10.2034 C   0  0  0  0  0  0  0  0  0  0  0  0
  -55.7191   23.2184    9.1615 C   0  0  1  0  0  0  0  0  0  0  0  0
  -56.8806   24.1777    9.3124 C   0  0  0  0  0  0  0  0  0  0  0  0
  -57.9228   23.9496    8.2403 C   0  0  0  0  0  0  0  0  0  0  0  0
  -57.5630   22.8953    7.3392 N   0  0  0  0  0  4  0  0  0  0  0  0
  -56.2419   22.9973    6.7922 C   0  0  0  0  0  0  0  0  0  0  0  0
  -55.1806   23.3593    7.7767 C   0  0  0  0  0  0  0  0  0  0  0  0
  -56.8112   24.2095   12.9249 N   0  0  0  0  0  0  0  0  0  0  0  0
  -57.3997   24.7707   13.9773 C   0  0  0  0  0  0  0  0  0  0  0  0
  -58.5099   24.1308   14.6711 C   0  0  0  0  0  0  0  0  0  0  0  0
  -59.7717   24.6307   14.7598 C   0  0  0  0  0  0  0  0  0  0  0  0
  -60.7634   23.9290   15.4507 C   0  0  0  0  0  0  0  0  0  0  0  0
  -60.5100   22.7155   16.0646 C   0  0  0  0  0  0  0  0  0  0  0  0
  -59.2187   22.2086   15.9714 C   0  0  0  0  0  0  0  0  0  0  0  0
  -58.2503   22.9102   15.2874 C   0  0  0  0  0  0  0  0  0  0  0  0
  -61.5185   21.9671   16.7866 C   0  0  0  0  0  0  0  0  0  0  0  0
  -61.3199   20.8499   17.5667 C   0  0  0  0  0  0  0  0  0  0  0  0
  -62.5239   20.4566   18.0629 N   0  0  0  0  0  0  0  0  0  0  0  0
  -63.4471   21.2864   17.6187 N   0  0  0  0  0  0  0  0  0  0  0  0
  -62.8673   22.2324   16.8279 C   0  0  0  0  0  0  0  0  0  0  0  0
  1  2  1  0
  2  3  1  0
  3  4  2  0
  3  8  1  0
  4  5  1  0
  5  6  2  0
  6  7  1  0
  6  9  1  0
  7  8  2  0
  9 10  2  0
  9 22  1  0
 10 11  1  0
 11 12  2  0
 12 13  1  0
 12 21  1  0
 13 14  1  0
 15 14  1  1
 15 16  1  0
 15 20  1  0
 16 17  1  0
 17 18  1  0
 18 19  1  0
 19 20  1  0
 21 22  2  0
 22 23  1  0
 23 24  2  0
 23 28  1  0
 24 25  1  0
 25 26  2  0
 26 27  1  0
 26 29  1  0
 27 28  2  0
 29 30  2  0
 29 33  1  0
 30 31  1  0
 31 32  1  0
 32 33  2  0
M  CHG  2   1   1  18   1
M  END
$$$$
