
     RDKit          3D

 33 37  0  0  0  0  0  0  0  0999 V2000
  -61.3075   31.0664   15.0622 N   0  0  0  0  0  4  0  0  0  0  0  0
  -60.7715   30.6794   13.7611 C   0  0  0  0  0  0  0  0  0  0  0  0
  -59.5714   29.8085   13.9508 C   0  0  0  0  0  0  0  0  0  0  0  0
  -58.3568   30.1159   13.3844 C   0  0  0  0  0  0  0  0  0  0  0  0
  -57.2691   29.3003   13.5725 C   0  0  0  0  0  0  0  0  0  0  0  0
  -57.4063   28.1701   14.3346 C   0  0  0  0  0  0  0  0  0  0  0  0
  -58.6166   27.8559   14.9041 C   0  0  0  0  0  0  0  0  0  0  0  0
  -59.7157   28.6665   14.7227 C   0  0  0  0  0  0  0  0  0  0  0  0
  -56.3040   27.2613   14.5754 C   0  0  0  0  0  0  0  0  0  0  0  0
  -55.5692   26.7249   13.5833 N   0  0  0  0  0  0  0  0  0  0  0  0
  -54.5642   25.8938   13.8386 C   0  0  0  0  0  0  0  0  0  0  0  0
  -54.2126   25.5292   15.1561 C   0  0  0  0  0  0  0  0  0  0  0  0
  -53.2339   24.7186   15.4397 O   0  0  0  0  0  0  0  0  0  0  0  0
  -52.2729   23.9208   15.7017 C   0  0  0  0  0  0  0  0  0  0  0  0
  -52.2334   23.5705   17.2080 C   0  0  1  0  0  0  0  0  0  0  0  0
  -53.1130   24.5857   17.9065 C   0  0  0  0  0  0  0  0  0  0  0  0
  -53.2732   24.2550   19.3737 C   0  0  0  0  0  0  0  0  0  0  0  0
  -52.5682   23.0655   19.7493 N   0  0  0  0  0  4  0  0  0  0  0  0
  -52.8176   21.9294   18.9113 C   0  0  0  0  0  0  0  0  0  0  0  0
  -52.8123   22.2158   17.4469 C   0  0  0  0  0  0  0  0  0  0  0  0
  -54.9939   26.1044   16.1319 N   0  0  0  0  0  0  0  0  0  0  0  0
  -56.0002   26.9363   15.8787 C   0  0  0  0  0  0  0  0  0  0  0  0
  -56.8002   27.5246   16.9451 C   0  0  0  0  0  0  0  0  0  0  0  0
  -56.8837   28.8540   17.2205 C   0  0  0  0  0  0  0  0  0  0  0  0
  -57.6868   29.3097   18.2695 C   0  0  0  0  0  0  0  0  0  0  0  0
  -58.4201   28.4438   19.0608 C   0  0  0  0  0  0  0  0  0  0  0  0
  -58.3315   27.0859   18.7755 C   0  0  0  0  0  0  0  0  0  0  0  0
  -57.5362   26.6497   17.7387 C   0  0  0  0  0  0  0  0  0  0  0  0
  -59.2606   28.8886   20.1538 C   0  0  0  0  0  0  0  0  0  0  0  0
  -59.4629   30.1864   20.5671 C   0  0  0  0  0  0  0  0  0  0  0  0
  -60.3200   30.1690   21.6232 N   0  0  0  0  0  0  0  0  0  0  0  0
  -60.6485   28.9163   21.8707 N   0  0  0  0  0  0  0  0  0  0  0  0
  -60.0157   28.0958   20.9860 C   0  0  0  0  0  0  0  0  0  0  0  0
  1  2  1  0
  2  3  1  0
  3  4  2  0
  3  8  1  0
  4  5  1  0
  5  6  2  0
  6  7  1  0
  6  9  1  0
  7  8  2  0
  9 10  2  0
  9 22  1  0
 10 11  1  0
 11 12  2  0
 12 13  1  0
 12 21  1  0
 13 14  1  0
 15 14  1  6
 15 16  1  0
 15 20  1  0
 16 17  1  0
 17 18  1  0
 18 19  1  0
 19 20  1  0
 21 22  2  0
 22 23  1  0
 23 24  2  0
 23 28  1  0
 24 25  1  0
 25 26  2  0
 26 27  1  0
 26 29  1  0
 27 28  2  0
 29 30  2  0
 29 33  1  0
 30 31  1  0
 31 32  1  0
 32 33  2  0
M  CHG  2   1   1  18   1
M  END
$$$$
