
     RDKit          3D

 33 37  0  0  0  0  0  0  0  0999 V2000
  -57.3450   33.8576   13.9896 N   0  0  0  0  0  4  0  0  0  0  0  0
  -58.2464   32.7102   14.0128 C   0  0  0  0  0  0  0  0  0  0  0  0
  -57.4645   31.4618   14.2675 C   0  0  0  0  0  0  0  0  0  0  0  0
  -57.1982   31.0217   15.5426 C   0  0  0  0  0  0  0  0  0  0  0  0
  -56.4776   29.8725   15.7514 C   0  0  0  0  0  0  0  0  0  0  0  0
  -56.0234   29.1639   14.6703 C   0  0  0  0  0  0  0  0  0  0  0  0
  -56.2852   29.5969   13.3929 C   0  0  0  0  0  0  0  0  0  0  0  0
  -57.0075   30.7489   13.1704 C   0  0  0  0  0  0  0  0  0  0  0  0
  -55.2554   27.9437   14.8127 C   0  0  0  0  0  0  0  0  0  0  0  0
  -54.0861   27.7381   14.1784 N   0  0  0  0  0  0  0  0  0  0  0  0
  -53.4063   26.6064   14.3307 C   0  0  0  0  0  0  0  0  0  0  0  0
  -53.8690   25.5630   15.1611 C   0  0  0  0  0  0  0  0  0  0  0  0
  -53.2270   24.4432   15.3320 O   0  0  0  0  0  0  0  0  0  0  0  0
  -52.6117   23.3386   15.5049 C   0  0  0  0  0  0  0  0  0  0  0  0
  -52.4906   22.9968   17.0088 C   0  0  1  0  0  0  0  0  0  0  0  0
  -52.2531   24.3078   17.7277 C   0  0  0  0  0  0  0  0  0  0  0  0
  -52.2661   24.1203   19.2285 C   0  0  0  0  0  0  0  0  0  0  0  0
  -52.5066   22.7605   19.6105 N   0  0  0  0  0  4  0  0  0  0  0  0
  -53.6424   22.1519   18.9825 C   0  0  0  0  0  0  0  0  0  0  0  0
  -53.7668   22.4149   17.5190 C   0  0  0  0  0  0  0  0  0  0  0  0
  -55.0673   25.8234   15.7855 N   0  0  0  0  0  0  0  0  0  0  0  0
  -55.7493   26.9552   15.6345 C   0  0  0  0  0  0  0  0  0  0  0  0
  -57.0145   27.1891   16.3184 C   0  0  0  0  0  0  0  0  0  0  0  0
  -57.2041   27.1163   17.6633 C   0  0  0  0  0  0  0  0  0  0  0  0
  -58.4644   27.3633   18.2142 C   0  0  0  0  0  0  0  0  0  0  0  0
  -59.5567   27.6873   17.4295 C   0  0  0  0  0  0  0  0  0  0  0  0
  -59.3581   27.7604   16.0554 C   0  0  0  0  0  0  0  0  0  0  0  0
  -58.1107   27.5147   15.5250 C   0  0  0  0  0  0  0  0  0  0  0  0
  -60.8736   27.9485   17.9738 C   0  0  0  0  0  0  0  0  0  0  0  0
  -61.2471   27.8966   19.2981 C   0  0  0  0  0  0  0  0  0  0  0  0
  -62.5687   28.2080   19.3811 N   0  0  0  0  0  0  0  0  0  0  0  0
  -63.0160   28.4475   18.1642 N   0  0  0  0  0  0  0  0  0  0  0  0
  -62.0009   28.2979   17.2677 C   0  0  0  0  0  0  0  0  0  0  0  0
  1  2  1  0
  2  3  1  0
  3  4  2  0
  3  8  1  0
  4  5  1  0
  5  6  2  0
  6  7  1  0
  6  9  1  0
  7  8  2  0
  9 10  2  0
  9 22  1  0
 10 11  1  0
 11 12  2  0
 12 13  1  0
 12 21  1  0
 13 14  1  0
 15 14  1  6
 15 16  1  0
 15 20  1  0
 16 17  1  0
 17 18  1  0
 18 19  1  0
 19 20  1  0
 21 22  2  0
 22 23  1  0
 23 24  2  0
 23 28  1  0
 24 25  1  0
 25 26  2  0
 26 27  1  0
 26 29  1  0
 27 28  2  0
 29 30  2  0
 29 33  1  0
 30 31  1  0
 31 32  1  0
 32 33  2  0
M  CHG  2   1   1  18   1
M  END
$$$$
