
     RDKit          3D

 33 37  0  0  0  0  0  0  0  0999 V2000
  -61.1460   33.7558   14.8545 N   0  0  0  0  0  4  0  0  0  0  0  0
  -61.2641   32.8449   13.6822 C   0  0  0  0  0  0  0  0  0  0  0  0
  -60.4731   31.6129   13.9315 C   0  0  0  0  0  0  0  0  0  0  0  0
  -59.1894   31.7175   14.4149 C   0  0  0  0  0  0  0  0  0  0  0  0
  -58.3926   30.6235   14.6705 C   0  0  0  0  0  0  0  0  0  0  0  0
  -58.8699   29.3271   14.4425 C   0  0  0  0  0  0  0  0  0  0  0  0
  -60.1637   29.2380   13.9559 C   0  0  0  0  0  0  0  0  0  0  0  0
  -60.9542   30.3411   13.7031 C   0  0  0  0  0  0  0  0  0  0  0  0
  -58.0466   28.1793   14.7030 C   0  0  0  0  0  0  0  0  0  0  0  0
  -56.7898   28.1018   14.2509 N   0  0  0  0  0  0  0  0  0  0  0  0
  -55.9922   27.0493   14.4722 C   0  0  0  0  0  0  0  0  0  0  0  0
  -56.4543   25.9823   15.1933 C   0  0  0  0  0  0  0  0  0  0  0  0
  -55.6853   24.8602   15.4605 O   0  0  0  0  0  0  0  0  0  0  0  0
  -56.2166   23.5918   15.1488 C   0  0  0  0  0  0  0  0  0  0  0  0
  -55.2973   22.5595   15.8046 C   0  0  1  0  0  0  0  0  0  0  0  0
  -53.8790   22.7945   15.3829 C   0  0  0  0  0  0  0  0  0  0  0  0
  -52.9296   22.2825   16.4410 C   0  0  0  0  0  0  0  0  0  0  0  0
  -53.4962   21.1695   17.1424 N   0  0  0  0  0  4  0  0  0  0  0  0
  -54.6703   21.5046   17.9106 C   0  0  0  0  0  0  0  0  0  0  0  0
  -55.4719   22.6086   17.3060 C   0  0  0  0  0  0  0  0  0  0  0  0
  -57.7091   26.0235   15.6630 N   0  0  0  0  0  0  0  0  0  0  0  0
  -58.5049   27.1071   15.4252 C   0  0  0  0  0  0  0  0  0  0  0  0
  -59.8692   27.1610   15.9289 C   0  0  0  0  0  0  0  0  0  0  0  0
  -60.3456   28.1284   16.7839 C   0  0  0  0  0  0  0  0  0  0  0  0
  -61.6578   28.1174   17.2182 C   0  0  0  0  0  0  0  0  0  0  0  0
  -62.5261   27.1313   16.8030 C   0  0  0  0  0  0  0  0  0  0  0  0
  -62.0669   26.1519   15.9454 C   0  0  0  0  0  0  0  0  0  0  0  0
  -60.7518   26.1816   15.5236 C   0  0  0  0  0  0  0  0  0  0  0  0
  -63.9092   27.1223   17.2599 C   0  0  0  0  0  0  0  0  0  0  0  0
  -64.8880   26.2285   16.9382 C   0  0  0  0  0  0  0  0  0  0  0  0
  -66.0099   26.5927   17.5780 N   0  0  0  0  0  0  0  0  0  0  0  0
  -65.7860   27.6957   18.3042 N   0  0  0  0  0  0  0  0  0  0  0  0
  -64.4867   28.0350   18.1160 C   0  0  0  0  0  0  0  0  0  0  0  0
  1  2  1  1
  2  3  1  6
  3  4  2  0
  3  8  1  0
  4  5  1  0
  5  6  2  0
  6  7  1  0
  6  9  1  0
  7  8  2  0
  9 10  2  0
  9 22  1  0
 10 11  1  0
 11 12  2  0
 12 13  1  0
 12 21  1  0
 14 13  1  1
 15 14  1  6
 16 15  1  1
 15 20  1  0
 17 16  1  1
 18 17  1  1
 19 18  1  1
 20 19  1  6
 21 22  2  0
 22 23  1  0
 23 24  2  0
 23 28  1  0
 24 25  1  0
 25 26  2  0
 26 27  1  0
 26 29  1  0
 27 28  2  0
 29 30  2  0
 29 33  1  0
 30 31  1  0
 31 32  1  0
 32 33  2  0
M  CHG  2   1   1  18   1
M  END
$$$$
