
     RDKit          3D

 33 37  0  0  0  0  0  0  0  0999 V2000
  -60.7640   33.9055   12.1901 N   0  0  0  0  0  4  0  0  0  0  0  0
  -61.1983   33.2414   13.4503 C   0  0  0  0  0  0  0  0  0  0  0  0
  -60.4048   32.0029   13.6555 C   0  0  0  0  0  0  0  0  0  0  0  0
  -59.8602   31.3586   12.5689 C   0  0  0  0  0  0  0  0  0  0  0  0
  -59.1138   30.2061   12.6766 C   0  0  0  0  0  0  0  0  0  0  0  0
  -58.8731   29.6290   13.9294 C   0  0  0  0  0  0  0  0  0  0  0  0
  -59.4277   30.2891   15.0136 C   0  0  0  0  0  0  0  0  0  0  0  0
  -60.1744   31.4440   14.8947 C   0  0  0  0  0  0  0  0  0  0  0  0
  -58.0983   28.4259   14.0531 C   0  0  0  0  0  0  0  0  0  0  0  0
  -56.8694   28.3278   13.5331 N   0  0  0  0  0  0  0  0  0  0  0  0
  -56.1173   27.2240   13.6268 C   0  0  0  0  0  0  0  0  0  0  0  0
  -56.5992   26.1229   14.2805 C   0  0  0  0  0  0  0  0  0  0  0  0
  -55.8769   24.9474   14.4156 O   0  0  0  0  0  0  0  0  0  0  0  0
  -56.5431   23.8011   14.8958 C   0  0  0  0  0  0  0  0  0  0  0  0
  -55.4575   22.7998   15.2957 C   0  0  1  0  0  0  0  0  0  0  0  0
  -54.3563   22.8043   14.2798 C   0  0  0  0  0  0  0  0  0  0  0  0
  -53.0559   22.3773   14.9197 C   0  0  0  0  0  0  0  0  0  0  0  0
  -53.2913   21.4669   16.0002 N   0  0  0  0  0  4  0  0  0  0  0  0
  -54.0075   22.0527   17.1069 C   0  0  0  0  0  0  0  0  0  0  0  0
  -54.9630   23.1199   16.6886 C   0  0  0  0  0  0  0  0  0  0  0  0
  -57.8271   26.1834   14.8149 N   0  0  0  0  0  0  0  0  0  0  0  0
  -58.5767   27.3194   14.7072 C   0  0  0  0  0  0  0  0  0  0  0  0
  -59.9115   27.3947   15.2820 C   0  0  0  0  0  0  0  0  0  0  0  0
  -60.2140   27.0922   16.5900 C   0  0  0  0  0  0  0  0  0  0  0  0
  -61.5074   27.1910   17.0675 C   0  0  0  0  0  0  0  0  0  0  0  0
  -62.5316   27.5972   16.2401 C   0  0  0  0  0  0  0  0  0  0  0  0
  -62.2483   27.9049   14.9246 C   0  0  0  0  0  0  0  0  0  0  0  0
  -60.9488   27.7994   14.4680 C   0  0  0  0  0  0  0  0  0  0  0  0
  -63.8938   27.7028   16.7454 C   0  0  0  0  0  0  0  0  0  0  0  0
  -65.0339   27.9235   16.0299 C   0  0  0  0  0  0  0  0  0  0  0  0
  -66.0649   27.9488   16.8885 N   0  0  0  0  0  0  0  0  0  0  0  0
  -65.6256   27.7508   18.1383 N   0  0  0  0  0  0  0  0  0  0  0  0
  -64.2805   27.5968   18.0640 C   0  0  0  0  0  0  0  0  0  0  0  0
  1  2  1  1
  2  3  1  6
  3  4  2  0
  3  8  1  0
  4  5  1  0
  5  6  2  0
  6  7  1  0
  6  9  1  0
  7  8  2  0
  9 10  2  0
  9 22  1  0
 10 11  1  0
 11 12  2  0
 12 13  1  0
 12 21  1  0
 14 13  1  1
 15 14  1  6
 16 15  1  1
 15 20  1  0
 17 16  1  1
 18 17  1  1
 19 18  1  1
 20 19  1  6
 21 22  2  0
 22 23  1  0
 23 24  2  0
 23 28  1  0
 24 25  1  0
 25 26  2  0
 26 27  1  0
 26 29  1  0
 27 28  2  0
 29 30  2  0
 29 33  1  0
 30 31  1  0
 31 32  1  0
 32 33  2  0
M  CHG  2   1   1  18   1
M  END
$$$$
