
     RDKit          3D

 33 37  0  0  0  0  0  0  0  0999 V2000
  -51.1680   30.4748   17.7283 N   0  0  0  0  0  4  0  0  0  0  0  0
  -50.6233   30.2188   16.3988 C   0  0  0  0  0  0  0  0  0  0  0  0
  -51.5916   29.3987   15.6083 C   0  0  0  0  0  0  0  0  0  0  0  0
  -51.4289   28.0430   15.4462 C   0  0  0  0  0  0  0  0  0  0  0  0
  -52.3310   27.3112   14.7155 C   0  0  0  0  0  0  0  0  0  0  0  0
  -53.4017   27.9485   14.1458 C   0  0  0  0  0  0  0  0  0  0  0  0
  -53.5715   29.3028   14.3031 C   0  0  0  0  0  0  0  0  0  0  0  0
  -52.6728   30.0483   15.0342 C   0  0  0  0  0  0  0  0  0  0  0  0
  -54.3932   27.2425   13.3599 C   0  0  0  0  0  0  0  0  0  0  0  0
  -54.7127   27.5938   12.1003 N   0  0  0  0  0  0  0  0  0  0  0  0
  -55.6275   26.9247   11.4066 C   0  0  0  0  0  0  0  0  0  0  0  0
  -56.3114   25.8149   11.9479 C   0  0  0  0  0  0  0  0  0  0  0  0
  -57.2120   25.1383   11.2948 O   0  0  0  0  0  0  0  0  0  0  0  0
  -58.0860   24.4613   10.6573 C   0  0  0  0  0  0  0  0  0  0  0  0
  -59.3739   24.2829   11.4955 C   0  0  1  0  0  0  0  0  0  0  0  0
  -60.5164   24.1794   10.5075 C   0  0  0  0  0  0  0  0  0  0  0  0
  -61.8174   23.8522   11.2061 C   0  0  0  0  0  0  0  0  0  0  0  0
  -61.6599   23.7104   12.6232 N   0  0  0  0  0  4  0  0  0  0  0  0
  -60.5984   22.8348   13.0251 C   0  0  0  0  0  0  0  0  0  0  0  0
  -59.3207   23.0112   12.2748 C   0  0  0  0  0  0  0  0  0  0  0  0
  -55.9484   25.4979   13.2368 N   0  0  0  0  0  0  0  0  0  0  0  0
  -55.0330   26.1661   13.9329 C   0  0  0  0  0  0  0  0  0  0  0  0
  -54.6779   25.7928   15.2959 C   0  0  0  0  0  0  0  0  0  0  0  0
  -54.5386   26.6592   16.3351 C   0  0  0  0  0  0  0  0  0  0  0  0
  -54.1962   26.1898   17.6061 C   0  0  0  0  0  0  0  0  0  0  0  0
  -53.9875   24.8459   17.8595 C   0  0  0  0  0  0  0  0  0  0  0  0
  -54.1310   23.9642   16.7941 C   0  0  0  0  0  0  0  0  0  0  0  0
  -54.4687   24.4398   15.5462 C   0  0  0  0  0  0  0  0  0  0  0  0
  -53.6324   24.3320   19.1666 C   0  0  0  0  0  0  0  0  0  0  0  0
  -53.2965   23.0345   19.4825 C   0  0  0  0  0  0  0  0  0  0  0  0
  -53.0339   22.9745   20.8159 N   0  0  0  0  0  0  0  0  0  0  0  0
  -53.1951   24.1798   21.3254 N   0  0  0  0  0  0  0  0  0  0  0  0
  -53.5644   25.0455   20.3403 C   0  0  0  0  0  0  0  0  0  0  0  0
  1  2  1  0
  2  3  1  0
  3  4  2  0
  3  8  1  0
  4  5  1  0
  5  6  2  0
  6  7  1  0
  6  9  1  0
  7  8  2  0
  9 10  2  0
  9 22  1  0
 10 11  1  0
 11 12  2  0
 12 13  1  0
 12 21  1  0
 13 14  1  0
 15 14  1  6
 15 16  1  0
 15 20  1  0
 16 17  1  0
 17 18  1  0
 18 19  1  0
 19 20  1  0
 21 22  2  0
 22 23  1  0
 23 24  2  0
 23 28  1  0
 24 25  1  0
 25 26  2  0
 26 27  1  0
 26 29  1  0
 27 28  2  0
 29 30  2  0
 29 33  1  0
 30 31  1  0
 31 32  1  0
 32 33  2  0
M  CHG  2   1   1  18   1
M  END
$$$$
