
     RDKit          3D

 33 37  0  0  0  0  0  0  0  0999 V2000
  -59.8002   32.1914    8.1055 N   0  0  0  0  0  4  0  0  0  0  0  0
  -58.8697   32.2109    9.2680 C   0  0  0  0  0  0  0  0  0  0  0  0
  -59.0747   30.9883   10.0860 C   0  0  0  0  0  0  0  0  0  0  0  0
  -58.8464   29.7522    9.5270 C   0  0  0  0  0  0  0  0  0  0  0  0
  -59.0147   28.5733   10.2189 C   0  0  0  0  0  0  0  0  0  0  0  0
  -59.4358   28.5861   11.5542 C   0  0  0  0  0  0  0  0  0  0  0  0
  -59.6614   29.8377   12.1030 C   0  0  0  0  0  0  0  0  0  0  0  0
  -59.4897   31.0136   11.4006 C   0  0  0  0  0  0  0  0  0  0  0  0
  -59.6171   27.3625   12.2844 C   0  0  0  0  0  0  0  0  0  0  0  0
  -60.8115   27.0087   12.7724 N   0  0  0  0  0  0  0  0  0  0  0  0
  -61.0199   25.8777   13.4583 C   0  0  0  0  0  0  0  0  0  0  0  0
  -59.9808   25.0182   13.6895 C   0  0  0  0  0  0  0  0  0  0  0  0
  -60.1232   23.8312   14.3913 O   0  0  0  0  0  0  0  0  0  0  0  0
  -59.1189   22.8498   14.2620 C   0  0  0  0  0  0  0  0  0  0  0  0
  -59.2044   21.9697   15.5107 C   0  0  1  0  0  0  0  0  0  0  0  0
  -60.6354   21.6426   15.8106 C   0  0  0  0  0  0  0  0  0  0  0  0
  -60.7242   20.3335   16.5599 C   0  0  0  0  0  0  0  0  0  0  0  0
  -59.5567   20.1223   17.3624 N   0  0  0  0  0  4  0  0  0  0  0  0
  -58.3460   19.9623   16.5945 C   0  0  0  0  0  0  0  0  0  0  0  0
  -58.3550   20.7335   15.3170 C   0  0  0  0  0  0  0  0  0  0  0  0
  -58.7685   25.3389   13.2157 N   0  0  0  0  0  0  0  0  0  0  0  0
  -58.5789   26.4975   12.5189 C   0  0  0  0  0  0  0  0  0  0  0  0
  -57.2665   26.8560   12.0021 C   0  0  0  0  0  0  0  0  0  0  0  0
  -56.3495   27.6298   12.6760 C   0  0  0  0  0  0  0  0  0  0  0  0
  -55.1181   27.9265   12.1224 C   0  0  0  0  0  0  0  0  0  0  0  0
  -54.7769   27.4516   10.8748 C   0  0  0  0  0  0  0  0  0  0  0  0
  -55.6835   26.6738   10.1830 C   0  0  0  0  0  0  0  0  0  0  0  0
  -56.9085   26.3893   10.7546 C   0  0  0  0  0  0  0  0  0  0  0  0
  -53.4780   27.7634   10.2937 C   0  0  0  0  0  0  0  0  0  0  0  0
  -52.5001   28.5582   10.8156 C   0  0  0  0  0  0  0  0  0  0  0  0
  -51.4715   28.5715    9.9538 N   0  0  0  0  0  0  0  0  0  0  0  0
  -51.7550   27.8088    8.8899 N   0  0  0  0  0  0  0  0  0  0  0  0
  -52.9968   27.3014    9.0878 C   0  0  0  0  0  0  0  0  0  0  0  0
  1  2  1  1
  2  3  1  6
  3  4  2  0
  3  8  1  0
  4  5  1  0
  5  6  2  0
  6  7  1  0
  6  9  1  0
  7  8  2  0
  9 10  2  0
  9 22  1  0
 10 11  1  0
 11 12  2  0
 12 13  1  0
 12 21  1  0
 14 13  1  1
 15 14  1  6
 16 15  1  1
 15 20  1  0
 17 16  1  1
 18 17  1  1
 19 18  1  1
 20 19  1  6
 21 22  2  0
 22 23  1  0
 23 24  2  0
 23 28  1  0
 24 25  1  0
 25 26  2  0
 26 27  1  0
 26 29  1  0
 27 28  2  0
 29 30  2  0
 29 33  1  0
 30 31  1  0
 31 32  1  0
 32 33  2  0
M  CHG  2   1   1  18   1
M  END
$$$$
