
     RDKit          3D

 33 37  0  0  0  0  0  0  0  0999 V2000
  -51.3494   31.2499   16.6001 N   0  0  0  0  0  4  0  0  0  0  0  0
  -51.4523   29.8432   16.9750 C   0  0  0  0  0  0  0  0  0  0  0  0
  -52.3920   29.1431   16.0467 C   0  0  0  0  0  0  0  0  0  0  0  0
  -53.5990   28.6454   16.4779 C   0  0  0  0  0  0  0  0  0  0  0  0
  -54.4450   28.0057   15.6068 C   0  0  0  0  0  0  0  0  0  0  0  0
  -54.0727   27.8673   14.2956 C   0  0  0  0  0  0  0  0  0  0  0  0
  -52.8683   28.3618   13.8568 C   0  0  0  0  0  0  0  0  0  0  0  0
  -52.0105   29.0057   14.7214 C   0  0  0  0  0  0  0  0  0  0  0  0
  -54.9121   27.2028   13.3195 C   0  0  0  0  0  0  0  0  0  0  0  0
  -55.0755   27.6601   12.0641 N   0  0  0  0  0  0  0  0  0  0  0  0
  -55.8534   27.0263   11.1928 C   0  0  0  0  0  0  0  0  0  0  0  0
  -56.5478   25.8453   11.5325 C   0  0  0  0  0  0  0  0  0  0  0  0
  -57.3168   25.2007   10.7027 O   0  0  0  0  0  0  0  0  0  0  0  0
  -58.0628   24.5763    9.8768 C   0  0  0  0  0  0  0  0  0  0  0  0
  -57.3463   23.3268    9.3122 C   0  0  1  0  0  0  0  0  0  0  0  0
  -57.8681   23.1342    7.9042 C   0  0  0  0  0  0  0  0  0  0  0  0
  -57.1275   22.0242    7.1920 C   0  0  0  0  0  0  0  0  0  0  0  0
  -56.1111   21.4296    8.0084 N   0  0  0  0  0  4  0  0  0  0  0  0
  -55.2162   22.3623    8.6280 C   0  0  0  0  0  0  0  0  0  0  0  0
  -55.8741   23.5579    9.2315 C   0  0  0  0  0  0  0  0  0  0  0  0
  -56.3471   25.4209   12.8260 N   0  0  0  0  0  0  0  0  0  0  0  0
  -55.5689   26.0536   13.6996 C   0  0  0  0  0  0  0  0  0  0  0  0
  -55.3832   25.5658   15.0600 C   0  0  0  0  0  0  0  0  0  0  0  0
  -54.1893   25.2221   15.6136 C   0  0  0  0  0  0  0  0  0  0  0  0
  -54.1267   24.7669   16.9335 C   0  0  0  0  0  0  0  0  0  0  0  0
  -55.2570   24.6477   17.7221 C   0  0  0  0  0  0  0  0  0  0  0  0
  -56.4751   25.0002   17.1519 C   0  0  0  0  0  0  0  0  0  0  0  0
  -56.5231   25.4474   15.8498 C   0  0  0  0  0  0  0  0  0  0  0  0
  -55.2211   24.1794   19.0925 C   0  0  0  0  0  0  0  0  0  0  0  0
  -56.2596   24.1852   19.9967 C   0  0  0  0  0  0  0  0  0  0  0  0
  -55.8083   23.6609   21.1680 N   0  0  0  0  0  0  0  0  0  0  0  0
  -54.5396   23.3359   21.0158 N   0  0  0  0  0  0  0  0  0  0  0  0
  -54.1398   23.6401   19.7493 C   0  0  0  0  0  0  0  0  0  0  0  0
  1  2  1  0
  2  3  1  0
  3  4  2  0
  3  8  1  0
  4  5  1  0
  5  6  2  0
  6  7  1  0
  6  9  1  0
  7  8  2  0
  9 10  2  0
  9 22  1  0
 10 11  1  0
 11 12  2  0
 12 13  1  0
 12 21  1  0
 13 14  1  0
 15 14  1  6
 15 16  1  0
 15 20  1  0
 16 17  1  0
 17 18  1  0
 18 19  1  0
 19 20  1  0
 21 22  2  0
 22 23  1  0
 23 24  2  0
 23 28  1  0
 24 25  1  0
 25 26  2  0
 26 27  1  0
 26 29  1  0
 27 28  2  0
 29 30  2  0
 29 33  1  0
 30 31  1  0
 31 32  1  0
 32 33  2  0
M  CHG  2   1   1  18   1
M  END
$$$$
