
     RDKit          3D

 33 37  0  0  0  0  0  0  0  0999 V2000
  -63.2730   31.9605   17.1821 N   0  0  0  0  0  4  0  0  0  0  0  0
  -62.4105   31.0535   17.9891 C   0  0  0  0  0  0  0  0  0  0  0  0
  -61.6343   30.1713   17.0807 C   0  0  0  0  0  0  0  0  0  0  0  0
  -60.7157   29.2940   17.6090 C   0  0  0  0  0  0  0  0  0  0  0  0
  -59.9573   28.4450   16.8338 C   0  0  0  0  0  0  0  0  0  0  0  0
  -60.0945   28.4409   15.4403 C   0  0  0  0  0  0  0  0  0  0  0  0
  -61.0229   29.3294   14.9235 C   0  0  0  0  0  0  0  0  0  0  0  0
  -61.7783   30.1763   15.7095 C   0  0  0  0  0  0  0  0  0  0  0  0
  -59.3067   27.5617   14.6221 C   0  0  0  0  0  0  0  0  0  0  0  0
  -58.4986   28.0322   13.6652 N   0  0  0  0  0  0  0  0  0  0  0  0
  -57.7500   27.2451   12.8822 C   0  0  0  0  0  0  0  0  0  0  0  0
  -57.7896   25.8869   13.0421 C   0  0  0  0  0  0  0  0  0  0  0  0
  -57.0428   25.0123   12.2681 O   0  0  0  0  0  0  0  0  0  0  0  0
  -57.6646   23.8410   11.7886 C   0  0  0  0  0  0  0  0  0  0  0  0
  -56.6162   23.0983   10.9578 C   0  0  1  0  0  0  0  0  0  0  0  0
  -56.1701   23.9536    9.8114 C   0  0  0  0  0  0  0  0  0  0  0  0
  -54.7667   23.5775    9.3966 C   0  0  0  0  0  0  0  0  0  0  0  0
  -54.5126   22.1905    9.6478 N   0  0  0  0  0  4  0  0  0  0  0  0
  -54.5296   21.8416   11.0474 C   0  0  0  0  0  0  0  0  0  0  0  0
  -55.4690   22.6788   11.8495 C   0  0  0  0  0  0  0  0  0  0  0  0
  -58.5879   25.3781   13.9913 N   0  0  0  0  0  0  0  0  0  0  0  0
  -59.3427   26.1995   14.7783 C   0  0  0  0  0  0  0  0  0  0  0  0
  -60.2141   25.6572   15.8100 C   0  0  0  0  0  0  0  0  0  0  0  0
  -61.5769   25.8438   15.8549 C   0  0  0  0  0  0  0  0  0  0  0  0
  -62.3423   25.2935   16.8659 C   0  0  0  0  0  0  0  0  0  0  0  0
  -61.7557   24.5401   17.8593 C   0  0  0  0  0  0  0  0  0  0  0  0
  -60.3899   24.3418   17.8316 C   0  0  0  0  0  0  0  0  0  0  0  0
  -59.6437   24.9007   16.8123 C   0  0  0  0  0  0  0  0  0  0  0  0
  -62.5640   23.9591   18.9227 C   0  0  0  0  0  0  0  0  0  0  0  0
  -62.1384   23.2046   19.9763 C   0  0  0  0  0  0  0  0  0  0  0  0
  -63.2113   22.8764   20.7126 N   0  0  0  0  0  0  0  0  0  0  0  0
  -64.3184   23.3963   20.1666 N   0  0  0  0  0  0  0  0  0  0  0  0
  -63.9312   24.0705   19.0556 C   0  0  0  0  0  0  0  0  0  0  0  0
  1  2  1  1
  2  3  1  6
  3  4  2  0
  3  8  1  0
  4  5  1  0
  5  6  2  0
  6  7  1  0
  6  9  1  0
  7  8  2  0
  9 10  2  0
  9 22  1  0
 10 11  1  0
 11 12  2  0
 12 13  1  0
 12 21  1  0
 14 13  1  1
 15 14  1  1
 16 15  1  1
 15 20  1  0
 17 16  1  1
 18 17  1  1
 19 18  1  1
 20 19  1  6
 21 22  2  0
 22 23  1  0
 23 24  2  0
 23 28  1  0
 24 25  1  0
 25 26  2  0
 26 27  1  0
 26 29  1  0
 27 28  2  0
 29 30  2  0
 29 33  1  0
 30 31  1  0
 31 32  1  0
 32 33  2  0
M  CHG  2   1   1  18   1
M  END
$$$$
