
     RDKit          3D

 33 37  0  0  0  0  0  0  0  0999 V2000
  -59.8056   32.2054   12.2841 N   0  0  0  0  0  4  0  0  0  0  0  0
  -60.1795   30.7995   12.4007 C   0  0  0  0  0  0  0  0  0  0  0  0
  -59.3182   30.1337   13.4253 C   0  0  0  0  0  0  0  0  0  0  0  0
  -59.5019   30.3424   14.7718 C   0  0  0  0  0  0  0  0  0  0  0  0
  -58.6980   29.7202   15.6938 C   0  0  0  0  0  0  0  0  0  0  0  0
  -57.7046   28.8840   15.2565 C   0  0  0  0  0  0  0  0  0  0  0  0
  -57.5145   28.6701   13.9127 C   0  0  0  0  0  0  0  0  0  0  0  0
  -58.3149   29.2889   12.9776 C   0  0  0  0  0  0  0  0  0  0  0  0
  -56.8165   28.1944   16.1701 C   0  0  0  0  0  0  0  0  0  0  0  0
  -56.8844   28.3421   17.5064 N   0  0  0  0  0  0  0  0  0  0  0  0
  -56.0539   27.6946   18.3169 C   0  0  0  0  0  0  0  0  0  0  0  0
  -55.0601   26.8210   17.8255 C   0  0  0  0  0  0  0  0  0  0  0  0
  -54.2319   26.1719   18.5923 O   0  0  0  0  0  0  0  0  0  0  0  0
  -53.4208   25.5229   19.3336 C   0  0  0  0  0  0  0  0  0  0  0  0
  -52.5868   24.5191   18.5029 C   0  0  1  0  0  0  0  0  0  0  0  0
  -52.9538   23.1390   19.0053 C   0  0  0  0  0  0  0  0  0  0  0  0
  -52.3095   22.0599   18.1638 C   0  0  0  0  0  0  0  0  0  0  0  0
  -51.5189   22.5948   17.0951 N   0  0  0  0  0  4  0  0  0  0  0  0
  -52.1823   23.5794   16.2917 C   0  0  0  0  0  0  0  0  0  0  0  0
  -52.9564   24.5984   17.0591 C   0  0  0  0  0  0  0  0  0  0  0  0
  -55.0331   26.7058   16.4545 N   0  0  0  0  0  0  0  0  0  0  0  0
  -55.8633   27.3527   15.6415 C   0  0  0  0  0  0  0  0  0  0  0  0
  -55.8000   27.1982   14.1939 C   0  0  0  0  0  0  0  0  0  0  0  0
  -54.8905   27.7988   13.3803 C   0  0  0  0  0  0  0  0  0  0  0  0
  -54.9207   27.5770   12.0008 C   0  0  0  0  0  0  0  0  0  0  0  0
  -55.8609   26.7509   11.4116 C   0  0  0  0  0  0  0  0  0  0  0  0
  -56.7885   26.1392   12.2473 C   0  0  0  0  0  0  0  0  0  0  0  0
  -56.7479   26.3661   13.6055 C   0  0  0  0  0  0  0  0  0  0  0  0
  -55.9149   26.5030    9.9853 C   0  0  0  0  0  0  0  0  0  0  0  0
  -56.7717   25.6508    9.3251 C   0  0  0  0  0  0  0  0  0  0  0  0
  -56.4924   25.7111    7.9952 N   0  0  0  0  0  0  0  0  0  0  0  0
  -55.5025   26.5636    7.8170 N   0  0  0  0  0  0  0  0  0  0  0  0
  -55.1180   27.0737    9.0205 C   0  0  0  0  0  0  0  0  0  0  0  0
  1  2  1  0
  2  3  1  0
  3  4  2  0
  3  8  1  0
  4  5  1  0
  5  6  2  0
  6  7  1  0
  6  9  1  0
  7  8  2  0
  9 10  2  0
  9 22  1  0
 10 11  1  0
 11 12  2  0
 12 13  1  0
 12 21  1  0
 13 14  1  0
 15 14  1  1
 15 16  1  0
 15 20  1  0
 16 17  1  0
 17 18  1  0
 18 19  1  0
 19 20  1  0
 21 22  2  0
 22 23  1  0
 23 24  2  0
 23 28  1  0
 24 25  1  0
 25 26  2  0
 26 27  1  0
 26 29  1  0
 27 28  2  0
 29 30  2  0
 29 33  1  0
 30 31  1  0
 31 32  1  0
 32 33  2  0
M  CHG  2   1   1  18   1
M  END
$$$$
