
     RDKit          3D

 33 37  0  0  0  0  0  0  0  0999 V2000
  -53.4044   25.8431   21.7393 N   0  0  0  0  0  4  0  0  0  0  0  0
  -54.7657   25.8295   21.2134 C   0  0  0  0  0  0  0  0  0  0  0  0
  -54.7270   25.8184   19.7189 C   0  0  0  0  0  0  0  0  0  0  0  0
  -54.4364   24.6762   19.0107 C   0  0  0  0  0  0  0  0  0  0  0  0
  -54.4064   24.6908   17.6386 C   0  0  0  0  0  0  0  0  0  0  0  0
  -54.6703   25.8616   16.9778 C   0  0  0  0  0  0  0  0  0  0  0  0
  -54.9615   27.0072   17.6782 C   0  0  0  0  0  0  0  0  0  0  0  0
  -54.9948   27.0053   19.0555 C   0  0  0  0  0  0  0  0  0  0  0  0
  -54.6551   25.9538   15.5320 C   0  0  0  0  0  0  0  0  0  0  0  0
  -53.6822   26.5870   14.8504 N   0  0  0  0  0  0  0  0  0  0  0  0
  -53.6983   26.6535   13.5233 C   0  0  0  0  0  0  0  0  0  0  0  0
  -54.7298   26.0676   12.7584 C   0  0  0  0  0  0  0  0  0  0  0  0
  -54.7746   26.1145   11.4580 O   0  0  0  0  0  0  0  0  0  0  0  0
  -54.8028   26.1656   10.1832 C   0  0  0  0  0  0  0  0  0  0  0  0
  -56.2006   25.7853    9.6403 C   0  0  1  0  0  0  0  0  0  0  0  0
  -56.0583   24.4137    9.0155 C   0  0  0  0  0  0  0  0  0  0  0  0
  -57.3998   23.8681    8.5791 C   0  0  0  0  0  0  0  0  0  0  0  0
  -58.4783   24.7669    8.8657 N   0  0  0  0  0  4  0  0  0  0  0  0
  -58.5094   25.2579   10.2121 C   0  0  0  0  0  0  0  0  0  0  0  0
  -57.1870   25.6846   10.7558 C   0  0  0  0  0  0  0  0  0  0  0  0
  -55.6983   25.4336   13.5026 N   0  0  0  0  0  0  0  0  0  0  0  0
  -55.6841   25.3658   14.8308 C   0  0  0  0  0  0  0  0  0  0  0  0
  -56.7307   24.6808   15.5782 C   0  0  0  0  0  0  0  0  0  0  0  0
  -57.4926   25.2426   16.5548 C   0  0  0  0  0  0  0  0  0  0  0  0
  -58.4737   24.4907   17.2069 C   0  0  0  0  0  0  0  0  0  0  0  0
  -58.7095   23.1641   16.8934 C   0  0  0  0  0  0  0  0  0  0  0  0
  -57.9282   22.5942   15.8945 C   0  0  0  0  0  0  0  0  0  0  0  0
  -56.9644   23.3463   15.2595 C   0  0  0  0  0  0  0  0  0  0  0  0
  -59.7196   22.3617   17.5525 C   0  0  0  0  0  0  0  0  0  0  0  0
  -60.5858   22.7706   18.5417 C   0  0  0  0  0  0  0  0  0  0  0  0
  -61.3695   21.7133   18.8861 N   0  0  0  0  0  0  0  0  0  0  0  0
  -61.0178   20.6783   18.1489 N   0  0  0  0  0  0  0  0  0  0  0  0
  -60.0031   21.0374   17.3136 C   0  0  0  0  0  0  0  0  0  0  0  0
  1  2  1  0
  2  3  1  0
  3  4  2  0
  3  8  1  0
  4  5  1  0
  5  6  2  0
  6  7  1  0
  6  9  1  0
  7  8  2  0
  9 10  2  0
  9 22  1  0
 10 11  1  0
 11 12  2  0
 12 13  1  0
 12 21  1  0
 13 14  1  0
 15 14  1  1
 15 16  1  0
 15 20  1  0
 16 17  1  0
 17 18  1  0
 18 19  1  0
 19 20  1  0
 21 22  2  0
 22 23  1  0
 23 24  2  0
 23 28  1  0
 24 25  1  0
 25 26  2  0
 26 27  1  0
 26 29  1  0
 27 28  2  0
 29 30  2  0
 29 33  1  0
 30 31  1  0
 31 32  1  0
 32 33  2  0
M  CHG  2   1   1  18   1
M  END
$$$$
