
     RDKit          3D

 33 37  0  0  0  0  0  0  0  0999 V2000
  -64.2162   30.1784   16.8021 N   0  0  0  0  0  4  0  0  0  0  0  0
  -63.5014   29.1527   17.5550 C   0  0  0  0  0  0  0  0  0  0  0  0
  -62.2916   28.7197   16.7908 C   0  0  0  0  0  0  0  0  0  0  0  0
  -61.0931   29.3857   16.8943 C   0  0  0  0  0  0  0  0  0  0  0  0
  -59.9962   28.9696   16.1822 C   0  0  0  0  0  0  0  0  0  0  0  0
  -60.1078   27.8776   15.3623 C   0  0  0  0  0  0  0  0  0  0  0  0
  -61.3018   27.2066   15.2533 C   0  0  0  0  0  0  0  0  0  0  0  0
  -62.4100   27.6146   15.9629 C   0  0  0  0  0  0  0  0  0  0  0  0
  -58.9943   27.3817   14.5792 C   0  0  0  0  0  0  0  0  0  0  0  0
  -58.3868   28.1142   13.6272 N   0  0  0  0  0  0  0  0  0  0  0  0
  -57.3674   27.6290   12.9263 C   0  0  0  0  0  0  0  0  0  0  0  0
  -56.8673   26.3263   13.1392 C   0  0  0  0  0  0  0  0  0  0  0  0
  -55.8706   25.8217   12.4704 O   0  0  0  0  0  0  0  0  0  0  0  0
  -54.8835   25.3376   11.8224 C   0  0  0  0  0  0  0  0  0  0  0  0
  -55.3475   24.7066   10.4883 C   0  0  1  0  0  0  0  0  0  0  0  0
  -54.9803   25.6914    9.3987 C   0  0  0  0  0  0  0  0  0  0  0  0
  -55.2515   25.1167    8.0261 C   0  0  0  0  0  0  0  0  0  0  0  0
  -55.7786   23.7855    8.0819 N   0  0  0  0  0  4  0  0  0  0  0  0
  -55.0355   22.8792    8.9074 C   0  0  0  0  0  0  0  0  0  0  0  0
  -54.6135   23.4336   10.2269 C   0  0  0  0  0  0  0  0  0  0  0  0
  -57.5226   25.6203   14.1219 N   0  0  0  0  0  0  0  0  0  0  0  0
  -58.5430   26.1040   14.8246 C   0  0  0  0  0  0  0  0  0  0  0  0
  -59.2060   25.3205   15.8589 C   0  0  0  0  0  0  0  0  0  0  0  0
  -59.1622   25.5855   17.1923 C   0  0  0  0  0  0  0  0  0  0  0  0
  -59.8402   24.7659   18.0988 C   0  0  0  0  0  0  0  0  0  0  0  0
  -60.5735   23.6675   17.6872 C   0  0  0  0  0  0  0  0  0  0  0  0
  -60.6153   23.4006   16.3234 C   0  0  0  0  0  0  0  0  0  0  0  0
  -59.9426   24.2163   15.4403 C   0  0  0  0  0  0  0  0  0  0  0  0
  -61.2859   22.8016   18.6046 C   0  0  0  0  0  0  0  0  0  0  0  0
  -61.2363   22.8335   19.9803 C   0  0  0  0  0  0  0  0  0  0  0  0
  -62.0503   21.8545   20.4592 N   0  0  0  0  0  0  0  0  0  0  0  0
  -62.5937   21.2280   19.4343 N   0  0  0  0  0  0  0  0  0  0  0  0
  -62.1474   21.7824   18.2724 C   0  0  0  0  0  0  0  0  0  0  0  0
  1  2  1  0
  2  3  1  0
  3  4  2  0
  3  8  1  0
  4  5  1  0
  5  6  2  0
  6  7  1  0
  6  9  1  0
  7  8  2  0
  9 10  2  0
  9 22  1  0
 10 11  1  0
 11 12  2  0
 12 13  1  0
 12 21  1  0
 13 14  1  0
 15 14  1  1
 15 16  1  0
 15 20  1  0
 16 17  1  0
 17 18  1  0
 18 19  1  0
 19 20  1  0
 21 22  2  0
 22 23  1  0
 23 24  2  0
 23 28  1  0
 24 25  1  0
 25 26  2  0
 26 27  1  0
 26 29  1  0
 27 28  2  0
 29 30  2  0
 29 33  1  0
 30 31  1  0
 31 32  1  0
 32 33  2  0
M  CHG  2   1   1  18   1
M  END
$$$$
