
     RDKit          3D

 33 37  0  0  0  0  0  0  0  0999 V2000
  -63.2640   28.5325   17.7236 N   0  0  0  0  0  4  0  0  0  0  0  0
  -62.0189   29.2917   17.7796 C   0  0  0  0  0  0  0  0  0  0  0  0
  -60.9824   28.6202   16.9371 C   0  0  0  0  0  0  0  0  0  0  0  0
  -60.1459   27.6567   17.4493 C   0  0  0  0  0  0  0  0  0  0  0  0
  -59.2015   27.0545   16.6561 C   0  0  0  0  0  0  0  0  0  0  0  0
  -59.1000   27.4252   15.3411 C   0  0  0  0  0  0  0  0  0  0  0  0
  -59.9322   28.3871   14.8215 C   0  0  0  0  0  0  0  0  0  0  0  0
  -60.8840   28.9988   15.6076 C   0  0  0  0  0  0  0  0  0  0  0  0
  -58.1268   26.8354   14.4444 C   0  0  0  0  0  0  0  0  0  0  0  0
  -57.3161   27.5702   13.6603 N   0  0  0  0  0  0  0  0  0  0  0  0
  -56.4338   26.9973   12.8482 C   0  0  0  0  0  0  0  0  0  0  0  0
  -56.2979   25.5950   12.7627 C   0  0  0  0  0  0  0  0  0  0  0  0
  -55.4437   25.0030   11.9784 O   0  0  0  0  0  0  0  0  0  0  0  0
  -54.6041   24.4370   11.2016 C   0  0  0  0  0  0  0  0  0  0  0  0
  -55.1335   24.3876    9.7488 C   0  0  1  0  0  0  0  0  0  0  0  0
  -54.3926   23.2602    9.0617 C   0  0  0  0  0  0  0  0  0  0  0  0
  -54.9338   23.0161    7.6705 C   0  0  0  0  0  0  0  0  0  0  0  0
  -56.0152   23.8959    7.3392 N   0  0  0  0  0  4  0  0  0  0  0  0
  -57.0594   23.9598    8.3193 C   0  0  0  0  0  0  0  0  0  0  0  0
  -56.5897   24.0611    9.7319 C   0  0  0  0  0  0  0  0  0  0  0  0
  -57.1489   24.8911   13.5837 N   0  0  0  0  0  0  0  0  0  0  0  0
  -58.0325   25.4623   14.3971 C   0  0  0  0  0  0  0  0  0  0  0  0
  -58.9130   24.6765   15.2518 C   0  0  0  0  0  0  0  0  0  0  0  0
  -60.0187   24.0049   14.8320 C   0  0  0  0  0  0  0  0  0  0  0  0
  -60.7922   23.2779   15.7411 C   0  0  0  0  0  0  0  0  0  0  0  0
  -60.4730   23.2102   17.0854 C   0  0  0  0  0  0  0  0  0  0  0  0
  -59.3419   23.8984   17.5098 C   0  0  0  0  0  0  0  0  0  0  0  0
  -58.5880   24.6112   16.6036 C   0  0  0  0  0  0  0  0  0  0  0  0
  -61.2563   22.4643   18.0491 C   0  0  0  0  0  0  0  0  0  0  0  0
  -61.0198   22.3553   19.4012 C   0  0  0  0  0  0  0  0  0  0  0  0
  -61.9870   21.5657   19.9411 N   0  0  0  0  0  0  0  0  0  0  0  0
  -62.8024   21.1893   18.9759 N   0  0  0  0  0  0  0  0  0  0  0  0
  -62.3859   21.7227   17.7933 C   0  0  0  0  0  0  0  0  0  0  0  0
  1  2  1  0
  2  3  1  0
  3  4  2  0
  3  8  1  0
  4  5  1  0
  5  6  2  0
  6  7  1  0
  6  9  1  0
  7  8  2  0
  9 10  2  0
  9 22  1  0
 10 11  1  0
 11 12  2  0
 12 13  1  0
 12 21  1  0
 13 14  1  0
 15 14  1  1
 15 16  1  0
 15 20  1  0
 16 17  1  0
 17 18  1  0
 18 19  1  0
 19 20  1  0
 21 22  2  0
 22 23  1  0
 23 24  2  0
 23 28  1  0
 24 25  1  0
 25 26  2  0
 26 27  1  0
 26 29  1  0
 27 28  2  0
 29 30  2  0
 29 33  1  0
 30 31  1  0
 31 32  1  0
 32 33  2  0
M  CHG  2   1   1  18   1
M  END
$$$$
