
     RDKit          3D

 33 37  0  0  0  0  0  0  0  0999 V2000
  -58.5046   30.1682   21.7175 N   0  0  0  0  0  4  0  0  0  0  0  0
  -58.3176   28.6982   21.8655 C   0  0  0  0  0  0  0  0  0  0  0  0
  -58.0467   28.0976   20.5344 C   0  0  0  0  0  0  0  0  0  0  0  0
  -57.1576   27.0530   20.4301 C   0  0  0  0  0  0  0  0  0  0  0  0
  -56.8528   26.4441   19.2329 C   0  0  0  0  0  0  0  0  0  0  0  0
  -57.4516   26.8752   18.0429 C   0  0  0  0  0  0  0  0  0  0  0  0
  -58.3442   27.9274   18.1641 C   0  0  0  0  0  0  0  0  0  0  0  0
  -58.6428   28.5309   19.3692 C   0  0  0  0  0  0  0  0  0  0  0  0
  -57.1391   26.2491   16.7885 C   0  0  0  0  0  0  0  0  0  0  0  0
  -58.0247   26.2081   15.7865 N   0  0  0  0  0  0  0  0  0  0  0  0
  -57.7711   25.6335   14.6040 C   0  0  0  0  0  0  0  0  0  0  0  0
  -56.5550   25.0497   14.3755 C   0  0  0  0  0  0  0  0  0  0  0  0
  -56.2236   24.4368   13.1770 O   0  0  0  0  0  0  0  0  0  0  0  0
  -57.2519   24.1804   12.2467 C   0  0  0  0  0  0  0  0  0  0  0  0
  -56.5836   24.0756   10.8743 C   0  0  1  0  0  0  0  0  0  0  0  0
  -55.6178   25.2054   10.6865 C   0  0  0  0  0  0  0  0  0  0  0  0
  -54.5269   24.8028    9.7217 C   0  0  0  0  0  0  0  0  0  0  0  0
  -55.0139   23.8554    8.7641 N   0  0  0  0  0  4  0  0  0  0  0  0
  -55.4018   22.5924    9.3432 C   0  0  0  0  0  0  0  0  0  0  0  0
  -55.9261   22.7209   10.7343 C   0  0  0  0  0  0  0  0  0  0  0  0
  -55.6414   25.0710   15.3562 N   0  0  0  0  0  0  0  0  0  0  0  0
  -55.9216   25.6626   16.5543 C   0  0  0  0  0  0  0  0  0  0  0  0
  -54.9376   25.6893   17.6262 C   0  0  0  0  0  0  0  0  0  0  0  0
  -54.8712   26.6618   18.5976 C   0  0  0  0  0  0  0  0  0  0  0  0
  -53.9090   26.6193   19.5892 C   0  0  0  0  0  0  0  0  0  0  0  0
  -52.9874   25.5959   19.6291 C   0  0  0  0  0  0  0  0  0  0  0  0
  -53.0376   24.6110   18.6632 C   0  0  0  0  0  0  0  0  0  0  0  0
  -54.0073   24.6726   17.6813 C   0  0  0  0  0  0  0  0  0  0  0  0
  -51.9753   25.5514   20.6759 C   0  0  0  0  0  0  0  0  0  0  0  0
  -50.9404   24.6715   20.7985 C   0  0  0  0  0  0  0  0  0  0  0  0
  -50.2533   24.9898   21.9064 N   0  0  0  0  0  0  0  0  0  0  0  0
  -50.8131   26.0497   22.5042 N   0  0  0  0  0  0  0  0  0  0  0  0
  -51.8823   26.4083   21.7513 C   0  0  0  0  0  0  0  0  0  0  0  0
  1  2  1  1
  2  3  1  6
  3  4  2  0
  3  8  1  0
  4  5  1  0
  5  6  2  0
  6  7  1  0
  6  9  1  0
  7  8  2  0
  9 10  2  0
  9 22  1  0
 10 11  1  0
 11 12  2  0
 12 13  1  0
 12 21  1  0
 14 13  1  1
 15 14  1  1
 16 15  1  1
 15 20  1  0
 17 16  1  1
 18 17  1  1
 19 18  1  1
 20 19  1  6
 21 22  2  0
 22 23  1  0
 23 24  2  0
 23 28  1  0
 24 25  1  0
 25 26  2  0
 26 27  1  0
 26 29  1  0
 27 28  2  0
 29 30  2  0
 29 33  1  0
 30 31  1  0
 31 32  1  0
 32 33  2  0
M  CHG  2   1   1  18   1
M  END
$$$$
