
     RDKit          3D

 30 33  0  0  0  0  0  0  0  0999 V2000
  -13.0911    8.9156    0.7526 C   0  0  0  0  0  0  0  0  0  0  0  0
  -11.8090    8.9994    0.2499 C   0  0  0  0  0  0  0  0  0  0  0  0
  -10.7070    9.0579    1.0417 C   0  0  0  0  0  0  0  0  0  0  0  0
  -12.1586    8.9485    2.9269 C   0  0  0  0  0  0  0  0  0  0  0  0
  -18.5502    9.3356   -0.6720 C   0  0  1  0  0  0  0  0  0  0  0  0
  -26.5641    9.8938   -2.7664 C   0  0  0  0  0  0  0  0  0  0  0  0
  -25.2409    9.8475   -2.0573 C   0  0  0  0  0  0  0  0  0  0  0  0
  -24.0911    9.8248   -2.8178 C   0  0  0  0  0  0  0  0  0  0  0  0
  -22.8818    9.7825   -2.1629 C   0  0  0  0  0  0  0  0  0  0  0  0
  -25.2158    9.8289   -0.6669 C   0  0  0  0  0  0  0  0  0  0  0  0
  -23.9862    9.7862   -0.0409 C   0  0  0  0  0  0  0  0  0  0  0  0
  -22.8092    9.7627   -0.7888 C   0  0  0  0  0  0  0  0  0  0  0  0
  -19.9465    8.9849   -1.1065 C   0  0  1  0  0  0  0  0  0  0  0  0
  -19.4233    6.7444   -0.6677 C   0  0  2  0  0  0  0  0  0  0  0  0
  -19.8520    6.4615    0.7687 C   0  0  0  0  0  0  0  0  0  0  0  0
  -17.9522    6.9850   -0.7023 C   0  0  1  0  0  0  0  0  0  0  0  0
  -17.6196    8.3436   -1.3172 C   0  0  2  0  0  0  0  0  0  0  0  0
  -15.5240    8.5127    0.0942 C   0  0  0  0  0  0  0  0  0  0  0  0
  -14.2343    8.8561   -0.1729 C   0  0  0  0  0  0  0  0  0  0  0  0
  -10.8768    9.0323    2.4234 C   0  0  0  0  0  0  0  0  0  0  0  0
  -13.2679    8.8898    2.1122 C   0  0  0  0  0  0  0  0  0  0  0  0
  -14.5081    8.8075    2.6654 F   0  0  0  0  0  0  0  0  0  0  0  0
  -16.2348    8.5960   -1.0527 N   0  0  0  0  0  0  0  0  0  0  0  0
  -14.1959    9.1404   -1.4825 N   0  0  0  0  0  0  0  0  0  0  0  0
  -15.3971    8.9844   -2.0119 N   0  0  0  0  0  0  0  0  0  0  0  0
  -20.2050    7.6665   -1.2861 O   0  0  0  0  0  0  0  0  0  0  0  0
  -20.8657    5.5165    0.8348 O   0  0  0  0  0  0  0  0  0  0  0  0
  -17.4039    6.9947    0.6012 O   0  0  0  0  0  0  0  0  0  0  0  0
  -18.2891   10.6491   -1.0639 O   0  0  0  0  0  0  0  0  0  0  0  0
  -21.2070    9.7094   -0.0280 S   0  0  0  0  0  0  0  0  0  0  0  0
  1  2  2  0
 19  1  1  0
  1 21  1  0
  2  3  1  0
  3 20  2  0
  4 20  1  0
 21  4  2  0
  5 13  1  0
 17  5  1  0
  5 29  1  6
  7  6  1  0
  8  7  2  0
 10  7  1  0
  9  8  1  0
 12  9  2  0
 11 10  2  0
 12 11  1  0
 30 12  1  0
 13 26  1  0
 13 30  1  1
 14 15  1  1
 16 14  1  0
 14 26  1  0
 15 27  1  0
 17 16  1  0
 16 28  1  1
 17 23  1  1
 18 19  2  0
 18 23  1  0
 19 24  1  0
 21 22  1  0
 23 25  1  0
 24 25  2  0
M  END
$$$$
