
     RDKit          3D

 30 33  0  0  0  0  0  0  0  0999 V2000
  -13.0725    9.1544   -0.6962 C   0  0  0  0  0  0  0  0  0  0  0  0
  -12.4557   10.3659   -0.4633 C   0  0  0  0  0  0  0  0  0  0  0  0
  -11.1309   10.5776   -0.7738 C   0  0  0  0  0  0  0  0  0  0  0  0
  -10.9798    8.3652   -1.5680 C   0  0  0  0  0  0  0  0  0  0  0  0
  -18.8537    9.0567   -1.4618 C   0  0  1  0  0  0  0  0  0  0  0  0
  -27.0911    9.8923   -1.1043 C   0  0  0  0  0  0  0  0  0  0  0  0
  -25.6457    9.8865   -0.8171 C   0  0  0  0  0  0  0  0  0  0  0  0
  -25.1236    9.6035    0.4246 C   0  0  0  0  0  0  0  0  0  0  0  0
  -23.7580    9.6121    0.6388 C   0  0  0  0  0  0  0  0  0  0  0  0
  -24.7520   10.1775   -1.8328 C   0  0  0  0  0  0  0  0  0  0  0  0
  -23.3915   10.1832   -1.6090 C   0  0  0  0  0  0  0  0  0  0  0  0
  -22.8587    9.8998   -0.3643 C   0  0  0  0  0  0  0  0  0  0  0  0
  -20.2745    8.7269   -1.2779 C   0  0  1  0  0  0  0  0  0  0  0  0
  -19.7414    6.4886   -0.9763 C   0  0  2  0  0  0  0  0  0  0  0  0
  -20.2110    5.2268   -0.2981 C   0  0  0  0  0  0  0  0  0  0  0  0
  -18.4900    6.9328   -0.2453 C   0  0  1  0  0  0  0  0  0  0  0  0
  -17.8668    7.9687   -1.1897 C   0  0  2  0  0  0  0  0  0  0  0  0
  -15.4634    8.4981   -1.2414 C   0  0  0  0  0  0  0  0  0  0  0  0
  -14.4847    8.9321   -0.3730 C   0  0  0  0  0  0  0  0  0  0  0  0
  -10.3551    9.5865   -1.3341 C   0  0  0  0  0  0  0  0  0  0  0  0
  -12.3073    8.1520   -1.2570 C   0  0  0  0  0  0  0  0  0  0  0  0
  -12.9253    6.9614   -1.4843 F   0  0  0  0  0  0  0  0  0  0  0  0
  -16.6392    8.4030   -0.5755 N   0  0  0  0  0  0  0  0  0  0  0  0
  -15.1004    9.0907    0.8075 N   0  0  0  0  0  0  0  0  0  0  0  0
  -16.3852    8.7677    0.6573 N   0  0  0  0  0  0  0  0  0  0  0  0
  -20.6488    7.4938   -0.8933 O   0  0  0  0  0  0  0  0  0  0  0  0
  -21.4421    4.7827   -0.7371 O   0  0  0  0  0  0  0  0  0  0  0  0
  -18.7919    7.6096    0.9289 O   0  0  0  0  0  0  0  0  0  0  0  0
  -18.5762    9.6108   -2.7125 O   0  0  0  0  0  0  0  0  0  0  0  0
  -21.0886    9.9211   -0.1408 S   0  0  0  0  0  0  0  0  0  0  0  0
  1  2  2  0
 19  1  1  0
  1 21  1  0
  2  3  1  0
  3 20  2  0
  4 20  1  0
 21  4  2  0
  5 13  1  0
 17  5  1  0
  5 29  1  6
  6  7  1  6
  8  7  2  0
 10  7  1  0
  9  8  1  0
 12  9  2  0
 11 10  2  0
 12 11  1  0
 30 12  1  0
 13 26  1  0
 13 30  1  1
 14 15  1  0
 16 14  1  0
 14 26  1  1
 15 27  1  6
 17 16  1  0
 16 28  1  1
 17 23  1  1
 18 19  2  0
 18 23  1  0
 19 24  1  0
 21 22  1  0
 23 25  1  0
 24 25  2  0
M  END
$$$$
