
     RDKit          3D

 30 33  0  0  0  0  0  0  0  0999 V2000
  -13.0070    9.1037    0.1467 C   0  0  0  0  0  0  0  0  0  0  0  0
  -12.2744    8.0895   -0.4340 C   0  0  0  0  0  0  0  0  0  0  0  0
  -10.9171    7.9689   -0.2352 C   0  0  0  0  0  0  0  0  0  0  0  0
  -10.9646    9.8802    1.1406 C   0  0  0  0  0  0  0  0  0  0  0  0
  -18.8275    8.7978   -1.5831 C   0  0  1  0  0  0  0  0  0  0  0  0
  -27.0545    9.0345   -2.0307 C   0  0  0  0  0  0  0  0  0  0  0  0
  -25.6439    9.1220   -1.6135 C   0  0  0  0  0  0  0  0  0  0  0  0
  -25.0908    8.3142   -0.6460 C   0  0  0  0  0  0  0  0  0  0  0  0
  -23.7603    8.4390   -0.2929 C   0  0  0  0  0  0  0  0  0  0  0  0
  -24.8171   10.0565   -2.2121 C   0  0  0  0  0  0  0  0  0  0  0  0
  -23.4910   10.1730   -1.8530 C   0  0  0  0  0  0  0  0  0  0  0  0
  -22.9276    9.3650   -0.8818 C   0  0  0  0  0  0  0  0  0  0  0  0
  -20.1792    8.2903   -1.3064 C   0  0  1  0  0  0  0  0  0  0  0  0
  -19.2948    6.3011   -0.5029 C   0  0  2  0  0  0  0  0  0  0  0  0
  -19.5678    5.1703    0.4560 C   0  0  0  0  0  0  0  0  0  0  0  0
  -18.1504    7.1015    0.0864 C   0  0  1  0  0  0  0  0  0  0  0  0
  -17.6828    7.9795   -1.0814 C   0  0  2  0  0  0  0  0  0  0  0  0
  -15.2900    8.2624   -0.5776 C   0  0  0  0  0  0  0  0  0  0  0  0
  -14.4530    9.2269   -0.0587 C   0  0  0  0  0  0  0  0  0  0  0  0
  -10.2231    8.8580    0.5560 C   0  0  0  0  0  0  0  0  0  0  0  0
  -12.3248   10.0020    0.9419 C   0  0  0  0  0  0  0  0  0  0  0  0
  -13.0566   10.9977    1.5113 F   0  0  0  0  0  0  0  0  0  0  0  0
  -16.5575    8.7396   -0.6029 N   0  0  0  0  0  0  0  0  0  0  0  0
  -15.2439   10.2735    0.2185 N   0  0  0  0  0  0  0  0  0  0  0  0
  -16.4944    9.9547   -0.1163 N   0  0  0  0  0  0  0  0  0  0  0  0
  -20.3560    7.1350   -0.6412 O   0  0  0  0  0  0  0  0  0  0  0  0
  -20.7563    4.5103    0.2162 O   0  0  0  0  0  0  0  0  0  0  0  0
  -18.5865    7.9720    1.0765 O   0  0  0  0  0  0  0  0  0  0  0  0
  -18.6148    9.0861   -2.9322 O   0  0  0  0  0  0  0  0  0  0  0  0
  -21.2042    9.5641   -0.4647 S   0  0  0  0  0  0  0  0  0  0  0  0
  1  2  2  0
 19  1  1  0
  1 21  1  0
  2  3  1  0
  3 20  2  0
  4 20  1  0
 21  4  2  0
  5 13  1  0
 17  5  1  0
  5 29  1  6
  6  7  1  6
  8  7  2  0
 10  7  1  0
  9  8  1  0
 12  9  2  0
 11 10  2  0
 12 11  1  0
 30 12  1  0
 13 26  1  0
 13 30  1  1
 14 15  1  0
 16 14  1  0
 14 26  1  1
 15 27  1  6
 17 16  1  0
 16 28  1  1
 17 23  1  1
 18 19  2  0
 18 23  1  0
 19 24  1  0
 21 22  1  0
 23 25  1  0
 24 25  2  0
M  END
$$$$
