
     RDKit          3D

 30 33  0  0  0  0  0  0  0  0999 V2000
  -13.6115    8.9253    0.4848 C   0  0  0  0  0  0  0  0  0  0  0  0
  -14.1763    9.7731    1.4147 C   0  0  0  0  0  0  0  0  0  0  0  0
  -13.4195   10.4003    2.3793 C   0  0  0  0  0  0  0  0  0  0  0  0
  -11.4902    9.3552    1.5227 C   0  0  0  0  0  0  0  0  0  0  0  0
  -18.4366    8.4100   -2.0375 C   0  0  1  0  0  0  0  0  0  0  0  0
  -26.1251   10.8362   -0.5254 C   0  0  0  0  0  0  0  0  0  0  0  0
  -24.6987   10.4887   -0.3989 C   0  0  0  0  0  0  0  0  0  0  0  0
  -24.1125   10.1258    0.7924 C   0  0  0  0  0  0  0  0  0  0  0  0
  -22.7684    9.8092    0.8544 C   0  0  0  0  0  0  0  0  0  0  0  0
  -23.8909   10.5225   -1.5220 C   0  0  0  0  0  0  0  0  0  0  0  0
  -22.5511   10.2048   -1.4498 C   0  0  0  0  0  0  0  0  0  0  0  0
  -21.9545    9.8391   -0.2566 C   0  0  0  0  0  0  0  0  0  0  0  0
  -19.8098    8.2201   -1.5483 C   0  0  1  0  0  0  0  0  0  0  0  0
  -19.4755    5.9271   -1.4254 C   0  0  2  0  0  0  0  0  0  0  0  0
  -19.9218    4.6899   -0.6887 C   0  0  0  0  0  0  0  0  0  0  0  0
  -18.0526    6.2048   -0.9827 C   0  0  1  0  0  0  0  0  0  0  0  0
  -17.5411    7.2144   -2.0183 C   0  0  2  0  0  0  0  0  0  0  0  0
  -15.7904    8.1592   -0.5686 C   0  0  0  0  0  0  0  0  0  0  0  0
  -14.4162    8.2643   -0.5466 C   0  0  0  0  0  0  0  0  0  0  0  0
  -12.0574   10.2110    2.4620 C   0  0  0  0  0  0  0  0  0  0  0  0
  -12.2477    8.7261    0.5558 C   0  0  0  0  0  0  0  0  0  0  0  0
  -11.7000    7.8895   -0.3668 F   0  0  0  0  0  0  0  0  0  0  0  0
  -16.1681    7.4902   -1.6842 N   0  0  0  0  0  0  0  0  0  0  0  0
  -13.9938    7.6491   -1.6605 N   0  0  0  0  0  0  0  0  0  0  0  0
  -15.0605    7.1968   -2.3202 N   0  0  0  0  0  0  0  0  0  0  0  0
  -20.2251    7.0155   -1.1183 O   0  0  0  0  0  0  0  0  0  0  0  0
  -20.8038    4.9425    0.3427 O   0  0  0  0  0  0  0  0  0  0  0  0
  -18.0120    6.8529    0.2447 O   0  0  0  0  0  0  0  0  0  0  0  0
  -18.3810    8.9909   -3.3055 O   0  0  0  0  0  0  0  0  0  0  0  0
  -20.2163    9.4369   -0.2307 S   0  0  0  0  0  0  0  0  0  0  0  0
  1  2  2  0
 19  1  1  0
  1 21  1  0
  2  3  1  0
  3 20  2  0
  4 20  1  0
 21  4  2  0
  5 13  1  0
 17  5  1  0
  5 29  1  6
  6  7  1  6
  8  7  2  0
 10  7  1  0
  9  8  1  0
 12  9  2  0
 11 10  2  0
 12 11  1  0
 30 12  1  0
 13 26  1  0
 13 30  1  1
 14 15  1  0
 16 14  1  0
 14 26  1  1
 15 27  1  6
 17 16  1  0
 16 28  1  1
 17 23  1  1
 18 19  2  0
 18 23  1  0
 19 24  1  0
 21 22  1  0
 23 25  1  0
 24 25  2  0
M  END
$$$$
