
     RDKit          3D

 30 33  0  0  0  0  0  0  0  0999 V2000
  -12.9079    9.1214    0.1047 C   0  0  0  0  0  0  0  0  0  0  0  0
  -11.8239    8.6970   -0.6360 C   0  0  0  0  0  0  0  0  0  0  0  0
  -10.5758    9.2093   -0.4796 C   0  0  0  0  0  0  0  0  0  0  0  0
  -11.4626   10.6325    1.2119 C   0  0  0  0  0  0  0  0  0  0  0  0
  -18.5936    8.9159    0.1022 C   0  0  1  0  0  0  0  0  0  0  0  0
  -26.6885   10.6864   -1.2620 C   0  0  0  0  0  0  0  0  0  0  0  0
  -25.3153   10.3465   -0.7574 C   0  0  0  0  0  0  0  0  0  0  0  0
  -25.2013    9.4181    0.2555 C   0  0  0  0  0  0  0  0  0  0  0  0
  -23.9410    9.1105    0.7137 C   0  0  0  0  0  0  0  0  0  0  0  0
  -24.2098   10.9733   -1.3223 C   0  0  0  0  0  0  0  0  0  0  0  0
  -22.9596   10.6423   -0.8396 C   0  0  0  0  0  0  0  0  0  0  0  0
  -22.8189    9.7060    0.1844 C   0  0  0  0  0  0  0  0  0  0  0  0
  -19.9844    9.0322   -0.4578 C   0  0  1  0  0  0  0  0  0  0  0  0
  -19.7461    6.8454   -1.2621 C   0  0  2  0  0  0  0  0  0  0  0  0
  -20.3080    5.9150   -0.1916 C   0  0  0  0  0  0  0  0  0  0  0  0
  -18.2588    6.8708   -1.1584 C   0  0  1  0  0  0  0  0  0  0  0  0
  -17.7336    8.2924   -0.9645 C   0  0  2  0  0  0  0  0  0  0  0  0
  -15.3840    9.1224   -0.5147 C   0  0  0  0  0  0  0  0  0  0  0  0
  -14.2296    8.5154   -0.1251 C   0  0  0  0  0  0  0  0  0  0  0  0
  -10.3792   10.2077    0.4708 C   0  0  0  0  0  0  0  0  0  0  0  0
  -12.7236   10.1042    1.0429 C   0  0  0  0  0  0  0  0  0  0  0  0
  -13.7547   10.5622    1.8032 F   0  0  0  0  0  0  0  0  0  0  0  0
  -16.3527    8.1833   -0.6008 N   0  0  0  0  0  0  0  0  0  0  0  0
  -14.5297    7.2164    0.0159 N   0  0  0  0  0  0  0  0  0  0  0  0
  -15.8047    7.0159   -0.2697 N   0  0  0  0  0  0  0  0  0  0  0  0
  -20.3733    8.0488   -1.3057 O   0  0  0  0  0  0  0  0  0  0  0  0
  -21.3960    5.1869   -0.6510 O   0  0  0  0  0  0  0  0  0  0  0  0
  -17.8103    6.1266   -0.0428 O   0  0  0  0  0  0  0  0  0  0  0  0
  -18.1606   10.1927    0.4617 O   0  0  0  0  0  0  0  0  0  0  0  0
  -21.2328    9.2482    0.8351 S   0  0  0  0  0  0  0  0  0  0  0  0
  1  2  2  0
 19  1  1  0
  1 21  1  0
  2  3  1  0
  3 20  2  0
  4 20  1  0
 21  4  2  0
  5 13  1  0
 17  5  1  0
  5 29  1  6
  7  6  1  0
  8  7  2  0
 10  7  1  0
  9  8  1  0
 12  9  2  0
 11 10  2  0
 12 11  1  0
 30 12  1  0
 13 26  1  0
 13 30  1  1
 14 15  1  1
 16 14  1  0
 14 26  1  0
 15 27  1  0
 17 16  1  0
 16 28  1  1
 17 23  1  1
 18 19  2  0
 18 23  1  0
 19 24  1  0
 21 22  1  0
 23 25  1  0
 24 25  2  0
M  END
$$$$
