
     RDKit          3D

 30 33  0  0  0  0  0  0  0  0999 V2000
  -13.1893    8.6643    0.2148 C   0  0  0  0  0  0  0  0  0  0  0  0
  -11.9406    8.2602   -0.2108 C   0  0  0  0  0  0  0  0  0  0  0  0
  -10.8288    8.3566    0.5634 C   0  0  0  0  0  0  0  0  0  0  0  0
  -12.2011    9.2913    2.2711 C   0  0  0  0  0  0  0  0  0  0  0  0
  -18.6344    9.1058   -1.0115 C   0  0  1  0  0  0  0  0  0  0  0  0
  -26.6924   10.2731   -2.7141 C   0  0  0  0  0  0  0  0  0  0  0  0
  -25.3277   10.1290   -2.1036 C   0  0  0  0  0  0  0  0  0  0  0  0
  -24.9420    8.8860   -1.6487 C   0  0  0  0  0  0  0  0  0  0  0  0
  -23.6908    8.7598   -1.0905 C   0  0  0  0  0  0  0  0  0  0  0  0
  -24.5015   11.2444   -2.0164 C   0  0  0  0  0  0  0  0  0  0  0  0
  -23.2525   11.0836   -1.4509 C   0  0  0  0  0  0  0  0  0  0  0  0
  -22.8399    9.8360   -0.9836 C   0  0  0  0  0  0  0  0  0  0  0  0
  -20.0614    8.8316   -1.3986 C   0  0  1  0  0  0  0  0  0  0  0  0
  -19.6266    6.5580   -1.0411 C   0  0  2  0  0  0  0  0  0  0  0  0
  -20.0117    6.2541    0.4034 C   0  0  0  0  0  0  0  0  0  0  0  0
  -18.1483    6.7322   -1.1284 C   0  0  1  0  0  0  0  0  0  0  0  0
  -17.7770    8.0912   -1.7198 C   0  0  2  0  0  0  0  0  0  0  0  0
  -15.6557    8.3485   -0.3611 C   0  0  0  0  0  0  0  0  0  0  0  0
  -14.3458    8.5266   -0.6854 C   0  0  0  0  0  0  0  0  0  0  0  0
  -10.9528    8.8869    1.8449 C   0  0  0  0  0  0  0  0  0  0  0  0
  -13.3208    9.1878    1.4753 C   0  0  0  0  0  0  0  0  0  0  0  0
  -14.5266    9.6024    1.9496 F   0  0  0  0  0  0  0  0  0  0  0  0
  -16.3727    8.2727   -1.5047 N   0  0  0  0  0  0  0  0  0  0  0  0
  -14.3019    8.5541   -2.0251 N   0  0  0  0  0  0  0  0  0  0  0  0
  -15.5189    8.4016   -2.5181 N   0  0  0  0  0  0  0  0  0  0  0  0
  -20.3880    7.5319   -1.6027 O   0  0  0  0  0  0  0  0  0  0  0  0
  -21.2123    5.5643    0.4898 O   0  0  0  0  0  0  0  0  0  0  0  0
  -17.5498    6.6798    0.1517 O   0  0  0  0  0  0  0  0  0  0  0  0
  -18.3279   10.4166   -1.3784 O   0  0  0  0  0  0  0  0  0  0  0  0
  -21.2437    9.5817   -0.2513 S   0  0  0  0  0  0  0  0  0  0  0  0
  1  2  2  0
 19  1  1  0
  1 21  1  0
  2  3  1  0
  3 20  2  0
  4 20  1  0
 21  4  2  0
  5 13  1  0
 17  5  1  0
  5 29  1  6
  7  6  1  0
  8  7  2  0
 10  7  1  0
  9  8  1  0
 12  9  2  0
 11 10  2  0
 12 11  1  0
 30 12  1  0
 13 26  1  0
 13 30  1  1
 14 15  1  1
 16 14  1  0
 14 26  1  0
 15 27  1  0
 17 16  1  0
 16 28  1  1
 17 23  1  1
 18 19  2  0
 18 23  1  0
 19 24  1  0
 21 22  1  0
 23 25  1  0
 24 25  2  0
M  END
$$$$
