
     RDKit          3D

 30 33  0  0  0  0  0  0  0  0999 V2000
  -12.8743    9.0858   -0.1326 C   0  0  0  0  0  0  0  0  0  0  0  0
  -12.0668    9.1068    0.9853 C   0  0  0  0  0  0  0  0  0  0  0  0
  -10.6949    9.1787    0.8887 C   0  0  0  0  0  0  0  0  0  0  0  0
  -10.8779    9.2123   -1.4594 C   0  0  0  0  0  0  0  0  0  0  0  0
  -18.6095    9.0357   -1.6116 C   0  0  1  0  0  0  0  0  0  0  0  0
  -26.7441   10.1426   -2.5255 C   0  0  0  0  0  0  0  0  0  0  0  0
  -25.3647   10.0286   -2.0197 C   0  0  0  0  0  0  0  0  0  0  0  0
  -24.9510    9.0248   -1.1737 C   0  0  0  0  0  0  0  0  0  0  0  0
  -23.6435    8.9654   -0.7293 C   0  0  0  0  0  0  0  0  0  0  0  0
  -24.4229   10.9675   -2.4026 C   0  0  0  0  0  0  0  0  0  0  0  0
  -23.1209   10.8994   -1.9539 C   0  0  0  0  0  0  0  0  0  0  0  0
  -22.6972    9.8938   -1.1037 C   0  0  0  0  0  0  0  0  0  0  0  0
  -20.0253    8.6459   -1.5418 C   0  0  1  0  0  0  0  0  0  0  0  0
  -19.4245    6.4579   -1.0552 C   0  0  2  0  0  0  0  0  0  0  0  0
  -19.9007    5.2146   -0.3481 C   0  0  0  0  0  0  0  0  0  0  0  0
  -18.2705    7.0051   -0.2387 C   0  0  1  0  0  0  0  0  0  0  0  0
  -17.6059    8.0158   -1.1822 C   0  0  2  0  0  0  0  0  0  0  0  0
  -15.1899    8.4101   -0.9235 C   0  0  0  0  0  0  0  0  0  0  0  0
  -14.3347    9.0174   -0.0291 C   0  0  0  0  0  0  0  0  0  0  0  0
  -10.0608    9.2337   -0.3332 C   0  0  0  0  0  0  0  0  0  0  0  0
  -12.2527    9.1401   -1.3636 C   0  0  0  0  0  0  0  0  0  0  0  0
  -13.0580    9.1204   -2.4601 F   0  0  0  0  0  0  0  0  0  0  0  0
  -16.4639    8.5453   -0.4833 N   0  0  0  0  0  0  0  0  0  0  0  0
  -15.1216    9.5099    0.9384 N   0  0  0  0  0  0  0  0  0  0  0  0
  -16.3871    9.2133    0.6415 N   0  0  0  0  0  0  0  0  0  0  0  0
  -20.3796    7.4194   -1.1192 O   0  0  0  0  0  0  0  0  0  0  0  0
  -21.2457    4.9557   -0.5198 O   0  0  0  0  0  0  0  0  0  0  0  0
  -18.7142    7.7313    0.8584 O   0  0  0  0  0  0  0  0  0  0  0  0
  -18.2376    9.5312   -2.8624 O   0  0  0  0  0  0  0  0  0  0  0  0
  -20.9977    9.8602   -0.5612 S   0  0  0  0  0  0  0  0  0  0  0  0
  1  2  2  0
 19  1  1  0
  1 21  1  0
  2  3  1  0
  3 20  2  0
  4 20  1  0
 21  4  2  0
  5 13  1  0
 17  5  1  0
  5 29  1  6
  6  7  1  6
  8  7  2  0
 10  7  1  0
  9  8  1  0
 12  9  2  0
 11 10  2  0
 12 11  1  0
 30 12  1  0
 13 26  1  0
 13 30  1  1
 14 15  1  0
 16 14  1  0
 14 26  1  1
 15 27  1  6
 17 16  1  0
 16 28  1  1
 17 23  1  1
 18 19  2  0
 18 23  1  0
 19 24  1  0
 21 22  1  0
 23 25  1  0
 24 25  2  0
M  END
$$$$
