
     RDKit          3D

 30 33  0  0  0  0  0  0  0  0999 V2000
  -13.0742    8.8853   -0.2781 C   0  0  0  0  0  0  0  0  0  0  0  0
  -12.3395    9.8983    0.3018 C   0  0  0  0  0  0  0  0  0  0  0  0
  -10.9744    9.9875    0.1433 C   0  0  0  0  0  0  0  0  0  0  0  0
  -11.0182    8.0454   -1.1888 C   0  0  0  0  0  0  0  0  0  0  0  0
  -18.9059    8.9613   -1.4154 C   0  0  1  0  0  0  0  0  0  0  0  0
  -27.1155    9.6369   -1.6356 C   0  0  0  0  0  0  0  0  0  0  0  0
  -25.7056    9.5930   -1.2091 C   0  0  0  0  0  0  0  0  0  0  0  0
  -25.3137    9.2801    0.0727 C   0  0  0  0  0  0  0  0  0  0  0  0
  -23.9758    9.2534    0.4190 C   0  0  0  0  0  0  0  0  0  0  0  0
  -24.7107    9.8772   -2.1280 C   0  0  0  0  0  0  0  0  0  0  0  0
  -23.3787    9.8477   -1.7727 C   0  0  0  0  0  0  0  0  0  0  0  0
  -22.9766    9.5342   -0.4868 C   0  0  0  0  0  0  0  0  0  0  0  0
  -20.3031    8.5133   -1.3229 C   0  0  1  0  0  0  0  0  0  0  0  0
  -19.6143    6.2985   -1.2519 C   0  0  2  0  0  0  0  0  0  0  0  0
  -20.0086    4.9380   -0.7361 C   0  0  0  0  0  0  0  0  0  0  0  0
  -18.4214    6.7440   -0.4295 C   0  0  1  0  0  0  0  0  0  0  0  0
  -17.8494    7.9218   -1.2289 C   0  0  2  0  0  0  0  0  0  0  0  0
  -15.4241    8.2968   -1.0369 C   0  0  0  0  0  0  0  0  0  0  0  0
  -14.5281    8.7955   -0.1157 C   0  0  0  0  0  0  0  0  0  0  0  0
  -10.2745    9.0663   -0.6049 C   0  0  0  0  0  0  0  0  0  0  0  0
  -12.3861    7.9551   -1.0304 C   0  0  0  0  0  0  0  0  0  0  0  0
  -13.1200    6.9608   -1.5996 F   0  0  0  0  0  0  0  0  0  0  0  0
  -16.6760    8.3690   -0.5246 N   0  0  0  0  0  0  0  0  0  0  0  0
  -15.2689    9.1609    0.9404 N   0  0  0  0  0  0  0  0  0  0  0  0
  -16.5468    8.8949    0.6688 N   0  0  0  0  0  0  0  0  0  0  0  0
  -20.5960    7.2214   -1.0919 O   0  0  0  0  0  0  0  0  0  0  0  0
  -21.2085    4.4769   -1.2395 O   0  0  0  0  0  0  0  0  0  0  0  0
  -18.8072    7.2602    0.8004 O   0  0  0  0  0  0  0  0  0  0  0  0
  -18.6337    9.6718   -2.5856 O   0  0  0  0  0  0  0  0  0  0  0  0
  -21.2368    9.5104   -0.0917 S   0  0  0  0  0  0  0  0  0  0  0  0
  1  2  2  0
 19  1  1  0
  1 21  1  0
  2  3  1  0
  3 20  2  0
  4 20  1  0
 21  4  2  0
  5 13  1  0
 17  5  1  0
  5 29  1  6
  6  7  1  6
  8  7  2  0
 10  7  1  0
  9  8  1  0
 12  9  2  0
 11 10  2  0
 12 11  1  0
 30 12  1  0
 13 26  1  0
 13 30  1  1
 14 15  1  0
 16 14  1  0
 14 26  1  1
 15 27  1  6
 17 16  1  0
 16 28  1  1
 17 23  1  1
 18 19  2  0
 18 23  1  0
 19 24  1  0
 21 22  1  0
 23 25  1  0
 24 25  2  0
M  END
$$$$
