
     RDKit          3D

 30 33  0  0  0  0  0  0  0  0999 V2000
  -12.8674    9.1621    0.1462 C   0  0  0  0  0  0  0  0  0  0  0  0
  -12.4032    9.8067   -0.9819 C   0  0  0  0  0  0  0  0  0  0  0  0
  -11.1138   10.2085   -1.1256 C   0  0  0  0  0  0  0  0  0  0  0  0
  -10.6819    9.3150    1.0396 C   0  0  0  0  0  0  0  0  0  0  0  0
  -18.7742    9.0454    0.0384 C   0  0  1  0  0  0  0  0  0  0  0  0
  -26.6105   10.2718   -2.7027 C   0  0  0  0  0  0  0  0  0  0  0  0
  -25.3241   10.0136   -1.9716 C   0  0  0  0  0  0  0  0  0  0  0  0
  -25.3171   10.1304   -0.5979 C   0  0  0  0  0  0  0  0  0  0  0  0
  -24.1360    9.8926    0.0666 C   0  0  0  0  0  0  0  0  0  0  0  0
  -24.1887    9.6675   -2.6964 C   0  0  0  0  0  0  0  0  0  0  0  0
  -23.0200    9.4358   -1.9993 C   0  0  0  0  0  0  0  0  0  0  0  0
  -22.9881    9.5477   -0.6095 C   0  0  0  0  0  0  0  0  0  0  0  0
  -20.0684    8.9444   -0.7208 C   0  0  1  0  0  0  0  0  0  0  0  0
  -19.5717    6.6852   -1.0884 C   0  0  2  0  0  0  0  0  0  0  0  0
  -20.2291    5.8967    0.0401 C   0  0  0  0  0  0  0  0  0  0  0  0
  -18.1221    6.8592   -0.7855 C   0  0  1  0  0  0  0  0  0  0  0  0
  -17.7242    8.3343   -0.7728 C   0  0  2  0  0  0  0  0  0  0  0  0
  -15.2659    8.9367   -0.6972 C   0  0  0  0  0  0  0  0  0  0  0  0
  -14.2809    8.7583    0.2251 C   0  0  0  0  0  0  0  0  0  0  0  0
  -10.2184    9.9595   -0.0888 C   0  0  0  0  0  0  0  0  0  0  0  0
  -11.9927    8.9127    1.1724 C   0  0  0  0  0  0  0  0  0  0  0  0
  -12.3929    8.2804    2.3085 F   0  0  0  0  0  0  0  0  0  0  0  0
  -16.4104    8.4094   -0.2076 N   0  0  0  0  0  0  0  0  0  0  0  0
  -14.8567    8.1239    1.2562 N   0  0  0  0  0  0  0  0  0  0  0  0
  -16.1358    7.9139    0.9973 N   0  0  0  0  0  0  0  0  0  0  0  0
  -20.2605    7.8046   -1.4288 O   0  0  0  0  0  0  0  0  0  0  0  0
  -21.1884    5.0119   -0.4307 O   0  0  0  0  0  0  0  0  0  0  0  0
  -17.8016    6.3509    0.4946 O   0  0  0  0  0  0  0  0  0  0  0  0
  -18.4832   10.3973    0.2251 O   0  0  0  0  0  0  0  0  0  0  0  0
  -21.5099    9.2578    0.3284 S   0  0  0  0  0  0  0  0  0  0  0  0
  1  2  2  0
 19  1  1  0
  1 21  1  0
  2  3  1  0
  3 20  2  0
  4 20  1  0
 21  4  2  0
  5 13  1  0
 17  5  1  0
  5 29  1  6
  7  6  1  0
  8  7  2  0
 10  7  1  0
  9  8  1  0
 12  9  2  0
 11 10  2  0
 12 11  1  0
 30 12  1  0
 13 26  1  0
 13 30  1  1
 14 15  1  1
 16 14  1  0
 14 26  1  0
 15 27  1  0
 17 16  1  0
 16 28  1  1
 17 23  1  1
 18 19  2  0
 18 23  1  0
 19 24  1  0
 21 22  1  0
 23 25  1  0
 24 25  2  0
M  END
$$$$
