
     RDKit          3D

 30 33  0  0  0  0  0  0  0  0999 V2000
  -13.5825    9.3117    0.4275 C   0  0  0  0  0  0  0  0  0  0  0  0
  -13.5351   10.6544    0.1157 C   0  0  0  0  0  0  0  0  0  0  0  0
  -12.6828   11.5205    0.7637 C   0  0  0  0  0  0  0  0  0  0  0  0
  -11.8834    9.7313    2.0704 C   0  0  0  0  0  0  0  0  0  0  0  0
  -18.4341    8.7270   -1.6387 C   0  0  1  0  0  0  0  0  0  0  0  0
  -26.1279   11.2786   -0.1615 C   0  0  0  0  0  0  0  0  0  0  0  0
  -24.7032   10.9235   -0.0363 C   0  0  0  0  0  0  0  0  0  0  0  0
  -23.9865   11.0752    1.1290 C   0  0  0  0  0  0  0  0  0  0  0  0
  -22.6507   10.7256    1.1910 C   0  0  0  0  0  0  0  0  0  0  0  0
  -24.0340   10.4101   -1.1334 C   0  0  0  0  0  0  0  0  0  0  0  0
  -22.7013   10.0641   -1.0613 C   0  0  0  0  0  0  0  0  0  0  0  0
  -21.9741   10.2134    0.1059 C   0  0  0  0  0  0  0  0  0  0  0  0
  -19.8565    8.6360   -1.2785 C   0  0  1  0  0  0  0  0  0  0  0  0
  -19.7627    6.3202   -1.3923 C   0  0  2  0  0  0  0  0  0  0  0  0
  -20.3911    5.0676   -0.8365 C   0  0  0  0  0  0  0  0  0  0  0  0
  -18.3629    6.3946   -0.8155 C   0  0  1  0  0  0  0  0  0  0  0  0
  -17.6664    7.4464   -1.6884 C   0  0  2  0  0  0  0  0  0  0  0  0
  -15.8108    8.6123   -0.5674 C   0  0  0  0  0  0  0  0  0  0  0  0
  -14.4839    8.3887   -0.2680 C   0  0  0  0  0  0  0  0  0  0  0  0
  -11.8335   11.0863    1.7577 C   0  0  0  0  0  0  0  0  0  0  0  0
  -12.7371    8.8625    1.4217 C   0  0  0  0  0  0  0  0  0  0  0  0
  -12.7903    7.5363    1.7208 F   0  0  0  0  0  0  0  0  0  0  0  0
  -16.3068    7.5358   -1.2232 N   0  0  0  0  0  0  0  0  0  0  0  0
  -14.2092    7.1700   -0.7547 N   0  0  0  0  0  0  0  0  0  0  0  0
  -15.3151    6.6845   -1.3193 N   0  0  0  0  0  0  0  0  0  0  0  0
  -20.4245    7.4447   -1.0206 O   0  0  0  0  0  0  0  0  0  0  0  0
  -21.7698    5.1124   -0.7818 O   0  0  0  0  0  0  0  0  0  0  0  0
  -18.3644    6.9017    0.4771 O   0  0  0  0  0  0  0  0  0  0  0  0
  -18.2120    9.4288   -2.8247 O   0  0  0  0  0  0  0  0  0  0  0  0
  -20.2528    9.7440    0.1346 S   0  0  0  0  0  0  0  0  0  0  0  0
  1  2  2  0
 19  1  1  0
  1 21  1  0
  2  3  1  0
  3 20  2  0
  4 20  1  0
 21  4  2  0
  5 13  1  0
 17  5  1  0
  5 29  1  6
  6  7  1  6
  8  7  2  0
 10  7  1  0
  9  8  1  0
 12  9  2  0
 11 10  2  0
 12 11  1  0
 30 12  1  0
 13 26  1  0
 13 30  1  1
 14 15  1  0
 16 14  1  0
 14 26  1  1
 15 27  1  6
 17 16  1  0
 16 28  1  1
 17 23  1  1
 18 19  2  0
 18 23  1  0
 19 24  1  0
 21 22  1  0
 23 25  1  0
 24 25  2  0
M  END
$$$$
