
     RDKit          3D

 30 33  0  0  0  0  0  0  0  0999 V2000
  -13.5629    9.4486   -1.7080 C   0  0  0  0  0  0  0  0  0  0  0  0
  -12.4874    8.9124   -1.0311 C   0  0  0  0  0  0  0  0  0  0  0  0
  -11.1935    9.0883   -1.4683 C   0  0  0  0  0  0  0  0  0  0  0  0
  -11.9965   10.3507   -3.2875 C   0  0  0  0  0  0  0  0  0  0  0  0
  -19.4535    9.0311   -1.7359 C   0  0  1  0  0  0  0  0  0  0  0  0
  -27.5698    9.8161   -1.0541 C   0  0  0  0  0  0  0  0  0  0  0  0
  -26.1218    9.8168   -0.7806 C   0  0  0  0  0  0  0  0  0  0  0  0
  -25.5819   10.1882    0.4298 C   0  0  0  0  0  0  0  0  0  0  0  0
  -24.2147   10.1702    0.6324 C   0  0  0  0  0  0  0  0  0  0  0  0
  -25.2439    9.4281   -1.7772 C   0  0  0  0  0  0  0  0  0  0  0  0
  -23.8815    9.4133   -1.5652 C   0  0  0  0  0  0  0  0  0  0  0  0
  -23.3311    9.7849   -0.3518 C   0  0  0  0  0  0  0  0  0  0  0  0
  -20.7906    8.5717   -1.3330 C   0  0  1  0  0  0  0  0  0  0  0  0
  -19.9835    6.4189   -1.0188 C   0  0  2  0  0  0  0  0  0  0  0  0
  -20.2148    5.1571   -0.2271 C   0  0  0  0  0  0  0  0  0  0  0  0
  -18.6965    7.0270   -0.4976 C   0  0  1  0  0  0  0  0  0  0  0  0
  -18.3272    8.0646   -1.5654 C   0  0  2  0  0  0  0  0  0  0  0  0
  -15.9567    8.6292   -1.9137 C   0  0  0  0  0  0  0  0  0  0  0  0
  -14.9393    9.2679   -1.2378 C   0  0  0  0  0  0  0  0  0  0  0  0
  -10.9097    9.8109   -2.6065 C   0  0  0  0  0  0  0  0  0  0  0  0
  -13.2936   10.1749   -2.8503 C   0  0  0  0  0  0  0  0  0  0  0  0
  -14.3610   10.7010   -3.5099 F   0  0  0  0  0  0  0  0  0  0  0  0
  -17.0791    8.6539   -1.1557 N   0  0  0  0  0  0  0  0  0  0  0  0
  -15.4783    9.6673   -0.0769 N   0  0  0  0  0  0  0  0  0  0  0  0
  -16.7561    9.2874   -0.0549 N   0  0  0  0  0  0  0  0  0  0  0  0
  -20.9727    7.3313   -0.8465 O   0  0  0  0  0  0  0  0  0  0  0  0
  -21.3341    4.4503   -0.6185 O   0  0  0  0  0  0  0  0  0  0  0  0
  -18.9010    7.7359    0.6787 O   0  0  0  0  0  0  0  0  0  0  0  0
  -19.4160    9.5380   -3.0359 O   0  0  0  0  0  0  0  0  0  0  0  0
  -21.5599    9.7412   -0.1404 S   0  0  0  0  0  0  0  0  0  0  0  0
  1  2  2  0
 19  1  1  0
  1 21  1  0
  2  3  1  0
  3 20  2  0
  4 20  1  0
 21  4  2  0
  5 13  1  0
 17  5  1  0
  5 29  1  6
  6  7  1  6
  8  7  2  0
 10  7  1  0
  9  8  1  0
 12  9  2  0
 11 10  2  0
 12 11  1  0
 30 12  1  0
 13 26  1  0
 13 30  1  1
 14 15  1  0
 16 14  1  0
 14 26  1  1
 15 27  1  6
 17 16  1  0
 16 28  1  1
 17 23  1  1
 18 19  2  0
 18 23  1  0
 19 24  1  0
 21 22  1  0
 23 25  1  0
 24 25  2  0
M  END
$$$$
