
     RDKit          3D

 30 33  0  0  0  0  0  0  0  0999 V2000
  -12.7752    8.9866    0.2591 C   0  0  0  0  0  0  0  0  0  0  0  0
  -12.2209    9.4977   -0.8963 C   0  0  0  0  0  0  0  0  0  0  0  0
  -10.8996    9.7887   -1.0162 C   0  0  0  0  0  0  0  0  0  0  0  0
  -10.6188    9.0504    1.2308 C   0  0  0  0  0  0  0  0  0  0  0  0
  -18.6376    9.0581   -0.5017 C   0  0  1  0  0  0  0  0  0  0  0  0
  -26.0172    8.7368   -4.3861 C   0  0  0  0  0  0  0  0  0  0  0  0
  -24.8698    8.9392   -3.4382 C   0  0  0  0  0  0  0  0  0  0  0  0
  -23.8035    8.0677   -3.5053 C   0  0  0  0  0  0  0  0  0  0  0  0
  -22.7553    8.2580   -2.6348 C   0  0  0  0  0  0  0  0  0  0  0  0
  -24.9172    9.9908   -2.5292 C   0  0  0  0  0  0  0  0  0  0  0  0
  -23.8494   10.1538   -1.6698 C   0  0  0  0  0  0  0  0  0  0  0  0
  -22.7595    9.2850   -1.7187 C   0  0  0  0  0  0  0  0  0  0  0  0
  -19.8548    8.7314   -1.3222 C   0  0  1  0  0  0  0  0  0  0  0  0
  -19.4967    6.4785   -0.7910 C   0  0  2  0  0  0  0  0  0  0  0  0
  -20.3197    6.1807    0.4585 C   0  0  0  0  0  0  0  0  0  0  0  0
  -18.0749    6.7008   -0.4006 C   0  0  1  0  0  0  0  0  0  0  0  0
  -17.5698    8.0636   -0.8718 C   0  0  2  0  0  0  0  0  0  0  0  0
  -15.0898    8.5540   -0.7260 C   0  0  0  0  0  0  0  0  0  0  0  0
  -14.2178    8.6974    0.3092 C   0  0  0  0  0  0  0  0  0  0  0  0
  -10.0652    9.5615    0.0751 C   0  0  0  0  0  0  0  0  0  0  0  0
  -11.9611    8.7596    1.3389 C   0  0  0  0  0  0  0  0  0  0  0  0
  -12.4510    8.2565    2.5042 F   0  0  0  0  0  0  0  0  0  0  0  0
  -16.3159    8.2946   -0.2192 N   0  0  0  0  0  0  0  0  0  0  0  0
  -14.9417    8.5204    1.4236 N   0  0  0  0  0  0  0  0  0  0  0  0
  -16.2022    8.2784    1.1072 N   0  0  0  0  0  0  0  0  0  0  0  0
  -20.0621    7.4191   -1.5906 O   0  0  0  0  0  0  0  0  0  0  0  0
  -21.2486    5.1727    0.2443 O   0  0  0  0  0  0  0  0  0  0  0  0
  -17.9212    6.6851    1.0050 O   0  0  0  0  0  0  0  0  0  0  0  0
  -18.2649   10.3736   -0.7803 O   0  0  0  0  0  0  0  0  0  0  0  0
  -21.3645    9.4566   -0.6355 S   0  0  0  0  0  0  0  0  0  0  0  0
  1  2  2  0
 19  1  1  0
  1 21  1  0
  2  3  1  0
  3 20  2  0
  4 20  1  0
 21  4  2  0
  5 13  1  0
 17  5  1  0
  5 29  1  6
  7  6  1  0
  8  7  2  0
 10  7  1  0
  9  8  1  0
 12  9  2  0
 11 10  2  0
 12 11  1  0
 30 12  1  0
 13 26  1  0
 13 30  1  1
 14 15  1  1
 16 14  1  0
 14 26  1  0
 15 27  1  0
 17 16  1  0
 16 28  1  1
 17 23  1  1
 18 19  2  0
 18 23  1  0
 19 24  1  0
 21 22  1  0
 23 25  1  0
 24 25  2  0
M  END
$$$$
