
     RDKit          3D

 30 33  0  0  0  0  0  0  0  0999 V2000
  -12.7643    8.7999    0.4242 C   0  0  0  0  0  0  0  0  0  0  0  0
  -12.0782    9.0865   -0.7380 C   0  0  0  0  0  0  0  0  0  0  0  0
  -10.7222    9.1200   -0.8067 C   0  0  0  0  0  0  0  0  0  0  0  0
  -10.6748    8.5667    1.5095 C   0  0  0  0  0  0  0  0  0  0  0  0
  -18.7459    9.0034   -0.3003 C   0  0  1  0  0  0  0  0  0  0  0  0
  -26.2273    9.1486   -4.0588 C   0  0  0  0  0  0  0  0  0  0  0  0
  -25.0309    9.1338   -3.1509 C   0  0  0  0  0  0  0  0  0  0  0  0
  -25.2279    9.3569   -1.8047 C   0  0  0  0  0  0  0  0  0  0  0  0
  -24.1284    9.3421   -0.9778 C   0  0  0  0  0  0  0  0  0  0  0  0
  -23.7713    8.8976   -3.6912 C   0  0  0  0  0  0  0  0  0  0  0  0
  -22.6892    8.8896   -2.8342 C   0  0  0  0  0  0  0  0  0  0  0  0
  -22.8633    9.1127   -1.4685 C   0  0  0  0  0  0  0  0  0  0  0  0
  -19.9501    8.5863   -1.0986 C   0  0  1  0  0  0  0  0  0  0  0  0
  -19.3347    6.3626   -0.6952 C   0  0  2  0  0  0  0  0  0  0  0  0
  -20.0755    5.9181    0.5621 C   0  0  0  0  0  0  0  0  0  0  0  0
  -17.9316    6.7188   -0.3379 C   0  0  1  0  0  0  0  0  0  0  0  0
  -17.5921    8.1493   -0.7537 C   0  0  2  0  0  0  0  0  0  0  0  0
  -15.0730    8.2843   -0.5343 C   0  0  0  0  0  0  0  0  0  0  0  0
  -14.2363    8.7834    0.4162 C   0  0  0  0  0  0  0  0  0  0  0  0
   -9.9895    8.8533    0.3469 C   0  0  0  0  0  0  0  0  0  0  0  0
  -12.0510    8.5360    1.5651 C   0  0  0  0  0  0  0  0  0  0  0  0
  -12.6727    8.2467    2.7402 F   0  0  0  0  0  0  0  0  0  0  0  0
  -16.3473    8.4833   -0.1291 N   0  0  0  0  0  0  0  0  0  0  0  0
  -15.0292    9.2752    1.3789 N   0  0  0  0  0  0  0  0  0  0  0  0
  -16.2974    9.0954    1.0523 N   0  0  0  0  0  0  0  0  0  0  0  0
  -20.0257    7.2735   -1.4276 O   0  0  0  0  0  0  0  0  0  0  0  0
  -20.9628    4.8825    0.3071 O   0  0  0  0  0  0  0  0  0  0  0  0
  -17.7264    6.6527    1.0597 O   0  0  0  0  0  0  0  0  0  0  0  0
  -18.5259   10.3633   -0.5222 O   0  0  0  0  0  0  0  0  0  0  0  0
  -21.5028    9.1100   -0.3293 S   0  0  0  0  0  0  0  0  0  0  0  0
  1  2  2  0
 19  1  1  0
  1 21  1  0
  2  3  1  0
  3 20  2  0
  4 20  1  0
 21  4  2  0
  5 13  1  0
 17  5  1  0
  5 29  1  6
  7  6  1  0
  8  7  2  0
 10  7  1  0
  9  8  1  0
 12  9  2  0
 11 10  2  0
 12 11  1  0
 30 12  1  0
 13 26  1  0
 13 30  1  1
 14 15  1  1
 16 14  1  0
 14 26  1  0
 15 27  1  0
 17 16  1  0
 16 28  1  1
 17 23  1  1
 18 19  2  0
 18 23  1  0
 19 24  1  0
 21 22  1  0
 23 25  1  0
 24 25  2  0
M  END
$$$$
