
     RDKit          3D

 30 33  0  0  0  0  0  0  0  0999 V2000
  -13.5433    9.1372    0.6562 C   0  0  0  0  0  0  0  0  0  0  0  0
  -12.2245    9.2633    0.2723 C   0  0  0  0  0  0  0  0  0  0  0  0
  -11.3184    9.9872    1.0147 C   0  0  0  0  0  0  0  0  0  0  0  0
  -13.0174   10.4935    2.5656 C   0  0  0  0  0  0  0  0  0  0  0  0
  -18.4748    9.0544   -1.2842 C   0  0  1  0  0  0  0  0  0  0  0  0
  -26.1093   11.1803    1.3686 C   0  0  0  0  0  0  0  0  0  0  0  0
  -24.6930   10.8384    1.1479 C   0  0  0  0  0  0  0  0  0  0  0  0
  -24.1183   10.7700   -0.1009 C   0  0  0  0  0  0  0  0  0  0  0  0
  -22.7833   10.4443   -0.2507 C   0  0  0  0  0  0  0  0  0  0  0  0
  -23.8832   10.5694    2.2374 C   0  0  0  0  0  0  0  0  0  0  0  0
  -22.5525   10.2457    2.0774 C   0  0  0  0  0  0  0  0  0  0  0  0
  -21.9674   10.1749    0.8260 C   0  0  0  0  0  0  0  0  0  0  0  0
  -19.8957    8.9380   -0.9253 C   0  0  1  0  0  0  0  0  0  0  0  0
  -19.8824    6.6898   -1.5001 C   0  0  2  0  0  0  0  0  0  0  0  0
  -20.5475    5.3719   -1.1946 C   0  0  0  0  0  0  0  0  0  0  0  0
  -18.4749    6.6034   -0.9439 C   0  0  1  0  0  0  0  0  0  0  0  0
  -17.7520    7.7860   -1.6013 C   0  0  2  0  0  0  0  0  0  0  0  0
  -15.8188    8.6963   -0.3791 C   0  0  0  0  0  0  0  0  0  0  0  0
  -14.5055    8.3598   -0.1300 C   0  0  0  0  0  0  0  0  0  0  0  0
  -11.6864   10.6223    2.1806 C   0  0  0  0  0  0  0  0  0  0  0  0
  -13.9263    9.7684    1.8223 C   0  0  0  0  0  0  0  0  0  0  0  0
  -15.2286    9.6367    2.1932 F   0  0  0  0  0  0  0  0  0  0  0  0
  -16.3854    7.7379   -1.1507 N   0  0  0  0  0  0  0  0  0  0  0  0
  -14.3098    7.1943   -0.7633 N   0  0  0  0  0  0  0  0  0  0  0  0
  -15.4483    6.8469   -1.3639 N   0  0  0  0  0  0  0  0  0  0  0  0
  -20.5015    7.7376   -0.9005 O   0  0  0  0  0  0  0  0  0  0  0  0
  -21.5780    5.0543   -2.0564 O   0  0  0  0  0  0  0  0  0  0  0  0
  -18.4457    6.8418    0.4237 O   0  0  0  0  0  0  0  0  0  0  0  0
  -18.2412    9.9716   -2.3101 O   0  0  0  0  0  0  0  0  0  0  0  0
  -20.2392    9.7532    0.6869 S   0  0  0  0  0  0  0  0  0  0  0  0
  1  2  2  0
 19  1  1  0
  1 21  1  0
  2  3  1  0
  3 20  2  0
  4 20  1  0
 21  4  2  0
  5 13  1  0
 17  5  1  0
  5 29  1  6
  6  7  1  6
  8  7  2  0
 10  7  1  0
  9  8  1  0
 12  9  2  0
 11 10  2  0
 12 11  1  0
 30 12  1  0
 13 26  1  0
 13 30  1  1
 14 15  1  0
 16 14  1  0
 14 26  1  1
 15 27  1  6
 17 16  1  0
 16 28  1  1
 17 23  1  1
 18 19  2  0
 18 23  1  0
 19 24  1  0
 21 22  1  0
 23 25  1  0
 24 25  2  0
M  END
$$$$
