
     RDKit          3D

 30 33  0  0  0  0  0  0  0  0999 V2000
  -12.9348    9.1554   -0.0330 C   0  0  0  0  0  0  0  0  0  0  0  0
  -12.2282    9.0927    1.1504 C   0  0  0  0  0  0  0  0  0  0  0  0
  -10.9860    9.6216    1.2985 C   0  0  0  0  0  0  0  0  0  0  0  0
  -11.1034   10.3195   -0.9758 C   0  0  0  0  0  0  0  0  0  0  0  0
  -18.6589    9.0363   -0.2420 C   0  0  1  0  0  0  0  0  0  0  0  0
  -26.6472   10.0743   -2.5842 C   0  0  0  0  0  0  0  0  0  0  0  0
  -25.3132    9.9671   -1.9025 C   0  0  0  0  0  0  0  0  0  0  0  0
  -25.0834    8.8848   -1.0798 C   0  0  0  0  0  0  0  0  0  0  0  0
  -23.8596    8.7917   -0.4581 C   0  0  0  0  0  0  0  0  0  0  0  0
  -24.3581   10.9545   -2.1198 C   0  0  0  0  0  0  0  0  0  0  0  0
  -23.1407   10.8312   -1.4808 C   0  0  0  0  0  0  0  0  0  0  0  0
  -22.8849    9.7452   -0.6439 C   0  0  0  0  0  0  0  0  0  0  0  0
  -20.0061    9.0086   -0.9095 C   0  0  1  0  0  0  0  0  0  0  0  0
  -19.7538    6.6894   -1.1193 C   0  0  2  0  0  0  0  0  0  0  0  0
  -20.4040    6.0593    0.1086 C   0  0  0  0  0  0  0  0  0  0  0  0
  -18.2768    6.7392   -0.9212 C   0  0  1  0  0  0  0  0  0  0  0  0
  -17.7401    8.1635   -1.0546 C   0  0  2  0  0  0  0  0  0  0  0  0
  -15.3706    9.0141   -0.7823 C   0  0  0  0  0  0  0  0  0  0  0  0
  -14.2774    8.5570   -0.1126 C   0  0  0  0  0  0  0  0  0  0  0  0
  -10.3974   10.2564    0.2079 C   0  0  0  0  0  0  0  0  0  0  0  0
  -12.3630    9.7786   -1.1122 C   0  0  0  0  0  0  0  0  0  0  0  0
  -13.0120    9.8717   -2.3043 F   0  0  0  0  0  0  0  0  0  0  0  0
  -16.3892    8.1488   -0.5791 N   0  0  0  0  0  0  0  0  0  0  0  0
  -14.6634    7.4197    0.4832 N   0  0  0  0  0  0  0  0  0  0  0  0
  -15.9317    7.1736    0.2035 N   0  0  0  0  0  0  0  0  0  0  0  0
  -20.3546    7.8433   -1.5080 O   0  0  0  0  0  0  0  0  0  0  0  0
  -21.3997    5.1556   -0.2334 O   0  0  0  0  0  0  0  0  0  0  0  0
  -17.9186    6.3000    0.3744 O   0  0  0  0  0  0  0  0  0  0  0  0
  -18.2280   10.3622   -0.1856 O   0  0  0  0  0  0  0  0  0  0  0  0
  -21.3351    9.5442    0.1967 S   0  0  0  0  0  0  0  0  0  0  0  0
  1  2  2  0
 19  1  1  0
  1 21  1  0
  2  3  1  0
  3 20  2  0
  4 20  1  0
 21  4  2  0
  5 13  1  0
 17  5  1  0
  5 29  1  6
  7  6  1  0
  8  7  2  0
 10  7  1  0
  9  8  1  0
 12  9  2  0
 11 10  2  0
 12 11  1  0
 30 12  1  0
 13 26  1  0
 13 30  1  1
 14 15  1  1
 16 14  1  0
 14 26  1  0
 15 27  1  0
 17 16  1  0
 16 28  1  1
 17 23  1  1
 18 19  2  0
 18 23  1  0
 19 24  1  0
 21 22  1  0
 23 25  1  0
 24 25  2  0
M  END
$$$$
