
     RDKit          3D

 30 33  0  0  0  0  0  0  0  0999 V2000
  -13.1495    9.1073   -0.9087 C   0  0  0  0  0  0  0  0  0  0  0  0
  -12.3824   10.2467   -1.0343 C   0  0  0  0  0  0  0  0  0  0  0  0
  -11.0100   10.1906   -1.1332 C   0  0  0  0  0  0  0  0  0  0  0  0
  -11.1110    7.8420   -0.9849 C   0  0  0  0  0  0  0  0  0  0  0  0
  -19.0736    8.8164   -1.9391 C   0  0  1  0  0  0  0  0  0  0  0  0
  -27.2667    9.1230   -2.0685 C   0  0  0  0  0  0  0  0  0  0  0  0
  -25.8493    9.2967   -1.7048 C   0  0  0  0  0  0  0  0  0  0  0  0
  -25.4112   10.2391   -0.8023 C   0  0  0  0  0  0  0  0  0  0  0  0
  -24.0683   10.3589   -0.4972 C   0  0  0  0  0  0  0  0  0  0  0  0
  -24.8953    8.4817   -2.2883 C   0  0  0  0  0  0  0  0  0  0  0  0
  -23.5581    8.6089   -1.9772 C   0  0  0  0  0  0  0  0  0  0  0  0
  -23.1097    9.5533   -1.0713 C   0  0  0  0  0  0  0  0  0  0  0  0
  -20.4304    8.3594   -1.6048 C   0  0  1  0  0  0  0  0  0  0  0  0
  -19.5892    6.3311   -0.8544 C   0  0  2  0  0  0  0  0  0  0  0  0
  -19.8627    5.2042    0.1088 C   0  0  0  0  0  0  0  0  0  0  0  0
  -18.3891    7.0820   -0.3124 C   0  0  1  0  0  0  0  0  0  0  0  0
  -17.9404    7.9504   -1.4947 C   0  0  2  0  0  0  0  0  0  0  0  0
  -15.5045    8.2869   -1.3832 C   0  0  0  0  0  0  0  0  0  0  0  0
  -14.6107    9.1670   -0.8116 C   0  0  0  0  0  0  0  0  0  0  0  0
  -10.3347    8.9899   -1.1117 C   0  0  0  0  0  0  0  0  0  0  0  0
  -12.4863    7.8972   -0.8856 C   0  0  0  0  0  0  0  0  0  0  0  0
  -13.2520    6.7792   -0.7630 F   0  0  0  0  0  0  0  0  0  0  0  0
  -16.7659    8.6625   -1.0629 N   0  0  0  0  0  0  0  0  0  0  0  0
  -15.3624   10.0618   -0.1543 N   0  0  0  0  0  0  0  0  0  0  0  0
  -16.6445    9.7362   -0.3214 N   0  0  0  0  0  0  0  0  0  0  0  0
  -20.6221    7.2066   -0.9395 O   0  0  0  0  0  0  0  0  0  0  0  0
  -21.1846    4.8078    0.1426 O   0  0  0  0  0  0  0  0  0  0  0  0
  -18.7460    7.9607    0.7017 O   0  0  0  0  0  0  0  0  0  0  0  0
  -18.9106    9.1068   -3.2946 O   0  0  0  0  0  0  0  0  0  0  0  0
  -21.3660    9.6652   -0.7098 S   0  0  0  0  0  0  0  0  0  0  0  0
  1  2  2  0
 19  1  1  0
  1 21  1  0
  2  3  1  0
  3 20  2  0
  4 20  1  0
 21  4  2  0
  5 13  1  0
 17  5  1  0
  5 29  1  6
  6  7  1  6
  8  7  2  0
 10  7  1  0
  9  8  1  0
 12  9  2  0
 11 10  2  0
 12 11  1  0
 30 12  1  0
 13 26  1  0
 13 30  1  1
 14 15  1  0
 16 14  1  0
 14 26  1  1
 15 27  1  6
 17 16  1  0
 16 28  1  1
 17 23  1  1
 18 19  2  0
 18 23  1  0
 19 24  1  0
 21 22  1  0
 23 25  1  0
 24 25  2  0
M  END
$$$$
