
     RDKit          3D

 30 33  0  0  0  0  0  0  0  0999 V2000
  -13.4540    9.4068    0.2234 C   0  0  0  0  0  0  0  0  0  0  0  0
  -13.4627   10.6300   -0.4138 C   0  0  0  0  0  0  0  0  0  0  0  0
  -12.6164   11.6497   -0.0392 C   0  0  0  0  0  0  0  0  0  0  0  0
  -11.7105   10.2618    1.6345 C   0  0  0  0  0  0  0  0  0  0  0  0
  -18.2029    8.2535   -1.8298 C   0  0  1  0  0  0  0  0  0  0  0  0
  -25.9154   11.2948   -1.5363 C   0  0  0  0  0  0  0  0  0  0  0  0
  -24.5284   10.8759   -1.2675 C   0  0  0  0  0  0  0  0  0  0  0  0
  -24.2050    9.7975   -0.4756 C   0  0  0  0  0  0  0  0  0  0  0  0
  -22.8857    9.4483   -0.2566 C   0  0  0  0  0  0  0  0  0  0  0  0
  -23.4842   11.5889   -1.8300 C   0  0  0  0  0  0  0  0  0  0  0  0
  -22.1713   11.2324   -1.6056 C   0  0  0  0  0  0  0  0  0  0  0  0
  -21.8381   10.1501   -0.8112 C   0  0  0  0  0  0  0  0  0  0  0  0
  -19.6492    8.2722   -1.5670 C   0  0  1  0  0  0  0  0  0  0  0  0
  -19.6019    6.0204   -1.0082 C   0  0  2  0  0  0  0  0  0  0  0  0
  -20.2978    4.9806   -0.1674 C   0  0  0  0  0  0  0  0  0  0  0  0
  -18.2457    6.2540   -0.3727 C   0  0  1  0  0  0  0  0  0  0  0  0
  -17.4639    7.0107   -1.4542 C   0  0  2  0  0  0  0  0  0  0  0  0
  -15.6368    8.4535   -0.6546 C   0  0  0  0  0  0  0  0  0  0  0  0
  -14.3493    8.3190   -0.1810 C   0  0  0  0  0  0  0  0  0  0  0  0
  -11.7171   11.4968    0.9933 C   0  0  0  0  0  0  0  0  0  0  0  0
  -12.5582    9.2393    1.2599 C   0  0  0  0  0  0  0  0  0  0  0  0
  -12.5563    8.0288    1.8810 F   0  0  0  0  0  0  0  0  0  0  0  0
  -16.1394    7.2267   -0.9326 N   0  0  0  0  0  0  0  0  0  0  0  0
  -14.1043    7.0008   -0.1840 N   0  0  0  0  0  0  0  0  0  0  0  0
  -15.1898    6.3733   -0.6374 N   0  0  0  0  0  0  0  0  0  0  0  0
  -20.2621    7.2056   -1.0236 O   0  0  0  0  0  0  0  0  0  0  0  0
  -21.6713    4.9795   -0.3055 O   0  0  0  0  0  0  0  0  0  0  0  0
  -18.3280    7.1098    0.7176 O   0  0  0  0  0  0  0  0  0  0  0  0
  -17.8799    8.5861   -3.1464 O   0  0  0  0  0  0  0  0  0  0  0  0
  -20.1196    9.7390   -0.5626 S   0  0  0  0  0  0  0  0  0  0  0  0
  1  2  2  0
 19  1  1  0
  1 21  1  0
  2  3  1  0
  3 20  2  0
  4 20  1  0
 21  4  2  0
  5 13  1  0
 17  5  1  0
  5 29  1  6
  6  7  1  6
  8  7  2  0
 10  7  1  0
  9  8  1  0
 12  9  2  0
 11 10  2  0
 12 11  1  0
 30 12  1  0
 13 26  1  0
 13 30  1  1
 14 15  1  0
 16 14  1  0
 14 26  1  1
 15 27  1  6
 17 16  1  0
 16 28  1  1
 17 23  1  1
 18 19  2  0
 18 23  1  0
 19 24  1  0
 21 22  1  0
 23 25  1  0
 24 25  2  0
M  END
$$$$
