
     RDKit          3D

 30 33  0  0  0  0  0  0  0  0999 V2000
  -13.2483    8.9869    0.1131 C   0  0  0  0  0  0  0  0  0  0  0  0
  -13.2080    8.8345    1.4833 C   0  0  0  0  0  0  0  0  0  0  0  0
  -12.0183    8.8102    2.1764 C   0  0  0  0  0  0  0  0  0  0  0  0
  -10.8504    9.0913    0.1503 C   0  0  0  0  0  0  0  0  0  0  0  0
  -18.8830    8.4442   -2.1483 C   0  0  1  0  0  0  0  0  0  0  0  0
  -27.1273    8.9805   -1.3578 C   0  0  0  0  0  0  0  0  0  0  0  0
  -25.6633    9.1017   -1.2410 C   0  0  0  0  0  0  0  0  0  0  0  0
  -24.9181    8.3975   -0.3227 C   0  0  0  0  0  0  0  0  0  0  0  0
  -23.5458    8.5496   -0.2564 C   0  0  0  0  0  0  0  0  0  0  0  0
  -24.9849    9.9609   -2.0875 C   0  0  0  0  0  0  0  0  0  0  0  0
  -23.6157   10.1054   -2.0135 C   0  0  0  0  0  0  0  0  0  0  0  0
  -22.8596    9.4014   -1.0937 C   0  0  0  0  0  0  0  0  0  0  0  0
  -20.2234    8.1199   -1.6390 C   0  0  1  0  0  0  0  0  0  0  0  0
  -19.3639    6.3217   -0.4504 C   0  0  2  0  0  0  0  0  0  0  0  0
  -19.5946    5.4778    0.7773 C   0  0  0  0  0  0  0  0  0  0  0  0
  -18.1259    7.1529   -0.1779 C   0  0  1  0  0  0  0  0  0  0  0  0
  -17.7361    7.6875   -1.5619 C   0  0  2  0  0  0  0  0  0  0  0  0
  -15.5117    8.0694   -0.5794 C   0  0  0  0  0  0  0  0  0  0  0  0
  -14.5151    9.0208   -0.6232 C   0  0  0  0  0  0  0  0  0  0  0  0
  -10.8069    8.9377    1.5326 C   0  0  0  0  0  0  0  0  0  0  0  0
  -12.0421    9.1156   -0.5452 C   0  0  0  0  0  0  0  0  0  0  0  0
  -12.0925    9.2670   -1.8964 F   0  0  0  0  0  0  0  0  0  0  0  0
  -16.5305    8.4544   -1.3848 N   0  0  0  0  0  0  0  0  0  0  0  0
  -14.9612    9.9658   -1.4633 N   0  0  0  0  0  0  0  0  0  0  0  0
  -16.1662    9.6018   -1.9026 N   0  0  0  0  0  0  0  0  0  0  0  0
  -20.3898    7.1746   -0.6971 O   0  0  0  0  0  0  0  0  0  0  0  0
  -19.2504    4.1509    0.6147 O   0  0  0  0  0  0  0  0  0  0  0  0
  -18.4136    8.2655    0.6015 O   0  0  0  0  0  0  0  0  0  0  0  0
  -18.7950    8.3834   -3.5400 O   0  0  0  0  0  0  0  0  0  0  0  0
  -21.0906    9.6312   -1.0510 S   0  0  0  0  0  0  0  0  0  0  0  0
  1  2  2  0
 19  1  1  0
  1 21  1  0
  2  3  1  0
  3 20  2  0
  4 20  1  0
 21  4  2  0
  5 13  1  0
 17  5  1  0
  5 29  1  6
  6  7  1  6
  8  7  2  0
 10  7  1  0
  9  8  1  0
 12  9  2  0
 11 10  2  0
 12 11  1  0
 30 12  1  0
 13 26  1  0
 13 30  1  1
 14 15  1  0
 16 14  1  0
 14 26  1  1
 15 27  1  6
 17 16  1  0
 16 28  1  1
 17 23  1  1
 18 19  2  0
 18 23  1  0
 19 24  1  0
 21 22  1  0
 23 25  1  0
 24 25  2  0
M  END
$$$$
