
     RDKit          3D

 30 33  0  0  0  0  0  0  0  0999 V2000
  -13.3448    9.2325    0.4214 C   0  0  0  0  0  0  0  0  0  0  0  0
  -12.9087   10.3696   -0.2261 C   0  0  0  0  0  0  0  0  0  0  0  0
  -11.6228   10.8402   -0.0800 C   0  0  0  0  0  0  0  0  0  0  0  0
  -11.1493    9.0489    1.3744 C   0  0  0  0  0  0  0  0  0  0  0  0
  -18.9526    9.6910   -0.6337 C   0  0  1  0  0  0  0  0  0  0  0  0
  -26.8756   11.6606    0.4884 C   0  0  0  0  0  0  0  0  0  0  0  0
  -25.5155   11.0938    0.5108 C   0  0  0  0  0  0  0  0  0  0  0  0
  -24.8780   10.6155   -0.6113 C   0  0  0  0  0  0  0  0  0  0  0  0
  -23.6003   10.0939   -0.5333 C   0  0  0  0  0  0  0  0  0  0  0  0
  -24.8278   11.0302    1.7100 C   0  0  0  0  0  0  0  0  0  0  0  0
  -23.5534   10.5082    1.7773 C   0  0  0  0  0  0  0  0  0  0  0  0
  -22.9057   10.0257    0.6543 C   0  0  0  0  0  0  0  0  0  0  0  0
  -20.3841    9.4069   -0.8110 C   0  0  1  0  0  0  0  0  0  0  0  0
  -19.8857    7.6932   -2.2941 C   0  0  2  0  0  0  0  0  0  0  0  0
  -20.4034    6.3806   -2.8248 C   0  0  0  0  0  0  0  0  0  0  0  0
  -18.6763    7.3680   -1.4400 C   0  0  1  0  0  0  0  0  0  0  0  0
  -17.9912    8.7272   -1.2489 C   0  0  2  0  0  0  0  0  0  0  0  0
  -15.6652    9.2152   -0.6080 C   0  0  0  0  0  0  0  0  0  0  0  0
  -14.7111    8.7275    0.2592 C   0  0  0  0  0  0  0  0  0  0  0  0
  -10.7067   10.1958    0.7223 C   0  0  0  0  0  0  0  0  0  0  0  0
  -12.4378    8.5766    1.2287 C   0  0  0  0  0  0  0  0  0  0  0  0
  -12.8771    7.4552    1.8617 F   0  0  0  0  0  0  0  0  0  0  0  0
  -16.7989    8.4850   -0.4791 N   0  0  0  0  0  0  0  0  0  0  0  0
  -15.2987    7.7051    0.8973 N   0  0  0  0  0  0  0  0  0  0  0  0
  -16.5439    7.5830    0.4367 N   0  0  0  0  0  0  0  0  0  0  0  0
  -20.7892    8.3305   -1.5078 O   0  0  0  0  0  0  0  0  0  0  0  0
  -21.6158    6.0002   -2.2855 O   0  0  0  0  0  0  0  0  0  0  0  0
  -19.0421    6.9356   -0.1722 O   0  0  0  0  0  0  0  0  0  0  0  0
  -18.5980   10.9849   -1.0189 O   0  0  0  0  0  0  0  0  0  0  0  0
  -21.2553    9.3652    0.8080 S   0  0  0  0  0  0  0  0  0  0  0  0
  1  2  2  0
 19  1  1  0
  1 21  1  0
  2  3  1  0
  3 20  2  0
  4 20  1  0
 21  4  2  0
  5 13  1  0
 17  5  1  0
  5 29  1  6
  6  7  1  6
  8  7  2  0
 10  7  1  0
  9  8  1  0
 12  9  2  0
 11 10  2  0
 12 11  1  0
 30 12  1  0
 13 26  1  0
 13 30  1  1
 14 15  1  0
 16 14  1  0
 14 26  1  1
 15 27  1  6
 17 16  1  0
 16 28  1  1
 17 23  1  1
 18 19  2  0
 18 23  1  0
 19 24  1  0
 21 22  1  0
 23 25  1  0
 24 25  2  0
M  END
$$$$
