
     RDKit          3D

 30 33  0  0  0  0  0  0  0  0999 V2000
  -12.7919    9.1305    0.2699 C   0  0  0  0  0  0  0  0  0  0  0  0
  -12.2341    9.8010   -0.7992 C   0  0  0  0  0  0  0  0  0  0  0  0
  -11.0061   10.3792   -0.7497 C   0  0  0  0  0  0  0  0  0  0  0  0
  -10.8327    9.6222    1.5019 C   0  0  0  0  0  0  0  0  0  0  0  0
  -18.4889    9.0481   -0.2023 C   0  0  1  0  0  0  0  0  0  0  0  0
  -26.2355   10.6649   -2.9694 C   0  0  0  0  0  0  0  0  0  0  0  0
  -24.9581   10.4191   -2.2185 C   0  0  0  0  0  0  0  0  0  0  0  0
  -24.9851    9.5521   -1.1469 C   0  0  0  0  0  0  0  0  0  0  0  0
  -23.8120    9.3307   -0.4629 C   0  0  0  0  0  0  0  0  0  0  0  0
  -23.7967   11.0682   -2.6236 C   0  0  0  0  0  0  0  0  0  0  0  0
  -22.6369   10.8242   -1.9158 C   0  0  0  0  0  0  0  0  0  0  0  0
  -22.6392    9.9511   -0.8281 C   0  0  0  0  0  0  0  0  0  0  0  0
  -19.8091    9.0118   -0.9215 C   0  0  1  0  0  0  0  0  0  0  0  0
  -19.5812    6.6834   -1.0337 C   0  0  2  0  0  0  0  0  0  0  0  0
  -20.2880    6.1087    0.1901 C   0  0  0  0  0  0  0  0  0  0  0  0
  -18.1126    6.7222   -0.7788 C   0  0  1  0  0  0  0  0  0  0  0  0
  -17.5512    8.1336   -0.9442 C   0  0  2  0  0  0  0  0  0  0  0  0
  -15.1955    8.9869   -0.5766 C   0  0  0  0  0  0  0  0  0  0  0  0
  -14.1295    8.5306    0.1361 C   0  0  0  0  0  0  0  0  0  0  0  0
  -10.2756   10.2925    0.4324 C   0  0  0  0  0  0  0  0  0  0  0  0
  -12.0796    9.0401    1.4381 C   0  0  0  0  0  0  0  0  0  0  0  0
  -12.5780    8.3912    2.5250 F   0  0  0  0  0  0  0  0  0  0  0  0
  -16.2203    8.1201   -0.4150 N   0  0  0  0  0  0  0  0  0  0  0  0
  -14.5376    7.3923    0.7151 N   0  0  0  0  0  0  0  0  0  0  0  0
  -15.7934    7.1449    0.3847 N   0  0  0  0  0  0  0  0  0  0  0  0
  -20.1500    7.8291   -1.4892 O   0  0  0  0  0  0  0  0  0  0  0  0
  -21.4693    5.4625   -0.1444 O   0  0  0  0  0  0  0  0  0  0  0  0
  -17.8119    6.3284    0.5456 O   0  0  0  0  0  0  0  0  0  0  0  0
  -18.0420   10.3698   -0.1787 O   0  0  0  0  0  0  0  0  0  0  0  0
  -21.1730    9.6059    0.1098 S   0  0  0  0  0  0  0  0  0  0  0  0
  1  2  2  0
 19  1  1  0
  1 21  1  0
  2  3  1  0
  3 20  2  0
  4 20  1  0
 21  4  2  0
  5 13  1  0
 17  5  1  0
  5 29  1  6
  7  6  1  0
  8  7  2  0
 10  7  1  0
  9  8  1  0
 12  9  2  0
 11 10  2  0
 12 11  1  0
 30 12  1  0
 13 26  1  0
 13 30  1  1
 14 15  1  1
 16 14  1  0
 14 26  1  0
 15 27  1  0
 17 16  1  0
 16 28  1  1
 17 23  1  1
 18 19  2  0
 18 23  1  0
 19 24  1  0
 21 22  1  0
 23 25  1  0
 24 25  2  0
M  END
$$$$
