
     RDKit          3D

 30 33  0  0  0  0  0  0  0  0999 V2000
  -13.1734    9.1256   -1.1864 C   0  0  0  0  0  0  0  0  0  0  0  0
  -12.3231   10.1617   -0.8609 C   0  0  0  0  0  0  0  0  0  0  0  0
  -10.9686   10.0913   -1.0991 C   0  0  0  0  0  0  0  0  0  0  0  0
  -11.2556    7.9354   -2.0034 C   0  0  0  0  0  0  0  0  0  0  0  0
  -19.1559    9.2051   -1.7384 C   0  0  1  0  0  0  0  0  0  0  0  0
  -27.3276    9.8527   -1.0687 C   0  0  0  0  0  0  0  0  0  0  0  0
  -25.8773    9.8718   -0.8084 C   0  0  0  0  0  0  0  0  0  0  0  0
  -25.3347    9.7658    0.4521 C   0  0  0  0  0  0  0  0  0  0  0  0
  -23.9654    9.7893    0.6394 C   0  0  0  0  0  0  0  0  0  0  0  0
  -25.0000   10.0018   -1.8707 C   0  0  0  0  0  0  0  0  0  0  0  0
  -23.6355   10.0240   -1.6735 C   0  0  0  0  0  0  0  0  0  0  0  0
  -23.0823    9.9179   -0.4101 C   0  0  0  0  0  0  0  0  0  0  0  0
  -20.5096    8.7612   -1.3753 C   0  0  1  0  0  0  0  0  0  0  0  0
  -19.7317    6.6057   -1.0101 C   0  0  2  0  0  0  0  0  0  0  0  0
  -20.0001    5.3550   -0.2123 C   0  0  0  0  0  0  0  0  0  0  0  0
  -18.4577    7.2093   -0.4530 C   0  0  1  0  0  0  0  0  0  0  0  0
  -18.0442    8.2315   -1.5195 C   0  0  2  0  0  0  0  0  0  0  0  0
  -15.5955    8.4753   -1.5801 C   0  0  0  0  0  0  0  0  0  0  0  0
  -14.6161    9.2043   -0.9401 C   0  0  0  0  0  0  0  0  0  0  0  0
  -10.3955    8.9792   -1.6761 C   0  0  0  0  0  0  0  0  0  0  0  0
  -12.6131    8.0049   -1.7650 C   0  0  0  0  0  0  0  0  0  0  0  0
  -13.4603    6.9892   -2.0837 F   0  0  0  0  0  0  0  0  0  0  0  0
  -16.8054    8.8153   -1.0749 N   0  0  0  0  0  0  0  0  0  0  0  0
  -15.2658    9.9748   -0.0559 N   0  0  0  0  0  0  0  0  0  0  0  0
  -16.5708    9.7218   -0.1581 N   0  0  0  0  0  0  0  0  0  0  0  0
  -20.7183    7.5280   -0.8812 O   0  0  0  0  0  0  0  0  0  0  0  0
  -21.2661    4.8367   -0.3969 O   0  0  0  0  0  0  0  0  0  0  0  0
  -18.6952    7.9334    0.7078 O   0  0  0  0  0  0  0  0  0  0  0  0
  -19.0707    9.6966   -3.0421 O   0  0  0  0  0  0  0  0  0  0  0  0
  -21.3082    9.9506   -0.2224 S   0  0  0  0  0  0  0  0  0  0  0  0
  1  2  2  0
 19  1  1  0
  1 21  1  0
  2  3  1  0
  3 20  2  0
  4 20  1  0
 21  4  2  0
  5 13  1  0
 17  5  1  0
  5 29  1  6
  6  7  1  6
  8  7  2  0
 10  7  1  0
  9  8  1  0
 12  9  2  0
 11 10  2  0
 12 11  1  0
 30 12  1  0
 13 26  1  0
 13 30  1  1
 14 15  1  0
 16 14  1  0
 14 26  1  1
 15 27  1  6
 17 16  1  0
 16 28  1  1
 17 23  1  1
 18 19  2  0
 18 23  1  0
 19 24  1  0
 21 22  1  0
 23 25  1  0
 24 25  2  0
M  END
$$$$
