
     RDKit          3D

 30 33  0  0  0  0  0  0  0  0999 V2000
  -13.6192    8.8705    0.6821 C   0  0  0  0  0  0  0  0  0  0  0  0
  -12.2818    8.5954    0.4869 C   0  0  0  0  0  0  0  0  0  0  0  0
  -11.3045    9.1349    1.2933 C   0  0  0  0  0  0  0  0  0  0  0  0
  -12.9663   10.2538    2.5320 C   0  0  0  0  0  0  0  0  0  0  0  0
  -18.6491    9.3284   -0.9998 C   0  0  1  0  0  0  0  0  0  0  0  0
  -25.8752   12.0326    1.7516 C   0  0  0  0  0  0  0  0  0  0  0  0
  -24.5748   11.3782    1.5230 C   0  0  0  0  0  0  0  0  0  0  0  0
  -23.5296   11.9846    0.8640 C   0  0  0  0  0  0  0  0  0  0  0  0
  -22.3299   11.3240    0.6771 C   0  0  0  0  0  0  0  0  0  0  0  0
  -24.3741   10.0897    1.9861 C   0  0  0  0  0  0  0  0  0  0  0  0
  -23.1734    9.4393    1.7948 C   0  0  0  0  0  0  0  0  0  0  0  0
  -22.1182   10.0417    1.1338 C   0  0  0  0  0  0  0  0  0  0  0  0
  -20.0956    9.1127   -0.8499 C   0  0  1  0  0  0  0  0  0  0  0  0
  -20.0132    7.3469   -2.3532 C   0  0  2  0  0  0  0  0  0  0  0  0
  -20.6930    6.0515   -2.7170 C   0  0  0  0  0  0  0  0  0  0  0  0
  -18.6609    6.9788   -1.7758 C   0  0  1  0  0  0  0  0  0  0  0  0
  -17.8909    8.3056   -1.7812 C   0  0  2  0  0  0  0  0  0  0  0  0
  -15.8901    8.8436   -0.4521 C   0  0  0  0  0  0  0  0  0  0  0  0
  -14.6595    8.2895   -0.1714 C   0  0  0  0  0  0  0  0  0  0  0  0
  -11.6163    9.9779    2.3374 C   0  0  0  0  0  0  0  0  0  0  0  0
  -13.9464    9.7138    1.7244 C   0  0  0  0  0  0  0  0  0  0  0  0
  -15.2683    9.9776    1.9096 F   0  0  0  0  0  0  0  0  0  0  0  0
  -16.5700    8.0195   -1.2848 N   0  0  0  0  0  0  0  0  0  0  0  0
  -14.6270    7.1324   -0.8479 N   0  0  0  0  0  0  0  0  0  0  0  0
  -15.7800    6.9970   -1.5034 N   0  0  0  0  0  0  0  0  0  0  0  0
  -20.6918    8.0441   -1.4077 O   0  0  0  0  0  0  0  0  0  0  0  0
  -22.0345    6.0156   -2.3938 O   0  0  0  0  0  0  0  0  0  0  0  0
  -18.7567    6.5907   -0.4461 O   0  0  0  0  0  0  0  0  0  0  0  0
  -18.3312   10.5950   -1.4927 O   0  0  0  0  0  0  0  0  0  0  0  0
  -20.5891    9.1470    0.9213 S   0  0  0  0  0  0  0  0  0  0  0  0
  1  2  2  0
 19  1  1  0
  1 21  1  0
  2  3  1  0
  3 20  2  0
  4 20  1  0
 21  4  2  0
  5 13  1  0
 17  5  1  0
  5 29  1  6
  6  7  1  6
  8  7  2  0
 10  7  1  0
  9  8  1  0
 12  9  2  0
 11 10  2  0
 12 11  1  0
 30 12  1  0
 13 26  1  0
 13 30  1  1
 14 15  1  0
 16 14  1  0
 14 26  1  1
 15 27  1  6
 17 16  1  0
 16 28  1  1
 17 23  1  1
 18 19  2  0
 18 23  1  0
 19 24  1  0
 21 22  1  0
 23 25  1  0
 24 25  2  0
M  END
$$$$
