
     RDKit          3D

 30 33  0  0  0  0  0  0  0  0999 V2000
  -13.4175    9.3290    0.3895 C   0  0  0  0  0  0  0  0  0  0  0  0
  -12.9087    8.0698    0.6326 C   0  0  0  0  0  0  0  0  0  0  0  0
  -11.7399    7.8595    1.2918 C   0  0  0  0  0  0  0  0  0  0  0  0
  -11.5295   10.2227    1.5008 C   0  0  0  0  0  0  0  0  0  0  0  0
  -19.1138    9.5741   -0.3920 C   0  0  1  0  0  0  0  0  0  0  0  0
  -27.4036    9.3773   -1.5608 C   0  0  0  0  0  0  0  0  0  0  0  0
  -25.9796    9.3968   -1.0836 C   0  0  0  0  0  0  0  0  0  0  0  0
  -25.7447    9.4434    0.2742 C   0  0  0  0  0  0  0  0  0  0  0  0
  -24.4384    9.4609    0.7056 C   0  0  0  0  0  0  0  0  0  0  0  0
  -24.9498    9.3675   -2.0179 C   0  0  0  0  0  0  0  0  0  0  0  0
  -23.6506    9.3864   -1.5519 C   0  0  0  0  0  0  0  0  0  0  0  0
  -23.3879    9.4334   -0.1829 C   0  0  0  0  0  0  0  0  0  0  0  0
  -20.4869    9.1210   -0.8053 C   0  0  1  0  0  0  0  0  0  0  0  0
  -19.6567    6.9310   -0.8343 C   0  0  2  0  0  0  0  0  0  0  0  0
  -19.9285    6.3349    0.5435 C   0  0  0  0  0  0  0  0  0  0  0  0
  -18.2344    7.3727   -0.9058 C   0  0  1  0  0  0  0  0  0  0  0  0
  -18.1236    8.8531   -1.2671 C   0  0  2  0  0  0  0  0  0  0  0  0
  -15.8482    8.7761   -0.1584 C   0  0  0  0  0  0  0  0  0  0  0  0
  -14.6921    9.4730   -0.3327 C   0  0  0  0  0  0  0  0  0  0  0  0
  -11.0214    8.9633    1.7435 C   0  0  0  0  0  0  0  0  0  0  0  0
  -12.7165   10.4219    0.8308 C   0  0  0  0  0  0  0  0  0  0  0  0
  -13.1690   11.6876    0.6207 F   0  0  0  0  0  0  0  0  0  0  0  0
  -16.7637    9.2399   -1.0385 N   0  0  0  0  0  0  0  0  0  0  0  0
  -14.9375   10.3465   -1.3196 N   0  0  0  0  0  0  0  0  0  0  0  0
  -16.1816   10.2073   -1.7442 N   0  0  0  0  0  0  0  0  0  0  0  0
  -20.5942    7.8346   -1.2190 O   0  0  0  0  0  0  0  0  0  0  0  0
  -20.8508    5.2998    0.4921 O   0  0  0  0  0  0  0  0  0  0  0  0
  -17.5870    7.2194    0.3420 O   0  0  0  0  0  0  0  0  0  0  0  0
  -19.0499   10.9602   -0.5393 O   0  0  0  0  0  0  0  0  0  0  0  0
  -21.7349    9.4575    0.4619 S   0  0  0  0  0  0  0  0  0  0  0  0
  1  2  2  0
 19  1  1  0
  1 21  1  0
  2  3  1  0
  3 20  2  0
  4 20  1  0
 21  4  2  0
  5 13  1  0
 17  5  1  0
  5 29  1  6
  7  6  1  0
  8  7  2  0
 10  7  1  0
  9  8  1  0
 12  9  2  0
 11 10  2  0
 12 11  1  0
 30 12  1  0
 13 26  1  0
 13 30  1  1
 14 15  1  1
 16 14  1  0
 14 26  1  0
 15 27  1  0
 17 16  1  0
 16 28  1  1
 17 23  1  1
 18 19  2  0
 18 23  1  0
 19 24  1  0
 21 22  1  0
 23 25  1  0
 24 25  2  0
M  END
$$$$
