
     RDKit          3D

 30 33  0  0  0  0  0  0  0  0999 V2000
  -13.0574    9.6179   -0.4561 C   0  0  0  0  0  0  0  0  0  0  0  0
  -11.8651    8.9323   -0.5647 C   0  0  0  0  0  0  0  0  0  0  0  0
  -10.6538    9.5459   -0.5291 C   0  0  0  0  0  0  0  0  0  0  0  0
  -11.8034   11.6154   -0.2672 C   0  0  0  0  0  0  0  0  0  0  0  0
  -18.7047    8.9994   -0.2072 C   0  0  1  0  0  0  0  0  0  0  0  0
  -26.9680    9.5911   -1.5924 C   0  0  0  0  0  0  0  0  0  0  0  0
  -25.5567    9.5355   -1.0817 C   0  0  0  0  0  0  0  0  0  0  0  0
  -25.2852    8.7334    0.0064 C   0  0  0  0  0  0  0  0  0  0  0  0
  -23.9906    8.6863    0.4698 C   0  0  0  0  0  0  0  0  0  0  0  0
  -24.5746   10.2886   -1.7164 C   0  0  0  0  0  0  0  0  0  0  0  0
  -23.2860   10.2189   -1.2264 C   0  0  0  0  0  0  0  0  0  0  0  0
  -22.9869    9.4145   -0.1270 C   0  0  0  0  0  0  0  0  0  0  0  0
  -20.1120    8.8879   -0.7253 C   0  0  1  0  0  0  0  0  0  0  0  0
  -19.7180    6.6007   -1.0413 C   0  0  2  0  0  0  0  0  0  0  0  0
  -20.1813    5.8910    0.2272 C   0  0  0  0  0  0  0  0  0  0  0  0
  -18.2357    6.7565   -1.0029 C   0  0  1  0  0  0  0  0  0  0  0  0
  -17.8210    8.2202   -1.1443 C   0  0  2  0  0  0  0  0  0  0  0  0
  -15.5380    9.3014   -0.9671 C   0  0  0  0  0  0  0  0  0  0  0  0
  -14.3298    8.8791   -0.5041 C   0  0  0  0  0  0  0  0  0  0  0  0
  -10.6115   10.9292   -0.3759 C   0  0  0  0  0  0  0  0  0  0  0  0
  -13.0254   10.9804   -0.3049 C   0  0  0  0  0  0  0  0  0  0  0  0
  -14.1686   11.7093   -0.1922 F   0  0  0  0  0  0  0  0  0  0  0  0
  -16.4282    8.2948   -0.8188 N   0  0  0  0  0  0  0  0  0  0  0  0
  -14.5194    7.6200   -0.0844 N   0  0  0  0  0  0  0  0  0  0  0  0
  -15.7795    7.2682   -0.2730 N   0  0  0  0  0  0  0  0  0  0  0  0
  -20.4397    7.7160   -1.3225 O   0  0  0  0  0  0  0  0  0  0  0  0
  -21.2780    5.0731   -0.0027 O   0  0  0  0  0  0  0  0  0  0  0  0
  -17.7056    6.3114    0.2303 O   0  0  0  0  0  0  0  0  0  0  0  0
  -18.3668   10.3521   -0.1521 O   0  0  0  0  0  0  0  0  0  0  0  0
  -21.3456    9.2923    0.5362 S   0  0  0  0  0  0  0  0  0  0  0  0
  1  2  2  0
 19  1  1  0
  1 21  1  0
  2  3  1  0
  3 20  2  0
  4 20  1  0
 21  4  2  0
  5 13  1  0
 17  5  1  0
  5 29  1  6
  7  6  1  0
  8  7  2  0
 10  7  1  0
  9  8  1  0
 12  9  2  0
 11 10  2  0
 12 11  1  0
 30 12  1  0
 13 26  1  0
 13 30  1  1
 14 15  1  1
 16 14  1  0
 14 26  1  0
 15 27  1  0
 17 16  1  0
 16 28  1  1
 17 23  1  1
 18 19  2  0
 18 23  1  0
 19 24  1  0
 21 22  1  0
 23 25  1  0
 24 25  2  0
M  END
$$$$
