
     RDKit          3D

 30 33  0  0  0  0  0  0  0  0999 V2000
  -13.0506    9.0380   -0.0182 C   0  0  0  0  0  0  0  0  0  0  0  0
  -12.4091    8.1799    0.8505 C   0  0  0  0  0  0  0  0  0  0  0  0
  -11.0365    8.1461    0.9561 C   0  0  0  0  0  0  0  0  0  0  0  0
  -10.8848    9.8352   -0.6786 C   0  0  0  0  0  0  0  0  0  0  0  0
  -18.7591    8.5751   -1.8507 C   0  0  1  0  0  0  0  0  0  0  0  0
  -26.8714    9.1033   -3.2268 C   0  0  0  0  0  0  0  0  0  0  0  0
  -25.5089    9.1568   -2.6681 C   0  0  0  0  0  0  0  0  0  0  0  0
  -25.0417    8.2647   -1.7298 C   0  0  0  0  0  0  0  0  0  0  0  0
  -23.7531    8.3610   -1.2390 C   0  0  0  0  0  0  0  0  0  0  0  0
  -24.6399   10.1456   -3.0950 C   0  0  0  0  0  0  0  0  0  0  0  0
  -23.3562   10.2331   -2.5995 C   0  0  0  0  0  0  0  0  0  0  0  0
  -22.8791    9.3405   -1.6565 C   0  0  0  0  0  0  0  0  0  0  0  0
  -20.1521    8.1358   -1.6832 C   0  0  1  0  0  0  0  0  0  0  0  0
  -19.4390    6.1904   -0.6384 C   0  0  2  0  0  0  0  0  0  0  0  0
  -19.8570    5.1504    0.3697 C   0  0  0  0  0  0  0  0  0  0  0  0
  -18.3309    6.9983    0.0076 C   0  0  1  0  0  0  0  0  0  0  0  0
  -17.7078    7.7632   -1.1671 C   0  0  2  0  0  0  0  0  0  0  0  0
  -15.3125    8.1478   -0.7500 C   0  0  0  0  0  0  0  0  0  0  0  0
  -14.5118    9.0793   -0.1244 C   0  0  0  0  0  0  0  0  0  0  0  0
  -10.2351    8.9706    0.1971 C   0  0  0  0  0  0  0  0  0  0  0  0
  -12.2603    9.8697   -0.7852 C   0  0  0  0  0  0  0  0  0  0  0  0
  -12.9026   10.7134   -1.6378 F   0  0  0  0  0  0  0  0  0  0  0  0
  -16.6087    8.5226   -0.6301 N   0  0  0  0  0  0  0  0  0  0  0  0
  -15.3530   10.0033    0.3619 N   0  0  0  0  0  0  0  0  0  0  0  0
  -16.5977    9.6455    0.0453 N   0  0  0  0  0  0  0  0  0  0  0  0
  -20.4448    7.0445   -0.9539 O   0  0  0  0  0  0  0  0  0  0  0  0
  -20.9370    4.3889   -0.0297 O   0  0  0  0  0  0  0  0  0  0  0  0
  -18.8324    7.9596    0.8749 O   0  0  0  0  0  0  0  0  0  0  0  0
  -18.3945    8.7462   -3.1872 O   0  0  0  0  0  0  0  0  0  0  0  0
  -21.2066    9.5062   -1.0573 S   0  0  0  0  0  0  0  0  0  0  0  0
  1  2  2  0
 19  1  1  0
  1 21  1  0
  2  3  1  0
  3 20  2  0
  4 20  1  0
 21  4  2  0
  5 13  1  0
 17  5  1  0
  5 29  1  6
  6  7  1  6
  8  7  2  0
 10  7  1  0
  9  8  1  0
 12  9  2  0
 11 10  2  0
 12 11  1  0
 30 12  1  0
 13 26  1  0
 13 30  1  1
 14 15  1  0
 16 14  1  0
 14 26  1  1
 15 27  1  6
 17 16  1  0
 16 28  1  1
 17 23  1  1
 18 19  2  0
 18 23  1  0
 19 24  1  0
 21 22  1  0
 23 25  1  0
 24 25  2  0
M  END
$$$$
