
     RDKit          3D

 30 33  0  0  0  0  0  0  0  0999 V2000
  -13.7594    8.5626    0.1476 C   0  0  0  0  0  0  0  0  0  0  0  0
  -12.9116    9.5290    0.6486 C   0  0  0  0  0  0  0  0  0  0  0  0
  -11.6245    9.2733    0.9989 C   0  0  0  0  0  0  0  0  0  0  0  0
  -11.9839    7.0113    0.3453 C   0  0  0  0  0  0  0  0  0  0  0  0
  -19.3138    9.5373   -1.9636 C   0  0  1  0  0  0  0  0  0  0  0  0
  -27.5434    8.3679   -2.5812 C   0  0  0  0  0  0  0  0  0  0  0  0
  -26.1208    8.8485   -2.6154 C   0  0  0  0  0  0  0  0  0  0  0  0
  -25.3922    8.6556   -3.7699 C   0  0  0  0  0  0  0  0  0  0  0  0
  -24.0897    9.0979   -3.7957 C   0  0  0  0  0  0  0  0  0  0  0  0
  -25.5860    9.4682   -1.4910 C   0  0  0  0  0  0  0  0  0  0  0  0
  -24.2763    9.9001   -1.5498 C   0  0  0  0  0  0  0  0  0  0  0  0
  -23.5192    9.7163   -2.7066 C   0  0  0  0  0  0  0  0  0  0  0  0
  -20.6527    8.9708   -2.3482 C   0  0  1  0  0  0  0  0  0  0  0  0
  -20.8570    8.1982   -0.1465 C   0  0  2  0  0  0  0  0  0  0  0  0
  -21.5947    9.2796    0.6368 C   0  0  0  0  0  0  0  0  0  0  0  0
  -19.3950    8.3066    0.1251 C   0  0  1  0  0  0  0  0  0  0  0  0
  -18.5956    8.4824   -1.1651 C   0  0  2  0  0  0  0  0  0  0  0  0
  -16.1754    8.0943   -0.5295 C   0  0  0  0  0  0  0  0  0  0  0  0
  -15.1422    8.9203   -0.2089 C   0  0  0  0  0  0  0  0  0  0  0  0
  -11.1367    7.9781    0.8461 C   0  0  0  0  0  0  0  0  0  0  0  0
  -13.2876    7.2843   -0.0062 C   0  0  0  0  0  0  0  0  0  0  0  0
  -14.0771    6.2903   -0.4957 F   0  0  0  0  0  0  0  0  0  0  0  0
  -17.2647    8.8524   -0.7868 N   0  0  0  0  0  0  0  0  0  0  0  0
  -15.6343   10.1653   -0.2806 N   0  0  0  0  0  0  0  0  0  0  0  0
  -16.9092   10.1255   -0.6276 N   0  0  0  0  0  0  0  0  0  0  0  0
  -21.2304    8.1355   -1.4505 O   0  0  0  0  0  0  0  0  0  0  0  0
  -21.6689    8.9853    1.9906 O   0  0  0  0  0  0  0  0  0  0  0  0
  -19.1053    9.4341    0.9279 O   0  0  0  0  0  0  0  0  0  0  0  0
  -18.6340    9.8803   -3.1328 O   0  0  0  0  0  0  0  0  0  0  0  0
  -21.8333   10.2562   -2.8286 S   0  0  0  0  0  0  0  0  0  0  0  0
  1  2  2  0
 19  1  1  0
  1 21  1  0
  2  3  1  0
  3 20  2  0
  4 20  1  0
 21  4  2  0
  5 13  1  0
 17  5  1  0
  5 29  1  6
  7  6  1  0
  8  7  2  0
 10  7  1  0
  9  8  1  0
 12  9  2  0
 11 10  2  0
 12 11  1  0
 30 12  1  0
 13 26  1  0
 13 30  1  1
 14 15  1  6
 16 14  1  0
 14 26  1  0
 15 27  1  0
 17 16  1  0
 16 28  1  1
 17 23  1  1
 18 19  2  0
 18 23  1  0
 19 24  1  0
 21 22  1  0
 23 25  1  0
 24 25  2  0
M  END
$$$$
