
     RDKit          3D

 30 33  0  0  0  0  0  0  0  0999 V2000
  -13.3244    9.6868   -1.0423 C   0  0  0  0  0  0  0  0  0  0  0  0
  -12.1287    9.1432   -0.6214 C   0  0  0  0  0  0  0  0  0  0  0  0
  -10.9182    9.7177   -0.9391 C   0  0  0  0  0  0  0  0  0  0  0  0
  -12.0505   11.4135   -2.1184 C   0  0  0  0  0  0  0  0  0  0  0  0
  -18.9541    8.9526   -1.5477 C   0  0  1  0  0  0  0  0  0  0  0  0
  -27.0093   10.5007   -1.2505 C   0  0  0  0  0  0  0  0  0  0  0  0
  -25.6010   10.2267   -0.9143 C   0  0  0  0  0  0  0  0  0  0  0  0
  -25.2110    9.2271   -0.0522 C   0  0  0  0  0  0  0  0  0  0  0  0
  -23.8745    9.0134    0.2281 C   0  0  0  0  0  0  0  0  0  0  0  0
  -24.6056   11.0017   -1.4832 C   0  0  0  0  0  0  0  0  0  0  0  0
  -23.2750   10.7804   -1.1973 C   0  0  0  0  0  0  0  0  0  0  0  0
  -22.8748    9.7779   -0.3321 C   0  0  0  0  0  0  0  0  0  0  0  0
  -20.3528    8.5493   -1.3414 C   0  0  1  0  0  0  0  0  0  0  0  0
  -19.7408    6.3115   -1.3899 C   0  0  2  0  0  0  0  0  0  0  0  0
  -20.1365    4.9506   -0.8761 C   0  0  0  0  0  0  0  0  0  0  0  0
  -18.4641    6.6927   -0.6669 C   0  0  1  0  0  0  0  0  0  0  0  0
  -17.9234    7.8731   -1.4839 C   0  0  2  0  0  0  0  0  0  0  0  0
  -15.6623    8.8434   -1.5591 C   0  0  0  0  0  0  0  0  0  0  0  0
  -14.6129    9.0795   -0.6971 C   0  0  0  0  0  0  0  0  0  0  0  0
  -10.8427   10.8671   -1.6950 C   0  0  0  0  0  0  0  0  0  0  0  0
  -13.2640   10.8384   -1.8006 C   0  0  0  0  0  0  0  0  0  0  0  0
  -14.4488   11.3677   -2.2096 F   0  0  0  0  0  0  0  0  0  0  0  0
  -16.6766    8.2601   -0.8765 N   0  0  0  0  0  0  0  0  0  0  0  0
  -15.0241    8.6291    0.4970 N   0  0  0  0  0  0  0  0  0  0  0  0
  -16.2591    8.1455    0.3604 N   0  0  0  0  0  0  0  0  0  0  0  0
  -20.6703    7.2618   -1.1185 O   0  0  0  0  0  0  0  0  0  0  0  0
  -21.4761    4.8410   -0.5616 O   0  0  0  0  0  0  0  0  0  0  0  0
  -18.7201    7.1857    0.6056 O   0  0  0  0  0  0  0  0  0  0  0  0
  -18.7616    9.6872   -2.7188 O   0  0  0  0  0  0  0  0  0  0  0  0
  -21.1366    9.5412   -0.0059 S   0  0  0  0  0  0  0  0  0  0  0  0
  1  2  2  0
 19  1  1  0
  1 21  1  0
  2  3  1  0
  3 20  2  0
  4 20  1  0
 21  4  2  0
  5 13  1  0
 17  5  1  0
  5 29  1  6
  6  7  1  6
  8  7  2  0
 10  7  1  0
  9  8  1  0
 12  9  2  0
 11 10  2  0
 12 11  1  0
 30 12  1  0
 13 26  1  0
 13 30  1  1
 14 15  1  0
 16 14  1  0
 14 26  1  1
 15 27  1  6
 17 16  1  0
 16 28  1  1
 17 23  1  1
 18 19  2  0
 18 23  1  0
 19 24  1  0
 21 22  1  0
 23 25  1  0
 24 25  2  0
M  END
$$$$
