
     RDKit          3D

 30 33  0  0  0  0  0  0  0  0999 V2000
  -12.4911    8.6156    0.3229 C   0  0  0  0  0  0  0  0  0  0  0  0
  -11.8314    8.4519    1.5236 C   0  0  0  0  0  0  0  0  0  0  0  0
  -10.4772    8.4415    1.6273 C   0  0  0  0  0  0  0  0  0  0  0  0
  -10.3778    8.7671   -0.7301 C   0  0  0  0  0  0  0  0  0  0  0  0
  -18.3634    9.0326   -0.7890 C   0  0  1  0  0  0  0  0  0  0  0  0
  -25.8642    7.9901   -4.4459 C   0  0  0  0  0  0  0  0  0  0  0  0
  -24.6525    8.3498   -3.6345 C   0  0  0  0  0  0  0  0  0  0  0  0
  -24.8135    8.5818   -2.2850 C   0  0  0  0  0  0  0  0  0  0  0  0
  -23.7001    8.9107   -1.5467 C   0  0  0  0  0  0  0  0  0  0  0  0
  -23.4153    8.4371   -4.2637 C   0  0  0  0  0  0  0  0  0  0  0  0
  -22.3184    8.7694   -3.4943 C   0  0  0  0  0  0  0  0  0  0  0  0
  -22.4563    9.0087   -2.1272 C   0  0  0  0  0  0  0  0  0  0  0  0
  -19.5641    8.5510   -1.5557 C   0  0  1  0  0  0  0  0  0  0  0  0
  -19.2750    6.4684   -0.5234 C   0  0  2  0  0  0  0  0  0  0  0  0
  -20.1402    6.4719    0.7331 C   0  0  0  0  0  0  0  0  0  0  0  0
  -17.8601    6.7486   -0.1456 C   0  0  1  0  0  0  0  0  0  0  0  0
  -17.3094    7.9626   -0.8921 C   0  0  2  0  0  0  0  0  0  0  0  0
  -14.7922    8.0799   -0.6428 C   0  0  0  0  0  0  0  0  0  0  0  0
  -13.9630    8.6153    0.2943 C   0  0  0  0  0  0  0  0  0  0  0  0
   -9.7187    8.6034    0.4709 C   0  0  0  0  0  0  0  0  0  0  0  0
  -11.7523    8.7757   -0.8211 C   0  0  0  0  0  0  0  0  0  0  0  0
  -12.3475    8.9417   -2.0332 F   0  0  0  0  0  0  0  0  0  0  0  0
  -16.0696    8.3128   -0.2664 N   0  0  0  0  0  0  0  0  0  0  0  0
  -14.7633    9.1623    1.2203 N   0  0  0  0  0  0  0  0  0  0  0  0
  -16.0289    8.9811    0.8844 N   0  0  0  0  0  0  0  0  0  0  0  0
  -19.7948    7.2155   -1.5311 O   0  0  0  0  0  0  0  0  0  0  0  0
  -20.8013    5.2658    0.9154 O   0  0  0  0  0  0  0  0  0  0  0  0
  -17.7470    7.0454    1.2323 O   0  0  0  0  0  0  0  0  0  0  0  0
  -17.9517   10.2458   -1.3417 O   0  0  0  0  0  0  0  0  0  0  0  0
  -21.0752    9.4368   -1.0987 S   0  0  0  0  0  0  0  0  0  0  0  0
  1  2  2  0
 19  1  1  0
  1 21  1  0
  2  3  1  0
  3 20  2  0
  4 20  1  0
 21  4  2  0
  5 13  1  0
 17  5  1  0
  5 29  1  6
  7  6  1  0
  8  7  2  0
 10  7  1  0
  9  8  1  0
 12  9  2  0
 11 10  2  0
 12 11  1  0
 30 12  1  0
 13 26  1  0
 13 30  1  1
 14 15  1  1
 16 14  1  0
 14 26  1  0
 15 27  1  0
 17 16  1  0
 16 28  1  1
 17 23  1  1
 18 19  2  0
 18 23  1  0
 19 24  1  0
 21 22  1  0
 23 25  1  0
 24 25  2  0
M  END
$$$$
