
     RDKit          3D

 30 33  0  0  0  0  0  0  0  0999 V2000
  -13.3072    8.8157    0.4945 C   0  0  0  0  0  0  0  0  0  0  0  0
  -13.5518    8.9613    1.8446 C   0  0  0  0  0  0  0  0  0  0  0  0
  -12.5771    9.2503    2.7453 C   0  0  0  0  0  0  0  0  0  0  0  0
  -11.0262    9.2616    0.9376 C   0  0  0  0  0  0  0  0  0  0  0  0
  -18.6909    8.9067   -0.8148 C   0  0  1  0  0  0  0  0  0  0  0  0
  -26.7617    9.6355   -2.6626 C   0  0  0  0  0  0  0  0  0  0  0  0
  -25.4170    9.5612   -1.9976 C   0  0  0  0  0  0  0  0  0  0  0  0
  -24.2979    9.4472   -2.7947 C   0  0  0  0  0  0  0  0  0  0  0  0
  -23.0688    9.3797   -2.1801 C   0  0  0  0  0  0  0  0  0  0  0  0
  -25.3422    9.6093   -0.6097 C   0  0  0  0  0  0  0  0  0  0  0  0
  -24.0939    9.5391   -0.0247 C   0  0  0  0  0  0  0  0  0  0  0  0
  -22.9472    9.4235   -0.8101 C   0  0  0  0  0  0  0  0  0  0  0  0
  -20.1052    8.6242   -1.2404 C   0  0  1  0  0  0  0  0  0  0  0  0
  -19.6490    6.3482   -0.9275 C   0  0  2  0  0  0  0  0  0  0  0  0
  -20.0623    6.0048    0.5003 C   0  0  0  0  0  0  0  0  0  0  0  0
  -18.1715    6.5428   -0.9772 C   0  0  1  0  0  0  0  0  0  0  0  0
  -17.8048    7.9202   -1.5275 C   0  0  2  0  0  0  0  0  0  0  0  0
  -15.7498    8.4331   -0.1396 C   0  0  0  0  0  0  0  0  0  0  0  0
  -14.4192    8.5020   -0.4177 C   0  0  0  0  0  0  0  0  0  0  0  0
  -11.2715    9.4071    2.2874 C   0  0  0  0  0  0  0  0  0  0  0  0
  -12.0245    8.9684    0.0347 C   0  0  0  0  0  0  0  0  0  0  0  0
  -11.7232    8.8370   -1.2855 F   0  0  0  0  0  0  0  0  0  0  0  0
  -16.4081    8.1138   -1.2764 N   0  0  0  0  0  0  0  0  0  0  0  0
  -14.3040    8.2209   -1.7235 N   0  0  0  0  0  0  0  0  0  0  0  0
  -15.4982    7.9876   -2.2402 N   0  0  0  0  0  0  0  0  0  0  0  0
  -20.4102    7.3259   -1.4827 O   0  0  0  0  0  0  0  0  0  0  0  0
  -21.1974    5.2080    0.5382 O   0  0  0  0  0  0  0  0  0  0  0  0
  -17.6011    6.4670    0.3145 O   0  0  0  0  0  0  0  0  0  0  0  0
  -18.3932   10.2297   -1.1434 O   0  0  0  0  0  0  0  0  0  0  0  0
  -21.3224    9.3318   -0.1026 S   0  0  0  0  0  0  0  0  0  0  0  0
  1  2  2  0
 19  1  1  0
  1 21  1  0
  2  3  1  0
  3 20  2  0
  4 20  1  0
 21  4  2  0
  5 13  1  0
 17  5  1  0
  5 29  1  6
  7  6  1  0
  8  7  2  0
 10  7  1  0
  9  8  1  0
 12  9  2  0
 11 10  2  0
 12 11  1  0
 30 12  1  0
 13 26  1  0
 13 30  1  1
 14 15  1  1
 16 14  1  0
 14 26  1  0
 15 27  1  0
 17 16  1  0
 16 28  1  1
 17 23  1  1
 18 19  2  0
 18 23  1  0
 19 24  1  0
 21 22  1  0
 23 25  1  0
 24 25  2  0
M  END
$$$$
