
     RDKit          3D

 27 29  0  0  0  0  0  0  0  0999 V2000
   -6.9807    5.1104    0.9967 C   0  0  0  0  0  0  0  0  0  0  0  0
   -8.2494    4.5498    1.1901 C   0  0  0  0  0  0  0  0  0  0  0  0
   -8.6415    3.3810    0.5799 C   0  0  0  0  0  0  0  0  0  0  0  0
   -6.7143    9.4665    5.2031 C   0  0  0  0  0  0  0  0  0  0  0  0
   -6.5579   10.6063    4.4490 C   0  0  0  0  0  0  0  0  0  0  0  0
   -6.7103   10.5315    3.0812 C   0  0  0  0  0  0  0  0  0  0  0  0
   -7.0166    9.3332    2.4606 C   0  0  0  0  0  0  0  0  0  0  0  0
   -7.1858    7.0255    5.4505 C   0  0  0  0  0  0  0  0  0  0  0  0
   -6.0723    6.1003    5.1130 C   0  0  0  0  0  0  0  0  0  0  0  0
   -9.9662    2.8235    0.8004 C   0  0  0  0  0  0  0  0  0  0  0  0
  -10.2569    1.5124    0.4691 C   0  0  0  0  0  0  0  0  0  0  0  0
  -11.5138    0.9719    0.6743 C   0  0  0  0  0  0  0  0  0  0  0  0
  -12.5373    1.7179    1.2204 C   0  0  0  0  0  0  0  0  0  0  0  0
  -12.2525    3.0263    1.5526 C   0  0  0  0  0  0  0  0  0  0  0  0
  -11.0004    3.5673    1.3490 C   0  0  0  0  0  0  0  0  0  0  0  0
  -11.8113   -0.4509    0.3089 C   0  0  0  0  0  0  0  0  0  0  0  0
   -7.7592    2.7308   -0.2544 C   0  0  0  0  0  0  0  0  0  0  0  0
   -6.4843    3.2409   -0.4846 C   0  0  0  0  0  0  0  0  0  0  0  0
   -6.1271    4.4351    0.1583 C   0  0  0  0  0  0  0  0  0  0  0  0
   -6.6178    6.3484    1.6667 C   0  0  0  0  0  0  0  0  0  0  0  0
   -7.4841    6.9725    2.5863 N   0  0  0  0  0  0  0  0  0  0  0  0
   -7.1677    8.2096    3.2331 C   0  0  0  0  0  0  0  0  0  0  0  0
   -7.0208    8.2576    4.5999 C   0  0  0  0  0  0  0  0  0  0  0  0
   -4.8832    6.5028    4.9839 O   0  0  0  0  0  0  0  0  0  0  0  0
   -6.2916    4.7363    4.9222 O   0  0  0  0  0  0  0  0  0  0  0  0
   -5.5099    6.9146    1.4508 O   0  0  0  0  0  0  0  0  0  0  0  0
  -10.5482   -1.1301   -0.0290 N   0  0  0  0  0  4  0  0  0  0  0  0
  1  2  2  0
  1 19  1  0
 20  1  1  0
  2  3  1  0
  3 10  1  0
  3 17  2  0
  5  4  2  0
  4 23  1  0
  6  5  1  0
  7  6  2  0
 22  7  1  0
  8  9  1  1
 23  8  1  0
  9 24  2  0
  9 25  1  0
 10 11  2  0
 10 15  1  0
 11 12  1  0
 12 13  2  0
 16 12  1  1
 14 13  1  0
 15 14  2  0
 27 16  1  6
 18 17  1  0
 19 18  2  0
 21 20  1  0
 20 26  2  0
 21 22  1  0
 22 23  2  0
M  CHG  1  27   1
M  END
$$$$
