
     RDKit          3D

 27 29  0  0  0  0  0  0  0  0999 V2000
   -8.2070    4.9238    1.9944 C   0  0  0  0  0  0  0  0  0  0  0  0
   -7.9575    4.4404    3.2805 C   0  0  0  0  0  0  0  0  0  0  0  0
   -8.3874    3.2084    3.7144 C   0  0  0  0  0  0  0  0  0  0  0  0
   -6.1349   10.5652    2.8889 C   0  0  0  0  0  0  0  0  0  0  0  0
   -5.3615   10.9480    1.8132 C   0  0  0  0  0  0  0  0  0  0  0  0
   -5.0439    9.9695    0.9103 C   0  0  0  0  0  0  0  0  0  0  0  0
   -5.4909    8.6630    1.0915 C   0  0  0  0  0  0  0  0  0  0  0  0
   -7.4045    8.9611    4.2438 C   0  0  0  0  0  0  0  0  0  0  0  0
   -6.7162    8.0899    5.2110 C   0  0  0  0  0  0  0  0  0  0  0  0
   -8.1427    2.6811    5.0469 C   0  0  0  0  0  0  0  0  0  0  0  0
   -8.1384    1.3342    5.3124 C   0  0  0  0  0  0  0  0  0  0  0  0
   -7.9035    0.8199    6.5928 C   0  0  0  0  0  0  0  0  0  0  0  0
   -7.6714    1.6963    7.6068 C   0  0  0  0  0  0  0  0  0  0  0  0
   -7.6637    3.0524    7.4004 C   0  0  0  0  0  0  0  0  0  0  0  0
   -7.8979    3.5311    6.1302 C   0  0  0  0  0  0  0  0  0  0  0  0
   -7.9070   -0.6427    6.8436 C   0  0  0  0  0  0  0  0  0  0  0  0
   -9.0946    2.4349    2.8202 C   0  0  0  0  0  0  0  0  0  0  0  0
   -9.3723    2.8508    1.5459 C   0  0  0  0  0  0  0  0  0  0  0  0
   -8.9164    4.1042    1.1535 C   0  0  0  0  0  0  0  0  0  0  0  0
   -7.7023    6.2531    1.6329 C   0  0  0  0  0  0  0  0  0  0  0  0
   -6.7284    6.9479    2.3693 N   0  0  0  0  0  0  0  0  0  0  0  0
   -6.2568    8.2666    2.1500 C   0  0  0  0  0  0  0  0  0  0  0  0
   -6.5737    9.2780    3.0648 C   0  0  0  0  0  0  0  0  0  0  0  0
   -7.2960    7.1045    5.6926 O   0  0  0  0  0  0  0  0  0  0  0  0
   -5.4130    8.3979    5.5663 O   0  0  0  0  0  0  0  0  0  0  0  0
   -8.1805    6.7764    0.6088 O   0  0  0  0  0  0  0  0  0  0  0  0
   -8.9974   -1.2236    6.0935 N   0  0  0  0  0  4  0  0  0  0  0  0
  1  2  2  0
  1 19  1  0
 20  1  1  0
  2  3  1  0
  3 10  1  0
  3 17  2  0
  5  4  2  0
  4 23  1  0
  6  5  1  0
  7  6  2  0
 22  7  1  0
  8  9  1  0
 23  8  1  0
  9 24  2  0
  9 25  1  0
 10 11  2  0
 10 15  1  0
 11 12  1  0
 12 13  2  0
 12 16  1  0
 14 13  1  0
 15 14  2  0
 16 27  1  0
 18 17  1  0
 19 18  2  0
 21 20  1  0
 20 26  2  0
 21 22  1  0
 22 23  2  0
M  CHG  1  27   1
M  END
$$$$
