
     RDKit          3D

 27 29  0  0  0  0  0  0  0  0999 V2000
   -7.0708    5.5110    2.0098 C   0  0  0  0  0  0  0  0  0  0  0  0
   -7.2481    4.6207    3.0708 C   0  0  0  0  0  0  0  0  0  0  0  0
   -7.9281    3.4320    2.9458 C   0  0  0  0  0  0  0  0  0  0  0  0
   -5.4387   10.5981    5.2032 C   0  0  0  0  0  0  0  0  0  0  0  0
   -4.3174   11.0468    4.5376 C   0  0  0  0  0  0  0  0  0  0  0  0
   -3.8790   10.2787    3.4929 C   0  0  0  0  0  0  0  0  0  0  0  0
   -4.5482    9.1091    3.1409 C   0  0  0  0  0  0  0  0  0  0  0  0
   -7.2938    9.0470    5.6199 C   0  0  0  0  0  0  0  0  0  0  0  0
   -7.1118    7.7795    6.3469 C   0  0  0  0  0  0  0  0  0  0  0  0
   -8.1282    2.4877    4.0329 C   0  0  0  0  0  0  0  0  0  0  0  0
   -7.1900    2.2927    5.0160 C   0  0  0  0  0  0  0  0  0  0  0  0
   -7.3763    1.3853    6.0653 C   0  0  0  0  0  0  0  0  0  0  0  0
   -8.5350    0.6738    6.1041 C   0  0  0  0  0  0  0  0  0  0  0  0
   -9.5076    0.8272    5.1491 C   0  0  0  0  0  0  0  0  0  0  0  0
   -9.2980    1.7272    4.1276 C   0  0  0  0  0  0  0  0  0  0  0  0
   -6.3398    1.1996    7.1109 C   0  0  0  0  0  0  0  0  0  0  0  0
   -8.4485    3.1289    1.7067 C   0  0  0  0  0  0  0  0  0  0  0  0
   -8.3095    3.9588    0.6269 C   0  0  0  0  0  0  0  0  0  0  0  0
   -7.6137    5.1494    0.8029 C   0  0  0  0  0  0  0  0  0  0  0  0
   -6.3278    6.7529    2.2510 C   0  0  0  0  0  0  0  0  0  0  0  0
   -6.3651    7.4654    3.4612 N   0  0  0  0  0  0  0  0  0  0  0  0
   -5.6591    8.6502    3.7886 C   0  0  0  0  0  0  0  0  0  0  0  0
   -6.0958    9.4462    4.8543 C   0  0  0  0  0  0  0  0  0  0  0  0
   -6.1489    7.6280    7.1144 O   0  0  0  0  0  0  0  0  0  0  0  0
   -8.0380    6.7676    6.1521 O   0  0  0  0  0  0  0  0  0  0  0  0
   -5.6296    7.1813    1.3127 O   0  0  0  0  0  0  0  0  0  0  0  0
   -6.8556    0.2739    8.0939 N   0  0  0  0  0  4  0  0  0  0  0  0
  1  2  2  0
  1 19  1  0
 20  1  1  0
  2  3  1  0
  3 10  1  0
  3 17  2  0
  5  4  2  0
  4 23  1  0
  6  5  1  0
  7  6  2  0
 22  7  1  0
  8  9  1  0
 23  8  1  0
  9 24  2  0
  9 25  1  0
 10 11  2  0
 10 15  1  0
 11 12  1  0
 12 13  2  0
 12 16  1  0
 14 13  1  0
 15 14  2  0
 16 27  1  0
 18 17  1  0
 19 18  2  0
 21 20  1  0
 20 26  2  0
 21 22  1  0
 22 23  2  0
M  CHG  1  27   1
M  END
$$$$
