
     RDKit          3D

 27 29  0  0  0  0  0  0  0  0999 V2000
   -7.3422    5.9012    2.6404 C   0  0  0  0  0  0  0  0  0  0  0  0
   -7.5102    5.1850    3.8273 C   0  0  0  0  0  0  0  0  0  0  0  0
   -8.0925    3.9402    3.8754 C   0  0  0  0  0  0  0  0  0  0  0  0
   -5.2787   11.3054    0.4859 C   0  0  0  0  0  0  0  0  0  0  0  0
   -4.3333   11.7277    1.3966 C   0  0  0  0  0  0  0  0  0  0  0  0
   -3.9994   10.8421    2.3854 C   0  0  0  0  0  0  0  0  0  0  0  0
   -4.5981    9.5862    2.4466 C   0  0  0  0  0  0  0  0  0  0  0  0
   -6.8647    9.6986   -0.4754 C   0  0  0  0  0  0  0  0  0  0  0  0
   -8.2385    9.6596    0.0531 C   0  0  0  0  0  0  0  0  0  0  0  0
   -8.2807    3.1734    5.0961 C   0  0  0  0  0  0  0  0  0  0  0  0
   -8.4096    1.8066    5.0902 C   0  0  0  0  0  0  0  0  0  0  0  0
   -8.5910    1.0625    6.2616 C   0  0  0  0  0  0  0  0  0  0  0  0
   -8.6400    1.7280    7.4470 C   0  0  0  0  0  0  0  0  0  0  0  0
   -8.5170    3.0925    7.5134 C   0  0  0  0  0  0  0  0  0  0  0  0
   -8.3394    3.8001    6.3450 C   0  0  0  0  0  0  0  0  0  0  0  0
   -8.7275   -0.4145    6.2178 C   0  0  0  0  0  0  0  0  0  0  0  0
   -8.5212    3.3967    2.6842 C   0  0  0  0  0  0  0  0  0  0  0  0
   -8.3858    4.0471    1.4873 C   0  0  0  0  0  0  0  0  0  0  0  0
   -7.7906    5.3035    1.4898 C   0  0  0  0  0  0  0  0  0  0  0  0
   -6.7073    7.2224    2.7006 C   0  0  0  0  0  0  0  0  0  0  0  0
   -6.1678    7.8836    1.5846 N   0  0  0  0  0  0  0  0  0  0  0  0
   -5.5355    9.1519    1.5539 C   0  0  0  0  0  0  0  0  0  0  0  0
   -5.8666   10.0681    0.5483 C   0  0  0  0  0  0  0  0  0  0  0  0
   -8.9491    8.6571   -0.1176 O   0  0  0  0  0  0  0  0  0  0  0  0
   -8.7130   10.7647    0.7410 O   0  0  0  0  0  0  0  0  0  0  0  0
   -6.6554    7.7706    3.8178 O   0  0  0  0  0  0  0  0  0  0  0  0
   -7.8444   -0.9761    7.2148 N   0  0  0  0  0  4  0  0  0  0  0  0
  1  2  2  0
  1 19  1  0
 20  1  1  0
  2  3  1  0
  3 10  1  0
  3 17  2  0
  5  4  2  0
  4 23  1  0
  6  5  1  0
  7  6  2  0
 22  7  1  0
  8  9  1  0
 23  8  1  0
  9 24  2  0
  9 25  1  0
 10 11  2  0
 10 15  1  0
 11 12  1  0
 12 13  2  0
 12 16  1  0
 14 13  1  0
 15 14  2  0
 16 27  1  0
 18 17  1  0
 19 18  2  0
 21 20  1  0
 20 26  2  0
 21 22  1  0
 22 23  2  0
M  CHG  1  27   1
M  END
$$$$
