
     RDKit          3D

 27 29  0  0  0  0  0  0  0  0999 V2000
   -7.1177    6.4835    1.5585 C   0  0  0  0  0  0  0  0  0  0  0  0
   -7.5291    5.4978    2.4643 C   0  0  0  0  0  0  0  0  0  0  0  0
   -8.1436    4.3347    2.0619 C   0  0  0  0  0  0  0  0  0  0  0  0
   -4.9721   10.5010    5.5872 C   0  0  0  0  0  0  0  0  0  0  0  0
   -4.8347   11.6293    4.8123 C   0  0  0  0  0  0  0  0  0  0  0  0
   -5.3522   11.6324    3.5349 C   0  0  0  0  0  0  0  0  0  0  0  0
   -6.0037   10.5234    3.0248 C   0  0  0  0  0  0  0  0  0  0  0  0
   -5.7563    8.1591    5.9647 C   0  0  0  0  0  0  0  0  0  0  0  0
   -7.2007    7.9917    6.2739 C   0  0  0  0  0  0  0  0  0  0  0  0
   -8.5595    3.3296    3.0268 C   0  0  0  0  0  0  0  0  0  0  0  0
   -7.9246    3.2026    4.2491 C   0  0  0  0  0  0  0  0  0  0  0  0
   -8.3119    2.2497    5.1744 C   0  0  0  0  0  0  0  0  0  0  0  0
   -9.3519    1.3804    4.9195 C   0  0  0  0  0  0  0  0  0  0  0  0
   -9.9885    1.5030    3.7017 C   0  0  0  0  0  0  0  0  0  0  0  0
   -9.6043    2.4520    2.7778 C   0  0  0  0  0  0  0  0  0  0  0  0
   -7.6122    2.1261    6.4941 C   0  0  0  0  0  0  0  0  0  0  0  0
   -8.3666    4.1234    0.7193 C   0  0  0  0  0  0  0  0  0  0  0  0
   -7.9793    5.0679   -0.2275 C   0  0  0  0  0  0  0  0  0  0  0  0
   -7.3562    6.2391    0.2277 C   0  0  0  0  0  0  0  0  0  0  0  0
   -6.4724    7.6946    2.0379 C   0  0  0  0  0  0  0  0  0  0  0  0
   -6.8030    8.2647    3.2835 N   0  0  0  0  0  0  0  0  0  0  0  0
   -6.1286    9.4095    3.8159 C   0  0  0  0  0  0  0  0  0  0  0  0
   -5.6211    9.3807    5.0940 C   0  0  0  0  0  0  0  0  0  0  0  0
   -7.8128    6.9114    6.0486 O   0  0  0  0  0  0  0  0  0  0  0  0
   -7.9507    9.0273    6.8308 O   0  0  0  0  0  0  0  0  0  0  0  0
   -5.5885    8.2848    1.3561 O   0  0  0  0  0  0  0  0  0  0  0  0
   -6.7322    3.2935    6.6780 N   0  0  0  0  0  4  0  0  0  0  0  0
  1  2  2  0
  1 19  1  0
 20  1  1  0
  2  3  1  0
  3 10  1  0
  3 17  2  0
  5  4  2  0
  4 23  1  0
  6  5  1  0
  7  6  2  0
 22  7  1  0
  8  9  1  1
 23  8  1  0
  9 24  2  0
  9 25  1  0
 10 11  2  0
 10 15  1  0
 11 12  1  0
 12 13  2  0
 16 12  1  1
 14 13  1  0
 15 14  2  0
 27 16  1  6
 18 17  1  0
 19 18  2  0
 21 20  1  0
 20 26  2  0
 21 22  1  0
 22 23  2  0
M  CHG  1  27   1
M  END
$$$$
