
     RDKit          3D

 27 29  0  0  0  0  0  0  0  0999 V2000
   -8.0743    5.0982    2.0935 C   0  0  0  0  0  0  0  0  0  0  0  0
   -7.9944    4.6618    3.4175 C   0  0  0  0  0  0  0  0  0  0  0  0
   -8.6164    3.5217    3.8695 C   0  0  0  0  0  0  0  0  0  0  0  0
   -5.9752    9.2530   -1.9225 C   0  0  0  0  0  0  0  0  0  0  0  0
   -5.4383   10.2773   -1.1713 C   0  0  0  0  0  0  0  0  0  0  0  0
   -5.6476   10.2181    0.1801 C   0  0  0  0  0  0  0  0  0  0  0  0
   -6.3687    9.1677    0.7423 C   0  0  0  0  0  0  0  0  0  0  0  0
   -7.2166    7.1617   -2.2486 C   0  0  0  0  0  0  0  0  0  0  0  0
   -8.2593    7.6522   -3.1653 C   0  0  0  0  0  0  0  0  0  0  0  0
   -8.5508    3.0451    5.2413 C   0  0  0  0  0  0  0  0  0  0  0  0
   -8.5339    1.7080    5.5524 C   0  0  0  0  0  0  0  0  0  0  0  0
   -8.4708    1.2425    6.8708 C   0  0  0  0  0  0  0  0  0  0  0  0
   -8.4247    2.1577    7.8761 C   0  0  0  0  0  0  0  0  0  0  0  0
   -8.4387    3.5061    7.6248 C   0  0  0  0  0  0  0  0  0  0  0  0
   -8.5012    3.9365    6.3178 C   0  0  0  0  0  0  0  0  0  0  0  0
   -8.4551   -0.2108    7.1703 C   0  0  0  0  0  0  0  0  0  0  0  0
   -9.3456    2.7945    2.9543 C   0  0  0  0  0  0  0  0  0  0  0  0
   -9.4631    3.1684    1.6427 C   0  0  0  0  0  0  0  0  0  0  0  0
   -8.8160    4.3287    1.2333 C   0  0  0  0  0  0  0  0  0  0  0  0
   -7.3714    6.3293    1.7155 C   0  0  0  0  0  0  0  0  0  0  0  0
   -7.6477    7.0623    0.5493 N   0  0  0  0  0  0  0  0  0  0  0  0
   -6.9071    8.1459    0.0140 C   0  0  0  0  0  0  0  0  0  0  0  0
   -6.6847    8.2198   -1.3663 C   0  0  0  0  0  0  0  0  0  0  0  0
   -7.9728    7.9728   -4.3290 O   0  0  0  0  0  0  0  0  0  0  0  0
   -9.5599    7.7455   -2.6967 O   0  0  0  0  0  0  0  0  0  0  0  0
   -6.4813    6.7285    2.4899 O   0  0  0  0  0  0  0  0  0  0  0  0
   -9.7739   -0.7381    6.9024 N   0  0  0  0  0  4  0  0  0  0  0  0
  1  2  2  0
  1 19  1  0
 20  1  1  0
  2  3  1  0
  3 10  1  0
  3 17  2  0
  5  4  2  0
  4 23  1  0
  6  5  1  0
  7  6  2  0
 22  7  1  0
  8  9  1  0
 23  8  1  0
  9 24  2  0
  9 25  1  0
 10 11  2  0
 10 15  1  0
 11 12  1  0
 12 13  2  0
 12 16  1  0
 14 13  1  0
 15 14  2  0
 16 27  1  0
 18 17  1  0
 19 18  2  0
 21 20  1  0
 20 26  2  0
 21 22  1  0
 22 23  2  0
M  CHG  1  27   1
M  END
$$$$
