
     RDKit          3D

 27 29  0  0  0  0  0  0  0  0999 V2000
   -7.0835    5.3546    3.0523 C   0  0  0  0  0  0  0  0  0  0  0  0
   -7.9537    4.5727    2.2825 C   0  0  0  0  0  0  0  0  0  0  0  0
   -8.2291    3.2591    2.5840 C   0  0  0  0  0  0  0  0  0  0  0  0
   -5.7186   11.0440    4.3153 C   0  0  0  0  0  0  0  0  0  0  0  0
   -5.6358   11.6671    3.0917 C   0  0  0  0  0  0  0  0  0  0  0  0
   -5.6110   10.8982    1.9481 C   0  0  0  0  0  0  0  0  0  0  0  0
   -5.6678    9.5172    2.0139 C   0  0  0  0  0  0  0  0  0  0  0  0
   -5.8661    9.0073    5.7548 C   0  0  0  0  0  0  0  0  0  0  0  0
   -7.2412    8.4597    5.8929 C   0  0  0  0  0  0  0  0  0  0  0  0
   -9.1374    2.4727    1.7651 C   0  0  0  0  0  0  0  0  0  0  0  0
   -9.6279    1.2561    2.2039 C   0  0  0  0  0  0  0  0  0  0  0  0
  -10.4923    0.4995    1.4329 C   0  0  0  0  0  0  0  0  0  0  0  0
  -10.9059    0.9251    0.1879 C   0  0  0  0  0  0  0  0  0  0  0  0
  -10.4195    2.1381   -0.2544 C   0  0  0  0  0  0  0  0  0  0  0  0
   -9.5577    2.8940    0.5123 C   0  0  0  0  0  0  0  0  0  0  0  0
  -11.0137   -0.8171    1.9243 C   0  0  0  0  0  0  0  0  0  0  0  0
   -7.6308    2.6832    3.6829 C   0  0  0  0  0  0  0  0  0  0  0  0
   -6.7568    3.4115    4.4853 C   0  0  0  0  0  0  0  0  0  0  0  0
   -6.5049    4.7475    4.1406 C   0  0  0  0  0  0  0  0  0  0  0  0
   -6.8276    6.7386    2.6887 C   0  0  0  0  0  0  0  0  0  0  0  0
   -5.8082    7.4891    3.3079 N   0  0  0  0  0  0  0  0  0  0  0  0
   -5.7500    8.9179    3.2452 C   0  0  0  0  0  0  0  0  0  0  0  0
   -5.7764    9.6625    4.4014 C   0  0  0  0  0  0  0  0  0  0  0  0
   -8.2346    8.9939    5.3268 O   0  0  0  0  0  0  0  0  0  0  0  0
   -7.4986    7.3233    6.6593 O   0  0  0  0  0  0  0  0  0  0  0  0
   -7.5097    7.3242    1.8019 O   0  0  0  0  0  0  0  0  0  0  0  0
  -10.0964   -1.3390    2.9525 N   0  0  0  0  0  4  0  0  0  0  0  0
  1  2  2  0
  1 19  1  0
 20  1  1  0
  2  3  1  0
  3 10  1  0
  3 17  2  0
  5  4  2  0
  4 23  1  0
  6  5  1  0
  7  6  2  0
 22  7  1  0
  8  9  1  1
 23  8  1  0
  9 24  2  0
  9 25  1  0
 10 11  2  0
 10 15  1  0
 11 12  1  0
 12 13  2  0
 16 12  1  1
 14 13  1  0
 15 14  2  0
 27 16  1  6
 18 17  1  0
 19 18  2  0
 21 20  1  0
 20 26  2  0
 21 22  1  0
 22 23  2  0
M  CHG  1  27   1
M  END
$$$$
