
     RDKit          3D

 27 29  0  0  0  0  0  0  0  0999 V2000
   -7.2381    5.9451    1.7517 C   0  0  0  0  0  0  0  0  0  0  0  0
   -7.5022    5.0438    2.7851 C   0  0  0  0  0  0  0  0  0  0  0  0
   -7.9824    3.7738    2.5674 C   0  0  0  0  0  0  0  0  0  0  0  0
   -6.1978   10.7188    5.5405 C   0  0  0  0  0  0  0  0  0  0  0  0
   -5.6289   11.6881    4.7415 C   0  0  0  0  0  0  0  0  0  0  0  0
   -5.5812   11.4227    3.3995 C   0  0  0  0  0  0  0  0  0  0  0  0
   -6.0873   10.2284    2.8928 C   0  0  0  0  0  0  0  0  0  0  0  0
   -7.2942    8.5659    5.9697 C   0  0  0  0  0  0  0  0  0  0  0  0
   -6.5075    7.3263    6.0809 C   0  0  0  0  0  0  0  0  0  0  0  0
   -8.2667    2.8162    3.6236 C   0  0  0  0  0  0  0  0  0  0  0  0
   -7.5679    2.7998    4.8052 C   0  0  0  0  0  0  0  0  0  0  0  0
   -7.8365    1.8808    5.8261 C   0  0  0  0  0  0  0  0  0  0  0  0
   -8.8301    0.9726    5.6308 C   0  0  0  0  0  0  0  0  0  0  0  0
   -9.5612    0.9420    4.4705 C   0  0  0  0  0  0  0  0  0  0  0  0
   -9.2756    1.8582    3.4824 C   0  0  0  0  0  0  0  0  0  0  0  0
   -7.0602    1.8916    7.0907 C   0  0  0  0  0  0  0  0  0  0  0  0
   -8.2046    3.3977    1.2607 C   0  0  0  0  0  0  0  0  0  0  0  0
   -7.9661    4.2337    0.2033 C   0  0  0  0  0  0  0  0  0  0  0  0
   -7.4809    5.5080    0.4741 C   0  0  0  0  0  0  0  0  0  0  0  0
   -6.7266    7.2768    2.0941 C   0  0  0  0  0  0  0  0  0  0  0  0
   -7.1770    8.0307    3.1906 N   0  0  0  0  0  0  0  0  0  0  0  0
   -6.6535    9.2581    3.6689 C   0  0  0  0  0  0  0  0  0  0  0  0
   -6.6956    9.5436    5.0389 C   0  0  0  0  0  0  0  0  0  0  0  0
   -5.4313    7.2086    5.4750 O   0  0  0  0  0  0  0  0  0  0  0  0
   -6.9978    6.3019    6.8745 O   0  0  0  0  0  0  0  0  0  0  0  0
   -5.8412    7.7460    1.3543 O   0  0  0  0  0  0  0  0  0  0  0  0
   -7.7299    1.0265    8.0352 N   0  0  0  0  0  4  0  0  0  0  0  0
  1  2  2  0
  1 19  1  0
 20  1  1  0
  2  3  1  0
  3 10  1  0
  3 17  2  0
  5  4  2  0
  4 23  1  0
  6  5  1  0
  7  6  2  0
 22  7  1  0
  8  9  1  0
 23  8  1  0
  9 24  2  0
  9 25  1  0
 10 11  2  0
 10 15  1  0
 11 12  1  0
 12 13  2  0
 12 16  1  0
 14 13  1  0
 15 14  2  0
 16 27  1  0
 18 17  1  0
 19 18  2  0
 21 20  1  0
 20 26  2  0
 21 22  1  0
 22 23  2  0
M  CHG  1  27   1
M  END
$$$$
