
     RDKit          3D

 27 29  0  0  0  0  0  0  0  0999 V2000
   -7.5310    5.3245    2.2113 C   0  0  0  0  0  0  0  0  0  0  0  0
   -7.5057    4.7098    3.4648 C   0  0  0  0  0  0  0  0  0  0  0  0
   -8.0581    3.4735    3.7045 C   0  0  0  0  0  0  0  0  0  0  0  0
   -6.0864   11.1839    3.0594 C   0  0  0  0  0  0  0  0  0  0  0  0
   -4.7130   11.3073    3.0438 C   0  0  0  0  0  0  0  0  0  0  0  0
   -3.9949   10.1421    3.0570 C   0  0  0  0  0  0  0  0  0  0  0  0
   -4.6416    8.9089    3.0851 C   0  0  0  0  0  0  0  0  0  0  0  0
   -8.1969    9.9326    3.0944 C   0  0  0  0  0  0  0  0  0  0  0  0
   -8.7527    9.5313    4.3976 C   0  0  0  0  0  0  0  0  0  0  0  0
   -8.0469    2.8113    4.9986 C   0  0  0  0  0  0  0  0  0  0  0  0
   -8.6588    1.6001    5.2071 C   0  0  0  0  0  0  0  0  0  0  0  0
   -8.6518    0.9572    6.4503 C   0  0  0  0  0  0  0  0  0  0  0  0
   -8.0113    1.5634    7.4859 C   0  0  0  0  0  0  0  0  0  0  0  0
   -7.3829    2.7734    7.3360 C   0  0  0  0  0  0  0  0  0  0  0  0
   -7.4054    3.3840    6.1014 C   0  0  0  0  0  0  0  0  0  0  0  0
   -9.3245   -0.3519    6.6398 C   0  0  0  0  0  0  0  0  0  0  0  0
   -8.6578    2.8327    2.6424 C   0  0  0  0  0  0  0  0  0  0  0  0
   -8.7160    3.3811    1.3895 C   0  0  0  0  0  0  0  0  0  0  0  0
   -8.1434    4.6331    1.1967 C   0  0  0  0  0  0  0  0  0  0  0  0
   -6.9111    6.6460    2.0638 C   0  0  0  0  0  0  0  0  0  0  0  0
   -6.6931    7.5324    3.1317 N   0  0  0  0  0  0  0  0  0  0  0  0
   -5.9997    8.7683    3.1010 C   0  0  0  0  0  0  0  0  0  0  0  0
   -6.7206    9.9683    3.0869 C   0  0  0  0  0  0  0  0  0  0  0  0
   -8.0326    9.5087    5.4076 O   0  0  0  0  0  0  0  0  0  0  0  0
  -10.0917    9.1819    4.4651 O   0  0  0  0  0  0  0  0  0  0  0  0
   -6.5660    6.9797    0.9144 O   0  0  0  0  0  0  0  0  0  0  0  0
   -8.3713   -1.3943    6.3333 N   0  0  0  0  0  4  0  0  0  0  0  0
  1  2  2  0
  1 19  1  0
 20  1  1  0
  2  3  1  0
  3 10  1  0
  3 17  2  0
  5  4  2  0
  4 23  1  0
  6  5  1  0
  7  6  2  0
 22  7  1  0
  8  9  1  0
 23  8  1  0
  9 24  2  0
  9 25  1  0
 10 11  2  0
 10 15  1  0
 11 12  1  0
 12 13  2  0
 12 16  1  0
 14 13  1  0
 15 14  2  0
 16 27  1  0
 18 17  1  0
 19 18  2  0
 21 20  1  0
 20 26  2  0
 21 22  1  0
 22 23  2  0
M  CHG  1  27   1
M  END
$$$$
