
     RDKit          3D

 27 29  0  0  0  0  0  0  0  0999 V2000
   -7.6019    5.8742    2.1777 C   0  0  0  0  0  0  0  0  0  0  0  0
   -7.6394    4.9074    3.1846 C   0  0  0  0  0  0  0  0  0  0  0  0
   -8.1976    3.6631    3.0082 C   0  0  0  0  0  0  0  0  0  0  0  0
   -4.8173   10.1740    5.5548 C   0  0  0  0  0  0  0  0  0  0  0  0
   -4.1461   11.0032    4.6810 C   0  0  0  0  0  0  0  0  0  0  0  0
   -4.0972   10.6015    3.3734 C   0  0  0  0  0  0  0  0  0  0  0  0
   -4.7017    9.4127    2.9720 C   0  0  0  0  0  0  0  0  0  0  0  0
   -6.1159    8.1824    6.1617 C   0  0  0  0  0  0  0  0  0  0  0  0
   -7.5762    8.1744    5.9724 C   0  0  0  0  0  0  0  0  0  0  0  0
   -8.2511    2.6389    4.0385 C   0  0  0  0  0  0  0  0  0  0  0  0
   -7.6179    2.7826    5.2481 C   0  0  0  0  0  0  0  0  0  0  0  0
   -7.6654    1.8005    6.2442 C   0  0  0  0  0  0  0  0  0  0  0  0
   -8.3687    0.6632    5.9950 C   0  0  0  0  0  0  0  0  0  0  0  0
   -9.0211    0.4650    4.8048 C   0  0  0  0  0  0  0  0  0  0  0  0
   -8.9577    1.4481    3.8420 C   0  0  0  0  0  0  0  0  0  0  0  0
   -6.9679    1.9893    7.5403 C   0  0  0  0  0  0  0  0  0  0  0  0
   -8.7377    3.3823    1.7723 C   0  0  0  0  0  0  0  0  0  0  0  0
   -8.7327    4.2860    0.7442 C   0  0  0  0  0  0  0  0  0  0  0  0
   -8.1568    5.5309    0.9710 C   0  0  0  0  0  0  0  0  0  0  0  0
   -6.9815    7.1709    2.4711 C   0  0  0  0  0  0  0  0  0  0  0  0
   -5.9951    7.3630    3.4530 N   0  0  0  0  0  0  0  0  0  0  0  0
   -5.3698    8.5800    3.8232 C   0  0  0  0  0  0  0  0  0  0  0  0
   -5.4118    9.0041    5.1568 C   0  0  0  0  0  0  0  0  0  0  0  0
   -8.1667    9.1988    5.5969 O   0  0  0  0  0  0  0  0  0  0  0  0
   -8.2681    7.0006    6.2234 O   0  0  0  0  0  0  0  0  0  0  0  0
   -7.3682    8.1443    1.7971 O   0  0  0  0  0  0  0  0  0  0  0  0
   -6.7073    3.4011    7.7077 N   0  0  0  0  0  4  0  0  0  0  0  0
  1  2  2  0
  1 19  1  0
 20  1  1  0
  2  3  1  0
  3 10  1  0
  3 17  2  0
  5  4  2  0
  4 23  1  0
  6  5  1  0
  7  6  2  0
 22  7  1  0
  8  9  1  0
 23  8  1  0
  9 24  2  0
  9 25  1  0
 10 11  2  0
 10 15  1  0
 11 12  1  0
 12 13  2  0
 12 16  1  0
 14 13  1  0
 15 14  2  0
 16 27  1  0
 18 17  1  0
 19 18  2  0
 21 20  1  0
 20 26  2  0
 21 22  1  0
 22 23  2  0
M  CHG  1  27   1
M  END
$$$$
