
     RDKit          3D

 27 29  0  0  0  0  0  0  0  0999 V2000
   -6.6787    5.7708    1.8982 C   0  0  0  0  0  0  0  0  0  0  0  0
   -7.1262    4.8476    2.8455 C   0  0  0  0  0  0  0  0  0  0  0  0
   -7.0101    5.0486    4.2009 C   0  0  0  0  0  0  0  0  0  0  0  0
   -9.8215    4.2364   -3.2477 C   0  0  0  0  0  0  0  0  0  0  0  0
   -8.8441    3.7297   -4.0782 C   0  0  0  0  0  0  0  0  0  0  0  0
   -7.5816    3.6468   -3.5559 C   0  0  0  0  0  0  0  0  0  0  0  0
   -7.3237    4.0596   -2.2510 C   0  0  0  0  0  0  0  0  0  0  0  0
  -10.6762    5.1652   -1.1435 C   0  0  0  0  0  0  0  0  0  0  0  0
  -10.8750    6.6149   -1.3081 C   0  0  0  0  0  0  0  0  0  0  0  0
   -7.4660    4.1049    5.2082 C   0  0  0  0  0  0  0  0  0  0  0  0
   -7.5902    2.7620    4.9512 C   0  0  0  0  0  0  0  0  0  0  0  0
   -8.0286    1.8481    5.9164 C   0  0  0  0  0  0  0  0  0  0  0  0
   -8.3412    2.3179    7.1540 C   0  0  0  0  0  0  0  0  0  0  0  0
   -8.2363    3.6492    7.4676 C   0  0  0  0  0  0  0  0  0  0  0  0
   -7.8023    4.5266    6.4985 C   0  0  0  0  0  0  0  0  0  0  0  0
   -8.1517    0.4028    5.6032 C   0  0  0  0  0  0  0  0  0  0  0  0
   -6.4216    6.2227    4.6174 C   0  0  0  0  0  0  0  0  0  0  0  0
   -5.9623    7.1676    3.7399 C   0  0  0  0  0  0  0  0  0  0  0  0
   -6.1023    6.9190    2.3793 C   0  0  0  0  0  0  0  0  0  0  0  0
   -6.8519    5.4580    0.4753 C   0  0  0  0  0  0  0  0  0  0  0  0
   -8.0547    4.9952   -0.0840 N   0  0  0  0  0  0  0  0  0  0  0  0
   -8.2788    4.5635   -1.4154 C   0  0  0  0  0  0  0  0  0  0  0  0
   -9.5648    4.6420   -1.9632 C   0  0  0  0  0  0  0  0  0  0  0  0
  -11.9344    7.0541   -1.7812 O   0  0  0  0  0  0  0  0  0  0  0  0
   -9.8544    7.4693   -0.9235 O   0  0  0  0  0  0  0  0  0  0  0  0
   -5.8601    5.6200   -0.2605 O   0  0  0  0  0  0  0  0  0  0  0  0
   -7.8049   -0.3444    6.7909 N   0  0  0  0  0  4  0  0  0  0  0  0
  1  2  2  0
  1 19  1  0
 20  1  1  0
  2  3  1  0
  3 10  1  0
  3 17  2  0
  5  4  2  0
  4 23  1  0
  6  5  1  0
  7  6  2  0
 22  7  1  0
  8  9  1  0
 23  8  1  0
  9 24  2  0
  9 25  1  0
 10 11  2  0
 10 15  1  0
 11 12  1  0
 12 13  2  0
 12 16  1  0
 14 13  1  0
 15 14  2  0
 16 27  1  0
 18 17  1  0
 19 18  2  0
 21 20  1  0
 20 26  2  0
 21 22  1  0
 22 23  2  0
M  CHG  1  27   1
M  END
$$$$
