
     RDKit          3D

 27 29  0  0  0  0  0  0  0  0999 V2000
   -7.3932    5.2447    2.1529 C   0  0  0  0  0  0  0  0  0  0  0  0
   -7.3262    4.6106    3.3952 C   0  0  0  0  0  0  0  0  0  0  0  0
   -7.9501    3.4143    3.6605 C   0  0  0  0  0  0  0  0  0  0  0  0
   -5.3981   10.7432    3.7240 C   0  0  0  0  0  0  0  0  0  0  0  0
   -4.2966   11.0846    2.9677 C   0  0  0  0  0  0  0  0  0  0  0  0
   -3.7459   10.0891    2.2066 C   0  0  0  0  0  0  0  0  0  0  0  0
   -4.2885    8.8065    2.2135 C   0  0  0  0  0  0  0  0  0  0  0  0
   -7.1169    9.2069    4.5647 C   0  0  0  0  0  0  0  0  0  0  0  0
   -6.8393    8.2650    5.6619 C   0  0  0  0  0  0  0  0  0  0  0  0
   -7.8978    2.7332    4.9437 C   0  0  0  0  0  0  0  0  0  0  0  0
   -8.0285    1.3711    5.0562 C   0  0  0  0  0  0  0  0  0  0  0  0
   -7.9790    0.7091    6.2883 C   0  0  0  0  0  0  0  0  0  0  0  0
   -7.7939    1.4524    7.4124 C   0  0  0  0  0  0  0  0  0  0  0  0
   -7.6572    2.8163    7.3606 C   0  0  0  0  0  0  0  0  0  0  0  0
   -7.7099    3.4420    6.1346 C   0  0  0  0  0  0  0  0  0  0  0  0
   -8.1248   -0.7652    6.3725 C   0  0  0  0  0  0  0  0  0  0  0  0
   -8.6678    2.8352    2.6369 C   0  0  0  0  0  0  0  0  0  0  0  0
   -8.7724    3.4055    1.3968 C   0  0  0  0  0  0  0  0  0  0  0  0
   -8.1239    4.6154    1.1770 C   0  0  0  0  0  0  0  0  0  0  0  0
   -6.6895    6.5197    1.9756 C   0  0  0  0  0  0  0  0  0  0  0  0
   -5.9568    7.1576    2.9905 N   0  0  0  0  0  0  0  0  0  0  0  0
   -5.3779    8.4511    2.9559 C   0  0  0  0  0  0  0  0  0  0  0  0
   -5.9304    9.4794    3.7287 C   0  0  0  0  0  0  0  0  0  0  0  0
   -7.5992    7.3079    5.8758 O   0  0  0  0  0  0  0  0  0  0  0  0
   -5.7149    8.4749    6.4438 O   0  0  0  0  0  0  0  0  0  0  0  0
   -6.7601    7.0489    0.8503 O   0  0  0  0  0  0  0  0  0  0  0  0
   -7.7520   -1.1770    7.7069 N   0  0  0  0  0  4  0  0  0  0  0  0
  1  2  2  0
  1 19  1  0
 20  1  1  0
  2  3  1  0
  3 10  1  0
  3 17  2  0
  5  4  2  0
  4 23  1  0
  6  5  1  0
  7  6  2  0
 22  7  1  0
  8  9  1  0
 23  8  1  0
  9 24  2  0
  9 25  1  0
 10 11  2  0
 10 15  1  0
 11 12  1  0
 12 13  2  0
 12 16  1  0
 14 13  1  0
 15 14  2  0
 16 27  1  0
 18 17  1  0
 19 18  2  0
 21 20  1  0
 20 26  2  0
 21 22  1  0
 22 23  2  0
M  CHG  1  27   1
M  END
$$$$
