
     RDKit          3D

 27 29  0  0  0  0  0  0  0  0999 V2000
   -7.2935    6.1514    5.4305 C   0  0  0  0  0  0  0  0  0  0  0  0
   -7.2768    5.4639    4.2105 C   0  0  0  0  0  0  0  0  0  0  0  0
   -7.6960    4.1591    4.0918 C   0  0  0  0  0  0  0  0  0  0  0  0
   -6.0647   11.8576    3.9564 C   0  0  0  0  0  0  0  0  0  0  0  0
   -4.8419   12.1095    4.5338 C   0  0  0  0  0  0  0  0  0  0  0  0
   -4.1167   11.0589    5.0535 C   0  0  0  0  0  0  0  0  0  0  0  0
   -4.5990    9.7630    5.0025 C   0  0  0  0  0  0  0  0  0  0  0  0
   -7.9067   10.3207    3.2584 C   0  0  0  0  0  0  0  0  0  0  0  0
   -8.9331   10.9601    4.1228 C   0  0  0  0  0  0  0  0  0  0  0  0
   -7.6666    3.4719    2.8108 C   0  0  0  0  0  0  0  0  0  0  0  0
   -7.5162    2.0989    2.7367 C   0  0  0  0  0  0  0  0  0  0  0  0
   -7.4866    1.4349    1.5233 C   0  0  0  0  0  0  0  0  0  0  0  0
   -7.6062    2.1137    0.3286 C   0  0  0  0  0  0  0  0  0  0  0  0
   -7.7563    3.4835    0.3971 C   0  0  0  0  0  0  0  0  0  0  0  0
   -7.7862    4.1476    1.6054 C   0  0  0  0  0  0  0  0  0  0  0  0
   -7.3225   -0.0537    1.4617 C   0  0  0  0  0  0  0  0  0  0  0  0
   -8.1509    3.4961    5.2101 C   0  0  0  0  0  0  0  0  0  0  0  0
   -8.1904    4.1284    6.4499 C   0  0  0  0  0  0  0  0  0  0  0  0
   -7.7533    5.4590    6.5245 C   0  0  0  0  0  0  0  0  0  0  0  0
   -6.8391    7.5304    5.4998 C   0  0  0  0  0  0  0  0  0  0  0  0
   -6.3157    8.1937    4.3720 N   0  0  0  0  0  0  0  0  0  0  0  0
   -5.8211    9.5360    4.4219 C   0  0  0  0  0  0  0  0  0  0  0  0
   -6.5644   10.5668    3.8960 C   0  0  0  0  0  0  0  0  0  0  0  0
   -9.7466   11.8151    3.6758 O   0  0  0  0  0  0  0  0  0  0  0  0
   -9.0452   10.6426    5.4762 O   0  0  0  0  0  0  0  0  0  0  0  0
   -6.8955    8.1899    6.5752 O   0  0  0  0  0  0  0  0  0  0  0  0
   -7.1955   -0.5761    2.8335 N   0  0  0  0  0  4  0  0  0  0  0  0
  1  2  2  0
  1 19  1  0
 20  1  1  0
  2  3  1  0
  3 10  1  0
  3 17  2  0
  5  4  2  0
  4 23  1  0
  6  5  1  0
  7  6  2  0
 22  7  1  0
  8  9  1  1
 23  8  1  0
  9 24  2  0
  9 25  1  0
 10 11  2  0
 10 15  1  0
 11 12  1  0
 12 13  2  0
 16 12  1  1
 14 13  1  0
 15 14  2  0
 27 16  1  6
 18 17  1  0
 19 18  2  0
 21 20  1  0
 20 26  2  0
 21 22  1  0
 22 23  2  0
M  CHG  1  27   1
M  END
$$$$
