
     RDKit          3D

 27 29  0  0  0  0  0  0  0  0999 V2000
   -7.0897    4.5722    2.5504 C   0  0  0  0  0  0  0  0  0  0  0  0
   -7.8388    3.5563    1.9437 C   0  0  0  0  0  0  0  0  0  0  0  0
   -8.6036    2.6702    2.6663 C   0  0  0  0  0  0  0  0  0  0  0  0
   -4.3688    9.7011    0.9483 C   0  0  0  0  0  0  0  0  0  0  0  0
   -3.3947    9.3074    0.0604 C   0  0  0  0  0  0  0  0  0  0  0  0
   -3.1097    7.9653   -0.0707 C   0  0  0  0  0  0  0  0  0  0  0  0
   -3.7858    7.0150    0.6740 C   0  0  0  0  0  0  0  0  0  0  0  0
   -6.1177    9.2244    2.6677 C   0  0  0  0  0  0  0  0  0  0  0  0
   -7.4367    8.9762    2.0287 C   0  0  0  0  0  0  0  0  0  0  0  0
   -9.3707    1.6255    2.0074 C   0  0  0  0  0  0  0  0  0  0  0  0
   -9.6556    0.4328    2.6474 C   0  0  0  0  0  0  0  0  0  0  0  0
  -10.3844   -0.5681    2.0299 C   0  0  0  0  0  0  0  0  0  0  0  0
  -10.8615   -0.4218    0.7441 C   0  0  0  0  0  0  0  0  0  0  0  0
  -10.5800    0.7660    0.1013 C   0  0  0  0  0  0  0  0  0  0  0  0
   -9.8538    1.7651    0.7148 C   0  0  0  0  0  0  0  0  0  0  0  0
  -10.6835   -1.8545    2.7385 C   0  0  0  0  0  0  0  0  0  0  0  0
   -8.6398    2.7791    4.0389 C   0  0  0  0  0  0  0  0  0  0  0  0
   -7.9157    3.7694    4.6972 C   0  0  0  0  0  0  0  0  0  0  0  0
   -7.1495    4.6509    3.9207 C   0  0  0  0  0  0  0  0  0  0  0  0
   -6.2982    5.4822    1.7388 C   0  0  0  0  0  0  0  0  0  0  0  0
   -5.4493    6.4443    2.3215 N   0  0  0  0  0  0  0  0  0  0  0  0
   -4.7531    7.4312    1.5533 C   0  0  0  0  0  0  0  0  0  0  0  0
   -5.0564    8.7645    1.7028 C   0  0  0  0  0  0  0  0  0  0  0  0
   -7.6136    9.1061    0.7859 O   0  0  0  0  0  0  0  0  0  0  0  0
   -8.5465    8.5859    2.7777 O   0  0  0  0  0  0  0  0  0  0  0  0
   -6.3399    5.4464    0.4772 O   0  0  0  0  0  0  0  0  0  0  0  0
   -9.6414   -2.0935    3.7523 N   0  0  0  0  0  4  0  0  0  0  0  0
  1  2  2  0
  1 19  1  0
 20  1  1  0
  2  3  1  0
  3 10  1  0
  3 17  2  0
  5  4  2  0
  4 23  1  0
  6  5  1  0
  7  6  2  0
 22  7  1  0
  8  9  1  1
 23  8  1  0
  9 24  2  0
  9 25  1  0
 10 11  2  0
 10 15  1  0
 11 12  1  0
 12 13  2  0
 16 12  1  1
 14 13  1  0
 15 14  2  0
 27 16  1  6
 18 17  1  0
 19 18  2  0
 21 20  1  0
 20 26  2  0
 21 22  1  0
 22 23  2  0
M  CHG  1  27   1
M  END
$$$$
