
     RDKit          3D

 27 29  0  0  0  0  0  0  0  0999 V2000
   -7.8900    6.9790    1.2914 C   0  0  0  0  0  0  0  0  0  0  0  0
   -8.0621    5.6887    1.8080 C   0  0  0  0  0  0  0  0  0  0  0  0
   -8.9716    4.7988    1.2853 C   0  0  0  0  0  0  0  0  0  0  0  0
   -4.5047    9.6928    5.4957 C   0  0  0  0  0  0  0  0  0  0  0  0
   -3.3796   10.0805    4.8055 C   0  0  0  0  0  0  0  0  0  0  0  0
   -3.1846    9.6120    3.5240 C   0  0  0  0  0  0  0  0  0  0  0  0
   -4.0991    8.7628    2.9265 C   0  0  0  0  0  0  0  0  0  0  0  0
   -6.6541    8.4347    5.6938 C   0  0  0  0  0  0  0  0  0  0  0  0
   -7.8322    9.0467    5.0251 C   0  0  0  0  0  0  0  0  0  0  0  0
   -9.1274    3.4654    1.8438 C   0  0  0  0  0  0  0  0  0  0  0  0
   -9.5919    2.4148    1.0732 C   0  0  0  0  0  0  0  0  0  0  0  0
   -9.7442    1.1423    1.5945 C   0  0  0  0  0  0  0  0  0  0  0  0
   -9.4390    0.8624    2.9101 C   0  0  0  0  0  0  0  0  0  0  0  0
   -8.9754    1.9070    3.6829 C   0  0  0  0  0  0  0  0  0  0  0  0
   -8.8226    3.1763    3.1656 C   0  0  0  0  0  0  0  0  0  0  0  0
  -10.2493    0.0155    0.7449 C   0  0  0  0  0  0  0  0  0  0  0  0
   -9.7462    5.1830    0.2131 C   0  0  0  0  0  0  0  0  0  0  0  0
   -9.6190    6.4532   -0.3426 C   0  0  0  0  0  0  0  0  0  0  0  0
   -8.6793    7.3278    0.2223 C   0  0  0  0  0  0  0  0  0  0  0  0
   -6.9139    7.8797    1.8822 C   0  0  0  0  0  0  0  0  0  0  0  0
   -6.1563    7.5106    3.0117 N   0  0  0  0  0  0  0  0  0  0  0  0
   -5.2136    8.3896    3.6342 C   0  0  0  0  0  0  0  0  0  0  0  0
   -5.4316    8.8430    4.9143 C   0  0  0  0  0  0  0  0  0  0  0  0
   -8.7420    8.3475    4.4996 O   0  0  0  0  0  0  0  0  0  0  0  0
   -7.9876   10.4305    4.9471 O   0  0  0  0  0  0  0  0  0  0  0  0
   -6.7057    9.0305    1.4059 O   0  0  0  0  0  0  0  0  0  0  0  0
  -11.2637    0.5389   -0.1868 N   0  0  0  0  0  4  0  0  0  0  0  0
  1  2  2  0
  1 19  1  0
 20  1  1  0
  2  3  1  0
  3 10  1  0
  3 17  2  0
  5  4  2  0
  4 23  1  0
  6  5  1  0
  7  6  2  0
 22  7  1  0
  8  9  1  1
 23  8  1  0
  9 24  2  0
  9 25  1  0
 10 11  2  0
 10 15  1  0
 11 12  1  0
 12 13  2  0
 16 12  1  1
 14 13  1  0
 15 14  2  0
 27 16  1  6
 18 17  1  0
 19 18  2  0
 21 20  1  0
 20 26  2  0
 21 22  1  0
 22 23  2  0
M  CHG  1  27   1
M  END
$$$$
