
     RDKit          3D

 27 29  0  0  0  0  0  0  0  0999 V2000
   -6.8853    5.2762    1.1440 C   0  0  0  0  0  0  0  0  0  0  0  0
   -7.9234    4.5293    1.7147 C   0  0  0  0  0  0  0  0  0  0  0  0
   -8.3659    3.3449    1.1728 C   0  0  0  0  0  0  0  0  0  0  0  0
   -6.4567    9.7107    5.2868 C   0  0  0  0  0  0  0  0  0  0  0  0
   -6.0766   10.7814    4.5111 C   0  0  0  0  0  0  0  0  0  0  0  0
   -6.0924   10.6542    3.1388 C   0  0  0  0  0  0  0  0  0  0  0  0
   -6.4827    9.4720    2.5349 C   0  0  0  0  0  0  0  0  0  0  0  0
   -7.2609    7.3629    5.5747 C   0  0  0  0  0  0  0  0  0  0  0  0
   -6.2902    6.2618    5.3398 C   0  0  0  0  0  0  0  0  0  0  0  0
   -9.4464    2.5917    1.7887 C   0  0  0  0  0  0  0  0  0  0  0  0
   -9.8710    1.3853    1.2618 C   0  0  0  0  0  0  0  0  0  0  0  0
  -10.8982    0.6606    1.8395 C   0  0  0  0  0  0  0  0  0  0  0  0
  -11.5476    1.1092    2.9706 C   0  0  0  0  0  0  0  0  0  0  0  0
  -11.1278    2.3121    3.5000 C   0  0  0  0  0  0  0  0  0  0  0  0
  -10.1041    3.0362    2.9260 C   0  0  0  0  0  0  0  0  0  0  0  0
  -11.3457   -0.6450    1.2548 C   0  0  0  0  0  0  0  0  0  0  0  0
   -7.7710    2.8682    0.0256 C   0  0  0  0  0  0  0  0  0  0  0  0
   -6.7344    3.5678   -0.5864 C   0  0  0  0  0  0  0  0  0  0  0  0
   -6.3155    4.7708    0.0006 C   0  0  0  0  0  0  0  0  0  0  0  0
   -6.4567    6.5220    1.7583 C   0  0  0  0  0  0  0  0  0  0  0  0
   -7.2598    7.1968    2.6993 N   0  0  0  0  0  0  0  0  0  0  0  0
   -6.8573    8.4177    3.3288 C   0  0  0  0  0  0  0  0  0  0  0  0
   -6.8504    8.5188    4.7005 C   0  0  0  0  0  0  0  0  0  0  0  0
   -5.0428    6.4518    5.3670 O   0  0  0  0  0  0  0  0  0  0  0  0
   -6.7157    4.9600    5.0770 O   0  0  0  0  0  0  0  0  0  0  0  0
   -5.3455    7.0498    1.4728 O   0  0  0  0  0  0  0  0  0  0  0  0
  -10.4810   -0.9748    0.1082 N   0  0  0  0  0  4  0  0  0  0  0  0
  1  2  2  0
  1 19  1  0
 20  1  1  0
  2  3  1  0
  3 10  1  0
  3 17  2  0
  5  4  2  0
  4 23  1  0
  6  5  1  0
  7  6  2  0
 22  7  1  0
  8  9  1  1
 23  8  1  0
  9 24  2  0
  9 25  1  0
 10 11  2  0
 10 15  1  0
 11 12  1  0
 12 13  2  0
 16 12  1  1
 14 13  1  0
 15 14  2  0
 27 16  1  6
 18 17  1  0
 19 18  2  0
 21 20  1  0
 20 26  2  0
 21 22  1  0
 22 23  2  0
M  CHG  1  27   1
M  END
$$$$
