
     RDKit          3D

 27 29  0  0  0  0  0  0  0  0999 V2000
   -7.8798    5.7892    2.1677 C   0  0  0  0  0  0  0  0  0  0  0  0
   -7.7965    5.1260    3.3938 C   0  0  0  0  0  0  0  0  0  0  0  0
   -8.1023    3.7942    3.5476 C   0  0  0  0  0  0  0  0  0  0  0  0
   -5.3827   11.0004    4.2350 C   0  0  0  0  0  0  0  0  0  0  0  0
   -5.8933   12.0215    3.4616 C   0  0  0  0  0  0  0  0  0  0  0  0
   -6.9075   11.6899    2.6042 C   0  0  0  0  0  0  0  0  0  0  0  0
   -7.3809   10.3820    2.5355 C   0  0  0  0  0  0  0  0  0  0  0  0
   -5.2482    8.6856    5.0379 C   0  0  0  0  0  0  0  0  0  0  0  0
   -6.1930    8.1574    6.0362 C   0  0  0  0  0  0  0  0  0  0  0  0
   -8.0254    3.0795    4.8112 C   0  0  0  0  0  0  0  0  0  0  0  0
   -8.1258    1.7124    4.8870 C   0  0  0  0  0  0  0  0  0  0  0  0
   -8.0526    1.0182    6.1001 C   0  0  0  0  0  0  0  0  0  0  0  0
   -7.8748    1.7344    7.2429 C   0  0  0  0  0  0  0  0  0  0  0  0
   -7.7680    3.1018    7.2277 C   0  0  0  0  0  0  0  0  0  0  0  0
   -7.8436    3.7595    6.0197 C   0  0  0  0  0  0  0  0  0  0  0  0
   -8.1659   -0.4607    6.1448 C   0  0  0  0  0  0  0  0  0  0  0  0
   -8.5067    3.1049    2.4252 C   0  0  0  0  0  0  0  0  0  0  0  0
   -8.6089    3.6966    1.1951 C   0  0  0  0  0  0  0  0  0  0  0  0
   -8.2889    5.0454    1.0899 C   0  0  0  0  0  0  0  0  0  0  0  0
   -7.5297    7.2129    2.1134 C   0  0  0  0  0  0  0  0  0  0  0  0
   -7.3410    8.0168    3.2500 N   0  0  0  0  0  0  0  0  0  0  0  0
   -6.8872    9.3591    3.2933 C   0  0  0  0  0  0  0  0  0  0  0  0
   -5.8508    9.7133    4.1653 C   0  0  0  0  0  0  0  0  0  0  0  0
   -5.8319    7.2889    6.8451 O   0  0  0  0  0  0  0  0  0  0  0  0
   -7.4868    8.6527    6.0477 O   0  0  0  0  0  0  0  0  0  0  0  0
   -7.3973    7.7163    0.9819 O   0  0  0  0  0  0  0  0  0  0  0  0
   -7.9127   -0.8889    7.5019 N   0  0  0  0  0  4  0  0  0  0  0  0
  1  2  2  0
  1 19  1  0
 20  1  1  0
  2  3  1  0
  3 10  1  0
  3 17  2  0
  5  4  2  0
  4 23  1  0
  6  5  1  0
  7  6  2  0
 22  7  1  0
  8  9  1  0
 23  8  1  0
  9 24  2  0
  9 25  1  0
 10 11  2  0
 10 15  1  0
 11 12  1  0
 12 13  2  0
 12 16  1  0
 14 13  1  0
 15 14  2  0
 16 27  1  0
 18 17  1  0
 19 18  2  0
 21 20  1  0
 20 26  2  0
 21 22  1  0
 22 23  2  0
M  CHG  1  27   1
M  END
$$$$
