
     RDKit          3D

 27 29  0  0  0  0  0  0  0  0999 V2000
   -7.8503    6.1576    1.1798 C   0  0  0  0  0  0  0  0  0  0  0  0
   -8.1206    4.8819    0.6691 C   0  0  0  0  0  0  0  0  0  0  0  0
   -9.2895    4.5828    0.0085 C   0  0  0  0  0  0  0  0  0  0  0  0
   -3.8187    8.5441    5.0404 C   0  0  0  0  0  0  0  0  0  0  0  0
   -2.6679    8.5608    4.2869 C   0  0  0  0  0  0  0  0  0  0  0  0
   -2.7442    8.2786    2.9400 C   0  0  0  0  0  0  0  0  0  0  0  0
   -3.9547    7.9806    2.3396 C   0  0  0  0  0  0  0  0  0  0  0  0
   -6.2837    8.2363    5.3067 C   0  0  0  0  0  0  0  0  0  0  0  0
   -6.7251    6.8220    5.4289 C   0  0  0  0  0  0  0  0  0  0  0  0
   -9.5414    3.2482   -0.5105 C   0  0  0  0  0  0  0  0  0  0  0  0
   -8.5079    2.3527   -0.7186 C   0  0  0  0  0  0  0  0  0  0  0  0
   -8.7360    1.0805   -1.2122 C   0  0  0  0  0  0  0  0  0  0  0  0
  -10.0082    0.6458   -1.5202 C   0  0  0  0  0  0  0  0  0  0  0  0
  -11.0426    1.5353   -1.3145 C   0  0  0  0  0  0  0  0  0  0  0  0
  -10.8177    2.8038   -0.8225 C   0  0  0  0  0  0  0  0  0  0  0  0
   -7.6039    0.1232   -1.4320 C   0  0  0  0  0  0  0  0  0  0  0  0
  -10.2354    5.5695   -0.1616 C   0  0  0  0  0  0  0  0  0  0  0  0
  -10.0220    6.8565    0.3246 C   0  0  0  0  0  0  0  0  0  0  0  0
   -8.8160    7.1166    0.9918 C   0  0  0  0  0  0  0  0  0  0  0  0
   -6.5981    6.4195    1.8700 C   0  0  0  0  0  0  0  0  0  0  0  0
   -6.3387    7.6605    2.4852 N   0  0  0  0  0  0  0  0  0  0  0  0
   -5.0891    7.9697    3.1110 C   0  0  0  0  0  0  0  0  0  0  0  0
   -5.0400    8.2478    4.4572 C   0  0  0  0  0  0  0  0  0  0  0  0
   -5.9032    5.8650    5.4662 O   0  0  0  0  0  0  0  0  0  0  0  0
   -8.0761    6.4854    5.5084 O   0  0  0  0  0  0  0  0  0  0  0  0
   -5.6914    5.5438    1.9458 O   0  0  0  0  0  0  0  0  0  0  0  0
   -6.3971    0.6532   -0.7731 N   0  0  0  0  0  4  0  0  0  0  0  0
  1  2  2  0
  1 19  1  0
 20  1  1  0
  2  3  1  0
  3 10  1  0
  3 17  2  0
  5  4  2  0
  4 23  1  0
  6  5  1  0
  7  6  2  0
 22  7  1  0
  8  9  1  1
 23  8  1  0
  9 24  2  0
  9 25  1  0
 10 11  2  0
 10 15  1  0
 11 12  1  0
 12 13  2  0
 16 12  1  1
 14 13  1  0
 15 14  2  0
 27 16  1  6
 18 17  1  0
 19 18  2  0
 21 20  1  0
 20 26  2  0
 21 22  1  0
 22 23  2  0
M  CHG  1  27   1
M  END
$$$$
