
     RDKit          3D

 27 29  0  0  0  0  0  0  0  0999 V2000
   -6.2190    6.8497    4.2725 C   0  0  0  0  0  0  0  0  0  0  0  0
   -6.7302    5.6063    3.8803 C   0  0  0  0  0  0  0  0  0  0  0  0
   -7.5789    4.8721    4.6758 C   0  0  0  0  0  0  0  0  0  0  0  0
   -3.8503    9.5081   -0.5223 C   0  0  0  0  0  0  0  0  0  0  0  0
   -2.5067    9.2134   -0.5199 C   0  0  0  0  0  0  0  0  0  0  0  0
   -2.0342    8.2452    0.3396 C   0  0  0  0  0  0  0  0  0  0  0  0
   -2.8876    7.5701    1.1944 C   0  0  0  0  0  0  0  0  0  0  0  0
   -6.1867    9.1868    0.3025 C   0  0  0  0  0  0  0  0  0  0  0  0
   -6.8874    8.0939   -0.4216 C   0  0  0  0  0  0  0  0  0  0  0  0
   -8.0932    3.5836    4.2407 C   0  0  0  0  0  0  0  0  0  0  0  0
   -8.2490    2.5359    5.1303 C   0  0  0  0  0  0  0  0  0  0  0  0
   -8.7371    1.3058    4.7270 C   0  0  0  0  0  0  0  0  0  0  0  0
   -9.0918    1.0673    3.4157 C   0  0  0  0  0  0  0  0  0  0  0  0
   -8.9383    2.1091    2.5244 C   0  0  0  0  0  0  0  0  0  0  0  0
   -8.4520    3.3361    2.9239 C   0  0  0  0  0  0  0  0  0  0  0  0
   -8.8991    0.1814    5.7048 C   0  0  0  0  0  0  0  0  0  0  0  0
   -7.9451    5.3713    5.9062 C   0  0  0  0  0  0  0  0  0  0  0  0
   -7.4684    6.6021    6.3494 C   0  0  0  0  0  0  0  0  0  0  0  0
   -6.6054    7.3164    5.5056 C   0  0  0  0  0  0  0  0  0  0  0  0
   -5.3252    7.5842    3.3924 C   0  0  0  0  0  0  0  0  0  0  0  0
   -5.1021    7.1801    2.0609 N   0  0  0  0  0  0  0  0  0  0  0  0
   -4.2236    7.8810    1.1745 C   0  0  0  0  0  0  0  0  0  0  0  0
   -4.7204    8.8431    0.3263 C   0  0  0  0  0  0  0  0  0  0  0  0
   -6.5829    6.8801   -0.2586 O   0  0  0  0  0  0  0  0  0  0  0  0
   -7.9201    8.3611   -1.3200 O   0  0  0  0  0  0  0  0  0  0  0  0
   -4.7121    8.6154    3.7867 O   0  0  0  0  0  0  0  0  0  0  0  0
   -8.5088    0.6550    7.0444 N   0  0  0  0  0  4  0  0  0  0  0  0
  1  2  2  0
  1 19  1  0
 20  1  1  0
  2  3  1  0
  3 10  1  0
  3 17  2  0
  5  4  2  0
  4 23  1  0
  6  5  1  0
  7  6  2  0
 22  7  1  0
  8  9  1  1
 23  8  1  0
  9 24  2  0
  9 25  1  0
 10 11  2  0
 10 15  1  0
 11 12  1  0
 12 13  2  0
 16 12  1  1
 14 13  1  0
 15 14  2  0
 27 16  1  6
 18 17  1  0
 19 18  2  0
 21 20  1  0
 20 26  2  0
 21 22  1  0
 22 23  2  0
M  CHG  1  27   1
M  END
$$$$
