
     RDKit          3D

 27 29  0  0  0  0  0  0  0  0999 V2000
   -8.2654    5.2889    2.0158 C   0  0  0  0  0  0  0  0  0  0  0  0
   -8.2005    4.7698    3.3105 C   0  0  0  0  0  0  0  0  0  0  0  0
   -8.1620    3.4211    3.5760 C   0  0  0  0  0  0  0  0  0  0  0  0
   -6.1388   10.9946    1.9190 C   0  0  0  0  0  0  0  0  0  0  0  0
   -6.9025   11.7429    1.0481 C   0  0  0  0  0  0  0  0  0  0  0  0
   -7.7897   11.0533    0.2664 C   0  0  0  0  0  0  0  0  0  0  0  0
   -7.8961    9.6682    0.3646 C   0  0  0  0  0  0  0  0  0  0  0  0
   -5.3918    8.9125    2.9811 C   0  0  0  0  0  0  0  0  0  0  0  0
   -6.1403    8.4211    4.1500 C   0  0  0  0  0  0  0  0  0  0  0  0
   -8.0953    2.8537    4.9127 C   0  0  0  0  0  0  0  0  0  0  0  0
   -8.3758    1.5333    5.1631 C   0  0  0  0  0  0  0  0  0  0  0  0
   -8.3134    0.9807    6.4475 C   0  0  0  0  0  0  0  0  0  0  0  0
   -7.9602    1.7911    7.4814 C   0  0  0  0  0  0  0  0  0  0  0  0
   -7.6691    3.1179    7.2907 C   0  0  0  0  0  0  0  0  0  0  0  0
   -7.7384    3.6355    6.0161 C   0  0  0  0  0  0  0  0  0  0  0  0
   -8.6241   -0.4513    6.6815 C   0  0  0  0  0  0  0  0  0  0  0  0
   -8.1900    2.5638    2.4978 C   0  0  0  0  0  0  0  0  0  0  0  0
   -8.2534    3.0089    1.2049 C   0  0  0  0  0  0  0  0  0  0  0  0
   -8.2903    4.3815    0.9872 C   0  0  0  0  0  0  0  0  0  0  0  0
   -8.3015    6.7454    1.8435 C   0  0  0  0  0  0  0  0  0  0  0  0
   -7.2267    7.5022    1.3477 N   0  0  0  0  0  0  0  0  0  0  0  0
   -7.1482    8.9119    1.2208 C   0  0  0  0  0  0  0  0  0  0  0  0
   -6.2458    9.6308    2.0138 C   0  0  0  0  0  0  0  0  0  0  0  0
   -6.9011    9.1779    4.7725 O   0  0  0  0  0  0  0  0  0  0  0  0
   -5.9731    7.1003    4.5336 O   0  0  0  0  0  0  0  0  0  0  0  0
   -9.3579    7.3231    2.1625 O   0  0  0  0  0  0  0  0  0  0  0  0
   -9.7853   -0.7930    5.8917 N   0  0  0  0  0  4  0  0  0  0  0  0
  1  2  2  0
  1 19  1  0
 20  1  1  0
  2  3  1  0
  3 10  1  0
  3 17  2  0
  5  4  2  0
  4 23  1  0
  6  5  1  0
  7  6  2  0
 22  7  1  0
  8  9  1  0
 23  8  1  0
  9 24  2  0
  9 25  1  0
 10 11  2  0
 10 15  1  0
 11 12  1  0
 12 13  2  0
 12 16  1  0
 14 13  1  0
 15 14  2  0
 16 27  1  0
 18 17  1  0
 19 18  2  0
 21 20  1  0
 20 26  2  0
 21 22  1  0
 22 23  2  0
M  CHG  1  27   1
M  END
$$$$
