
     RDKit          3D

 27 29  0  0  0  0  0  0  0  0999 V2000
   -7.0367    6.0776    2.9031 C   0  0  0  0  0  0  0  0  0  0  0  0
   -7.2993    4.8772    3.5665 C   0  0  0  0  0  0  0  0  0  0  0  0
   -7.6659    4.8175    4.8905 C   0  0  0  0  0  0  0  0  0  0  0  0
   -6.1960   10.6482    0.8772 C   0  0  0  0  0  0  0  0  0  0  0  0
   -5.3328   11.0877    1.8587 C   0  0  0  0  0  0  0  0  0  0  0  0
   -4.6170   10.1253    2.5182 C   0  0  0  0  0  0  0  0  0  0  0  0
   -4.7710    8.7791    2.1961 C   0  0  0  0  0  0  0  0  0  0  0  0
   -7.2888    8.9443   -0.5097 C   0  0  0  0  0  0  0  0  0  0  0  0
   -8.6976    9.0436   -0.0929 C   0  0  0  0  0  0  0  0  0  0  0  0
   -7.9441    3.5828    5.6057 C   0  0  0  0  0  0  0  0  0  0  0  0
   -8.3182    2.4304    4.9600 C   0  0  0  0  0  0  0  0  0  0  0  0
   -8.5874    1.2385    5.6424 C   0  0  0  0  0  0  0  0  0  0  0  0
   -8.4711    1.2312    6.9977 C   0  0  0  0  0  0  0  0  0  0  0  0
   -8.1010    2.3526    7.6957 C   0  0  0  0  0  0  0  0  0  0  0  0
   -7.8420    3.5121    6.9987 C   0  0  0  0  0  0  0  0  0  0  0  0
   -8.9903    0.0113    4.9117 C   0  0  0  0  0  0  0  0  0  0  0  0
   -7.7720    6.0106    5.5713 C   0  0  0  0  0  0  0  0  0  0  0  0
   -7.5281    7.2203    4.9789 C   0  0  0  0  0  0  0  0  0  0  0  0
   -7.1604    7.2293    3.6382 C   0  0  0  0  0  0  0  0  0  0  0  0
   -6.6531    6.0291    1.4878 C   0  0  0  0  0  0  0  0  0  0  0  0
   -5.8060    6.9666    0.8735 N   0  0  0  0  0  0  0  0  0  0  0  0
   -5.6208    8.3265    1.2279 C   0  0  0  0  0  0  0  0  0  0  0  0
   -6.3456    9.3221    0.5620 C   0  0  0  0  0  0  0  0  0  0  0  0
   -9.5879    8.4810   -0.7485 O   0  0  0  0  0  0  0  0  0  0  0  0
   -9.0001    9.7773    1.0427 O   0  0  0  0  0  0  0  0  0  0  0  0
   -7.1183    5.0926    0.8112 O   0  0  0  0  0  0  0  0  0  0  0  0
   -7.8116   -0.5465    4.2883 N   0  0  0  0  0  4  0  0  0  0  0  0
  1  2  2  0
  1 19  1  0
 20  1  1  0
  2  3  1  0
  3 10  1  0
  3 17  2  0
  5  4  2  0
  4 23  1  0
  6  5  1  0
  7  6  2  0
 22  7  1  0
  8  9  1  0
 23  8  1  0
  9 24  2  0
  9 25  1  0
 10 11  2  0
 10 15  1  0
 11 12  1  0
 12 13  2  0
 12 16  1  0
 14 13  1  0
 15 14  2  0
 16 27  1  0
 18 17  1  0
 19 18  2  0
 21 20  1  0
 20 26  2  0
 21 22  1  0
 22 23  2  0
M  CHG  1  27   1
M  END
$$$$
