
     RDKit          3D

 27 29  0  0  0  0  0  0  0  0999 V2000
   -7.4698    5.9221    2.4117 C   0  0  0  0  0  0  0  0  0  0  0  0
   -7.9081    4.6145    2.6553 C   0  0  0  0  0  0  0  0  0  0  0  0
   -8.9187    4.0268    1.9303 C   0  0  0  0  0  0  0  0  0  0  0  0
   -3.7852    9.7322    5.2852 C   0  0  0  0  0  0  0  0  0  0  0  0
   -2.5269    9.3344    4.8966 C   0  0  0  0  0  0  0  0  0  0  0  0
   -2.3987    8.4268    3.8674 C   0  0  0  0  0  0  0  0  0  0  0  0
   -3.5111    7.9138    3.2240 C   0  0  0  0  0  0  0  0  0  0  0  0
   -6.2762    9.6825    5.0999 C   0  0  0  0  0  0  0  0  0  0  0  0
   -6.9352    8.5240    5.7583 C   0  0  0  0  0  0  0  0  0  0  0  0
   -9.3519    2.6667    2.2071 C   0  0  0  0  0  0  0  0  0  0  0  0
   -9.0335    2.0411    3.3989 C   0  0  0  0  0  0  0  0  0  0  0  0
   -9.4401    0.7473    3.6725 C   0  0  0  0  0  0  0  0  0  0  0  0
  -10.1839    0.0202    2.7667 C   0  0  0  0  0  0  0  0  0  0  0  0
  -10.5041    0.6398    1.5763 C   0  0  0  0  0  0  0  0  0  0  0  0
  -10.0999    1.9293    1.3013 C   0  0  0  0  0  0  0  0  0  0  0  0
   -9.0857    0.0846    4.9693 C   0  0  0  0  0  0  0  0  0  0  0  0
   -9.5280    4.7444    0.9249 C   0  0  0  0  0  0  0  0  0  0  0  0
   -9.1344    6.0486    0.6372 C   0  0  0  0  0  0  0  0  0  0  0  0
   -8.1001    6.6079    1.4018 C   0  0  0  0  0  0  0  0  0  0  0  0
   -6.3971    6.4948    3.2083 C   0  0  0  0  0  0  0  0  0  0  0  0
   -5.9033    7.7911    2.9601 N   0  0  0  0  0  0  0  0  0  0  0  0
   -4.7558    8.3250    3.6287 C   0  0  0  0  0  0  0  0  0  0  0  0
   -4.9109    9.2296    4.6531 C   0  0  0  0  0  0  0  0  0  0  0  0
   -6.3365    7.8062    6.6062 O   0  0  0  0  0  0  0  0  0  0  0  0
   -8.2537    8.1747    5.4674 O   0  0  0  0  0  0  0  0  0  0  0  0
   -5.8644    5.8522    4.1559 O   0  0  0  0  0  0  0  0  0  0  0  0
   -8.0416    0.8788    5.6404 N   0  0  0  0  0  4  0  0  0  0  0  0
  1  2  2  0
  1 19  1  0
 20  1  1  0
  2  3  1  0
  3 10  1  0
  3 17  2  0
  5  4  2  0
  4 23  1  0
  6  5  1  0
  7  6  2  0
 22  7  1  0
  8  9  1  1
 23  8  1  0
  9 24  2  0
  9 25  1  0
 10 11  2  0
 10 15  1  0
 11 12  1  0
 12 13  2  0
 16 12  1  1
 14 13  1  0
 15 14  2  0
 27 16  1  6
 18 17  1  0
 19 18  2  0
 21 20  1  0
 20 26  2  0
 21 22  1  0
 22 23  2  0
M  CHG  1  27   1
M  END
$$$$
