
     RDKit          3D

 27 29  0  0  0  0  0  0  0  0999 V2000
   -7.8740    5.6455    2.2872 C   0  0  0  0  0  0  0  0  0  0  0  0
   -7.8195    4.9959    3.5221 C   0  0  0  0  0  0  0  0  0  0  0  0
   -8.1718    3.6775    3.6914 C   0  0  0  0  0  0  0  0  0  0  0  0
   -5.5366   10.8962    4.5077 C   0  0  0  0  0  0  0  0  0  0  0  0
   -5.8055   11.8582    3.5569 C   0  0  0  0  0  0  0  0  0  0  0  0
   -6.6109   11.4804    2.5166 C   0  0  0  0  0  0  0  0  0  0  0  0
   -7.1194   10.1858    2.4453 C   0  0  0  0  0  0  0  0  0  0  0  0
   -5.7034    8.6599    5.5038 C   0  0  0  0  0  0  0  0  0  0  0  0
   -4.7796    7.6050    5.0543 C   0  0  0  0  0  0  0  0  0  0  0  0
   -8.1257    2.9771    4.9645 C   0  0  0  0  0  0  0  0  0  0  0  0
   -8.0759    1.6076    5.0458 C   0  0  0  0  0  0  0  0  0  0  0  0
   -8.0313    0.9270    6.2680 C   0  0  0  0  0  0  0  0  0  0  0  0
   -8.0379    1.6595    7.4142 C   0  0  0  0  0  0  0  0  0  0  0  0
   -8.0867    3.0302    7.3938 C   0  0  0  0  0  0  0  0  0  0  0  0
   -8.1299    3.6741    6.1769 C   0  0  0  0  0  0  0  0  0  0  0  0
   -7.9788   -0.5551    6.3184 C   0  0  0  0  0  0  0  0  0  0  0  0
   -8.5944    2.9881    2.5759 C   0  0  0  0  0  0  0  0  0  0  0  0
   -8.6703    3.5669    1.3377 C   0  0  0  0  0  0  0  0  0  0  0  0
   -8.3033    4.9024    1.2169 C   0  0  0  0  0  0  0  0  0  0  0  0
   -7.4746    7.0555    2.2165 C   0  0  0  0  0  0  0  0  0  0  0  0
   -7.3604    7.8943    3.3377 N   0  0  0  0  0  0  0  0  0  0  0  0
   -6.8634    9.2212    3.3772 C   0  0  0  0  0  0  0  0  0  0  0  0
   -6.0387    9.6222    4.4350 C   0  0  0  0  0  0  0  0  0  0  0  0
   -3.7383    7.8985    4.4471 O   0  0  0  0  0  0  0  0  0  0  0  0
   -5.1022    6.2852    5.3255 O   0  0  0  0  0  0  0  0  0  0  0  0
   -7.2274    7.5135    1.0849 O   0  0  0  0  0  0  0  0  0  0  0  0
   -8.2132   -0.9658    7.6842 N   0  0  0  0  0  4  0  0  0  0  0  0
  1  2  2  0
  1 19  1  0
 20  1  1  0
  2  3  1  0
  3 10  1  0
  3 17  2  0
  5  4  2  0
  4 23  1  0
  6  5  1  0
  7  6  2  0
 22  7  1  0
  8  9  1  0
 23  8  1  0
  9 24  2  0
  9 25  1  0
 10 11  2  0
 10 15  1  0
 11 12  1  0
 12 13  2  0
 12 16  1  0
 14 13  1  0
 15 14  2  0
 16 27  1  0
 18 17  1  0
 19 18  2  0
 21 20  1  0
 20 26  2  0
 21 22  1  0
 22 23  2  0
M  CHG  1  27   1
M  END
$$$$
