
     RDKit          3D

 27 29  0  0  0  0  0  0  0  0999 V2000
   -7.5617    7.0441    2.6813 C   0  0  0  0  0  0  0  0  0  0  0  0
   -7.7688    5.7346    3.1322 C   0  0  0  0  0  0  0  0  0  0  0  0
   -8.5036    4.8154    2.4199 C   0  0  0  0  0  0  0  0  0  0  0  0
   -4.7516   12.2380    3.9432 C   0  0  0  0  0  0  0  0  0  0  0  0
   -4.4910   12.1408    5.2904 C   0  0  0  0  0  0  0  0  0  0  0  0
   -5.0718   11.1215    6.0138 C   0  0  0  0  0  0  0  0  0  0  0  0
   -5.9080   10.2009    5.4072 C   0  0  0  0  0  0  0  0  0  0  0  0
   -5.8541   11.4570    1.8417 C   0  0  0  0  0  0  0  0  0  0  0  0
   -5.0610   10.4062    1.1512 C   0  0  0  0  0  0  0  0  0  0  0  0
   -8.7012    3.4625    2.9145 C   0  0  0  0  0  0  0  0  0  0  0  0
   -8.5232    3.1543    4.2512 C   0  0  0  0  0  0  0  0  0  0  0  0
   -8.7082    1.8705    4.7325 C   0  0  0  0  0  0  0  0  0  0  0  0
   -9.0798    0.8363    3.8991 C   0  0  0  0  0  0  0  0  0  0  0  0
   -9.2586    1.1384    2.5649 C   0  0  0  0  0  0  0  0  0  0  0  0
   -9.0748    2.4173    2.0827 C   0  0  0  0  0  0  0  0  0  0  0  0
   -8.5105    1.5545    6.1843 C   0  0  0  0  0  0  0  0  0  0  0  0
   -9.0602    5.1887    1.2165 C   0  0  0  0  0  0  0  0  0  0  0  0
   -8.8879    6.4771    0.7178 C   0  0  0  0  0  0  0  0  0  0  0  0
   -8.1314    7.3814    1.4774 C   0  0  0  0  0  0  0  0  0  0  0  0
   -6.7763    7.9756    3.4742 C   0  0  0  0  0  0  0  0  0  0  0  0
   -7.0193    9.3632    3.4399 N   0  0  0  0  0  0  0  0  0  0  0  0
   -6.1534   10.3179    4.0625 C   0  0  0  0  0  0  0  0  0  0  0  0
   -5.5862   11.3258    3.3181 C   0  0  0  0  0  0  0  0  0  0  0  0
   -5.5583    9.6756    0.2504 O   0  0  0  0  0  0  0  0  0  0  0  0
   -3.7224   10.1779    1.4691 O   0  0  0  0  0  0  0  0  0  0  0  0
   -5.8436    7.5774    4.2267 O   0  0  0  0  0  0  0  0  0  0  0  0
   -7.5717    2.5327    6.7613 N   0  0  0  0  0  4  0  0  0  0  0  0
  1  2  2  0
  1 19  1  0
 20  1  1  0
  2  3  1  0
  3 10  1  0
  3 17  2  0
  5  4  2  0
  4 23  1  0
  6  5  1  0
  7  6  2  0
 22  7  1  0
  8  9  1  1
 23  8  1  0
  9 24  2  0
  9 25  1  0
 10 11  2  0
 10 15  1  0
 11 12  1  0
 12 13  2  0
 16 12  1  1
 14 13  1  0
 15 14  2  0
 27 16  1  6
 18 17  1  0
 19 18  2  0
 21 20  1  0
 20 26  2  0
 21 22  1  0
 22 23  2  0
M  CHG  1  27   1
M  END
$$$$
