
     RDKit          3D

 27 29  0  0  0  0  0  0  0  0999 V2000
   -7.3698    5.3156    2.1921 C   0  0  0  0  0  0  0  0  0  0  0  0
   -7.3225    4.6120    3.3973 C   0  0  0  0  0  0  0  0  0  0  0  0
   -8.0411    3.4612    3.6219 C   0  0  0  0  0  0  0  0  0  0  0  0
   -5.0309   10.7846    3.6662 C   0  0  0  0  0  0  0  0  0  0  0  0
   -3.7818   10.8683    3.0879 C   0  0  0  0  0  0  0  0  0  0  0  0
   -3.2939    9.7227    2.5195 C   0  0  0  0  0  0  0  0  0  0  0  0
   -4.0398    8.5468    2.5377 C   0  0  0  0  0  0  0  0  0  0  0  0
   -7.0961    9.6312    4.3184 C   0  0  0  0  0  0  0  0  0  0  0  0
   -7.1845    8.7173    5.4696 C   0  0  0  0  0  0  0  0  0  0  0  0
   -8.0113    2.7099    4.8661 C   0  0  0  0  0  0  0  0  0  0  0  0
   -8.0538    1.3380    4.8948 C   0  0  0  0  0  0  0  0  0  0  0  0
   -8.0255    0.6086    6.0889 C   0  0  0  0  0  0  0  0  0  0  0  0
   -7.9529    1.2942    7.2615 C   0  0  0  0  0  0  0  0  0  0  0  0
   -7.9078    2.6648    7.2937 C   0  0  0  0  0  0  0  0  0  0  0  0
   -7.9371    3.3575    6.1034 C   0  0  0  0  0  0  0  0  0  0  0  0
   -8.0738   -0.8746    6.0823 C   0  0  0  0  0  0  0  0  0  0  0  0
   -8.8364    3.0023    2.5948 C   0  0  0  0  0  0  0  0  0  0  0  0
   -8.9267    3.6456    1.3899 C   0  0  0  0  0  0  0  0  0  0  0  0
   -8.1811    4.8052    1.2105 C   0  0  0  0  0  0  0  0  0  0  0  0
   -6.5622    6.5329    2.0566 C   0  0  0  0  0  0  0  0  0  0  0  0
   -6.0649    7.2680    3.1456 N   0  0  0  0  0  0  0  0  0  0  0  0
   -5.2774    8.4460    3.1056 C   0  0  0  0  0  0  0  0  0  0  0  0
   -5.7633    9.6254    3.6825 C   0  0  0  0  0  0  0  0  0  0  0  0
   -8.2259    8.0789    5.6866 O   0  0  0  0  0  0  0  0  0  0  0  0
   -6.0815    8.5907    6.2984 O   0  0  0  0  0  0  0  0  0  0  0  0
   -6.3160    6.9179    0.8979 O   0  0  0  0  0  0  0  0  0  0  0  0
   -7.9270   -1.3339    7.4448 N   0  0  0  0  0  4  0  0  0  0  0  0
  1  2  2  0
  1 19  1  0
 20  1  1  0
  2  3  1  0
  3 10  1  0
  3 17  2  0
  5  4  2  0
  4 23  1  0
  6  5  1  0
  7  6  2  0
 22  7  1  0
  8  9  1  0
 23  8  1  0
  9 24  2  0
  9 25  1  0
 10 11  2  0
 10 15  1  0
 11 12  1  0
 12 13  2  0
 12 16  1  0
 14 13  1  0
 15 14  2  0
 16 27  1  0
 18 17  1  0
 19 18  2  0
 21 20  1  0
 20 26  2  0
 21 22  1  0
 22 23  2  0
M  CHG  1  27   1
M  END
$$$$
