
     RDKit          3D

 27 29  0  0  0  0  0  0  0  0999 V2000
   -7.6807    6.2293    1.3068 C   0  0  0  0  0  0  0  0  0  0  0  0
   -8.0533    5.1980    2.1779 C   0  0  0  0  0  0  0  0  0  0  0  0
   -8.5511    3.9963    1.7301 C   0  0  0  0  0  0  0  0  0  0  0  0
   -5.2649    9.9887    5.3905 C   0  0  0  0  0  0  0  0  0  0  0  0
   -5.5125   11.2291    4.8498 C   0  0  0  0  0  0  0  0  0  0  0  0
   -6.3531   11.3308    3.7623 C   0  0  0  0  0  0  0  0  0  0  0  0
   -6.9473   10.2095    3.2108 C   0  0  0  0  0  0  0  0  0  0  0  0
   -5.5608    7.5090    5.4643 C   0  0  0  0  0  0  0  0  0  0  0  0
   -6.8081    7.0445    6.1264 C   0  0  0  0  0  0  0  0  0  0  0  0
   -8.9295    2.9443    2.6597 C   0  0  0  0  0  0  0  0  0  0  0  0
   -9.7289    1.8882    2.2610 C   0  0  0  0  0  0  0  0  0  0  0  0
  -10.0952    0.8820    3.1371 C   0  0  0  0  0  0  0  0  0  0  0  0
   -9.6787    0.8861    4.4519 C   0  0  0  0  0  0  0  0  0  0  0  0
   -8.8812    1.9374    4.8546 C   0  0  0  0  0  0  0  0  0  0  0  0
   -8.5147    2.9414    3.9832 C   0  0  0  0  0  0  0  0  0  0  0  0
  -10.9625   -0.2548    2.6878 C   0  0  0  0  0  0  0  0  0  0  0  0
   -8.6917    3.7913    0.3754 C   0  0  0  0  0  0  0  0  0  0  0  0
   -8.3378    4.7803   -0.5383 C   0  0  0  0  0  0  0  0  0  0  0  0
   -7.8346    5.9898   -0.0373 C   0  0  0  0  0  0  0  0  0  0  0  0
   -7.1598    7.4800    1.8337 C   0  0  0  0  0  0  0  0  0  0  0  0
   -7.3023    7.8260    3.1923 N   0  0  0  0  0  0  0  0  0  0  0  0
   -6.6855    8.9829    3.7667 C   0  0  0  0  0  0  0  0  0  0  0  0
   -5.8504    8.8544    4.8521 C   0  0  0  0  0  0  0  0  0  0  0  0
   -7.0000    5.8315    6.4171 O   0  0  0  0  0  0  0  0  0  0  0  0
   -7.8302    7.9332    6.4588 O   0  0  0  0  0  0  0  0  0  0  0  0
   -6.5578    8.3074    1.0936 O   0  0  0  0  0  0  0  0  0  0  0  0
  -11.1373   -0.1723    1.2271 N   0  0  0  0  0  4  0  0  0  0  0  0
  1  2  2  0
  1 19  1  0
 20  1  1  0
  2  3  1  0
  3 10  1  0
  3 17  2  0
  5  4  2  0
  4 23  1  0
  6  5  1  0
  7  6  2  0
 22  7  1  0
  8  9  1  1
 23  8  1  0
  9 24  2  0
  9 25  1  0
 10 11  2  0
 10 15  1  0
 11 12  1  0
 12 13  2  0
 16 12  1  1
 14 13  1  0
 15 14  2  0
 27 16  1  6
 18 17  1  0
 19 18  2  0
 21 20  1  0
 20 26  2  0
 21 22  1  0
 22 23  2  0
M  CHG  1  27   1
M  END
$$$$
