
     RDKit          3D

 27 29  0  0  0  0  0  0  0  0999 V2000
   -7.6158    4.8595    2.1966 C   0  0  0  0  0  0  0  0  0  0  0  0
   -7.4821    4.3352    3.4838 C   0  0  0  0  0  0  0  0  0  0  0  0
   -8.1313    3.1968    3.9004 C   0  0  0  0  0  0  0  0  0  0  0  0
   -5.3221   10.4577    2.8545 C   0  0  0  0  0  0  0  0  0  0  0  0
   -4.1417   10.5501    2.1476 C   0  0  0  0  0  0  0  0  0  0  0  0
   -3.6359    9.3805    1.6477 C   0  0  0  0  0  0  0  0  0  0  0  0
   -4.2981    8.1732    1.8565 C   0  0  0  0  0  0  0  0  0  0  0  0
   -7.2360    9.2654    3.8221 C   0  0  0  0  0  0  0  0  0  0  0  0
   -7.1279    8.5505    5.1049 C   0  0  0  0  0  0  0  0  0  0  0  0
   -8.0110    2.6299    5.2336 C   0  0  0  0  0  0  0  0  0  0  0  0
   -8.0772    1.2780    5.4637 C   0  0  0  0  0  0  0  0  0  0  0  0
   -7.9622    0.7257    6.7445 C   0  0  0  0  0  0  0  0  0  0  0  0
   -7.7776    1.5689    7.7959 C   0  0  0  0  0  0  0  0  0  0  0  0
   -7.7037    2.9280    7.6259 C   0  0  0  0  0  0  0  0  0  0  0  0
   -7.8201    3.4445    6.3542 C   0  0  0  0  0  0  0  0  0  0  0  0
   -8.0393   -0.7410    6.9564 C   0  0  0  0  0  0  0  0  0  0  0  0
   -8.9450    2.5632    2.9868 C   0  0  0  0  0  0  0  0  0  0  0  0
   -9.1186    3.0261    1.7103 C   0  0  0  0  0  0  0  0  0  0  0  0
   -8.4410    4.1808    1.3359 C   0  0  0  0  0  0  0  0  0  0  0  0
   -6.8774    6.0803    1.8546 C   0  0  0  0  0  0  0  0  0  0  0  0
   -6.1681    6.8540    2.7883 N   0  0  0  0  0  0  0  0  0  0  0  0
   -5.4669    8.0634    2.5537 C   0  0  0  0  0  0  0  0  0  0  0  0
   -5.9721    9.2676    3.0584 C   0  0  0  0  0  0  0  0  0  0  0  0
   -7.7381    7.4853    5.2840 O   0  0  0  0  0  0  0  0  0  0  0  0
   -6.3323    9.0957    6.0996 O   0  0  0  0  0  0  0  0  0  0  0  0
   -6.8949    6.4315    0.6597 O   0  0  0  0  0  0  0  0  0  0  0  0
   -8.5109   -1.3467    5.7317 N   0  0  0  0  0  4  0  0  0  0  0  0
  1  2  2  0
  1 19  1  0
 20  1  1  0
  2  3  1  0
  3 10  1  0
  3 17  2  0
  5  4  2  0
  4 23  1  0
  6  5  1  0
  7  6  2  0
 22  7  1  0
  8  9  1  0
 23  8  1  0
  9 24  2  0
  9 25  1  0
 10 11  2  0
 10 15  1  0
 11 12  1  0
 12 13  2  0
 12 16  1  0
 14 13  1  0
 15 14  2  0
 16 27  1  0
 18 17  1  0
 19 18  2  0
 21 20  1  0
 20 26  2  0
 21 22  1  0
 22 23  2  0
M  CHG  1  27   1
M  END
$$$$
