
     RDKit          3D

 27 29  0  0  0  0  0  0  0  0999 V2000
   -8.4843    5.9475    1.1570 C   0  0  0  0  0  0  0  0  0  0  0  0
   -8.7117    4.6257    0.7537 C   0  0  0  0  0  0  0  0  0  0  0  0
   -9.8950    4.2214    0.1804 C   0  0  0  0  0  0  0  0  0  0  0  0
   -4.2146    8.0073    4.7686 C   0  0  0  0  0  0  0  0  0  0  0  0
   -3.3768    8.7925    4.0110 C   0  0  0  0  0  0  0  0  0  0  0  0
   -3.7660    9.1560    2.7398 C   0  0  0  0  0  0  0  0  0  0  0  0
   -4.9801    8.7445    2.2189 C   0  0  0  0  0  0  0  0  0  0  0  0
   -6.3309    6.7258    5.1161 C   0  0  0  0  0  0  0  0  0  0  0  0
   -7.5025    7.5544    5.5042 C   0  0  0  0  0  0  0  0  0  0  0  0
  -10.1013    2.8413   -0.2281 C   0  0  0  0  0  0  0  0  0  0  0  0
   -9.0697    2.0889   -0.7601 C   0  0  0  0  0  0  0  0  0  0  0  0
   -9.2549    0.7751   -1.1523 C   0  0  0  0  0  0  0  0  0  0  0  0
  -10.4802    0.1539   -1.0304 C   0  0  0  0  0  0  0  0  0  0  0  0
  -11.5125    0.9001   -0.5004 C   0  0  0  0  0  0  0  0  0  0  0  0
  -11.3304    2.2098   -0.1087 C   0  0  0  0  0  0  0  0  0  0  0  0
   -8.1256   -0.0254   -1.7272 C   0  0  0  0  0  0  0  0  0  0  0  0
  -10.8994    5.1449   -0.0078 C   0  0  0  0  0  0  0  0  0  0  0  0
  -10.7305    6.4732    0.3735 C   0  0  0  0  0  0  0  0  0  0  0  0
   -9.5080    6.8411    0.9541 C   0  0  0  0  0  0  0  0  0  0  0  0
   -7.2145    6.3211    1.7579 C   0  0  0  0  0  0  0  0  0  0  0  0
   -7.0537    7.5385    2.4491 N   0  0  0  0  0  0  0  0  0  0  0  0
   -5.7991    7.9619    2.9928 C   0  0  0  0  0  0  0  0  0  0  0  0
   -5.4340    7.5853    4.2643 C   0  0  0  0  0  0  0  0  0  0  0  0
   -7.4621    8.8158    5.4974 O   0  0  0  0  0  0  0  0  0  0  0  0
   -8.7078    6.9726    5.8962 O   0  0  0  0  0  0  0  0  0  0  0  0
   -6.2034    5.5681    1.6843 O   0  0  0  0  0  0  0  0  0  0  0  0
   -8.6620   -0.9382   -2.7519 N   0  0  0  0  0  4  0  0  0  0  0  0
  1  2  2  0
  1 19  1  0
 20  1  1  0
  2  3  1  0
  3 10  1  0
  3 17  2  0
  5  4  2  0
  4 23  1  0
  6  5  1  0
  7  6  2  0
 22  7  1  0
  8  9  1  1
 23  8  1  0
  9 24  2  0
  9 25  1  0
 10 11  2  0
 10 15  1  0
 11 12  1  0
 12 13  2  0
 16 12  1  1
 14 13  1  0
 15 14  2  0
 27 16  1  6
 18 17  1  0
 19 18  2  0
 21 20  1  0
 20 26  2  0
 21 22  1  0
 22 23  2  0
M  CHG  1  27   1
M  END
$$$$
