
     RDKit          3D

 27 29  0  0  0  0  0  0  0  0999 V2000
   -7.4636    5.4525    1.8188 C   0  0  0  0  0  0  0  0  0  0  0  0
   -7.5615    4.6642    2.9722 C   0  0  0  0  0  0  0  0  0  0  0  0
   -8.0136    3.3653    2.9431 C   0  0  0  0  0  0  0  0  0  0  0  0
   -4.6531   10.0838    4.3924 C   0  0  0  0  0  0  0  0  0  0  0  0
   -5.0028   11.1772    3.6344 C   0  0  0  0  0  0  0  0  0  0  0  0
   -6.0176   11.0551    2.7098 C   0  0  0  0  0  0  0  0  0  0  0  0
   -6.6848    9.8555    2.5350 C   0  0  0  0  0  0  0  0  0  0  0  0
   -4.9049    7.6937    5.0751 C   0  0  0  0  0  0  0  0  0  0  0  0
   -5.9942    7.4562    6.0583 C   0  0  0  0  0  0  0  0  0  0  0  0
   -8.1041    2.5717    4.1580 C   0  0  0  0  0  0  0  0  0  0  0  0
   -8.2896    1.2019    4.1079 C   0  0  0  0  0  0  0  0  0  0  0  0
   -8.3774    0.4372    5.2576 C   0  0  0  0  0  0  0  0  0  0  0  0
   -8.2835    1.0076    6.5098 C   0  0  0  0  0  0  0  0  0  0  0  0
   -8.0985    2.3736    6.5653 C   0  0  0  0  0  0  0  0  0  0  0  0
   -8.0107    3.1380    5.4208 C   0  0  0  0  0  0  0  0  0  0  0  0
   -8.5789   -1.0462    5.1845 C   0  0  0  0  0  0  0  0  0  0  0  0
   -8.3861    2.8113    1.7383 C   0  0  0  0  0  0  0  0  0  0  0  0
   -8.3103    3.5470    0.5588 C   0  0  0  0  0  0  0  0  0  0  0  0
   -7.8437    4.8674    0.6353 C   0  0  0  0  0  0  0  0  0  0  0  0
   -6.9789    6.8203    1.9062 C   0  0  0  0  0  0  0  0  0  0  0  0
   -7.0117    7.5401    3.1172 N   0  0  0  0  0  0  0  0  0  0  0  0
   -6.3187    8.7787    3.3021 C   0  0  0  0  0  0  0  0  0  0  0  0
   -5.3094    8.8743    4.2317 C   0  0  0  0  0  0  0  0  0  0  0  0
   -6.8626    8.3335    6.3204 O   0  0  0  0  0  0  0  0  0  0  0  0
   -6.1074    6.2453    6.7409 O   0  0  0  0  0  0  0  0  0  0  0  0
   -6.5084    7.4186    0.8985 O   0  0  0  0  0  0  0  0  0  0  0  0
   -8.8428   -1.4227    3.7846 N   0  0  0  0  0  4  0  0  0  0  0  0
  1  2  2  0
  1 19  1  0
 20  1  1  0
  2  3  1  0
  3 10  1  0
  3 17  2  0
  5  4  2  0
  4 23  1  0
  6  5  1  0
  7  6  2  0
 22  7  1  0
  8  9  1  1
 23  8  1  0
  9 24  2  0
  9 25  1  0
 10 11  2  0
 10 15  1  0
 11 12  1  0
 12 13  2  0
 16 12  1  1
 14 13  1  0
 15 14  2  0
 27 16  1  6
 18 17  1  0
 19 18  2  0
 21 20  1  0
 20 26  2  0
 21 22  1  0
 22 23  2  0
M  CHG  1  27   1
M  END
$$$$
