
     RDKit          3D

 27 29  0  0  0  0  0  0  0  0999 V2000
   -9.0407    4.1207    1.3854 C   0  0  0  0  0  0  0  0  0  0  0  0
   -8.8828    3.4753    2.6136 C   0  0  0  0  0  0  0  0  0  0  0  0
   -8.0792    3.9617    3.6178 C   0  0  0  0  0  0  0  0  0  0  0  0
  -11.2004   -0.1800   -2.2971 C   0  0  0  0  0  0  0  0  0  0  0  0
  -12.5419    0.0292   -2.5382 C   0  0  0  0  0  0  0  0  0  0  0  0
  -13.1598    0.9785   -1.7697 C   0  0  0  0  0  0  0  0  0  0  0  0
  -12.4483    1.6824   -0.8012 C   0  0  0  0  0  0  0  0  0  0  0  0
   -9.0649    0.2288   -1.1596 C   0  0  0  0  0  0  0  0  0  0  0  0
   -8.2155    0.9082   -2.1521 C   0  0  0  0  0  0  0  0  0  0  0  0
   -7.8959    3.3104    4.9045 C   0  0  0  0  0  0  0  0  0  0  0  0
   -7.7866    1.9474    5.0268 C   0  0  0  0  0  0  0  0  0  0  0  0
   -7.6100    1.3140    6.2624 C   0  0  0  0  0  0  0  0  0  0  0  0
   -7.5453    2.0872    7.3797 C   0  0  0  0  0  0  0  0  0  0  0  0
   -7.6484    3.4536    7.3179 C   0  0  0  0  0  0  0  0  0  0  0  0
   -7.8218    4.0507    6.0887 C   0  0  0  0  0  0  0  0  0  0  0  0
   -7.4963   -0.1625    6.3573 C   0  0  0  0  0  0  0  0  0  0  0  0
   -7.4102    5.1416    3.3762 C   0  0  0  0  0  0  0  0  0  0  0  0
   -7.5223    5.8227    2.1941 C   0  0  0  0  0  0  0  0  0  0  0  0
   -8.3469    5.2910    1.2091 C   0  0  0  0  0  0  0  0  0  0  0  0
   -9.9236    3.5158    0.3819 C   0  0  0  0  0  0  0  0  0  0  0  0
  -10.3637    2.1825    0.4279 N   0  0  0  0  0  0  0  0  0  0  0  0
  -11.1204    1.4881   -0.5492 C   0  0  0  0  0  0  0  0  0  0  0  0
  -10.5021    0.5146   -1.3430 C   0  0  0  0  0  0  0  0  0  0  0  0
   -7.6169    1.9538   -1.8562 O   0  0  0  0  0  0  0  0  0  0  0  0
   -8.1037    0.3526   -3.4164 O   0  0  0  0  0  0  0  0  0  0  0  0
  -10.2915    4.2471   -0.5568 O   0  0  0  0  0  0  0  0  0  0  0  0
   -7.3073   -0.5091    7.7477 N   0  0  0  0  0  4  0  0  0  0  0  0
  1  2  2  0
  1 19  1  0
 20  1  1  0
  2  3  1  0
  3 10  1  0
  3 17  2  0
  5  4  2  0
  4 23  1  0
  6  5  1  0
  7  6  2  0
 22  7  1  0
  8  9  1  0
 23  8  1  0
  9 24  2  0
  9 25  1  0
 10 11  2  0
 10 15  1  0
 11 12  1  0
 12 13  2  0
 12 16  1  0
 14 13  1  0
 15 14  2  0
 16 27  1  0
 18 17  1  0
 19 18  2  0
 21 20  1  0
 20 26  2  0
 21 22  1  0
 22 23  2  0
M  CHG  1  27   1
M  END
$$$$
