
     RDKit          3D

 27 29  0  0  0  0  0  0  0  0999 V2000
   -7.2081    6.3010    2.3902 C   0  0  0  0  0  0  0  0  0  0  0  0
   -7.1956    5.2822    3.3451 C   0  0  0  0  0  0  0  0  0  0  0  0
   -8.0389    4.1972    3.2944 C   0  0  0  0  0  0  0  0  0  0  0  0
   -5.6470   11.1865    5.4403 C   0  0  0  0  0  0  0  0  0  0  0  0
   -4.5942   11.8359    4.8306 C   0  0  0  0  0  0  0  0  0  0  0  0
   -3.9353   11.1443    3.8502 C   0  0  0  0  0  0  0  0  0  0  0  0
   -4.3272    9.8532    3.5053 C   0  0  0  0  0  0  0  0  0  0  0  0
   -7.1758    9.3013    5.8008 C   0  0  0  0  0  0  0  0  0  0  0  0
   -8.4385    9.4256    5.0534 C   0  0  0  0  0  0  0  0  0  0  0  0
   -8.0480    3.1237    4.2746 C   0  0  0  0  0  0  0  0  0  0  0  0
   -7.8107    3.3473    5.6082 C   0  0  0  0  0  0  0  0  0  0  0  0
   -7.8180    2.3185    6.5571 C   0  0  0  0  0  0  0  0  0  0  0  0
   -8.0711    1.0514    6.1321 C   0  0  0  0  0  0  0  0  0  0  0  0
   -8.3150    0.7688    4.8122 C   0  0  0  0  0  0  0  0  0  0  0  0
   -8.3017    1.8005    3.8996 C   0  0  0  0  0  0  0  0  0  0  0  0
   -7.5565    2.5967    7.9911 C   0  0  0  0  0  0  0  0  0  0  0  0
   -8.9272    4.1360    2.2431 C   0  0  0  0  0  0  0  0  0  0  0  0
   -8.9897    5.1017    1.2749 C   0  0  0  0  0  0  0  0  0  0  0  0
   -8.1166    6.1794    1.3694 C   0  0  0  0  0  0  0  0  0  0  0  0
   -6.2646    7.4147    2.5382 C   0  0  0  0  0  0  0  0  0  0  0  0
   -5.7932    7.8825    3.7762 N   0  0  0  0  0  0  0  0  0  0  0  0
   -5.3665    9.1954    4.0982 C   0  0  0  0  0  0  0  0  0  0  0  0
   -6.0309    9.9151    5.0985 C   0  0  0  0  0  0  0  0  0  0  0  0
   -9.2407    8.4801    5.0136 O   0  0  0  0  0  0  0  0  0  0  0  0
   -8.7046   10.6182    4.4004 O   0  0  0  0  0  0  0  0  0  0  0  0
   -5.8725    7.9621    1.4903 O   0  0  0  0  0  0  0  0  0  0  0  0
   -6.7023    1.5489    8.5025 N   0  0  0  0  0  4  0  0  0  0  0  0
  1  2  2  0
  1 19  1  0
 20  1  1  0
  2  3  1  0
  3 10  1  0
  3 17  2  0
  5  4  2  0
  4 23  1  0
  6  5  1  0
  7  6  2  0
 22  7  1  0
  8  9  1  0
 23  8  1  0
  9 24  2  0
  9 25  1  0
 10 11  2  0
 10 15  1  0
 11 12  1  0
 12 13  2  0
 12 16  1  0
 14 13  1  0
 15 14  2  0
 16 27  1  0
 18 17  1  0
 19 18  2  0
 21 20  1  0
 20 26  2  0
 21 22  1  0
 22 23  2  0
M  CHG  1  27   1
M  END
$$$$
