
     RDKit          3D

 27 29  0  0  0  0  0  0  0  0999 V2000
   -7.6177    5.5520    1.5647 C   0  0  0  0  0  0  0  0  0  0  0  0
   -7.8068    4.5755    2.5506 C   0  0  0  0  0  0  0  0  0  0  0  0
   -8.5933    3.4650    2.3494 C   0  0  0  0  0  0  0  0  0  0  0  0
   -5.3529   10.0846    4.7896 C   0  0  0  0  0  0  0  0  0  0  0  0
   -4.2194   10.4676    4.1107 C   0  0  0  0  0  0  0  0  0  0  0  0
   -3.7422    9.6656    3.0965 C   0  0  0  0  0  0  0  0  0  0  0  0
   -4.3837    8.4883    2.7542 C   0  0  0  0  0  0  0  0  0  0  0  0
   -7.2475    8.5145    5.2223 C   0  0  0  0  0  0  0  0  0  0  0  0
   -6.9504    7.2376    5.9230 C   0  0  0  0  0  0  0  0  0  0  0  0
   -8.7704    2.4681    3.3929 C   0  0  0  0  0  0  0  0  0  0  0  0
   -9.3316    1.2341    3.1182 C   0  0  0  0  0  0  0  0  0  0  0  0
   -9.5050    0.2783    4.1034 C   0  0  0  0  0  0  0  0  0  0  0  0
   -9.1250    0.5131    5.4083 C   0  0  0  0  0  0  0  0  0  0  0  0
   -8.5647    1.7425    5.6876 C   0  0  0  0  0  0  0  0  0  0  0  0
   -8.3908    2.6968    4.7073 C   0  0  0  0  0  0  0  0  0  0  0  0
  -10.1154   -1.0537    3.7878 C   0  0  0  0  0  0  0  0  0  0  0  0
   -9.2223    3.2993    1.1353 C   0  0  0  0  0  0  0  0  0  0  0  0
   -9.0714    4.2373    0.1176 C   0  0  0  0  0  0  0  0  0  0  0  0
   -8.2603    5.3541    0.3665 C   0  0  0  0  0  0  0  0  0  0  0  0
   -6.7754    6.7066    1.8302 C   0  0  0  0  0  0  0  0  0  0  0  0
   -6.1719    6.9077    3.0877 N   0  0  0  0  0  0  0  0  0  0  0  0
   -5.5123    8.1266    3.4453 C   0  0  0  0  0  0  0  0  0  0  0  0
   -6.0089    8.9092    4.4615 C   0  0  0  0  0  0  0  0  0  0  0  0
   -5.7724    6.8944    6.2185 O   0  0  0  0  0  0  0  0  0  0  0  0
   -7.9660    6.3544    6.2884 O   0  0  0  0  0  0  0  0  0  0  0  0
   -6.5507    7.5768    0.9431 O   0  0  0  0  0  0  0  0  0  0  0  0
  -10.5282   -1.0655    2.3734 N   0  0  0  0  0  4  0  0  0  0  0  0
  1  2  2  0
  1 19  1  0
 20  1  1  0
  2  3  1  0
  3 10  1  0
  3 17  2  0
  5  4  2  0
  4 23  1  0
  6  5  1  0
  7  6  2  0
 22  7  1  0
  8  9  1  1
 23  8  1  0
  9 24  2  0
  9 25  1  0
 10 11  2  0
 10 15  1  0
 11 12  1  0
 12 13  2  0
 16 12  1  1
 14 13  1  0
 15 14  2  0
 27 16  1  6
 18 17  1  0
 19 18  2  0
 21 20  1  0
 20 26  2  0
 21 22  1  0
 22 23  2  0
M  CHG  1  27   1
M  END
$$$$
