
     RDKit          3D

 27 29  0  0  0  0  0  0  0  0999 V2000
   -7.8391    6.0000    1.0069 C   0  0  0  0  0  0  0  0  0  0  0  0
   -8.6804    4.8999    1.2152 C   0  0  0  0  0  0  0  0  0  0  0  0
   -8.7902    3.8715    0.3082 C   0  0  0  0  0  0  0  0  0  0  0  0
   -6.6182    9.4606    5.7148 C   0  0  0  0  0  0  0  0  0  0  0  0
   -6.1240   10.6454    5.2205 C   0  0  0  0  0  0  0  0  0  0  0  0
   -5.7796   10.7244    3.8883 C   0  0  0  0  0  0  0  0  0  0  0  0
   -5.9233    9.6352    3.0471 C   0  0  0  0  0  0  0  0  0  0  0  0
   -7.3121    7.0744    5.4569 C   0  0  0  0  0  0  0  0  0  0  0  0
   -6.1887    6.1023    5.5102 C   0  0  0  0  0  0  0  0  0  0  0  0
   -9.6728    2.7422    0.5529 C   0  0  0  0  0  0  0  0  0  0  0  0
   -9.5370    1.5599   -0.1520 C   0  0  0  0  0  0  0  0  0  0  0  0
  -10.3714    0.4793    0.0725 C   0  0  0  0  0  0  0  0  0  0  0  0
  -11.3795    0.5318    1.0123 C   0  0  0  0  0  0  0  0  0  0  0  0
  -11.5191    1.7090    1.7181 C   0  0  0  0  0  0  0  0  0  0  0  0
  -10.6887    2.7874    1.4961 C   0  0  0  0  0  0  0  0  0  0  0  0
  -10.2101   -0.7943   -0.7011 C   0  0  0  0  0  0  0  0  0  0  0  0
   -8.0483    3.9174   -0.8513 C   0  0  0  0  0  0  0  0  0  0  0  0
   -7.1949    4.9860   -1.1127 C   0  0  0  0  0  0  0  0  0  0  0  0
   -7.1144    6.0124   -0.1603 C   0  0  0  0  0  0  0  0  0  0  0  0
   -7.7610    7.0598    1.9988 C   0  0  0  0  0  0  0  0  0  0  0  0
   -6.5643    7.3401    2.6882 N   0  0  0  0  0  0  0  0  0  0  0  0
   -6.4180    8.4640    3.5624 C   0  0  0  0  0  0  0  0  0  0  0  0
   -6.7691    8.3591    4.8882 C   0  0  0  0  0  0  0  0  0  0  0  0
   -5.0300    6.4379    5.8812 O   0  0  0  0  0  0  0  0  0  0  0  0
   -6.3643    4.7664    5.1504 O   0  0  0  0  0  0  0  0  0  0  0  0
   -8.7641    7.7725    2.2824 O   0  0  0  0  0  0  0  0  0  0  0  0
  -11.0944   -1.8198   -0.1202 N   0  0  0  0  0  4  0  0  0  0  0  0
  1  2  2  0
  1 19  1  0
 20  1  1  0
  2  3  1  0
  3 10  1  0
  3 17  2  0
  5  4  2  0
  4 23  1  0
  6  5  1  0
  7  6  2  0
 22  7  1  0
  8  9  1  1
 23  8  1  0
  9 24  2  0
  9 25  1  0
 10 11  2  0
 10 15  1  0
 11 12  1  0
 12 13  2  0
 16 12  1  1
 14 13  1  0
 15 14  2  0
 27 16  1  6
 18 17  1  0
 19 18  2  0
 21 20  1  0
 20 26  2  0
 21 22  1  0
 22 23  2  0
M  CHG  1  27   1
M  END
$$$$
