
     RDKit          3D

 27 29  0  0  0  0  0  0  0  0999 V2000
   -9.6649    9.2064    2.8615 C   0  0  0  0  0  0  0  0  0  0  0  0
   -9.4604    7.8250    2.7552 C   0  0  0  0  0  0  0  0  0  0  0  0
  -10.4837    6.9448    2.4901 C   0  0  0  0  0  0  0  0  0  0  0  0
   -4.5573   11.2473    5.1872 C   0  0  0  0  0  0  0  0  0  0  0  0
   -3.9824   12.0585    4.2365 C   0  0  0  0  0  0  0  0  0  0  0  0
   -4.4884   12.0517    2.9545 C   0  0  0  0  0  0  0  0  0  0  0  0
   -5.5598   11.2453    2.6132 C   0  0  0  0  0  0  0  0  0  0  0  0
   -6.2399    9.5545    5.9257 C   0  0  0  0  0  0  0  0  0  0  0  0
   -5.7134    8.1795    5.7204 C   0  0  0  0  0  0  0  0  0  0  0  0
  -10.2397    5.5152    2.3856 C   0  0  0  0  0  0  0  0  0  0  0  0
   -9.2644    4.8965    3.1467 C   0  0  0  0  0  0  0  0  0  0  0  0
   -9.0236    3.5372    3.0550 C   0  0  0  0  0  0  0  0  0  0  0  0
   -9.7473    2.7346    2.1982 C   0  0  0  0  0  0  0  0  0  0  0  0
  -10.7214    3.3469    1.4368 C   0  0  0  0  0  0  0  0  0  0  0  0
  -10.9632    4.7016    1.5263 C   0  0  0  0  0  0  0  0  0  0  0  0
   -7.9622    2.8834    3.8872 C   0  0  0  0  0  0  0  0  0  0  0  0
  -11.7610    7.4319    2.3214 C   0  0  0  0  0  0  0  0  0  0  0  0
  -12.0247    8.7957    2.4158 C   0  0  0  0  0  0  0  0  0  0  0  0
  -10.9513    9.6565    2.6876 C   0  0  0  0  0  0  0  0  0  0  0  0
   -8.5473   10.0922    3.1433 C   0  0  0  0  0  0  0  0  0  0  0  0
   -7.2247    9.6120    3.2197 N   0  0  0  0  0  0  0  0  0  0  0  0
   -6.1168   10.4446    3.5779 C   0  0  0  0  0  0  0  0  0  0  0  0
   -5.6306   10.4328    4.8645 C   0  0  0  0  0  0  0  0  0  0  0  0
   -5.0789    7.8541    4.6792 O   0  0  0  0  0  0  0  0  0  0  0  0
   -5.8975    7.1795    6.6749 O   0  0  0  0  0  0  0  0  0  0  0  0
   -8.7177   11.3293    3.3310 O   0  0  0  0  0  0  0  0  0  0  0  0
   -7.2878    3.9146    4.6953 N   0  0  0  0  0  4  0  0  0  0  0  0
  1  2  2  0
  1 19  1  0
 20  1  1  0
  2  3  1  0
  3 10  1  0
  3 17  2  0
  5  4  2  0
  4 23  1  0
  6  5  1  0
  7  6  2  0
 22  7  1  0
  8  9  1  1
 23  8  1  0
  9 24  2  0
  9 25  1  0
 10 11  2  0
 10 15  1  0
 11 12  1  0
 12 13  2  0
 16 12  1  1
 14 13  1  0
 15 14  2  0
 27 16  1  6
 18 17  1  0
 19 18  2  0
 21 20  1  0
 20 26  2  0
 21 22  1  0
 22 23  2  0
M  CHG  1  27   1
M  END
$$$$
