
     RDKit          3D

 27 29  0  0  0  0  0  0  0  0999 V2000
   -9.2226    8.9401    3.2403 C   0  0  0  0  0  0  0  0  0  0  0  0
  -10.1782    9.6739    2.5264 C   0  0  0  0  0  0  0  0  0  0  0  0
  -10.8255   10.7629    3.0627 C   0  0  0  0  0  0  0  0  0  0  0  0
   -5.1395    4.5988    2.5244 C   0  0  0  0  0  0  0  0  0  0  0  0
   -5.7476    3.6599    1.7238 C   0  0  0  0  0  0  0  0  0  0  0  0
   -7.1015    3.7582    1.4850 C   0  0  0  0  0  0  0  0  0  0  0  0
   -7.8521    4.7817    2.0361 C   0  0  0  0  0  0  0  0  0  0  0  0
   -5.1821    6.6444    3.9583 C   0  0  0  0  0  0  0  0  0  0  0  0
   -3.9105    7.0166    3.2843 C   0  0  0  0  0  0  0  0  0  0  0  0
  -11.8134   11.5049    2.2962 C   0  0  0  0  0  0  0  0  0  0  0  0
  -12.8973   12.1037    2.9124 C   0  0  0  0  0  0  0  0  0  0  0  0
  -13.8433   12.8118    2.1928 C   0  0  0  0  0  0  0  0  0  0  0  0
  -13.7484   12.9534    0.8241 C   0  0  0  0  0  0  0  0  0  0  0  0
  -12.6690   12.3579    0.2047 C   0  0  0  0  0  0  0  0  0  0  0  0
  -11.7248   11.6516    0.9198 C   0  0  0  0  0  0  0  0  0  0  0  0
  -15.0120   13.4541    2.8771 C   0  0  0  0  0  0  0  0  0  0  0  0
  -10.5285   11.1531    4.3498 C   0  0  0  0  0  0  0  0  0  0  0  0
   -9.5871   10.4619    5.1077 C   0  0  0  0  0  0  0  0  0  0  0  0
   -8.9518    9.3578    4.5209 C   0  0  0  0  0  0  0  0  0  0  0  0
   -8.5683    7.7970    2.6252 C   0  0  0  0  0  0  0  0  0  0  0  0
   -8.0050    6.7630    3.3993 N   0  0  0  0  0  0  0  0  0  0  0  0
   -7.2240    5.7064    2.8314 C   0  0  0  0  0  0  0  0  0  0  0  0
   -5.8743    5.6308    3.0852 C   0  0  0  0  0  0  0  0  0  0  0  0
   -2.9106    6.2468    3.2689 O   0  0  0  0  0  0  0  0  0  0  0  0
   -3.7628    8.2414    2.6338 O   0  0  0  0  0  0  0  0  0  0  0  0
   -8.4786    7.6852    1.3706 O   0  0  0  0  0  0  0  0  0  0  0  0
  -15.0174   13.0473    4.2933 N   0  0  0  0  0  4  0  0  0  0  0  0
  1  2  2  0
  1 19  1  0
 20  1  1  0
  2  3  1  0
  3 10  1  0
  3 17  2  0
  5  4  2  0
  4 23  1  0
  6  5  1  0
  7  6  2  0
 22  7  1  0
  8  9  1  1
 23  8  1  0
  9 24  2  0
  9 25  1  0
 10 11  2  0
 10 15  1  0
 11 12  1  0
 12 13  2  0
 16 12  1  1
 14 13  1  0
 15 14  2  0
 27 16  1  6
 18 17  1  0
 19 18  2  0
 21 20  1  0
 20 26  2  0
 21 22  1  0
 22 23  2  0
M  CHG  1  27   1
M  END
$$$$
