
     RDKit          3D

 54 59  0  0  0  0  0  0  0  0999 V2000
   39.9485    3.4765   28.4649 C   0  0  0  0  0  0  0  0  0  0  0  0
   39.0273    4.0053   29.5127 C   0  0  2  0  0  0  0  0  0  0  0  0
   37.5504    3.7183   29.1422 C   0  0  0  0  0  0  0  0  0  0  0  0
   37.1755    4.6307   28.0230 C   0  0  0  0  0  0  0  0  0  0  0  0
   35.7192    4.5745   27.6919 C   0  0  0  0  0  0  0  0  0  0  0  0
   35.4421    5.6755   26.6988 N   0  0  0  0  0  4  0  0  0  0  0  0
   34.6344    6.6372   26.7818 C   0  0  0  0  0  0  0  0  0  0  0  0
   39.5232    2.5230   27.7482 O   0  0  0  0  0  0  0  0  0  0  0  0
   39.2551    5.4407   29.6165 N   0  0  0  0  0  0  0  0  0  0  0  0
   36.1497    5.6039   25.6100 O   0  0  0  0  0  0  0  0  0  0  0  0
   35.1518    7.7006   26.1282 O   0  0  0  0  0  0  0  0  0  0  0  0
   40.4095    6.0830   29.0678 C   0  0  0  0  0  0  0  0  0  0  0  0
   41.4466    5.4575   28.2478 C   0  0  2  0  0  0  0  0  0  0  0  0
   41.5962    5.9069   26.8484 C   0  0  0  0  0  0  0  0  0  0  0  0
   40.8045    7.1211   26.4146 C   0  0  0  0  0  0  0  0  0  0  0  0
   39.3877    6.6717   26.2426 C   0  0  0  0  0  0  0  0  0  0  0  0
   40.5577    7.3270   29.3172 O   0  0  0  0  0  0  0  0  0  0  0  0
   41.2403    4.0017   28.2655 N   0  0  0  0  0  0  0  0  0  0  0  0
   32.3792    6.3792   29.6952 C   0  0  0  0  0  0  0  0  0  0  0  0
   33.0785    5.8374   28.5111 C   0  0  0  0  0  0  0  0  0  0  0  0
   33.5154    4.4239   28.4871 C   0  0  0  0  0  0  0  0  0  0  0  0
   34.0318    4.0226   27.1156 C   0  0  0  0  0  0  0  0  0  0  0  0
   35.1429    3.2221   27.2924 O   0  0  0  0  0  0  0  0  0  0  0  0
   33.3070    6.6177   27.4940 C   0  0  0  0  0  0  0  0  0  0  0  0
   38.6160    7.3608   25.2266 N   0  0  0  0  0  4  0  0  0  0  0  0
   38.3289    8.5660   25.0362 C   0  0  0  0  0  0  0  0  0  0  0  0
   39.1017    9.7620   25.4349 C   0  0  0  0  0  0  0  0  0  0  0  0
   39.2257   10.8481   24.7203 C   0  0  0  0  0  0  0  0  0  0  0  0
   38.6444   11.1264   23.3941 C   0  0  0  0  0  0  0  0  0  0  0  0
   37.8917   12.4562   23.3692 C   0  0  0  0  0  0  0  0  0  0  0  0
   36.5873   12.3268   23.8203 O   0  0  0  0  0  0  0  0  0  0  0  0
   38.0457    6.5841   24.2493 O   0  0  0  0  0  0  0  0  0  0  0  0
   37.1927    8.8174   24.3988 O   0  0  0  0  0  0  0  0  0  0  0  0
   35.4091   12.7581   23.2792 C   0  0  0  0  0  0  0  0  0  0  0  0
   34.8320   12.0438   22.1123 C   0  0  2  0  0  0  0  0  0  0  0  0
   34.6885   10.5598   22.4897 C   0  0  0  0  0  0  0  0  0  0  0  0
   33.6046    9.8812   21.7159 C   0  0  0  0  0  0  0  0  0  0  0  0
   32.9991    8.6922   22.4619 C   0  0  0  0  0  0  0  0  0  0  0  0
   34.0873    7.7467   22.8191 N   0  0  0  0  0  4  0  0  0  0  0  0
   34.2886    6.5040   22.6192 C   0  0  0  0  0  0  0  0  0  0  0  0
   33.2023    5.6797   22.0206 C   0  0  0  0  0  0  0  0  0  0  0  0
   31.9328    6.0156   22.1556 C   0  0  0  0  0  0  0  0  0  0  0  0
   31.3989    7.2052   21.4711 C   0  0  0  0  0  0  0  0  0  0  0  0
   31.7458    7.1841   20.0037 C   0  0  0  0  0  0  0  0  0  0  0  0
   30.5668    7.4585   19.3061 O   0  0  0  0  0  0  0  0  0  0  0  0
   34.7335   13.7603   23.7058 O   0  0  0  0  0  0  0  0  0  0  0  0
   35.0515    8.3226   23.4771 O   0  0  0  0  0  0  0  0  0  0  0  0
   35.4858    6.0211   22.9662 O   0  0  0  0  0  0  0  0  0  0  0  0
   31.0273    5.1731   23.0148 C   0  0  0  0  0  0  0  0  0  0  0  0
   35.5927   12.1729   20.9059 N   0  0  0  0  0  0  0  0  0  0  0  0
   35.1181   12.9031   19.7680 C   0  0  0  0  0  0  0  0  0  0  0  0
   34.0742   13.5751   19.8896 O   0  0  0  0  0  0  0  0  0  0  0  0
   35.8299   12.8772   18.4693 C   0  0  0  0  0  0  0  0  0  0  0  0
   36.0233    7.2358   24.5937 Fe  0  0  0  0  0  6  0  0  0  0  0  0
  2  1  1  0
  1  8  2  0
  1 18  1  0
  3  2  1  1
  2  9  1  6
  4  3  1  0
  4  5  1  6
  5  6  1  6
  7  6  2  0
  6 10  1  0
  7 11  1  0
 24  7  1  0
  9 12  1  0
 12 13  1  0
 12 17  2  0
 14 13  1  1
 13 18  1  6
 14 15  1  0
 15 16  1  6
 16 25  1  6
 19 20  1  6
 21 20  1  1
 20 24  2  0
 21 22  1  0
 22 23  1  6
 25 26  2  0
 25 32  1  0
 26 27  1  0
 26 33  1  0
 27 28  2  0
 29 28  1  1
 29 30  1  0
 30 31  1  6
 31 34  1  0
 34 35  1  0
 34 46  2  0
 36 35  1  1
 35 50  1  6
 36 37  1  0
 37 38  1  6
 38 39  1  6
 39 40  2  0
 39 47  1  0
 40 41  1  0
 40 48  1  0
 41 42  2  0
 43 42  1  1
 49 42  1  6
 43 44  1  0
 44 45  1  6
 50 51  1  0
 51 52  2  0
 53 51  1  6
 10 54  1  0
 54 11  1  0
 54 32  1  0
 54 33  1  0
 54 47  1  0
 54 48  1  0
M  CHG  3   6   1  25   1  39   1
M  END
$$$$
