
     RDKit          3D

 54 59  0  0  0  0  0  0  0  0999 V2000
   34.6199   13.3198   22.6233 C   0  0  0  0  0  0  0  0  0  0  0  0
   34.4996   12.4590   21.4106 C   0  0  2  0  0  0  0  0  0  0  0  0
   33.5244   11.2822   21.6661 C   0  0  0  0  0  0  0  0  0  0  0  0
   34.2072   10.3125   22.5710 C   0  0  0  0  0  0  0  0  0  0  0  0
   33.4356    9.0454   22.7515 C   0  0  0  0  0  0  0  0  0  0  0  0
   34.3182    8.0871   23.5117 N   0  0  0  0  0  4  0  0  0  0  0  0
   34.7114    6.9371   23.1844 C   0  0  0  0  0  0  0  0  0  0  0  0
   33.6525   13.3069   23.4404 O   0  0  0  0  0  0  0  0  0  0  0  0
   35.8297   11.9563   21.0929 N   0  0  0  0  0  0  0  0  0  0  0  0
   34.7208    8.5318   24.6656 O   0  0  0  0  0  0  0  0  0  0  0  0
   35.9426    6.7320   23.7018 O   0  0  0  0  0  0  0  0  0  0  0  0
   37.0228   12.5204   21.6450 C   0  0  0  0  0  0  0  0  0  0  0  0
   37.1003   13.5679   22.6627 C   0  0  2  0  0  0  0  0  0  0  0  0
   37.6856   13.2247   23.9752 C   0  0  0  0  0  0  0  0  0  0  0  0
   38.3481   11.8715   24.1140 C   0  0  0  0  0  0  0  0  0  0  0  0
   37.2481   10.8617   24.2084 C   0  0  0  0  0  0  0  0  0  0  0  0
   38.1358   12.0710   21.2081 O   0  0  0  0  0  0  0  0  0  0  0  0
   35.7530   14.1204   22.8671 N   0  0  0  0  0  0  0  0  0  0  0  0
   31.7109    6.1114   23.2140 C   0  0  0  0  0  0  0  0  0  0  0  0
   32.6756    6.0895   22.0944 C   0  0  0  0  0  0  0  0  0  0  0  0
   32.2003    6.2271   20.6999 C   0  0  0  0  0  0  0  0  0  0  0  0
   33.3504    6.4864   19.7414 C   0  0  0  0  0  0  0  0  0  0  0  0
   33.0098    5.9622   18.5102 O   0  0  0  0  0  0  0  0  0  0  0  0
   33.9443    5.9451   22.3496 C   0  0  0  0  0  0  0  0  0  0  0  0
   37.5263    9.6843   25.0077 N   0  0  0  0  0  4  0  0  0  0  0  0
   38.4206    8.8071   24.9625 C   0  0  0  0  0  0  0  0  0  0  0  0
   39.8026    8.9385   24.4533 C   0  0  0  0  0  0  0  0  0  0  0  0
   40.8550    8.3773   24.9852 C   0  0  0  0  0  0  0  0  0  0  0  0
   40.9098    7.5113   26.1774 C   0  0  0  0  0  0  0  0  0  0  0  0
   41.6544    6.2059   25.9001 C   0  0  0  0  0  0  0  0  0  0  0  0
   40.8291    5.2420   25.3420 O   0  0  0  0  0  0  0  0  0  0  0  0
   36.6577    9.4143   26.0354 O   0  0  0  0  0  0  0  0  0  0  0  0
   38.1038    7.6047   25.4256 O   0  0  0  0  0  0  0  0  0  0  0  0
   40.6352    3.9314   25.6761 C   0  0  0  0  0  0  0  0  0  0  0  0
   39.8330    3.5912   26.8786 C   0  0  2  0  0  0  0  0  0  0  0  0
   38.4621    4.2744   26.7416 C   0  0  0  0  0  0  0  0  0  0  0  0
   37.3931    3.5553   27.4994 C   0  0  0  0  0  0  0  0  0  0  0  0
   36.0011    3.7643   26.9031 C   0  0  0  0  0  0  0  0  0  0  0  0
   35.7274    5.2219   26.8256 N   0  0  0  0  0  4  0  0  0  0  0  0
   34.7918    5.9762   27.2506 C   0  0  0  0  0  0  0  0  0  0  0  0
   33.5818    5.3584   27.8607 C   0  0  0  0  0  0  0  0  0  0  0  0
   32.7199    4.6736   27.1321 C   0  0  0  0  0  0  0  0  0  0  0  0
   32.2016    5.2298   25.8707 C   0  0  0  0  0  0  0  0  0  0  0  0
   31.1442    6.2717   26.1350 C   0  0  0  0  0  0  0  0  0  0  0  0
   30.4546    6.4608   24.9347 O   0  0  0  0  0  0  0  0  0  0  0  0
   41.1004    2.9340   25.0191 O   0  0  0  0  0  0  0  0  0  0  0  0
   36.6574    5.8701   26.1861 O   0  0  0  0  0  0  0  0  0  0  0  0
   34.9691    7.2943   27.1174 O   0  0  0  0  0  0  0  0  0  0  0  0
   32.2674    3.3143   27.5963 C   0  0  0  0  0  0  0  0  0  0  0  0
   40.4445    3.9603   28.1198 N   0  0  0  0  0  0  0  0  0  0  0  0
   40.8492    2.9952   29.0986 C   0  0  0  0  0  0  0  0  0  0  0  0
   40.9469    1.8021   28.7478 O   0  0  0  0  0  0  0  0  0  0  0  0
   41.1494    3.3782   30.4976 C   0  0  0  0  0  0  0  0  0  0  0  0
   36.1352    7.4331   25.3757 Fe  0  0  0  0  0  6  0  0  0  0  0  0
  2  1  1  0
  1  8  2  0
  1 18  1  0
  3  2  1  1
  2  9  1  1
  4  3  1  0
  4  5  1  6
  5  6  1  6
  7  6  2  0
  6 10  1  0
  7 11  1  0
 24  7  1  0
  9 12  1  0
 12 13  1  0
 12 17  2  0
 14 13  1  1
 13 18  1  1
 14 15  1  0
 15 16  1  6
 16 25  1  6
 19 20  1  6
 21 20  1  1
 20 24  2  0
 21 22  1  0
 22 23  1  6
 25 26  2  0
 25 32  1  0
 26 27  1  0
 26 33  1  0
 27 28  2  0
 29 28  1  1
 29 30  1  0
 30 31  1  6
 31 34  1  0
 34 35  1  0
 34 46  2  0
 36 35  1  1
 35 50  1  1
 36 37  1  0
 37 38  1  6
 38 39  1  6
 39 40  2  0
 39 47  1  0
 40 41  1  0
 40 48  1  0
 41 42  2  0
 43 42  1  1
 49 42  1  6
 43 44  1  0
 44 45  1  6
 50 51  1  0
 51 52  2  0
 53 51  1  6
 10 54  1  0
 54 11  1  0
 54 32  1  0
 54 33  1  0
 54 47  1  0
 54 48  1  0
M  CHG  3   6   1  25   1  39   1
M  END
$$$$
