
     RDKit          3D

 54 59  0  0  0  0  0  0  0  0999 V2000
   37.6279    5.0533   28.3852 C   0  0  0  0  0  0  0  0  0  0  0  0
   37.6966    3.9807   27.3651 C   0  0  2  0  0  0  0  0  0  0  0  0
   36.8875    2.7977   27.6091 C   0  0  0  0  0  0  0  0  0  0  0  0
   35.4339    3.2013   27.3885 C   0  0  0  0  0  0  0  0  0  0  0  0
   35.1241    3.7269   26.0335 C   0  0  0  0  0  0  0  0  0  0  0  0
   34.6567    5.1268   26.0384 N   0  0  0  0  0  4  0  0  0  0  0  0
   33.5934    5.6635   26.4918 C   0  0  0  0  0  0  0  0  0  0  0  0
   36.9088    4.9323   29.3931 O   0  0  0  0  0  0  0  0  0  0  0  0
   39.1292    3.8266   27.1186 N   0  0  0  0  0  0  0  0  0  0  0  0
   35.4677    6.0060   25.4748 O   0  0  0  0  0  0  0  0  0  0  0  0
   33.3882    6.9341   26.1335 O   0  0  0  0  0  0  0  0  0  0  0  0
   39.8026    5.0451   26.7822 C   0  0  0  0  0  0  0  0  0  0  0  0
   39.0520    6.3250   26.8716 C   0  0  2  0  0  0  0  0  0  0  0  0
   39.7174    7.5614   26.5642 C   0  0  0  0  0  0  0  0  0  0  0  0
   38.7570    8.4827   25.7866 C   0  0  0  0  0  0  0  0  0  0  0  0
   37.5110    8.7782   26.5217 C   0  0  0  0  0  0  0  0  0  0  0  0
   40.9900    5.0686   26.4193 O   0  0  0  0  0  0  0  0  0  0  0  0
   38.4012    6.2290   28.1934 N   0  0  0  0  0  0  0  0  0  0  0  0
   32.6089    4.2766   29.7562 C   0  0  0  0  0  0  0  0  0  0  0  0
   33.1563    4.2294   28.3813 C   0  0  0  0  0  0  0  0  0  0  0  0
   34.3689    3.3425   28.1936 C   0  0  0  0  0  0  0  0  0  0  0  0
   33.9264    1.9276   28.1942 C   0  0  0  0  0  0  0  0  0  0  0  0
   34.8405    1.1161   27.5509 O   0  0  0  0  0  0  0  0  0  0  0  0
   32.6840    4.8974   27.3471 C   0  0  0  0  0  0  0  0  0  0  0  0
   36.3815    8.9228   25.6012 N   0  0  0  0  0  4  0  0  0  0  0  0
   35.3622    9.6697   25.6632 C   0  0  0  0  0  0  0  0  0  0  0  0
   35.1374   10.8562   26.5087 C   0  0  0  0  0  0  0  0  0  0  0  0
   34.4992   11.9439   26.1457 C   0  0  0  0  0  0  0  0  0  0  0  0
   33.8821   12.1917   24.8184 C   0  0  0  0  0  0  0  0  0  0  0  0
   34.3351   13.5139   24.2641 C   0  0  0  0  0  0  0  0  0  0  0  0
   35.3178   13.2994   23.3004 O   0  0  0  0  0  0  0  0  0  0  0  0
   36.3706    8.1607   24.5004 O   0  0  0  0  0  0  0  0  0  0  0  0
   34.3505    9.3346   24.8486 O   0  0  0  0  0  0  0  0  0  0  0  0
   35.0839   12.5990   22.1325 C   0  0  0  0  0  0  0  0  0  0  0  0
   33.7707   12.7346   21.4688 C   0  0  2  0  0  0  0  0  0  0  0  0
   32.9827   11.4718   21.4829 C   0  0  0  0  0  0  0  0  0  0  0  0
   33.7762   10.2023   21.4402 C   0  0  0  0  0  0  0  0  0  0  0  0
   32.7844    9.0639   21.5786 C   0  0  0  0  0  0  0  0  0  0  0  0
   33.3327    7.9098   22.2728 N   0  0  0  0  0  4  0  0  0  0  0  0
   34.1603    6.9929   21.8961 C   0  0  0  0  0  0  0  0  0  0  0  0
   34.3593    6.6898   20.4796 C   0  0  0  0  0  0  0  0  0  0  0  0
   33.8158    7.2611   19.4442 C   0  0  0  0  0  0  0  0  0  0  0  0
   34.4356    7.3275   18.1153 C   0  0  0  0  0  0  0  0  0  0  0  0
   35.0955    8.6976   17.9392 C   0  0  0  0  0  0  0  0  0  0  0  0
   34.8466    9.1436   16.6671 O   0  0  0  0  0  0  0  0  0  0  0  0
   35.9839   11.8635   21.6540 O   0  0  0  0  0  0  0  0  0  0  0  0
   32.9324    7.7081   23.5326 O   0  0  0  0  0  0  0  0  0  0  0  0
   34.7919    6.3691   22.8707 O   0  0  0  0  0  0  0  0  0  0  0  0
   32.4385    7.9131   19.6048 C   0  0  0  0  0  0  0  0  0  0  0  0
   34.0319   13.2249   20.1335 N   0  0  0  0  0  0  0  0  0  0  0  0
   33.0221   13.9530   19.4580 C   0  0  0  0  0  0  0  0  0  0  0  0
   31.9797   13.3573   19.0190 O   0  0  0  0  0  0  0  0  0  0  0  0
   33.0773   15.4109   19.2077 C   0  0  0  0  0  0  0  0  0  0  0  0
   34.5291    7.3335   24.5705 Fe  0  0  0  0  0  6  0  0  0  0  0  0
  2  1  1  0
  1  8  2  0
  1 18  1  0
  2  3  1  1
  2  9  1  0
  4  3  1  0
  5  4  1  0
  6  5  1  0
  7  6  2  0
  6 10  1  0
  7 11  1  0
 24  7  1  0
  9 12  1  0
 12 13  1  0
 12 17  2  0
 13 14  1  1
 18 13  1  0
 14 15  1  0
 15 16  1  0
 16 25  1  0
 20 19  1  0
 20 21  1  0
 20 24  2  0
 21 22  1  0
 22 23  1  0
 25 26  2  0
 25 32  1  0
 26 27  1  0
 26 33  1  0
 27 28  2  0
 28 29  1  0
 29 30  1  0
 30 31  1  0
 31 34  1  0
 34 35  1  0
 34 46  2  0
 35 36  1  0
 35 50  1  6
 36 37  1  0
 37 38  1  0
 38 39  1  0
 39 40  2  0
 39 47  1  0
 40 41  1  0
 40 48  1  0
 41 42  2  0
 42 43  1  0
 42 49  1  0
 43 44  1  0
 44 45  1  0
 50 51  1  0
 51 52  2  0
 51 53  1  0
 10 54  1  0
 54 11  1  0
 54 32  1  0
 54 33  1  0
 54 47  1  0
 54 48  1  0
M  CHG  3   6   1  25   1  39   1
M  END
$$$$
