
     RDKit          3D

 54 59  0  0  0  0  0  0  0  0999 V2000
   36.4180   11.4837   21.0031 C   0  0  0  0  0  0  0  0  0  0  0  0
   35.1114   11.7613   21.6445 C   0  0  2  0  0  0  0  0  0  0  0  0
   33.9312   11.6115   20.8088 C   0  0  0  0  0  0  0  0  0  0  0  0
   33.7367   10.1168   20.5798 C   0  0  0  0  0  0  0  0  0  0  0  0
   33.5604    9.3075   21.8135 C   0  0  0  0  0  0  0  0  0  0  0  0
   34.6251    8.3060   22.0171 N   0  0  0  0  0  4  0  0  0  0  0  0
   34.9335    7.2532   21.3683 C   0  0  0  0  0  0  0  0  0  0  0  0
   36.4843   11.1401   19.8093 O   0  0  0  0  0  0  0  0  0  0  0  0
   35.3310   13.0232   22.3490 N   0  0  0  0  0  0  0  0  0  0  0  0
   35.4177    8.5118   23.0554 O   0  0  0  0  0  0  0  0  0  0  0  0
   35.8259    6.4516   21.9563 O   0  0  0  0  0  0  0  0  0  0  0  0
   36.4628   13.0176   23.2266 C   0  0  0  0  0  0  0  0  0  0  0  0
   37.3683   11.8388   23.2183 C   0  0  2  0  0  0  0  0  0  0  0  0
   38.5245   11.8255   24.0721 C   0  0  0  0  0  0  0  0  0  0  0  0
   38.7131   10.4133   24.6603 C   0  0  0  0  0  0  0  0  0  0  0  0
   38.8664    9.3685   23.6283 C   0  0  0  0  0  0  0  0  0  0  0  0
   36.7131   13.9626   23.9926 O   0  0  0  0  0  0  0  0  0  0  0  0
   37.6012   11.6174   21.7772 N   0  0  0  0  0  0  0  0  0  0  0  0
   32.2716    6.7955   18.6674 C   0  0  0  0  0  0  0  0  0  0  0  0
   33.0165    7.0818   19.9145 C   0  0  0  0  0  0  0  0  0  0  0  0
   32.1735    7.5420   21.0850 C   0  0  0  0  0  0  0  0  0  0  0  0
   30.9304    8.1572   20.5616 C   0  0  0  0  0  0  0  0  0  0  0  0
   29.8658    7.2804   20.6391 O   0  0  0  0  0  0  0  0  0  0  0  0
   34.3226    6.9811   20.0652 C   0  0  0  0  0  0  0  0  0  0  0  0
   38.2745    8.1043   24.0708 N   0  0  0  0  0  4  0  0  0  0  0  0
   38.6243    6.9100   23.8433 C   0  0  0  0  0  0  0  0  0  0  0  0
   39.9116    6.4068   23.3306 C   0  0  0  0  0  0  0  0  0  0  0  0
   40.5082    5.3026   23.7139 C   0  0  0  0  0  0  0  0  0  0  0  0
   40.0061    4.3485   24.7345 C   0  0  0  0  0  0  0  0  0  0  0  0
   41.0727    4.0554   25.7530 C   0  0  0  0  0  0  0  0  0  0  0  0
   40.8167    4.7823   26.9134 O   0  0  0  0  0  0  0  0  0  0  0  0
   37.1794    8.1618   24.8389 O   0  0  0  0  0  0  0  0  0  0  0  0
   37.6965    5.9770   24.1046 O   0  0  0  0  0  0  0  0  0  0  0  0
   39.6785    4.6028   27.6760 C   0  0  0  0  0  0  0  0  0  0  0  0
   39.1221    3.2415   27.8199 C   0  0  2  0  0  0  0  0  0  0  0  0
   37.7892    3.0905   27.1748 C   0  0  0  0  0  0  0  0  0  0  0  0
   36.9246    4.3134   27.1602 C   0  0  0  0  0  0  0  0  0  0  0  0
   35.6841    3.9602   26.3632 C   0  0  0  0  0  0  0  0  0  0  0  0
   35.1322    5.0909   25.6344 N   0  0  0  0  0  4  0  0  0  0  0  0
   34.4516    6.1164   26.0250 C   0  0  0  0  0  0  0  0  0  0  0  0
   33.6947    6.0895   27.2757 C   0  0  0  0  0  0  0  0  0  0  0  0
   33.2690    5.0568   27.9436 C   0  0  0  0  0  0  0  0  0  0  0  0
   33.3314    4.9331   29.4049 C   0  0  0  0  0  0  0  0  0  0  0  0
   34.5340    5.7262   29.9229 C   0  0  0  0  0  0  0  0  0  0  0  0
   34.6654    5.4943   31.2676 O   0  0  0  0  0  0  0  0  0  0  0  0
   39.1373    5.5911   28.2331 O   0  0  0  0  0  0  0  0  0  0  0  0
   35.3280    5.1192   24.3119 O   0  0  0  0  0  0  0  0  0  0  0  0
   34.4944    7.1605   25.2213 O   0  0  0  0  0  0  0  0  0  0  0  0
   32.6599    3.8830   27.1697 C   0  0  0  0  0  0  0  0  0  0  0  0
   39.1023    2.9515   29.2367 N   0  0  0  0  0  0  0  0  0  0  0  0
   38.1956    1.9804   29.7277 C   0  0  0  0  0  0  0  0  0  0  0  0
   38.2264    0.7831   29.2808 O   0  0  0  0  0  0  0  0  0  0  0  0
   37.1704    2.2501   30.7608 C   0  0  0  0  0  0  0  0  0  0  0  0
   35.9141    6.9171   23.8745 Fe  0  0  0  0  0  6  0  0  0  0  0  0
  2  1  1  0
  1  8  2  0
  1 18  1  0
  2  3  1  6
  2  9  1  0
  4  3  1  0
  5  4  1  0
  6  5  1  0
  7  6  2  0
  6 10  1  0
  7 11  1  0
 24  7  1  0
  9 12  1  0
 12 13  1  0
 12 17  2  0
 13 14  1  1
 18 13  1  0
 14 15  1  0
 15 16  1  0
 16 25  1  0
 20 19  1  0
 20 21  1  0
 20 24  2  0
 21 22  1  0
 22 23  1  0
 25 26  2  0
 25 32  1  0
 26 27  1  0
 26 33  1  0
 27 28  2  0
 28 29  1  0
 29 30  1  0
 30 31  1  0
 31 34  1  0
 34 35  1  0
 34 46  2  0
 35 36  1  0
 35 50  1  1
 36 37  1  0
 37 38  1  0
 38 39  1  0
 39 40  2  0
 39 47  1  0
 40 41  1  0
 40 48  1  0
 41 42  2  0
 42 43  1  0
 42 49  1  0
 43 44  1  0
 44 45  1  0
 50 51  1  0
 51 52  2  0
 51 53  1  0
 10 54  1  0
 54 11  1  0
 54 32  1  0
 54 33  1  0
 54 47  1  0
 54 48  1  0
M  CHG  3   6   1  25   1  39   1
M  END
$$$$
