
     RDKit          3D

 54 59  0  0  0  0  0  0  0  0999 V2000
   38.1313    4.5690   30.3204 C   0  0  0  0  0  0  0  0  0  0  0  0
   36.9594    5.1815   31.0115 C   0  0  2  0  0  0  0  0  0  0  0  0
   35.6316    4.6968   30.3767 C   0  0  0  0  0  0  0  0  0  0  0  0
   35.4911    5.3629   29.0493 C   0  0  0  0  0  0  0  0  0  0  0  0
   34.1620    5.1133   28.4129 C   0  0  0  0  0  0  0  0  0  0  0  0
   34.0763    5.9952   27.1922 N   0  0  0  0  0  4  0  0  0  0  0  0
   33.2245    6.8763   26.9054 C   0  0  0  0  0  0  0  0  0  0  0  0
   37.9400    3.4703   29.7204 O   0  0  0  0  0  0  0  0  0  0  0  0
   37.0822    6.6282   30.8896 N   0  0  0  0  0  0  0  0  0  0  0  0
   35.0278    5.8037   26.3266 O   0  0  0  0  0  0  0  0  0  0  0  0
   33.8292    7.8548   26.1965 O   0  0  0  0  0  0  0  0  0  0  0  0
   38.3005    7.2721   30.5057 C   0  0  0  0  0  0  0  0  0  0  0  0
   39.5348    6.6151   30.0768 C   0  0  2  0  0  0  0  0  0  0  0  0
   39.9937    6.8282   28.6887 C   0  0  0  0  0  0  0  0  0  0  0  0
   39.2689    7.8691   27.8638 C   0  0  0  0  0  0  0  0  0  0  0  0
   37.9598    7.2652   27.4632 C   0  0  0  0  0  0  0  0  0  0  0  0
   38.3209    8.5488   30.5411 O   0  0  0  0  0  0  0  0  0  0  0  0
   39.4047    5.1713   30.3235 N   0  0  0  0  0  0  0  0  0  0  0  0
   31.1969    5.1599   28.8891 C   0  0  0  0  0  0  0  0  0  0  0  0
   31.1325    5.7450   27.5334 C   0  0  0  0  0  0  0  0  0  0  0  0
   30.3563    5.0718   26.4686 C   0  0  0  0  0  0  0  0  0  0  0  0
   29.8901    6.0571   25.4100 C   0  0  0  0  0  0  0  0  0  0  0  0
   30.2871    5.5814   24.1760 O   0  0  0  0  0  0  0  0  0  0  0  0
   31.7676    6.8549   27.2879 C   0  0  0  0  0  0  0  0  0  0  0  0
   37.4212    7.6926   26.1865 N   0  0  0  0  0  4  0  0  0  0  0  0
   37.1274    8.8144   25.7105 C   0  0  0  0  0  0  0  0  0  0  0  0
   37.7198   10.1287   26.0395 C   0  0  0  0  0  0  0  0  0  0  0  0
   37.9567   11.0819   25.1788 C   0  0  0  0  0  0  0  0  0  0  0  0
   37.6981   11.0709   23.7271 C   0  0  0  0  0  0  0  0  0  0  0  0
   36.9069   12.2995   23.2798 C   0  0  0  0  0  0  0  0  0  0  0  0
   35.5405   12.1275   23.4390 O   0  0  0  0  0  0  0  0  0  0  0  0
   37.1431    6.7087   25.2712 O   0  0  0  0  0  0  0  0  0  0  0  0
   36.1666    8.8437   24.7958 O   0  0  0  0  0  0  0  0  0  0  0  0
   34.5068   12.3459   22.5726 C   0  0  0  0  0  0  0  0  0  0  0  0
   34.2644   11.3896   21.4627 C   0  0  2  0  0  0  0  0  0  0  0  0
   34.1100    9.9863   22.0726 C   0  0  0  0  0  0  0  0  0  0  0  0
   33.2801    9.0851   21.2163 C   0  0  0  0  0  0  0  0  0  0  0  0
   32.5742    7.9911   22.0173 C   0  0  0  0  0  0  0  0  0  0  0  0
   33.5911    7.2284   22.7853 N   0  0  0  0  0  4  0  0  0  0  0  0
   33.8975    5.9944   22.8762 C   0  0  0  0  0  0  0  0  0  0  0  0
   33.0306    4.9804   22.2144 C   0  0  0  0  0  0  0  0  0  0  0  0
   32.7881    5.0269   20.9176 C   0  0  0  0  0  0  0  0  0  0  0  0
   33.8243    4.6281   19.9500 C   0  0  0  0  0  0  0  0  0  0  0  0
   34.7399    3.5852   20.5397 C   0  0  0  0  0  0  0  0  0  0  0  0
   35.6438    3.2274   19.5362 O   0  0  0  0  0  0  0  0  0  0  0  0
   33.6983   13.3385   22.6362 O   0  0  0  0  0  0  0  0  0  0  0  0
   34.3381    7.9975   23.5233 O   0  0  0  0  0  0  0  0  0  0  0  0
   34.9991    5.6938   23.5713 O   0  0  0  0  0  0  0  0  0  0  0  0
   31.4411    5.4898   20.4284 C   0  0  0  0  0  0  0  0  0  0  0  0
   35.2854   11.3797   20.4586 N   0  0  0  0  0  0  0  0  0  0  0  0
   34.9930   11.2621   19.0608 C   0  0  0  0  0  0  0  0  0  0  0  0
   35.0832   10.1367   18.5302 O   0  0  0  0  0  0  0  0  0  0  0  0
   34.5921   12.4310   18.2442 C   0  0  0  0  0  0  0  0  0  0  0  0
   35.0667    7.2163   25.0170 Fe  0  0  0  0  0  6  0  0  0  0  0  0
  2  1  1  0
  1  8  2  0
  1 18  1  0
  3  2  1  1
  2  9  1  6
  4  3  1  0
  4  5  1  6
  5  6  1  6
  7  6  2  0
  6 10  1  0
  7 11  1  0
 24  7  1  0
  9 12  1  0
 12 13  1  0
 12 17  2  0
 14 13  1  1
 13 18  1  6
 14 15  1  0
 15 16  1  6
 16 25  1  6
 19 20  1  6
 21 20  1  1
 20 24  2  0
 21 22  1  0
 22 23  1  6
 25 26  2  0
 25 32  1  0
 26 27  1  0
 26 33  1  0
 27 28  2  0
 29 28  1  1
 29 30  1  0
 30 31  1  6
 31 34  1  0
 34 35  1  0
 34 46  2  0
 36 35  1  1
 35 50  1  6
 36 37  1  0
 37 38  1  6
 38 39  1  6
 39 40  2  0
 39 47  1  0
 40 41  1  0
 40 48  1  0
 41 42  2  0
 43 42  1  1
 49 42  1  6
 43 44  1  0
 44 45  1  6
 50 51  1  0
 51 52  2  0
 53 51  1  6
 10 54  1  0
 54 11  1  0
 54 32  1  0
 54 33  1  0
 54 47  1  0
 54 48  1  0
M  CHG  3   6   1  25   1  39   1
M  END
$$$$
