
     RDKit          3D

 54 59  0  0  0  0  0  0  0  0999 V2000
   36.2930   12.1987   21.4244 C   0  0  0  0  0  0  0  0  0  0  0  0
   34.8681   12.2655   21.8256 C   0  0  2  0  0  0  0  0  0  0  0  0
   33.8859   12.0259   20.7809 C   0  0  0  0  0  0  0  0  0  0  0  0
   33.9401   10.5377   20.4541 C   0  0  0  0  0  0  0  0  0  0  0  0
   33.6600    9.6304   21.5971 C   0  0  0  0  0  0  0  0  0  0  0  0
   34.7981    8.7592   21.9490 N   0  0  0  0  0  4  0  0  0  0  0  0
   35.3566    7.8002   21.3222 C   0  0  0  0  0  0  0  0  0  0  0  0
   36.6155   11.9484   20.2493 O   0  0  0  0  0  0  0  0  0  0  0  0
   34.7860   13.4939   22.6137 N   0  0  0  0  0  0  0  0  0  0  0  0
   35.3590    8.9917   23.1236 O   0  0  0  0  0  0  0  0  0  0  0  0
   36.2315    7.0788   22.0286 O   0  0  0  0  0  0  0  0  0  0  0  0
   35.7348   13.5709   23.6838 C   0  0  0  0  0  0  0  0  0  0  0  0
   36.7792   12.5185   23.7903 C   0  0  2  0  0  0  0  0  0  0  0  0
   37.7571   12.5925   24.8412 C   0  0  0  0  0  0  0  0  0  0  0  0
   38.0289   11.1783   25.3910 C   0  0  0  0  0  0  0  0  0  0  0  0
   38.5030   10.2339   24.3598 C   0  0  0  0  0  0  0  0  0  0  0  0
   35.7148   14.4853   24.5238 O   0  0  0  0  0  0  0  0  0  0  0  0
   37.2912   12.4270   22.4085 N   0  0  0  0  0  0  0  0  0  0  0  0
   33.3273    5.8113   20.4673 C   0  0  0  0  0  0  0  0  0  0  0  0
   33.9565    6.8403   19.6087 C   0  0  0  0  0  0  0  0  0  0  0  0
   33.2935    7.0615   18.2656 C   0  0  0  0  0  0  0  0  0  0  0  0
   31.8630    7.3800   18.4894 C   0  0  0  0  0  0  0  0  0  0  0  0
   31.2842    7.9125   17.3539 O   0  0  0  0  0  0  0  0  0  0  0  0
   35.0286    7.5430   19.9181 C   0  0  0  0  0  0  0  0  0  0  0  0
   38.0197    8.8782   24.6292 N   0  0  0  0  0  4  0  0  0  0  0  0
   38.5633    7.7556   24.4174 C   0  0  0  0  0  0  0  0  0  0  0  0
   39.9773    7.4544   24.1291 C   0  0  0  0  0  0  0  0  0  0  0  0
   40.6412    6.4103   24.5665 C   0  0  0  0  0  0  0  0  0  0  0  0
   40.1010    5.3334   25.4339 C   0  0  0  0  0  0  0  0  0  0  0  0
   41.0004    5.1079   26.6176 C   0  0  0  0  0  0  0  0  0  0  0  0
   40.4467    5.7160   27.7420 O   0  0  0  0  0  0  0  0  0  0  0  0
   36.8085    8.7451   25.1841 O   0  0  0  0  0  0  0  0  0  0  0  0
   37.7395    6.6977   24.4617 O   0  0  0  0  0  0  0  0  0  0  0  0
   39.2267    5.3433   28.2730 C   0  0  0  0  0  0  0  0  0  0  0  0
   38.8441    3.9162   28.2515 C   0  0  2  0  0  0  0  0  0  0  0  0
   37.6794    3.6432   27.3657 C   0  0  0  0  0  0  0  0  0  0  0  0
   36.6729    4.7459   27.2460 C   0  0  0  0  0  0  0  0  0  0  0  0
   35.6526    4.2947   26.2192 C   0  0  0  0  0  0  0  0  0  0  0  0
   35.0898    5.3942   25.4519 N   0  0  0  0  0  4  0  0  0  0  0  0
   34.2178    6.2969   25.7553 C   0  0  0  0  0  0  0  0  0  0  0  0
   33.2624    6.0899   26.8427 C   0  0  0  0  0  0  0  0  0  0  0  0
   33.1087    5.0412   27.5981 C   0  0  0  0  0  0  0  0  0  0  0  0
   32.2309    4.9895   28.7734 C   0  0  0  0  0  0  0  0  0  0  0  0
   30.8081    4.6520   28.3203 C   0  0  0  0  0  0  0  0  0  0  0  0
   29.9461    4.9105   29.3545 O   0  0  0  0  0  0  0  0  0  0  0  0
   38.4662    6.2154   28.7639 O   0  0  0  0  0  0  0  0  0  0  0  0
   35.5107    5.5369   24.1907 O   0  0  0  0  0  0  0  0  0  0  0  0
   34.2597    7.3905   25.0203 O   0  0  0  0  0  0  0  0  0  0  0  0
   33.8882    3.7680   27.2531 C   0  0  0  0  0  0  0  0  0  0  0  0
   38.6136    3.5301   29.6261 N   0  0  0  0  0  0  0  0  0  0  0  0
   37.9658    2.2997   29.8958 C   0  0  0  0  0  0  0  0  0  0  0  0
   38.4943    1.4524   30.6939 O   0  0  0  0  0  0  0  0  0  0  0  0
   36.6705    1.8969   29.3033 C   0  0  0  0  0  0  0  0  0  0  0  0
   35.9149    7.4199   23.9489 Fe  0  0  0  0  0  6  0  0  0  0  0  0
  2  1  1  0
  1  8  2  0
  1 18  1  0
  2  3  1  6
  2  9  1  0
  4  3  1  0
  5  4  1  0
  6  5  1  0
  7  6  2  0
  6 10  1  0
  7 11  1  0
 24  7  1  0
  9 12  1  0
 12 13  1  0
 12 17  2  0
 13 14  1  1
 18 13  1  0
 14 15  1  0
 15 16  1  0
 16 25  1  0
 20 19  1  0
 20 21  1  0
 20 24  2  0
 21 22  1  0
 22 23  1  0
 25 26  2  0
 25 32  1  0
 26 27  1  0
 26 33  1  0
 27 28  2  0
 28 29  1  0
 29 30  1  0
 30 31  1  0
 31 34  1  0
 34 35  1  0
 34 46  2  0
 35 36  1  0
 35 50  1  1
 36 37  1  0
 37 38  1  0
 38 39  1  0
 39 40  2  0
 39 47  1  0
 40 41  1  0
 40 48  1  0
 41 42  2  0
 42 43  1  0
 42 49  1  0
 43 44  1  0
 44 45  1  0
 50 51  1  0
 51 52  2  0
 51 53  1  0
 10 54  1  0
 54 11  1  0
 54 32  1  0
 54 33  1  0
 54 47  1  0
 54 48  1  0
M  CHG  3   6   1  25   1  39   1
M  END
$$$$
