
     RDKit          3D

 54 59  0  0  0  0  0  0  0  0999 V2000
   30.3132    5.8741   26.0089 C   0  0  0  0  0  0  0  0  0  0  0  0
   30.5113    4.7246   25.0951 C   0  0  2  0  0  0  0  0  0  0  0  0
   29.7716    4.7530   23.8438 C   0  0  0  0  0  0  0  0  0  0  0  0
   30.4160    5.8250   22.9719 C   0  0  0  0  0  0  0  0  0  0  0  0
   31.8569    5.6150   22.6760 C   0  0  0  0  0  0  0  0  0  0  0  0
   32.7277    6.6824   23.2058 N   0  0  0  0  0  4  0  0  0  0  0  0
   32.8419    7.9138   22.8977 C   0  0  0  0  0  0  0  0  0  0  0  0
   29.5498    6.8083   25.7055 O   0  0  0  0  0  0  0  0  0  0  0  0
   30.3888    3.5599   25.9698 N   0  0  0  0  0  0  0  0  0  0  0  0
   33.5511    6.3243   24.1765 O   0  0  0  0  0  0  0  0  0  0  0  0
   33.8886    8.5494   23.4318 O   0  0  0  0  0  0  0  0  0  0  0  0
   31.2453    3.5933   27.1173 C   0  0  0  0  0  0  0  0  0  0  0  0
   32.0256    4.8284   27.3913 C   0  0  2  0  0  0  0  0  0  0  0  0
   32.8702    4.8918   28.5526 C   0  0  0  0  0  0  0  0  0  0  0  0
   34.1780    5.6264   28.1978 C   0  0  0  0  0  0  0  0  0  0  0  0
   33.9575    6.9950   27.6895 C   0  0  0  0  0  0  0  0  0  0  0  0
   31.3576    2.6274   27.8898 O   0  0  0  0  0  0  0  0  0  0  0  0
   31.0126    5.8926   27.2449 N   0  0  0  0  0  0  0  0  0  0  0  0
   32.0960    7.0493   20.0380 C   0  0  0  0  0  0  0  0  0  0  0  0
   31.9345    8.3598   20.7078 C   0  0  0  0  0  0  0  0  0  0  0  0
   31.8657    9.5582   19.7851 C   0  0  0  0  0  0  0  0  0  0  0  0
   31.9889    9.0867   18.3850 C   0  0  0  0  0  0  0  0  0  0  0  0
   31.8964   10.1367   17.4923 O   0  0  0  0  0  0  0  0  0  0  0  0
   31.8642    8.5488   22.0109 C   0  0  0  0  0  0  0  0  0  0  0  0
   34.9648    7.3504   26.6879 N   0  0  0  0  0  4  0  0  0  0  0  0
   35.5068    8.4636   26.4277 C   0  0  0  0  0  0  0  0  0  0  0  0
   35.5396    9.6884   27.2476 C   0  0  0  0  0  0  0  0  0  0  0  0
   36.5562   10.5116   27.3517 C   0  0  0  0  0  0  0  0  0  0  0  0
   37.8664   10.3712   26.6680 C   0  0  0  0  0  0  0  0  0  0  0  0
   38.9933   10.4949   27.6557 C   0  0  0  0  0  0  0  0  0  0  0  0
   39.4869    9.2273   27.9558 O   0  0  0  0  0  0  0  0  0  0  0  0
   35.4179    6.3794   25.8851 O   0  0  0  0  0  0  0  0  0  0  0  0
   36.1359    8.5370   25.2452 O   0  0  0  0  0  0  0  0  0  0  0  0
   40.0656    8.4035   27.0093 C   0  0  0  0  0  0  0  0  0  0  0  0
   40.8908    9.0090   25.9436 C   0  0  2  0  0  0  0  0  0  0  0  0
   40.2872    8.8617   24.5909 C   0  0  0  0  0  0  0  0  0  0  0  0
   39.4682    7.6277   24.3683 C   0  0  0  0  0  0  0  0  0  0  0  0
   38.8686    7.7473   22.9809 C   0  0  0  0  0  0  0  0  0  0  0  0
   37.5622    7.1191   22.8669 N   0  0  0  0  0  4  0  0  0  0  0  0
   37.2077    5.8798   22.7902 C   0  0  0  0  0  0  0  0  0  0  0  0
   38.1427    4.8531   22.3325 C   0  0  0  0  0  0  0  0  0  0  0  0
   38.9887    4.9092   21.3450 C   0  0  0  0  0  0  0  0  0  0  0  0
   39.7964    6.0891   21.0132 C   0  0  0  0  0  0  0  0  0  0  0  0
   41.2761    5.7570   21.2222 C   0  0  0  0  0  0  0  0  0  0  0  0
   41.9502    6.9172   21.5027 O   0  0  0  0  0  0  0  0  0  0  0  0
   39.8847    7.1610   27.0680 O   0  0  0  0  0  0  0  0  0  0  0  0
   36.4981    7.9275   22.8192 O   0  0  0  0  0  0  0  0  0  0  0  0
   35.9645    5.6262   23.1480 O   0  0  0  0  0  0  0  0  0  0  0  0
   39.1657    3.6713   20.4595 C   0  0  0  0  0  0  0  0  0  0  0  0
   42.2030    8.4097   26.0471 N   0  0  0  0  0  0  0  0  0  0  0  0
   42.7169    7.6841   24.9446 C   0  0  0  0  0  0  0  0  0  0  0  0
   43.5210    6.7080   25.1316 O   0  0  0  0  0  0  0  0  0  0  0  0
   42.3850    7.9762   23.5319 C   0  0  0  0  0  0  0  0  0  0  0  0
   35.1891    7.1975   24.0524 Fe  0  0  0  0  0  6  0  0  0  0  0  0
  2  1  1  0
  1  8  2  0
  1 18  1  0
  2  3  1  6
  2  9  1  0
  4  3  1  0
  5  4  1  0
  6  5  1  0
  7  6  2  0
  6 10  1  0
  7 11  1  0
 24  7  1  0
  9 12  1  0
 12 13  1  0
 12 17  2  0
 13 14  1  1
 18 13  1  0
 14 15  1  0
 15 16  1  0
 16 25  1  0
 20 19  1  0
 20 21  1  0
 20 24  2  0
 21 22  1  0
 22 23  1  0
 25 26  2  0
 25 32  1  0
 26 27  1  0
 26 33  1  0
 27 28  2  0
 28 29  1  0
 29 30  1  0
 30 31  1  0
 31 34  1  0
 34 35  1  0
 34 46  2  0
 35 36  1  0
 35 50  1  6
 36 37  1  0
 37 38  1  0
 38 39  1  0
 39 40  2  0
 39 47  1  0
 40 41  1  0
 40 48  1  0
 41 42  2  0
 42 43  1  0
 42 49  1  0
 43 44  1  0
 44 45  1  0
 50 51  1  0
 51 52  2  0
 51 53  1  0
 10 54  1  0
 54 11  1  0
 54 32  1  0
 54 33  1  0
 54 47  1  0
 54 48  1  0
M  CHG  3   6   1  25   1  39   1
M  END
$$$$
