
     RDKit          3D

 54 59  0  0  0  0  0  0  0  0999 V2000
   31.1688    4.9837   25.7499 C   0  0  0  0  0  0  0  0  0  0  0  0
   31.5097    3.9929   24.7021 C   0  0  2  0  0  0  0  0  0  0  0  0
   30.6753    3.9916   23.5115 C   0  0  0  0  0  0  0  0  0  0  0  0
   31.0212    5.2518   22.7261 C   0  0  0  0  0  0  0  0  0  0  0  0
   32.4451    5.3692   22.3175 C   0  0  0  0  0  0  0  0  0  0  0  0
   33.1319    6.5348   22.9072 N   0  0  0  0  0  4  0  0  0  0  0  0
   32.9764    7.7877   22.7325 C   0  0  0  0  0  0  0  0  0  0  0  0
   30.2145    5.7680   25.6023 O   0  0  0  0  0  0  0  0  0  0  0  0
   31.6921    2.7483   25.4467 N   0  0  0  0  0  0  0  0  0  0  0  0
   34.0888    6.2593   23.7773 O   0  0  0  0  0  0  0  0  0  0  0  0
   33.9200    8.5681   23.2669 O   0  0  0  0  0  0  0  0  0  0  0  0
   32.6195    2.8437   26.5338 C   0  0  0  0  0  0  0  0  0  0  0  0
   33.1635    4.1792   26.8945 C   0  0  2  0  0  0  0  0  0  0  0  0
   34.0748    4.2999   27.9994 C   0  0  0  0  0  0  0  0  0  0  0  0
   35.1788    5.3162   27.6468 C   0  0  0  0  0  0  0  0  0  0  0  0
   34.6525    6.6541   27.3103 C   0  0  0  0  0  0  0  0  0  0  0  0
   32.9838    1.8505   27.1843 O   0  0  0  0  0  0  0  0  0  0  0  0
   31.9533    5.0240   26.9331 N   0  0  0  0  0  0  0  0  0  0  0  0
   31.5549    6.1071   20.8278 C   0  0  0  0  0  0  0  0  0  0  0  0
   31.1924    7.5098   21.1332 C   0  0  0  0  0  0  0  0  0  0  0  0
   30.0057    8.0566   20.3685 C   0  0  0  0  0  0  0  0  0  0  0  0
   30.5039    8.7894   19.1800 C   0  0  0  0  0  0  0  0  0  0  0  0
   29.5678    9.6952   18.7204 O   0  0  0  0  0  0  0  0  0  0  0  0
   31.8219    8.2936   21.9866 C   0  0  0  0  0  0  0  0  0  0  0  0
   35.4822    7.3026   26.2929 N   0  0  0  0  0  4  0  0  0  0  0  0
   35.7719    8.5227   26.1253 C   0  0  0  0  0  0  0  0  0  0  0  0
   35.6339    9.6430   27.0736 C   0  0  0  0  0  0  0  0  0  0  0  0
   36.4749   10.6418   27.2045 C   0  0  0  0  0  0  0  0  0  0  0  0
   37.7244   10.8381   26.4274 C   0  0  0  0  0  0  0  0  0  0  0  0
   38.8850   11.0920   27.3491 C   0  0  0  0  0  0  0  0  0  0  0  0
   39.6406    9.9283   27.4731 O   0  0  0  0  0  0  0  0  0  0  0  0
   36.0468    6.5269   25.3590 O   0  0  0  0  0  0  0  0  0  0  0  0
   36.2719    8.8372   24.9209 O   0  0  0  0  0  0  0  0  0  0  0  0
   40.2869    9.3354   26.4053 C   0  0  0  0  0  0  0  0  0  0  0  0
   40.8843   10.1968   25.3640 C   0  0  2  0  0  0  0  0  0  0  0  0
   40.2087   10.0619   24.0444 C   0  0  0  0  0  0  0  0  0  0  0  0
   39.6311    8.7146   23.7373 C   0  0  0  0  0  0  0  0  0  0  0  0
   38.9043    8.8440   22.4130 C   0  0  0  0  0  0  0  0  0  0  0  0
   37.7411    7.9771   22.3127 N   0  0  0  0  0  4  0  0  0  0  0  0
   37.6307    6.7050   22.1201 C   0  0  0  0  0  0  0  0  0  0  0  0
   38.7062    5.9395   21.4915 C   0  0  0  0  0  0  0  0  0  0  0  0
   39.9850    5.9938   21.7277 C   0  0  0  0  0  0  0  0  0  0  0  0
   40.9931    6.3920   20.7379 C   0  0  0  0  0  0  0  0  0  0  0  0
   42.3800    6.3268   21.3828 C   0  0  0  0  0  0  0  0  0  0  0  0
   43.2271    7.1473   20.6840 O   0  0  0  0  0  0  0  0  0  0  0  0
   40.3582    8.0824   26.3356 O   0  0  0  0  0  0  0  0  0  0  0  0
   36.5393    8.5528   22.4237 O   0  0  0  0  0  0  0  0  0  0  0  0
   36.4960    6.1702   22.5255 O   0  0  0  0  0  0  0  0  0  0  0  0
   40.4893    5.6203   23.1255 C   0  0  0  0  0  0  0  0  0  0  0  0
   42.2923    9.8699   25.3159 N   0  0  0  0  0  0  0  0  0  0  0  0
   43.2189   10.8722   24.9377 C   0  0  0  0  0  0  0  0  0  0  0  0
   43.0017   11.5978   23.9079 O   0  0  0  0  0  0  0  0  0  0  0  0
   44.4731   11.1609   25.6690 C   0  0  0  0  0  0  0  0  0  0  0  0
   35.5077    7.4554   23.6480 Fe  0  0  0  0  0  6  0  0  0  0  0  0
  2  1  1  0
  1  8  2  0
  1 18  1  0
  2  3  1  6
  2  9  1  0
  4  3  1  0
  5  4  1  0
  6  5  1  0
  7  6  2  0
  6 10  1  0
  7 11  1  0
 24  7  1  0
  9 12  1  0
 12 13  1  0
 12 17  2  0
 13 14  1  1
 18 13  1  0
 14 15  1  0
 15 16  1  0
 16 25  1  0
 20 19  1  0
 20 21  1  0
 20 24  2  0
 21 22  1  0
 22 23  1  0
 25 26  2  0
 25 32  1  0
 26 27  1  0
 26 33  1  0
 27 28  2  0
 28 29  1  0
 29 30  1  0
 30 31  1  0
 31 34  1  0
 34 35  1  0
 34 46  2  0
 35 36  1  0
 35 50  1  6
 36 37  1  0
 37 38  1  0
 38 39  1  0
 39 40  2  0
 39 47  1  0
 40 41  1  0
 40 48  1  0
 41 42  2  0
 42 43  1  0
 42 49  1  0
 43 44  1  0
 44 45  1  0
 50 51  1  0
 51 52  2  0
 51 53  1  0
 10 54  1  0
 54 11  1  0
 54 32  1  0
 54 33  1  0
 54 47  1  0
 54 48  1  0
M  CHG  3   6   1  25   1  39   1
M  END
$$$$
