
     RDKit          3D

 54 59  0  0  0  0  0  0  0  0999 V2000
   41.1990    9.9482   23.6530 C   0  0  0  0  0  0  0  0  0  0  0  0
   40.5400   10.6997   22.5591 C   0  0  2  0  0  0  0  0  0  0  0  0
   41.0306   10.4535   21.2128 C   0  0  0  0  0  0  0  0  0  0  0  0
   40.5611    9.0577   20.8180 C   0  0  0  0  0  0  0  0  0  0  0  0
   39.0888    8.8581   20.8392 C   0  0  0  0  0  0  0  0  0  0  0  0
   38.6473    7.8405   21.8127 N   0  0  0  0  0  4  0  0  0  0  0  0
   38.8209    6.5786   21.8571 C   0  0  0  0  0  0  0  0  0  0  0  0
   42.1232    9.1503   23.4144 O   0  0  0  0  0  0  0  0  0  0  0  0
   40.4907   12.0719   23.0604 N   0  0  0  0  0  0  0  0  0  0  0  0
   37.9390    8.2909   22.8345 O   0  0  0  0  0  0  0  0  0  0  0  0
   38.0961    5.9264   22.7704 O   0  0  0  0  0  0  0  0  0  0  0  0
   39.8884   12.2046   24.3531 C   0  0  0  0  0  0  0  0  0  0  0  0
   39.5338   10.9732   25.1064 C   0  0  2  0  0  0  0  0  0  0  0  0
   38.9532   11.0848   26.4166 C   0  0  0  0  0  0  0  0  0  0  0  0
   37.8538   10.0175   26.5844 C   0  0  0  0  0  0  0  0  0  0  0  0
   38.3469    8.6388   26.3937 C   0  0  0  0  0  0  0  0  0  0  0  0
   39.6532   13.3113   24.8651 O   0  0  0  0  0  0  0  0  0  0  0  0
   40.7568   10.1548   24.9867 N   0  0  0  0  0  0  0  0  0  0  0  0
   42.2232    6.1614   21.2597 C   0  0  0  0  0  0  0  0  0  0  0  0
   40.9144    6.5095   20.6612 C   0  0  0  0  0  0  0  0  0  0  0  0
   40.9386    7.6425   19.6573 C   0  0  0  0  0  0  0  0  0  0  0  0
   40.4593    7.1297   18.3515 C   0  0  0  0  0  0  0  0  0  0  0  0
   40.5473    8.0975   17.3698 O   0  0  0  0  0  0  0  0  0  0  0  0
   39.7652    5.9287   20.9453 C   0  0  0  0  0  0  0  0  0  0  0  0
   37.3164    7.7931   25.7880 N   0  0  0  0  0  4  0  0  0  0  0  0
   37.0613    6.5649   25.9521 C   0  0  0  0  0  0  0  0  0  0  0  0
   37.5060    5.6661   27.0327 C   0  0  0  0  0  0  0  0  0  0  0  0
   36.7860    4.7164   27.5821 C   0  0  0  0  0  0  0  0  0  0  0  0
   35.3891    4.3630   27.2250 C   0  0  0  0  0  0  0  0  0  0  0  0
   34.5277    4.3062   28.4561 C   0  0  0  0  0  0  0  0  0  0  0  0
   33.7676    5.4704   28.5430 O   0  0  0  0  0  0  0  0  0  0  0  0
   36.4838    8.3580   24.9046 O   0  0  0  0  0  0  0  0  0  0  0  0
   36.2806    6.0070   25.0147 O   0  0  0  0  0  0  0  0  0  0  0  0
   32.8313    5.8285   27.5921 C   0  0  0  0  0  0  0  0  0  0  0  0
   32.0301    4.7696   26.9439 C   0  0  2  0  0  0  0  0  0  0  0  0
   32.3264    4.6273   25.4921 C   0  0  0  0  0  0  0  0  0  0  0  0
   32.7269    5.8813   24.7778 C   0  0  0  0  0  0  0  0  0  0  0  0
   33.0861    5.4796   23.3606 C   0  0  0  0  0  0  0  0  0  0  0  0
   34.1317    6.3066   22.7800 N   0  0  0  0  0  4  0  0  0  0  0  0
   34.1165    7.5108   22.3142 C   0  0  0  0  0  0  0  0  0  0  0  0
   32.8726    8.1292   21.8578 C   0  0  0  0  0  0  0  0  0  0  0  0
   32.0404    7.7036   20.9522 C   0  0  0  0  0  0  0  0  0  0  0  0
   30.7011    7.1770   21.2411 C   0  0  0  0  0  0  0  0  0  0  0  0
   29.8521    8.2862   21.8677 C   0  0  0  0  0  0  0  0  0  0  0  0
   28.5688    7.8266   22.0128 O   0  0  0  0  0  0  0  0  0  0  0  0
   32.6744    7.0397   27.2947 O   0  0  0  0  0  0  0  0  0  0  0  0
   35.3506    5.7664   22.6768 O   0  0  0  0  0  0  0  0  0  0  0  0
   35.2862    8.1182   22.2842 O   0  0  0  0  0  0  0  0  0  0  0  0
   32.4706    7.7471   19.4822 C   0  0  0  0  0  0  0  0  0  0  0  0
   30.6431    5.0795   27.2116 N   0  0  0  0  0  0  0  0  0  0  0  0
   30.0280    4.5394   28.3675 C   0  0  0  0  0  0  0  0  0  0  0  0
   30.5744    4.6779   29.5149 O   0  0  0  0  0  0  0  0  0  0  0  0
   28.7486    3.7951   28.3554 C   0  0  0  0  0  0  0  0  0  0  0  0
   36.6049    7.0942   23.3334 Fe  0  0  0  0  0  6  0  0  0  0  0  0
  2  1  1  0
  1  8  2  0
  1 18  1  0
  2  3  1  6
  2  9  1  0
  4  3  1  0
  5  4  1  0
  6  5  1  0
  7  6  2  0
  6 10  1  0
  7 11  1  0
 24  7  1  0
  9 12  1  0
 12 13  1  0
 12 17  2  0
 13 14  1  1
 18 13  1  0
 14 15  1  0
 15 16  1  0
 16 25  1  0
 20 19  1  0
 20 21  1  0
 20 24  2  0
 21 22  1  0
 22 23  1  0
 25 26  2  0
 25 32  1  0
 26 27  1  0
 26 33  1  0
 27 28  2  0
 28 29  1  0
 29 30  1  0
 30 31  1  0
 31 34  1  0
 34 35  1  0
 34 46  2  0
 35 36  1  0
 35 50  1  6
 36 37  1  0
 37 38  1  0
 38 39  1  0
 39 40  2  0
 39 47  1  0
 40 41  1  0
 40 48  1  0
 41 42  2  0
 42 43  1  0
 42 49  1  0
 43 44  1  0
 44 45  1  0
 50 51  1  0
 51 52  2  0
 51 53  1  0
 10 54  1  0
 54 11  1  0
 54 32  1  0
 54 33  1  0
 54 47  1  0
 54 48  1  0
M  CHG  3   6   1  25   1  39   1
M  END
$$$$
