
     RDKit          3D

 54 59  0  0  0  0  0  0  0  0999 V2000
   43.1355    7.5136   22.8719 C   0  0  0  0  0  0  0  0  0  0  0  0
   43.2259    7.5390   24.3611 C   0  0  2  0  0  0  0  0  0  0  0  0
   42.4541    6.3461   24.9793 C   0  0  0  0  0  0  0  0  0  0  0  0
   40.9953    6.6212   24.8316 C   0  0  0  0  0  0  0  0  0  0  0  0
   40.1419    5.6254   25.5483 C   0  0  0  0  0  0  0  0  0  0  0  0
   38.7208    6.1277   25.4896 N   0  0  0  0  0  4  0  0  0  0  0  0
   37.9286    6.3863   26.4329 C   0  0  0  0  0  0  0  0  0  0  0  0
   42.9169    6.3927   22.3246 O   0  0  0  0  0  0  0  0  0  0  0  0
   42.6582    8.8015   24.8157 N   0  0  0  0  0  0  0  0  0  0  0  0
   38.2697    6.3156   24.2844 O   0  0  0  0  0  0  0  0  0  0  0  0
   37.1251    7.4072   26.0618 O   0  0  0  0  0  0  0  0  0  0  0  0
   42.4297    9.9082   23.9385 C   0  0  0  0  0  0  0  0  0  0  0  0
   42.6075    9.9195   22.4869 C   0  0  2  0  0  0  0  0  0  0  0  0
   41.4133   10.1111   21.6383 C   0  0  0  0  0  0  0  0  0  0  0  0
   40.1180   10.4828   22.3263 C   0  0  0  0  0  0  0  0  0  0  0  0
   39.6024    9.2368   22.9748 C   0  0  0  0  0  0  0  0  0  0  0  0
   42.0331   11.0001   24.4695 O   0  0  0  0  0  0  0  0  0  0  0  0
   43.2844    8.6758   22.0901 N   0  0  0  0  0  0  0  0  0  0  0  0
   39.9685    4.5036   27.6779 C   0  0  0  0  0  0  0  0  0  0  0  0
   38.5242    4.5724   27.9840 C   0  0  0  0  0  0  0  0  0  0  0  0
   37.8226    3.3905   28.5321 C   0  0  0  0  0  0  0  0  0  0  0  0
   36.4696    3.7647   29.1137 C   0  0  0  0  0  0  0  0  0  0  0  0
   36.6184    3.9276   30.4767 O   0  0  0  0  0  0  0  0  0  0  0  0
   37.8785    5.6814   27.7633 C   0  0  0  0  0  0  0  0  0  0  0  0
   38.1608    9.1144   23.0715 N   0  0  0  0  0  4  0  0  0  0  0  0
   37.2704    9.8320   23.5850 C   0  0  0  0  0  0  0  0  0  0  0  0
   37.2827   11.2969   23.7863 C   0  0  0  0  0  0  0  0  0  0  0  0
   36.2499   12.0830   23.6417 C   0  0  0  0  0  0  0  0  0  0  0  0
   34.8770   11.7069   23.2567 C   0  0  0  0  0  0  0  0  0  0  0  0
   33.8391   12.2635   24.2305 C   0  0  0  0  0  0  0  0  0  0  0  0
   33.6644   11.4423   25.3336 O   0  0  0  0  0  0  0  0  0  0  0  0
   37.5957    7.9948   22.5143 O   0  0  0  0  0  0  0  0  0  0  0  0
   36.1734    9.2156   24.0057 O   0  0  0  0  0  0  0  0  0  0  0  0
   32.5263   10.9556   25.9123 C   0  0  0  0  0  0  0  0  0  0  0  0
   31.7867    9.8463   25.2584 C   0  0  2  0  0  0  0  0  0  0  0  0
   32.7697    8.6828   25.0460 C   0  0  0  0  0  0  0  0  0  0  0  0
   32.0775    7.3590   24.9956 C   0  0  0  0  0  0  0  0  0  0  0  0
   32.9752    6.2035   25.4382 C   0  0  0  0  0  0  0  0  0  0  0  0
   34.2052    6.2071   24.6060 N   0  0  0  0  0  4  0  0  0  0  0  0
   34.7910    5.3394   23.8788 C   0  0  0  0  0  0  0  0  0  0  0  0
   34.3018    3.9328   23.8905 C   0  0  0  0  0  0  0  0  0  0  0  0
   33.0268    3.6517   24.0856 C   0  0  0  0  0  0  0  0  0  0  0  0
   31.9824    4.6136   23.6943 C   0  0  0  0  0  0  0  0  0  0  0  0
   31.9654    4.8127   22.1997 C   0  0  0  0  0  0  0  0  0  0  0  0
   30.8873    5.6551   21.9167 O   0  0  0  0  0  0  0  0  0  0  0  0
   32.0233   11.3868   27.0095 O   0  0  0  0  0  0  0  0  0  0  0  0
   34.8131    7.3580   24.6204 O   0  0  0  0  0  0  0  0  0  0  0  0
   35.8216    5.7641   23.1410 O   0  0  0  0  0  0  0  0  0  0  0  0
   32.6417    2.3371   24.7112 C   0  0  0  0  0  0  0  0  0  0  0  0
   31.1685   10.2006   24.0163 N   0  0  0  0  0  0  0  0  0  0  0  0
   29.7485   10.1768   23.8257 C   0  0  0  0  0  0  0  0  0  0  0  0
   29.0151   10.2824   24.8293 O   0  0  0  0  0  0  0  0  0  0  0  0
   29.1416   10.0314   22.4824 C   0  0  0  0  0  0  0  0  0  0  0  0
   36.6226    7.3149   24.3099 Fe  0  0  0  0  0  6  0  0  0  0  0  0
  2  1  1  0
  1  8  2  0
  1 18  1  0
  3  2  1  1
  2  9  1  1
  4  3  1  0
  4  5  1  6
  5  6  1  6
  7  6  2  0
  6 10  1  0
  7 11  1  0
 24  7  1  0
  9 12  1  0
 12 13  1  0
 12 17  2  0
 14 13  1  1
 13 18  1  6
 14 15  1  0
 15 16  1  6
 16 25  1  6
 19 20  1  6
 21 20  1  1
 20 24  2  0
 21 22  1  0
 22 23  1  6
 25 26  2  0
 25 32  1  0
 26 27  1  0
 26 33  1  0
 27 28  2  0
 29 28  1  1
 29 30  1  0
 30 31  1  6
 31 34  1  0
 34 35  1  0
 34 46  2  0
 36 35  1  1
 35 50  1  6
 36 37  1  0
 37 38  1  6
 38 39  1  6
 39 40  2  0
 39 47  1  0
 40 41  1  0
 40 48  1  0
 41 42  2  0
 43 42  1  1
 49 42  1  6
 43 44  1  0
 44 45  1  6
 50 51  1  0
 51 52  2  0
 53 51  1  6
 10 54  1  0
 54 11  1  0
 54 32  1  0
 54 33  1  0
 54 47  1  0
 54 48  1  0
M  CHG  3   6   1  25   1  39   1
M  END
$$$$
