
     RDKit          3D

 54 59  0  0  0  0  0  0  0  0999 V2000
   34.5353   10.5435   20.8032 C   0  0  0  0  0  0  0  0  0  0  0  0
   33.2849   10.5465   21.5984 C   0  0  2  0  0  0  0  0  0  0  0  0
   32.1104    9.9678   20.9665 C   0  0  0  0  0  0  0  0  0  0  0  0
   32.3268    8.4591   20.9256 C   0  0  0  0  0  0  0  0  0  0  0  0
   32.5295    7.8151   22.2493 C   0  0  0  0  0  0  0  0  0  0  0  0
   33.8520    7.1766   22.3963 N   0  0  0  0  0  4  0  0  0  0  0  0
   34.3731    6.1651   21.8222 C   0  0  0  0  0  0  0  0  0  0  0  0
   34.5619   10.0654   19.6551 O   0  0  0  0  0  0  0  0  0  0  0  0
   33.2127   11.9073   22.1275 N   0  0  0  0  0  0  0  0  0  0  0  0
   34.6644    7.7329   23.2789 O   0  0  0  0  0  0  0  0  0  0  0  0
   35.5179    5.7250   22.3520 O   0  0  0  0  0  0  0  0  0  0  0  0
   34.3903   12.3309   22.8239 C   0  0  0  0  0  0  0  0  0  0  0  0
   35.5880   11.4508   22.8045 C   0  0  2  0  0  0  0  0  0  0  0  0
   36.7884   11.8702   23.4746 C   0  0  0  0  0  0  0  0  0  0  0  0
   37.4379   10.6588   24.1723 C   0  0  0  0  0  0  0  0  0  0  0  0
   37.7661    9.5590   23.2433 C   0  0  0  0  0  0  0  0  0  0  0  0
   34.4448   13.4067   23.4419 O   0  0  0  0  0  0  0  0  0  0  0  0
   35.7103   11.0990   21.3758 N   0  0  0  0  0  0  0  0  0  0  0  0
   32.1581    6.1011   18.8014 C   0  0  0  0  0  0  0  0  0  0  0  0
   32.5742    6.0346   20.2207 C   0  0  0  0  0  0  0  0  0  0  0  0
   31.5773    6.5861   21.2178 C   0  0  0  0  0  0  0  0  0  0  0  0
   30.7657    7.6308   20.5488 C   0  0  0  0  0  0  0  0  0  0  0  0
   29.5679    7.8332   21.2065 O   0  0  0  0  0  0  0  0  0  0  0  0
   33.7226    5.5572   20.6592 C   0  0  0  0  0  0  0  0  0  0  0  0
   37.6141    8.2579   23.8975 N   0  0  0  0  0  4  0  0  0  0  0  0
   38.2627    7.1822   23.7464 C   0  0  0  0  0  0  0  0  0  0  0  0
   39.5737    6.9772   23.1041 C   0  0  0  0  0  0  0  0  0  0  0  0
   40.5003    6.1402   23.5078 C   0  0  0  0  0  0  0  0  0  0  0  0
   40.4105    5.2404   24.6851 C   0  0  0  0  0  0  0  0  0  0  0  0
   41.6241    5.3924   25.5596 C   0  0  0  0  0  0  0  0  0  0  0  0
   41.3036    6.1798   26.6632 O   0  0  0  0  0  0  0  0  0  0  0  0
   36.6422    8.1261   24.8090 O   0  0  0  0  0  0  0  0  0  0  0  0
   37.6760    6.0804   24.2376 O   0  0  0  0  0  0  0  0  0  0  0  0
   40.3578    5.8099   27.6002 C   0  0  0  0  0  0  0  0  0  0  0  0
   40.2338    4.3836   27.9656 C   0  0  2  0  0  0  0  0  0  0  0  0
   38.9357    3.7895   27.5440 C   0  0  0  0  0  0  0  0  0  0  0  0
   37.7617    4.7194   27.5301 C   0  0  0  0  0  0  0  0  0  0  0  0
   36.5923    3.9361   26.9665 C   0  0  0  0  0  0  0  0  0  0  0  0
   35.6616    4.7616   26.2136 N   0  0  0  0  0  4  0  0  0  0  0  0
   34.7649    5.6103   26.5917 C   0  0  0  0  0  0  0  0  0  0  0  0
   34.1935    5.5575   27.9365 C   0  0  0  0  0  0  0  0  0  0  0  0
   34.5327    4.7908   28.9320 C   0  0  0  0  0  0  0  0  0  0  0  0
   35.8869    4.2680   29.1498 C   0  0  0  0  0  0  0  0  0  0  0  0
   35.8358    2.7381   29.1654 C   0  0  0  0  0  0  0  0  0  0  0  0
   37.0968    2.2600   29.4109 O   0  0  0  0  0  0  0  0  0  0  0  0
   39.6231    6.6842   28.1252 O   0  0  0  0  0  0  0  0  0  0  0  0
   35.6907    4.6544   24.8810 O   0  0  0  0  0  0  0  0  0  0  0  0
   34.4165    6.5029   25.6862 O   0  0  0  0  0  0  0  0  0  0  0  0
   33.4606    4.3973   29.9534 C   0  0  0  0  0  0  0  0  0  0  0  0
   40.4576    4.3022   29.3921 N   0  0  0  0  0  0  0  0  0  0  0  0
   40.9264    5.4473   30.0816 C   0  0  0  0  0  0  0  0  0  0  0  0
   41.5804    6.3530   29.4603 O   0  0  0  0  0  0  0  0  0  0  0  0
   40.7118    5.6917   31.5257 C   0  0  0  0  0  0  0  0  0  0  0  0
   35.6851    6.4633   24.1771 Fe  0  0  0  0  0  6  0  0  0  0  0  0
  2  1  1  0
  1  8  2  0
  1 18  1  0
  2  3  1  6
  2  9  1  0
  4  3  1  0
  5  4  1  0
  6  5  1  0
  7  6  2  0
  6 10  1  0
  7 11  1  0
 24  7  1  0
  9 12  1  0
 12 13  1  0
 12 17  2  0
 13 14  1  6
 18 13  1  0
 14 15  1  0
 15 16  1  0
 16 25  1  0
 20 19  1  0
 20 21  1  0
 20 24  2  0
 21 22  1  0
 22 23  1  0
 25 26  2  0
 25 32  1  0
 26 27  1  0
 26 33  1  0
 27 28  2  0
 28 29  1  0
 29 30  1  0
 30 31  1  0
 31 34  1  0
 34 35  1  0
 34 46  2  0
 35 36  1  0
 35 50  1  1
 36 37  1  0
 37 38  1  0
 38 39  1  0
 39 40  2  0
 39 47  1  0
 40 41  1  0
 40 48  1  0
 41 42  2  0
 42 43  1  0
 42 49  1  0
 43 44  1  0
 44 45  1  0
 50 51  1  0
 51 52  2  0
 51 53  1  0
 10 54  1  0
 54 11  1  0
 54 32  1  0
 54 33  1  0
 54 47  1  0
 54 48  1  0
M  CHG  3   6   1  25   1  39   1
M  END
$$$$
