
     RDKit          3D

 54 59  0  0  0  0  0  0  0  0999 V2000
   31.3993    9.7908   29.8496 C   0  0  0  0  0  0  0  0  0  0  0  0
   30.6061   10.0274   28.6082 C   0  0  2  0  0  0  0  0  0  0  0  0
   30.5399    8.7425   27.7446 C   0  0  0  0  0  0  0  0  0  0  0  0
   31.8821    8.5393   27.1261 C   0  0  0  0  0  0  0  0  0  0  0  0
   31.8979    7.4279   26.1270 C   0  0  0  0  0  0  0  0  0  0  0  0
   33.2401    7.4618   25.4394 N   0  0  0  0  0  4  0  0  0  0  0  0
   33.5039    7.5817   24.2146 C   0  0  0  0  0  0  0  0  0  0  0  0
   31.4790    8.5977   30.2667 O   0  0  0  0  0  0  0  0  0  0  0  0
   31.2541   11.1030   27.8692 N   0  0  0  0  0  0  0  0  0  0  0  0
   34.2558    7.3520   26.2441 O   0  0  0  0  0  0  0  0  0  0  0  0
   34.6679    8.2547   24.0817 O   0  0  0  0  0  0  0  0  0  0  0  0
   32.2283   11.9693   28.4580 C   0  0  0  0  0  0  0  0  0  0  0  0
   32.7981   11.8539   29.8000 C   0  0  2  0  0  0  0  0  0  0  0  0
   34.2419   11.5654   29.9234 C   0  0  0  0  0  0  0  0  0  0  0  0
   35.0745   11.6070   28.6608 C   0  0  0  0  0  0  0  0  0  0  0  0
   34.7689   10.3539   27.9025 C   0  0  0  0  0  0  0  0  0  0  0  0
   32.6450   12.9456   27.7474 O   0  0  0  0  0  0  0  0  0  0  0  0
   32.0396   10.8365   30.5429 N   0  0  0  0  0  0  0  0  0  0  0  0
   31.6805    5.3979   24.4935 C   0  0  0  0  0  0  0  0  0  0  0  0
   31.9878    5.9567   23.1601 C   0  0  0  0  0  0  0  0  0  0  0  0
   31.5326    5.2583   21.9377 C   0  0  0  0  0  0  0  0  0  0  0  0
   31.3318    6.2264   20.7839 C   0  0  0  0  0  0  0  0  0  0  0  0
   30.0987    6.8283   20.9380 O   0  0  0  0  0  0  0  0  0  0  0  0
   32.6642    7.0661   23.0750 C   0  0  0  0  0  0  0  0  0  0  0  0
   35.8482    9.8109   27.1007 N   0  0  0  0  0  4  0  0  0  0  0  0
   36.5512   10.2809   26.1754 C   0  0  0  0  0  0  0  0  0  0  0  0
   36.9197   11.6929   25.9366 C   0  0  0  0  0  0  0  0  0  0  0  0
   38.0821   12.1025   25.5045 C   0  0  0  0  0  0  0  0  0  0  0  0
   39.2588   11.2811   25.1655 C   0  0  0  0  0  0  0  0  0  0  0  0
   39.8035   11.6113   23.7764 C   0  0  0  0  0  0  0  0  0  0  0  0
   39.1381   10.9196   22.7761 O   0  0  0  0  0  0  0  0  0  0  0  0
   36.2136    8.5123   27.3523 O   0  0  0  0  0  0  0  0  0  0  0  0
   37.0324    9.4168   25.2910 O   0  0  0  0  0  0  0  0  0  0  0  0
   39.6174   10.1851   21.7285 C   0  0  0  0  0  0  0  0  0  0  0  0
   40.1747    8.8309   21.9754 C   0  0  2  0  0  0  0  0  0  0  0  0
   39.1043    8.0055   22.7090 C   0  0  0  0  0  0  0  0  0  0  0  0
   39.2582    6.5382   22.4691 C   0  0  0  0  0  0  0  0  0  0  0  0
   37.9391    5.7757   22.5940 C   0  0  0  0  0  0  0  0  0  0  0  0
   37.3520    6.0506   23.9302 N   0  0  0  0  0  4  0  0  0  0  0  0
   36.9513    5.3195   24.8944 C   0  0  0  0  0  0  0  0  0  0  0  0
   36.8834    3.8436   24.7068 C   0  0  0  0  0  0  0  0  0  0  0  0
   37.6594    3.2267   23.8349 C   0  0  0  0  0  0  0  0  0  0  0  0
   38.9553    3.8089   23.4466 C   0  0  0  0  0  0  0  0  0  0  0  0
   40.0977    3.0395   24.0605 C   0  0  0  0  0  0  0  0  0  0  0  0
   41.2762    3.5982   23.5595 O   0  0  0  0  0  0  0  0  0  0  0  0
   39.6282   10.5753   20.5077 O   0  0  0  0  0  0  0  0  0  0  0  0
   37.2277    7.3244   24.1672 O   0  0  0  0  0  0  0  0  0  0  0  0
   36.6164    5.9429   26.0284 O   0  0  0  0  0  0  0  0  0  0  0  0
   37.2138    1.9183   23.2371 C   0  0  0  0  0  0  0  0  0  0  0  0
   41.3978    8.8227   22.7200 N   0  0  0  0  0  0  0  0  0  0  0  0
   42.6192    8.2898   22.1933 C   0  0  0  0  0  0  0  0  0  0  0  0
   42.6840    8.0572   20.9694 O   0  0  0  0  0  0  0  0  0  0  0  0
   43.7894    8.0131   23.0582 C   0  0  0  0  0  0  0  0  0  0  0  0
   35.9014    7.7967   25.3463 Fe  0  0  0  0  0  6  0  0  0  0  0  0
  2  1  1  0
  1  8  2  0
  1 18  1  0
  3  2  1  1
  2  9  1  6
  4  3  1  0
  4  5  1  6
  5  6  1  6
  7  6  2  0
  6 10  1  0
  7 11  1  0
 24  7  1  0
  9 12  1  0
 12 13  1  0
 12 17  2  0
 14 13  1  1
 13 18  1  6
 14 15  1  0
 15 16  1  6
 16 25  1  6
 19 20  1  6
 21 20  1  1
 20 24  2  0
 21 22  1  0
 22 23  1  6
 25 26  2  0
 25 32  1  0
 26 27  1  0
 26 33  1  0
 27 28  2  0
 29 28  1  1
 29 30  1  0
 30 31  1  6
 31 34  1  0
 34 35  1  0
 34 46  2  0
 36 35  1  1
 35 50  1  1
 36 37  1  0
 37 38  1  6
 38 39  1  6
 39 40  2  0
 39 47  1  0
 40 41  1  0
 40 48  1  0
 41 42  2  0
 43 42  1  1
 49 42  1  6
 43 44  1  0
 44 45  1  6
 50 51  1  0
 51 52  2  0
 53 51  1  6
 10 54  1  0
 54 11  1  0
 54 32  1  0
 54 33  1  0
 54 47  1  0
 54 48  1  0
M  CHG  3   6   1  25   1  39   1
M  END
$$$$
