
     RDKit          3D

 54 59  0  0  0  0  0  0  0  0999 V2000
   35.5831   13.4386   21.6955 C   0  0  0  0  0  0  0  0  0  0  0  0
   35.9273   12.5735   20.5295 C   0  0  2  0  0  0  0  0  0  0  0  0
   34.9166   11.4071   20.3928 C   0  0  0  0  0  0  0  0  0  0  0  0
   35.1909   10.4350   21.4907 C   0  0  0  0  0  0  0  0  0  0  0  0
   34.3959    9.1760   21.3626 C   0  0  0  0  0  0  0  0  0  0  0  0
   34.9103    8.2128   22.4032 N   0  0  0  0  0  4  0  0  0  0  0  0
   35.3869    7.0578   22.2520 C   0  0  0  0  0  0  0  0  0  0  0  0
   34.3765   13.4383   22.0799 O   0  0  0  0  0  0  0  0  0  0  0  0
   37.2725   12.0571   20.7456 N   0  0  0  0  0  0  0  0  0  0  0  0
   34.8450    8.6588   23.6231 O   0  0  0  0  0  0  0  0  0  0  0  0
   36.3240    6.8435   23.2015 O   0  0  0  0  0  0  0  0  0  0  0  0
   38.1690   12.6124   21.7122 C   0  0  0  0  0  0  0  0  0  0  0  0
   37.8618   13.6636   22.6816 C   0  0  2  0  0  0  0  0  0  0  0  0
   37.8964   13.3207   24.1183 C   0  0  0  0  0  0  0  0  0  0  0  0
   38.4413   11.9620   24.5008 C   0  0  0  0  0  0  0  0  0  0  0  0
   37.3786   10.9629   24.1673 C   0  0  0  0  0  0  0  0  0  0  0  0
   39.3598   12.1507   21.7350 O   0  0  0  0  0  0  0  0  0  0  0  0
   36.5447   14.2296   22.3542 N   0  0  0  0  0  0  0  0  0  0  0  0
   34.1195    5.6620   18.9868 C   0  0  0  0  0  0  0  0  0  0  0  0
   34.0740    6.3391   20.2998 C   0  0  0  0  0  0  0  0  0  0  0  0
   33.0021    7.3148   20.5971 C   0  0  0  0  0  0  0  0  0  0  0  0
   32.3534    7.0382   21.9430 C   0  0  0  0  0  0  0  0  0  0  0  0
   31.5805    8.1317   22.2800 O   0  0  0  0  0  0  0  0  0  0  0  0
   34.9877    6.0693   21.1875 C   0  0  0  0  0  0  0  0  0  0  0  0
   37.3174    9.7865   25.0128 N   0  0  0  0  0  4  0  0  0  0  0  0
   38.1518    8.9008   25.3139 C   0  0  0  0  0  0  0  0  0  0  0  0
   39.6247    9.0170   25.3725 C   0  0  0  0  0  0  0  0  0  0  0  0
   40.3875    8.4484   26.2672 C   0  0  0  0  0  0  0  0  0  0  0  0
   39.9727    7.5872   27.3900 C   0  0  0  0  0  0  0  0  0  0  0  0
   40.7532    6.2737   27.4195 C   0  0  0  0  0  0  0  0  0  0  0  0
   40.1946    5.3151   26.5884 O   0  0  0  0  0  0  0  0  0  0  0  0
   36.1188    9.5292   25.6298 O   0  0  0  0  0  0  0  0  0  0  0  0
   37.6694    7.7034   25.6210 O   0  0  0  0  0  0  0  0  0  0  0  0
   39.8740    4.0078   26.8234 C   0  0  0  0  0  0  0  0  0  0  0  0
   38.6691    3.6804   27.6273 C   0  0  2  0  0  0  0  0  0  0  0  0
   37.4622    4.3758   26.9755 C   0  0  0  0  0  0  0  0  0  0  0  0
   36.1772    3.6700   27.2666 C   0  0  0  0  0  0  0  0  0  0  0  0
   35.1218    3.8894   26.1826 C   0  0  0  0  0  0  0  0  0  0  0  0
   34.9136    5.3492   26.0056 N   0  0  0  0  0  4  0  0  0  0  0  0
   33.8945    6.1140   26.0396 C   0  0  0  0  0  0  0  0  0  0  0  0
   32.5368    5.5103   26.1402 C   0  0  0  0  0  0  0  0  0  0  0  0
   32.2864    4.5212   26.9780 C   0  0  0  0  0  0  0  0  0  0  0  0
   32.1340    4.7844   28.4189 C   0  0  0  0  0  0  0  0  0  0  0  0
   32.1675    6.2649   28.7031 C   0  0  0  0  0  0  0  0  0  0  0  0
   32.0455    6.4133   30.0870 O   0  0  0  0  0  0  0  0  0  0  0  0
   40.5450    3.0033   26.3951 O   0  0  0  0  0  0  0  0  0  0  0  0
   36.0243    5.9859   25.7705 O   0  0  0  0  0  0  0  0  0  0  0  0
   34.1229    7.4299   25.9838 O   0  0  0  0  0  0  0  0  0  0  0  0
   32.1548    3.1160   26.4525 C   0  0  0  0  0  0  0  0  0  0  0  0
   38.7626    4.0492   29.0079 N   0  0  0  0  0  0  0  0  0  0  0  0
   38.5182    3.1226   30.0732 C   0  0  0  0  0  0  0  0  0  0  0  0
   38.4896    1.9050   29.8033 O   0  0  0  0  0  0  0  0  0  0  0  0
   38.3017    3.5729   31.4676 C   0  0  0  0  0  0  0  0  0  0  0  0
   35.8683    7.5501   24.8212 Fe  0  0  0  0  0  6  0  0  0  0  0  0
  2  1  1  0
  1  8  2  0
  1 18  1  0
  3  2  1  1
  2  9  1  1
  4  3  1  0
  4  5  1  6
  5  6  1  6
  7  6  2  0
  6 10  1  0
  7 11  1  0
 24  7  1  0
  9 12  1  0
 12 13  1  0
 12 17  2  0
 14 13  1  1
 13 18  1  6
 14 15  1  0
 15 16  1  6
 16 25  1  6
 19 20  1  6
 21 20  1  1
 20 24  2  0
 21 22  1  0
 22 23  1  6
 25 26  2  0
 25 32  1  0
 26 27  1  0
 26 33  1  0
 27 28  2  0
 29 28  1  1
 29 30  1  0
 30 31  1  6
 31 34  1  0
 34 35  1  0
 34 46  2  0
 36 35  1  1
 35 50  1  1
 36 37  1  0
 37 38  1  6
 38 39  1  6
 39 40  2  0
 39 47  1  0
 40 41  1  0
 40 48  1  0
 41 42  2  0
 43 42  1  1
 49 42  1  6
 43 44  1  0
 44 45  1  6
 50 51  1  0
 51 52  2  0
 53 51  1  6
 10 54  1  0
 54 11  1  0
 54 32  1  0
 54 33  1  0
 54 47  1  0
 54 48  1  0
M  CHG  3   6   1  25   1  39   1
M  END
$$$$
