
     RDKit          3D

 54 59  0  0  0  0  0  0  0  0999 V2000
   39.1606   11.6334   22.6669 C   0  0  0  0  0  0  0  0  0  0  0  0
   37.9236   12.1172   22.0100 C   0  0  2  0  0  0  0  0  0  0  0  0
   37.9194   12.1258   20.5561 C   0  0  0  0  0  0  0  0  0  0  0  0
   37.8397   10.6719   20.1041 C   0  0  0  0  0  0  0  0  0  0  0  0
   36.6479    9.9263   20.5858 C   0  0  0  0  0  0  0  0  0  0  0  0
   36.9821    8.7823   21.4562 N   0  0  0  0  0  4  0  0  0  0  0  0
   37.5769    7.6807   21.2168 C   0  0  0  0  0  0  0  0  0  0  0  0
   40.1367   11.2566   21.9940 O   0  0  0  0  0  0  0  0  0  0  0  0
   37.6052   13.3479   22.7314 N   0  0  0  0  0  0  0  0  0  0  0  0
   36.6065    8.8914   22.7193 O   0  0  0  0  0  0  0  0  0  0  0  0
   37.5203    6.7687   22.1914 O   0  0  0  0  0  0  0  0  0  0  0  0
   37.5314   13.1939   24.1535 C   0  0  0  0  0  0  0  0  0  0  0  0
   37.9296   11.8934   24.7534 C   0  0  2  0  0  0  0  0  0  0  0  0
   37.8883   11.7275   26.1805 C   0  0  0  0  0  0  0  0  0  0  0  0
   37.3678   10.3167   26.5193 C   0  0  0  0  0  0  0  0  0  0  0  0
   38.1881    9.2375   25.9341 C   0  0  0  0  0  0  0  0  0  0  0  0
   37.1472   14.1082   24.9009 O   0  0  0  0  0  0  0  0  0  0  0  0
   39.2150   11.6070   24.0858 N   0  0  0  0  0  0  0  0  0  0  0  0
   40.5593    8.4233   19.7737 C   0  0  0  0  0  0  0  0  0  0  0  0
   39.1069    8.3819   19.4890 C   0  0  0  0  0  0  0  0  0  0  0  0
   38.5822    9.5035   18.6178 C   0  0  0  0  0  0  0  0  0  0  0  0
   39.2126    9.3998   17.2801 C   0  0  0  0  0  0  0  0  0  0  0  0
   38.5458   10.1734   16.3501 O   0  0  0  0  0  0  0  0  0  0  0  0
   38.2650    7.4730   19.9406 C   0  0  0  0  0  0  0  0  0  0  0  0
   37.3585    8.0861   25.5732 N   0  0  0  0  0  4  0  0  0  0  0  0
   37.6182    6.8480   25.5952 C   0  0  0  0  0  0  0  0  0  0  0  0
   38.7156    6.1471   26.2863 C   0  0  0  0  0  0  0  0  0  0  0  0
   38.6263    4.9754   26.8704 C   0  0  0  0  0  0  0  0  0  0  0  0
   37.4084    4.1303   26.9497 C   0  0  0  0  0  0  0  0  0  0  0  0
   37.1525    3.7049   28.3690 C   0  0  0  0  0  0  0  0  0  0  0  0
   36.1357    4.4881   28.9107 O   0  0  0  0  0  0  0  0  0  0  0  0
   36.1153    8.3236   25.1367 O   0  0  0  0  0  0  0  0  0  0  0  0
   36.7802    6.0699   24.8938 O   0  0  0  0  0  0  0  0  0  0  0  0
   34.8478    4.4976   28.4104 C   0  0  0  0  0  0  0  0  0  0  0  0
   34.2720    3.2381   27.8953 C   0  0  2  0  0  0  0  0  0  0  0  0
   34.0253    3.2727   26.4278 C   0  0  0  0  0  0  0  0  0  0  0  0
   33.6738    4.6100   25.8525 C   0  0  0  0  0  0  0  0  0  0  0  0
   33.5824    4.4275   24.3501 C   0  0  0  0  0  0  0  0  0  0  0  0
   33.9819    5.6109   23.6055 N   0  0  0  0  0  4  0  0  0  0  0  0
   33.3835    6.7350   23.3916 C   0  0  0  0  0  0  0  0  0  0  0  0
   31.9297    6.8497   23.4983 C   0  0  0  0  0  0  0  0  0  0  0  0
   31.1196    6.1926   24.2767 C   0  0  0  0  0  0  0  0  0  0  0  0
   31.2188    4.7537   24.5490 C   0  0  0  0  0  0  0  0  0  0  0  0
   30.6738    3.9785   23.3467 C   0  0  0  0  0  0  0  0  0  0  0  0
   31.3571    2.7947   23.2424 O   0  0  0  0  0  0  0  0  0  0  0  0
   34.1889    5.5680   28.4013 O   0  0  0  0  0  0  0  0  0  0  0  0
   35.1755    5.5795   23.0036 O   0  0  0  0  0  0  0  0  0  0  0  0
   34.1729    7.7425   23.0757 O   0  0  0  0  0  0  0  0  0  0  0  0
   29.9809    6.9553   24.9618 C   0  0  0  0  0  0  0  0  0  0  0  0
   33.0740    2.9867   28.6657 N   0  0  0  0  0  0  0  0  0  0  0  0
   32.7818    3.8182   29.7744 C   0  0  0  0  0  0  0  0  0  0  0  0
   33.6757    4.0569   30.6566 O   0  0  0  0  0  0  0  0  0  0  0  0
   31.4688    4.4615   30.0056 C   0  0  0  0  0  0  0  0  0  0  0  0
   36.0534    7.2596   23.4207 Fe  0  0  0  0  0  6  0  0  0  0  0  0
  2  1  1  0
  1  8  2  0
  1 18  1  0
  2  3  1  6
  2  9  1  0
  4  3  1  0
  5  4  1  0
  6  5  1  0
  7  6  2  0
  6 10  1  0
  7 11  1  0
 24  7  1  0
  9 12  1  0
 12 13  1  0
 12 17  2  0
 13 14  1  1
 18 13  1  0
 14 15  1  0
 15 16  1  0
 16 25  1  0
 20 19  1  0
 20 21  1  0
 20 24  2  0
 21 22  1  0
 22 23  1  0
 25 26  2  0
 25 32  1  0
 26 27  1  0
 26 33  1  0
 27 28  2  0
 28 29  1  0
 29 30  1  0
 30 31  1  0
 31 34  1  0
 34 35  1  0
 34 46  2  0
 35 36  1  0
 35 50  1  1
 36 37  1  0
 37 38  1  0
 38 39  1  0
 39 40  2  0
 39 47  1  0
 40 41  1  0
 40 48  1  0
 41 42  2  0
 42 43  1  0
 42 49  1  0
 43 44  1  0
 44 45  1  0
 50 51  1  0
 51 52  2  0
 51 53  1  0
 10 54  1  0
 54 11  1  0
 54 32  1  0
 54 33  1  0
 54 47  1  0
 54 48  1  0
M  CHG  3   6   1  25   1  39   1
M  END
$$$$
