
     RDKit          3D

 54 59  0  0  0  0  0  0  0  0999 V2000
   38.3017   12.1220   20.3782 C   0  0  0  0  0  0  0  0  0  0  0  0
   39.4888   11.2523   20.6245 C   0  0  2  0  0  0  0  0  0  0  0  0
   39.1648    9.7733   20.2950 C   0  0  0  0  0  0  0  0  0  0  0  0
   38.2698    9.2524   21.3688 C   0  0  0  0  0  0  0  0  0  0  0  0
   38.0277    7.7817   21.2593 C   0  0  0  0  0  0  0  0  0  0  0  0
   37.2864    7.3553   22.5019 N   0  0  0  0  0  4  0  0  0  0  0  0
   37.6054    6.4944   23.3628 C   0  0  0  0  0  0  0  0  0  0  0  0
   37.4426   11.7064   19.5457 O   0  0  0  0  0  0  0  0  0  0  0  0
   39.8536   11.3916   22.0283 N   0  0  0  0  0  0  0  0  0  0  0  0
   36.1614    7.9790   22.6935 O   0  0  0  0  0  0  0  0  0  0  0  0
   37.1383    6.8874   24.5682 O   0  0  0  0  0  0  0  0  0  0  0  0
   39.3671   12.4544   22.8529 C   0  0  0  0  0  0  0  0  0  0  0  0
   38.3770   13.4635   22.4782 C   0  0  2  0  0  0  0  0  0  0  0  0
   37.0844   13.4733   23.1937 C   0  0  0  0  0  0  0  0  0  0  0  0
   36.9453   12.5711   24.4003 C   0  0  0  0  0  0  0  0  0  0  0  0
   36.7805   11.1782   23.8793 C   0  0  0  0  0  0  0  0  0  0  0  0
   39.8427   12.5386   24.0354 O   0  0  0  0  0  0  0  0  0  0  0  0
   38.1257   13.3565   21.0333 N   0  0  0  0  0  0  0  0  0  0  0  0
   40.3668    6.5377   22.7535 C   0  0  0  0  0  0  0  0  0  0  0  0
   39.6434    5.2490   22.7739 C   0  0  0  0  0  0  0  0  0  0  0  0
   40.3459    3.9957   22.4202 C   0  0  0  0  0  0  0  0  0  0  0  0
   39.4051    2.8028   22.4442 C   0  0  0  0  0  0  0  0  0  0  0  0
   40.0262    1.7529   21.7973 O   0  0  0  0  0  0  0  0  0  0  0  0
   38.3837    5.2309   23.1031 C   0  0  0  0  0  0  0  0  0  0  0  0
   35.9685   10.2855   24.6832 N   0  0  0  0  0  4  0  0  0  0  0  0
   36.0338    9.9049   25.8757 C   0  0  0  0  0  0  0  0  0  0  0  0
   36.6063   10.6254   27.0333 C   0  0  0  0  0  0  0  0  0  0  0  0
   36.1091   10.6207   28.2409 C   0  0  0  0  0  0  0  0  0  0  0  0
   34.9017    9.9204   28.7164 C   0  0  0  0  0  0  0  0  0  0  0  0
   35.1829    9.0814   29.9624 C   0  0  0  0  0  0  0  0  0  0  0  0
   35.6828    7.8276   29.6462 O   0  0  0  0  0  0  0  0  0  0  0  0
   34.8979    9.6936   24.0613 O   0  0  0  0  0  0  0  0  0  0  0  0
   35.5310    8.7082   26.1507 O   0  0  0  0  0  0  0  0  0  0  0  0
   35.3119    6.5847   30.0758 C   0  0  0  0  0  0  0  0  0  0  0  0
   34.0680    5.9670   29.5500 C   0  0  2  0  0  0  0  0  0  0  0  0
   34.1594    5.9524   28.0149 C   0  0  0  0  0  0  0  0  0  0  0  0
   33.3397    4.8590   27.4095 C   0  0  0  0  0  0  0  0  0  0  0  0
   33.8785    4.3939   26.0566 C   0  0  0  0  0  0  0  0  0  0  0  0
   33.9757    5.5671   25.1512 N   0  0  0  0  0  4  0  0  0  0  0  0
   33.5266    5.8344   23.9886 C   0  0  0  0  0  0  0  0  0  0  0  0
   32.8504    4.7619   23.2073 C   0  0  0  0  0  0  0  0  0  0  0  0
   31.5489    4.5615   23.3016 C   0  0  0  0  0  0  0  0  0  0  0  0
   30.6490    5.6662   23.6741 C   0  0  0  0  0  0  0  0  0  0  0  0
   30.4428    6.6080   22.5147 C   0  0  0  0  0  0  0  0  0  0  0  0
   29.3155    7.3770   22.8146 O   0  0  0  0  0  0  0  0  0  0  0  0
   35.9666    5.8794   30.9223 O   0  0  0  0  0  0  0  0  0  0  0  0
   34.6697    6.5393   25.6682 O   0  0  0  0  0  0  0  0  0  0  0  0
   33.6963    7.0844   23.5466 O   0  0  0  0  0  0  0  0  0  0  0  0
   30.9845    3.1931   23.0240 C   0  0  0  0  0  0  0  0  0  0  0  0
   32.8634    6.6209   29.9647 N   0  0  0  0  0  0  0  0  0  0  0  0
   31.8119    5.9365   30.6570 C   0  0  0  0  0  0  0  0  0  0  0  0
   31.9819    4.7368   30.9536 O   0  0  0  0  0  0  0  0  0  0  0  0
   30.5459    6.6129   31.0223 C   0  0  0  0  0  0  0  0  0  0  0  0
   35.4904    7.6654   24.4721 Fe  0  0  0  0  0  6  0  0  0  0  0  0
  2  1  1  0
  1  8  2  0
  1 18  1  0
  3  2  1  1
  2  9  1  1
  4  3  1  0
  4  5  1  6
  5  6  1  6
  7  6  2  0
  6 10  1  0
  7 11  1  0
 24  7  1  0
  9 12  1  0
 12 13  1  0
 12 17  2  0
 14 13  1  1
 13 18  1  6
 14 15  1  0
 15 16  1  6
 16 25  1  6
 19 20  1  6
 21 20  1  1
 20 24  2  0
 21 22  1  0
 22 23  1  6
 25 26  2  0
 25 32  1  0
 26 27  1  0
 26 33  1  0
 27 28  2  0
 29 28  1  1
 29 30  1  0
 30 31  1  6
 31 34  1  0
 34 35  1  0
 34 46  2  0
 36 35  1  1
 35 50  1  6
 36 37  1  0
 37 38  1  6
 38 39  1  6
 39 40  2  0
 39 47  1  0
 40 41  1  0
 40 48  1  0
 41 42  2  0
 43 42  1  1
 49 42  1  6
 43 44  1  0
 44 45  1  6
 50 51  1  0
 51 52  2  0
 53 51  1  6
 10 54  1  0
 54 11  1  0
 54 32  1  0
 54 33  1  0
 54 47  1  0
 54 48  1  0
M  CHG  3   6   1  25   1  39   1
M  END
$$$$
