
     RDKit          3D

 54 59  0  0  0  0  0  0  0  0999 V2000
   33.9178    3.2004   27.8483 C   0  0  0  0  0  0  0  0  0  0  0  0
   33.3832    2.5637   26.6217 C   0  0  2  0  0  0  0  0  0  0  0  0
   31.9368    2.4541   26.5228 C   0  0  0  0  0  0  0  0  0  0  0  0
   31.4012    3.8603   26.2772 C   0  0  0  0  0  0  0  0  0  0  0  0
   31.9194    4.5279   25.0549 C   0  0  0  0  0  0  0  0  0  0  0  0
   32.6899    5.7547   25.3366 N   0  0  0  0  0  4  0  0  0  0  0  0
   32.3396    6.8858   25.8082 C   0  0  0  0  0  0  0  0  0  0  0  0
   33.1542    3.6155   28.7383 O   0  0  0  0  0  0  0  0  0  0  0  0
   34.2016    1.3623   26.4686 N   0  0  0  0  0  0  0  0  0  0  0  0
   33.9811    5.7001   25.0568 O   0  0  0  0  0  0  0  0  0  0  0  0
   33.2565    7.8543   25.7303 O   0  0  0  0  0  0  0  0  0  0  0  0
   35.6127    1.6071   26.4743 C   0  0  0  0  0  0  0  0  0  0  0  0
   36.0995    2.9763   26.7871 C   0  0  2  0  0  0  0  0  0  0  0  0
   37.5127    3.2363   26.8243 C   0  0  0  0  0  0  0  0  0  0  0  0
   37.7986    4.6149   26.1969 C   0  0  0  0  0  0  0  0  0  0  0  0
   37.0894    5.7201   26.8719 C   0  0  0  0  0  0  0  0  0  0  0  0
   36.4418    0.7160   26.2277 O   0  0  0  0  0  0  0  0  0  0  0  0
   35.3247    3.3297   27.9932 N   0  0  0  0  0  0  0  0  0  0  0  0
   29.9345    6.3100   24.2729 C   0  0  0  0  0  0  0  0  0  0  0  0
   29.9331    6.8015   25.6696 C   0  0  0  0  0  0  0  0  0  0  0  0
   28.5655    7.0225   26.2804 C   0  0  0  0  0  0  0  0  0  0  0  0
   27.6027    7.3199   25.1931 C   0  0  0  0  0  0  0  0  0  0  0  0
   27.6934    8.6378   24.7895 O   0  0  0  0  0  0  0  0  0  0  0  0
   31.0068    7.0654   26.3882 C   0  0  0  0  0  0  0  0  0  0  0  0
   36.7173    6.7649   25.9159 N   0  0  0  0  0  4  0  0  0  0  0  0
   36.6427    8.0198   26.0588 C   0  0  0  0  0  0  0  0  0  0  0  0
   37.2078    8.8622   27.1286 C   0  0  0  0  0  0  0  0  0  0  0  0
   37.7220   10.0588   26.9682 C   0  0  0  0  0  0  0  0  0  0  0  0
   37.8354   10.7950   25.6841 C   0  0  0  0  0  0  0  0  0  0  0  0
   39.2398   11.2931   25.4832 C   0  0  0  0  0  0  0  0  0  0  0  0
   39.9013   10.4614   24.5825 O   0  0  0  0  0  0  0  0  0  0  0  0
   36.3871    6.3876   24.6744 O   0  0  0  0  0  0  0  0  0  0  0  0
   35.9559    8.6695   25.1072 O   0  0  0  0  0  0  0  0  0  0  0  0
   39.4964   10.3021   23.2710 C   0  0  0  0  0  0  0  0  0  0  0  0
   38.9459   11.4665   22.5467 C   0  0  2  0  0  0  0  0  0  0  0  0
   37.5049   11.3085   22.2084 C   0  0  0  0  0  0  0  0  0  0  0  0
   37.0416    9.9085   21.9471 C   0  0  0  0  0  0  0  0  0  0  0  0
   35.5412    9.9777   21.7404 C   0  0  0  0  0  0  0  0  0  0  0  0
   34.8457    8.7861   22.1994 N   0  0  0  0  0  4  0  0  0  0  0  0
   34.7464    7.6009   21.6966 C   0  0  0  0  0  0  0  0  0  0  0  0
   34.9643    7.3643   20.2702 C   0  0  0  0  0  0  0  0  0  0  0  0
   34.2153    7.7177   19.2661 C   0  0  0  0  0  0  0  0  0  0  0  0
   32.9801    7.0295   18.8725 C   0  0  0  0  0  0  0  0  0  0  0  0
   32.4549    7.6480   17.5743 C   0  0  0  0  0  0  0  0  0  0  0  0
   31.1913    7.1705   17.3413 O   0  0  0  0  0  0  0  0  0  0  0  0
   39.6020    9.1791   22.7164 O   0  0  0  0  0  0  0  0  0  0  0  0
   34.1588    8.8825   23.3427 O   0  0  0  0  0  0  0  0  0  0  0  0
   34.4386    6.6486   22.5547 O   0  0  0  0  0  0  0  0  0  0  0  0
   34.6359    8.9297   18.4283 C   0  0  0  0  0  0  0  0  0  0  0  0
   39.7830   11.6624   21.3837 N   0  0  0  0  0  0  0  0  0  0  0  0
   41.0797   11.0927   21.3653 C   0  0  0  0  0  0  0  0  0  0  0  0
   42.0879   11.7922   21.0069 O   0  0  0  0  0  0  0  0  0  0  0  0
   41.3759    9.6926   21.7435 C   0  0  0  0  0  0  0  0  0  0  0  0
   34.6165    7.3205   24.4001 Fe  0  0  0  0  0  6  0  0  0  0  0  0
  2  1  1  0
  1  8  2  0
  1 18  1  0
  2  3  1  1
  2  9  1  0
  4  3  1  0
  5  4  1  0
  6  5  1  0
  7  6  2  0
  6 10  1  0
  7 11  1  0
 24  7  1  0
  9 12  1  0
 12 13  1  0
 12 17  2  0
 13 14  1  1
 18 13  1  0
 14 15  1  0
 15 16  1  0
 16 25  1  0
 20 19  1  0
 20 21  1  0
 20 24  2  0
 21 22  1  0
 22 23  1  0
 25 26  2  0
 25 32  1  0
 26 27  1  0
 26 33  1  0
 27 28  2  0
 28 29  1  0
 29 30  1  0
 30 31  1  0
 31 34  1  0
 34 35  1  0
 34 46  2  0
 35 36  1  0
 35 50  1  6
 36 37  1  0
 37 38  1  0
 38 39  1  0
 39 40  2  0
 39 47  1  0
 40 41  1  0
 40 48  1  0
 41 42  2  0
 42 43  1  0
 42 49  1  0
 43 44  1  0
 44 45  1  0
 50 51  1  0
 51 52  2  0
 51 53  1  0
 10 54  1  0
 54 11  1  0
 54 32  1  0
 54 33  1  0
 54 47  1  0
 54 48  1  0
M  CHG  3   6   1  25   1  39   1
M  END
$$$$
