
     RDKit          3D

 54 59  0  0  0  0  0  0  0  0999 V2000
   40.8549    9.3445   22.6367 C   0  0  0  0  0  0  0  0  0  0  0  0
   40.0648    9.4236   21.3856 C   0  0  2  0  0  0  0  0  0  0  0  0
   40.4437    8.5126   20.3178 C   0  0  0  0  0  0  0  0  0  0  0  0
   40.0085    7.1169   20.7503 C   0  0  0  0  0  0  0  0  0  0  0  0
   38.5554    6.9651   21.0213 C   0  0  0  0  0  0  0  0  0  0  0  0
   38.2526    6.6020   22.4194 N   0  0  0  0  0  4  0  0  0  0  0  0
   38.4901    5.5450   23.0908 C   0  0  0  0  0  0  0  0  0  0  0  0
   41.7912    8.5335   22.7516 O   0  0  0  0  0  0  0  0  0  0  0  0
   39.9947   10.8572   21.1087 N   0  0  0  0  0  0  0  0  0  0  0  0
   37.6181    7.5206   23.1279 O   0  0  0  0  0  0  0  0  0  0  0  0
   37.8825    5.4646   24.2778 O   0  0  0  0  0  0  0  0  0  0  0  0
   39.5054   11.6440   22.2009 C   0  0  0  0  0  0  0  0  0  0  0  0
   39.2795   10.9835   23.5132 C   0  0  2  0  0  0  0  0  0  0  0  0
   38.8144   11.7611   24.6289 C   0  0  0  0  0  0  0  0  0  0  0  0
   37.7872   10.9414   25.4345 C   0  0  0  0  0  0  0  0  0  0  0  0
   38.3269    9.6610   25.9337 C   0  0  0  0  0  0  0  0  0  0  0  0
   39.2641   12.8571   22.0890 O   0  0  0  0  0  0  0  0  0  0  0  0
   40.5248   10.2148   23.7093 N   0  0  0  0  0  0  0  0  0  0  0  0
   39.4908    3.3271   20.3684 C   0  0  0  0  0  0  0  0  0  0  0  0
   39.6656    4.4902   21.2678 C   0  0  0  0  0  0  0  0  0  0  0  0
   40.2399    5.7327   20.6207 C   0  0  0  0  0  0  0  0  0  0  0  0
   39.3506    6.1421   19.5075 C   0  0  0  0  0  0  0  0  0  0  0  0
   39.7960    7.3061   18.9119 O   0  0  0  0  0  0  0  0  0  0  0  0
   39.3787    4.5114   22.5547 C   0  0  0  0  0  0  0  0  0  0  0  0
   37.2881    8.6293   25.9599 N   0  0  0  0  0  4  0  0  0  0  0  0
   37.1083    7.6655   26.7595 C   0  0  0  0  0  0  0  0  0  0  0  0
   37.6910    7.4546   28.0971 C   0  0  0  0  0  0  0  0  0  0  0  0
   37.0699    6.9312   29.1278 C   0  0  0  0  0  0  0  0  0  0  0  0
   35.6652    6.4514   29.1487 C   0  0  0  0  0  0  0  0  0  0  0  0
   34.9216    7.0458   30.3126 C   0  0  0  0  0  0  0  0  0  0  0  0
   34.1172    8.0905   29.8631 O   0  0  0  0  0  0  0  0  0  0  0  0
   36.3533    8.6590   25.0019 O   0  0  0  0  0  0  0  0  0  0  0  0
   36.2742    6.7067   26.3297 O   0  0  0  0  0  0  0  0  0  0  0  0
   33.0831    7.9089   28.9648 C   0  0  0  0  0  0  0  0  0  0  0  0
   32.2789    6.6717   29.0417 C   0  0  2  0  0  0  0  0  0  0  0  0
   32.4500    5.7958   27.8503 C   0  0  0  0  0  0  0  0  0  0  0  0
   32.7239    6.4958   26.5549 C   0  0  0  0  0  0  0  0  0  0  0  0
   32.9731    5.4156   25.5205 C   0  0  0  0  0  0  0  0  0  0  0  0
   33.9213    5.8162   24.4934 N   0  0  0  0  0  4  0  0  0  0  0  0
   33.8064    6.6046   23.4772 C   0  0  0  0  0  0  0  0  0  0  0  0
   32.4982    6.9036   22.8966 C   0  0  0  0  0  0  0  0  0  0  0  0
   32.0017    6.4969   21.7643 C   0  0  0  0  0  0  0  0  0  0  0  0
   32.6641    6.6588   20.4645 C   0  0  0  0  0  0  0  0  0  0  0  0
   32.2384    7.9945   19.8493 C   0  0  0  0  0  0  0  0  0  0  0  0
   30.9924    8.3169   20.3211 O   0  0  0  0  0  0  0  0  0  0  0  0
   32.8420    8.7913   28.1028 O   0  0  0  0  0  0  0  0  0  0  0  0
   35.1506    5.2942   24.5603 O   0  0  0  0  0  0  0  0  0  0  0  0
   34.9381    7.1021   23.0191 O   0  0  0  0  0  0  0  0  0  0  0  0
   30.6363    5.8016   21.7695 C   0  0  0  0  0  0  0  0  0  0  0  0
   30.9081    7.0830   29.2506 N   0  0  0  0  0  0  0  0  0  0  0  0
   29.8949    6.0951   29.3112 C   0  0  0  0  0  0  0  0  0  0  0  0
   28.8585    6.2759   30.0375 O   0  0  0  0  0  0  0  0  0  0  0  0
   29.9397    4.8143   28.5704 C   0  0  0  0  0  0  0  0  0  0  0  0
   36.3935    6.7631   24.3057 Fe  0  0  0  0  0  6  0  0  0  0  0  0
  2  1  1  0
  1  8  2  0
  1 18  1  0
  2  3  1  6
  2  9  1  0
  4  3  1  0
  5  4  1  0
  6  5  1  0
  7  6  2  0
  6 10  1  0
  7 11  1  0
 24  7  1  0
  9 12  1  0
 12 13  1  0
 12 17  2  0
 13 14  1  1
 18 13  1  0
 14 15  1  0
 15 16  1  0
 16 25  1  0
 20 19  1  0
 20 21  1  0
 20 24  2  0
 21 22  1  0
 22 23  1  0
 25 26  2  0
 25 32  1  0
 26 27  1  0
 26 33  1  0
 27 28  2  0
 28 29  1  0
 29 30  1  0
 30 31  1  0
 31 34  1  0
 34 35  1  0
 34 46  2  0
 35 36  1  0
 35 50  1  6
 36 37  1  0
 37 38  1  0
 38 39  1  0
 39 40  2  0
 39 47  1  0
 40 41  1  0
 40 48  1  0
 41 42  2  0
 42 43  1  0
 42 49  1  0
 43 44  1  0
 44 45  1  0
 50 51  1  0
 51 52  2  0
 51 53  1  0
 10 54  1  0
 54 11  1  0
 54 32  1  0
 54 33  1  0
 54 47  1  0
 54 48  1  0
M  CHG  3   6   1  25   1  39   1
M  END
$$$$
