
     RDKit          3D

 54 59  0  0  0  0  0  0  0  0999 V2000
   37.9664    4.9991   29.2052 C   0  0  0  0  0  0  0  0  0  0  0  0
   37.6891    3.7234   28.5041 C   0  0  2  0  0  0  0  0  0  0  0  0
   36.7266    2.8321   29.1311 C   0  0  0  0  0  0  0  0  0  0  0  0
   35.3525    3.4687   28.9552 C   0  0  0  0  0  0  0  0  0  0  0  0
   34.9435    3.7068   27.5466 C   0  0  0  0  0  0  0  0  0  0  0  0
   34.7405    5.1331   27.2263 N   0  0  0  0  0  4  0  0  0  0  0  0
   33.8701    5.9752   27.6234 C   0  0  0  0  0  0  0  0  0  0  0  0
   37.3956    5.2784   30.2746 O   0  0  0  0  0  0  0  0  0  0  0  0
   39.0179    3.2155   28.1678 N   0  0  0  0  0  0  0  0  0  0  0  0
   35.6026    5.6595   26.3730 O   0  0  0  0  0  0  0  0  0  0  0  0
   33.8448    7.1364   26.9631 O   0  0  0  0  0  0  0  0  0  0  0  0
   39.8409    4.1469   27.4562 C   0  0  0  0  0  0  0  0  0  0  0  0
   39.3536    5.5397   27.2765 C   0  0  2  0  0  0  0  0  0  0  0  0
   40.1763    6.4966   26.5887 C   0  0  0  0  0  0  0  0  0  0  0  0
   39.2915    7.3859   25.6930 C   0  0  0  0  0  0  0  0  0  0  0  0
   38.2423    8.1056   26.4421 C   0  0  0  0  0  0  0  0  0  0  0  0
   40.9458    3.8311   26.9853 O   0  0  0  0  0  0  0  0  0  0  0  0
   38.9004    5.9036   28.6338 N   0  0  0  0  0  0  0  0  0  0  0  0
   32.9234    4.6098   30.9980 C   0  0  0  0  0  0  0  0  0  0  0  0
   33.4608    5.5128   29.9550 C   0  0  0  0  0  0  0  0  0  0  0  0
   34.6555    6.3462   30.3681 C   0  0  0  0  0  0  0  0  0  0  0  0
   34.1705    7.6527   30.8735 C   0  0  0  0  0  0  0  0  0  0  0  0
   35.2073    8.4089   31.3846 O   0  0  0  0  0  0  0  0  0  0  0  0
   32.9760    5.6469   28.7361 C   0  0  0  0  0  0  0  0  0  0  0  0
   37.0326    8.2603   25.6317 N   0  0  0  0  0  4  0  0  0  0  0  0
   36.1844    9.1982   25.5933 C   0  0  0  0  0  0  0  0  0  0  0  0
   36.3043   10.5730   26.1121 C   0  0  0  0  0  0  0  0  0  0  0  0
   35.8244   11.6512   25.5383 C   0  0  0  0  0  0  0  0  0  0  0  0
   35.0709   11.6977   24.2601 C   0  0  0  0  0  0  0  0  0  0  0  0
   35.6657   12.7216   23.3335 C   0  0  0  0  0  0  0  0  0  0  0  0
   36.4394   12.0793   22.3694 O   0  0  0  0  0  0  0  0  0  0  0  0
   36.7215    7.2762   24.7787 O   0  0  0  0  0  0  0  0  0  0  0  0
   35.0191    8.8989   25.0001 O   0  0  0  0  0  0  0  0  0  0  0  0
   35.9124   11.1848   21.4576 C   0  0  0  0  0  0  0  0  0  0  0  0
   34.5607   11.4314   20.9141 C   0  0  2  0  0  0  0  0  0  0  0  0
   33.5703   10.4048   21.3395 C   0  0  0  0  0  0  0  0  0  0  0  0
   34.1082    9.0241   21.5570 C   0  0  0  0  0  0  0  0  0  0  0  0
   32.9604    8.1883   22.0888 C   0  0  0  0  0  0  0  0  0  0  0  0
   33.3903    7.1456   23.0067 N   0  0  0  0  0  4  0  0  0  0  0  0
   33.9747    6.0116   22.8071 C   0  0  0  0  0  0  0  0  0  0  0  0
   33.9029    5.3423   21.5091 C   0  0  0  0  0  0  0  0  0  0  0  0
   32.8709    4.7949   20.9352 C   0  0  0  0  0  0  0  0  0  0  0  0
   32.4190    3.4203   21.1821 C   0  0  0  0  0  0  0  0  0  0  0  0
   30.8988    3.3558   21.0137 C   0  0  0  0  0  0  0  0  0  0  0  0
   30.4813    2.0796   21.2893 O   0  0  0  0  0  0  0  0  0  0  0  0
   36.5846   10.1829   21.1052 O   0  0  0  0  0  0  0  0  0  0  0  0
   33.1526    7.3416   24.3079 O   0  0  0  0  0  0  0  0  0  0  0  0
   34.6224    5.5211   23.8452 O   0  0  0  0  0  0  0  0  0  0  0  0
   32.0629    5.6252   19.9325 C   0  0  0  0  0  0  0  0  0  0  0  0
   34.7036   11.5201   19.4776 N   0  0  0  0  0  0  0  0  0  0  0  0
   33.9563   12.4937   18.7706 C   0  0  0  0  0  0  0  0  0  0  0  0
   33.2872   13.3801   19.4036 O   0  0  0  0  0  0  0  0  0  0  0  0
   33.8832   12.5723   17.2942 C   0  0  0  0  0  0  0  0  0  0  0  0
   34.7929    6.8984   25.2460 Fe  0  0  0  0  0  6  0  0  0  0  0  0
  2  1  1  0
  1  8  2  0
  1 18  1  0
  2  3  1  1
  2  9  1  0
  4  3  1  0
  5  4  1  0
  6  5  1  0
  7  6  2  0
  6 10  1  0
  7 11  1  0
 24  7  1  0
  9 12  1  0
 12 13  1  0
 12 17  2  0
 13 14  1  1
 18 13  1  0
 14 15  1  0
 15 16  1  0
 16 25  1  0
 20 19  1  0
 20 21  1  0
 20 24  2  0
 21 22  1  0
 22 23  1  0
 25 26  2  0
 25 32  1  0
 26 27  1  0
 26 33  1  0
 27 28  2  0
 28 29  1  0
 29 30  1  0
 30 31  1  0
 31 34  1  0
 34 35  1  0
 34 46  2  0
 35 36  1  0
 35 50  1  6
 36 37  1  0
 37 38  1  0
 38 39  1  0
 39 40  2  0
 39 47  1  0
 40 41  1  0
 40 48  1  0
 41 42  2  0
 42 43  1  0
 42 49  1  0
 43 44  1  0
 44 45  1  0
 50 51  1  0
 51 52  2  0
 51 53  1  0
 10 54  1  0
 54 11  1  0
 54 32  1  0
 54 33  1  0
 54 47  1  0
 54 48  1  0
M  CHG  3   6   1  25   1  39   1
M  END
$$$$
