
     RDKit          3D

 54 59  0  0  0  0  0  0  0  0999 V2000
   31.2145    6.6472   27.7521 C   0  0  0  0  0  0  0  0  0  0  0  0
   31.9812    5.4080   28.0208 C   0  0  2  0  0  0  0  0  0  0  0  0
   31.3948    4.1645   27.5476 C   0  0  0  0  0  0  0  0  0  0  0  0
   31.5237    4.1633   26.0284 C   0  0  0  0  0  0  0  0  0  0  0  0
   32.9136    4.2682   25.5134 C   0  0  0  0  0  0  0  0  0  0  0  0
   33.1544    5.4855   24.7144 N   0  0  0  0  0  4  0  0  0  0  0  0
   32.7044    5.8583   23.5817 C   0  0  0  0  0  0  0  0  0  0  0  0
   30.1265    6.6085   27.1503 O   0  0  0  0  0  0  0  0  0  0  0  0
   32.3563    5.5294   29.4283 N   0  0  0  0  0  0  0  0  0  0  0  0
   33.9855    6.3667   25.2446 O   0  0  0  0  0  0  0  0  0  0  0  0
   33.3006    6.9270   23.0455 O   0  0  0  0  0  0  0  0  0  0  0  0
   33.0238    6.7536   29.7557 C   0  0  0  0  0  0  0  0  0  0  0  0
   33.1234    7.8133   28.7180 C   0  0  2  0  0  0  0  0  0  0  0  0
   33.7657    9.0594   29.0350 C   0  0  0  0  0  0  0  0  0  0  0  0
   34.6040    9.5272   27.8290 C   0  0  0  0  0  0  0  0  0  0  0  0
   33.8076    9.6975   26.5974 C   0  0  0  0  0  0  0  0  0  0  0  0
   33.5210    6.9595   30.8749 O   0  0  0  0  0  0  0  0  0  0  0  0
   31.7444    7.8880   28.1957 N   0  0  0  0  0  0  0  0  0  0  0  0
   31.4603    3.3774   24.7073 C   0  0  0  0  0  0  0  0  0  0  0  0
   31.3152    3.9027   23.3306 C   0  0  0  0  0  0  0  0  0  0  0  0
   30.8074    2.9107   22.3057 C   0  0  0  0  0  0  0  0  0  0  0  0
   29.3331    2.8148   22.4281 C   0  0  0  0  0  0  0  0  0  0  0  0
   28.7810    2.1636   21.3423 O   0  0  0  0  0  0  0  0  0  0  0  0
   31.6033    5.1309   22.9466 C   0  0  0  0  0  0  0  0  0  0  0  0
   34.5976    9.3593   25.4118 N   0  0  0  0  0  4  0  0  0  0  0  0
   34.5775    9.8480   24.2450 C   0  0  0  0  0  0  0  0  0  0  0  0
   33.9861   11.1180   23.7862 C   0  0  0  0  0  0  0  0  0  0  0  0
   34.4964   11.9144   22.8765 C   0  0  0  0  0  0  0  0  0  0  0  0
   35.7634   11.6936   22.1351 C   0  0  0  0  0  0  0  0  0  0  0  0
   36.6384   12.9141   22.2099 C   0  0  0  0  0  0  0  0  0  0  0  0
   37.6427   12.7064   23.1526 O   0  0  0  0  0  0  0  0  0  0  0  0
   35.4998    8.3761   25.5214 O   0  0  0  0  0  0  0  0  0  0  0  0
   35.1757    9.1085   23.2990 O   0  0  0  0  0  0  0  0  0  0  0  0
   38.5969   11.7149   23.0270 C   0  0  0  0  0  0  0  0  0  0  0  0
   39.1142   11.3873   21.6823 C   0  0  2  0  0  0  0  0  0  0  0  0
   38.7362   10.0188   21.2349 C   0  0  0  0  0  0  0  0  0  0  0  0
   38.5986    8.9898   22.3144 C   0  0  0  0  0  0  0  0  0  0  0  0
   38.1026    7.7220   21.6470 C   0  0  0  0  0  0  0  0  0  0  0  0
   37.2465    6.9209   22.5071 N   0  0  0  0  0  4  0  0  0  0  0  0
   37.5125    6.1537   23.5110 C   0  0  0  0  0  0  0  0  0  0  0  0
   38.8441    5.5768   23.6897 C   0  0  0  0  0  0  0  0  0  0  0  0
   39.8836    6.1015   24.2712 C   0  0  0  0  0  0  0  0  0  0  0  0
   41.2652    5.6543   24.0575 C   0  0  0  0  0  0  0  0  0  0  0  0
   42.0324    6.7436   23.3036 C   0  0  0  0  0  0  0  0  0  0  0  0
   43.3006    6.2899   23.0490 O   0  0  0  0  0  0  0  0  0  0  0  0
   39.0091   11.1112   24.0496 O   0  0  0  0  0  0  0  0  0  0  0  0
   35.9345    6.9381   22.2493 O   0  0  0  0  0  0  0  0  0  0  0  0
   36.5082    5.9389   24.3377 O   0  0  0  0  0  0  0  0  0  0  0  0
   39.6696    7.2633   25.2470 C   0  0  0  0  0  0  0  0  0  0  0  0
   40.5450   11.5933   21.7292 N   0  0  0  0  0  0  0  0  0  0  0  0
   41.3142   11.3467   20.5657 C   0  0  0  0  0  0  0  0  0  0  0  0
   42.4672   10.8022   20.6566 O   0  0  0  0  0  0  0  0  0  0  0  0
   40.8733   11.6827   19.1931 C   0  0  0  0  0  0  0  0  0  0  0  0
   35.0365    7.1930   23.9510 Fe  0  0  0  0  0  6  0  0  0  0  0  0
  2  1  1  0
  1  8  2  0
  1 18  1  0
  2  3  1  1
  2  9  1  0
  4  3  1  0
  5  4  1  0
  6  5  1  0
  7  6  2  0
  6 10  1  0
  7 11  1  0
 24  7  1  0
  9 12  1  0
 12 13  1  0
 12 17  2  0
 13 14  1  1
 18 13  1  0
 14 15  1  0
 15 16  1  0
 16 25  1  0
 20 19  1  0
 20 21  1  0
 20 24  2  0
 21 22  1  0
 22 23  1  0
 25 26  2  0
 25 32  1  0
 26 27  1  0
 26 33  1  0
 27 28  2  0
 28 29  1  0
 29 30  1  0
 30 31  1  0
 31 34  1  0
 34 35  1  0
 34 46  2  0
 35 36  1  0
 35 50  1  1
 36 37  1  0
 37 38  1  0
 38 39  1  0
 39 40  2  0
 39 47  1  0
 40 41  1  0
 40 48  1  0
 41 42  2  0
 42 43  1  0
 42 49  1  0
 43 44  1  0
 44 45  1  0
 50 51  1  0
 51 52  2  0
 51 53  1  0
 10 54  1  0
 54 11  1  0
 54 32  1  0
 54 33  1  0
 54 47  1  0
 54 48  1  0
M  CHG  3   6   1  25   1  39   1
M  END
$$$$
