
     RDKit          3D

 54 59  0  0  0  0  0  0  0  0999 V2000
   37.9143   10.5330   19.4820 C   0  0  0  0  0  0  0  0  0  0  0  0
   39.0325    9.5984   19.8019 C   0  0  2  0  0  0  0  0  0  0  0  0
   38.5316    8.1325   19.8351 C   0  0  0  0  0  0  0  0  0  0  0  0
   37.7209    7.9557   21.0748 C   0  0  0  0  0  0  0  0  0  0  0  0
   37.3272    6.5337   21.3125 C   0  0  0  0  0  0  0  0  0  0  0  0
   36.6970    6.4654   22.6813 N   0  0  0  0  0  4  0  0  0  0  0  0
   37.0291    5.7700   23.6764 C   0  0  0  0  0  0  0  0  0  0  0  0
   36.9287   10.0589   18.8436 O   0  0  0  0  0  0  0  0  0  0  0  0
   39.5691    9.9812   21.1013 N   0  0  0  0  0  0  0  0  0  0  0  0
   35.6671    7.2445   22.8350 O   0  0  0  0  0  0  0  0  0  0  0  0
   36.7447    6.4570   24.8046 O   0  0  0  0  0  0  0  0  0  0  0  0
   39.2860   11.2421   21.7148 C   0  0  0  0  0  0  0  0  0  0  0  0
   38.3610   12.2620   21.2216 C   0  0  2  0  0  0  0  0  0  0  0  0
   37.1669   12.5736   22.0339 C   0  0  0  0  0  0  0  0  0  0  0  0
   37.0821   11.9642   23.4163 C   0  0  0  0  0  0  0  0  0  0  0  0
   36.7246   10.5233   23.2299 C   0  0  0  0  0  0  0  0  0  0  0  0
   39.9010   11.5124   22.8012 O   0  0  0  0  0  0  0  0  0  0  0  0
   37.9350   11.8885   19.8647 N   0  0  0  0  0  0  0  0  0  0  0  0
   37.6450    3.8716   21.2861 C   0  0  0  0  0  0  0  0  0  0  0  0
   37.3522    3.5373   22.6957 C   0  0  0  0  0  0  0  0  0  0  0  0
   36.7280    2.2403   23.0386 C   0  0  0  0  0  0  0  0  0  0  0  0
   36.4765    2.1196   24.5323 C   0  0  0  0  0  0  0  0  0  0  0  0
   35.1683    1.7179   24.7164 O   0  0  0  0  0  0  0  0  0  0  0  0
   37.6467    4.3967   23.6285 C   0  0  0  0  0  0  0  0  0  0  0  0
   35.9289    9.9196   24.2811 N   0  0  0  0  0  4  0  0  0  0  0  0
   36.0949    9.7895   25.5168 C   0  0  0  0  0  0  0  0  0  0  0  0
   36.8641   10.6610   26.4308 C   0  0  0  0  0  0  0  0  0  0  0  0
   36.5119   10.9659   27.6508 C   0  0  0  0  0  0  0  0  0  0  0  0
   35.3058   10.5280   28.3775 C   0  0  0  0  0  0  0  0  0  0  0  0
   35.6472    9.9382   29.7453 C   0  0  0  0  0  0  0  0  0  0  0  0
   35.9840    8.5958   29.6662 O   0  0  0  0  0  0  0  0  0  0  0  0
   34.7415    9.3432   23.9054 O   0  0  0  0  0  0  0  0  0  0  0  0
   35.5143    8.7443   26.0921 O   0  0  0  0  0  0  0  0  0  0  0  0
   35.5473    7.5221   30.3897 C   0  0  0  0  0  0  0  0  0  0  0  0
   34.1973    6.9612   30.1289 C   0  0  2  0  0  0  0  0  0  0  0  0
   34.1085    6.6179   28.6325 C   0  0  0  0  0  0  0  0  0  0  0  0
   33.1227    5.5281   28.3593 C   0  0  0  0  0  0  0  0  0  0  0  0
   33.4541    4.7320   27.0970 C   0  0  0  0  0  0  0  0  0  0  0  0
   33.5584    5.6719   25.9519 N   0  0  0  0  0  4  0  0  0  0  0  0
   33.0056    5.7438   24.8055 C   0  0  0  0  0  0  0  0  0  0  0  0
   32.1433    4.6208   24.3436 C   0  0  0  0  0  0  0  0  0  0  0  0
   30.9189    4.4596   24.8101 C   0  0  0  0  0  0  0  0  0  0  0  0
   29.9970    5.6048   24.8976 C   0  0  0  0  0  0  0  0  0  0  0  0
   30.3151    6.6348   23.8433 C   0  0  0  0  0  0  0  0  0  0  0  0
   29.9642    7.8784   24.3747 O   0  0  0  0  0  0  0  0  0  0  0  0
   36.2246    6.9348   31.3057 O   0  0  0  0  0  0  0  0  0  0  0  0
   34.3980    6.6406   26.1774 O   0  0  0  0  0  0  0  0  0  0  0  0
   33.2427    6.8458   24.0871 O   0  0  0  0  0  0  0  0  0  0  0  0
   30.4650    3.0937   25.2531 C   0  0  0  0  0  0  0  0  0  0  0  0
   33.1173    7.8253   30.5000 N   0  0  0  0  0  0  0  0  0  0  0  0
   31.7423    7.4486   30.3567 C   0  0  0  0  0  0  0  0  0  0  0  0
   31.3805    6.3455   30.8134 O   0  0  0  0  0  0  0  0  0  0  0  0
   30.7557    8.3277   29.6875 C   0  0  0  0  0  0  0  0  0  0  0  0
   35.1794    7.3885   24.6933 Fe  0  0  0  0  0  6  0  0  0  0  0  0
  2  1  1  0
  1  8  2  0
  1 18  1  0
  3  2  1  1
  2  9  1  1
  4  3  1  0
  4  5  1  6
  5  6  1  6
  7  6  2  0
  6 10  1  0
  7 11  1  0
 24  7  1  0
  9 12  1  0
 12 13  1  0
 12 17  2  0
 14 13  1  1
 13 18  1  6
 14 15  1  0
 15 16  1  6
 16 25  1  6
 19 20  1  6
 21 20  1  1
 20 24  2  0
 21 22  1  0
 22 23  1  6
 25 26  2  0
 25 32  1  0
 26 27  1  0
 26 33  1  0
 27 28  2  0
 29 28  1  1
 29 30  1  0
 30 31  1  6
 31 34  1  0
 34 35  1  0
 34 46  2  0
 36 35  1  1
 35 50  1  6
 36 37  1  0
 37 38  1  6
 38 39  1  6
 39 40  2  0
 39 47  1  0
 40 41  1  0
 40 48  1  0
 41 42  2  0
 43 42  1  1
 49 42  1  6
 43 44  1  0
 44 45  1  6
 50 51  1  0
 51 52  2  0
 53 51  1  6
 10 54  1  0
 54 11  1  0
 54 32  1  0
 54 33  1  0
 54 47  1  0
 54 48  1  0
M  CHG  3   6   1  25   1  39   1
M  END
$$$$
