
     RDKit          3D

 54 59  0  0  0  0  0  0  0  0999 V2000
   30.8909    7.1589   26.7223 C   0  0  0  0  0  0  0  0  0  0  0  0
   31.3353    5.7869   27.0627 C   0  0  2  0  0  0  0  0  0  0  0  0
   30.6596    4.6957   26.3797 C   0  0  0  0  0  0  0  0  0  0  0  0
   31.1369    4.7154   24.9318 C   0  0  0  0  0  0  0  0  0  0  0  0
   32.6038    4.5643   24.7493 C   0  0  0  0  0  0  0  0  0  0  0  0
   33.2415    5.7354   24.1167 N   0  0  0  0  0  4  0  0  0  0  0  0
   33.1437    6.2226   22.9430 C   0  0  0  0  0  0  0  0  0  0  0  0
   29.9848    7.3501   25.8916 O   0  0  0  0  0  0  0  0  0  0  0  0
   31.3874    5.7906   28.5235 N   0  0  0  0  0  0  0  0  0  0  0  0
   34.0719    6.4222   24.8830 O   0  0  0  0  0  0  0  0  0  0  0  0
   34.0324    7.1710   22.6342 O   0  0  0  0  0  0  0  0  0  0  0  0
   32.1712    6.8516   29.0814 C   0  0  0  0  0  0  0  0  0  0  0  0
   32.7010    7.9027   28.1737 C   0  0  2  0  0  0  0  0  0  0  0  0
   33.4671    8.9904   28.7176 C   0  0  0  0  0  0  0  0  0  0  0  0
   34.6342    9.3231   27.7673 C   0  0  0  0  0  0  0  0  0  0  0  0
   34.1917    9.6817   26.4051 C   0  0  0  0  0  0  0  0  0  0  0  0
   32.4225    6.9232   30.2955 O   0  0  0  0  0  0  0  0  0  0  0  0
   31.5191    8.2593   27.3638 N   0  0  0  0  0  0  0  0  0  0  0  0
   31.7871    3.5166   23.0935 C   0  0  0  0  0  0  0  0  0  0  0  0
   31.3377    4.7291   22.3723 C   0  0  0  0  0  0  0  0  0  0  0  0
   29.8691    4.7614   22.0057 C   0  0  0  0  0  0  0  0  0  0  0  0
   29.3462    3.3743   22.0187 C   0  0  0  0  0  0  0  0  0  0  0  0
   27.9758    3.3533   21.8465 O   0  0  0  0  0  0  0  0  0  0  0  0
   32.1077    5.7420   22.0259 C   0  0  0  0  0  0  0  0  0  0  0  0
   35.1615    9.2328   25.4041 N   0  0  0  0  0  4  0  0  0  0  0  0
   35.5033    9.7512   24.3018 C   0  0  0  0  0  0  0  0  0  0  0  0
   35.2763   11.1251   23.8180 C   0  0  0  0  0  0  0  0  0  0  0  0
   36.1207   11.8346   23.1068 C   0  0  0  0  0  0  0  0  0  0  0  0
   37.4639   11.3948   22.6526 C   0  0  0  0  0  0  0  0  0  0  0  0
   38.5041   12.4196   23.0112 C   0  0  0  0  0  0  0  0  0  0  0  0
   39.2058   11.9925   24.1363 O   0  0  0  0  0  0  0  0  0  0  0  0
   35.8191    8.0904   25.6390 O   0  0  0  0  0  0  0  0  0  0  0  0
   36.1610    8.9387   23.4610 O   0  0  0  0  0  0  0  0  0  0  0  0
   39.9664   10.8391   24.1537 C   0  0  0  0  0  0  0  0  0  0  0  0
   40.7148   10.4582   22.9379 C   0  0  2  0  0  0  0  0  0  0  0  0
   40.2093    9.2032   22.3172 C   0  0  0  0  0  0  0  0  0  0  0  0
   39.6390    8.1883   23.2594 C   0  0  0  0  0  0  0  0  0  0  0  0
   39.0905    7.0615   22.4060 C   0  0  0  0  0  0  0  0  0  0  0  0
   37.9264    6.4161   22.9913 N   0  0  0  0  0  4  0  0  0  0  0  0
   37.8068    5.5817   23.9696 C   0  0  0  0  0  0  0  0  0  0  0  0
   38.9324    4.7524   24.3978 C   0  0  0  0  0  0  0  0  0  0  0  0
   39.9115    5.0644   25.1964 C   0  0  0  0  0  0  0  0  0  0  0  0
   39.7593    5.3111   26.6353 C   0  0  0  0  0  0  0  0  0  0  0  0
   39.7455    3.9703   27.3739 C   0  0  0  0  0  0  0  0  0  0  0  0
   39.7459    4.2133   28.7231 O   0  0  0  0  0  0  0  0  0  0  0  0
   40.0119   10.1362   25.1948 O   0  0  0  0  0  0  0  0  0  0  0  0
   36.7364    6.6952   22.4492 O   0  0  0  0  0  0  0  0  0  0  0  0
   36.6156    5.5409   24.5329 O   0  0  0  0  0  0  0  0  0  0  0  0
   41.3231    5.1870   24.6133 C   0  0  0  0  0  0  0  0  0  0  0  0
   42.1080   10.3813   23.3182 N   0  0  0  0  0  0  0  0  0  0  0  0
   43.0699   11.0862   22.5538 C   0  0  0  0  0  0  0  0  0  0  0  0
   43.1357   12.3614   22.6151 O   0  0  0  0  0  0  0  0  0  0  0  0
   44.0477   10.4391   21.6503 C   0  0  0  0  0  0  0  0  0  0  0  0
   35.5278    7.0677   23.9216 Fe  0  0  0  0  0  6  0  0  0  0  0  0
  2  1  1  0
  1  8  2  0
  1 18  1  0
  2  3  1  1
  2  9  1  0
  4  3  1  0
  5  4  1  0
  6  5  1  0
  7  6  2  0
  6 10  1  0
  7 11  1  0
 24  7  1  0
  9 12  1  0
 12 13  1  0
 12 17  2  0
 13 14  1  1
 18 13  1  0
 14 15  1  0
 15 16  1  0
 16 25  1  0
 20 19  1  0
 20 21  1  0
 20 24  2  0
 21 22  1  0
 22 23  1  0
 25 26  2  0
 25 32  1  0
 26 27  1  0
 26 33  1  0
 27 28  2  0
 28 29  1  0
 29 30  1  0
 30 31  1  0
 31 34  1  0
 34 35  1  0
 34 46  2  0
 35 36  1  0
 35 50  1  1
 36 37  1  0
 37 38  1  0
 38 39  1  0
 39 40  2  0
 39 47  1  0
 40 41  1  0
 40 48  1  0
 41 42  2  0
 42 43  1  0
 42 49  1  0
 43 44  1  0
 44 45  1  0
 50 51  1  0
 51 52  2  0
 51 53  1  0
 10 54  1  0
 54 11  1  0
 54 32  1  0
 54 33  1  0
 54 47  1  0
 54 48  1  0
M  CHG  3   6   1  25   1  39   1
M  END
$$$$
