
     RDKit          3D

 54 59  0  0  0  0  0  0  0  0999 V2000
   36.1086   14.4022   21.1592 C   0  0  0  0  0  0  0  0  0  0  0  0
   37.5583   14.1993   21.4480 C   0  0  2  0  0  0  0  0  0  0  0  0
   38.0520   12.8517   20.8638 C   0  0  0  0  0  0  0  0  0  0  0  0
   37.4926   11.7564   21.7081 C   0  0  0  0  0  0  0  0  0  0  0  0
   38.0408   10.4124   21.3524 C   0  0  0  0  0  0  0  0  0  0  0  0
   37.5562    9.4391   22.3980 N   0  0  0  0  0  4  0  0  0  0  0  0
   38.2237    8.6947   23.1624 C   0  0  0  0  0  0  0  0  0  0  0  0
   35.6272   13.7933   20.1585 O   0  0  0  0  0  0  0  0  0  0  0  0
   37.7262   14.2172   22.8952 N   0  0  0  0  0  0  0  0  0  0  0  0
   36.2621    9.3768   22.5112 O   0  0  0  0  0  0  0  0  0  0  0  0
   37.5585    8.5583   24.3306 O   0  0  0  0  0  0  0  0  0  0  0  0
   36.7228   14.7151   23.7850 C   0  0  0  0  0  0  0  0  0  0  0  0
   35.3778   15.1586   23.4196 C   0  0  2  0  0  0  0  0  0  0  0  0
   34.2253   14.3891   23.9319 C   0  0  0  0  0  0  0  0  0  0  0  0
   34.5023   13.3156   24.9616 C   0  0  0  0  0  0  0  0  0  0  0  0
   35.0989   12.1574   24.2258 C   0  0  0  0  0  0  0  0  0  0  0  0
   37.0256   14.7847   25.0240 O   0  0  0  0  0  0  0  0  0  0  0  0
   35.2931   15.2319   21.9534 N   0  0  0  0  0  0  0  0  0  0  0  0
   39.2829    5.8434   21.9512 C   0  0  0  0  0  0  0  0  0  0  0  0
   39.7600    6.7814   22.9891 C   0  0  0  0  0  0  0  0  0  0  0  0
   40.4651    6.2712   24.1857 C   0  0  0  0  0  0  0  0  0  0  0  0
   41.8178    6.9400   24.3638 C   0  0  0  0  0  0  0  0  0  0  0  0
   42.5025    6.2664   25.3559 O   0  0  0  0  0  0  0  0  0  0  0  0
   39.5500    8.0577   22.8391 C   0  0  0  0  0  0  0  0  0  0  0  0
   34.8147   10.8414   24.7642 N   0  0  0  0  0  4  0  0  0  0  0  0
   35.0018   10.3135   25.8856 C   0  0  0  0  0  0  0  0  0  0  0  0
   35.0645   10.9752   27.2065 C   0  0  0  0  0  0  0  0  0  0  0  0
   34.5762   10.4865   28.3148 C   0  0  0  0  0  0  0  0  0  0  0  0
   33.8718    9.2046   28.5019 C   0  0  0  0  0  0  0  0  0  0  0  0
   34.4753    8.3835   29.6407 C   0  0  0  0  0  0  0  0  0  0  0  0
   35.5607    7.6292   29.2228 O   0  0  0  0  0  0  0  0  0  0  0  0
   34.2304    9.9372   23.9131 O   0  0  0  0  0  0  0  0  0  0  0  0
   35.1661    8.9970   25.9077 O   0  0  0  0  0  0  0  0  0  0  0  0
   35.8535    6.3076   29.4089 C   0  0  0  0  0  0  0  0  0  0  0  0
   35.1286    5.2772   28.6228 C   0  0  2  0  0  0  0  0  0  0  0  0
   35.2957    5.6153   27.1318 C   0  0  0  0  0  0  0  0  0  0  0  0
   35.1818    4.4059   26.2610 C   0  0  0  0  0  0  0  0  0  0  0  0
   35.9532    4.5458   24.9486 C   0  0  0  0  0  0  0  0  0  0  0  0
   35.4861    5.7684   24.2468 N   0  0  0  0  0  4  0  0  0  0  0  0
   35.0256    6.0057   23.0821 C   0  0  0  0  0  0  0  0  0  0  0  0
   35.0335    4.9196   22.0631 C   0  0  0  0  0  0  0  0  0  0  0  0
   36.1571    4.3314   21.6965 C   0  0  0  0  0  0  0  0  0  0  0  0
   37.2525    5.1180   21.1046 C   0  0  0  0  0  0  0  0  0  0  0  0
   38.5935    4.6151   21.5763 C   0  0  0  0  0  0  0  0  0  0  0  0
   39.2617    4.1293   20.4495 O   0  0  0  0  0  0  0  0  0  0  0  0
   36.7307    5.8629   30.2308 O   0  0  0  0  0  0  0  0  0  0  0  0
   35.5586    6.8309   24.9952 O   0  0  0  0  0  0  0  0  0  0  0  0
   34.5571    7.2369   22.8555 O   0  0  0  0  0  0  0  0  0  0  0  0
   36.3165    2.8461   21.8879 C   0  0  0  0  0  0  0  0  0  0  0  0
   33.7390    5.1570   28.9469 N   0  0  0  0  0  0  0  0  0  0  0  0
   33.0056    3.9397   28.7637 C   0  0  0  0  0  0  0  0  0  0  0  0
   33.6224    2.8588   28.8495 O   0  0  0  0  0  0  0  0  0  0  0  0
   31.5521    3.9372   28.4785 C   0  0  0  0  0  0  0  0  0  0  0  0
   35.7520    8.4271   24.1080 Fe  0  0  0  0  0  6  0  0  0  0  0  0
  2  1  1  0
  1  8  2  0
  1 18  1  0
  3  2  1  1
  2  9  1  1
  4  3  1  0
  4  5  1  6
  5  6  1  6
  7  6  2  0
  6 10  1  0
  7 11  1  0
 24  7  1  0
  9 12  1  0
 12 13  1  0
 12 17  2  0
 14 13  1  1
 13 18  1  6
 14 15  1  0
 15 16  1  6
 16 25  1  6
 19 20  1  6
 21 20  1  1
 20 24  2  0
 21 22  1  0
 22 23  1  6
 25 26  2  0
 25 32  1  0
 26 27  1  0
 26 33  1  0
 27 28  2  0
 29 28  1  1
 29 30  1  0
 30 31  1  6
 31 34  1  0
 34 35  1  0
 34 46  2  0
 36 35  1  1
 35 50  1  1
 36 37  1  0
 37 38  1  6
 38 39  1  6
 39 40  2  0
 39 47  1  0
 40 41  1  0
 40 48  1  0
 41 42  2  0
 43 42  1  1
 49 42  1  6
 43 44  1  0
 44 45  1  6
 50 51  1  0
 51 52  2  0
 53 51  1  6
 10 54  1  0
 54 11  1  0
 54 32  1  0
 54 33  1  0
 54 47  1  0
 54 48  1  0
M  CHG  3   6   1  25   1  39   1
M  END
$$$$
