
     RDKit          3D

 54 59  0  0  0  0  0  0  0  0999 V2000
   40.1478    4.6840   27.8392 C   0  0  0  0  0  0  0  0  0  0  0  0
   39.5617    3.3482   27.5788 C   0  0  2  0  0  0  0  0  0  0  0  0
   39.0408    2.6302   28.7307 C   0  0  0  0  0  0  0  0  0  0  0  0
   37.7596    3.3403   29.1537 C   0  0  0  0  0  0  0  0  0  0  0  0
   36.7037    3.4102   28.1106 C   0  0  0  0  0  0  0  0  0  0  0  0
   36.3646    4.7891   27.7084 N   0  0  0  0  0  4  0  0  0  0  0  0
   35.8050    5.7431   28.3417 C   0  0  0  0  0  0  0  0  0  0  0  0
   40.1838    5.1532   28.9908 O   0  0  0  0  0  0  0  0  0  0  0  0
   40.5485    2.6972   26.7190 N   0  0  0  0  0  0  0  0  0  0  0  0
   36.6869    5.1230   26.4702 O   0  0  0  0  0  0  0  0  0  0  0  0
   35.4518    6.7991   27.6035 O   0  0  0  0  0  0  0  0  0  0  0  0
   40.9062    3.4536   25.5566 C   0  0  0  0  0  0  0  0  0  0  0  0
   40.3907    4.8411   25.4200 C   0  0  2  0  0  0  0  0  0  0  0  0
   40.7600    5.6262   24.2740 C   0  0  0  0  0  0  0  0  0  0  0  0
   39.5446    6.4473   23.7999 C   0  0  0  0  0  0  0  0  0  0  0  0
   39.0052    7.3434   24.8420 C   0  0  0  0  0  0  0  0  0  0  0  0
   41.6313    2.9908   24.6610 O   0  0  0  0  0  0  0  0  0  0  0  0
   40.6717    5.4249   26.7467 N   0  0  0  0  0  0  0  0  0  0  0  0
   33.8627    5.4631   31.5752 C   0  0  0  0  0  0  0  0  0  0  0  0
   34.4457    5.1628   30.2478 C   0  0  0  0  0  0  0  0  0  0  0  0
   33.6467    4.2072   29.3871 C   0  0  0  0  0  0  0  0  0  0  0  0
   32.2034    4.4661   29.6050 C   0  0  0  0  0  0  0  0  0  0  0  0
   31.4214    3.5958   28.8707 O   0  0  0  0  0  0  0  0  0  0  0  0
   35.5835    5.6435   29.7861 C   0  0  0  0  0  0  0  0  0  0  0  0
   37.5523    7.4764   24.7177 N   0  0  0  0  0  4  0  0  0  0  0  0
   36.7951    8.4625   24.9520 C   0  0  0  0  0  0  0  0  0  0  0  0
   37.1536    9.8828   25.1178 C   0  0  0  0  0  0  0  0  0  0  0  0
   36.4493   10.9041   24.6902 C   0  0  0  0  0  0  0  0  0  0  0  0
   35.1596   10.8297   23.9586 C   0  0  0  0  0  0  0  0  0  0  0  0
   35.2123   11.6652   22.7096 C   0  0  0  0  0  0  0  0  0  0  0  0
   35.4056   10.8366   21.6065 O   0  0  0  0  0  0  0  0  0  0  0  0
   36.8606    6.4099   24.2974 O   0  0  0  0  0  0  0  0  0  0  0  0
   35.4898    8.1742   25.0644 O   0  0  0  0  0  0  0  0  0  0  0  0
   34.4972    9.8669   21.2275 C   0  0  0  0  0  0  0  0  0  0  0  0
   33.0536   10.1388   21.3868 C   0  0  2  0  0  0  0  0  0  0  0  0
   32.4085    9.2614   22.4016 C   0  0  0  0  0  0  0  0  0  0  0  0
   32.9868    7.8872   22.5439 C   0  0  0  0  0  0  0  0  0  0  0  0
   32.2576    7.2250   23.6966 C   0  0  0  0  0  0  0  0  0  0  0  0
   33.0896    6.2907   24.4377 N   0  0  0  0  0  4  0  0  0  0  0  0
   33.5002    5.0982   24.1606 C   0  0  0  0  0  0  0  0  0  0  0  0
   32.7939    4.2617   23.1913 C   0  0  0  0  0  0  0  0  0  0  0  0
   31.8732    4.6090   22.3395 C   0  0  0  0  0  0  0  0  0  0  0  0
   30.5476    5.1158   22.7145 C   0  0  0  0  0  0  0  0  0  0  0  0
   29.5326    3.9731   22.6278 C   0  0  0  0  0  0  0  0  0  0  0  0
   28.4120    4.3280   23.3331 O   0  0  0  0  0  0  0  0  0  0  0  0
   34.9075    8.7767   20.7554 O   0  0  0  0  0  0  0  0  0  0  0  0
   33.5300    6.6843   25.6373 O   0  0  0  0  0  0  0  0  0  0  0  0
   34.5797    4.7089   24.8096 O   0  0  0  0  0  0  0  0  0  0  0  0
   32.1753    4.4869   20.8424 C   0  0  0  0  0  0  0  0  0  0  0  0
   32.4628   10.0148   20.0725 N   0  0  0  0  0  0  0  0  0  0  0  0
   33.2901    9.6684   18.9762 C   0  0  0  0  0  0  0  0  0  0  0  0
   33.7424    8.4786   18.8584 O   0  0  0  0  0  0  0  0  0  0  0  0
   33.6915   10.6126   17.9092 C   0  0  0  0  0  0  0  0  0  0  0  0
   35.4209    6.2512   25.7053 Fe  0  0  0  0  0  6  0  0  0  0  0  0
  2  1  1  0
  1  8  2  0
  1 18  1  0
  2  3  1  1
  2  9  1  0
  4  3  1  0
  5  4  1  0
  6  5  1  0
  7  6  2  0
  6 10  1  0
  7 11  1  0
 24  7  1  0
  9 12  1  0
 12 13  1  0
 12 17  2  0
 13 14  1  6
 18 13  1  0
 14 15  1  0
 15 16  1  0
 16 25  1  0
 20 19  1  0
 20 21  1  0
 20 24  2  0
 21 22  1  0
 22 23  1  0
 25 26  2  0
 25 32  1  0
 26 27  1  0
 26 33  1  0
 27 28  2  0
 28 29  1  0
 29 30  1  0
 30 31  1  0
 31 34  1  0
 34 35  1  0
 34 46  2  0
 35 36  1  0
 35 50  1  6
 36 37  1  0
 37 38  1  0
 38 39  1  0
 39 40  2  0
 39 47  1  0
 40 41  1  0
 40 48  1  0
 41 42  2  0
 42 43  1  0
 42 49  1  0
 43 44  1  0
 44 45  1  0
 50 51  1  0
 51 52  2  0
 51 53  1  0
 10 54  1  0
 54 11  1  0
 54 32  1  0
 54 33  1  0
 54 47  1  0
 54 48  1  0
M  CHG  3   6   1  25   1  39   1
M  END
$$$$
