
     RDKit          3D

 54 59  0  0  0  0  0  0  0  0999 V2000
   34.7348    9.5704   20.3840 C   0  0  0  0  0  0  0  0  0  0  0  0
   33.4151    9.6329   21.0550 C   0  0  2  0  0  0  0  0  0  0  0  0
   32.3442    8.8509   20.4589 C   0  0  0  0  0  0  0  0  0  0  0  0
   32.6531    7.3855   20.7445 C   0  0  0  0  0  0  0  0  0  0  0  0
   32.7643    7.0334   22.1838 C   0  0  0  0  0  0  0  0  0  0  0  0
   34.1020    6.5417   22.5674 N   0  0  0  0  0  4  0  0  0  0  0  0
   34.7359    5.4805   22.2568 C   0  0  0  0  0  0  0  0  0  0  0  0
   34.9013    8.8785   19.3637 O   0  0  0  0  0  0  0  0  0  0  0  0
   33.2107   11.0615   21.2878 N   0  0  0  0  0  0  0  0  0  0  0  0
   34.7902    7.3230   23.3825 O   0  0  0  0  0  0  0  0  0  0  0  0
   35.8479    5.2444   22.9586 O   0  0  0  0  0  0  0  0  0  0  0  0
   34.2878   11.7049   21.9787 C   0  0  0  0  0  0  0  0  0  0  0  0
   35.5320   10.9344   22.2388 C   0  0  2  0  0  0  0  0  0  0  0  0
   36.6344   11.5702   22.9068 C   0  0  0  0  0  0  0  0  0  0  0  0
   37.2842   10.5750   23.8883 C   0  0  0  0  0  0  0  0  0  0  0  0
   37.7661    9.3424   23.2336 C   0  0  0  0  0  0  0  0  0  0  0  0
   34.2176   12.8825   22.3668 O   0  0  0  0  0  0  0  0  0  0  0  0
   35.8134   10.3180   20.9270 N   0  0  0  0  0  0  0  0  0  0  0  0
   31.8098    4.9934   21.5716 C   0  0  0  0  0  0  0  0  0  0  0  0
   32.9927    4.1758   21.2192 C   0  0  0  0  0  0  0  0  0  0  0  0
   32.7065    2.7270   20.8855 C   0  0  0  0  0  0  0  0  0  0  0  0
   31.3293    2.6275   20.3460 C   0  0  0  0  0  0  0  0  0  0  0  0
   31.2299    1.6190   19.4073 O   0  0  0  0  0  0  0  0  0  0  0  0
   34.2389    4.6060   21.1921 C   0  0  0  0  0  0  0  0  0  0  0  0
   37.6292    8.1883   24.1243 N   0  0  0  0  0  4  0  0  0  0  0  0
   38.3524    7.1579   24.2500 C   0  0  0  0  0  0  0  0  0  0  0  0
   39.7295    6.9330   23.7744 C   0  0  0  0  0  0  0  0  0  0  0  0
   40.6608    6.2671   24.4158 C   0  0  0  0  0  0  0  0  0  0  0  0
   40.5108    5.6133   25.7401 C   0  0  0  0  0  0  0  0  0  0  0  0
   41.6225    6.0292   26.6632 C   0  0  0  0  0  0  0  0  0  0  0  0
   41.1498    6.9917   27.5525 O   0  0  0  0  0  0  0  0  0  0  0  0
   36.5829    8.1638   24.9594 O   0  0  0  0  0  0  0  0  0  0  0  0
   37.7875    6.1324   24.9050 O   0  0  0  0  0  0  0  0  0  0  0  0
   40.1412    6.7415   28.4632 C   0  0  0  0  0  0  0  0  0  0  0  0
   40.0676    5.4102   29.1001 C   0  0  2  0  0  0  0  0  0  0  0  0
   38.8544    4.6452   28.7019 C   0  0  0  0  0  0  0  0  0  0  0  0
   37.6340    5.4596   28.4013 C   0  0  0  0  0  0  0  0  0  0  0  0
   36.5737    4.4916   27.9138 C   0  0  0  0  0  0  0  0  0  0  0  0
   35.6730    5.0769   26.9337 N   0  0  0  0  0  4  0  0  0  0  0  0
   34.6947    5.9110   27.0550 C   0  0  0  0  0  0  0  0  0  0  0  0
   33.9995    6.0805   28.3301 C   0  0  0  0  0  0  0  0  0  0  0  0
   33.3032    5.2057   28.9963 C   0  0  0  0  0  0  0  0  0  0  0  0
   33.6320    4.7441   30.3503 C   0  0  0  0  0  0  0  0  0  0  0  0
   33.5219    5.9227   31.3210 C   0  0  0  0  0  0  0  0  0  0  0  0
   33.8611    5.4895   32.5765 O   0  0  0  0  0  0  0  0  0  0  0  0
   39.3082    7.6423   28.7361 O   0  0  0  0  0  0  0  0  0  0  0  0
   35.8378    4.7112   25.6581 O   0  0  0  0  0  0  0  0  0  0  0  0
   34.3833    6.5772   25.9608 O   0  0  0  0  0  0  0  0  0  0  0  0
   32.0551    4.6073   28.3392 C   0  0  0  0  0  0  0  0  0  0  0  0
   40.1562    5.6299   30.5268 N   0  0  0  0  0  0  0  0  0  0  0  0
   39.1708    5.0644   31.3727 C   0  0  0  0  0  0  0  0  0  0  0  0
   39.2450    3.8365   31.7203 O   0  0  0  0  0  0  0  0  0  0  0  0
   38.0114    5.8113   31.9104 C   0  0  0  0  0  0  0  0  0  0  0  0
   35.7927    6.3393   24.6023 Fe  0  0  0  0  0  6  0  0  0  0  0  0
  2  1  1  0
  1  8  2  0
  1 18  1  0
  2  3  1  6
  2  9  1  0
  4  3  1  0
  5  4  1  0
  6  5  1  0
  7  6  2  0
  6 10  1  0
  7 11  1  0
 24  7  1  0
  9 12  1  0
 12 13  1  0
 12 17  2  0
 13 14  1  6
 18 13  1  0
 14 15  1  0
 15 16  1  0
 16 25  1  0
 20 19  1  0
 20 21  1  0
 20 24  2  0
 21 22  1  0
 22 23  1  0
 25 26  2  0
 25 32  1  0
 26 27  1  0
 26 33  1  0
 27 28  2  0
 28 29  1  0
 29 30  1  0
 30 31  1  0
 31 34  1  0
 34 35  1  0
 34 46  2  0
 35 36  1  0
 35 50  1  1
 36 37  1  0
 37 38  1  0
 38 39  1  0
 39 40  2  0
 39 47  1  0
 40 41  1  0
 40 48  1  0
 41 42  2  0
 42 43  1  0
 42 49  1  0
 43 44  1  0
 44 45  1  0
 50 51  1  0
 51 52  2  0
 51 53  1  0
 10 54  1  0
 54 11  1  0
 54 32  1  0
 54 33  1  0
 54 47  1  0
 54 48  1  0
M  CHG  3   6   1  25   1  39   1
M  END
$$$$
