
     RDKit          3D

 54 59  0  0  0  0  0  0  0  0999 V2000
   42.1703    5.0195   27.0888 C   0  0  0  0  0  0  0  0  0  0  0  0
   41.5592    5.5587   28.3387 C   0  0  2  0  0  0  0  0  0  0  0  0
   40.2269    4.8341   28.6564 C   0  0  0  0  0  0  0  0  0  0  0  0
   39.2058    5.3072   27.6772 C   0  0  0  0  0  0  0  0  0  0  0  0
   37.8302    4.8135   27.9896 C   0  0  0  0  0  0  0  0  0  0  0  0
   36.8777    5.5193   27.0569 N   0  0  0  0  0  4  0  0  0  0  0  0
   35.8847    6.2423   27.3313 C   0  0  0  0  0  0  0  0  0  0  0  0
   41.8558    3.8395   26.7534 O   0  0  0  0  0  0  0  0  0  0  0  0
   41.3271    6.9829   28.1371 N   0  0  0  0  0  0  0  0  0  0  0  0
   37.1378    5.3447   25.7947 O   0  0  0  0  0  0  0  0  0  0  0  0
   35.7609    7.1944   26.3806 O   0  0  0  0  0  0  0  0  0  0  0  0
   41.9365    7.7241   27.0762 C   0  0  0  0  0  0  0  0  0  0  0  0
   42.7610    7.1815   25.9969 C   0  0  2  0  0  0  0  0  0  0  0  0
   42.2522    7.2777   24.6132 C   0  0  0  0  0  0  0  0  0  0  0  0
   41.0085    8.1075   24.3807 C   0  0  0  0  0  0  0  0  0  0  0  0
   39.8520    7.2970   24.8749 C   0  0  0  0  0  0  0  0  0  0  0  0
   41.7484    8.9875   27.0653 O   0  0  0  0  0  0  0  0  0  0  0  0
   43.0615    5.7747   26.3017 N   0  0  0  0  0  0  0  0  0  0  0  0
   34.0944    4.6484   30.2335 C   0  0  0  0  0  0  0  0  0  0  0  0
   34.4208    4.9450   28.8228 C   0  0  0  0  0  0  0  0  0  0  0  0
   34.1189    3.9551   27.7653 C   0  0  0  0  0  0  0  0  0  0  0  0
   34.0129    4.6125   26.3995 C   0  0  0  0  0  0  0  0  0  0  0  0
   34.4409    3.7044   25.4514 O   0  0  0  0  0  0  0  0  0  0  0  0
   34.9780    6.0832   28.5238 C   0  0  0  0  0  0  0  0  0  0  0  0
   38.5921    7.4908   24.1838 N   0  0  0  0  0  4  0  0  0  0  0  0
   37.8798    8.4984   23.9629 C   0  0  0  0  0  0  0  0  0  0  0  0
   38.3079    9.9080   23.8346 C   0  0  0  0  0  0  0  0  0  0  0  0
   37.8102   10.7695   22.9886 C   0  0  0  0  0  0  0  0  0  0  0  0
   36.7419   10.5459   21.9971 C   0  0  0  0  0  0  0  0  0  0  0  0
   35.6391   11.5988   22.1002 C   0  0  0  0  0  0  0  0  0  0  0  0
   34.6963   11.2753   23.0638 O   0  0  0  0  0  0  0  0  0  0  0  0
   38.0009    6.3737   23.6492 O   0  0  0  0  0  0  0  0  0  0  0  0
   36.5765    8.2916   23.8243 O   0  0  0  0  0  0  0  0  0  0  0  0
   33.3315   11.2513   23.0041 C   0  0  0  0  0  0  0  0  0  0  0  0
   32.6470   10.1419   22.2929 C   0  0  2  0  0  0  0  0  0  0  0  0
   33.1386    8.8168   22.8993 C   0  0  0  0  0  0  0  0  0  0  0  0
   32.1367    7.7182   22.7463 C   0  0  0  0  0  0  0  0  0  0  0  0
   32.2567    6.6509   23.8342 C   0  0  0  0  0  0  0  0  0  0  0  0
   33.6456    6.1250   23.8376 N   0  0  0  0  0  4  0  0  0  0  0  0
   34.1572    4.9609   23.7482 C   0  0  0  0  0  0  0  0  0  0  0  0
   33.2626    3.7707   23.7743 C   0  0  0  0  0  0  0  0  0  0  0  0
   31.9514    3.9000   23.8578 C   0  0  0  0  0  0  0  0  0  0  0  0
   31.3076    5.1881   23.5493 C   0  0  0  0  0  0  0  0  0  0  0  0
   30.9104    5.9087   24.8129 C   0  0  0  0  0  0  0  0  0  0  0  0
   31.5199    7.1652   24.7698 O   0  0  0  0  0  0  0  0  0  0  0  0
   32.5623   12.1330   23.5272 O   0  0  0  0  0  0  0  0  0  0  0  0
   34.5353    7.0684   23.9501 O   0  0  0  0  0  0  0  0  0  0  0  0
   35.4871    4.8914   23.6326 O   0  0  0  0  0  0  0  0  0  0  0  0
   31.1118    2.7196   24.2701 C   0  0  0  0  0  0  0  0  0  0  0  0
   32.8467   10.1377   20.8749 N   0  0  0  0  0  0  0  0  0  0  0  0
   31.8458    9.6840   19.9553 C   0  0  0  0  0  0  0  0  0  0  0  0
   30.6556    9.9806   20.1825 O   0  0  0  0  0  0  0  0  0  0  0  0
   32.1890    8.8820   18.7582 C   0  0  0  0  0  0  0  0  0  0  0  0
   36.1359    6.5775   24.7045 Fe  0  0  0  0  0  6  0  0  0  0  0  0
  2  1  1  0
  1  8  2  0
  1 18  1  0
  3  2  1  1
  2  9  1  6
  4  3  1  0
  4  5  1  6
  5  6  1  6
  7  6  2  0
  6 10  1  0
  7 11  1  0
 24  7  1  0
  9 12  1  0
 12 13  1  0
 12 17  2  0
 14 13  1  1
 13 18  1  1
 14 15  1  0
 15 16  1  6
 16 25  1  6
 19 20  1  6
 21 20  1  1
 20 24  2  0
 21 22  1  0
 22 23  1  6
 25 26  2  0
 25 32  1  0
 26 27  1  0
 26 33  1  0
 27 28  2  0
 29 28  1  1
 29 30  1  0
 30 31  1  6
 31 34  1  0
 34 35  1  0
 34 46  2  0
 36 35  1  1
 35 50  1  6
 36 37  1  0
 37 38  1  6
 38 39  1  6
 39 40  2  0
 39 47  1  0
 40 41  1  0
 40 48  1  0
 41 42  2  0
 43 42  1  1
 49 42  1  6
 43 44  1  0
 44 45  1  6
 50 51  1  0
 51 52  2  0
 53 51  1  6
 10 54  1  0
 54 11  1  0
 54 32  1  0
 54 33  1  0
 54 47  1  0
 54 48  1  0
M  CHG  3   6   1  25   1  39   1
M  END
$$$$
