
     RDKit          3D

 54 59  0  0  0  0  0  0  0  0999 V2000
   34.6493    2.4577   28.6715 C   0  0  0  0  0  0  0  0  0  0  0  0
   34.0092    3.5294   29.4887 C   0  0  2  0  0  0  0  0  0  0  0  0
   32.9436    4.2904   28.6603 C   0  0  0  0  0  0  0  0  0  0  0  0
   33.6609    5.1493   27.6738 C   0  0  0  0  0  0  0  0  0  0  0  0
   32.7456    6.0687   26.9318 C   0  0  0  0  0  0  0  0  0  0  0  0
   33.6090    7.0083   26.1274 N   0  0  0  0  0  4  0  0  0  0  0  0
   33.6551    8.2658   26.1535 C   0  0  0  0  0  0  0  0  0  0  0  0
   33.9846    1.9989   27.6961 O   0  0  0  0  0  0  0  0  0  0  0  0
   35.0605    4.4402   29.9227 N   0  0  0  0  0  0  0  0  0  0  0  0
   34.4142    6.4148   25.2962 O   0  0  0  0  0  0  0  0  0  0  0  0
   34.9195    8.6627   25.8900 O   0  0  0  0  0  0  0  0  0  0  0  0
   36.4496    4.1040   29.8623 C   0  0  0  0  0  0  0  0  0  0  0  0
   37.0284    2.8965   29.2741 C   0  0  2  0  0  0  0  0  0  0  0  0
   37.8975    3.0444   28.0886 C   0  0  0  0  0  0  0  0  0  0  0  0
   38.2939    4.4469   27.6818 C   0  0  0  0  0  0  0  0  0  0  0  0
   37.0963    5.0593   27.0264 C   0  0  0  0  0  0  0  0  0  0  0  0
   37.2730    4.9359   30.3739 O   0  0  0  0  0  0  0  0  0  0  0  0
   35.9372    1.9633   28.9565 N   0  0  0  0  0  0  0  0  0  0  0  0
   31.3672    9.7951   28.4640 C   0  0  0  0  0  0  0  0  0  0  0  0
   31.5775    8.8959   27.3100 C   0  0  0  0  0  0  0  0  0  0  0  0
   30.7523    7.6774   27.1562 C   0  0  0  0  0  0  0  0  0  0  0  0
   29.8925    7.7399   25.9049 C   0  0  0  0  0  0  0  0  0  0  0  0
   29.3833    6.4781   25.6703 O   0  0  0  0  0  0  0  0  0  0  0  0
   32.4968    9.1870   26.4350 C   0  0  0  0  0  0  0  0  0  0  0  0
   37.3635    6.0268   25.9799 N   0  0  0  0  0  4  0  0  0  0  0  0
   38.0149    7.0973   25.9458 C   0  0  0  0  0  0  0  0  0  0  0  0
   39.1816    7.4819   26.7688 C   0  0  0  0  0  0  0  0  0  0  0  0
   40.2137    8.1568   26.3388 C   0  0  0  0  0  0  0  0  0  0  0  0
   40.4493    8.6752   24.9786 C   0  0  0  0  0  0  0  0  0  0  0  0
   40.8083   10.1606   24.9888 C   0  0  0  0  0  0  0  0  0  0  0  0
   39.6831   10.9700   25.0111 O   0  0  0  0  0  0  0  0  0  0  0  0
   36.8034    5.7807   24.7515 O   0  0  0  0  0  0  0  0  0  0  0  0
   37.6212    8.0099   25.0668 O   0  0  0  0  0  0  0  0  0  0  0  0
   39.3449   12.0492   24.2444 C   0  0  0  0  0  0  0  0  0  0  0  0
   38.8851   11.8424   22.8477 C   0  0  2  0  0  0  0  0  0  0  0  0
   37.6962   10.8675   22.8805 C   0  0  0  0  0  0  0  0  0  0  0  0
   36.7810   11.0513   21.7131 C   0  0  0  0  0  0  0  0  0  0  0  0
   35.3437   10.6266   22.0142 C   0  0  0  0  0  0  0  0  0  0  0  0
   35.3494    9.2182   22.4854 N   0  0  0  0  0  4  0  0  0  0  0  0
   34.7480    8.1549   22.1214 C   0  0  0  0  0  0  0  0  0  0  0  0
   33.6770    8.2433   21.0903 C   0  0  0  0  0  0  0  0  0  0  0  0
   33.5549    9.3068   20.3177 C   0  0  0  0  0  0  0  0  0  0  0  0
   33.8541    9.2216   18.8782 C   0  0  0  0  0  0  0  0  0  0  0  0
   34.1610    7.8015   18.4744 C   0  0  0  0  0  0  0  0  0  0  0  0
   35.5118    7.7655   18.1195 O   0  0  0  0  0  0  0  0  0  0  0  0
   39.3904   13.2679   24.6388 O   0  0  0  0  0  0  0  0  0  0  0  0
   36.1558    9.0323   23.4900 O   0  0  0  0  0  0  0  0  0  0  0  0
   35.1316    7.0135   22.7017 O   0  0  0  0  0  0  0  0  0  0  0  0
   33.1048   10.6136   20.9158 C   0  0  0  0  0  0  0  0  0  0  0  0
   39.8967   11.3544   21.9594 N   0  0  0  0  0  0  0  0  0  0  0  0
   39.9452   11.7122   20.5727 C   0  0  0  0  0  0  0  0  0  0  0  0
   39.0927   11.2220   19.8051 O   0  0  0  0  0  0  0  0  0  0  0  0
   40.9709   12.6379   20.0388 C   0  0  0  0  0  0  0  0  0  0  0  0
   35.7326    7.6429   24.6137 Fe  0  0  0  0  0  6  0  0  0  0  0  0
  2  1  1  0
  1  8  2  0
  1 18  1  0
  3  2  1  1
  2  9  1  6
  4  3  1  0
  4  5  1  6
  5  6  1  6
  7  6  2  0
  6 10  1  0
  7 11  1  0
 24  7  1  0
  9 12  1  0
 12 13  1  0
 12 17  2  0
 14 13  1  1
 13 18  1  6
 14 15  1  0
 15 16  1  6
 16 25  1  6
 19 20  1  6
 21 20  1  1
 20 24  2  0
 21 22  1  0
 22 23  1  6
 25 26  2  0
 25 32  1  0
 26 27  1  0
 26 33  1  0
 27 28  2  0
 29 28  1  1
 29 30  1  0
 30 31  1  6
 31 34  1  0
 34 35  1  0
 34 46  2  0
 36 35  1  1
 35 50  1  6
 36 37  1  0
 37 38  1  6
 38 39  1  6
 39 40  2  0
 39 47  1  0
 40 41  1  0
 40 48  1  0
 41 42  2  0
 43 42  1  1
 49 42  1  6
 43 44  1  0
 44 45  1  6
 50 51  1  0
 51 52  2  0
 53 51  1  6
 10 54  1  0
 54 11  1  0
 54 32  1  0
 54 33  1  0
 54 47  1  0
 54 48  1  0
M  CHG  3   6   1  25   1  39   1
M  END
$$$$
