
     RDKit          3D

 54 59  0  0  0  0  0  0  0  0999 V2000
   37.5984   13.6492   21.5447 C   0  0  0  0  0  0  0  0  0  0  0  0
   38.2351   12.7311   20.5557 C   0  0  2  0  0  0  0  0  0  0  0  0
   37.2224   11.6677   20.0613 C   0  0  0  0  0  0  0  0  0  0  0  0
   37.0036   10.6956   21.1715 C   0  0  0  0  0  0  0  0  0  0  0  0
   36.1802    9.5188   20.7582 C   0  0  0  0  0  0  0  0  0  0  0  0
   36.2063    8.5306   21.8975 N   0  0  0  0  0  4  0  0  0  0  0  0
   36.5883    7.3314   21.9022 C   0  0  0  0  0  0  0  0  0  0  0  0
   36.3395   13.7757   21.4898 O   0  0  0  0  0  0  0  0  0  0  0  0
   39.3650   12.0889   21.2142 N   0  0  0  0  0  0  0  0  0  0  0  0
   35.7697    9.0053   23.0268 O   0  0  0  0  0  0  0  0  0  0  0  0
   37.1149    7.0447   23.1131 O   0  0  0  0  0  0  0  0  0  0  0  0
   39.9245   12.5723   22.4388 C   0  0  0  0  0  0  0  0  0  0  0  0
   39.4086   13.6679   23.2589 C   0  0  2  0  0  0  0  0  0  0  0  0
   38.9120   13.3522   24.6141 C   0  0  0  0  0  0  0  0  0  0  0  0
   39.1538   11.9544   25.1403 C   0  0  0  0  0  0  0  0  0  0  0  0
   38.1770   11.0585   24.4458 C   0  0  0  0  0  0  0  0  0  0  0  0
   40.9823   11.9959   22.8635 O   0  0  0  0  0  0  0  0  0  0  0  0
   38.3480   14.3545   22.5064 N   0  0  0  0  0  0  0  0  0  0  0  0
   34.8868    4.5900   20.9926 C   0  0  0  0  0  0  0  0  0  0  0  0
   35.3462    5.8532   20.3780 C   0  0  0  0  0  0  0  0  0  0  0  0
   34.5210    6.5230   19.3485 C   0  0  0  0  0  0  0  0  0  0  0  0
   34.9372    6.1128   17.9459 C   0  0  0  0  0  0  0  0  0  0  0  0
   33.8205    6.1609   17.1352 O   0  0  0  0  0  0  0  0  0  0  0  0
   36.4837    6.3659   20.7504 C   0  0  0  0  0  0  0  0  0  0  0  0
   37.7116    9.9111   25.2004 N   0  0  0  0  0  4  0  0  0  0  0  0
   38.2987    8.9536   25.7570 C   0  0  0  0  0  0  0  0  0  0  0  0
   39.6652    8.9250   26.3213 C   0  0  0  0  0  0  0  0  0  0  0  0
   40.0126    8.3019   27.4152 C   0  0  0  0  0  0  0  0  0  0  0  0
   39.1530    7.5086   28.3131 C   0  0  0  0  0  0  0  0  0  0  0  0
   39.7408    6.1253   28.5897 C   0  0  0  0  0  0  0  0  0  0  0  0
   39.4099    5.2101   27.6025 O   0  0  0  0  0  0  0  0  0  0  0  0
   36.3546    9.7858   25.3626 O   0  0  0  0  0  0  0  0  0  0  0  0
   37.6235    7.8161   25.8608 O   0  0  0  0  0  0  0  0  0  0  0  0
   38.8996    3.9458   27.6927 C   0  0  0  0  0  0  0  0  0  0  0  0
   37.4654    3.7551   28.0271 C   0  0  2  0  0  0  0  0  0  0  0  0
   36.6323    4.5530   27.0100 C   0  0  0  0  0  0  0  0  0  0  0  0
   35.2621    3.9835   26.8297 C   0  0  0  0  0  0  0  0  0  0  0  0
   34.6719    4.2842   25.4520 C   0  0  0  0  0  0  0  0  0  0  0  0
   34.6839    5.7535   25.2364 N   0  0  0  0  0  4  0  0  0  0  0  0
   33.7969    6.6157   24.9287 C   0  0  0  0  0  0  0  0  0  0  0  0
   32.4347    6.1511   24.5462 C   0  0  0  0  0  0  0  0  0  0  0  0
   31.3682    6.5123   25.2353 C   0  0  0  0  0  0  0  0  0  0  0  0
   31.0048    7.9344   25.3569 C   0  0  0  0  0  0  0  0  0  0  0  0
   31.9593    8.6584   26.2727 C   0  0  0  0  0  0  0  0  0  0  0  0
   31.9172   10.0082   25.9144 O   0  0  0  0  0  0  0  0  0  0  0  0
   39.5734    2.8715   27.5066 O   0  0  0  0  0  0  0  0  0  0  0  0
   35.8651    6.2726   25.4081 O   0  0  0  0  0  0  0  0  0  0  0  0
   34.1604    7.9013   24.9752 O   0  0  0  0  0  0  0  0  0  0  0  0
   30.5191    5.4602   25.8987 C   0  0  0  0  0  0  0  0  0  0  0  0
   37.1140    4.1405   29.3608 N   0  0  0  0  0  0  0  0  0  0  0  0
   36.1366    3.4359   30.1363 C   0  0  0  0  0  0  0  0  0  0  0  0
   34.9350    3.7364   29.9879 O   0  0  0  0  0  0  0  0  0  0  0  0
   36.5168    2.3743   31.0966 C   0  0  0  0  0  0  0  0  0  0  0  0
   36.2021    7.8252   24.4871 Fe  0  0  0  0  0  6  0  0  0  0  0  0
  2  1  1  0
  1  8  2  0
  1 18  1  0
  3  2  1  1
  2  9  1  1
  4  3  1  0
  4  5  1  6
  5  6  1  6
  7  6  2  0
  6 10  1  0
  7 11  1  0
 24  7  1  0
  9 12  1  0
 12 13  1  0
 12 17  2  0
 14 13  1  1
 13 18  1  6
 14 15  1  0
 15 16  1  6
 16 25  1  6
 19 20  1  6
 21 20  1  1
 20 24  2  0
 21 22  1  0
 22 23  1  6
 25 26  2  0
 25 32  1  0
 26 27  1  0
 26 33  1  0
 27 28  2  0
 29 28  1  1
 29 30  1  0
 30 31  1  6
 31 34  1  0
 34 35  1  0
 34 46  2  0
 36 35  1  1
 35 50  1  1
 36 37  1  0
 37 38  1  6
 38 39  1  6
 39 40  2  0
 39 47  1  0
 40 41  1  0
 40 48  1  0
 41 42  2  0
 43 42  1  1
 49 42  1  6
 43 44  1  0
 44 45  1  6
 50 51  1  0
 51 52  2  0
 53 51  1  6
 10 54  1  0
 54 11  1  0
 54 32  1  0
 54 33  1  0
 54 47  1  0
 54 48  1  0
M  CHG  3   6   1  25   1  39   1
M  END
$$$$
