
     RDKit          3D

 54 59  0  0  0  0  0  0  0  0999 V2000
   34.9468   11.2264   21.4907 C   0  0  0  0  0  0  0  0  0  0  0  0
   33.5191   10.8546   21.6292 C   0  0  2  0  0  0  0  0  0  0  0  0
   32.8626   10.3383   20.4391 C   0  0  0  0  0  0  0  0  0  0  0  0
   33.4190    8.9396   20.1971 C   0  0  0  0  0  0  0  0  0  0  0  0
   33.2189    7.9796   21.3134 C   0  0  0  0  0  0  0  0  0  0  0  0
   34.4810    7.4908   21.9021 N   0  0  0  0  0  4  0  0  0  0  0  0
   35.4060    6.7520   21.4299 C   0  0  0  0  0  0  0  0  0  0  0  0
   35.5391   11.0965   20.4045 O   0  0  0  0  0  0  0  0  0  0  0  0
   32.9299   11.9930   22.3318 N   0  0  0  0  0  0  0  0  0  0  0  0
   34.7213    7.8714   23.1454 O   0  0  0  0  0  0  0  0  0  0  0  0
   36.3118    6.3231   22.3133 O   0  0  0  0  0  0  0  0  0  0  0  0
   33.5991   12.3438   23.5485 C   0  0  0  0  0  0  0  0  0  0  0  0
   34.8726   11.6564   23.8878 C   0  0  2  0  0  0  0  0  0  0  0  0
   35.5735   12.0133   25.0909 C   0  0  0  0  0  0  0  0  0  0  0  0
   36.1507   10.7429   25.7458 C   0  0  0  0  0  0  0  0  0  0  0  0
   37.0665    9.9962   24.8604 C   0  0  0  0  0  0  0  0  0  0  0  0
   33.1525   13.2013   24.3279 O   0  0  0  0  0  0  0  0  0  0  0  0
   35.6327   11.7371   22.6246 N   0  0  0  0  0  0  0  0  0  0  0  0
   33.1709    6.5863   18.9794 C   0  0  0  0  0  0  0  0  0  0  0  0
   34.3812    5.8653   19.4346 C   0  0  0  0  0  0  0  0  0  0  0  0
   34.3621    4.3656   19.2271 C   0  0  0  0  0  0  0  0  0  0  0  0
   35.6654    3.8097   19.6629 C   0  0  0  0  0  0  0  0  0  0  0  0
   35.6797    2.4317   19.5684 O   0  0  0  0  0  0  0  0  0  0  0  0
   35.4333    6.4206   20.0035 C   0  0  0  0  0  0  0  0  0  0  0  0
   36.9705    8.5553   25.1029 N   0  0  0  0  0  4  0  0  0  0  0  0
   37.8545    7.6522   25.0437 C   0  0  0  0  0  0  0  0  0  0  0  0
   39.3216    7.7962   25.0253 C   0  0  0  0  0  0  0  0  0  0  0  0
   40.1757    6.9983   25.6220 C   0  0  0  0  0  0  0  0  0  0  0  0
   39.8335    5.8003   26.4292 C   0  0  0  0  0  0  0  0  0  0  0  0
   40.5262    5.8469   27.7629 C   0  0  0  0  0  0  0  0  0  0  0  0
   39.6195    6.2481   28.7414 O   0  0  0  0  0  0  0  0  0  0  0  0
   35.7746    8.0563   25.4397 O   0  0  0  0  0  0  0  0  0  0  0  0
   37.3919    6.3941   24.9906 O   0  0  0  0  0  0  0  0  0  0  0  0
   38.4915    5.5184   29.0644 C   0  0  0  0  0  0  0  0  0  0  0  0
   38.5646    4.0427   29.0421 C   0  0  2  0  0  0  0  0  0  0  0  0
   37.7181    3.4380   27.9775 C   0  0  0  0  0  0  0  0  0  0  0  0
   36.4674    4.1849   27.6297 C   0  0  0  0  0  0  0  0  0  0  0  0
   35.8354    3.4555   26.4603 C   0  0  0  0  0  0  0  0  0  0  0  0
   35.1198    4.3398   25.5547 N   0  0  0  0  0  4  0  0  0  0  0  0
   33.9773    4.9331   25.6560 C   0  0  0  0  0  0  0  0  0  0  0  0
   32.9455    4.4362   26.5651 C   0  0  0  0  0  0  0  0  0  0  0  0
   33.0107    4.2751   27.8549 C   0  0  0  0  0  0  0  0  0  0  0  0
   32.3243    5.1296   28.8313 C   0  0  0  0  0  0  0  0  0  0  0  0
   32.1805    6.5382   28.2492 C   0  0  0  0  0  0  0  0  0  0  0  0
   31.5479    7.3309   29.1715 O   0  0  0  0  0  0  0  0  0  0  0  0
   37.4283    6.1145   29.3712 O   0  0  0  0  0  0  0  0  0  0  0  0
   35.7024    4.6151   24.3830 O   0  0  0  0  0  0  0  0  0  0  0  0
   33.8238    5.9948   24.8897 O   0  0  0  0  0  0  0  0  0  0  0  0
   33.8554    3.1230   28.4086 C   0  0  0  0  0  0  0  0  0  0  0  0
   38.2124    3.5921   30.3705 N   0  0  0  0  0  0  0  0  0  0  0  0
   39.0150    2.6086   30.9988 C   0  0  0  0  0  0  0  0  0  0  0  0
   39.8157    2.9331   31.9410 O   0  0  0  0  0  0  0  0  0  0  0  0
   39.0020    1.1730   30.6381 C   0  0  0  0  0  0  0  0  0  0  0  0
   35.5612    6.5342   24.1289 Fe  0  0  0  0  0  6  0  0  0  0  0  0
  2  1  1  0
  1  8  2  0
  1 18  1  0
  2  3  1  6
  2  9  1  0
  4  3  1  0
  5  4  1  0
  6  5  1  0
  7  6  2  0
  6 10  1  0
  7 11  1  0
 24  7  1  0
  9 12  1  0
 12 13  1  0
 12 17  2  0
 13 14  1  1
 18 13  1  0
 14 15  1  0
 15 16  1  0
 16 25  1  0
 20 19  1  0
 20 21  1  0
 20 24  2  0
 21 22  1  0
 22 23  1  0
 25 26  2  0
 25 32  1  0
 26 27  1  0
 26 33  1  0
 27 28  2  0
 28 29  1  0
 29 30  1  0
 30 31  1  0
 31 34  1  0
 34 35  1  0
 34 46  2  0
 35 36  1  0
 35 50  1  1
 36 37  1  0
 37 38  1  0
 38 39  1  0
 39 40  2  0
 39 47  1  0
 40 41  1  0
 40 48  1  0
 41 42  2  0
 42 43  1  0
 42 49  1  0
 43 44  1  0
 44 45  1  0
 50 51  1  0
 51 52  2  0
 51 53  1  0
 10 54  1  0
 54 11  1  0
 54 32  1  0
 54 33  1  0
 54 47  1  0
 54 48  1  0
M  CHG  3   6   1  25   1  39   1
M  END
$$$$
