
     RDKit          3D

 54 59  0  0  0  0  0  0  0  0999 V2000
   38.4091    7.3255   20.2964 C   0  0  0  0  0  0  0  0  0  0  0  0
   37.6791    6.1005   19.8938 C   0  0  2  0  0  0  0  0  0  0  0  0
   38.4251    4.8534   19.9401 C   0  0  0  0  0  0  0  0  0  0  0  0
   38.6175    4.5061   21.4122 C   0  0  0  0  0  0  0  0  0  0  0  0
   37.3625    4.3471   22.1918 C   0  0  0  0  0  0  0  0  0  0  0  0
   37.2216    5.3273   23.2860 N   0  0  0  0  0  4  0  0  0  0  0  0
   37.8755    5.4892   24.3680 C   0  0  0  0  0  0  0  0  0  0  0  0
   39.5994    7.2722   20.6542 O   0  0  0  0  0  0  0  0  0  0  0  0
   37.0109    6.4861   18.6522 N   0  0  0  0  0  0  0  0  0  0  0  0
   36.2465    6.2094   23.1463 O   0  0  0  0  0  0  0  0  0  0  0  0
   37.3417    6.3448   25.2443 O   0  0  0  0  0  0  0  0  0  0  0  0
   36.2174    7.6739   18.7557 C   0  0  0  0  0  0  0  0  0  0  0  0
   36.2738    8.4642   20.0134 C   0  0  2  0  0  0  0  0  0  0  0  0
   35.5057    9.6737   20.1271 C   0  0  0  0  0  0  0  0  0  0  0  0
   34.9119    9.7743   21.5460 C   0  0  0  0  0  0  0  0  0  0  0  0
   35.9368    9.7549   22.6087 C   0  0  0  0  0  0  0  0  0  0  0  0
   35.4855    8.0655   17.8320 O   0  0  0  0  0  0  0  0  0  0  0  0
   37.7245    8.5694   20.2669 N   0  0  0  0  0  0  0  0  0  0  0  0
   40.2931    4.1521   26.7052 C   0  0  0  0  0  0  0  0  0  0  0  0
   39.2617    3.9926   25.6550 C   0  0  0  0  0  0  0  0  0  0  0  0
   38.3139    2.8274   25.8453 C   0  0  0  0  0  0  0  0  0  0  0  0
   39.0827    1.5657   25.7237 C   0  0  0  0  0  0  0  0  0  0  0  0
   38.2463    0.4874   25.5097 O   0  0  0  0  0  0  0  0  0  0  0  0
   39.1269    4.7621   24.5927 C   0  0  0  0  0  0  0  0  0  0  0  0
   35.4343    9.0833   23.8089 N   0  0  0  0  0  4  0  0  0  0  0  0
   35.6688    9.3042   25.0324 C   0  0  0  0  0  0  0  0  0  0  0  0
   36.2658   10.4988   25.6568 C   0  0  0  0  0  0  0  0  0  0  0  0
   35.9104   11.0179   26.8085 C   0  0  0  0  0  0  0  0  0  0  0  0
   34.8423   10.5065   27.7038 C   0  0  0  0  0  0  0  0  0  0  0  0
   33.8993   11.6133   28.0864 C   0  0  0  0  0  0  0  0  0  0  0  0
   32.7342   11.5109   27.3297 O   0  0  0  0  0  0  0  0  0  0  0  0
   34.5899    8.0574   23.6440 O   0  0  0  0  0  0  0  0  0  0  0  0
   35.3275    8.3163   25.8732 O   0  0  0  0  0  0  0  0  0  0  0  0
   31.8888   10.4200   27.3968 C   0  0  0  0  0  0  0  0  0  0  0  0
   31.6851    9.7530   28.6995 C   0  0  2  0  0  0  0  0  0  0  0  0
   32.2299    8.3681   28.7313 C   0  0  0  0  0  0  0  0  0  0  0  0
   32.2000    7.6209   27.4337 C   0  0  0  0  0  0  0  0  0  0  0  0
   32.9000    6.2980   27.6767 C   0  0  0  0  0  0  0  0  0  0  0  0
   33.6036    5.8005   26.5055 N   0  0  0  0  0  4  0  0  0  0  0  0
   33.1800    5.2475   25.4182 C   0  0  0  0  0  0  0  0  0  0  0  0
   31.8775    4.5851   25.3648 C   0  0  0  0  0  0  0  0  0  0  0  0
   30.9158    4.6158   26.2413 C   0  0  0  0  0  0  0  0  0  0  0  0
   29.4968    4.7869   25.9072 C   0  0  0  0  0  0  0  0  0  0  0  0
   29.3316    6.0507   25.0592 C   0  0  0  0  0  0  0  0  0  0  0  0
   28.0167    6.1598   24.6872 O   0  0  0  0  0  0  0  0  0  0  0  0
   31.3087   10.0142   26.3582 O   0  0  0  0  0  0  0  0  0  0  0  0
   34.9370    5.9006   26.5060 O   0  0  0  0  0  0  0  0  0  0  0  0
   33.9999    5.3270   24.3890 O   0  0  0  0  0  0  0  0  0  0  0  0
   31.2700    4.4657   27.7244 C   0  0  0  0  0  0  0  0  0  0  0  0
   30.2665    9.8105   28.9751 N   0  0  0  0  0  0  0  0  0  0  0  0
   29.7227    8.9560   29.9652 C   0  0  0  0  0  0  0  0  0  0  0  0
   28.4617    8.9282   30.1732 O   0  0  0  0  0  0  0  0  0  0  0  0
   30.5302    8.0532   30.8162 C   0  0  0  0  0  0  0  0  0  0  0  0
   35.4420    6.6158   24.7737 Fe  0  0  0  0  0  6  0  0  0  0  0  0
  2  1  1  0
  1  8  2  0
  1 18  1  0
  2  3  1  6
  2  9  1  0
  4  3  1  0
  5  4  1  0
  6  5  1  0
  7  6  2  0
  6 10  1  0
  7 11  1  0
 24  7  1  0
  9 12  1  0
 12 13  1  0
 12 17  2  0
 13 14  1  6
 18 13  1  0
 14 15  1  0
 15 16  1  0
 16 25  1  0
 20 19  1  0
 20 21  1  0
 20 24  2  0
 21 22  1  0
 22 23  1  0
 25 26  2  0
 25 32  1  0
 26 27  1  0
 26 33  1  0
 27 28  2  0
 28 29  1  0
 29 30  1  0
 30 31  1  0
 31 34  1  0
 34 35  1  0
 34 46  2  0
 35 36  1  0
 35 50  1  6
 36 37  1  0
 37 38  1  0
 38 39  1  0
 39 40  2  0
 39 47  1  0
 40 41  1  0
 40 48  1  0
 41 42  2  0
 42 43  1  0
 42 49  1  0
 43 44  1  0
 44 45  1  0
 50 51  1  0
 51 52  2  0
 51 53  1  0
 10 54  1  0
 54 11  1  0
 54 32  1  0
 54 33  1  0
 54 47  1  0
 54 48  1  0
M  CHG  3   6   1  25   1  39   1
M  END
$$$$
