
     RDKit          3D

 54 59  0  0  0  0  0  0  0  0999 V2000
   40.1635    6.8914   28.2350 C   0  0  0  0  0  0  0  0  0  0  0  0
   40.2868    8.2797   27.7317 C   0  0  2  0  0  0  0  0  0  0  0  0
   41.4319    8.5647   26.8824 C   0  0  0  0  0  0  0  0  0  0  0  0
   41.1729    7.8810   25.5445 C   0  0  0  0  0  0  0  0  0  0  0  0
   39.9344    8.3118   24.8455 C   0  0  0  0  0  0  0  0  0  0  0  0
   38.9540    7.2241   24.6619 N   0  0  0  0  0  4  0  0  0  0  0  0
   38.9868    6.1643   23.9546 C   0  0  0  0  0  0  0  0  0  0  0  0
   41.0051    6.0255   27.9360 O   0  0  0  0  0  0  0  0  0  0  0  0
   40.0569    9.1015   28.9185 N   0  0  0  0  0  0  0  0  0  0  0  0
   37.8260    7.3455   25.3410 O   0  0  0  0  0  0  0  0  0  0  0  0
   37.8316    5.5011   23.8519 O   0  0  0  0  0  0  0  0  0  0  0  0
   38.8423    8.8013   29.6156 C   0  0  0  0  0  0  0  0  0  0  0  0
   38.0429    7.6244   29.1849 C   0  0  2  0  0  0  0  0  0  0  0  0
   36.8350    7.2904   29.8887 C   0  0  0  0  0  0  0  0  0  0  0  0
   35.7625    6.8323   28.8808 C   0  0  0  0  0  0  0  0  0  0  0  0
   36.1828    5.6713   28.0711 C   0  0  0  0  0  0  0  0  0  0  0  0
   38.4352    9.4893   30.5660 O   0  0  0  0  0  0  0  0  0  0  0  0
   39.0626    6.5628   29.0699 N   0  0  0  0  0  0  0  0  0  0  0  0
   41.4521    7.7799   24.0549 C   0  0  0  0  0  0  0  0  0  0  0  0
   41.3557    6.3879   23.5597 C   0  0  0  0  0  0  0  0  0  0  0  0
   42.6774    5.6926   23.3108 C   0  0  0  0  0  0  0  0  0  0  0  0
   43.3700    6.3763   22.1925 C   0  0  0  0  0  0  0  0  0  0  0  0
   44.5918    5.7898   21.9258 O   0  0  0  0  0  0  0  0  0  0  0  0
   40.2339    5.7397   23.3144 C   0  0  0  0  0  0  0  0  0  0  0  0
   35.6175    5.7412   26.7221 N   0  0  0  0  0  4  0  0  0  0  0  0
   35.2319    4.8205   25.9448 C   0  0  0  0  0  0  0  0  0  0  0  0
   34.9294    3.4126   26.2600 C   0  0  0  0  0  0  0  0  0  0  0  0
   33.9629    2.7009   25.7294 C   0  0  0  0  0  0  0  0  0  0  0  0
   32.9890    3.1722   24.7129 C   0  0  0  0  0  0  0  0  0  0  0  0
   31.5828    2.8621   25.1455 C   0  0  0  0  0  0  0  0  0  0  0  0
   30.9863    4.0183   25.6437 O   0  0  0  0  0  0  0  0  0  0  0  0
   35.4668    6.9514   26.1694 O   0  0  0  0  0  0  0  0  0  0  0  0
   35.0784    5.1759   24.6604 O   0  0  0  0  0  0  0  0  0  0  0  0
   30.7743    5.1455   24.8732 C   0  0  0  0  0  0  0  0  0  0  0  0
   30.4073    4.9806   23.4514 C   0  0  2  0  0  0  0  0  0  0  0  0
   31.4587    5.4764   22.5217 C   0  0  0  0  0  0  0  0  0  0  0  0
   32.2754    6.6326   23.0108 C   0  0  0  0  0  0  0  0  0  0  0  0
   33.3416    6.8869   21.9632 C   0  0  0  0  0  0  0  0  0  0  0  0
   34.5857    7.3885   22.5243 N   0  0  0  0  0  4  0  0  0  0  0  0
   34.9167    8.5505   22.9801 C   0  0  0  0  0  0  0  0  0  0  0  0
   34.1905    9.7546   22.5794 C   0  0  0  0  0  0  0  0  0  0  0  0
   33.5721    9.9933   21.4593 C   0  0  0  0  0  0  0  0  0  0  0  0
   33.0769    8.9534   20.5494 C   0  0  0  0  0  0  0  0  0  0  0  0
   33.7462    9.1242   19.1832 C   0  0  0  0  0  0  0  0  0  0  0  0
   33.8587    7.8919   18.5933 O   0  0  0  0  0  0  0  0  0  0  0  0
   30.8942    6.2859   25.3881 O   0  0  0  0  0  0  0  0  0  0  0  0
   35.6115    6.5337   22.5962 O   0  0  0  0  0  0  0  0  0  0  0  0
   35.9384    8.5588   23.8132 O   0  0  0  0  0  0  0  0  0  0  0  0
   33.3375   11.4502   21.0470 C   0  0  0  0  0  0  0  0  0  0  0  0
   29.1348    5.6447   23.2740 N   0  0  0  0  0  0  0  0  0  0  0  0
   28.6927    5.9458   21.9625 C   0  0  0  0  0  0  0  0  0  0  0  0
   27.7797    6.8203   21.7731 O   0  0  0  0  0  0  0  0  0  0  0  0
   29.2243    5.3026   20.7398 C   0  0  0  0  0  0  0  0  0  0  0  0
   36.3652    6.7176   24.3754 Fe  0  0  0  0  0  6  0  0  0  0  0  0
  2  1  1  0
  1  8  2  0
  1 18  1  0
  2  3  1  1
  2  9  1  0
  4  3  1  0
  5  4  1  0
  6  5  1  0
  7  6  2  0
  6 10  1  0
  7 11  1  0
 24  7  1  0
  9 12  1  0
 12 13  1  0
 12 17  2  0
 13 14  1  1
 18 13  1  0
 14 15  1  0
 15 16  1  0
 16 25  1  0
 20 19  1  0
 20 21  1  0
 20 24  2  0
 21 22  1  0
 22 23  1  0
 25 26  2  0
 25 32  1  0
 26 27  1  0
 26 33  1  0
 27 28  2  0
 28 29  1  0
 29 30  1  0
 30 31  1  0
 31 34  1  0
 34 35  1  0
 34 46  2  0
 35 36  1  0
 35 50  1  1
 36 37  1  0
 37 38  1  0
 38 39  1  0
 39 40  2  0
 39 47  1  0
 40 41  1  0
 40 48  1  0
 41 42  2  0
 42 43  1  0
 42 49  1  0
 43 44  1  0
 44 45  1  0
 50 51  1  0
 51 52  2  0
 51 53  1  0
 10 54  1  0
 54 11  1  0
 54 32  1  0
 54 33  1  0
 54 47  1  0
 54 48  1  0
M  CHG  3   6   1  25   1  39   1
M  END
$$$$
