
     RDKit          3D

 54 59  0  0  0  0  0  0  0  0999 V2000
   35.7968   13.3321   21.7985 C   0  0  0  0  0  0  0  0  0  0  0  0
   36.1742   12.4738   20.6377 C   0  0  2  0  0  0  0  0  0  0  0  0
   35.1753   11.3007   20.4735 C   0  0  0  0  0  0  0  0  0  0  0  0
   35.4312   10.3266   21.5740 C   0  0  0  0  0  0  0  0  0  0  0  0
   34.6486    9.0623   21.4231 C   0  0  0  0  0  0  0  0  0  0  0  0
   35.1458    8.0990   22.4720 N   0  0  0  0  0  4  0  0  0  0  0  0
   35.6342    6.9480   22.3277 C   0  0  0  0  0  0  0  0  0  0  0  0
   34.5817   13.3217   22.1549 O   0  0  0  0  0  0  0  0  0  0  0  0
   37.5177   11.9662   20.8830 N   0  0  0  0  0  0  0  0  0  0  0  0
   35.0491    8.5400   23.6916 O   0  0  0  0  0  0  0  0  0  0  0  0
   36.5506    6.7369   23.2979 O   0  0  0  0  0  0  0  0  0  0  0  0
   38.3876   12.5244   21.8720 C   0  0  0  0  0  0  0  0  0  0  0  0
   38.0505   13.5697   22.8377 C   0  0  2  0  0  0  0  0  0  0  0  0
   38.0544   13.2218   24.2736 C   0  0  0  0  0  0  0  0  0  0  0  0
   38.6002   11.8657   24.6639 C   0  0  0  0  0  0  0  0  0  0  0  0
   37.5527   10.8602   24.3023 C   0  0  0  0  0  0  0  0  0  0  0  0
   39.5809   12.0712   21.9207 O   0  0  0  0  0  0  0  0  0  0  0  0
   36.7372   14.1275   22.4820 N   0  0  0  0  0  0  0  0  0  0  0  0
   33.9697    5.5044   19.2831 C   0  0  0  0  0  0  0  0  0  0  0  0
   34.0945    5.9588   20.6839 C   0  0  0  0  0  0  0  0  0  0  0  0
   32.8984    6.4091   21.4295 C   0  0  0  0  0  0  0  0  0  0  0  0
   32.1646    5.2405   22.0656 C   0  0  0  0  0  0  0  0  0  0  0  0
   31.1827    4.8219   21.1897 O   0  0  0  0  0  0  0  0  0  0  0  0
   35.2668    5.9606   21.2508 C   0  0  0  0  0  0  0  0  0  0  0  0
   37.4805    9.6803   25.1421 N   0  0  0  0  0  4  0  0  0  0  0  0
   38.3141    8.7995   25.4592 C   0  0  0  0  0  0  0  0  0  0  0  0
   39.7844    8.9261   25.5523 C   0  0  0  0  0  0  0  0  0  0  0  0
   40.5305    8.3596   26.4623 C   0  0  0  0  0  0  0  0  0  0  0  0
   40.0961    7.4913   27.5722 C   0  0  0  0  0  0  0  0  0  0  0  0
   40.8853    6.1833   27.6151 C   0  0  0  0  0  0  0  0  0  0  0  0
   40.3529    5.2238   26.7679 O   0  0  0  0  0  0  0  0  0  0  0  0
   36.2700    9.4121   25.7302 O   0  0  0  0  0  0  0  0  0  0  0  0
   37.8335    7.5976   25.7508 O   0  0  0  0  0  0  0  0  0  0  0  0
   40.0365    3.9134   26.9908 C   0  0  0  0  0  0  0  0  0  0  0  0
   38.8158    3.5744   27.7655 C   0  0  2  0  0  0  0  0  0  0  0  0
   37.6192    4.2635   27.0884 C   0  0  0  0  0  0  0  0  0  0  0  0
   36.3330    3.5475   27.3472 C   0  0  0  0  0  0  0  0  0  0  0  0
   35.3013    3.7633   26.2400 C   0  0  0  0  0  0  0  0  0  0  0  0
   35.0867    5.2222   26.0633 N   0  0  0  0  0  4  0  0  0  0  0  0
   34.0615    5.9796   26.0765 C   0  0  0  0  0  0  0  0  0  0  0  0
   32.7063    5.3658   26.1435 C   0  0  0  0  0  0  0  0  0  0  0  0
   32.2829    4.7560   27.2352 C   0  0  0  0  0  0  0  0  0  0  0  0
   31.4571    5.4760   28.2194 C   0  0  0  0  0  0  0  0  0  0  0  0
   31.2455    6.9090   27.8003 C   0  0  0  0  0  0  0  0  0  0  0  0
   29.8650    7.1021   27.7046 O   0  0  0  0  0  0  0  0  0  0  0  0
   40.7244    2.9153   26.5746 O   0  0  0  0  0  0  0  0  0  0  0  0
   36.1979    5.8677   25.8562 O   0  0  0  0  0  0  0  0  0  0  0  0
   34.2816    7.2972   26.0306 O   0  0  0  0  0  0  0  0  0  0  0  0
   32.6474    3.3140   27.4712 C   0  0  0  0  0  0  0  0  0  0  0  0
   38.8747    3.9388   29.1491 N   0  0  0  0  0  0  0  0  0  0  0  0
   38.6973    2.9881   30.2065 C   0  0  0  0  0  0  0  0  0  0  0  0
   38.7489    1.7739   29.9251 O   0  0  0  0  0  0  0  0  0  0  0  0
   38.4571    3.4100   31.6059 C   0  0  0  0  0  0  0  0  0  0  0  0
   36.0525    7.4342   24.9091 Fe  0  0  0  0  0  6  0  0  0  0  0  0
  2  1  1  0
  1  8  2  0
  1 18  1  0
  3  2  1  1
  2  9  1  1
  4  3  1  0
  4  5  1  6
  5  6  1  6
  7  6  2  0
  6 10  1  0
  7 11  1  0
 24  7  1  0
  9 12  1  0
 12 13  1  0
 12 17  2  0
 14 13  1  1
 13 18  1  6
 14 15  1  0
 15 16  1  6
 16 25  1  6
 19 20  1  6
 21 20  1  1
 20 24  2  0
 21 22  1  0
 22 23  1  6
 25 26  2  0
 25 32  1  0
 26 27  1  0
 26 33  1  0
 27 28  2  0
 29 28  1  1
 29 30  1  0
 30 31  1  6
 31 34  1  0
 34 35  1  0
 34 46  2  0
 36 35  1  1
 35 50  1  1
 36 37  1  0
 37 38  1  6
 38 39  1  6
 39 40  2  0
 39 47  1  0
 40 41  1  0
 40 48  1  0
 41 42  2  0
 43 42  1  1
 49 42  1  6
 43 44  1  0
 44 45  1  6
 50 51  1  0
 51 52  2  0
 53 51  1  6
 10 54  1  0
 54 11  1  0
 54 32  1  0
 54 33  1  0
 54 47  1  0
 54 48  1  0
M  CHG  3   6   1  25   1  39   1
M  END
$$$$
