
     RDKit          3D

 30 33  0  0  0  0  0  0  0  0999 V2000
  -24.8926    9.6750    1.0472 C   0  0  0  0  0  0  0  0  0  0  0  0
  -24.9376    9.5050    2.4141 C   0  0  0  0  0  0  0  0  0  0  0  0
  -26.0793    9.7814    3.1457 C   0  0  0  0  0  0  0  0  0  0  0  0
  -27.2250   10.2413    2.5330 C   0  0  0  0  0  0  0  0  0  0  0  0
  -26.0447   10.1366    0.4367 C   0  0  0  0  0  0  0  0  0  0  0  0
  -11.5525    8.9011    2.2027 C   0  0  0  0  0  0  0  0  0  0  0  0
  -12.7677    9.0430    1.3485 C   0  0  0  0  0  0  0  0  0  0  0  0
  -12.9093    8.2989    0.1881 C   0  0  0  0  0  0  0  0  0  0  0  0
  -14.0424    8.4413   -0.5950 C   0  0  0  0  0  0  0  0  0  0  0  0
  -13.7663    9.9186    1.7026 C   0  0  0  0  0  0  0  0  0  0  0  0
  -14.9009   10.0471    0.8994 C   0  0  0  0  0  0  0  0  0  0  0  0
  -15.0487    9.3123   -0.2525 C   0  0  0  0  0  0  0  0  0  0  0  0
  -17.9335    9.1090   -0.1606 C   0  0  1  0  0  0  0  0  0  0  0  0
  -18.4245    6.8178   -0.2880 C   0  0  2  0  0  0  0  0  0  0  0  0
  -17.7464    6.2844   -1.5382 C   0  0  0  0  0  0  0  0  0  0  0  0
  -19.9005    7.0698   -0.4816 C   0  0  1  0  0  0  0  0  0  0  0  0
  -20.2448    8.4703   -0.0019 C   0  0  1  0  0  0  0  0  0  0  0  0
  -22.4718    9.0134    0.8079 C   0  0  0  0  0  0  0  0  0  0  0  0
  -23.6815    9.3875    0.2738 C   0  0  0  0  0  0  0  0  0  0  0  0
  -27.1818   10.4128    1.1621 C   0  0  0  0  0  0  0  0  0  0  0  0
  -19.2621    9.3672   -0.7800 C   0  0  1  0  0  0  0  0  0  0  0  0
  -26.0596    9.5922    4.4981 F   0  0  0  0  0  0  0  0  0  0  0  0
  -21.5948    8.8466   -0.2312 N   0  0  0  0  0  0  0  0  0  0  0  0
  -23.4723    9.4250   -1.0507 N   0  0  0  0  0  0  0  0  0  0  0  0
  -22.2211    9.1002   -1.3468 N   0  0  0  0  0  0  0  0  0  0  0  0
  -17.7507    7.8317    0.3129 O   0  0  0  0  0  0  0  0  0  0  0  0
  -17.4203    4.9541   -1.4876 O   0  0  0  0  0  0  0  0  0  0  0  0
  -20.2842    6.8981   -1.8063 O   0  0  0  0  0  0  0  0  0  0  0  0
  -19.6247   10.7075   -0.6400 O   0  0  0  0  0  0  0  0  0  0  0  0
  -16.5274    9.5269   -1.2164 S   0  0  0  0  0  0  0  0  0  0  0  0
  1  2  2  0
  1  5  1  0
 19  1  1  0
  2  3  1  0
  3  4  2  0
  3 22  1  0
 20  4  1  0
  5 20  2  0
  7  6  1  0
  8  7  2  0
 10  7  1  0
  9  8  1  0
 12  9  2  0
 11 10  2  0
 12 11  1  0
 30 12  1  0
 21 13  1  0
 13 26  1  0
 13 30  1  6
 14 15  1  6
 16 14  1  0
 14 26  1  0
 15 27  1  0
 17 16  1  0
 16 28  1  6
 17 21  1  0
 17 23  1  6
 18 19  2  0
 18 23  1  0
 19 24  1  0
 21 29  1  1
 23 25  1  0
 24 25  2  0
M  END
$$$$
