
     RDKit          3D

 30 33  0  0  0  0  0  0  0  0999 V2000
  -13.2697    8.9372   -0.2209 C   0  0  0  0  0  0  0  0  0  0  0  0
  -12.3957    8.9092    0.8443 C   0  0  0  0  0  0  0  0  0  0  0  0
  -11.0351    8.7295    0.6661 C   0  0  0  0  0  0  0  0  0  0  0  0
  -10.4956    8.5700   -0.5920 C   0  0  0  0  0  0  0  0  0  0  0  0
  -12.7237    8.7768   -1.4816 C   0  0  0  0  0  0  0  0  0  0  0  0
  -26.0921    9.3915   -5.1521 C   0  0  0  0  0  0  0  0  0  0  0  0
  -25.0983    9.3388   -4.0403 C   0  0  0  0  0  0  0  0  0  0  0  0
  -23.9647    8.5482   -4.1398 C   0  0  0  0  0  0  0  0  0  0  0  0
  -23.0512    8.5089   -3.0998 C   0  0  0  0  0  0  0  0  0  0  0  0
  -25.2961   10.0764   -2.8975 C   0  0  0  0  0  0  0  0  0  0  0  0
  -24.3629   10.0231   -1.8605 C   0  0  0  0  0  0  0  0  0  0  0  0
  -23.2361    9.2417   -1.9520 C   0  0  0  0  0  0  0  0  0  0  0  0
  -20.4403    8.9456   -1.2682 C   0  0  1  0  0  0  0  0  0  0  0  0
  -19.8291    6.6906   -1.0490 C   0  0  2  0  0  0  0  0  0  0  0  0
  -20.7548    6.0753   -0.0137 C   0  0  0  0  0  0  0  0  0  0  0  0
  -18.4698    7.0369   -0.4905 C   0  0  1  0  0  0  0  0  0  0  0  0
  -18.1212    8.4713   -0.8528 C   0  0  1  0  0  0  0  0  0  0  0  0
  -15.6920    8.4918   -0.7585 C   0  0  0  0  0  0  0  0  0  0  0  0
  -14.7110    9.1219   -0.0311 C   0  0  0  0  0  0  0  0  0  0  0  0
  -11.3705    8.5975   -1.6617 C   0  0  0  0  0  0  0  0  0  0  0  0
  -19.3294    9.2755   -0.3341 C   0  0  1  0  0  0  0  0  0  0  0  0
  -10.2217    8.7112    1.7630 F   0  0  0  0  0  0  0  0  0  0  0  0
  -16.9016    8.9320   -0.2898 N   0  0  0  0  0  0  0  0  0  0  0  0
  -15.3761    9.9027    0.8335 N   0  0  0  0  0  0  0  0  0  0  0  0
  -16.6873    9.7845    0.6737 N   0  0  0  0  0  0  0  0  0  0  0  0
  -20.4055    7.6734   -1.7871 O   0  0  0  0  0  0  0  0  0  0  0  0
  -21.1402    4.7883   -0.2852 O   0  0  0  0  0  0  0  0  0  0  0  0
  -18.4149    6.8528    0.8859 O   0  0  0  0  0  0  0  0  0  0  0  0
  -19.0430   10.6410   -0.3636 O   0  0  0  0  0  0  0  0  0  0  0  0
  -22.0909    9.2350   -0.5917 S   0  0  0  0  0  0  0  0  0  0  0  0
  1  2  2  0
  1  5  1  0
 19  1  1  0
  2  3  1  0
  3  4  2  0
  3 22  1  0
 20  4  1  0
  5 20  2  0
  7  6  1  0
  8  7  2  0
 10  7  1  0
  9  8  1  0
 12  9  2  0
 11 10  2  0
 12 11  1  0
 30 12  1  0
 21 13  1  0
 13 26  1  0
 13 30  1  1
 14 15  1  1
 16 14  1  0
 14 26  1  0
 15 27  1  0
 17 16  1  0
 16 28  1  1
 17 21  1  0
 17 23  1  1
 18 19  2  0
 18 23  1  0
 19 24  1  0
 21 29  1  6
 23 25  1  0
 24 25  2  0
M  END
$$$$
