
     RDKit          3D

 30 33  0  0  0  0  0  0  0  0999 V2000
  -13.0576    8.8983   -0.4866 C   0  0  0  0  0  0  0  0  0  0  0  0
  -12.0557    8.5213    0.3770 C   0  0  0  0  0  0  0  0  0  0  0  0
  -10.7078    8.6047    0.0086 C   0  0  0  0  0  0  0  0  0  0  0  0
  -10.3898    9.0743   -1.2443 C   0  0  0  0  0  0  0  0  0  0  0  0
  -12.7045    9.3633   -1.7313 C   0  0  0  0  0  0  0  0  0  0  0  0
  -26.1347    8.5049   -4.3971 C   0  0  0  0  0  0  0  0  0  0  0  0
  -24.9738    8.9330   -3.5701 C   0  0  0  0  0  0  0  0  0  0  0  0
  -24.5476    8.2038   -2.4826 C   0  0  0  0  0  0  0  0  0  0  0  0
  -23.4763    8.5774   -1.7004 C   0  0  0  0  0  0  0  0  0  0  0  0
  -24.3043   10.1082   -3.9139 C   0  0  0  0  0  0  0  0  0  0  0  0
  -23.2239   10.4872   -3.1271 C   0  0  0  0  0  0  0  0  0  0  0  0
  -22.8207    9.7373   -2.0453 C   0  0  0  0  0  0  0  0  0  0  0  0
  -20.2343    8.9320   -1.0113 C   0  0  1  0  0  0  0  0  0  0  0  0
  -19.8932    6.7156   -0.5920 C   0  0  2  0  0  0  0  0  0  0  0  0
  -20.5230    5.4771    0.0074 C   0  0  0  0  0  0  0  0  0  0  0  0
  -18.5538    6.9501    0.0937 C   0  0  1  0  0  0  0  0  0  0  0  0
  -17.9751    8.2015   -0.5263 C   0  0  1  0  0  0  0  0  0  0  0  0
  -15.5581    8.4699   -0.8265 C   0  0  0  0  0  0  0  0  0  0  0  0
  -14.4486    8.7995   -0.0733 C   0  0  0  0  0  0  0  0  0  0  0  0
  -11.3632    9.4543   -2.1188 C   0  0  0  0  0  0  0  0  0  0  0  0
  -18.9639    9.3146   -0.2806 C   0  0  1  0  0  0  0  0  0  0  0  0
   -9.7176    8.2358    0.8523 F   0  0  0  0  0  0  0  0  0  0  0  0
  -16.6563    8.4962   -0.0501 N   0  0  0  0  0  0  0  0  0  0  0  0
  -14.9424    9.0170    1.1642 N   0  0  0  0  0  0  0  0  0  0  0  0
  -16.2503    8.8331    1.1599 N   0  0  0  0  0  0  0  0  0  0  0  0
  -20.7274    7.7858   -0.3670 O   0  0  0  0  0  0  0  0  0  0  0  0
  -21.6800    5.1810   -0.7072 O   0  0  0  0  0  0  0  0  0  0  0  0
  -18.8660    7.2028    1.4483 O   0  0  0  0  0  0  0  0  0  0  0  0
  -18.4866   10.5473   -0.7114 O   0  0  0  0  0  0  0  0  0  0  0  0
  -21.4269   10.2669   -1.0662 S   0  0  0  0  0  0  0  0  0  0  0  0
  1  2  2  0
  1  5  1  0
 19  1  1  0
  2  3  1  0
  3  4  2  0
  3 22  1  0
 20  4  1  0
  5 20  2  0
  6  7  1  6
  8  7  2  0
 10  7  1  0
  9  8  1  0
 12  9  2  0
 11 10  2  0
 12 11  1  0
 30 12  1  0
 21 13  1  0
 13 26  1  0
 13 30  1  1
 14 15  1  0
 16 14  1  0
 14 26  1  1
 15 27  1  6
 17 16  1  0
 16 28  1  1
 17 21  1  0
 17 23  1  1
 18 19  2  0
 18 23  1  0
 19 24  1  0
 21 29  1  6
 23 25  1  0
 24 25  2  0
M  END
$$$$
