
     RDKit          3D

 30 33  0  0  0  0  0  0  0  0999 V2000
  -13.1772    8.5353   -0.0062 C   0  0  0  0  0  0  0  0  0  0  0  0
  -13.1747    8.3781    1.3601 C   0  0  0  0  0  0  0  0  0  0  0  0
  -12.0397    8.6730    2.1245 C   0  0  0  0  0  0  0  0  0  0  0  0
  -10.9096    9.1284    1.4866 C   0  0  0  0  0  0  0  0  0  0  0  0
  -12.0307    8.9926   -0.6118 C   0  0  0  0  0  0  0  0  0  0  0  0
  -26.7083    9.4042   -2.0478 C   0  0  0  0  0  0  0  0  0  0  0  0
  -25.2993    9.6030   -1.6116 C   0  0  0  0  0  0  0  0  0  0  0  0
  -24.9627   10.5108   -0.6325 C   0  0  0  0  0  0  0  0  0  0  0  0
  -23.6667   10.7145   -0.2101 C   0  0  0  0  0  0  0  0  0  0  0  0
  -24.2976    8.8435   -2.2176 C   0  0  0  0  0  0  0  0  0  0  0  0
  -22.9904    9.0468   -1.7937 C   0  0  0  0  0  0  0  0  0  0  0  0
  -22.6841    9.9620   -0.8121 C   0  0  0  0  0  0  0  0  0  0  0  0
  -20.0573    8.7348   -0.7845 C   0  0  1  0  0  0  0  0  0  0  0  0
  -19.8632    6.4680   -0.6139 C   0  0  2  0  0  0  0  0  0  0  0  0
  -20.3515    5.2566    0.1503 C   0  0  0  0  0  0  0  0  0  0  0  0
  -18.3431    6.5054   -0.5296 C   0  0  1  0  0  0  0  0  0  0  0  0
  -17.9079    7.7365   -1.2912 C   0  0  1  0  0  0  0  0  0  0  0  0
  -15.6899    8.1964   -0.3568 C   0  0  0  0  0  0  0  0  0  0  0  0
  -14.3730    8.2201   -0.7718 C   0  0  0  0  0  0  0  0  0  0  0  0
  -10.8858    9.2929    0.1342 C   0  0  0  0  0  0  0  0  0  0  0  0
  -18.5626    8.9223   -0.6260 C   0  0  1  0  0  0  0  0  0  0  0  0
  -12.0301    8.5208    3.4681 F   0  0  0  0  0  0  0  0  0  0  0  0
  -16.4831    7.8529   -1.3875 N   0  0  0  0  0  0  0  0  0  0  0  0
  -14.4318    7.8788   -2.0767 N   0  0  0  0  0  0  0  0  0  0  0  0
  -15.6880    7.6650   -2.4243 N   0  0  0  0  0  0  0  0  0  0  0  0
  -20.3917    7.5969   -0.0323 O   0  0  0  0  0  0  0  0  0  0  0  0
  -21.2770    4.5807   -0.6395 O   0  0  0  0  0  0  0  0  0  0  0  0
  -18.0485    6.6772    0.8415 O   0  0  0  0  0  0  0  0  0  0  0  0
  -18.1456   10.1300   -1.1742 O   0  0  0  0  0  0  0  0  0  0  0  0
  -20.9893   10.1860   -0.3027 S   0  0  0  0  0  0  0  0  0  0  0  0
  1  2  2  0
  1  5  1  0
 19  1  1  0
  2  3  1  0
  3  4  2  0
  3 22  1  0
 20  4  1  0
  5 20  2  0
  6  7  1  6
  8  7  2  0
 10  7  1  0
  9  8  1  0
 12  9  2  0
 11 10  2  0
 12 11  1  0
 30 12  1  0
 21 13  1  0
 13 26  1  0
 13 30  1  1
 14 15  1  0
 16 14  1  0
 14 26  1  1
 15 27  1  6
 17 16  1  0
 16 28  1  1
 17 21  1  0
 17 23  1  1
 18 19  2  0
 18 23  1  0
 19 24  1  0
 21 29  1  6
 23 25  1  0
 24 25  2  0
M  END
$$$$
