
     RDKit          3D

 30 33  0  0  0  0  0  0  0  0999 V2000
  -13.6814    8.3600   -2.8740 C   0  0  0  0  0  0  0  0  0  0  0  0
  -13.7655    7.9522   -4.1849 C   0  0  0  0  0  0  0  0  0  0  0  0
  -12.6166    7.6946   -4.9419 C   0  0  0  0  0  0  0  0  0  0  0  0
  -11.3839    7.8555   -4.3537 C   0  0  0  0  0  0  0  0  0  0  0  0
  -12.4334    8.5108   -2.3171 C   0  0  0  0  0  0  0  0  0  0  0  0
  -26.9437    9.3369   -3.5042 C   0  0  0  0  0  0  0  0  0  0  0  0
  -25.6835    9.5804   -2.7508 C   0  0  0  0  0  0  0  0  0  0  0  0
  -25.6893   10.0581   -1.4594 C   0  0  0  0  0  0  0  0  0  0  0  0
  -24.5377   10.2921   -0.7395 C   0  0  0  0  0  0  0  0  0  0  0  0
  -24.4661    9.3141   -3.3790 C   0  0  0  0  0  0  0  0  0  0  0  0
  -23.3036    9.5492   -2.6557 C   0  0  0  0  0  0  0  0  0  0  0  0
  -23.3408   10.0274   -1.3653 C   0  0  0  0  0  0  0  0  0  0  0  0
  -20.6756    8.9944   -0.8788 C   0  0  1  0  0  0  0  0  0  0  0  0
  -20.1589    6.7893   -0.6044 C   0  0  2  0  0  0  0  0  0  0  0  0
  -20.4845    5.5521    0.2040 C   0  0  0  0  0  0  0  0  0  0  0  0
  -18.6628    7.0515   -0.4948 C   0  0  1  0  0  0  0  0  0  0  0  0
  -18.3926    8.3005   -1.3025 C   0  0  1  0  0  0  0  0  0  0  0  0
  -16.1671    8.1216   -2.3121 C   0  0  0  0  0  0  0  0  0  0  0  0
  -14.8943    8.6195   -2.1144 C   0  0  0  0  0  0  0  0  0  0  0  0
  -11.2729    8.2584   -3.0568 C   0  0  0  0  0  0  0  0  0  0  0  0
  -19.2282    9.4045   -0.7023 C   0  0  1  0  0  0  0  0  0  0  0  0
  -12.6917    7.2935   -6.2311 F   0  0  0  0  0  0  0  0  0  0  0  0
  -16.9979    8.6195   -1.3785 N   0  0  0  0  0  0  0  0  0  0  0  0
  -15.0174    9.4216   -1.0355 N   0  0  0  0  0  0  0  0  0  0  0  0
  -16.2687    9.4099   -0.6129 N   0  0  0  0  0  0  0  0  0  0  0  0
  -20.8594    7.8520   -0.0830 O   0  0  0  0  0  0  0  0  0  0  0  0
  -21.4646    4.8300   -0.4706 O   0  0  0  0  0  0  0  0  0  0  0  0
  -18.4292    7.3210    0.8723 O   0  0  0  0  0  0  0  0  0  0  0  0
  -18.9777   10.6364   -1.2960 O   0  0  0  0  0  0  0  0  0  0  0  0
  -21.8196   10.3127   -0.4785 S   0  0  0  0  0  0  0  0  0  0  0  0
  1  2  2  0
  1  5  1  0
 19  1  1  0
  2  3  1  0
  3  4  2  0
  3 22  1  0
 20  4  1  0
  5 20  2  0
  6  7  1  6
  8  7  2  0
 10  7  1  0
  9  8  1  0
 12  9  2  0
 11 10  2  0
 12 11  1  0
 30 12  1  0
 21 13  1  0
 13 26  1  0
 13 30  1  1
 14 15  1  0
 16 14  1  0
 14 26  1  1
 15 27  1  6
 17 16  1  0
 16 28  1  1
 17 21  1  0
 17 23  1  1
 18 19  2  0
 18 23  1  0
 19 24  1  0
 21 29  1  6
 23 25  1  0
 24 25  2  0
M  END
$$$$
