
     RDKit          3D

 30 33  0  0  0  0  0  0  0  0999 V2000
  -13.2936    8.6585   -2.1031 C   0  0  0  0  0  0  0  0  0  0  0  0
  -13.2780    8.4386   -3.4607 C   0  0  0  0  0  0  0  0  0  0  0  0
  -12.1154    8.6317   -4.2159 C   0  0  0  0  0  0  0  0  0  0  0  0
  -10.9710    9.0498   -3.5778 C   0  0  0  0  0  0  0  0  0  0  0  0
  -12.1322    9.0761   -1.4971 C   0  0  0  0  0  0  0  0  0  0  0  0
  -26.5787    9.6114   -3.2766 C   0  0  0  0  0  0  0  0  0  0  0  0
  -25.2794    9.8156   -2.5800 C   0  0  0  0  0  0  0  0  0  0  0  0
  -24.6397   11.0349   -2.5772 C   0  0  0  0  0  0  0  0  0  0  0  0
  -23.4367   11.2510   -1.9404 C   0  0  0  0  0  0  0  0  0  0  0  0
  -24.7005    8.7349   -1.9132 C   0  0  0  0  0  0  0  0  0  0  0  0
  -23.4879    8.9499   -1.2704 C   0  0  0  0  0  0  0  0  0  0  0  0
  -22.8717   10.1808   -1.2850 C   0  0  0  0  0  0  0  0  0  0  0  0
  -20.2904    8.9705   -0.7567 C   0  0  1  0  0  0  0  0  0  0  0  0
  -20.0844    6.7090   -0.5380 C   0  0  2  0  0  0  0  0  0  0  0  0
  -20.6672    5.4922    0.1474 C   0  0  0  0  0  0  0  0  0  0  0  0
  -18.5989    6.7766   -0.2096 C   0  0  1  0  0  0  0  0  0  0  0  0
  -18.0692    8.0121   -0.9013 C   0  0  1  0  0  0  0  0  0  0  0  0
  -15.8170    8.3502   -1.8054 C   0  0  0  0  0  0  0  0  0  0  0  0
  -14.5181    8.4487   -1.3469 C   0  0  0  0  0  0  0  0  0  0  0  0
  -10.9596    9.2749   -2.2340 C   0  0  0  0  0  0  0  0  0  0  0  0
  -18.8447    9.1883   -0.3606 C   0  0  1  0  0  0  0  0  0  0  0  0
  -12.0927    8.4174   -5.5508 F   0  0  0  0  0  0  0  0  0  0  0  0
  -16.6500    8.1558   -0.7672 N   0  0  0  0  0  0  0  0  0  0  0  0
  -14.6285    8.3048   -0.0091 N   0  0  0  0  0  0  0  0  0  0  0  0
  -15.8968    8.1324    0.3167 N   0  0  0  0  0  0  0  0  0  0  0  0
  -20.7208    7.8303   -0.0590 O   0  0  0  0  0  0  0  0  0  0  0  0
  -21.7733    5.0636   -0.5806 O   0  0  0  0  0  0  0  0  0  0  0  0
  -18.5330    6.9615    1.1895 O   0  0  0  0  0  0  0  0  0  0  0  0
  -18.3670   10.4009   -0.8443 O   0  0  0  0  0  0  0  0  0  0  0  0
  -21.3147   10.4057   -0.4441 S   0  0  0  0  0  0  0  0  0  0  0  0
  1  2  2  0
  1  5  1  0
 19  1  1  0
  2  3  1  0
  3  4  2  0
  3 22  1  0
 20  4  1  0
  5 20  2  0
  6  7  1  6
  8  7  2  0
 10  7  1  0
  9  8  1  0
 12  9  2  0
 11 10  2  0
 12 11  1  0
 30 12  1  0
 21 13  1  0
 13 26  1  0
 13 30  1  1
 14 15  1  0
 16 14  1  0
 14 26  1  1
 15 27  1  6
 17 16  1  0
 16 28  1  1
 17 21  1  0
 17 23  1  1
 18 19  2  0
 18 23  1  0
 19 24  1  0
 21 29  1  6
 23 25  1  0
 24 25  2  0
M  END
$$$$
