
     RDKit          3D

 30 33  0  0  0  0  0  0  0  0999 V2000
  -13.3742    8.9628    0.1093 C   0  0  0  0  0  0  0  0  0  0  0  0
  -13.4648    8.6933    1.4578 C   0  0  0  0  0  0  0  0  0  0  0  0
  -12.3390    8.5596    2.2516 C   0  0  0  0  0  0  0  0  0  0  0  0
  -11.0734    8.6912    1.7222 C   0  0  0  0  0  0  0  0  0  0  0  0
  -12.1020    9.0941   -0.4175 C   0  0  0  0  0  0  0  0  0  0  0  0
  -26.9096    8.9366   -3.1175 C   0  0  0  0  0  0  0  0  0  0  0  0
  -25.6043    9.1249   -2.4193 C   0  0  0  0  0  0  0  0  0  0  0  0
  -24.6377    9.9706   -2.9397 C   0  0  0  0  0  0  0  0  0  0  0  0
  -23.4309   10.1353   -2.2810 C   0  0  0  0  0  0  0  0  0  0  0  0
  -25.3423    8.4579   -1.2465 C   0  0  0  0  0  0  0  0  0  0  0  0
  -24.1193    8.6380   -0.5978 C   0  0  0  0  0  0  0  0  0  0  0  0
  -23.1560    9.4753   -1.1074 C   0  0  0  0  0  0  0  0  0  0  0  0
  -20.2993    9.0500   -1.2808 C   0  0  1  0  0  0  0  0  0  0  0  0
  -19.7102    6.8510   -0.7115 C   0  0  2  0  0  0  0  0  0  0  0  0
  -20.2605    6.5868    0.6794 C   0  0  0  0  0  0  0  0  0  0  0  0
  -18.2342    7.1686   -0.7095 C   0  0  1  0  0  0  0  0  0  0  0  0
  -17.9860    8.4390   -1.5062 C   0  0  1  0  0  0  0  0  0  0  0  0
  -15.7912    8.5353   -0.4650 C   0  0  0  0  0  0  0  0  0  0  0  0
  -14.5665    9.0986   -0.7317 C   0  0  0  0  0  0  0  0  0  0  0  0
  -10.9803    8.9613    0.3698 C   0  0  0  0  0  0  0  0  0  0  0  0
  -18.9348    9.4628   -0.8527 C   0  0  1  0  0  0  0  0  0  0  0  0
  -12.4961    8.2922    3.5816 F   0  0  0  0  0  0  0  0  0  0  0  0
  -16.6373    8.8832   -1.4847 N   0  0  0  0  0  0  0  0  0  0  0  0
  -14.7375    9.7537   -1.8898 N   0  0  0  0  0  0  0  0  0  0  0  0
  -15.9795    9.6210   -2.3355 N   0  0  0  0  0  0  0  0  0  0  0  0
  -20.4708    7.6971   -1.4522 O   0  0  0  0  0  0  0  0  0  0  0  0
  -21.2864    5.6791    0.7249 O   0  0  0  0  0  0  0  0  0  0  0  0
  -17.7351    7.2952    0.5814 O   0  0  0  0  0  0  0  0  0  0  0  0
  -18.6378   10.7482   -1.3077 O   0  0  0  0  0  0  0  0  0  0  0  0
  -21.6278    9.6577   -0.2168 S   0  0  0  0  0  0  0  0  0  0  0  0
  1  2  2  0
  1  5  1  0
 19  1  1  0
  2  3  1  0
  3  4  2  0
  3 22  1  0
 20  4  1  0
  5 20  2  0
  7  6  1  0
  8  7  2  0
 10  7  1  0
  9  8  1  0
 12  9  2  0
 11 10  2  0
 12 11  1  0
 30 12  1  0
 21 13  1  0
 13 26  1  0
 13 30  1  1
 14 15  1  1
 16 14  1  0
 14 26  1  0
 15 27  1  0
 17 16  1  0
 16 28  1  1
 17 21  1  0
 17 23  1  1
 18 19  2  0
 18 23  1  0
 19 24  1  0
 21 29  1  6
 23 25  1  0
 24 25  2  0
M  END
$$$$
