
     RDKit          3D

 30 33  0  0  0  0  0  0  0  0999 V2000
  -13.3452    9.3441   -0.3622 C   0  0  0  0  0  0  0  0  0  0  0  0
  -12.1872    8.9579    0.2774 C   0  0  0  0  0  0  0  0  0  0  0  0
  -11.0083    9.6704    0.1436 C   0  0  0  0  0  0  0  0  0  0  0  0
  -10.9441   10.8023   -0.6401 C   0  0  0  0  0  0  0  0  0  0  0  0
  -13.2760   10.4807   -1.1476 C   0  0  0  0  0  0  0  0  0  0  0  0
  -26.0972   11.2401   -3.3801 C   0  0  0  0  0  0  0  0  0  0  0  0
  -25.0008   10.8040   -2.4665 C   0  0  0  0  0  0  0  0  0  0  0  0
  -24.8424    9.4674   -2.1369 C   0  0  0  0  0  0  0  0  0  0  0  0
  -23.8206    9.0774   -1.2876 C   0  0  0  0  0  0  0  0  0  0  0  0
  -24.1307   11.7269   -1.9370 C   0  0  0  0  0  0  0  0  0  0  0  0
  -23.1069   11.3130   -1.0828 C   0  0  0  0  0  0  0  0  0  0  0  0
  -22.9433    9.9893   -0.7517 C   0  0  0  0  0  0  0  0  0  0  0  0
  -20.1756    9.1478   -0.6918 C   0  0  1  0  0  0  0  0  0  0  0  0
  -20.2015    6.8916   -1.3364 C   0  0  2  0  0  0  0  0  0  0  0  0
  -21.1621    6.1719   -0.4054 C   0  0  0  0  0  0  0  0  0  0  0  0
  -18.7538    6.6904   -0.9576 C   0  0  1  0  0  0  0  0  0  0  0  0
  -18.0534    8.0377   -0.8909 C   0  0  1  0  0  0  0  0  0  0  0  0
  -15.7857    8.9112   -0.8222 C   0  0  0  0  0  0  0  0  0  0  0  0
  -14.5917    8.5860   -0.2246 C   0  0  0  0  0  0  0  0  0  0  0  0
  -12.1045   11.1911   -1.2827 C   0  0  0  0  0  0  0  0  0  0  0  0
  -18.9350    8.8523    0.0758 C   0  0  1  0  0  0  0  0  0  0  0  0
   -9.8947    9.2354    0.8038 F   0  0  0  0  0  0  0  0  0  0  0  0
  -16.7069    7.9702   -0.4448 N   0  0  0  0  0  0  0  0  0  0  0  0
  -14.8534    7.4724    0.4761 N   0  0  0  0  0  0  0  0  0  0  0  0
  -16.1214    7.1087    0.3402 N   0  0  0  0  0  0  0  0  0  0  0  0
  -20.5461    8.1792   -1.5938 O   0  0  0  0  0  0  0  0  0  0  0  0
  -22.2069    5.5469   -1.0348 O   0  0  0  0  0  0  0  0  0  0  0  0
  -18.6251    6.0118    0.2483 O   0  0  0  0  0  0  0  0  0  0  0  0
  -18.2824   10.0308    0.4402 O   0  0  0  0  0  0  0  0  0  0  0  0
  -21.6093    9.5415    0.3355 S   0  0  0  0  0  0  0  0  0  0  0  0
  1  2  2  0
  1  5  1  0
 19  1  1  0
  2  3  1  0
  3  4  2  0
  3 22  1  0
 20  4  1  0
  5 20  2  0
  7  6  1  0
  8  7  2  0
 10  7  1  0
  9  8  1  0
 12  9  2  0
 11 10  2  0
 12 11  1  0
 30 12  1  0
 21 13  1  0
 13 26  1  0
 13 30  1  1
 14 15  1  1
 16 14  1  0
 14 26  1  0
 15 27  1  0
 17 16  1  0
 16 28  1  1
 17 21  1  0
 17 23  1  1
 18 19  2  0
 18 23  1  0
 19 24  1  0
 21 29  1  6
 23 25  1  0
 24 25  2  0
M  END
$$$$
