
     RDKit          3D

 30 33  0  0  0  0  0  0  0  0999 V2000
  -13.2756    9.1173   -0.1626 C   0  0  0  0  0  0  0  0  0  0  0  0
  -12.2899    8.9295    0.7821 C   0  0  0  0  0  0  0  0  0  0  0  0
  -10.9491    9.0863    0.4775 C   0  0  0  0  0  0  0  0  0  0  0  0
  -10.5424    9.4387   -0.7913 C   0  0  0  0  0  0  0  0  0  0  0  0
  -12.8628    9.4709   -1.4346 C   0  0  0  0  0  0  0  0  0  0  0  0
  -25.6788    8.1170   -5.3697 C   0  0  0  0  0  0  0  0  0  0  0  0
  -24.7471    8.5311   -4.2802 C   0  0  0  0  0  0  0  0  0  0  0  0
  -25.0108    8.2041   -2.9596 C   0  0  0  0  0  0  0  0  0  0  0  0
  -24.1372    8.5954   -1.9590 C   0  0  0  0  0  0  0  0  0  0  0  0
  -23.6109    9.2466   -4.5736 C   0  0  0  0  0  0  0  0  0  0  0  0
  -22.7429    9.6313   -3.5501 C   0  0  0  0  0  0  0  0  0  0  0  0
  -22.9973    9.3104   -2.2383 C   0  0  0  0  0  0  0  0  0  0  0  0
  -20.2162    9.1768   -1.4514 C   0  0  1  0  0  0  0  0  0  0  0  0
  -20.0851    6.8754   -1.0122 C   0  0  2  0  0  0  0  0  0  0  0  0
  -21.2143    6.5384   -0.0537 C   0  0  0  0  0  0  0  0  0  0  0  0
  -18.7485    7.0083   -0.3226 C   0  0  1  0  0  0  0  0  0  0  0  0
  -18.0901    8.3142   -0.7365 C   0  0  1  0  0  0  0  0  0  0  0  0
  -15.6834    8.6581   -0.7511 C   0  0  0  0  0  0  0  0  0  0  0  0
  -14.6949    8.9454    0.1591 C   0  0  0  0  0  0  0  0  0  0  0  0
  -11.5295    9.6272   -1.7404 C   0  0  0  0  0  0  0  0  0  0  0  0
  -19.1634    9.3734   -0.4177 C   0  0  1  0  0  0  0  0  0  0  0  0
  -10.0206    8.8857    1.4587 F   0  0  0  0  0  0  0  0  0  0  0  0
  -16.8678    8.5857   -0.0665 N   0  0  0  0  0  0  0  0  0  0  0  0
  -15.3305    9.0291    1.3375 N   0  0  0  0  0  0  0  0  0  0  0  0
  -16.6311    8.8127    1.1959 N   0  0  0  0  0  0  0  0  0  0  0  0
  -20.3789    7.8801   -1.8766 O   0  0  0  0  0  0  0  0  0  0  0  0
  -21.8606    5.3604   -0.3243 O   0  0  0  0  0  0  0  0  0  0  0  0
  -18.8716    6.9391    1.0599 O   0  0  0  0  0  0  0  0  0  0  0  0
  -18.6131   10.6529   -0.5045 O   0  0  0  0  0  0  0  0  0  0  0  0
  -21.8382    9.8293   -0.9937 S   0  0  0  0  0  0  0  0  0  0  0  0
  1  2  2  0
  1  5  1  0
 19  1  1  0
  2  3  1  0
  3  4  2  0
  3 22  1  0
 20  4  1  0
  5 20  2  0
  7  6  1  0
  8  7  2  0
 10  7  1  0
  9  8  1  0
 12  9  2  0
 11 10  2  0
 12 11  1  0
 30 12  1  0
 21 13  1  0
 13 26  1  0
 13 30  1  1
 14 15  1  1
 16 14  1  0
 14 26  1  0
 15 27  1  0
 17 16  1  0
 16 28  1  1
 17 21  1  0
 17 23  1  1
 18 19  2  0
 18 23  1  0
 19 24  1  0
 21 29  1  6
 23 25  1  0
 24 25  2  0
M  END
$$$$
