
     RDKit          3D

 30 33  0  0  0  0  0  0  0  0999 V2000
  -13.4513    8.9550   -0.0639 C   0  0  0  0  0  0  0  0  0  0  0  0
  -12.5562    8.4968    0.8745 C   0  0  0  0  0  0  0  0  0  0  0  0
  -11.2861    9.0697    1.0094 C   0  0  0  0  0  0  0  0  0  0  0  0
  -10.9363   10.1112    0.1821 C   0  0  0  0  0  0  0  0  0  0  0  0
  -13.0692    9.9975   -0.8746 C   0  0  0  0  0  0  0  0  0  0  0  0
  -26.7451   11.3528   -1.5439 C   0  0  0  0  0  0  0  0  0  0  0  0
  -25.4895   10.8811   -0.8990 C   0  0  0  0  0  0  0  0  0  0  0  0
  -24.8557   11.6130    0.0800 C   0  0  0  0  0  0  0  0  0  0  0  0
  -23.6927   11.1995    0.6932 C   0  0  0  0  0  0  0  0  0  0  0  0
  -24.9464    9.6611   -1.3043 C   0  0  0  0  0  0  0  0  0  0  0  0
  -23.7742    9.2419   -0.6879 C   0  0  0  0  0  0  0  0  0  0  0  0
  -23.1628    9.9955    0.2885 C   0  0  0  0  0  0  0  0  0  0  0  0
  -20.5397    8.8805   -0.2431 C   0  0  1  0  0  0  0  0  0  0  0  0
  -20.2916    7.6263   -2.1326 C   0  0  2  0  0  0  0  0  0  0  0  0
  -20.9449    6.5564   -2.9803 C   0  0  0  0  0  0  0  0  0  0  0  0
  -18.8970    7.1482   -1.7511 C   0  0  1  0  0  0  0  0  0  0  0  0
  -18.2954    8.2399   -0.8958 C   0  0  1  0  0  0  0  0  0  0  0  0
  -15.9583    8.9037   -0.5777 C   0  0  0  0  0  0  0  0  0  0  0  0
  -14.7634    8.3380   -0.1786 C   0  0  0  0  0  0  0  0  0  0  0  0
  -11.8044   10.5839   -0.7558 C   0  0  0  0  0  0  0  0  0  0  0  0
  -19.2024    8.4174    0.2971 C   0  0  1  0  0  0  0  0  0  0  0  0
  -10.4011    8.6244    1.9296 F   0  0  0  0  0  0  0  0  0  0  0  0
  -16.9326    7.9769   -0.5405 N   0  0  0  0  0  0  0  0  0  0  0  0
  -15.0798    7.0534    0.0904 N   0  0  0  0  0  0  0  0  0  0  0  0
  -16.3674    6.8572   -0.1291 N   0  0  0  0  0  0  0  0  0  0  0  0
  -21.0486    7.8121   -0.9992 O   0  0  0  0  0  0  0  0  0  0  0  0
  -21.6180    7.1753   -4.0296 O   0  0  0  0  0  0  0  0  0  0  0  0
  -19.0999    5.9952   -0.9603 O   0  0  0  0  0  0  0  0  0  0  0  0
  -18.6898    9.3240    1.2179 O   0  0  0  0  0  0  0  0  0  0  0  0
  -21.6585    9.4132    1.0498 S   0  0  0  0  0  0  0  0  0  0  0  0
  1  2  2  0
  1  5  1  0
 19  1  1  0
  2  3  1  0
  3  4  2  0
  3 22  1  0
 20  4  1  0
  5 20  2  0
  6  7  1  6
  8  7  2  0
 10  7  1  0
  9  8  1  0
 12  9  2  0
 11 10  2  0
 12 11  1  0
 30 12  1  0
 21 13  1  0
 13 26  1  0
 13 30  1  1
 14 15  1  0
 16 14  1  0
 14 26  1  1
 15 27  1  6
 17 16  1  0
 16 28  1  1
 17 21  1  0
 17 23  1  1
 18 19  2  0
 18 23  1  0
 19 24  1  0
 21 29  1  1
 23 25  1  0
 24 25  2  0
M  END
$$$$
