
     RDKit          3D

 30 33  0  0  0  0  0  0  0  0999 V2000
  -13.1127    9.1701   -0.3716 C   0  0  0  0  0  0  0  0  0  0  0  0
  -12.0297    8.8225    0.4065 C   0  0  0  0  0  0  0  0  0  0  0  0
  -10.7300    9.0586   -0.0062 C   0  0  0  0  0  0  0  0  0  0  0  0
  -10.4644    9.6546   -1.2202 C   0  0  0  0  0  0  0  0  0  0  0  0
  -12.8413    9.7681   -1.5890 C   0  0  0  0  0  0  0  0  0  0  0  0
  -25.7681   10.1939   -4.6594 C   0  0  0  0  0  0  0  0  0  0  0  0
  -24.7876   10.0308   -3.5464 C   0  0  0  0  0  0  0  0  0  0  0  0
  -24.5962    8.7968   -2.9456 C   0  0  0  0  0  0  0  0  0  0  0  0
  -23.6830    8.6605   -1.9136 C   0  0  0  0  0  0  0  0  0  0  0  0
  -24.0593   11.1076   -3.1001 C   0  0  0  0  0  0  0  0  0  0  0  0
  -23.1434   10.9490   -2.0585 C   0  0  0  0  0  0  0  0  0  0  0  0
  -22.9477    9.7284   -1.4580 C   0  0  0  0  0  0  0  0  0  0  0  0
  -20.1727    9.1456   -0.8823 C   0  0  1  0  0  0  0  0  0  0  0  0
  -19.8996    6.8150   -0.8911 C   0  0  2  0  0  0  0  0  0  0  0  0
  -20.8969    6.2445    0.1026 C   0  0  0  0  0  0  0  0  0  0  0  0
  -18.4991    6.9030   -0.3339 C   0  0  1  0  0  0  0  0  0  0  0  0
  -17.9456    8.2993   -0.5672 C   0  0  1  0  0  0  0  0  0  0  0  0
  -15.5595    8.7163   -0.7743 C   0  0  0  0  0  0  0  0  0  0  0  0
  -14.4885    8.9147    0.0635 C   0  0  0  0  0  0  0  0  0  0  0  0
  -11.5493   10.0038   -2.0022 C   0  0  0  0  0  0  0  0  0  0  0  0
  -19.0169    9.2176    0.0529 C   0  0  1  0  0  0  0  0  0  0  0  0
   -9.6998    8.6902    0.8112 F   0  0  0  0  0  0  0  0  0  0  0  0
  -16.6664    8.5200    0.0086 N   0  0  0  0  0  0  0  0  0  0  0  0
  -15.0020    8.8266    1.2997 N   0  0  0  0  0  0  0  0  0  0  0  0
  -16.3063    8.5901    1.2602 N   0  0  0  0  0  0  0  0  0  0  0  0
  -20.3309    7.9383   -1.5197 O   0  0  0  0  0  0  0  0  0  0  0  0
  -21.8752    5.4630   -0.4549 O   0  0  0  0  0  0  0  0  0  0  0  0
  -18.4598    6.5806    1.0173 O   0  0  0  0  0  0  0  0  0  0  0  0
  -18.5321   10.5228    0.1458 O   0  0  0  0  0  0  0  0  0  0  0  0
  -21.7563    9.6066   -0.1436 S   0  0  0  0  0  0  0  0  0  0  0  0
  1  2  2  0
  1  5  1  0
 19  1  1  0
  2  3  1  0
  3  4  2  0
  3 22  1  0
 20  4  1  0
  5 20  2  0
  7  6  1  0
  8  7  2  0
 10  7  1  0
  9  8  1  0
 12  9  2  0
 11 10  2  0
 12 11  1  0
 30 12  1  0
 21 13  1  0
 13 26  1  0
 13 30  1  1
 14 15  1  1
 16 14  1  0
 14 26  1  0
 15 27  1  0
 17 16  1  0
 16 28  1  1
 17 21  1  0
 17 23  1  1
 18 19  2  0
 18 23  1  0
 19 24  1  0
 21 29  1  6
 23 25  1  0
 24 25  2  0
M  END
$$$$
