
     RDKit          3D

 30 33  0  0  0  0  0  0  0  0999 V2000
  -13.4614    9.4774   -0.6273 C   0  0  0  0  0  0  0  0  0  0  0  0
  -12.3328    8.6944   -0.6973 C   0  0  0  0  0  0  0  0  0  0  0  0
  -11.0783    9.2493   -0.9760 C   0  0  0  0  0  0  0  0  0  0  0  0
  -10.9833   10.6057   -1.1825 C   0  0  0  0  0  0  0  0  0  0  0  0
  -13.3307   10.8296   -0.8389 C   0  0  0  0  0  0  0  0  0  0  0  0
  -26.4447   10.9928   -3.3147 C   0  0  0  0  0  0  0  0  0  0  0  0
  -25.2840   10.7733   -2.4094 C   0  0  0  0  0  0  0  0  0  0  0  0
  -25.3121   11.1531   -1.0862 C   0  0  0  0  0  0  0  0  0  0  0  0
  -24.2519   10.9616   -0.2267 C   0  0  0  0  0  0  0  0  0  0  0  0
  -24.1390   10.1645   -2.9250 C   0  0  0  0  0  0  0  0  0  0  0  0
  -23.0687    9.9702   -2.0608 C   0  0  0  0  0  0  0  0  0  0  0  0
  -23.1260   10.3606   -0.7419 C   0  0  0  0  0  0  0  0  0  0  0  0
  -20.5607    9.0271   -0.5239 C   0  0  1  0  0  0  0  0  0  0  0  0
  -20.2175    6.9924   -1.4970 C   0  0  2  0  0  0  0  0  0  0  0  0
  -20.7981    5.6041   -1.6575 C   0  0  0  0  0  0  0  0  0  0  0  0
  -18.8030    6.8583   -0.9489 C   0  0  1  0  0  0  0  0  0  0  0  0
  -18.2754    8.2663   -0.7923 C   0  0  1  0  0  0  0  0  0  0  0  0
  -15.9641    9.0611   -0.9660 C   0  0  0  0  0  0  0  0  0  0  0  0
  -14.7504    8.8699   -0.3357 C   0  0  0  0  0  0  0  0  0  0  0  0
  -12.0859   11.4037   -1.1187 C   0  0  0  0  0  0  0  0  0  0  0  0
  -19.2065    8.9847    0.1534 C   0  0  1  0  0  0  0  0  0  0  0  0
   -9.9646    8.4857   -1.0464 F   0  0  0  0  0  0  0  0  0  0  0  0
  -16.9046    8.3006   -0.3771 N   0  0  0  0  0  0  0  0  0  0  0  0
  -15.0209    7.9737    0.6370 N   0  0  0  0  0  0  0  0  0  0  0  0
  -16.3003    7.6477    0.5981 N   0  0  0  0  0  0  0  0  0  0  0  0
  -20.9984    7.6954   -0.6094 O   0  0  0  0  0  0  0  0  0  0  0  0
  -20.0245    4.9068   -2.5808 O   0  0  0  0  0  0  0  0  0  0  0  0
  -18.9505    6.2712    0.3277 O   0  0  0  0  0  0  0  0  0  0  0  0
  -18.7580   10.2636    0.4634 O   0  0  0  0  0  0  0  0  0  0  0  0
  -21.7245   10.0889    0.3276 S   0  0  0  0  0  0  0  0  0  0  0  0
  1  2  2  0
  1  5  1  0
 19  1  1  0
  2  3  1  0
  3  4  2  0
  3 22  1  0
 20  4  1  0
  5 20  2  0
  6  7  1  6
  8  7  2  0
 10  7  1  0
  9  8  1  0
 12  9  2  0
 11 10  2  0
 12 11  1  0
 30 12  1  0
 21 13  1  0
 13 26  1  0
 13 30  1  1
 14 15  1  0
 16 14  1  0
 14 26  1  1
 15 27  1  6
 17 16  1  0
 16 28  1  1
 17 21  1  0
 17 23  1  1
 18 19  2  0
 18 23  1  0
 19 24  1  0
 21 29  1  6
 23 25  1  0
 24 25  2  0
M  END
$$$$
