
     RDKit          3D

 30 33  0  0  0  0  0  0  0  0999 V2000
  -13.3488    9.3615   -0.4530 C   0  0  0  0  0  0  0  0  0  0  0  0
  -12.2006    8.8476    0.1033 C   0  0  0  0  0  0  0  0  0  0  0  0
  -10.9429    9.3822   -0.1995 C   0  0  0  0  0  0  0  0  0  0  0  0
  -10.8647   10.4426   -1.0719 C   0  0  0  0  0  0  0  0  0  0  0  0
  -13.2345   10.4214   -1.3211 C   0  0  0  0  0  0  0  0  0  0  0  0
  -26.4778   10.8399   -2.8037 C   0  0  0  0  0  0  0  0  0  0  0  0
  -25.2721   10.6378   -1.9549 C   0  0  0  0  0  0  0  0  0  0  0  0
  -24.0783   10.1974   -2.4809 C   0  0  0  0  0  0  0  0  0  0  0  0
  -22.9474   10.0020   -1.7178 C   0  0  0  0  0  0  0  0  0  0  0  0
  -25.3635   10.9049   -0.5881 C   0  0  0  0  0  0  0  0  0  0  0  0
  -24.2250   10.7088    0.1835 C   0  0  0  0  0  0  0  0  0  0  0  0
  -23.0447   10.2673   -0.3708 C   0  0  0  0  0  0  0  0  0  0  0  0
  -20.4594    8.9658   -0.2013 C   0  0  1  0  0  0  0  0  0  0  0  0
  -20.1309    6.9272   -1.1714 C   0  0  2  0  0  0  0  0  0  0  0  0
  -20.7140    5.5385   -1.3180 C   0  0  0  0  0  0  0  0  0  0  0  0
  -18.7085    6.7950   -0.6436 C   0  0  1  0  0  0  0  0  0  0  0  0
  -18.1784    8.2034   -0.5002 C   0  0  1  0  0  0  0  0  0  0  0  0
  -15.8606    8.9614   -0.7396 C   0  0  0  0  0  0  0  0  0  0  0  0
  -14.6405    8.7831   -0.1178 C   0  0  0  0  0  0  0  0  0  0  0  0
  -11.9868   10.9702   -1.6367 C   0  0  0  0  0  0  0  0  0  0  0  0
  -19.0954    8.9257    0.4562 C   0  0  1  0  0  0  0  0  0  0  0  0
   -9.8101    8.8822    0.3435 F   0  0  0  0  0  0  0  0  0  0  0  0
  -16.8017    8.2391   -0.1054 N   0  0  0  0  0  0  0  0  0  0  0  0
  -14.9080    7.9337    0.8968 N   0  0  0  0  0  0  0  0  0  0  0  0
  -16.1915    7.6220    0.8894 N   0  0  0  0  0  0  0  0  0  0  0  0
  -20.8985    7.6339   -0.2752 O   0  0  0  0  0  0  0  0  0  0  0  0
  -21.8402    5.6169   -2.1320 O   0  0  0  0  0  0  0  0  0  0  0  0
  -18.8373    6.2129    0.6373 O   0  0  0  0  0  0  0  0  0  0  0  0
  -18.6421   10.2057    0.7546 O   0  0  0  0  0  0  0  0  0  0  0  0
  -21.6104   10.0312    0.6630 S   0  0  0  0  0  0  0  0  0  0  0  0
  1  2  2  0
  1  5  1  0
 19  1  1  0
  2  3  1  0
  3  4  2  0
  3 22  1  0
 20  4  1  0
  5 20  2  0
  6  7  1  6
  8  7  2  0
 10  7  1  0
  9  8  1  0
 12  9  2  0
 11 10  2  0
 12 11  1  0
 30 12  1  0
 21 13  1  0
 13 26  1  0
 13 30  1  1
 14 15  1  0
 16 14  1  0
 14 26  1  1
 15 27  1  6
 17 16  1  0
 16 28  1  1
 17 21  1  0
 17 23  1  1
 18 19  2  0
 18 23  1  0
 19 24  1  0
 21 29  1  6
 23 25  1  0
 24 25  2  0
M  END
$$$$
