
     RDKit          3D

 30 33  0  0  0  0  0  0  0  0999 V2000
  -13.4567    8.3421    0.1617 C   0  0  0  0  0  0  0  0  0  0  0  0
  -13.5214    8.5847    1.5141 C   0  0  0  0  0  0  0  0  0  0  0  0
  -12.3737    8.8933    2.2537 C   0  0  0  0  0  0  0  0  0  0  0  0
  -11.1622    8.9526    1.6056 C   0  0  0  0  0  0  0  0  0  0  0  0
  -12.2296    8.4096   -0.4546 C   0  0  0  0  0  0  0  0  0  0  0  0
  -26.2676   11.3212    0.7774 C   0  0  0  0  0  0  0  0  0  0  0  0
  -25.1310   10.3738    0.6184 C   0  0  0  0  0  0  0  0  0  0  0  0
  -24.0070   10.7019   -0.1062 C   0  0  0  0  0  0  0  0  0  0  0  0
  -22.9409    9.8438   -0.2690 C   0  0  0  0  0  0  0  0  0  0  0  0
  -25.2154    9.1195    1.2244 C   0  0  0  0  0  0  0  0  0  0  0  0
  -24.1422    8.2525    1.0619 C   0  0  0  0  0  0  0  0  0  0  0  0
  -23.0310    8.6086    0.3313 C   0  0  0  0  0  0  0  0  0  0  0  0
  -20.4495    8.1950   -0.9224 C   0  0  1  0  0  0  0  0  0  0  0  0
  -19.9713    8.9210   -3.0317 C   0  0  2  0  0  0  0  0  0  0  0  0
  -20.4539    8.9035   -4.4658 C   0  0  0  0  0  0  0  0  0  0  0  0
  -18.5468    8.3835   -3.0002 C   0  0  1  0  0  0  0  0  0  0  0  0
  -18.1185    8.4064   -1.5507 C   0  0  1  0  0  0  0  0  0  0  0  0
  -15.9082    8.6280   -0.5165 C   0  0  0  0  0  0  0  0  0  0  0  0
  -14.6678    8.0241   -0.5782 C   0  0  0  0  0  0  0  0  0  0  0  0
  -11.0707    8.7165    0.2668 C   0  0  0  0  0  0  0  0  0  0  0  0
  -19.0906    7.5395   -0.7887 C   0  0  1  0  0  0  0  0  0  0  0  0
  -12.4298    9.1329    3.5833 F   0  0  0  0  0  0  0  0  0  0  0  0
  -16.7504    8.0205   -1.3716 N   0  0  0  0  0  0  0  0  0  0  0  0
  -14.8215    7.0474   -1.4975 N   0  0  0  0  0  0  0  0  0  0  0  0
  -16.0598    7.0596   -1.9567 N   0  0  0  0  0  0  0  0  0  0  0  0
  -20.7930    8.1122   -2.2816 O   0  0  0  0  0  0  0  0  0  0  0  0
  -21.7339    9.4485   -4.5070 O   0  0  0  0  0  0  0  0  0  0  0  0
  -18.6428    7.0432   -3.4367 O   0  0  0  0  0  0  0  0  0  0  0  0
  -18.7309    7.3933    0.5463 O   0  0  0  0  0  0  0  0  0  0  0  0
  -21.6788    7.4593    0.1522 S   0  0  0  0  0  0  0  0  0  0  0  0
  1  2  2  0
  1  5  1  0
 19  1  1  0
  2  3  1  0
  3  4  2  0
  3 22  1  0
 20  4  1  0
  5 20  2  0
  6  7  1  6
  8  7  2  0
 10  7  1  0
  9  8  1  0
 12  9  2  0
 11 10  2  0
 12 11  1  0
 30 12  1  0
 21 13  1  0
 13 26  1  0
 13 30  1  1
 14 15  1  0
 16 14  1  0
 14 26  1  1
 15 27  1  6
 17 16  1  0
 16 28  1  1
 17 21  1  0
 17 23  1  6
 18 19  2  0
 18 23  1  0
 19 24  1  0
 21 29  1  1
 23 25  1  0
 24 25  2  0
M  END
$$$$
