
     RDKit          3D

 30 33  0  0  0  0  0  0  0  0999 V2000
  -13.4301    9.0371   -0.3484 C   0  0  0  0  0  0  0  0  0  0  0  0
  -13.3317    9.8319    0.7732 C   0  0  0  0  0  0  0  0  0  0  0  0
  -12.1725   10.5244    1.0763 C   0  0  0  0  0  0  0  0  0  0  0  0
  -11.0621   10.4466    0.2637 C   0  0  0  0  0  0  0  0  0  0  0  0
  -12.3132    8.9621   -1.1610 C   0  0  0  0  0  0  0  0  0  0  0  0
  -26.4425   11.3928   -1.5295 C   0  0  0  0  0  0  0  0  0  0  0  0
  -25.1841   10.9074   -0.8910 C   0  0  0  0  0  0  0  0  0  0  0  0
  -25.2218    9.9590    0.1186 C   0  0  0  0  0  0  0  0  0  0  0  0
  -24.0460    9.5180    0.7022 C   0  0  0  0  0  0  0  0  0  0  0  0
  -23.9661   11.3979   -1.2972 C   0  0  0  0  0  0  0  0  0  0  0  0
  -22.7922   10.9400   -0.6961 C   0  0  0  0  0  0  0  0  0  0  0  0
  -22.8214    9.9993    0.3054 C   0  0  0  0  0  0  0  0  0  0  0  0
  -20.1041    9.2428   -0.3391 C   0  0  1  0  0  0  0  0  0  0  0  0
  -20.4765    7.2119   -1.4542 C   0  0  2  0  0  0  0  0  0  0  0  0
  -21.3230    6.3468   -0.5363 C   0  0  0  0  0  0  0  0  0  0  0  0
  -19.0128    6.8428   -1.4253 C   0  0  1  0  0  0  0  0  0  0  0  0
  -18.1774    8.0923   -1.1991 C   0  0  1  0  0  0  0  0  0  0  0  0
  -15.9118    8.8511   -0.7500 C   0  0  0  0  0  0  0  0  0  0  0  0
  -14.6559    8.2996   -0.6657 C   0  0  0  0  0  0  0  0  0  0  0  0
  -11.1586    9.6497   -0.8616 C   0  0  0  0  0  0  0  0  0  0  0  0
  -18.7828    8.7011    0.0809 C   0  0  1  0  0  0  0  0  0  0  0  0
  -12.1387   11.2954    2.2031 F   0  0  0  0  0  0  0  0  0  0  0  0
  -16.7868    7.8424   -1.0559 N   0  0  0  0  0  0  0  0  0  0  0  0
  -14.8380    6.9961   -0.9251 N   0  0  0  0  0  0  0  0  0  0  0  0
  -16.1158    6.7286   -1.1579 N   0  0  0  0  0  0  0  0  0  0  0  0
  -20.7278    8.5414   -1.3430 O   0  0  0  0  0  0  0  0  0  0  0  0
  -22.4526    5.8325   -1.1176 O   0  0  0  0  0  0  0  0  0  0  0  0
  -18.7399    5.8889   -0.4521 O   0  0  0  0  0  0  0  0  0  0  0  0
  -17.9580    9.7184    0.5628 O   0  0  0  0  0  0  0  0  0  0  0  0
  -21.2820    9.4610    1.0141 S   0  0  0  0  0  0  0  0  0  0  0  0
  1  2  2  0
  1  5  1  0
 19  1  1  0
  2  3  1  0
  3  4  2  0
  3 22  1  0
 20  4  1  0
  5 20  2  0
  7  6  1  0
  8  7  2  0
 10  7  1  0
  9  8  1  0
 12  9  2  0
 11 10  2  0
 12 11  1  0
 30 12  1  0
 21 13  1  0
 13 26  1  0
 13 30  1  1
 14 15  1  1
 16 14  1  0
 14 26  1  0
 15 27  1  0
 17 16  1  0
 16 28  1  1
 17 21  1  0
 17 23  1  1
 18 19  2  0
 18 23  1  0
 19 24  1  0
 21 29  1  6
 23 25  1  0
 24 25  2  0
M  END
$$$$
