
     RDKit          3D

 30 33  0  0  0  0  0  0  0  0999 V2000
  -24.8669    9.8236    1.0162 C   0  0  0  0  0  0  0  0  0  0  0  0
  -26.1006    9.4223    0.5594 C   0  0  0  0  0  0  0  0  0  0  0  0
  -27.2672    9.6874    1.2861 C   0  0  0  0  0  0  0  0  0  0  0  0
  -27.1667   10.3635    2.4796 C   0  0  0  0  0  0  0  0  0  0  0  0
  -24.8025   10.4971    2.2130 C   0  0  0  0  0  0  0  0  0  0  0  0
  -11.7273    8.9645    1.9110 C   0  0  0  0  0  0  0  0  0  0  0  0
  -12.9380    9.0866    1.0542 C   0  0  0  0  0  0  0  0  0  0  0  0
  -14.0482    9.7923    1.4608 C   0  0  0  0  0  0  0  0  0  0  0  0
  -15.1817    9.9211    0.6874 C   0  0  0  0  0  0  0  0  0  0  0  0
  -12.9391    8.4649   -0.1953 C   0  0  0  0  0  0  0  0  0  0  0  0
  -14.0804    8.5930   -0.9769 C   0  0  0  0  0  0  0  0  0  0  0  0
  -15.1757    9.3054   -0.5435 C   0  0  0  0  0  0  0  0  0  0  0  0
  -17.9506    8.5143   -0.8285 C   0  0  1  0  0  0  0  0  0  0  0  0
  -18.8089    6.4455   -0.3947 C   0  0  2  0  0  0  0  0  0  0  0  0
  -18.6883    4.9778   -0.7430 C   0  0  0  0  0  0  0  0  0  0  0  0
  -20.2463    6.8801   -0.6480 C   0  0  1  0  0  0  0  0  0  0  0  0
  -20.3104    8.3503   -0.3017 C   0  0  1  0  0  0  0  0  0  0  0  0
  -22.4780    8.9798    0.6519 C   0  0  0  0  0  0  0  0  0  0  0  0
  -23.6736    9.5325    0.2372 C   0  0  0  0  0  0  0  0  0  0  0  0
  -25.9567   10.7720    2.9545 C   0  0  0  0  0  0  0  0  0  0  0  0
  -19.3173    9.0576   -1.1909 C   0  0  1  0  0  0  0  0  0  0  0  0
  -28.4833    9.2959    0.8432 F   0  0  0  0  0  0  0  0  0  0  0  0
  -21.6372    8.8832   -0.3937 N   0  0  0  0  0  0  0  0  0  0  0  0
  -23.4956    9.7520   -1.0829 N   0  0  0  0  0  0  0  0  0  0  0  0
  -22.2851    9.3620   -1.4394 N   0  0  0  0  0  0  0  0  0  0  0  0
  -17.9550    7.1605   -1.2018 O   0  0  0  0  0  0  0  0  0  0  0  0
  -17.5707    4.4611   -0.0941 O   0  0  0  0  0  0  0  0  0  0  0  0
  -20.4466    6.7194   -2.0373 O   0  0  0  0  0  0  0  0  0  0  0  0
  -19.3664   10.4388   -1.0404 O   0  0  0  0  0  0  0  0  0  0  0  0
  -16.6176    9.4405   -1.5849 S   0  0  0  0  0  0  0  0  0  0  0  0
  1  2  2  0
  1  5  1  0
 19  1  1  0
  2  3  1  0
  3  4  2  0
  3 22  1  0
 20  4  1  0
  5 20  2  0
  6  7  1  6
  8  7  2  0
 10  7  1  0
  9  8  1  0
 12  9  2  0
 11 10  2  0
 12 11  1  0
 30 12  1  0
 21 13  1  0
 13 26  1  0
 13 30  1  6
 14 15  1  0
 16 14  1  0
 14 26  1  6
 15 27  1  6
 17 16  1  0
 16 28  1  6
 17 21  1  0
 17 23  1  6
 18 19  2  0
 18 23  1  0
 19 24  1  0
 21 29  1  1
 23 25  1  0
 24 25  2  0
M  END
$$$$
