
     RDKit          3D

 30 33  0  0  0  0  0  0  0  0999 V2000
  -13.4424    8.8053   -0.1199 C   0  0  0  0  0  0  0  0  0  0  0  0
  -13.4191    8.5958    1.2393 C   0  0  0  0  0  0  0  0  0  0  0  0
  -12.2867    8.9013    2.0033 C   0  0  0  0  0  0  0  0  0  0  0  0
  -11.1805    9.4210    1.3725 C   0  0  0  0  0  0  0  0  0  0  0  0
  -12.3196    9.3261   -0.7184 C   0  0  0  0  0  0  0  0  0  0  0  0
  -26.8042    9.7887   -2.7145 C   0  0  0  0  0  0  0  0  0  0  0  0
  -25.4460    9.9147   -2.1193 C   0  0  0  0  0  0  0  0  0  0  0  0
  -25.1766   10.8060   -1.1050 C   0  0  0  0  0  0  0  0  0  0  0  0
  -23.9286   10.9428   -0.5364 C   0  0  0  0  0  0  0  0  0  0  0  0
  -24.4225    9.1025   -2.6095 C   0  0  0  0  0  0  0  0  0  0  0  0
  -23.1635    9.2383   -2.0382 C   0  0  0  0  0  0  0  0  0  0  0  0
  -22.9241   10.1386   -1.0247 C   0  0  0  0  0  0  0  0  0  0  0  0
  -20.3284    8.8586   -0.8503 C   0  0  1  0  0  0  0  0  0  0  0  0
  -20.0829    6.5930   -0.7424 C   0  0  2  0  0  0  0  0  0  0  0  0
  -20.5393    5.3507   -0.0087 C   0  0  0  0  0  0  0  0  0  0  0  0
  -18.5635    6.6621   -0.6657 C   0  0  1  0  0  0  0  0  0  0  0  0
  -18.1605    7.9228   -1.3961 C   0  0  1  0  0  0  0  0  0  0  0  0
  -15.9486    8.4156   -0.4643 C   0  0  0  0  0  0  0  0  0  0  0  0
  -14.6348    8.4773   -0.8853 C   0  0  0  0  0  0  0  0  0  0  0  0
  -11.1777    9.6382    0.0274 C   0  0  0  0  0  0  0  0  0  0  0  0
  -18.8373    9.0752   -0.6954 C   0  0  1  0  0  0  0  0  0  0  0  0
  -12.2566    8.6980    3.3398 F   0  0  0  0  0  0  0  0  0  0  0  0
  -16.7394    8.0736   -1.4973 N   0  0  0  0  0  0  0  0  0  0  0  0
  -14.6930    8.1596   -2.1961 N   0  0  0  0  0  0  0  0  0  0  0  0
  -15.9458    7.9237   -2.5415 N   0  0  0  0  0  0  0  0  0  0  0  0
  -20.6327    7.6936   -0.1275 O   0  0  0  0  0  0  0  0  0  0  0  0
  -21.8166    5.0209   -0.4522 O   0  0  0  0  0  0  0  0  0  0  0  0
  -18.2642    6.8034    0.7078 O   0  0  0  0  0  0  0  0  0  0  0  0
  -18.4507   10.3063   -1.2129 O   0  0  0  0  0  0  0  0  0  0  0  0
  -21.2894   10.2751   -0.3241 S   0  0  0  0  0  0  0  0  0  0  0  0
  1  2  2  0
  1  5  1  0
 19  1  1  0
  2  3  1  0
  3  4  2  0
  3 22  1  0
 20  4  1  0
  5 20  2  0
  6  7  1  6
  8  7  2  0
 10  7  1  0
  9  8  1  0
 12  9  2  0
 11 10  2  0
 12 11  1  0
 30 12  1  0
 21 13  1  0
 13 26  1  0
 13 30  1  1
 14 15  1  0
 16 14  1  0
 14 26  1  1
 15 27  1  6
 17 16  1  0
 16 28  1  1
 17 21  1  0
 17 23  1  1
 18 19  2  0
 18 23  1  0
 19 24  1  0
 21 29  1  6
 23 25  1  0
 24 25  2  0
M  END
$$$$
