
     RDKit          3D

 30 33  0  0  0  0  0  0  0  0999 V2000
  -13.5438    9.6698   -0.1653 C   0  0  0  0  0  0  0  0  0  0  0  0
  -13.7976   10.6200    0.8001 C   0  0  0  0  0  0  0  0  0  0  0  0
  -12.8161   11.4894    1.2428 C   0  0  0  0  0  0  0  0  0  0  0  0
  -11.5366   11.4397    0.7331 C   0  0  0  0  0  0  0  0  0  0  0  0
  -12.2584    9.6237   -0.6740 C   0  0  0  0  0  0  0  0  0  0  0  0
  -26.3945   10.3785   -3.0601 C   0  0  0  0  0  0  0  0  0  0  0  0
  -25.1497   10.2007   -2.2566 C   0  0  0  0  0  0  0  0  0  0  0  0
  -25.2054   10.1035   -0.8754 C   0  0  0  0  0  0  0  0  0  0  0  0
  -24.0420    9.9390   -0.1427 C   0  0  0  0  0  0  0  0  0  0  0  0
  -23.9262   10.1318   -2.8790 C   0  0  0  0  0  0  0  0  0  0  0  0
  -22.7650    9.9654   -2.1220 C   0  0  0  0  0  0  0  0  0  0  0  0
  -22.8123    9.8679   -0.7520 C   0  0  0  0  0  0  0  0  0  0  0  0
  -20.0511    9.0498   -1.0326 C   0  0  1  0  0  0  0  0  0  0  0  0
  -20.1233    6.7108   -1.2060 C   0  0  2  0  0  0  0  0  0  0  0  0
  -20.8799    6.1959    0.0064 C   0  0  0  0  0  0  0  0  0  0  0  0
  -18.6258    6.5804   -1.0636 C   0  0  1  0  0  0  0  0  0  0  0  0
  -17.9660    7.9100   -1.3907 C   0  0  1  0  0  0  0  0  0  0  0  0
  -15.9195    9.0448   -0.7314 C   0  0  0  0  0  0  0  0  0  0  0  0
  -14.5822    8.7457   -0.6296 C   0  0  0  0  0  0  0  0  0  0  0  0
  -11.2799   10.4871   -0.2351 C   0  0  0  0  0  0  0  0  0  0  0  0
  -18.6851    8.9055   -0.4594 C   0  0  1  0  0  0  0  0  0  0  0  0
  -13.1314   12.4087    2.2023 F   0  0  0  0  0  0  0  0  0  0  0  0
  -16.5600    7.9246   -1.1913 N   0  0  0  0  0  0  0  0  0  0  0  0
  -14.4866    7.4697   -1.0322 N   0  0  0  0  0  0  0  0  0  0  0  0
  -15.6741    6.9837   -1.3673 N   0  0  0  0  0  0  0  0  0  0  0  0
  -20.5472    7.9236   -1.6445 O   0  0  0  0  0  0  0  0  0  0  0  0
  -22.1313    5.7080   -0.2663 O   0  0  0  0  0  0  0  0  0  0  0  0
  -18.2633    6.1541    0.2085 O   0  0  0  0  0  0  0  0  0  0  0  0
  -18.0139   10.1290   -0.4578 O   0  0  0  0  0  0  0  0  0  0  0  0
  -21.2896    9.6481    0.1397 S   0  0  0  0  0  0  0  0  0  0  0  0
  1  2  2  0
  1  5  1  0
 19  1  1  0
  2  3  1  0
  3  4  2  0
  3 22  1  0
 20  4  1  0
  5 20  2  0
  7  6  1  0
  8  7  2  0
 10  7  1  0
  9  8  1  0
 12  9  2  0
 11 10  2  0
 12 11  1  0
 30 12  1  0
 21 13  1  0
 13 26  1  0
 13 30  1  1
 14 15  1  1
 16 14  1  0
 14 26  1  0
 15 27  1  0
 17 16  1  0
 16 28  1  1
 17 21  1  0
 17 23  1  1
 18 19  2  0
 18 23  1  0
 19 24  1  0
 21 29  1  6
 23 25  1  0
 24 25  2  0
M  END
$$$$
