
     RDKit          3D

 30 33  0  0  0  0  0  0  0  0999 V2000
  -13.2512    9.1793   -2.0169 C   0  0  0  0  0  0  0  0  0  0  0  0
  -13.2448   10.1294   -3.0151 C   0  0  0  0  0  0  0  0  0  0  0  0
  -12.0786   10.4990   -3.6621 C   0  0  0  0  0  0  0  0  0  0  0  0
  -10.8683    9.9283   -3.3320 C   0  0  0  0  0  0  0  0  0  0  0  0
  -12.0343    8.6093   -1.6890 C   0  0  0  0  0  0  0  0  0  0  0  0
  -26.6420    9.2415   -3.6561 C   0  0  0  0  0  0  0  0  0  0  0  0
  -25.3948    9.3088   -2.8394 C   0  0  0  0  0  0  0  0  0  0  0  0
  -24.1486    9.2484   -3.4424 C   0  0  0  0  0  0  0  0  0  0  0  0
  -22.9999    9.3118   -2.6718 C   0  0  0  0  0  0  0  0  0  0  0  0
  -25.4665    9.4309   -1.4723 C   0  0  0  0  0  0  0  0  0  0  0  0
  -24.2964    9.4934   -0.7134 C   0  0  0  0  0  0  0  0  0  0  0  0
  -23.0570    9.4345   -1.3043 C   0  0  0  0  0  0  0  0  0  0  0  0
  -20.2057    8.9467   -1.2401 C   0  0  1  0  0  0  0  0  0  0  0  0
  -19.9821    6.6165   -1.0755 C   0  0  2  0  0  0  0  0  0  0  0  0
  -20.7860    6.1749    0.1354 C   0  0  0  0  0  0  0  0  0  0  0  0
  -18.5007    6.7044   -0.7976 C   0  0  1  0  0  0  0  0  0  0  0  0
  -17.9750    8.0528   -1.2620 C   0  0  1  0  0  0  0  0  0  0  0  0
  -15.7105    8.6324   -1.9301 C   0  0  0  0  0  0  0  0  0  0  0  0
  -14.4856    8.7925   -1.3283 C   0  0  0  0  0  0  0  0  0  0  0  0
  -10.8725    8.9753   -2.3308 C   0  0  0  0  0  0  0  0  0  0  0  0
  -18.8941    9.0616   -0.5457 C   0  0  1  0  0  0  0  0  0  0  0  0
  -12.1392   11.4471   -4.6433 F   0  0  0  0  0  0  0  0  0  0  0  0
  -16.6067    8.2787   -0.9563 N   0  0  0  0  0  0  0  0  0  0  0  0
  -14.7055    8.5271   -0.0318 N   0  0  0  0  0  0  0  0  0  0  0  0
  -15.9773    8.2201    0.1845 N   0  0  0  0  0  0  0  0  0  0  0  0
  -20.5028    7.6929   -1.7184 O   0  0  0  0  0  0  0  0  0  0  0  0
  -21.9659    5.5439   -0.1616 O   0  0  0  0  0  0  0  0  0  0  0  0
  -18.2150    6.5048    0.5477 O   0  0  0  0  0  0  0  0  0  0  0  0
  -18.3765   10.3516   -0.6697 O   0  0  0  0  0  0  0  0  0  0  0  0
  -21.6142    9.5296   -0.2692 S   0  0  0  0  0  0  0  0  0  0  0  0
  1  2  2  0
  1  5  1  0
 19  1  1  0
  2  3  1  0
  3  4  2  0
  3 22  1  0
 20  4  1  0
  5 20  2  0
  7  6  1  0
  8  7  2  0
 10  7  1  0
  9  8  1  0
 12  9  2  0
 11 10  2  0
 12 11  1  0
 30 12  1  0
 21 13  1  0
 13 26  1  0
 13 30  1  1
 14 15  1  1
 16 14  1  0
 14 26  1  0
 15 27  1  0
 17 16  1  0
 16 28  1  1
 17 21  1  0
 17 23  1  1
 18 19  2  0
 18 23  1  0
 19 24  1  0
 21 29  1  6
 23 25  1  0
 24 25  2  0
M  END
$$$$
