
     RDKit          3D

 30 33  0  0  0  0  0  0  0  0999 V2000
  -13.2930    8.6340   -1.6811 C   0  0  0  0  0  0  0  0  0  0  0  0
  -13.1236    8.1242   -2.9472 C   0  0  0  0  0  0  0  0  0  0  0  0
  -11.9103    8.2631   -3.6313 C   0  0  0  0  0  0  0  0  0  0  0  0
  -10.8731    8.9245   -3.0161 C   0  0  0  0  0  0  0  0  0  0  0  0
  -12.2358    9.2895   -1.0955 C   0  0  0  0  0  0  0  0  0  0  0  0
  -26.7546    9.3504   -2.9728 C   0  0  0  0  0  0  0  0  0  0  0  0
  -25.4635    9.5599   -2.2628 C   0  0  0  0  0  0  0  0  0  0  0  0
  -25.3488   10.4342   -1.2053 C   0  0  0  0  0  0  0  0  0  0  0  0
  -24.1659   10.6469   -0.5308 C   0  0  0  0  0  0  0  0  0  0  0  0
  -24.3425    8.8456   -2.6879 C   0  0  0  0  0  0  0  0  0  0  0  0
  -23.1487    9.0579   -2.0098 C   0  0  0  0  0  0  0  0  0  0  0  0
  -23.0645    9.9390   -0.9554 C   0  0  0  0  0  0  0  0  0  0  0  0
  -20.4039    8.8472   -0.5870 C   0  0  1  0  0  0  0  0  0  0  0  0
  -20.0981    6.5887   -0.6906 C   0  0  2  0  0  0  0  0  0  0  0  0
  -20.6488    5.2608   -0.2179 C   0  0  0  0  0  0  0  0  0  0  0  0
  -18.6321    6.6692   -0.2864 C   0  0  1  0  0  0  0  0  0  0  0  0
  -18.1351    8.0143   -0.7650 C   0  0  1  0  0  0  0  0  0  0  0  0
  -15.8276    8.3083   -1.5352 C   0  0  0  0  0  0  0  0  0  0  0  0
  -14.5665    8.4727   -0.9971 C   0  0  0  0  0  0  0  0  0  0  0  0
  -11.0149    9.4390   -1.7624 C   0  0  0  0  0  0  0  0  0  0  0  0
  -18.9876    9.0643   -0.0958 C   0  0  1  0  0  0  0  0  0  0  0  0
  -11.7365    7.7645   -4.8761 F   0  0  0  0  0  0  0  0  0  0  0  0
  -16.7311    8.1958   -0.5449 N   0  0  0  0  0  0  0  0  0  0  0  0
  -14.7714    8.4515    0.3371 N   0  0  0  0  0  0  0  0  0  0  0  0
  -16.0578    8.2868    0.5870 N   0  0  0  0  0  0  0  0  0  0  0  0
  -20.8067    7.5995   -0.0838 O   0  0  0  0  0  0  0  0  0  0  0  0
  -21.8241    4.9976   -0.9152 O   0  0  0  0  0  0  0  0  0  0  0  0
  -18.6316    6.6480    1.1263 O   0  0  0  0  0  0  0  0  0  0  0  0
  -18.5498   10.3540   -0.3748 O   0  0  0  0  0  0  0  0  0  0  0  0
  -21.5081   10.1765   -0.1171 S   0  0  0  0  0  0  0  0  0  0  0  0
  1  2  2  0
  1  5  1  0
 19  1  1  0
  2  3  1  0
  3  4  2  0
  3 22  1  0
 20  4  1  0
  5 20  2  0
  6  7  1  6
  8  7  2  0
 10  7  1  0
  9  8  1  0
 12  9  2  0
 11 10  2  0
 12 11  1  0
 30 12  1  0
 21 13  1  0
 13 26  1  0
 13 30  1  1
 14 15  1  0
 16 14  1  0
 14 26  1  1
 15 27  1  6
 17 16  1  0
 16 28  1  1
 17 21  1  0
 17 23  1  1
 18 19  2  0
 18 23  1  0
 19 24  1  0
 21 29  1  6
 23 25  1  0
 24 25  2  0
M  END
$$$$
