
     RDKit          3D

 30 33  0  0  0  0  0  0  0  0999 V2000
  -13.7936    9.2510    0.4169 C   0  0  0  0  0  0  0  0  0  0  0  0
  -13.7011   10.6161    0.5568 C   0  0  0  0  0  0  0  0  0  0  0  0
  -12.4807   11.2368    0.8480 C   0  0  0  0  0  0  0  0  0  0  0  0
  -11.3576   10.4567    0.9951 C   0  0  0  0  0  0  0  0  0  0  0  0
  -12.6515    8.5013    0.5704 C   0  0  0  0  0  0  0  0  0  0  0  0
  -26.3045   13.0080   -1.2745 C   0  0  0  0  0  0  0  0  0  0  0  0
  -25.2713   12.0674   -0.7619 C   0  0  0  0  0  0  0  0  0  0  0  0
  -24.1094   11.8149   -1.4562 C   0  0  0  0  0  0  0  0  0  0  0  0
  -23.1369   10.9491   -1.0045 C   0  0  0  0  0  0  0  0  0  0  0  0
  -25.4950   11.4276    0.4581 C   0  0  0  0  0  0  0  0  0  0  0  0
  -24.5164   10.5543    0.9159 C   0  0  0  0  0  0  0  0  0  0  0  0
  -23.3642   10.3218    0.1993 C   0  0  0  0  0  0  0  0  0  0  0  0
  -20.8619    8.9900   -0.4103 C   0  0  1  0  0  0  0  0  0  0  0  0
  -20.3475    8.1848   -2.4821 C   0  0  2  0  0  0  0  0  0  0  0  0
  -20.8465    7.3029   -3.6059 C   0  0  0  0  0  0  0  0  0  0  0  0
  -18.9745    7.6832   -2.0547 C   0  0  1  0  0  0  0  0  0  0  0  0
  -18.5289    8.5832   -0.9247 C   0  0  1  0  0  0  0  0  0  0  0  0
  -16.2438    9.2317   -0.3231 C   0  0  0  0  0  0  0  0  0  0  0  0
  -15.0768    8.6368    0.1142 C   0  0  0  0  0  0  0  0  0  0  0  0
  -11.4220    9.1023    0.8615 C   0  0  0  0  0  0  0  0  0  0  0  0
  -19.5634    8.4665    0.1677 C   0  0  1  0  0  0  0  0  0  0  0  0
  -12.3823   12.5782    0.9869 F   0  0  0  0  0  0  0  0  0  0  0  0
  -17.1973    8.2960   -0.4808 N   0  0  0  0  0  0  0  0  0  0  0  0
  -15.3878    7.3262    0.2039 N   0  0  0  0  0  0  0  0  0  0  0  0
  -16.6465    7.1423   -0.1518 N   0  0  0  0  0  0  0  0  0  0  0  0
  -21.2272    8.0944   -1.4286 O   0  0  0  0  0  0  0  0  0  0  0  0
  -22.1097    7.7461   -3.9865 O   0  0  0  0  0  0  0  0  0  0  0  0
  -19.1914    6.3798   -1.5545 O   0  0  0  0  0  0  0  0  0  0  0  0
  -19.2021    9.1687    1.3119 O   0  0  0  0  0  0  0  0  0  0  0  0
  -22.1376    9.1909    0.8303 S   0  0  0  0  0  0  0  0  0  0  0  0
  1  2  2  0
  1  5  1  0
 19  1  1  0
  2  3  1  0
  3  4  2  0
  3 22  1  0
 20  4  1  0
  5 20  2  0
  6  7  1  6
  8  7  2  0
 10  7  1  0
  9  8  1  0
 12  9  2  0
 11 10  2  0
 12 11  1  0
 30 12  1  0
 21 13  1  0
 13 26  1  0
 13 30  1  1
 14 15  1  0
 16 14  1  0
 14 26  1  1
 15 27  1  6
 17 16  1  0
 16 28  1  1
 17 21  1  0
 17 23  1  1
 18 19  2  0
 18 23  1  0
 19 24  1  0
 21 29  1  1
 23 25  1  0
 24 25  2  0
M  END
$$$$
