
     RDKit          3D

 30 33  0  0  0  0  0  0  0  0999 V2000
  -25.7581    9.1310    2.8717 C   0  0  0  0  0  0  0  0  0  0  0  0
  -25.4682    8.1953    3.8411 C   0  0  0  0  0  0  0  0  0  0  0  0
  -26.3918    7.8367    4.8073 C   0  0  0  0  0  0  0  0  0  0  0  0
  -27.6471    8.4048    4.8397 C   0  0  0  0  0  0  0  0  0  0  0  0
  -27.0191    9.6984    2.9081 C   0  0  0  0  0  0  0  0  0  0  0  0
  -13.1217    7.6159    1.4928 C   0  0  0  0  0  0  0  0  0  0  0  0
  -14.3355    8.2347    0.8842 C   0  0  0  0  0  0  0  0  0  0  0  0
  -14.4662    9.6121    0.8074 C   0  0  0  0  0  0  0  0  0  0  0  0
  -15.5984   10.1723    0.2402 C   0  0  0  0  0  0  0  0  0  0  0  0
  -15.3447    7.4427    0.3907 C   0  0  0  0  0  0  0  0  0  0  0  0
  -16.4780    8.0273   -0.1775 C   0  0  0  0  0  0  0  0  0  0  0  0
  -16.6146    9.3924   -0.2576 C   0  0  0  0  0  0  0  0  0  0  0  0
  -19.4895    9.0977   -0.3984 C   0  0  1  0  0  0  0  0  0  0  0  0
  -20.7053    8.1777   -2.1822 C   0  0  2  0  0  0  0  0  0  0  0  0
  -20.3075    8.9401   -3.4344 C   0  0  0  0  0  0  0  0  0  0  0  0
  -22.0274    8.6323   -1.6121 C   0  0  1  0  0  0  0  0  0  0  0  0
  -21.8705    8.9164   -0.1272 C   0  0  1  0  0  0  0  0  0  0  0  0
  -23.7192    8.7402    1.4417 C   0  0  0  0  0  0  0  0  0  0  0  0
  -24.7777    9.5144    1.8523 C   0  0  0  0  0  0  0  0  0  0  0  0
  -27.9397    9.3438    3.8685 C   0  0  0  0  0  0  0  0  0  0  0  0
  -20.6938    9.9105   -0.0750 C   0  0  1  0  0  0  0  0  0  0  0  0
  -26.0430    6.9028    5.7408 F   0  0  0  0  0  0  0  0  0  0  0  0
  -23.0351    9.4470    0.4883 N   0  0  0  0  0  0  0  0  0  0  0  0
  -24.6779   10.6396    1.1287 N   0  0  0  0  0  0  0  0  0  0  0  0
  -23.6327   10.5931    0.3139 N   0  0  0  0  0  0  0  0  0  0  0  0
  -19.7065    8.0580   -1.2707 O   0  0  0  0  0  0  0  0  0  0  0  0
  -20.0875    8.1543   -4.5356 O   0  0  0  0  0  0  0  0  0  0  0  0
  -22.5183    9.7508   -2.2750 O   0  0  0  0  0  0  0  0  0  0  0  0
  -20.5924   10.4647    1.2017 O   0  0  0  0  0  0  0  0  0  0  0  0
  -18.0843   10.0595   -1.0039 S   0  0  0  0  0  0  0  0  0  0  0  0
  1  2  2  0
  1  5  1  0
 19  1  1  0
  2  3  1  0
  3  4  2  0
  3 22  1  0
 20  4  1  0
  5 20  2  0
  7  6  1  0
  8  7  2  0
 10  7  1  0
  9  8  1  0
 12  9  2  0
 11 10  2  0
 12 11  1  0
 30 12  1  0
 21 13  1  0
 13 26  1  0
 13 30  1  6
 14 15  1  6
 16 14  1  0
 14 26  1  0
 15 27  1  0
 17 16  1  0
 16 28  1  6
 17 21  1  0
 17 23  1  6
 18 19  2  0
 18 23  1  0
 19 24  1  0
 21 29  1  1
 23 25  1  0
 24 25  2  0
M  END
$$$$
