
     RDKit          3D

 30 33  0  0  0  0  0  0  0  0999 V2000
  -13.1383    9.0454    0.1712 C   0  0  0  0  0  0  0  0  0  0  0  0
  -12.1501    9.1113    1.1295 C   0  0  0  0  0  0  0  0  0  0  0  0
  -10.8082    9.1392    0.7920 C   0  0  0  0  0  0  0  0  0  0  0  0
  -10.4032    9.1018   -0.5248 C   0  0  0  0  0  0  0  0  0  0  0  0
  -12.7271    9.0081   -1.1489 C   0  0  0  0  0  0  0  0  0  0  0  0
  -25.7743    9.6741   -4.7491 C   0  0  0  0  0  0  0  0  0  0  0  0
  -24.7974    9.6882   -3.6212 C   0  0  0  0  0  0  0  0  0  0  0  0
  -23.8687    8.6701   -3.4751 C   0  0  0  0  0  0  0  0  0  0  0  0
  -22.9685    8.6963   -2.4233 C   0  0  0  0  0  0  0  0  0  0  0  0
  -24.8071   10.7152   -2.7078 C   0  0  0  0  0  0  0  0  0  0  0  0
  -23.8907   10.7230   -1.6546 C   0  0  0  0  0  0  0  0  0  0  0  0
  -22.9665    9.7172   -1.5034 C   0  0  0  0  0  0  0  0  0  0  0  0
  -20.2099    9.2716   -0.7454 C   0  0  1  0  0  0  0  0  0  0  0  0
  -19.9411    6.9548   -0.4874 C   0  0  2  0  0  0  0  0  0  0  0  0
  -20.9876    6.4919    0.5116 C   0  0  0  0  0  0  0  0  0  0  0  0
  -18.5698    7.1078    0.1258 C   0  0  1  0  0  0  0  0  0  0  0  0
  -18.0029    8.4724   -0.2300 C   0  0  1  0  0  0  0  0  0  0  0  0
  -15.5806    8.6593   -0.3196 C   0  0  0  0  0  0  0  0  0  0  0  0
  -14.5588    9.0102    0.5296 C   0  0  0  0  0  0  0  0  0  0  0  0
  -11.3928    9.0354   -1.4875 C   0  0  0  0  0  0  0  0  0  0  0  0
  -19.1020    9.4488    0.2327 C   0  0  1  0  0  0  0  0  0  0  0  0
   -9.8771    9.2048    1.7890 F   0  0  0  0  0  0  0  0  0  0  0  0
  -16.7534    8.7589    0.3812 N   0  0  0  0  0  0  0  0  0  0  0  0
  -15.1648    9.2995    1.6909 N   0  0  0  0  0  0  0  0  0  0  0  0
  -16.4787    9.1471    1.5957 N   0  0  0  0  0  0  0  0  0  0  0  0
  -20.3385    8.0016   -1.2549 O   0  0  0  0  0  0  0  0  0  0  0  0
  -21.6937    5.3822    0.1261 O   0  0  0  0  0  0  0  0  0  0  0  0
  -18.5984    6.9341    1.5043 O   0  0  0  0  0  0  0  0  0  0  0  0
  -18.6200   10.7581    0.2073 O   0  0  0  0  0  0  0  0  0  0  0  0
  -21.8275    9.8044   -0.1406 S   0  0  0  0  0  0  0  0  0  0  0  0
  1  2  2  0
  1  5  1  0
 19  1  1  0
  2  3  1  0
  3  4  2  0
  3 22  1  0
 20  4  1  0
  5 20  2  0
  7  6  1  0
  8  7  2  0
 10  7  1  0
  9  8  1  0
 12  9  2  0
 11 10  2  0
 12 11  1  0
 30 12  1  0
 21 13  1  0
 13 26  1  0
 13 30  1  1
 14 15  1  1
 16 14  1  0
 14 26  1  0
 15 27  1  0
 17 16  1  0
 16 28  1  1
 17 21  1  0
 17 23  1  1
 18 19  2  0
 18 23  1  0
 19 24  1  0
 21 29  1  6
 23 25  1  0
 24 25  2  0
M  END
$$$$
