
     RDKit          3D

 30 33  0  0  0  0  0  0  0  0999 V2000
  -24.7929    9.8205    1.0121 C   0  0  0  0  0  0  0  0  0  0  0  0
  -25.9062   10.3067    0.3671 C   0  0  0  0  0  0  0  0  0  0  0  0
  -27.0906   10.5761    1.0629 C   0  0  0  0  0  0  0  0  0  0  0  0
  -27.1313   10.3466    2.4183 C   0  0  0  0  0  0  0  0  0  0  0  0
  -24.8681    9.6025    2.3675 C   0  0  0  0  0  0  0  0  0  0  0  0
  -11.7464    8.4343    2.2866 C   0  0  0  0  0  0  0  0  0  0  0  0
  -12.9073    8.6398    1.3782 C   0  0  0  0  0  0  0  0  0  0  0  0
  -12.8009    8.4789    0.0149 C   0  0  0  0  0  0  0  0  0  0  0  0
  -13.8594    8.6629   -0.8484 C   0  0  0  0  0  0  0  0  0  0  0  0
  -14.1345    9.0059    1.9329 C   0  0  0  0  0  0  0  0  0  0  0  0
  -15.2032    9.1920    1.0650 C   0  0  0  0  0  0  0  0  0  0  0  0
  -15.0665    9.0238   -0.2945 C   0  0  0  0  0  0  0  0  0  0  0  0
  -17.8621    8.3688   -0.6980 C   0  0  1  0  0  0  0  0  0  0  0  0
  -18.8196    6.3195   -0.4010 C   0  0  2  0  0  0  0  0  0  0  0  0
  -18.7514    4.8686   -0.8258 C   0  0  0  0  0  0  0  0  0  0  0  0
  -20.2294    6.8298   -0.6683 C   0  0  1  0  0  0  0  0  0  0  0  0
  -20.2410    8.2807   -0.2440 C   0  0  1  0  0  0  0  0  0  0  0  0
  -22.4240    8.9126    0.6720 C   0  0  0  0  0  0  0  0  0  0  0  0
  -23.5774    9.5508    0.2603 C   0  0  0  0  0  0  0  0  0  0  0  0
  -26.0425    9.8654    3.0811 C   0  0  0  0  0  0  0  0  0  0  0  0
  -19.1934    8.9902   -1.0664 C   0  0  1  0  0  0  0  0  0  0  0  0
  -28.1889   11.0541    0.4354 F   0  0  0  0  0  0  0  0  0  0  0  0
  -21.5407    8.8755   -0.3419 N   0  0  0  0  0  0  0  0  0  0  0  0
  -23.3310    9.8813   -1.0252 N   0  0  0  0  0  0  0  0  0  0  0  0
  -22.1213    9.4741   -1.3652 N   0  0  0  0  0  0  0  0  0  0  0  0
  -17.9132    7.0384   -1.1449 O   0  0  0  0  0  0  0  0  0  0  0  0
  -17.8898    4.1969    0.0364 O   0  0  0  0  0  0  0  0  0  0  0  0
  -20.3960    6.7526   -2.0692 O   0  0  0  0  0  0  0  0  0  0  0  0
  -19.1883   10.3622   -0.8419 O   0  0  0  0  0  0  0  0  0  0  0  0
  -16.4696    9.2746   -1.3670 S   0  0  0  0  0  0  0  0  0  0  0  0
  1  2  2  0
  1  5  1  0
 19  1  1  0
  2  3  1  0
  3  4  2  0
  3 22  1  0
 20  4  1  0
  5 20  2  0
  6  7  1  6
  8  7  2  0
 10  7  1  0
  9  8  1  0
 12  9  2  0
 11 10  2  0
 12 11  1  0
 30 12  1  0
 21 13  1  0
 13 26  1  0
 13 30  1  6
 14 15  1  0
 16 14  1  0
 14 26  1  6
 15 27  1  6
 17 16  1  0
 16 28  1  6
 17 21  1  0
 17 23  1  6
 18 19  2  0
 18 23  1  0
 19 24  1  0
 21 29  1  1
 23 25  1  0
 24 25  2  0
M  END
$$$$
