
     RDKit          3D

 30 33  0  0  0  0  0  0  0  0999 V2000
  -13.2059    8.8904    0.1164 C   0  0  0  0  0  0  0  0  0  0  0  0
  -13.3057    8.7667    1.4826 C   0  0  0  0  0  0  0  0  0  0  0  0
  -12.1867    8.9150    2.3104 C   0  0  0  0  0  0  0  0  0  0  0  0
  -10.9676    9.1898    1.7360 C   0  0  0  0  0  0  0  0  0  0  0  0
  -11.9723    9.1653   -0.4247 C   0  0  0  0  0  0  0  0  0  0  0  0
  -26.3624    9.0994   -3.8967 C   0  0  0  0  0  0  0  0  0  0  0  0
  -25.1087    9.3541   -3.1362 C   0  0  0  0  0  0  0  0  0  0  0  0
  -24.0022    8.5451   -3.2666 C   0  0  0  0  0  0  0  0  0  0  0  0
  -22.8296    8.7583   -2.5746 C   0  0  0  0  0  0  0  0  0  0  0  0
  -25.0625   10.4462   -2.2685 C   0  0  0  0  0  0  0  0  0  0  0  0
  -23.8817   10.6635   -1.5697 C   0  0  0  0  0  0  0  0  0  0  0  0
  -22.7911    9.8370   -1.7208 C   0  0  0  0  0  0  0  0  0  0  0  0
  -20.1560    8.8083   -1.0845 C   0  0  1  0  0  0  0  0  0  0  0  0
  -19.6761    6.6172   -0.6681 C   0  0  2  0  0  0  0  0  0  0  0  0
  -20.0450    5.4311    0.1963 C   0  0  0  0  0  0  0  0  0  0  0  0
  -18.1817    6.8701   -0.5198 C   0  0  1  0  0  0  0  0  0  0  0  0
  -17.8680    8.0685   -1.3861 C   0  0  1  0  0  0  0  0  0  0  0  0
  -15.6796    8.4178   -0.3408 C   0  0  0  0  0  0  0  0  0  0  0  0
  -14.3879    8.7305   -0.7159 C   0  0  0  0  0  0  0  0  0  0  0  0
  -10.8416    9.3172    0.3853 C   0  0  0  0  0  0  0  0  0  0  0  0
  -18.7109    9.2131   -0.8795 C   0  0  1  0  0  0  0  0  0  0  0  0
  -12.2774    8.7949    3.6542 F   0  0  0  0  0  0  0  0  0  0  0  0
  -16.4678    8.3686   -1.4298 N   0  0  0  0  0  0  0  0  0  0  0  0
  -14.4560    8.8604   -2.0580 N   0  0  0  0  0  0  0  0  0  0  0  0
  -15.6940    8.6428   -2.4636 N   0  0  0  0  0  0  0  0  0  0  0  0
  -20.3817    7.7147   -0.2328 O   0  0  0  0  0  0  0  0  0  0  0  0
  -21.3520    5.0575   -0.1024 O   0  0  0  0  0  0  0  0  0  0  0  0
  -17.9933    7.2142    0.8375 O   0  0  0  0  0  0  0  0  0  0  0  0
  -18.4247   10.4068   -1.5321 O   0  0  0  0  0  0  0  0  0  0  0  0
  -21.2974   10.1587   -0.8004 S   0  0  0  0  0  0  0  0  0  0  0  0
  1  2  2  0
  1  5  1  0
 19  1  1  0
  2  3  1  0
  3  4  2  0
  3 22  1  0
 20  4  1  0
  5 20  2  0
  6  7  1  6
  8  7  2  0
 10  7  1  0
  9  8  1  0
 12  9  2  0
 11 10  2  0
 12 11  1  0
 30 12  1  0
 21 13  1  0
 13 26  1  0
 13 30  1  1
 14 15  1  0
 16 14  1  0
 14 26  1  1
 15 27  1  6
 17 16  1  0
 16 28  1  1
 17 21  1  0
 17 23  1  1
 18 19  2  0
 18 23  1  0
 19 24  1  0
 21 29  1  6
 23 25  1  0
 24 25  2  0
M  END
$$$$
