
     RDKit          3D

 30 33  0  0  0  0  0  0  0  0999 V2000
  -25.0960    9.3709    1.4514 C   0  0  0  0  0  0  0  0  0  0  0  0
  -26.3800    9.0152    1.0992 C   0  0  0  0  0  0  0  0  0  0  0  0
  -27.4230    9.0566    2.0079 C   0  0  0  0  0  0  0  0  0  0  0  0
  -27.2185    9.4577    3.3105 C   0  0  0  0  0  0  0  0  0  0  0  0
  -24.8955    9.7727    2.7597 C   0  0  0  0  0  0  0  0  0  0  0  0
  -12.3264    9.5852    2.8357 C   0  0  0  0  0  0  0  0  0  0  0  0
  -13.4701    9.6319    1.8784 C   0  0  0  0  0  0  0  0  0  0  0  0
  -14.6914   10.1650    2.2586 C   0  0  0  0  0  0  0  0  0  0  0  0
  -15.7440   10.2015    1.3596 C   0  0  0  0  0  0  0  0  0  0  0  0
  -13.3266    9.1436    0.6017 C   0  0  0  0  0  0  0  0  0  0  0  0
  -14.4001    9.1900   -0.2896 C   0  0  0  0  0  0  0  0  0  0  0  0
  -15.6141    9.7174    0.0800 C   0  0  0  0  0  0  0  0  0  0  0  0
  -18.3459    8.8896   -0.3933 C   0  0  1  0  0  0  0  0  0  0  0  0
  -18.9941    7.0722   -1.7288 C   0  0  2  0  0  0  0  0  0  0  0  0
  -18.3715    7.2799   -3.0987 C   0  0  0  0  0  0  0  0  0  0  0  0
  -20.4520    7.4617   -1.6802 C   0  0  1  0  0  0  0  0  0  0  0  0
  -20.6931    8.3840   -0.4964 C   0  0  1  0  0  0  0  0  0  0  0  0
  -22.7785    8.7127    0.7091 C   0  0  0  0  0  0  0  0  0  0  0  0
  -23.9910    9.3213    0.4902 C   0  0  0  0  0  0  0  0  0  0  0  0
  -25.9312    9.8145    3.6659 C   0  0  0  0  0  0  0  0  0  0  0  0
  -19.6623    9.5109   -0.7043 C   0  0  1  0  0  0  0  0  0  0  0  0
  -28.6730    8.6913    1.5964 F   0  0  0  0  0  0  0  0  0  0  0  0
  -22.0173    8.8907   -0.4158 N   0  0  0  0  0  0  0  0  0  0  0  0
  -23.8986    9.8297   -0.7478 N   0  0  0  0  0  0  0  0  0  0  0  0
  -22.7145    9.5684   -1.2849 N   0  0  0  0  0  0  0  0  0  0  0  0
  -18.2443    7.5550   -0.7051 O   0  0  0  0  0  0  0  0  0  0  0  0
  -17.8766    6.1414   -3.6797 O   0  0  0  0  0  0  0  0  0  0  0  0
  -20.8650    8.0647   -2.8623 O   0  0  0  0  0  0  0  0  0  0  0  0
  -19.9305   10.5702    0.1635 O   0  0  0  0  0  0  0  0  0  0  0  0
  -16.9295    9.7484   -1.1161 S   0  0  0  0  0  0  0  0  0  0  0  0
  1  2  2  0
  1  5  1  0
 19  1  1  0
  2  3  1  0
  3  4  2  0
  3 22  1  0
 20  4  1  0
  5 20  2  0
  7  6  1  0
  8  7  2  0
 10  7  1  0
  9  8  1  0
 12  9  2  0
 11 10  2  0
 12 11  1  0
 30 12  1  0
 21 13  1  0
 13 26  1  0
 13 30  1  6
 14 15  1  6
 16 14  1  0
 14 26  1  0
 15 27  1  0
 17 16  1  0
 16 28  1  6
 17 21  1  0
 17 23  1  6
 18 19  2  0
 18 23  1  0
 19 24  1  0
 21 29  1  1
 23 25  1  0
 24 25  2  0
M  END
$$$$
