
     RDKit          3D

 30 33  0  0  0  0  0  0  0  0999 V2000
  -13.1723    9.1051   -0.1576 C   0  0  0  0  0  0  0  0  0  0  0  0
  -12.1348    9.0019    0.7437 C   0  0  0  0  0  0  0  0  0  0  0  0
  -10.8856    9.5366    0.4813 C   0  0  0  0  0  0  0  0  0  0  0  0
  -10.6267   10.1980   -0.6998 C   0  0  0  0  0  0  0  0  0  0  0  0
  -12.9078    9.7697   -1.3415 C   0  0  0  0  0  0  0  0  0  0  0  0
  -25.7877   10.5700   -4.3747 C   0  0  0  0  0  0  0  0  0  0  0  0
  -24.7568   10.2657   -3.3396 C   0  0  0  0  0  0  0  0  0  0  0  0
  -23.4086   10.2685   -3.6597 C   0  0  0  0  0  0  0  0  0  0  0  0
  -22.4631    9.9839   -2.6888 C   0  0  0  0  0  0  0  0  0  0  0  0
  -25.1332    9.9763   -2.0498 C   0  0  0  0  0  0  0  0  0  0  0  0
  -24.1643    9.6923   -1.0856 C   0  0  0  0  0  0  0  0  0  0  0  0
  -22.8254    9.6936   -1.3953 C   0  0  0  0  0  0  0  0  0  0  0  0
  -20.0861    8.9033   -0.9019 C   0  0  1  0  0  0  0  0  0  0  0  0
  -19.9287    6.5883   -1.2521 C   0  0  2  0  0  0  0  0  0  0  0  0
  -20.9637    5.9295   -0.3564 C   0  0  0  0  0  0  0  0  0  0  0  0
  -18.5317    6.5228   -0.6832 C   0  0  1  0  0  0  0  0  0  0  0  0
  -17.9072    7.9083   -0.7070 C   0  0  1  0  0  0  0  0  0  0  0  0
  -15.5845    8.6264   -0.7114 C   0  0  0  0  0  0  0  0  0  0  0  0
  -14.4932    8.5337    0.1184 C   0  0  0  0  0  0  0  0  0  0  0  0
  -11.6659   10.3023   -1.6052 C   0  0  0  0  0  0  0  0  0  0  0  0
  -18.9383    8.7789    0.0377 C   0  0  1  0  0  0  0  0  0  0  0  0
   -9.8989    9.4006    1.4158 F   0  0  0  0  0  0  0  0  0  0  0  0
  -16.6248    7.9772   -0.1007 N   0  0  0  0  0  0  0  0  0  0  0  0
  -14.9292    7.8367    1.1785 N   0  0  0  0  0  0  0  0  0  0  0  0
  -16.2062    7.5064    1.0413 N   0  0  0  0  0  0  0  0  0  0  0  0
  -20.2971    7.8120   -1.7102 O   0  0  0  0  0  0  0  0  0  0  0  0
  -21.9892    5.3139   -1.0256 O   0  0  0  0  0  0  0  0  0  0  0  0
  -18.5230    6.0042    0.6061 O   0  0  0  0  0  0  0  0  0  0  0  0
  -18.3904   10.0302    0.3230 O   0  0  0  0  0  0  0  0  0  0  0  0
  -21.6528    9.3306   -0.1088 S   0  0  0  0  0  0  0  0  0  0  0  0
  1  2  2  0
  1  5  1  0
 19  1  1  0
  2  3  1  0
  3  4  2  0
  3 22  1  0
 20  4  1  0
  5 20  2  0
  7  6  1  0
  8  7  2  0
 10  7  1  0
  9  8  1  0
 12  9  2  0
 11 10  2  0
 12 11  1  0
 30 12  1  0
 21 13  1  0
 13 26  1  0
 13 30  1  1
 14 15  1  1
 16 14  1  0
 14 26  1  0
 15 27  1  0
 17 16  1  0
 16 28  1  1
 17 21  1  0
 17 23  1  1
 18 19  2  0
 18 23  1  0
 19 24  1  0
 21 29  1  6
 23 25  1  0
 24 25  2  0
M  END
$$$$
