
     RDKit          3D

 30 33  0  0  0  0  0  0  0  0999 V2000
  -13.5395    8.7458    0.1732 C   0  0  0  0  0  0  0  0  0  0  0  0
  -13.4280    9.7438    1.1171 C   0  0  0  0  0  0  0  0  0  0  0  0
  -12.2089   10.3205    1.4274 C   0  0  0  0  0  0  0  0  0  0  0  0
  -11.0492    9.9174    0.8012 C   0  0  0  0  0  0  0  0  0  0  0  0
  -12.3731    8.3445   -0.4526 C   0  0  0  0  0  0  0  0  0  0  0  0
  -25.9915   12.8733   -1.4582 C   0  0  0  0  0  0  0  0  0  0  0  0
  -24.9788   11.9206   -0.9165 C   0  0  0  0  0  0  0  0  0  0  0  0
  -25.2025   10.5535   -0.9503 C   0  0  0  0  0  0  0  0  0  0  0  0
  -24.2538    9.6812   -0.4437 C   0  0  0  0  0  0  0  0  0  0  0  0
  -23.8063   12.3891   -0.3736 C   0  0  0  0  0  0  0  0  0  0  0  0
  -22.8625   11.4930    0.1317 C   0  0  0  0  0  0  0  0  0  0  0  0
  -23.0770   10.1359    0.1013 C   0  0  0  0  0  0  0  0  0  0  0  0
  -20.3557    9.2321   -0.2853 C   0  0  1  0  0  0  0  0  0  0  0  0
  -20.4492    7.7621   -2.1120 C   0  0  2  0  0  0  0  0  0  0  0  0
  -21.4886    6.7047   -1.7819 C   0  0  0  0  0  0  0  0  0  0  0  0
  -19.0339    7.2836   -1.8937 C   0  0  1  0  0  0  0  0  0  0  0  0
  -18.2781    8.2982   -1.0513 C   0  0  1  0  0  0  0  0  0  0  0  0
  -15.9734    8.8194   -0.4795 C   0  0  0  0  0  0  0  0  0  0  0  0
  -14.8300    8.1316   -0.1508 C   0  0  0  0  0  0  0  0  0  0  0  0
  -11.1589    8.9162   -0.1456 C   0  0  0  0  0  0  0  0  0  0  0  0
  -19.1716    8.4674    0.1931 C   0  0  1  0  0  0  0  0  0  0  0  0
  -12.1651   11.3055    2.3725 F   0  0  0  0  0  0  0  0  0  0  0  0
  -16.9612    7.8969   -0.7027 N   0  0  0  0  0  0  0  0  0  0  0  0
  -15.1855    6.8388   -0.1943 N   0  0  0  0  0  0  0  0  0  0  0  0
  -16.4626    6.7048   -0.5253 N   0  0  0  0  0  0  0  0  0  0  0  0
  -20.7215    8.9838   -1.5866 O   0  0  0  0  0  0  0  0  0  0  0  0
  -22.4501    6.5295   -2.7429 O   0  0  0  0  0  0  0  0  0  0  0  0
  -18.9993    6.0291   -1.2967 O   0  0  0  0  0  0  0  0  0  0  0  0
  -18.4866    9.1765    1.1807 O   0  0  0  0  0  0  0  0  0  0  0  0
  -21.8222    9.0599    0.7568 S   0  0  0  0  0  0  0  0  0  0  0  0
  1  2  2  0
  1  5  1  0
 19  1  1  0
  2  3  1  0
  3  4  2  0
  3 22  1  0
 20  4  1  0
  5 20  2  0
  7  6  1  0
  8  7  2  0
 10  7  1  0
  9  8  1  0
 12  9  2  0
 11 10  2  0
 12 11  1  0
 30 12  1  0
 21 13  1  0
 13 26  1  0
 13 30  1  1
 14 15  1  1
 16 14  1  0
 14 26  1  0
 15 27  1  0
 17 16  1  0
 16 28  1  1
 17 21  1  0
 17 23  1  1
 18 19  2  0
 18 23  1  0
 19 24  1  0
 21 29  1  1
 23 25  1  0
 24 25  2  0
M  END
$$$$
