
     RDKit          3D

 17 16  0  0  0  0  0  0  0  0999 V2000
   71.2491  108.0405  280.1595 C   0  0  0  0  0  0  0  0  0  0  0  0
   69.7525  108.1523  280.0192 C   0  0  0  0  0  0  0  0  0  0  0  0
   69.3562  108.0864  278.5465 C   0  0  0  0  0  0  0  0  0  0  0  0
   67.1592  108.9309  278.0970 C   0  0  0  0  0  0  0  0  0  0  0  0
   65.7286  108.5337  277.7838 C   0  0  0  0  0  0  0  0  0  0  0  0
   64.9025  109.7153  277.3483 C   0  0  0  0  0  0  0  0  0  0  0  0
   63.6058  109.2705  276.6846 C   0  0  0  0  0  0  0  0  0  0  0  0
   62.4212  109.9894  277.2597 C   0  0  0  0  0  0  0  0  0  0  0  0
   61.1667  109.5967  276.5685 C   0  0  1  0  0  0  0  0  0  0  0  0
   59.9813  110.4655  276.7644 C   0  0  1  0  0  0  0  0  0  0  0  0
   58.8374  110.0776  276.1174 F   0  0  0  0  0  0  0  0  0  0  0  0
   59.6722  110.5808  278.1093 F   0  0  0  0  0  0  0  0  0  0  0  0
   60.2979  111.7362  276.2841 F   0  0  0  0  0  0  0  0  0  0  0  0
   67.9658  107.7784  278.3909 N   0  0  0  0  0  4  0  0  0  0  0  0
   71.6500  106.6976  279.8137 N   0  0  0  0  0  4  0  0  0  0  0  0
   61.4184  109.5499  275.1867 O   0  0  0  0  0  0  0  0  0  0  0  0
   60.8322  108.2684  276.9188 O   0  0  0  0  0  0  0  0  0  0  0  0
  2  1  1  0
  1 15  1  0
  3  2  1  0
 14  3  1  0
  4  5  1  0
  4 14  1  0
  5  6  1  0
  6  7  1  0
  7  8  1  0
  8  9  1  0
  9 10  1  0
  9 16  1  6
  9 17  1  0
 10 11  1  6
 10 12  1  0
 10 13  1  0
M  CHG  2  14   1  15   1
M  END
$$$$
