
     RDKit          3D

 17 16  0  0  0  0  0  0  0  0999 V2000
   65.5256   82.8950  261.2910 C   0  0  0  0  0  0  0  0  0  0  0  0
   65.8087   81.8675  260.2251 C   0  0  0  0  0  0  0  0  0  0  0  0
   64.6065   81.7307  259.2944 C   0  0  0  0  0  0  0  0  0  0  0  0
   63.9467   83.2213  257.5380 C   0  0  0  0  0  0  0  0  0  0  0  0
   62.9646   84.3348  257.2249 C   0  0  0  0  0  0  0  0  0  0  0  0
   63.3920   85.1364  256.0236 C   0  0  0  0  0  0  0  0  0  0  0  0
   62.4563   86.3133  255.7811 C   0  0  0  0  0  0  0  0  0  0  0  0
   62.9097   87.1428  254.6161 C   0  0  0  0  0  0  0  0  0  0  0  0
   61.9912   88.2859  254.3805 C   0  0  1  0  0  0  0  0  0  0  0  0
   62.0181   88.9149  253.0383 C   0  0  1  0  0  0  0  0  0  0  0  0
   61.7572   88.0852  251.9794 F   0  0  0  0  0  0  0  0  0  0  0  0
   61.1172   89.9642  252.9680 F   0  0  0  0  0  0  0  0  0  0  0  0
   63.2977   89.4307  252.8329 F   0  0  0  0  0  0  0  0  0  0  0  0
   64.0578   83.0098  258.9551 N   0  0  0  0  0  4  0  0  0  0  0  0
   65.4069   82.2246  262.5639 N   0  0  0  0  0  4  0  0  0  0  0  0
   60.6742   87.8491  254.6036 O   0  0  0  0  0  0  0  0  0  0  0  0
   62.2127   89.2781  255.3631 O   0  0  0  0  0  0  0  0  0  0  0  0
  2  1  1  0
  1 15  1  0
  3  2  1  0
 14  3  1  0
  4  5  1  0
  4 14  1  0
  5  6  1  0
  6  7  1  0
  7  8  1  0
  8  9  1  0
  9 10  1  0
  9 16  1  1
  9 17  1  0
 10 11  1  6
 10 12  1  0
 10 13  1  0
M  CHG  2  14   1  15   1
M  END
$$$$
