
     RDKit          3D

 17 16  0  0  0  0  0  0  0  0999 V2000
   70.7688  108.2832  280.0941 C   0  0  0  0  0  0  0  0  0  0  0  0
   69.7607  108.8436  279.1237 C   0  0  0  0  0  0  0  0  0  0  0  0
   68.3463  108.4749  279.5638 C   0  0  0  0  0  0  0  0  0  0  0  0
   66.8556  108.1307  277.7195 C   0  0  0  0  0  0  0  0  0  0  0  0
   65.3410  108.0535  277.7686 C   0  0  0  0  0  0  0  0  0  0  0  0
   64.6995  109.3184  277.2617 C   0  0  0  0  0  0  0  0  0  0  0  0
   63.1813  109.1990  277.2380 C   0  0  0  0  0  0  0  0  0  0  0  0
   62.6124  109.7005  275.9436 C   0  0  0  0  0  0  0  0  0  0  0  0
   61.1397  109.5144  275.8960 C   0  0  1  0  0  0  0  0  0  0  0  0
   60.3081  110.4676  276.6693 C   0  0  1  0  0  0  0  0  0  0  0  0
   60.4043  110.3808  278.0334 F   0  0  0  0  0  0  0  0  0  0  0  0
   60.6036  111.7746  276.3202 F   0  0  0  0  0  0  0  0  0  0  0  0
   58.9719  110.2272  276.3492 F   0  0  0  0  0  0  0  0  0  0  0  0
   67.3608  109.0527  278.6993 N   0  0  0  0  0  4  0  0  0  0  0  0
   72.0951  108.5200  279.5758 N   0  0  0  0  0  4  0  0  0  0  0  0
   60.7255  109.6007  274.5558 O   0  0  0  0  0  0  0  0  0  0  0  0
   60.8191  108.1943  276.2876 O   0  0  0  0  0  0  0  0  0  0  0  0
  2  1  1  0
  1 15  1  0
  3  2  1  0
 14  3  1  0
  4  5  1  0
  4 14  1  0
  5  6  1  0
  6  7  1  0
  7  8  1  0
  8  9  1  0
  9 10  1  0
  9 16  1  6
  9 17  1  0
 10 11  1  1
 10 12  1  0
 10 13  1  0
M  CHG  2  14   1  15   1
M  END
$$$$
