
     RDKit          3D

 17 16  0  0  0  0  0  0  0  0999 V2000
   69.6080  108.1972  280.4135 C   0  0  0  0  0  0  0  0  0  0  0  0
   69.5046  109.1444  279.2457 C   0  0  0  0  0  0  0  0  0  0  0  0
   68.0861  109.1311  278.6819 C   0  0  0  0  0  0  0  0  0  0  0  0
   66.9388  108.3807  276.7166 C   0  0  0  0  0  0  0  0  0  0  0  0
   65.9931  109.4752  277.1751 C   0  0  0  0  0  0  0  0  0  0  0  0
   64.6930  108.9132  277.6871 C   0  0  0  0  0  0  0  0  0  0  0  0
   63.5768  109.0776  276.6639 C   0  0  0  0  0  0  0  0  0  0  0  0
   62.3003  109.5251  277.3128 C   0  0  0  0  0  0  0  0  0  0  0  0
   61.1859  109.5698  276.3321 C   0  0  1  0  0  0  0  0  0  0  0  0
   60.1555  110.6190  276.5204 C   0  0  1  0  0  0  0  0  0  0  0  0
   59.1811  110.6850  275.5592 F   0  0  0  0  0  0  0  0  0  0  0  0
   59.5177  110.4696  277.7405 F   0  0  0  0  0  0  0  0  0  0  0  0
   60.7993  111.8564  276.5190 F   0  0  0  0  0  0  0  0  0  0  0  0
   67.9097  108.0744  277.7308 N   0  0  0  0  0  4  0  0  0  0  0  0
   70.9791  107.7645  280.5420 N   0  0  0  0  0  4  0  0  0  0  0  0
   61.7313  109.7545  275.0501 O   0  0  0  0  0  0  0  0  0  0  0  0
   60.5565  108.3050  276.2768 O   0  0  0  0  0  0  0  0  0  0  0  0
  2  1  1  0
  1 15  1  0
  3  2  1  0
 14  3  1  0
  4  5  1  0
  4 14  1  0
  5  6  1  0
  6  7  1  0
  7  8  1  0
  8  9  1  0
  9 10  1  0
  9 16  1  6
  9 17  1  0
 10 11  1  6
 10 12  1  0
 10 13  1  0
M  CHG  2  14   1  15   1
M  END
$$$$
