
     RDKit          3D

 17 16  0  0  0  0  0  0  0  0999 V2000
   70.0529  107.8744  281.0490 C   0  0  0  0  0  0  0  0  0  0  0  0
   69.3880  107.4981  279.7496 C   0  0  0  0  0  0  0  0  0  0  0  0
   68.6392  108.6979  279.1755 C   0  0  0  0  0  0  0  0  0  0  0  0
   67.2010  109.3770  277.3832 C   0  0  0  0  0  0  0  0  0  0  0  0
   65.8843  108.6724  277.1144 C   0  0  0  0  0  0  0  0  0  0  0  0
   64.7069  109.4944  277.5687 C   0  0  0  0  0  0  0  0  0  0  0  0
   63.5209  109.3314  276.6272 C   0  0  0  0  0  0  0  0  0  0  0  0
   62.2516  109.8284  277.2538 C   0  0  0  0  0  0  0  0  0  0  0  0
   61.1017  109.6850  276.3250 C   0  0  1  0  0  0  0  0  0  0  0  0
   59.9612  110.6150  276.5052 C   0  0  1  0  0  0  0  0  0  0  0  0
   60.2485  111.9496  276.3869 F   0  0  0  0  0  0  0  0  0  0  0  0
   58.9483  110.3326  275.6041 F   0  0  0  0  0  0  0  0  0  0  0  0
   59.4572  110.4298  277.7926 F   0  0  0  0  0  0  0  0  0  0  0  0
   68.2035  108.4509  277.8333 N   0  0  0  0  0  4  0  0  0  0  0  0
   71.4563  107.5470  280.9656 N   0  0  0  0  0  4  0  0  0  0  0  0
   61.5695  109.8577  275.0110 O   0  0  0  0  0  0  0  0  0  0  0  0
   60.6267  108.3539  276.3660 O   0  0  0  0  0  0  0  0  0  0  0  0
  2  1  1  0
  1 15  1  0
  3  2  1  0
 14  3  1  0
  4  5  1  0
  4 14  1  0
  5  6  1  0
  6  7  1  0
  7  8  1  0
  8  9  1  0
  9 10  1  0
  9 16  1  6
  9 17  1  0
 10 11  1  1
 10 12  1  0
 10 13  1  0
M  CHG  2  14   1  15   1
M  END
$$$$
