
     RDKit          3D

 17 16  0  0  0  0  0  0  0  0999 V2000
   71.6063  108.4071  278.3313 C   0  0  0  0  0  0  0  0  0  0  0  0
   70.1995  107.9720  278.6530 C   0  0  0  0  0  0  0  0  0  0  0  0
   69.2569  108.3574  277.5159 C   0  0  0  0  0  0  0  0  0  0  0  0
   67.0413  108.9081  278.2436 C   0  0  0  0  0  0  0  0  0  0  0  0
   65.5923  108.5651  277.9517 C   0  0  0  0  0  0  0  0  0  0  0  0
   64.9554  109.5679  277.0259 C   0  0  0  0  0  0  0  0  0  0  0  0
   63.6098  109.0722  276.5129 C   0  0  0  0  0  0  0  0  0  0  0  0
   62.5167  110.0590  276.7998 C   0  0  0  0  0  0  0  0  0  0  0  0
   61.2389  109.6447  276.1663 C   0  0  1  0  0  0  0  0  0  0  0  0
   60.0511  110.4982  276.4088 C   0  0  1  0  0  0  0  0  0  0  0  0
   58.9118  110.1504  275.7316 F   0  0  0  0  0  0  0  0  0  0  0  0
   59.7335  110.5286  277.7563 F   0  0  0  0  0  0  0  0  0  0  0  0
   60.3688  111.7969  276.0111 F   0  0  0  0  0  0  0  0  0  0  0  0
   67.9256  107.8858  277.7556 N   0  0  0  0  0  4  0  0  0  0  0  0
   72.5274  107.4224  278.8467 N   0  0  0  0  0  4  0  0  0  0  0  0
   61.4308  109.5927  274.7750 O   0  0  0  0  0  0  0  0  0  0  0  0
   60.9387  108.3142  276.5384 O   0  0  0  0  0  0  0  0  0  0  0  0
  2  1  1  0
  1 15  1  0
  3  2  1  0
 14  3  1  0
  4  5  1  0
  4 14  1  0
  5  6  1  0
  6  7  1  0
  7  8  1  0
  8  9  1  0
  9 10  1  0
  9 16  1  6
  9 17  1  0
 10 11  1  6
 10 12  1  0
 10 13  1  0
M  CHG  2  14   1  15   1
M  END
$$$$
