
     RDKit          3D

 17 16  0  0  0  0  0  0  0  0999 V2000
   71.5068  108.6882  279.4906 C   0  0  0  0  0  0  0  0  0  0  0  0
   70.3140  109.4095  278.9170 C   0  0  0  0  0  0  0  0  0  0  0  0
   69.2601  108.4034  278.4621 C   0  0  0  0  0  0  0  0  0  0  0  0
   67.1566  108.1436  277.3440 C   0  0  0  0  0  0  0  0  0  0  0  0
   66.0828  108.8784  276.5634 C   0  0  0  0  0  0  0  0  0  0  0  0
   64.6989  108.4693  276.9944 C   0  0  0  0  0  0  0  0  0  0  0  0
   63.6299  109.2095  276.2012 C   0  0  0  0  0  0  0  0  0  0  0  0
   62.3611  109.3490  276.9895 C   0  0  0  0  0  0  0  0  0  0  0  0
   61.2161  109.6932  276.1083 C   0  0  1  0  0  0  0  0  0  0  0  0
   60.5465  110.9955  276.3401 C   0  0  1  0  0  0  0  0  0  0  0  0
   60.0273  111.1906  277.5931 F   0  0  0  0  0  0  0  0  0  0  0  0
   61.4124  112.0462  276.0874 F   0  0  0  0  0  0  0  0  0  0  0  0
   59.4786  111.0925  275.4480 F   0  0  0  0  0  0  0  0  0  0  0  0
   68.1259  109.0584  277.8816 N   0  0  0  0  0  4  0  0  0  0  0  0
   71.3264  107.2683  279.3033 N   0  0  0  0  0  4  0  0  0  0  0  0
   61.6663  109.6935  274.7770 O   0  0  0  0  0  0  0  0  0  0  0  0
   60.2531  108.6595  276.1625 O   0  0  0  0  0  0  0  0  0  0  0  0
  2  1  1  0
  1 15  1  0
  3  2  1  0
 14  3  1  0
  4  5  1  0
  4 14  1  0
  5  6  1  0
  6  7  1  0
  7  8  1  0
  8  9  1  0
  9 10  1  0
  9 16  1  6
  9 17  1  0
 10 11  1  1
 10 12  1  0
 10 13  1  0
M  CHG  2  14   1  15   1
M  END
$$$$
