
     RDKit          3D

 17 16  0  0  0  0  0  0  0  0999 V2000
   70.6384  107.6477  280.6151 C   0  0  0  0  0  0  0  0  0  0  0  0
   69.4690  108.5510  280.3179 C   0  0  0  0  0  0  0  0  0  0  0  0
   68.8841  108.2202  278.9473 C   0  0  0  0  0  0  0  0  0  0  0  0
   67.2139  108.8111  277.3338 C   0  0  0  0  0  0  0  0  0  0  0  0
   65.7750  108.3434  277.4494 C   0  0  0  0  0  0  0  0  0  0  0  0
   64.8081  109.4979  277.4295 C   0  0  0  0  0  0  0  0  0  0  0  0
   63.5197  109.1294  276.7057 C   0  0  0  0  0  0  0  0  0  0  0  0
   62.4267  110.1151  276.9966 C   0  0  0  0  0  0  0  0  0  0  0  0
   61.1925  109.7883  276.2379 C   0  0  1  0  0  0  0  0  0  0  0  0
   59.9921  110.6176  276.5014 C   0  0  1  0  0  0  0  0  0  0  0  0
   60.1082  111.9525  276.2150 F   0  0  0  0  0  0  0  0  0  0  0  0
   58.8998  110.1409  275.7963 F   0  0  0  0  0  0  0  0  0  0  0  0
   59.6998  110.5273  277.8623 F   0  0  0  0  0  0  0  0  0  0  0  0
   67.7799  109.0752  278.6281 N   0  0  0  0  0  4  0  0  0  0  0  0
   71.7702  108.4605  280.9922 N   0  0  0  0  0  4  0  0  0  0  0  0
   61.4744  109.8975  274.8654 O   0  0  0  0  0  0  0  0  0  0  0  0
   60.8677  108.4260  276.4315 O   0  0  0  0  0  0  0  0  0  0  0  0
  2  1  1  0
  1 15  1  0
  3  2  1  0
 14  3  1  0
  4  5  1  0
  4 14  1  0
  5  6  1  0
  6  7  1  0
  7  8  1  0
  8  9  1  0
  9 10  1  0
  9 16  1  6
  9 17  1  0
 10 11  1  6
 10 12  1  0
 10 13  1  0
M  CHG  2  14   1  15   1
M  END
$$$$
