
     RDKit          3D

 17 16  0  0  0  0  0  0  0  0999 V2000
   70.7690  107.1749  278.3413 C   0  0  0  0  0  0  0  0  0  0  0  0
   70.2218  108.1965  277.3776 C   0  0  0  0  0  0  0  0  0  0  0  0
   68.6957  108.1762  277.4003 C   0  0  0  0  0  0  0  0  0  0  0  0
   66.7901  109.1922  278.4388 C   0  0  0  0  0  0  0  0  0  0  0  0
   65.8546  109.6322  277.3282 C   0  0  0  0  0  0  0  0  0  0  0  0
   64.6099  108.7859  277.2769 C   0  0  0  0  0  0  0  0  0  0  0  0
   63.5467  109.4170  276.3875 C   0  0  0  0  0  0  0  0  0  0  0  0
   62.2257  109.5080  277.0928 C   0  0  0  0  0  0  0  0  0  0  0  0
   61.1059  109.6214  276.1239 C   0  0  1  0  0  0  0  0  0  0  0  0
   59.9745  110.5060  276.4921 C   0  0  1  0  0  0  0  0  0  0  0  0
   59.2367  110.1182  277.5797 F   0  0  0  0  0  0  0  0  0  0  0  0
   60.4166  111.7954  276.7358 F   0  0  0  0  0  0  0  0  0  0  0  0
   59.0950  110.5488  275.4102 F   0  0  0  0  0  0  0  0  0  0  0  0
   68.1654  109.3386  278.0483 N   0  0  0  0  0  4  0  0  0  0  0  0
   72.2111  107.2267  278.3056 N   0  0  0  0  0  4  0  0  0  0  0  0
   61.6206  110.0975  274.9059 O   0  0  0  0  0  0  0  0  0  0  0  0
   60.6093  108.3317  275.8253 O   0  0  0  0  0  0  0  0  0  0  0  0
  2  1  1  0
  1 15  1  0
  3  2  1  0
 14  3  1  0
  4  5  1  0
  4 14  1  0
  5  6  1  0
  6  7  1  0
  7  8  1  0
  8  9  1  0
  9 10  1  0
  9 16  1  6
  9 17  1  0
 10 11  1  1
 10 12  1  0
 10 13  1  0
M  CHG  2  14   1  15   1
M  END
$$$$
