
     RDKit          3D

 17 16  0  0  0  0  0  0  0  0999 V2000
   69.7710  107.7864  280.9984 C   0  0  0  0  0  0  0  0  0  0  0  0
   69.6023  108.3261  279.6012 C   0  0  0  0  0  0  0  0  0  0  0  0
   68.1729  108.0956  279.1176 C   0  0  0  0  0  0  0  0  0  0  0  0
   66.7195  108.2033  277.2155 C   0  0  0  0  0  0  0  0  0  0  0  0
   65.5732  108.8278  277.9890 C   0  0  0  0  0  0  0  0  0  0  0  0
   64.7499  109.7464  277.1251 C   0  0  0  0  0  0  0  0  0  0  0  0
   63.3151  109.2512  276.9996 C   0  0  0  0  0  0  0  0  0  0  0  0
   62.4597  110.2331  276.2546 C   0  0  0  0  0  0  0  0  0  0  0  0
   61.0804  109.7138  276.0717 C   0  0  1  0  0  0  0  0  0  0  0  0
   59.9654  110.5526  276.5732 C   0  0  1  0  0  0  0  0  0  0  0  0
   59.9609  110.8051  277.9200 F   0  0  0  0  0  0  0  0  0  0  0  0
   59.9410  111.7770  275.9269 F   0  0  0  0  0  0  0  0  0  0  0  0
   58.7707  109.8910  276.2891 F   0  0  0  0  0  0  0  0  0  0  0  0
   67.9888  108.5724  277.7793 N   0  0  0  0  0  4  0  0  0  0  0  0
   70.4962  106.5401  280.9316 N   0  0  0  0  0  4  0  0  0  0  0  0
   60.8602  109.5158  274.6979 O   0  0  0  0  0  0  0  0  0  0  0  0
   60.9838  108.4235  276.6416 O   0  0  0  0  0  0  0  0  0  0  0  0
  2  1  1  0
  1 15  1  0
  3  2  1  0
 14  3  1  0
  4  5  1  0
  4 14  1  0
  5  6  1  0
  6  7  1  0
  7  8  1  0
  8  9  1  0
  9 10  1  0
  9 16  1  6
  9 17  1  0
 10 11  1  1
 10 12  1  0
 10 13  1  0
M  CHG  2  14   1  15   1
M  END
$$$$
