
     RDKit          3D

 17 16  0  0  0  0  0  0  0  0999 V2000
   70.9518  108.6332  279.4135 C   0  0  0  0  0  0  0  0  0  0  0  0
   69.5822  109.1415  279.0428 C   0  0  0  0  0  0  0  0  0  0  0  0
   68.9239  108.1961  278.0414 C   0  0  0  0  0  0  0  0  0  0  0  0
   66.6481  108.5046  278.7252 C   0  0  0  0  0  0  0  0  0  0  0  0
   65.2448  108.3678  278.1646 C   0  0  0  0  0  0  0  0  0  0  0  0
   64.8306  109.5903  277.3885 C   0  0  0  0  0  0  0  0  0  0  0  0
   63.5793  109.3244  276.5618 C   0  0  0  0  0  0  0  0  0  0  0  0
   62.3517  109.8586  277.2388 C   0  0  0  0  0  0  0  0  0  0  0  0
   61.1438  109.6564  276.3986 C   0  0  1  0  0  0  0  0  0  0  0  0
   60.0106  110.5910  276.6001 C   0  0  1  0  0  0  0  0  0  0  0  0
   58.8395  110.2616  275.9694 F   0  0  0  0  0  0  0  0  0  0  0  0
   59.7240  110.7344  277.9472 F   0  0  0  0  0  0  0  0  0  0  0  0
   60.3912  111.8383  276.1049 F   0  0  0  0  0  0  0  0  0  0  0  0
   67.6160  108.6502  277.6731 N   0  0  0  0  0  4  0  0  0  0  0  0
   71.5619  109.5658  280.3310 N   0  0  0  0  0  4  0  0  0  0  0  0
   61.5220  109.7537  275.0486 O   0  0  0  0  0  0  0  0  0  0  0  0
   60.6829  108.3282  276.5486 O   0  0  0  0  0  0  0  0  0  0  0  0
  2  1  1  0
  1 15  1  0
  3  2  1  0
 14  3  1  0
  4  5  1  0
  4 14  1  0
  5  6  1  0
  6  7  1  0
  7  8  1  0
  8  9  1  0
  9 10  1  0
  9 16  1  6
  9 17  1  0
 10 11  1  6
 10 12  1  0
 10 13  1  0
M  CHG  2  14   1  15   1
M  END
$$$$
