
     RDKit          3D

 17 16  0  0  0  0  0  0  0  0999 V2000
   60.4318   80.2414  252.9299 C   0  0  0  0  0  0  0  0  0  0  0  0
   59.6250   78.9725  253.0347 C   0  0  0  0  0  0  0  0  0  0  0  0
   58.7577   78.7968  251.7910 C   0  0  0  0  0  0  0  0  0  0  0  0
   57.1456   80.0097  250.4979 C   0  0  0  0  0  0  0  0  0  0  0  0
   57.3811   80.2213  249.0140 C   0  0  0  0  0  0  0  0  0  0  0  0
   56.0906   80.4351  248.2675 C   0  0  0  0  0  0  0  0  0  0  0  0
   56.2715   81.4173  247.1176 C   0  0  0  0  0  0  0  0  0  0  0  0
   56.3157   80.7104  245.7951 C   0  0  0  0  0  0  0  0  0  0  0  0
   55.3595   81.3130  244.8315 C   0  0  1  0  0  0  0  0  0  0  0  0
   54.8525   80.4440  243.7424 C   0  0  1  0  0  0  0  0  0  0  0  0
   55.7878   79.6740  243.1022 F   0  0  0  0  0  0  0  0  0  0  0  0
   53.8697   79.5889  244.2119 F   0  0  0  0  0  0  0  0  0  0  0  0
   54.2813   81.2654  242.7704 F   0  0  0  0  0  0  0  0  0  0  0  0
   58.3798   80.0607  251.2323 N   0  0  0  0  0  4  0  0  0  0  0  0
   60.3854   80.9286  254.1984 N   0  0  0  0  0  4  0  0  0  0  0  0
   54.2399   81.7715  245.5466 O   0  0  0  0  0  0  0  0  0  0  0  0
   55.9295   82.4781  244.2691 O   0  0  0  0  0  0  0  0  0  0  0  0
  2  1  1  0
  1 15  1  0
  3  2  1  0
 14  3  1  0
  4  5  1  0
  4 14  1  0
  5  6  1  0
  6  7  1  0
  7  8  1  0
  8  9  1  0
  9 10  1  0
  9 16  1  1
  9 17  1  0
 10 11  1  6
 10 12  1  0
 10 13  1  0
M  CHG  2  14   1  15   1
M  END
$$$$
