
     RDKit          3D

 17 16  0  0  0  0  0  0  0  0999 V2000
   70.5859  108.1420  281.0017 C   0  0  0  0  0  0  0  0  0  0  0  0
   69.1247  108.4742  280.8398 C   0  0  0  0  0  0  0  0  0  0  0  0
   68.8188  108.8033  279.3810 C   0  0  0  0  0  0  0  0  0  0  0  0
   67.1590  108.5833  277.6667 C   0  0  0  0  0  0  0  0  0  0  0  0
   65.7316  108.1488  277.3912 C   0  0  0  0  0  0  0  0  0  0  0  0
   64.7836  109.3190  277.3752 C   0  0  0  0  0  0  0  0  0  0  0  0
   63.3586  108.8739  277.0734 C   0  0  0  0  0  0  0  0  0  0  0  0
   62.4559  110.0488  276.8379 C   0  0  0  0  0  0  0  0  0  0  0  0
   61.1069  109.6103  276.3979 C   0  0  1  0  0  0  0  0  0  0  0  0
   59.9443  110.3861  276.8925 C   0  0  1  0  0  0  0  0  0  0  0  0
   59.9353  111.7206  276.5821 F   0  0  0  0  0  0  0  0  0  0  0  0
   58.7577  109.8483  276.4231 F   0  0  0  0  0  0  0  0  0  0  0  0
   59.9349  110.3021  278.2849 F   0  0  0  0  0  0  0  0  0  0  0  0
   67.4334  108.6017  279.0772 N   0  0  0  0  0  4  0  0  0  0  0  0
   71.3087  109.3550  281.3015 N   0  0  0  0  0  4  0  0  0  0  0  0
   61.0630  109.6539  274.9939 O   0  0  0  0  0  0  0  0  0  0  0  0
   60.9266  108.2458  276.7216 O   0  0  0  0  0  0  0  0  0  0  0  0
  2  1  1  0
  1 15  1  0
  3  2  1  0
 14  3  1  0
  4  5  1  0
  4 14  1  0
  5  6  1  0
  6  7  1  0
  7  8  1  0
  8  9  1  0
  9 10  1  0
  9 16  1  6
  9 17  1  0
 10 11  1  1
 10 12  1  0
 10 13  1  0
M  CHG  2  14   1  15   1
M  END
$$$$
