
     RDKit          3D

 17 16  0  0  0  0  0  0  0  0999 V2000
   70.5778  107.3600  280.5050 C   0  0  0  0  0  0  0  0  0  0  0  0
   70.0910  108.4078  279.5371 C   0  0  0  0  0  0  0  0  0  0  0  0
   68.5779  108.3024  279.3652 C   0  0  0  0  0  0  0  0  0  0  0  0
   67.3383  108.8584  277.3913 C   0  0  0  0  0  0  0  0  0  0  0  0
   65.8632  108.7090  277.7138 C   0  0  0  0  0  0  0  0  0  0  0  0
   64.9943  109.3820  276.6840 C   0  0  0  0  0  0  0  0  0  0  0  0
   63.5169  109.2323  277.0221 C   0  0  0  0  0  0  0  0  0  0  0  0
   62.6482  109.8604  275.9725 C   0  0  0  0  0  0  0  0  0  0  0  0
   61.2312  109.4437  276.1277 C   0  0  1  0  0  0  0  0  0  0  0  0
   60.3390  110.3406  276.9010 C   0  0  1  0  0  0  0  0  0  0  0  0
   59.0170  109.9829  276.9443 F   0  0  0  0  0  0  0  0  0  0  0  0
   60.7744  110.4589  278.2102 F   0  0  0  0  0  0  0  0  0  0  0  0
   60.3895  111.6048  276.3137 F   0  0  0  0  0  0  0  0  0  0  0  0
   68.0714  109.3475  278.5265 N   0  0  0  0  0  4  0  0  0  0  0  0
   72.0166  107.4379  280.5906 N   0  0  0  0  0  4  0  0  0  0  0  0
   60.6672  109.3064  274.8478 O   0  0  0  0  0  0  0  0  0  0  0  0
   61.1807  108.1452  276.6847 O   0  0  0  0  0  0  0  0  0  0  0  0
  2  1  1  0
  1 15  1  0
  3  2  1  0
 14  3  1  0
  4  5  1  0
  4 14  1  0
  5  6  1  0
  6  7  1  0
  7  8  1  0
  8  9  1  0
  9 10  1  0
  9 16  1  6
  9 17  1  0
 10 11  1  1
 10 12  1  0
 10 13  1  0
M  CHG  2  14   1  15   1
M  END
$$$$
