
     RDKit          3D

 17 16  0  0  0  0  0  0  0  0999 V2000
   71.0901  109.1717  278.1116 C   0  0  0  0  0  0  0  0  0  0  0  0
   70.0191  108.1597  278.4288 C   0  0  0  0  0  0  0  0  0  0  0  0
   68.6432  108.8193  278.3859 C   0  0  0  0  0  0  0  0  0  0  0  0
   66.5249  107.8899  277.7605 C   0  0  0  0  0  0  0  0  0  0  0  0
   65.5637  109.0334  278.0267 C   0  0  0  0  0  0  0  0  0  0  0  0
   64.8211  109.4416  276.7816 C   0  0  0  0  0  0  0  0  0  0  0  0
   63.3334  109.1369  276.8985 C   0  0  0  0  0  0  0  0  0  0  0  0
   62.5102  110.1182  276.1174 C   0  0  0  0  0  0  0  0  0  0  0  0
   61.0777  109.7262  276.1026 C   0  0  1  0  0  0  0  0  0  0  0  0
   60.1165  110.6354  276.7715 C   0  0  1  0  0  0  0  0  0  0  0  0
   60.2626  110.7741  278.1269 F   0  0  0  0  0  0  0  0  0  0  0  0
   60.1749  111.9048  276.2213 F   0  0  0  0  0  0  0  0  0  0  0  0
   58.8329  110.1322  276.5598 F   0  0  0  0  0  0  0  0  0  0  0  0
   67.6045  107.8873  278.7091 N   0  0  0  0  0  4  0  0  0  0  0  0
   72.3426  108.7122  278.6627 N   0  0  0  0  0  4  0  0  0  0  0  0
   60.6657  109.6044  274.7645 O   0  0  0  0  0  0  0  0  0  0  0  0
   60.9398  108.4264  276.6415 O   0  0  0  0  0  0  0  0  0  0  0  0
  2  1  1  0
  1 15  1  0
  3  2  1  0
 14  3  1  0
  4  5  1  0
  4 14  1  0
  5  6  1  0
  6  7  1  0
  7  8  1  0
  8  9  1  0
  9 10  1  0
  9 16  1  6
  9 17  1  0
 10 11  1  1
 10 12  1  0
 10 13  1  0
M  CHG  2  14   1  15   1
M  END
$$$$
