
     RDKit          3D

 17 16  0  0  0  0  0  0  0  0999 V2000
   70.7077  108.3189  280.3540 C   0  0  0  0  0  0  0  0  0  0  0  0
   69.8447  107.5378  279.3964 C   0  0  0  0  0  0  0  0  0  0  0  0
   68.7104  108.4161  278.8748 C   0  0  0  0  0  0  0  0  0  0  0  0
   67.0976  108.6972  277.1250 C   0  0  0  0  0  0  0  0  0  0  0  0
   65.7362  108.3998  277.7255 C   0  0  0  0  0  0  0  0  0  0  0  0
   64.7728  109.5391  277.5197 C   0  0  0  0  0  0  0  0  0  0  0  0
   63.4589  109.0529  276.9223 C   0  0  0  0  0  0  0  0  0  0  0  0
   62.4408  110.1535  276.8690 C   0  0  0  0  0  0  0  0  0  0  0  0
   61.1764  109.6861  276.2457 C   0  0  1  0  0  0  0  0  0  0  0  0
   59.9718  110.5295  276.4355 C   0  0  1  0  0  0  0  0  0  0  0  0
   58.8202  110.0748  275.8484 F   0  0  0  0  0  0  0  0  0  0  0  0
   59.7025  110.7075  277.7821 F   0  0  0  0  0  0  0  0  0  0  0  0
   60.2339  111.7814  275.8788 F   0  0  0  0  0  0  0  0  0  0  0  0
   68.1130  107.8575  277.6986 N   0  0  0  0  0  4  0  0  0  0  0  0
   70.0603  108.3512  281.6438 N   0  0  0  0  0  4  0  0  0  0  0  0
   61.3823  109.5690  274.8604 O   0  0  0  0  0  0  0  0  0  0  0  0
   60.8955  108.3704  276.6805 O   0  0  0  0  0  0  0  0  0  0  0  0
  2  1  1  0
  1 15  1  0
  3  2  1  0
 14  3  1  0
  4  5  1  0
  4 14  1  0
  5  6  1  0
  6  7  1  0
  7  8  1  0
  8  9  1  0
  9 10  1  0
  9 16  1  6
  9 17  1  0
 10 11  1  6
 10 12  1  0
 10 13  1  0
M  CHG  2  14   1  15   1
M  END
$$$$
