
     RDKit          3D

 17 16  0  0  0  0  0  0  0  0999 V2000
   71.4251  108.0216  279.6843 C   0  0  0  0  0  0  0  0  0  0  0  0
   70.1637  107.5209  279.0284 C   0  0  0  0  0  0  0  0  0  0  0  0
   69.2024  108.6810  278.7836 C   0  0  0  0  0  0  0  0  0  0  0  0
   67.0064  109.2782  278.0333 C   0  0  0  0  0  0  0  0  0  0  0  0
   65.8001  108.7939  277.2506 C   0  0  0  0  0  0  0  0  0  0  0  0
   64.7958  109.8948  277.0324 C   0  0  0  0  0  0  0  0  0  0  0  0
   63.4062  109.3322  276.7636 C   0  0  0  0  0  0  0  0  0  0  0  0
   62.3899  110.4267  276.6220 C   0  0  0  0  0  0  0  0  0  0  0  0
   61.0659  109.8826  276.2263 C   0  0  1  0  0  0  0  0  0  0  0  0
   59.8630  110.6126  276.6938 C   0  0  1  0  0  0  0  0  0  0  0  0
   59.7025  110.7008  278.0517 F   0  0  0  0  0  0  0  0  0  0  0  0
   59.8458  111.9041  276.1945 F   0  0  0  0  0  0  0  0  0  0  0  0
   58.7402  109.9456  276.2035 F   0  0  0  0  0  0  0  0  0  0  0  0
   67.9784  108.2315  278.1901 N   0  0  0  0  0  4  0  0  0  0  0  0
   72.3158  106.9051  279.8934 N   0  0  0  0  0  4  0  0  0  0  0  0
   61.0041  109.8445  274.8228 O   0  0  0  0  0  0  0  0  0  0  0  0
   60.9737  108.5301  276.6277 O   0  0  0  0  0  0  0  0  0  0  0  0
  2  1  1  0
  1 15  1  0
  3  2  1  0
 14  3  1  0
  4  5  1  0
  4 14  1  0
  5  6  1  0
  6  7  1  0
  7  8  1  0
  8  9  1  0
  9 10  1  0
  9 16  1  6
  9 17  1  0
 10 11  1  1
 10 12  1  0
 10 13  1  0
M  CHG  2  14   1  15   1
M  END
$$$$
