
     RDKit          3D

 17 16  0  0  0  0  0  0  0  0999 V2000
   69.3988  107.7773  281.0153 C   0  0  0  0  0  0  0  0  0  0  0  0
   69.2988  107.8168  279.5119 C   0  0  0  0  0  0  0  0  0  0  0  0
   68.3456  108.9271  279.0774 C   0  0  0  0  0  0  0  0  0  0  0  0
   67.1232  108.3572  277.0967 C   0  0  0  0  0  0  0  0  0  0  0  0
   65.9961  109.3365  276.8268 C   0  0  0  0  0  0  0  0  0  0  0  0
   64.6533  108.7573  277.1873 C   0  0  0  0  0  0  0  0  0  0  0  0
   63.5180  109.5664  276.5739 C   0  0  0  0  0  0  0  0  0  0  0  0
   62.1923  108.8959  276.7828 C   0  0  0  0  0  0  0  0  0  0  0  0
   61.1580  109.4560  275.8762 C   0  0  1  0  0  0  0  0  0  0  0  0
   60.2218  110.4543  276.4463 C   0  0  1  0  0  0  0  0  0  0  0  0
   59.3088  110.9891  275.5757 F   0  0  0  0  0  0  0  0  0  0  0  0
   59.5108  109.9144  277.5049 F   0  0  0  0  0  0  0  0  0  0  0  0
   60.9777  111.5206  276.9337 F   0  0  0  0  0  0  0  0  0  0  0  0
   68.2696  109.0242  277.6501 N   0  0  0  0  0  4  0  0  0  0  0  0
   69.9599  106.5076  281.4113 N   0  0  0  0  0  4  0  0  0  0  0  0
   61.8060  110.0722  274.7921 O   0  0  0  0  0  0  0  0  0  0  0  0
   60.4160  108.3999  275.2990 O   0  0  0  0  0  0  0  0  0  0  0  0
  2  1  1  0
  1 15  1  0
  3  2  1  0
 14  3  1  0
  4  5  1  0
  4 14  1  0
  5  6  1  0
  6  7  1  0
  7  8  1  0
  8  9  1  0
  9 10  1  0
  9 16  1  6
  9 17  1  0
 10 11  1  6
 10 12  1  0
 10 13  1  0
M  CHG  2  14   1  15   1
M  END
$$$$
