
     RDKit          3D

 17 16  0  0  0  0  0  0  0  0999 V2000
   67.9201   90.1907  252.9050 C   0  0  0  0  0  0  0  0  0  0  0  0
   66.6513   90.9290  252.5631 C   0  0  0  0  0  0  0  0  0  0  0  0
   65.4971   90.4158  253.4201 C   0  0  0  0  0  0  0  0  0  0  0  0
   64.0717   91.7140  254.8432 C   0  0  0  0  0  0  0  0  0  0  0  0
   64.1523   93.0767  255.5056 C   0  0  0  0  0  0  0  0  0  0  0  0
   64.7775   92.9978  256.8736 C   0  0  0  0  0  0  0  0  0  0  0  0
   64.6746   94.3283  257.6076 C   0  0  0  0  0  0  0  0  0  0  0  0
   65.2619   94.2409  258.9853 C   0  0  0  0  0  0  0  0  0  0  0  0
   65.0634   95.5072  259.7355 C   0  0  1  0  0  0  0  0  0  0  0  0
   66.2424   96.0792  260.4290 C   0  0  1  0  0  0  0  0  0  0  0  0
   66.0481   97.2841  261.0519 F   0  0  0  0  0  0  0  0  0  0  0  0
   66.7282   95.1994  261.3816 F   0  0  0  0  0  0  0  0  0  0  0  0
   67.2425   96.2804  259.4778 F   0  0  0  0  0  0  0  0  0  0  0  0
   65.3807   91.1564  254.6408 N   0  0  0  0  0  4  0  0  0  0  0  0
   67.8838   88.8893  252.2814 N   0  0  0  0  0  4  0  0  0  0  0  0
   64.5992   96.4850  258.8390 O   0  0  0  0  0  0  0  0  0  0  0  0
   64.0115   95.3432  260.6658 O   0  0  0  0  0  0  0  0  0  0  0  0
  2  1  1  0
  1 15  1  0
  3  2  1  0
 14  3  1  0
  4  5  1  0
  4 14  1  0
  5  6  1  0
  6  7  1  0
  7  8  1  0
  8  9  1  0
  9 10  1  0
  9 16  1  6
  9 17  1  0
 10 11  1  1
 10 12  1  0
 10 13  1  0
M  CHG  2  14   1  15   1
M  END
$$$$
