
     RDKit          3D

 17 16  0  0  0  0  0  0  0  0999 V2000
   59.2793   72.6443  255.4587 C   0  0  0  0  0  0  0  0  0  0  0  0
   59.1087   72.4498  256.9436 C   0  0  0  0  0  0  0  0  0  0  0  0
   57.8778   73.2072  257.4350 C   0  0  0  0  0  0  0  0  0  0  0  0
   57.1799   75.4655  257.8286 C   0  0  0  0  0  0  0  0  0  0  0  0
   57.0215   74.8745  259.2171 C   0  0  0  0  0  0  0  0  0  0  0  0
   55.6448   75.1201  259.7762 C   0  0  0  0  0  0  0  0  0  0  0  0
   55.6864   76.1002  260.9413 C   0  0  0  0  0  0  0  0  0  0  0  0
   54.4150   76.8907  261.0380 C   0  0  0  0  0  0  0  0  0  0  0  0
   54.4302   77.7904  262.2195 C   0  0  1  0  0  0  0  0  0  0  0  0
   53.1266   78.1063  262.8510 C   0  0  1  0  0  0  0  0  0  0  0  0
   52.2147   78.7525  262.0583 F   0  0  0  0  0  0  0  0  0  0  0  0
   52.5167   76.9562  263.3232 F   0  0  0  0  0  0  0  0  0  0  0  0
   53.3701   78.9435  263.9398 F   0  0  0  0  0  0  0  0  0  0  0  0
   57.8644   74.5557  256.9517 N   0  0  0  0  0  4  0  0  0  0  0  0
   59.9325   73.9106  255.2271 N   0  0  0  0  0  4  0  0  0  0  0  0
   55.2366   77.2058  263.2110 O   0  0  0  0  0  0  0  0  0  0  0  0
   55.0885   78.9961  261.8847 O   0  0  0  0  0  0  0  0  0  0  0  0
  2  1  1  0
  1 15  1  0
  3  2  1  0
 14  3  1  0
  4  5  1  0
  4 14  1  0
  5  6  1  0
  6  7  1  0
  7  8  1  0
  8  9  1  0
  9 10  1  0
  9 16  1  1
  9 17  1  0
 10 11  1  6
 10 12  1  0
 10 13  1  0
M  CHG  2  14   1  15   1
M  END
$$$$
