
     RDKit          3D

 17 16  0  0  0  0  0  0  0  0999 V2000
   71.0574  107.0772  279.5428 C   0  0  0  0  0  0  0  0  0  0  0  0
   69.7626  107.8056  279.7974 C   0  0  0  0  0  0  0  0  0  0  0  0
   69.0941  108.1676  278.4738 C   0  0  0  0  0  0  0  0  0  0  0  0
   67.2190  109.2612  277.4588 C   0  0  0  0  0  0  0  0  0  0  0  0
   65.8337  108.6451  277.3964 C   0  0  0  0  0  0  0  0  0  0  0  0
   64.7534  109.6943  277.4130 C   0  0  0  0  0  0  0  0  0  0  0  0
   63.4683  109.1767  276.7803 C   0  0  0  0  0  0  0  0  0  0  0  0
   62.3767  110.2042  276.8381 C   0  0  0  0  0  0  0  0  0  0  0  0
   61.0929  109.6533  276.3339 C   0  0  1  0  0  0  0  0  0  0  0  0
   59.8477  110.3467  276.7424 C   0  0  1  0  0  0  0  0  0  0  0  0
   58.6808  109.8344  276.2390 F   0  0  0  0  0  0  0  0  0  0  0  0
   59.7249  110.3668  278.1215 F   0  0  0  0  0  0  0  0  0  0  0  0
   59.9269  111.6662  276.2972 F   0  0  0  0  0  0  0  0  0  0  0  0
   67.8881  108.9123  278.6819 N   0  0  0  0  0  4  0  0  0  0  0  0
   72.0835  107.6432  280.3857 N   0  0  0  0  0  4  0  0  0  0  0  0
   61.1277  109.6640  274.9290 O   0  0  0  0  0  0  0  0  0  0  0  0
   60.9987  108.2860  276.6813 O   0  0  0  0  0  0  0  0  0  0  0  0
  2  1  1  0
  1 15  1  0
  3  2  1  0
 14  3  1  0
  4  5  1  0
  4 14  1  0
  5  6  1  0
  6  7  1  0
  7  8  1  0
  8  9  1  0
  9 10  1  0
  9 16  1  6
  9 17  1  0
 10 11  1  6
 10 12  1  0
 10 13  1  0
M  CHG  2  14   1  15   1
M  END
$$$$
