
     RDKit          3D

 33 35  0  0  0  0  0  0  0  0999 V2000
  -23.3460   23.9230  -51.9438 N   0  0  0  0  0  0  0  0  0  0  0  0
  -27.4016   20.3092  -45.9089 N   0  0  0  0  0  0  0  0  0  0  0  0
  -25.4601   23.2756  -50.5849 C   0  0  0  0  0  0  0  0  0  0  0  0
  -27.0485   24.1928  -49.0834 C   0  0  0  0  0  0  0  0  0  0  0  0
  -26.2752   24.3137  -50.2619 C   0  0  0  0  0  0  0  0  0  0  0  0
  -25.4425   22.1566  -49.7172 C   0  0  0  0  0  0  0  0  0  0  0  0
  -26.1920   22.0522  -48.5818 C   0  0  0  0  0  0  0  0  0  0  0  0
  -26.3684   25.6215  -50.9866 C   0  0  0  0  0  0  0  0  0  0  0  0
  -29.6612   19.3381  -50.0816 C   0  0  1  0  0  0  0  0  0  0  0  0
  -30.1573   20.4527  -50.8657 C   0  0  0  0  0  0  0  0  0  0  0  0
  -29.4030   16.8549  -49.7932 C   0  0  0  0  0  0  0  0  0  0  0  0
  -31.4067   22.0786  -51.6685 C   0  0  0  0  0  0  0  0  0  0  0  0
  -30.2170   22.0091  -52.3587 C   0  0  0  0  0  0  0  0  0  0  0  0
  -29.8154   22.9105  -53.5007 C   0  0  0  0  0  0  0  0  0  0  0  0
  -24.5457   23.2977  -51.7002 C   0  0  0  0  0  0  0  0  0  0  0  0
  -27.2849   20.2807  -47.1876 C   0  0  0  0  0  0  0  0  0  0  0  0
  -28.3604   19.6411  -47.9012 C   0  0  0  0  0  0  0  0  0  0  0  0
  -29.6724   17.9925  -50.7448 C   0  0  2  0  0  0  0  0  0  0  0  0
  -28.6493   18.0015  -51.8614 C   0  0  0  0  0  0  0  0  0  0  0  0
  -31.0338   17.7762  -51.3718 C   0  0  0  0  0  0  0  0  0  0  0  0
  -31.3677   21.0868  -50.7184 C   0  0  0  0  0  0  0  0  0  0  0  0
  -22.7166   24.6468  -50.7858 C   0  0  0  0  0  0  0  0  0  0  0  0
  -22.5589   23.8833  -53.1379 C   0  0  0  0  0  0  0  0  0  0  0  0
  -27.0120   23.1029  -48.2694 C   0  0  0  0  0  0  0  0  0  0  0  0
  -26.1106   20.8797  -47.7926 N   0  0  0  0  0  0  0  0  0  0  0  0
  -29.3145   19.1715  -47.1779 N   0  0  0  0  0  0  0  0  0  0  0  0
  -28.4596   19.5021  -49.3422 N   0  0  0  0  0  0  0  0  0  0  0  0
  -25.0076   22.5371  -52.6948 O   0  0  0  0  0  0  0  0  0  0  0  0
  -24.6028   21.0862  -50.0429 O   0  0  0  0  0  0  0  0  0  0  0  0
  -28.6808   18.2727  -44.7458 O   0  0  0  0  0  0  0  0  0  0  0  0
  -29.8832   20.4440  -44.9061 O   0  0  0  0  0  0  0  0  0  0  0  0
  -29.5249   21.0424  -51.8495 O   0  0  0  0  0  0  0  0  0  0  0  0
  -28.8873   19.5230  -45.5504 S   0  0  1  0  0  6  0  0  0  0  0  0
 15  1  1  0
  1 22  1  0
  1 23  1  0
 16  2  2  0
 33  2  1  6
  3  5  2  0
  6  3  1  0
  3 15  1  0
  4  5  1  0
 24  4  2  0
  5  8  1  0
  7  6  2  0
  6 29  1  0
  7 24  1  0
 25  7  1  0
  9 10  1  0
  9 18  1  0
  9 27  1  6
 10 21  2  0
 10 32  1  0
 18 11  1  1
 13 12  2  0
 21 12  1  0
 13 14  1  0
 32 13  1  0
 15 28  2  0
 17 16  1  0
 16 25  1  0
 17 26  2  0
 17 27  1  0
 18 19  1  0
 18 20  1  0
 26 33  1  0
 33 30  2  0
 33 31  2  0
M  END
$$$$
