
     RDKit          3D

 33 35  0  0  0  0  0  0  0  0999 V2000
  -32.8714   19.3253  -52.1761 N   0  0  0  0  0  0  0  0  0  0  0  0
  -26.7618   19.9738  -47.8841 N   0  0  0  0  0  0  0  0  0  0  0  0
  -31.2209   18.7119  -50.2696 C   0  0  0  0  0  0  0  0  0  0  0  0
  -29.5108   17.4541  -49.2149 C   0  0  0  0  0  0  0  0  0  0  0  0
  -30.7235   17.4904  -49.9427 C   0  0  0  0  0  0  0  0  0  0  0  0
  -30.4927   19.8531  -49.8538 C   0  0  0  0  0  0  0  0  0  0  0  0
  -29.3244   19.8054  -49.1505 C   0  0  0  0  0  0  0  0  0  0  0  0
  -31.3842   16.1706  -50.1991 C   0  0  0  0  0  0  0  0  0  0  0  0
  -25.8088   24.4835  -49.4275 C   0  0  1  0  0  0  0  0  0  0  0  0
  -24.6583   24.1636  -50.2504 C   0  0  0  0  0  0  0  0  0  0  0  0
  -27.3639   25.6176  -51.0435 C   0  0  0  0  0  0  0  0  0  0  0  0
  -22.6402   24.1140  -51.1301 C   0  0  0  0  0  0  0  0  0  0  0  0
  -23.4607   23.2145  -51.7736 C   0  0  0  0  0  0  0  0  0  0  0  0
  -23.0489   22.3188  -52.9165 C   0  0  0  0  0  0  0  0  0  0  0  0
  -32.4920   18.9056  -50.9233 C   0  0  0  0  0  0  0  0  0  0  0  0
  -27.2731   21.0327  -48.4007 C   0  0  0  0  0  0  0  0  0  0  0  0
  -26.3835   22.1579  -48.5334 C   0  0  0  0  0  0  0  0  0  0  0  0
  -26.5566   25.7365  -49.7761 C   0  0  2  0  0  0  0  0  0  0  0  0
  -25.5608   26.8720  -49.8880 C   0  0  0  0  0  0  0  0  0  0  0  0
  -27.5013   26.0653  -48.6392 C   0  0  0  0  0  0  0  0  0  0  0  0
  -23.4040   24.7180  -50.1608 C   0  0  0  0  0  0  0  0  0  0  0  0
  -34.3491   19.4512  -52.4251 C   0  0  0  0  0  0  0  0  0  0  0  0
  -32.0332   19.7649  -53.2489 C   0  0  0  0  0  0  0  0  0  0  0  0
  -28.8316   18.5690  -48.8305 C   0  0  0  0  0  0  0  0  0  0  0  0
  -28.6678   21.0092  -48.7984 N   0  0  0  0  0  0  0  0  0  0  0  0
  -25.1795   21.9751  -48.1199 N   0  0  0  0  0  0  0  0  0  0  0  0
  -26.7255   23.4493  -49.1002 N   0  0  0  0  0  0  0  0  0  0  0  0
  -33.4923   18.6077  -50.0917 O   0  0  0  0  0  0  0  0  0  0  0  0
  -31.0017   21.1133  -50.1847 O   0  0  0  0  0  0  0  0  0  0  0  0
  -24.8283   20.3017  -46.0702 O   0  0  0  0  0  0  0  0  0  0  0  0
  -24.1589   19.5224  -48.3352 O   0  0  0  0  0  0  0  0  0  0  0  0
  -24.6279   23.2842  -51.2207 O   0  0  0  0  0  0  0  0  0  0  0  0
  -25.1220   20.3575  -47.5413 S   0  0  1  0  0  6  0  0  0  0  0  0
 15  1  1  0
  1 22  1  0
  1 23  1  0
 16  2  2  0
 33  2  1  1
  3  5  2  0
  6  3  1  0
  3 15  1  0
  4  5  1  0
 24  4  2  0
  5  8  1  0
  7  6  2  0
  6 29  1  0
  7 24  1  0
 25  7  1  0
  9 10  1  0
  9 18  1  0
  9 27  1  6
 10 21  2  0
 10 32  1  0
 18 11  1  6
 13 12  2  0
 21 12  1  0
 13 14  1  0
 32 13  1  0
 15 28  2  0
 17 16  1  0
 16 25  1  0
 17 26  2  0
 17 27  1  0
 18 19  1  0
 18 20  1  0
 26 33  1  0
 33 30  2  0
 33 31  2  0
M  END
$$$$
