
     RDKit          3D

 33 35  0  0  0  0  0  0  0  0999 V2000
  -22.7908   24.3335  -51.7982 N   0  0  0  0  0  0  0  0  0  0  0  0
  -27.1899   20.6487  -46.8991 N   0  0  0  0  0  0  0  0  0  0  0  0
  -24.4010   23.9719  -49.7953 C   0  0  0  0  0  0  0  0  0  0  0  0
  -24.7332   23.8719  -47.4504 C   0  0  0  0  0  0  0  0  0  0  0  0
  -24.2971   24.5891  -48.5892 C   0  0  0  0  0  0  0  0  0  0  0  0
  -24.9318   22.6592  -49.8205 C   0  0  0  0  0  0  0  0  0  0  0  0
  -25.3478   21.9767  -48.7146 C   0  0  0  0  0  0  0  0  0  0  0  0
  -23.6769   25.9286  -48.3335 C   0  0  0  0  0  0  0  0  0  0  0  0
  -29.2738   18.7598  -50.7763 C   0  0  1  0  0  0  0  0  0  0  0  0
  -29.1637   19.3192  -52.1097 C   0  0  0  0  0  0  0  0  0  0  0  0
  -31.4069   17.4764  -51.1221 C   0  0  0  0  0  0  0  0  0  0  0  0
  -28.6309   19.6588  -54.2192 C   0  0  0  0  0  0  0  0  0  0  0  0
  -29.4610   20.6624  -53.7718 C   0  0  0  0  0  0  0  0  0  0  0  0
  -29.9433   21.8304  -54.5972 C   0  0  0  0  0  0  0  0  0  0  0  0
  -23.9093   24.5405  -51.0263 C   0  0  0  0  0  0  0  0  0  0  0  0
  -27.0424   20.2348  -48.1059 C   0  0  0  0  0  0  0  0  0  0  0  0
  -28.0745   19.3593  -48.5991 C   0  0  0  0  0  0  0  0  0  0  0  0
  -29.9732   17.4378  -50.6580 C   0  0  2  0  0  0  0  0  0  0  0  0
  -29.8964   16.9839  -49.2153 C   0  0  0  0  0  0  0  0  0  0  0  0
  -29.2281   16.4222  -51.4987 C   0  0  0  0  0  0  0  0  0  0  0  0
  -28.4420   18.8044  -53.1599 C   0  0  0  0  0  0  0  0  0  0  0  0
  -22.7564   25.0256  -53.1328 C   0  0  0  0  0  0  0  0  0  0  0  0
  -21.5978   23.6258  -51.4480 C   0  0  0  0  0  0  0  0  0  0  0  0
  -25.2415   22.6107  -47.5060 C   0  0  0  0  0  0  0  0  0  0  0  0
  -25.8792   20.6719  -48.8540 N   0  0  0  0  0  0  0  0  0  0  0  0
  -29.0257   19.0914  -47.7760 N   0  0  0  0  0  0  0  0  0  0  0  0
  -28.1345   18.7808  -49.9286 N   0  0  0  0  0  0  0  0  0  0  0  0
  -24.7513   25.4730  -51.4762 O   0  0  0  0  0  0  0  0  0  0  0  0
  -25.0382   22.0176  -51.0590 O   0  0  0  0  0  0  0  0  0  0  0  0
  -28.4135   19.0112  -45.1792 O   0  0  0  0  0  0  0  0  0  0  0  0
  -29.6977   20.9720  -46.0109 O   0  0  0  0  0  0  0  0  0  0  0  0
  -29.7417   20.4155  -52.5336 O   0  0  0  0  0  0  0  0  0  0  0  0
  -28.6510   19.9439  -46.3312 S   0  0  1  0  0  6  0  0  0  0  0  0
 15  1  1  0
  1 22  1  0
  1 23  1  0
 16  2  2  0
 33  2  1  6
  3  5  2  0
  6  3  1  0
  3 15  1  0
  4  5  1  0
 24  4  2  0
  5  8  1  0
  7  6  2  0
  6 29  1  0
  7 24  1  0
 25  7  1  0
  9 10  1  0
  9 18  1  0
  9 27  1  6
 10 21  2  0
 10 32  1  0
 18 11  1  6
 13 12  2  0
 21 12  1  0
 13 14  1  0
 32 13  1  0
 15 28  2  0
 17 16  1  0
 16 25  1  0
 17 26  2  0
 17 27  1  0
 18 19  1  0
 18 20  1  0
 26 33  1  0
 33 30  2  0
 33 31  2  0
M  END
$$$$
