
     RDKit          3D

 33 35  0  0  0  0  0  0  0  0999 V2000
  -26.5119   24.2886  -52.9877 N   0  0  0  0  0  0  0  0  0  0  0  0
  -26.1254   20.7130  -46.6252 N   0  0  0  0  0  0  0  0  0  0  0  0
  -24.9518   23.9319  -50.9447 C   0  0  0  0  0  0  0  0  0  0  0  0
  -23.9677   24.5091  -48.8669 C   0  0  0  0  0  0  0  0  0  0  0  0
  -24.3619   24.8824  -50.1733 C   0  0  0  0  0  0  0  0  0  0  0  0
  -25.1222   22.6419  -50.3861 C   0  0  0  0  0  0  0  0  0  0  0  0
  -24.7363   22.2931  -49.1247 C   0  0  0  0  0  0  0  0  0  0  0  0
  -24.0020   26.2712  -50.6045 C   0  0  0  0  0  0  0  0  0  0  0  0
  -28.8934   19.5189  -50.4437 C   0  0  1  0  0  0  0  0  0  0  0  0
  -29.5887   20.2945  -51.4528 C   0  0  0  0  0  0  0  0  0  0  0  0
  -27.7573   17.7469  -51.8168 C   0  0  0  0  0  0  0  0  0  0  0  0
  -31.1308   21.3791  -52.5905 C   0  0  0  0  0  0  0  0  0  0  0  0
  -29.9244   21.4363  -53.2523 C   0  0  0  0  0  0  0  0  0  0  0  0
  -29.6811   22.1377  -54.5665 C   0  0  0  0  0  0  0  0  0  0  0  0
  -25.3171   24.1396  -52.3245 C   0  0  0  0  0  0  0  0  0  0  0  0
  -26.1599   20.6302  -47.9064 C   0  0  0  0  0  0  0  0  0  0  0  0
  -27.4096   20.1913  -48.4728 C   0  0  0  0  0  0  0  0  0  0  0  0
  -28.7379   18.0513  -50.7132 C   0  0  2  0  0  0  0  0  0  0  0  0
  -30.1006   17.4791  -51.0438 C   0  0  0  0  0  0  0  0  0  0  0  0
  -28.2528   17.3781  -49.4464 C   0  0  0  0  0  0  0  0  0  0  0  0
  -30.9158   20.6514  -51.4451 C   0  0  0  0  0  0  0  0  0  0  0  0
  -26.5223   23.9240  -54.4465 C   0  0  0  0  0  0  0  0  0  0  0  0
  -27.7844   24.6461  -52.4401 C   0  0  0  0  0  0  0  0  0  0  0  0
  -24.1467   23.2604  -48.3562 C   0  0  0  0  0  0  0  0  0  0  0  0
  -24.9690   20.9768  -48.6584 N   0  0  0  0  0  0  0  0  0  0  0  0
  -28.3480   19.9323  -47.6324 N   0  0  0  0  0  0  0  0  0  0  0  0
  -27.6938   20.0375  -49.8875 N   0  0  0  0  0  0  0  0  0  0  0  0
  -24.2265   24.1830  -53.0924 O   0  0  0  0  0  0  0  0  0  0  0  0
  -25.7260   21.6585  -51.1768 O   0  0  0  0  0  0  0  0  0  0  0  0
  -27.6267   18.9904  -45.2414 O   0  0  0  0  0  0  0  0  0  0  0  0
  -28.4092   21.3475  -45.3747 O   0  0  0  0  0  0  0  0  0  0  0  0
  -29.0584   20.7868  -52.5446 O   0  0  0  0  0  0  0  0  0  0  0  0
  -27.6829   20.2363  -46.0768 S   0  0  1  0  0  6  0  0  0  0  0  0
 15  1  1  0
  1 22  1  0
  1 23  1  0
 16  2  2  0
 33  2  1  6
  3  5  2  0
  6  3  1  0
  3 15  1  0
  4  5  1  0
 24  4  2  0
  5  8  1  0
  7  6  2  0
  6 29  1  0
  7 24  1  0
 25  7  1  0
  9 10  1  0
  9 18  1  0
  9 27  1  6
 10 21  2  0
 10 32  1  0
 18 11  1  6
 13 12  2  0
 21 12  1  0
 13 14  1  0
 32 13  1  0
 15 28  2  0
 17 16  1  0
 16 25  1  0
 17 26  2  0
 17 27  1  0
 18 19  1  0
 18 20  1  0
 26 33  1  0
 33 30  2  0
 33 31  2  0
M  END
$$$$
