
     RDKit          3D

 33 35  0  0  0  0  0  0  0  0999 V2000
  -32.9036   18.7865  -52.7356 N   0  0  0  0  0  0  0  0  0  0  0  0
  -27.4011   19.9847  -47.8038 N   0  0  0  0  0  0  0  0  0  0  0  0
  -31.0392   18.2181  -51.0221 C   0  0  0  0  0  0  0  0  0  0  0  0
  -30.3989   17.6038  -48.8240 C   0  0  0  0  0  0  0  0  0  0  0  0
  -31.1397   17.3307  -49.9980 C   0  0  0  0  0  0  0  0  0  0  0  0
  -30.2069   19.3486  -50.8356 C   0  0  0  0  0  0  0  0  0  0  0  0
  -29.4983   19.6022  -49.6974 C   0  0  0  0  0  0  0  0  0  0  0  0
  -32.0353   16.1306  -49.9544 C   0  0  0  0  0  0  0  0  0  0  0  0
  -25.0263   23.1435  -50.5886 C   0  0  1  0  0  0  0  0  0  0  0  0
  -24.8905   23.1694  -52.0322 C   0  0  0  0  0  0  0  0  0  0  0  0
  -23.1452   24.7706  -50.2277 C   0  0  0  0  0  0  0  0  0  0  0  0
  -24.1038   22.9997  -54.0819 C   0  0  0  0  0  0  0  0  0  0  0  0
  -25.4067   23.4452  -54.1088 C   0  0  0  0  0  0  0  0  0  0  0  0
  -26.1926   23.7724  -55.3552 C   0  0  0  0  0  0  0  0  0  0  0  0
  -31.8081   18.1212  -52.2386 C   0  0  0  0  0  0  0  0  0  0  0  0
  -27.4934   20.8004  -48.7915 C   0  0  0  0  0  0  0  0  0  0  0  0
  -26.3778   21.6936  -48.9733 C   0  0  0  0  0  0  0  0  0  0  0  0
  -24.5429   24.3545  -49.8465 C   0  0  2  0  0  0  0  0  0  0  0  0
  -24.6231   24.0686  -48.3615 C   0  0  0  0  0  0  0  0  0  0  0  0
  -25.4800   25.5065  -50.1430 C   0  0  0  0  0  0  0  0  0  0  0  0
  -23.7762   22.8249  -52.7591 C   0  0  0  0  0  0  0  0  0  0  0  0
  -33.3554   18.4013  -54.1172 C   0  0  0  0  0  0  0  0  0  0  0  0
  -33.7420   19.7293  -52.0611 C   0  0  0  0  0  0  0  0  0  0  0  0
  -29.6050   18.6989  -48.6744 C   0  0  0  0  0  0  0  0  0  0  0  0
  -28.6819   20.7563  -49.6217 N   0  0  0  0  0  0  0  0  0  0  0  0
  -25.4170   21.5732  -48.1269 N   0  0  0  0  0  0  0  0  0  0  0  0
  -26.2465   22.6863  -50.0236 N   0  0  0  0  0  0  0  0  0  0  0  0
  -31.3195   17.1573  -53.0215 O   0  0  0  0  0  0  0  0  0  0  0  0
  -30.1021   20.2672  -51.8852 O   0  0  0  0  0  0  0  0  0  0  0  0
  -26.0542   20.8104  -45.6496 O   0  0  0  0  0  0  0  0  0  0  0  0
  -24.9464   19.1467  -47.1298 O   0  0  0  0  0  0  0  0  0  0  0  0
  -25.8178   23.5268  -52.8853 O   0  0  0  0  0  0  0  0  0  0  0  0
  -25.8888   20.3137  -47.0565 S   0  0  1  0  0  6  0  0  0  0  0  0
 15  1  1  0
  1 22  1  0
  1 23  1  0
 16  2  2  0
 33  2  1  6
  3  5  2  0
  6  3  1  0
  3 15  1  0
  4  5  1  0
 24  4  2  0
  5  8  1  0
  7  6  2  0
  6 29  1  0
  7 24  1  0
 25  7  1  0
  9 10  1  0
  9 18  1  0
  9 27  1  6
 10 21  2  0
 10 32  1  0
 18 11  1  6
 13 12  2  0
 21 12  1  0
 13 14  1  0
 32 13  1  0
 15 28  2  0
 17 16  1  0
 16 25  1  0
 17 26  2  0
 17 27  1  0
 18 19  1  0
 18 20  1  0
 26 33  1  0
 33 30  2  0
 33 31  2  0
M  END
$$$$
