
     RDKit          3D

 33 35  0  0  0  0  0  0  0  0999 V2000
  -22.0287   24.7029  -49.3475 N   0  0  0  0  0  0  0  0  0  0  0  0
  -27.3938   21.1184  -48.2644 N   0  0  0  0  0  0  0  0  0  0  0  0
  -24.3188   24.3074  -50.5027 C   0  0  0  0  0  0  0  0  0  0  0  0
  -26.6301   24.8285  -50.5736 C   0  0  0  0  0  0  0  0  0  0  0  0
  -25.2833   25.2618  -50.5734 C   0  0  0  0  0  0  0  0  0  0  0  0
  -24.7333   22.9553  -50.4297 C   0  0  0  0  0  0  0  0  0  0  0  0
  -26.0361   22.5495  -50.4290 C   0  0  0  0  0  0  0  0  0  0  0  0
  -25.0621   26.7434  -50.5586 C   0  0  0  0  0  0  0  0  0  0  0  0
  -29.6657   18.6247  -51.6864 C   0  0  1  0  0  0  0  0  0  0  0  0
  -30.5630   19.7040  -52.0515 C   0  0  0  0  0  0  0  0  0  0  0  0
  -28.7250   16.3472  -52.1807 C   0  0  0  0  0  0  0  0  0  0  0  0
  -32.3532   20.9500  -52.3539 C   0  0  0  0  0  0  0  0  0  0  0  0
  -31.2360   21.6014  -52.8273 C   0  0  0  0  0  0  0  0  0  0  0  0
  -31.2264   22.9705  -53.4625 C   0  0  0  0  0  0  0  0  0  0  0  0
  -22.9111   24.6036  -50.3969 C   0  0  0  0  0  0  0  0  0  0  0  0
  -27.3383   20.6431  -49.4563 C   0  0  0  0  0  0  0  0  0  0  0  0
  -28.2975   19.6140  -49.7662 C   0  0  0  0  0  0  0  0  0  0  0  0
  -29.4407   17.5598  -52.7189 C   0  0  2  0  0  0  0  0  0  0  0  0
  -28.6633   18.1656  -53.8688 C   0  0  0  0  0  0  0  0  0  0  0  0
  -30.7859   17.1188  -53.2566 C   0  0  0  0  0  0  0  0  0  0  0  0
  -31.9235   19.7418  -51.8607 C   0  0  0  0  0  0  0  0  0  0  0  0
  -22.5726   24.3975  -47.9793 C   0  0  0  0  0  0  0  0  0  0  0  0
  -20.6217   24.9565  -49.4012 C   0  0  0  0  0  0  0  0  0  0  0  0
  -26.9984   23.5202  -50.5044 C   0  0  0  0  0  0  0  0  0  0  0  0
  -26.3408   21.1683  -50.3689 N   0  0  0  0  0  0  0  0  0  0  0  0
  -29.0998   19.2879  -48.8153 N   0  0  0  0  0  0  0  0  0  0  0  0
  -28.4391   18.9415  -51.0443 N   0  0  0  0  0  0  0  0  0  0  0  0
  -22.3923   24.8322  -51.6050 O   0  0  0  0  0  0  0  0  0  0  0  0
  -23.7448   21.9685  -50.3535 O   0  0  0  0  0  0  0  0  0  0  0  0
  -28.1763   19.4652  -46.3173 O   0  0  0  0  0  0  0  0  0  0  0  0
  -29.7980   21.1886  -47.0823 O   0  0  0  0  0  0  0  0  0  0  0  0
  -30.2181   20.8293  -52.6262 O   0  0  0  0  0  0  0  0  0  0  0  0
  -28.6707   20.2788  -47.4779 S   0  0  1  0  0  6  0  0  0  0  0  0
 15  1  1  0
  1 22  1  0
  1 23  1  0
 16  2  2  0
 33  2  1  6
  3  5  2  0
  6  3  1  0
  3 15  1  0
  4  5  1  0
 24  4  2  0
  5  8  1  0
  7  6  2  0
  6 29  1  0
  7 24  1  0
 25  7  1  0
  9 10  1  0
  9 18  1  0
  9 27  1  6
 10 21  2  0
 10 32  1  0
 18 11  1  1
 13 12  2  0
 21 12  1  0
 13 14  1  0
 32 13  1  0
 15 28  2  0
 17 16  1  0
 16 25  1  0
 17 26  2  0
 17 27  1  0
 18 19  1  0
 18 20  1  0
 26 33  1  0
 33 30  2  0
 33 31  2  0
M  END
$$$$
