
     RDKit          3D

 33 35  0  0  0  0  0  0  0  0999 V2000
  -31.1954   19.4510  -44.1790 N   0  0  0  0  0  0  0  0  0  0  0  0
  -27.1529   20.0987  -47.8082 N   0  0  0  0  0  0  0  0  0  0  0  0
  -31.3150   20.4846  -46.5565 C   0  0  0  0  0  0  0  0  0  0  0  0
  -31.7329   20.0584  -48.8505 C   0  0  0  0  0  0  0  0  0  0  0  0
  -32.1384   19.9555  -47.4991 C   0  0  0  0  0  0  0  0  0  0  0  0
  -30.1142   21.0927  -46.9966 C   0  0  0  0  0  0  0  0  0  0  0  0
  -29.7329   21.1845  -48.3035 C   0  0  0  0  0  0  0  0  0  0  0  0
  -33.3982   19.1874  -47.2401 C   0  0  0  0  0  0  0  0  0  0  0  0
  -24.8254   22.8879  -51.0269 C   0  0  1  0  0  0  0  0  0  0  0  0
  -25.1193   22.8346  -52.4460 C   0  0  0  0  0  0  0  0  0  0  0  0
  -24.6624   25.3428  -50.5140 C   0  0  0  0  0  0  0  0  0  0  0  0
  -25.1033   23.1859  -54.6198 C   0  0  0  0  0  0  0  0  0  0  0  0
  -26.0539   22.2427  -54.2984 C   0  0  0  0  0  0  0  0  0  0  0  0
  -26.9589   21.5434  -55.2832 C   0  0  0  0  0  0  0  0  0  0  0  0
  -31.5501   20.3697  -45.1381 C   0  0  0  0  0  0  0  0  0  0  0  0
  -27.2393   21.1491  -48.5422 C   0  0  0  0  0  0  0  0  0  0  0  0
  -26.0272   21.5486  -49.2103 C   0  0  0  0  0  0  0  0  0  0  0  0
  -23.9504   24.0152  -50.5638 C   0  0  2  0  0  0  0  0  0  0  0  0
  -22.7476   24.0942  -51.4807 C   0  0  0  0  0  0  0  0  0  0  0  0
  -23.4463   23.6930  -49.1727 C   0  0  0  0  0  0  0  0  0  0  0  0
  -24.5093   23.5624  -53.4395 C   0  0  0  0  0  0  0  0  0  0  0  0
  -30.4298   18.2460  -44.6514 C   0  0  0  0  0  0  0  0  0  0  0  0
  -31.3679   19.5463  -42.7620 C   0  0  0  0  0  0  0  0  0  0  0  0
  -30.5727   20.6511  -49.2438 C   0  0  0  0  0  0  0  0  0  0  0  0
  -28.5171   21.8290  -48.6361 N   0  0  0  0  0  0  0  0  0  0  0  0
  -24.9970   20.8091  -48.9964 N   0  0  0  0  0  0  0  0  0  0  0  0
  -25.8828   22.6855  -50.1005 N   0  0  0  0  0  0  0  0  0  0  0  0
  -32.2826   21.3973  -44.7039 O   0  0  0  0  0  0  0  0  0  0  0  0
  -29.2610   21.6363  -46.0305 O   0  0  0  0  0  0  0  0  0  0  0  0
  -24.8120   19.6248  -46.6115 O   0  0  0  0  0  0  0  0  0  0  0  0
  -25.4091   18.2109  -48.5685 O   0  0  0  0  0  0  0  0  0  0  0  0
  -26.0214   22.0752  -53.0163 O   0  0  0  0  0  0  0  0  0  0  0  0
  -25.5234   19.5662  -47.9320 S   0  0  1  0  0  6  0  0  0  0  0  0
 15  1  1  0
  1 22  1  0
  1 23  1  0
 16  2  2  0
 33  2  1  1
  3  5  2  0
  6  3  1  0
  3 15  1  0
  4  5  1  0
 24  4  2  0
  5  8  1  0
  7  6  2  0
  6 29  1  0
  7 24  1  0
 25  7  1  0
  9 10  1  0
  9 18  1  0
  9 27  1  1
 10 21  2  0
 10 32  1  0
 18 11  1  1
 13 12  2  0
 21 12  1  0
 13 14  1  0
 32 13  1  0
 15 28  2  0
 17 16  1  0
 16 25  1  0
 17 26  2  0
 17 27  1  0
 18 19  1  0
 18 20  1  0
 26 33  1  0
 33 30  2  0
 33 31  2  0
M  END
$$$$
