
     RDKit          3D

 33 35  0  0  0  0  0  0  0  0999 V2000
  -24.8931   25.6013  -51.6747 N   0  0  0  0  0  0  0  0  0  0  0  0
  -27.1999   20.1729  -46.4356 N   0  0  0  0  0  0  0  0  0  0  0  0
  -24.4910   23.3387  -50.4687 C   0  0  0  0  0  0  0  0  0  0  0  0
  -23.3653   21.6896  -49.1912 C   0  0  0  0  0  0  0  0  0  0  0  0
  -23.3578   22.6193  -50.2575 C   0  0  0  0  0  0  0  0  0  0  0  0
  -25.5925   23.1005  -49.6111 C   0  0  0  0  0  0  0  0  0  0  0  0
  -25.5883   22.1995  -48.5864 C   0  0  0  0  0  0  0  0  0  0  0  0
  -22.1231   22.6476  -51.1055 C   0  0  0  0  0  0  0  0  0  0  0  0
  -29.6426   20.1083  -50.6202 C   0  0  1  0  0  0  0  0  0  0  0  0
  -30.4455   21.1154  -51.2868 C   0  0  0  0  0  0  0  0  0  0  0  0
  -30.4437   18.3545  -52.2324 C   0  0  0  0  0  0  0  0  0  0  0  0
  -32.1326   22.3329  -52.0081 C   0  0  0  0  0  0  0  0  0  0  0  0
  -30.9462   22.8221  -52.5079 C   0  0  0  0  0  0  0  0  0  0  0  0
  -30.8086   24.0183  -53.4181 C   0  0  0  0  0  0  0  0  0  0  0  0
  -24.6619   24.2500  -51.5736 C   0  0  0  0  0  0  0  0  0  0  0  0
  -27.3667   20.7602  -47.5656 C   0  0  0  0  0  0  0  0  0  0  0  0
  -28.1784   20.0556  -48.5247 C   0  0  0  0  0  0  0  0  0  0  0  0
  -29.2909   18.8903  -51.4224 C   0  0  2  0  0  0  0  0  0  0  0  0
  -28.7709   17.8284  -50.4760 C   0  0  0  0  0  0  0  0  0  0  0  0
  -28.1672   19.2477  -52.3726 C   0  0  0  0  0  0  0  0  0  0  0  0
  -31.8124   21.2459  -51.2311 C   0  0  0  0  0  0  0  0  0  0  0  0
  -25.1915   26.1323  -53.0495 C   0  0  0  0  0  0  0  0  0  0  0  0
  -24.9938   26.5589  -50.6165 C   0  0  0  0  0  0  0  0  0  0  0  0
  -24.4396   21.4837  -48.3816 C   0  0  0  0  0  0  0  0  0  0  0  0
  -26.7408   22.0513  -47.7777 N   0  0  0  0  0  0  0  0  0  0  0  0
  -28.6436   18.9195  -48.1413 N   0  0  0  0  0  0  0  0  0  0  0  0
  -28.5202   20.5232  -49.8552 N   0  0  0  0  0  0  0  0  0  0  0  0
  -24.5770   23.5951  -52.7333 O   0  0  0  0  0  0  0  0  0  0  0  0
  -26.7629   23.8359  -49.8258 O   0  0  0  0  0  0  0  0  0  0  0  0
  -27.1619   17.5017  -46.4327 O   0  0  0  0  0  0  0  0  0  0  0  0
  -29.1996   18.6230  -45.5516 O   0  0  0  0  0  0  0  0  0  0  0  0
  -29.9928   22.0742  -52.0558 O   0  0  0  0  0  0  0  0  0  0  0  0
  -28.0687   18.6934  -46.5372 S   0  0  1  0  0  6  0  0  0  0  0  0
 15  1  1  0
  1 22  1  0
  1 23  1  0
 16  2  2  0
 33  2  1  1
  3  5  2  0
  6  3  1  0
  3 15  1  0
  4  5  1  0
 24  4  2  0
  5  8  1  0
  7  6  2  0
  6 29  1  0
  7 24  1  0
 25  7  1  0
  9 10  1  0
  9 18  1  0
  9 27  1  6
 10 21  2  0
 10 32  1  0
 18 11  1  6
 13 12  2  0
 21 12  1  0
 13 14  1  0
 32 13  1  0
 15 28  2  0
 17 16  1  0
 16 25  1  0
 17 26  2  0
 17 27  1  0
 18 19  1  0
 18 20  1  0
 26 33  1  0
 33 30  2  0
 33 31  2  0
M  END
$$$$
