
     RDKit          3D

 33 35  0  0  0  0  0  0  0  0999 V2000
  -22.7145   24.4081  -52.1241 N   0  0  0  0  0  0  0  0  0  0  0  0
  -27.4096   20.6411  -47.5503 N   0  0  0  0  0  0  0  0  0  0  0  0
  -23.9005   23.5062  -49.9991 C   0  0  0  0  0  0  0  0  0  0  0  0
  -25.1363   23.8104  -47.9994 C   0  0  0  0  0  0  0  0  0  0  0  0
  -24.0935   24.2237  -48.8615 C   0  0  0  0  0  0  0  0  0  0  0  0
  -24.7520   22.3991  -50.2327 C   0  0  0  0  0  0  0  0  0  0  0  0
  -25.7539   22.0089  -49.3925 C   0  0  0  0  0  0  0  0  0  0  0  0
  -23.2463   25.3621  -48.3812 C   0  0  0  0  0  0  0  0  0  0  0  0
  -30.1427   18.5255  -50.9240 C   0  0  1  0  0  0  0  0  0  0  0  0
  -31.2106   19.5047  -50.8612 C   0  0  0  0  0  0  0  0  0  0  0  0
  -29.4582   18.5674  -53.3419 C   0  0  0  0  0  0  0  0  0  0  0  0
  -33.1538   20.4918  -50.5473 C   0  0  0  0  0  0  0  0  0  0  0  0
  -32.2348   21.3959  -51.0317 C   0  0  0  0  0  0  0  0  0  0  0  0
  -32.5069   22.8541  -51.3106 C   0  0  0  0  0  0  0  0  0  0  0  0
  -22.8187   23.7506  -50.9213 C   0  0  0  0  0  0  0  0  0  0  0  0
  -27.4984   20.3151  -48.7894 C   0  0  0  0  0  0  0  0  0  0  0  0
  -28.5485   19.3859  -49.1195 C   0  0  0  0  0  0  0  0  0  0  0  0
  -30.0149   17.7518  -52.2030 C   0  0  2  0  0  0  0  0  0  0  0  0
  -31.3774   17.1987  -52.5651 C   0  0  0  0  0  0  0  0  0  0  0  0
  -29.0913   16.5758  -51.9639 C   0  0  0  0  0  0  0  0  0  0  0  0
  -32.5006   19.2879  -50.4397 C   0  0  0  0  0  0  0  0  0  0  0  0
  -23.9075   25.2153  -52.5557 C   0  0  0  0  0  0  0  0  0  0  0  0
  -21.5685   24.5121  -52.9742 C   0  0  0  0  0  0  0  0  0  0  0  0
  -25.9406   22.7421  -48.2516 C   0  0  0  0  0  0  0  0  0  0  0  0
  -26.5588   20.8944  -49.7303 N   0  0  0  0  0  0  0  0  0  0  0  0
  -29.2773   18.9885  -48.1372 N   0  0  0  0  0  0  0  0  0  0  0  0
  -28.8543   18.8858  -50.4469 N   0  0  0  0  0  0  0  0  0  0  0  0
  -21.6920   23.1926  -50.4741 O   0  0  0  0  0  0  0  0  0  0  0  0
  -24.5559   21.6547  -51.4007 O   0  0  0  0  0  0  0  0  0  0  0  0
  -28.1126   18.8042  -45.7426 O   0  0  0  0  0  0  0  0  0  0  0  0
  -29.6816   20.6947  -46.1299 O   0  0  0  0  0  0  0  0  0  0  0  0
  -31.1169   20.7670  -51.1977 O   0  0  0  0  0  0  0  0  0  0  0  0
  -28.6593   19.7810  -46.7427 S   0  0  1  0  0  6  0  0  0  0  0  0
 15  1  1  0
  1 22  1  0
  1 23  1  0
 16  2  2  0
 33  2  1  6
  3  5  2  0
  6  3  1  0
  3 15  1  0
  4  5  1  0
 24  4  2  0
  5  8  1  0
  7  6  2  0
  6 29  1  0
  7 24  1  0
 25  7  1  0
  9 10  1  0
  9 18  1  0
  9 27  1  6
 10 21  2  0
 10 32  1  0
 18 11  1  6
 13 12  2  0
 21 12  1  0
 13 14  1  0
 32 13  1  0
 15 28  2  0
 17 16  1  0
 16 25  1  0
 17 26  2  0
 17 27  1  0
 18 19  1  0
 18 20  1  0
 26 33  1  0
 33 30  2  0
 33 31  2  0
M  END
$$$$
