
     RDKit          3D

 33 35  0  0  0  0  0  0  0  0999 V2000
  -22.3013   24.2974  -50.1241 N   0  0  0  0  0  0  0  0  0  0  0  0
  -28.1104   21.7351  -48.0847 N   0  0  0  0  0  0  0  0  0  0  0  0
  -24.8812   24.4570  -49.8916 C   0  0  0  0  0  0  0  0  0  0  0  0
  -27.0144   25.3490  -50.4137 C   0  0  0  0  0  0  0  0  0  0  0  0
  -25.6467   25.5566  -50.1175 C   0  0  0  0  0  0  0  0  0  0  0  0
  -25.5096   23.1900  -49.9644 C   0  0  0  0  0  0  0  0  0  0  0  0
  -26.8307   23.0023  -50.2494 C   0  0  0  0  0  0  0  0  0  0  0  0
  -25.2028   26.9821  -49.9931 C   0  0  0  0  0  0  0  0  0  0  0  0
  -29.8668   18.1057  -50.7015 C   0  0  1  0  0  0  0  0  0  0  0  0
  -30.3957   18.2571  -52.0433 C   0  0  0  0  0  0  0  0  0  0  0  0
  -29.0072   16.6191  -48.8664 C   0  0  0  0  0  0  0  0  0  0  0  0
  -31.7343   18.3135  -53.7908 C   0  0  0  0  0  0  0  0  0  0  0  0
  -30.4568   18.6719  -54.1597 C   0  0  0  0  0  0  0  0  0  0  0  0
  -30.0241   19.0510  -55.5551 C   0  0  0  0  0  0  0  0  0  0  0  0
  -23.4984   24.5184  -49.4857 C   0  0  0  0  0  0  0  0  0  0  0  0
  -28.0414   21.0826  -49.1888 C   0  0  0  0  0  0  0  0  0  0  0  0
  -28.6697   19.7862  -49.1912 C   0  0  0  0  0  0  0  0  0  0  0  0
  -29.7233   16.7026  -50.1902 C   0  0  2  0  0  0  0  0  0  0  0  0
  -28.9965   15.8845  -51.2372 C   0  0  0  0  0  0  0  0  0  0  0  0
  -31.1058   16.1079  -50.0219 C   0  0  0  0  0  0  0  0  0  0  0  0
  -31.6940   18.0492  -52.4432 C   0  0  0  0  0  0  0  0  0  0  0  0
  -21.0558   24.4797  -49.3014 C   0  0  0  0  0  0  0  0  0  0  0  0
  -22.0885   23.8077  -51.4514 C   0  0  0  0  0  0  0  0  0  0  0  0
  -27.5904   24.1177  -50.4788 C   0  0  0  0  0  0  0  0  0  0  0  0
  -27.3550   21.6888  -50.3135 N   0  0  0  0  0  0  0  0  0  0  0  0
  -29.2278   19.4295  -48.0888 N   0  0  0  0  0  0  0  0  0  0  0  0
  -28.7366   18.8766  -50.3199 N   0  0  0  0  0  0  0  0  0  0  0  0
  -23.4068   24.8615  -48.1993 O   0  0  0  0  0  0  0  0  0  0  0  0
  -24.7272   22.0545  -49.7295 O   0  0  0  0  0  0  0  0  0  0  0  0
  -28.1391   20.3188  -45.8198 O   0  0  0  0  0  0  0  0  0  0  0  0
  -30.2805   21.3434  -46.5616 O   0  0  0  0  0  0  0  0  0  0  0  0
  -29.7152   18.6221  -53.1012 O   0  0  0  0  0  0  0  0  0  0  0  0
  -28.9792   20.7308  -46.9936 S   0  0  1  0  0  6  0  0  0  0  0  0
 15  1  1  0
  1 22  1  0
  1 23  1  0
 16  2  2  0
 33  2  1  6
  3  5  2  0
  6  3  1  0
  3 15  1  0
  4  5  1  0
 24  4  2  0
  5  8  1  0
  7  6  2  0
  6 29  1  0
  7 24  1  0
 25  7  1  0
  9 10  1  0
  9 18  1  0
  9 27  1  6
 10 21  2  0
 10 32  1  0
 18 11  1  1
 13 12  2  0
 21 12  1  0
 13 14  1  0
 32 13  1  0
 15 28  2  0
 17 16  1  0
 16 25  1  0
 17 26  2  0
 17 27  1  0
 18 19  1  0
 18 20  1  0
 26 33  1  0
 33 30  2  0
 33 31  2  0
M  END
$$$$
