
     RDKit          3D

 33 35  0  0  0  0  0  0  0  0999 V2000
  -33.8243   24.7460  -49.3632 N   0  0  0  0  0  0  0  0  0  0  0  0
  -28.3166   19.7953  -47.2146 N   0  0  0  0  0  0  0  0  0  0  0  0
  -32.6764   22.7756  -48.1241 C   0  0  0  0  0  0  0  0  0  0  0  0
  -32.3961   20.4530  -47.7424 C   0  0  0  0  0  0  0  0  0  0  0  0
  -33.2520   21.5523  -47.9882 C   0  0  0  0  0  0  0  0  0  0  0  0
  -31.2678   22.8583  -48.0047 C   0  0  0  0  0  0  0  0  0  0  0  0
  -30.4524   21.7906  -47.7657 C   0  0  0  0  0  0  0  0  0  0  0  0
  -34.7221   21.2641  -47.9817 C   0  0  0  0  0  0  0  0  0  0  0  0
  -25.4093   22.0305  -50.4119 C   0  0  1  0  0  0  0  0  0  0  0  0
  -25.5637   21.5538  -51.7728 C   0  0  0  0  0  0  0  0  0  0  0  0
  -23.1478   23.1203  -50.2921 C   0  0  0  0  0  0  0  0  0  0  0  0
  -25.3609   20.4148  -53.6465 C   0  0  0  0  0  0  0  0  0  0  0  0
  -26.2955   21.4150  -53.7977 C   0  0  0  0  0  0  0  0  0  0  0  0
  -27.0748   21.6993  -55.0587 C   0  0  0  0  0  0  0  0  0  0  0  0
  -33.4279   23.9967  -48.2810 C   0  0  0  0  0  0  0  0  0  0  0  0
  -28.1174   20.8878  -47.8598 C   0  0  0  0  0  0  0  0  0  0  0  0
  -26.9576   20.9089  -48.7140 C   0  0  0  0  0  0  0  0  0  0  0  0
  -24.6423   23.3070  -50.2301 C   0  0  2  0  0  0  0  0  0  0  0  0
  -25.0440   23.9214  -48.9055 C   0  0  0  0  0  0  0  0  0  0  0  0
  -25.0472   24.2718  -51.3248 C   0  0  0  0  0  0  0  0  0  0  0  0
  -24.8954   20.5046  -52.3569 C   0  0  0  0  0  0  0  0  0  0  0  0
  -34.1075   26.2005  -49.1076 C   0  0  0  0  0  0  0  0  0  0  0  0
  -33.8989   24.3424  -50.7337 C   0  0  0  0  0  0  0  0  0  0  0  0
  -31.0440   20.5631  -47.6345 C   0  0  0  0  0  0  0  0  0  0  0  0
  -29.0523   21.9821  -47.6805 N   0  0  0  0  0  0  0  0  0  0  0  0
  -26.2539   19.8326  -48.7338 N   0  0  0  0  0  0  0  0  0  0  0  0
  -26.5380   22.0185  -49.5498 N   0  0  0  0  0  0  0  0  0  0  0  0
  -33.7927   24.4741  -47.0893 O   0  0  0  0  0  0  0  0  0  0  0  0
  -30.6699   24.1156  -48.1405 O   0  0  0  0  0  0  0  0  0  0  0  0
  -26.1661   18.3841  -46.4935 O   0  0  0  0  0  0  0  0  0  0  0  0
  -27.5278   17.5175  -48.3858 O   0  0  0  0  0  0  0  0  0  0  0  0
  -26.3747   22.0500  -52.6737 O   0  0  0  0  0  0  0  0  0  0  0  0
  -27.0371   18.7392  -47.6634 S   0  0  1  0  0  6  0  0  0  0  0  0
 15  1  1  0
  1 22  1  0
  1 23  1  0
 16  2  2  0
 33  2  1  1
  3  5  2  0
  6  3  1  0
  3 15  1  0
  4  5  1  0
 24  4  2  0
  5  8  1  0
  7  6  2  0
  6 29  1  0
  7 24  1  0
 25  7  1  0
  9 10  1  0
  9 18  1  0
  9 27  1  6
 10 21  2  0
 10 32  1  0
 18 11  1  1
 13 12  2  0
 21 12  1  0
 13 14  1  0
 32 13  1  0
 15 28  2  0
 17 16  1  0
 16 25  1  0
 17 26  2  0
 17 27  1  0
 18 19  1  0
 18 20  1  0
 26 33  1  0
 33 30  2  0
 33 31  2  0
M  END
$$$$
