
     RDKit          3D

 33 35  0  0  0  0  0  0  0  0999 V2000
  -23.5187   24.4785  -52.9543 N   0  0  0  0  0  0  0  0  0  0  0  0
  -26.7585   21.3285  -46.9360 N   0  0  0  0  0  0  0  0  0  0  0  0
  -24.5408   24.0346  -50.6104 C   0  0  0  0  0  0  0  0  0  0  0  0
  -24.0081   23.8379  -48.3091 C   0  0  0  0  0  0  0  0  0  0  0  0
  -23.8937   24.5440  -49.5296 C   0  0  0  0  0  0  0  0  0  0  0  0
  -25.2745   22.8361  -50.4351 C   0  0  0  0  0  0  0  0  0  0  0  0
  -25.3762   22.1629  -49.2526 C   0  0  0  0  0  0  0  0  0  0  0  0
  -22.9894   25.7384  -49.5240 C   0  0  0  0  0  0  0  0  0  0  0  0
  -29.4482   18.8420  -49.8336 C   0  0  1  0  0  0  0  0  0  0  0  0
  -29.3007   19.4366  -51.1481 C   0  0  0  0  0  0  0  0  0  0  0  0
  -31.3511   17.5243  -50.8130 C   0  0  0  0  0  0  0  0  0  0  0  0
  -29.4885   20.7548  -52.9019 C   0  0  0  0  0  0  0  0  0  0  0  0
  -28.6081   19.7303  -53.1702 C   0  0  0  0  0  0  0  0  0  0  0  0
  -27.8721   19.5292  -54.4725 C   0  0  0  0  0  0  0  0  0  0  0  0
  -24.4363   24.5912  -51.9370 C   0  0  0  0  0  0  0  0  0  0  0  0
  -26.9343   20.6454  -48.0093 C   0  0  0  0  0  0  0  0  0  0  0  0
  -27.9162   19.5944  -47.9297 C   0  0  0  0  0  0  0  0  0  0  0  0
  -30.2874   17.6014  -49.7477 C   0  0  2  0  0  0  0  0  0  0  0  0
  -30.9134   17.5423  -48.3700 C   0  0  0  0  0  0  0  0  0  0  0  0
  -29.3813   16.3966  -49.8919 C   0  0  0  0  0  0  0  0  0  0  0  0
  -29.9291   20.5664  -51.6143 C   0  0  0  0  0  0  0  0  0  0  0  0
  -23.8746   25.1377  -54.2581 C   0  0  0  0  0  0  0  0  0  0  0  0
  -22.2102   23.9026  -52.8999 C   0  0  0  0  0  0  0  0  0  0  0  0
  -24.7229   22.6882  -48.1703 C   0  0  0  0  0  0  0  0  0  0  0  0
  -26.1506   20.9798  -49.1830 N   0  0  0  0  0  0  0  0  0  0  0  0
  -28.5048   19.4592  -46.7942 N   0  0  0  0  0  0  0  0  0  0  0  0
  -28.2986   18.7052  -49.0109 N   0  0  0  0  0  0  0  0  0  0  0  0
  -25.4748   25.3908  -52.1884 O   0  0  0  0  0  0  0  0  0  0  0  0
  -25.9401   22.3053  -51.5450 O   0  0  0  0  0  0  0  0  0  0  0  0
  -27.1021   20.0673  -44.6062 O   0  0  0  0  0  0  0  0  0  0  0  0
  -28.8773   21.6531  -45.3274 O   0  0  0  0  0  0  0  0  0  0  0  0
  -28.5355   18.9895  -52.1125 O   0  0  0  0  0  0  0  0  0  0  0  0
  -27.8351   20.6671  -45.7709 S   0  0  1  0  0  6  0  0  0  0  0  0
 15  1  1  0
  1 22  1  0
  1 23  1  0
 16  2  2  0
 33  2  1  6
  3  5  2  0
  6  3  1  0
  3 15  1  0
  4  5  1  0
 24  4  2  0
  5  8  1  0
  7  6  2  0
  6 29  1  0
  7 24  1  0
 25  7  1  0
  9 10  1  0
  9 18  1  0
  9 27  1  6
 10 21  2  0
 10 32  1  0
 18 11  1  6
 13 12  2  0
 21 12  1  0
 13 14  1  0
 32 13  1  0
 15 28  2  0
 17 16  1  0
 16 25  1  0
 17 26  2  0
 17 27  1  0
 18 19  1  0
 18 20  1  0
 26 33  1  0
 33 30  2  0
 33 31  2  0
M  END
$$$$
