
     RDKit          3D

 33 35  0  0  0  0  0  0  0  0999 V2000
  -22.6406   24.0090  -52.4101 N   0  0  0  0  0  0  0  0  0  0  0  0
  -26.6955   20.4962  -47.8786 N   0  0  0  0  0  0  0  0  0  0  0  0
  -24.0483   24.1242  -50.2328 C   0  0  0  0  0  0  0  0  0  0  0  0
  -24.3649   23.7111  -47.9203 C   0  0  0  0  0  0  0  0  0  0  0  0
  -23.6281   24.3303  -48.9572 C   0  0  0  0  0  0  0  0  0  0  0  0
  -25.1856   23.3033  -50.4278 C   0  0  0  0  0  0  0  0  0  0  0  0
  -25.8874   22.7098  -49.4193 C   0  0  0  0  0  0  0  0  0  0  0  0
  -22.3986   25.0793  -48.5427 C   0  0  0  0  0  0  0  0  0  0  0  0
  -29.5572   19.0905  -51.3753 C   0  0  1  0  0  0  0  0  0  0  0  0
  -30.3925   17.9165  -51.2103 C   0  0  0  0  0  0  0  0  0  0  0  0
  -29.5964   18.9752  -53.8856 C   0  0  0  0  0  0  0  0  0  0  0  0
  -31.3263   15.9380  -51.4601 C   0  0  0  0  0  0  0  0  0  0  0  0
  -31.8893   16.5969  -50.3899 C   0  0  0  0  0  0  0  0  0  0  0  0
  -32.9869   16.0529  -49.5080 C   0  0  0  0  0  0  0  0  0  0  0  0
  -23.3422   24.6108  -51.3926 C   0  0  0  0  0  0  0  0  0  0  0  0
  -27.3931   20.7703  -48.9215 C   0  0  0  0  0  0  0  0  0  0  0  0
  -28.4971   19.8843  -49.1880 C   0  0  0  0  0  0  0  0  0  0  0  0
  -29.7091   19.8476  -52.6616 C   0  0  2  0  0  0  0  0  0  0  0  0
  -28.6658   20.9449  -52.6964 C   0  0  0  0  0  0  0  0  0  0  0  0
  -31.0712   20.5094  -52.6726 C   0  0  0  0  0  0  0  0  0  0  0  0
  -30.3737   16.7795  -51.9819 C   0  0  0  0  0  0  0  0  0  0  0  0
  -22.7201   22.5093  -52.4875 C   0  0  0  0  0  0  0  0  0  0  0  0
  -21.9260   24.6372  -53.4785 C   0  0  0  0  0  0  0  0  0  0  0  0
  -25.4564   22.9281  -48.1385 C   0  0  0  0  0  0  0  0  0  0  0  0
  -27.0220   21.9199  -49.7243 N   0  0  0  0  0  0  0  0  0  0  0  0
  -28.6590   18.9201  -48.3524 N   0  0  0  0  0  0  0  0  0  0  0  0
  -29.4323   20.0000  -50.2916 N   0  0  0  0  0  0  0  0  0  0  0  0
  -23.4017   25.9429  -51.4477 O   0  0  0  0  0  0  0  0  0  0  0  0
  -25.6208   23.0849  -51.7391 O   0  0  0  0  0  0  0  0  0  0  0  0
  -26.4718   17.9246  -47.1906 O   0  0  0  0  0  0  0  0  0  0  0  0
  -27.9699   19.3561  -45.8150 O   0  0  0  0  0  0  0  0  0  0  0  0
  -31.3076   17.7476  -50.2886 O   0  0  0  0  0  0  0  0  0  0  0  0
  -27.4105   19.0960  -47.1842 S   0  0  1  0  0  6  0  0  0  0  0  0
 15  1  1  0
  1 22  1  0
  1 23  1  0
 16  2  2  0
 33  2  1  6
  3  5  2  0
  6  3  1  0
  3 15  1  0
  4  5  1  0
 24  4  2  0
  5  8  1  0
  7  6  2  0
  6 29  1  0
  7 24  1  0
 25  7  1  0
  9 10  1  0
  9 18  1  0
  9 27  1  1
 10 21  2  0
 10 32  1  0
 18 11  1  6
 13 12  2  0
 21 12  1  0
 13 14  1  0
 32 13  1  0
 15 28  2  0
 17 16  1  0
 16 25  1  0
 17 26  2  0
 17 27  1  0
 18 19  1  0
 18 20  1  0
 26 33  1  0
 33 30  2  0
 33 31  2  0
M  END
$$$$
