
     RDKit          3D

 17 18  0  0  0  0  0  0  0  0999 V2000
   -5.9663    5.4931   -1.2048 C   0  0  0  0  0  0  0  0  0  0  0  0
   -2.9696    7.9074   -1.5133 C   0  0  0  0  0  0  0  0  0  0  0  0
   -1.3826    9.3090   -2.2208 C   0  0  0  0  0  0  0  0  0  0  0  0
   -2.3192   10.2716   -2.5336 C   0  0  0  0  0  0  0  0  0  0  0  0
   -5.6978    7.8272   -1.7148 O   0  0  0  0  0  0  0  0  0  0  0  0
   -5.1736    6.7383   -1.3147 C   0  0  0  0  0  0  0  0  0  0  0  0
   -7.0361    5.6447   -0.1573 C   0  0  0  0  0  0  0  0  0  0  0  0
   -3.8030    6.7841   -0.9838 N   0  0  0  0  0  0  0  0  0  0  0  0
   -3.9048    9.4438   -2.0604 S   0  0  0  0  0  0  0  0  0  0  0  0
   -1.9008    8.2015   -1.7246 N   0  0  0  0  0  0  0  0  0  0  0  0
    0.0753    9.5567   -2.4464 C   0  0  0  0  0  0  0  0  0  0  0  0
    0.4793   10.7206   -3.0649 C   0  0  0  0  0  0  0  0  0  0  0  0
    1.8384   10.9779   -3.2887 C   0  0  0  0  0  0  0  0  0  0  0  0
    2.7962   10.0599   -2.8884 C   0  0  0  0  0  0  0  0  0  0  0  0
    4.5080   10.3155   -3.1355 Cl  0  0  0  0  0  0  0  0  0  0  0  0
    2.3620    8.8957   -2.2677 C   0  0  0  0  0  0  0  0  0  0  0  0
    1.0258    8.6519   -2.0524 C   0  0  0  0  0  0  0  0  0  0  0  0
  1  6  1  1
  7  1  1  6
  8  2  1  0
  2  9  1  0
  2 10  2  0
  3  4  2  0
 10  3  1  0
  3 11  1  0
  9  4  1  0
  6  5  2  0
  6  8  1  0
 11 12  2  0
 11 17  1  0
 12 13  1  0
 13 14  2  0
 14 15  1  0
 14 16  1  0
 16 17  2  0
M  END
$$$$
