
     RDKit          3D

 17 18  0  0  0  0  0  0  0  0999 V2000
   -6.0826    4.9641   -0.6653 C   0  0  0  0  0  0  0  0  0  0  0  0
   -3.4338    7.5965   -1.6487 C   0  0  0  0  0  0  0  0  0  0  0  0
   -1.6412    8.8285   -2.2885 C   0  0  0  0  0  0  0  0  0  0  0  0
   -2.3399    9.1449   -3.4224 C   0  0  0  0  0  0  0  0  0  0  0  0
   -5.8488    6.5374   -2.4735 O   0  0  0  0  0  0  0  0  0  0  0  0
   -5.4136    6.1013   -1.3778 C   0  0  0  0  0  0  0  0  0  0  0  0
   -7.4863    5.3903   -0.3261 C   0  0  0  0  0  0  0  0  0  0  0  0
   -4.2568    6.7390   -0.8483 N   0  0  0  0  0  0  0  0  0  0  0  0
   -3.8125    8.2839   -3.1591 S   0  0  0  0  0  0  0  0  0  0  0  0
   -2.2209    8.0510   -1.4235 N   0  0  0  0  0  0  0  0  0  0  0  0
   -0.2723    9.3525   -2.0534 C   0  0  0  0  0  0  0  0  0  0  0  0
    0.1961    9.5765   -0.7847 C   0  0  0  0  0  0  0  0  0  0  0  0
    1.4618   10.0631   -0.5093 C   0  0  0  0  0  0  0  0  0  0  0  0
    2.3008   10.3399   -1.5464 C   0  0  0  0  0  0  0  0  0  0  0  0
    3.9119   10.9584   -1.2218 Cl  0  0  0  0  0  0  0  0  0  0  0  0
    1.8548   10.1236   -2.8342 C   0  0  0  0  0  0  0  0  0  0  0  0
    0.5909    9.6383   -3.0914 C   0  0  0  0  0  0  0  0  0  0  0  0
  6  1  1  0
  1  7  1  0
  8  2  1  0
  2  9  1  0
  2 10  2  0
  3  4  2  0
 10  3  1  0
  3 11  1  0
  9  4  1  0
  6  5  2  0
  6  8  1  0
 11 12  2  0
 11 17  1  0
 12 13  1  0
 13 14  2  0
 14 15  1  0
 14 16  1  0
 16 17  2  0
M  END
$$$$
