
     RDKit          3D

 17 18  0  0  0  0  0  0  0  0999 V2000
   -5.6056    5.6829   -1.7114 C   0  0  0  0  0  0  0  0  0  0  0  0
   -2.6254    8.1164   -1.4306 C   0  0  0  0  0  0  0  0  0  0  0  0
   -0.4761    8.8383   -1.4320 C   0  0  0  0  0  0  0  0  0  0  0  0
   -0.6889    9.2841   -0.1553 C   0  0  0  0  0  0  0  0  0  0  0  0
   -4.2969    6.5443    0.1174 O   0  0  0  0  0  0  0  0  0  0  0  0
   -4.5675    6.5821   -1.1095 C   0  0  0  0  0  0  0  0  0  0  0  0
   -6.3480    5.0126   -0.5861 C   0  0  0  0  0  0  0  0  0  0  0  0
   -3.8412    7.5186   -1.8974 N   0  0  0  0  0  0  0  0  0  0  0  0
   -2.3360    8.8289    0.0879 S   0  0  0  0  0  0  0  0  0  0  0  0
   -1.4686    8.2588   -2.0387 N   0  0  0  0  0  0  0  0  0  0  0  0
    0.8382    9.0091   -2.1007 C   0  0  0  0  0  0  0  0  0  0  0  0
    1.8491    9.7234   -1.5117 C   0  0  0  0  0  0  0  0  0  0  0  0
    3.0917    9.9132   -2.0901 C   0  0  0  0  0  0  0  0  0  0  0  0
    3.3393    9.3659   -3.3129 C   0  0  0  0  0  0  0  0  0  0  0  0
    4.9089    9.5933   -4.0670 Cl  0  0  0  0  0  0  0  0  0  0  0  0
    2.3391    8.6417   -3.9286 C   0  0  0  0  0  0  0  0  0  0  0  0
    1.1066    8.4620   -3.3387 C   0  0  0  0  0  0  0  0  0  0  0  0
  6  1  1  0
  1  7  1  0
  8  2  1  0
  2  9  1  0
  2 10  2  0
  3  4  2  0
 10  3  1  0
  3 11  1  0
  9  4  1  0
  6  5  2  0
  6  8  1  0
 11 12  2  0
 11 17  1  0
 12 13  1  0
 13 14  2  0
 14 15  1  0
 14 16  1  0
 16 17  2  0
M  END
$$$$
