
     RDKit          3D

 17 18  0  0  0  0  0  0  0  0999 V2000
   -6.6893    5.4226   -0.2022 C   0  0  0  0  0  0  0  0  0  0  0  0
   -3.8606    7.8553   -1.2406 C   0  0  0  0  0  0  0  0  0  0  0  0
   -2.0316    8.8122   -2.0909 C   0  0  0  0  0  0  0  0  0  0  0  0
   -2.5624    8.7837   -3.3634 C   0  0  0  0  0  0  0  0  0  0  0  0
   -5.7734    6.2206   -2.2770 O   0  0  0  0  0  0  0  0  0  0  0  0
   -5.8000    6.2909   -1.0062 C   0  0  0  0  0  0  0  0  0  0  0  0
   -7.2899    4.3463   -1.0657 C   0  0  0  0  0  0  0  0  0  0  0  0
   -4.9397    7.2369   -0.4102 N   0  0  0  0  0  0  0  0  0  0  0  0
   -4.2142    7.9993   -3.0814 S   0  0  0  0  0  0  0  0  0  0  0  0
   -2.8281    8.3050   -1.1691 N   0  0  0  0  0  0  0  0  0  0  0  0
   -0.6703    9.3796   -1.8413 C   0  0  0  0  0  0  0  0  0  0  0  0
    0.1434    9.6900   -2.9099 C   0  0  0  0  0  0  0  0  0  0  0  0
    1.4230   10.2226   -2.7046 C   0  0  0  0  0  0  0  0  0  0  0  0
    1.8869   10.4442   -1.4177 C   0  0  0  0  0  0  0  0  0  0  0  0
    3.4714   11.1054   -1.0880 Cl  0  0  0  0  0  0  0  0  0  0  0  0
    1.0471   10.1227   -0.3592 C   0  0  0  0  0  0  0  0  0  0  0  0
   -0.2074    9.6004   -0.5707 C   0  0  0  0  0  0  0  0  0  0  0  0
  1  6  1  1
  7  1  1  6
  8  2  1  0
  2  9  1  0
  2 10  2  0
  3  4  2  0
 10  3  1  0
  3 11  1  0
  9  4  1  0
  6  5  2  0
  6  8  1  0
 11 12  2  0
 11 17  1  0
 12 13  1  0
 13 14  2  0
 14 15  1  0
 14 16  1  0
 16 17  2  0
M  END
$$$$
