
     RDKit          3D

 17 18  0  0  0  0  0  0  0  0999 V2000
   -5.8008    5.3463   -1.5755 C   0  0  0  0  0  0  0  0  0  0  0  0
   -2.6874    7.6461   -1.5781 C   0  0  0  0  0  0  0  0  0  0  0  0
   -0.8016    8.9046   -1.6033 C   0  0  0  0  0  0  0  0  0  0  0  0
   -1.2679    9.5169   -0.4712 C   0  0  0  0  0  0  0  0  0  0  0  0
   -5.1599    7.3516   -0.4061 O   0  0  0  0  0  0  0  0  0  0  0  0
   -4.8810    6.4935   -1.2813 C   0  0  0  0  0  0  0  0  0  0  0  0
   -7.2166    5.8378   -1.4317 C   0  0  0  0  0  0  0  0  0  0  0  0
   -3.6518    6.6643   -1.9776 N   0  0  0  0  0  0  0  0  0  0  0  0
   -2.7661    8.6923   -0.2377 S   0  0  0  0  0  0  0  0  0  0  0  0
   -1.5394    7.9728   -2.1291 N   0  0  0  0  0  0  0  0  0  0  0  0
    0.4979    9.2885   -2.2096 C   0  0  0  0  0  0  0  0  0  0  0  0
    0.8537    8.8590   -3.4619 C   0  0  0  0  0  0  0  0  0  0  0  0
    2.0509    9.1868   -4.0735 C   0  0  0  0  0  0  0  0  0  0  0  0
    2.9355    9.9796   -3.4066 C   0  0  0  0  0  0  0  0  0  0  0  0
    4.4614   10.4090   -4.1624 Cl  0  0  0  0  0  0  0  0  0  0  0  0
    2.6026   10.4262   -2.1441 C   0  0  0  0  0  0  0  0  0  0  0  0
    1.4058   10.0906   -1.5490 C   0  0  0  0  0  0  0  0  0  0  0  0
  6  1  1  0
  1  7  1  0
  8  2  1  0
  2  9  1  0
  2 10  2  0
  3  4  2  0
 10  3  1  0
  3 11  1  0
  9  4  1  0
  6  5  2  0
  6  8  1  0
 11 12  2  0
 11 17  1  0
 12 13  1  0
 13 14  2  0
 14 15  1  0
 14 16  1  0
 16 17  2  0
M  END
$$$$
