
     RDKit          3D

 17 18  0  0  0  0  0  0  0  0999 V2000
   -5.4712    5.5686   -1.0298 C   0  0  0  0  0  0  0  0  0  0  0  0
   -2.4009    7.7765   -1.7529 C   0  0  0  0  0  0  0  0  0  0  0  0
   -0.4419    8.8461   -1.7107 C   0  0  0  0  0  0  0  0  0  0  0  0
   -0.7333    9.4101   -0.4865 C   0  0  0  0  0  0  0  0  0  0  0  0
   -4.5533    7.5652   -0.0542 O   0  0  0  0  0  0  0  0  0  0  0  0
   -4.5474    6.7251   -1.0106 C   0  0  0  0  0  0  0  0  0  0  0  0
   -6.8920    6.0367   -1.1934 C   0  0  0  0  0  0  0  0  0  0  0  0
   -3.6167    6.9562   -2.0454 N   0  0  0  0  0  0  0  0  0  0  0  0
   -2.4140    8.7238   -0.1291 S   0  0  0  0  0  0  0  0  0  0  0  0
   -1.3956    8.0629   -2.1780 N   0  0  0  0  0  0  0  0  0  0  0  0
    0.8553    9.1343   -2.3976 C   0  0  0  0  0  0  0  0  0  0  0  0
    1.6214   10.2028   -1.9831 C   0  0  0  0  0  0  0  0  0  0  0  0
    2.8404   10.4954   -2.6089 C   0  0  0  0  0  0  0  0  0  0  0  0
    3.2915    9.7092   -3.6571 C   0  0  0  0  0  0  0  0  0  0  0  0
    4.8016   10.0159   -4.4831 Cl  0  0  0  0  0  0  0  0  0  0  0  0
    2.5005    8.6390   -4.0548 C   0  0  0  0  0  0  0  0  0  0  0  0
    1.3053    8.3598   -3.4344 C   0  0  0  0  0  0  0  0  0  0  0  0
  1  6  1  1
  7  1  1  6
  8  2  1  0
  2  9  1  0
  2 10  2  0
  3  4  2  0
 10  3  1  0
  3 11  1  0
  9  4  1  0
  6  5  2  0
  6  8  1  0
 11 12  2  0
 11 17  1  0
 12 13  1  0
 13 14  2  0
 14 15  1  0
 14 16  1  0
 16 17  2  0
M  END
$$$$
