
     RDKit          3D

 17 18  0  0  0  0  0  0  0  0999 V2000
   -6.1076    4.8253   -0.6651 C   0  0  0  0  0  0  0  0  0  0  0  0
   -3.5166    7.5398   -1.5500 C   0  0  0  0  0  0  0  0  0  0  0  0
   -1.6684    8.7319   -2.1012 C   0  0  0  0  0  0  0  0  0  0  0  0
   -2.2668    8.9877   -3.3055 C   0  0  0  0  0  0  0  0  0  0  0  0
   -5.7656    6.2742   -2.5580 O   0  0  0  0  0  0  0  0  0  0  0  0
   -5.4404    5.9586   -1.3856 C   0  0  0  0  0  0  0  0  0  0  0  0
   -7.4309    5.3206   -0.1452 C   0  0  0  0  0  0  0  0  0  0  0  0
   -4.4099    6.7286   -0.7771 N   0  0  0  0  0  0  0  0  0  0  0  0
   -3.7619    8.1451   -3.1219 S   0  0  0  0  0  0  0  0  0  0  0  0
   -2.3242    8.0036   -1.2477 N   0  0  0  0  0  0  0  0  0  0  0  0
   -0.3209    9.2654   -1.7795 C   0  0  0  0  0  0  0  0  0  0  0  0
    0.5207    9.7142   -2.7641 C   0  0  0  0  0  0  0  0  0  0  0  0
    1.7852   10.2205   -2.5201 C   0  0  0  0  0  0  0  0  0  0  0  0
    2.2327   10.2828   -1.2348 C   0  0  0  0  0  0  0  0  0  0  0  0
    3.8339   10.9214   -0.9004 Cl  0  0  0  0  0  0  0  0  0  0  0  0
    1.4057    9.8376   -0.2239 C   0  0  0  0  0  0  0  0  0  0  0  0
    0.1488    9.3360   -0.4840 C   0  0  0  0  0  0  0  0  0  0  0  0
  6  1  1  0
  1  7  1  0
  8  2  1  0
  2  9  1  0
  2 10  2  0
  3  4  2  0
 10  3  1  0
  3 11  1  0
  9  4  1  0
  6  5  2  0
  6  8  1  0
 11 12  2  0
 11 17  1  0
 12 13  1  0
 13 14  2  0
 14 15  1  0
 14 16  1  0
 16 17  2  0
M  END
$$$$
