
     RDKit          3D

 17 18  0  0  0  0  0  0  0  0999 V2000
   -6.0752    5.4012   -1.4754 C   0  0  0  0  0  0  0  0  0  0  0  0
   -3.1773    7.9529   -1.5759 C   0  0  0  0  0  0  0  0  0  0  0  0
   -1.4560    9.3626   -2.0126 C   0  0  0  0  0  0  0  0  0  0  0  0
   -2.3267   10.3961   -1.7941 C   0  0  0  0  0  0  0  0  0  0  0  0
   -5.9068    7.7863   -1.1883 O   0  0  0  0  0  0  0  0  0  0  0  0
   -5.3162    6.6879   -1.3452 C   0  0  0  0  0  0  0  0  0  0  0  0
   -6.9128    5.2290   -0.2362 C   0  0  0  0  0  0  0  0  0  0  0  0
   -3.8944    6.7259   -1.3931 N   0  0  0  0  0  0  0  0  0  0  0  0
   -3.7786    9.5382   -1.4262 S   0  0  0  0  0  0  0  0  0  0  0  0
   -1.9176    8.1535   -1.8943 N   0  0  0  0  0  0  0  0  0  0  0  0
   -0.0370    9.6109   -2.3712 C   0  0  0  0  0  0  0  0  0  0  0  0
    0.9540    8.7396   -2.0000 C   0  0  0  0  0  0  0  0  0  0  0  0
    2.2907    8.9225   -2.3076 C   0  0  0  0  0  0  0  0  0  0  0  0
    2.6578   10.0252   -3.0185 C   0  0  0  0  0  0  0  0  0  0  0  0
    4.3482   10.2788   -3.4208 Cl  0  0  0  0  0  0  0  0  0  0  0  0
    1.6802   10.9190   -3.4051 C   0  0  0  0  0  0  0  0  0  0  0  0
    0.3530   10.7220   -3.0905 C   0  0  0  0  0  0  0  0  0  0  0  0
  6  1  1  0
  1  7  1  0
  8  2  1  0
  2  9  1  0
  2 10  2  0
  3  4  2  0
 10  3  1  0
  3 11  1  0
  9  4  1  0
  6  5  2  0
  6  8  1  0
 11 12  2  0
 11 17  1  0
 12 13  1  0
 13 14  2  0
 14 15  1  0
 14 16  1  0
 16 17  2  0
M  END
$$$$
