
     RDKit          3D

 17 18  0  0  0  0  0  0  0  0999 V2000
   -6.3169    5.9383   -1.6437 C   0  0  0  0  0  0  0  0  0  0  0  0
   -2.8232    7.6360   -1.6499 C   0  0  0  0  0  0  0  0  0  0  0  0
   -0.9258    8.7854   -1.4008 C   0  0  0  0  0  0  0  0  0  0  0  0
   -1.3811    9.3566   -0.2311 C   0  0  0  0  0  0  0  0  0  0  0  0
   -5.1145    7.4583   -0.2210 O   0  0  0  0  0  0  0  0  0  0  0  0
   -5.1312    6.7437   -1.2744 C   0  0  0  0  0  0  0  0  0  0  0  0
   -6.9415    5.3332   -0.4155 C   0  0  0  0  0  0  0  0  0  0  0  0
   -3.9634    6.7620   -2.0657 N   0  0  0  0  0  0  0  0  0  0  0  0
   -3.0643    8.6079   -0.0589 S   0  0  0  0  0  0  0  0  0  0  0  0
   -1.7867    7.9564   -1.9602 N   0  0  0  0  0  0  0  0  0  0  0  0
    0.4312    9.1154   -1.9368 C   0  0  0  0  0  0  0  0  0  0  0  0
    1.1762   10.1081   -1.3369 C   0  0  0  0  0  0  0  0  0  0  0  0
    2.4501   10.4374   -1.8186 C   0  0  0  0  0  0  0  0  0  0  0  0
    2.9776    9.7649   -2.9094 C   0  0  0  0  0  0  0  0  0  0  0  0
    4.5591   10.1235   -3.5629 Cl  0  0  0  0  0  0  0  0  0  0  0  0
    2.2061    8.7694   -3.4950 C   0  0  0  0  0  0  0  0  0  0  0  0
    0.9567    8.4532   -3.0150 C   0  0  0  0  0  0  0  0  0  0  0  0
  1  6  1  1
  7  1  1  6
  8  2  1  0
  2  9  1  0
  2 10  2  0
  3  4  2  0
 10  3  1  0
  3 11  1  0
  9  4  1  0
  6  5  2  0
  6  8  1  0
 11 12  2  0
 11 17  1  0
 12 13  1  0
 13 14  2  0
 14 15  1  0
 14 16  1  0
 16 17  2  0
M  END
$$$$
