
     RDKit          3D

 17 18  0  0  0  0  0  0  0  0999 V2000
   -6.3998    5.1118   -0.5680 C   0  0  0  0  0  0  0  0  0  0  0  0
   -3.4066    7.4432   -1.3687 C   0  0  0  0  0  0  0  0  0  0  0  0
   -1.8424    8.8343   -2.1445 C   0  0  0  0  0  0  0  0  0  0  0  0
   -2.7126    9.3506   -3.0815 C   0  0  0  0  0  0  0  0  0  0  0  0
   -6.0556    7.1093   -1.8610 O   0  0  0  0  0  0  0  0  0  0  0  0
   -5.5811    6.2441   -1.0568 C   0  0  0  0  0  0  0  0  0  0  0  0
   -7.5001    5.6108    0.3291 C   0  0  0  0  0  0  0  0  0  0  0  0
   -4.2394    6.4233   -0.6595 N   0  0  0  0  0  0  0  0  0  0  0  0
   -4.2585    8.3885   -2.7525 S   0  0  0  0  0  0  0  0  0  0  0  0
   -2.3724    7.8945   -1.3848 N   0  0  0  0  0  0  0  0  0  0  0  0
   -0.4363    9.3353   -2.0470 C   0  0  0  0  0  0  0  0  0  0  0  0
    0.1602    9.9062   -3.1509 C   0  0  0  0  0  0  0  0  0  0  0  0
    1.4760   10.3835   -3.0872 C   0  0  0  0  0  0  0  0  0  0  0  0
    2.1958   10.2863   -1.9070 C   0  0  0  0  0  0  0  0  0  0  0  0
    3.8402   10.8605   -1.7561 Cl  0  0  0  0  0  0  0  0  0  0  0  0
    1.5712    9.7069   -0.8100 C   0  0  0  0  0  0  0  0  0  0  0  0
    0.2792    9.2412   -0.8822 C   0  0  0  0  0  0  0  0  0  0  0  0
  1  6  1  1
  7  1  1  6
  8  2  1  0
  2  9  1  0
  2 10  2  0
  3  4  2  0
 10  3  1  0
  3 11  1  0
  9  4  1  0
  6  5  2  0
  6  8  1  0
 11 12  2  0
 11 17  1  0
 12 13  1  0
 13 14  2  0
 14 15  1  0
 14 16  1  0
 16 17  2  0
M  END
$$$$
