
     RDKit          3D

 17 18  0  0  0  0  0  0  0  0999 V2000
   -6.0809    6.0771   -0.4289 C   0  0  0  0  0  0  0  0  0  0  0  0
   -2.8556    7.9425   -1.5276 C   0  0  0  0  0  0  0  0  0  0  0  0
   -1.2253    9.1979   -2.3934 C   0  0  0  0  0  0  0  0  0  0  0  0
   -2.0464   10.3053   -2.4308 C   0  0  0  0  0  0  0  0  0  0  0  0
   -5.5538    8.1464   -1.5334 O   0  0  0  0  0  0  0  0  0  0  0  0
   -5.1398    7.0719   -0.9906 C   0  0  0  0  0  0  0  0  0  0  0  0
   -6.7567    5.3132   -1.5354 C   0  0  0  0  0  0  0  0  0  0  0  0
   -3.7422    6.8832   -0.9543 N   0  0  0  0  0  0  0  0  0  0  0  0
   -3.6301    9.6421   -1.7411 S   0  0  0  0  0  0  0  0  0  0  0  0
   -1.8089    8.1169   -1.9115 N   0  0  0  0  0  0  0  0  0  0  0  0
    0.1903    9.2775   -2.8702 C   0  0  0  0  0  0  0  0  0  0  0  0
    0.6767   10.4708   -3.3599 C   0  0  0  0  0  0  0  0  0  0  0  0
    1.9986   10.5731   -3.8131 C   0  0  0  0  0  0  0  0  0  0  0  0
    2.8359    9.4696   -3.7735 C   0  0  0  0  0  0  0  0  0  0  0  0
    4.4951    9.5253   -4.3219 Cl  0  0  0  0  0  0  0  0  0  0  0  0
    2.3207    8.2798   -3.2754 C   0  0  0  0  0  0  0  0  0  0  0  0
    1.0217    8.1890   -2.8329 C   0  0  0  0  0  0  0  0  0  0  0  0
  1  6  1  1
  7  1  1  6
  8  2  1  0
  2  9  1  0
  2 10  2  0
  3  4  2  0
 10  3  1  0
  3 11  1  0
  9  4  1  0
  6  5  2  0
  6  8  1  0
 11 12  2  0
 11 17  1  0
 12 13  1  0
 13 14  2  0
 14 15  1  0
 14 16  1  0
 16 17  2  0
M  END
$$$$
