
     RDKit          3D

 17 18  0  0  0  0  0  0  0  0999 V2000
   -5.7740    4.8909   -0.8969 C   0  0  0  0  0  0  0  0  0  0  0  0
   -3.3056    7.7926   -1.4655 C   0  0  0  0  0  0  0  0  0  0  0  0
   -1.5370    9.0832   -2.0546 C   0  0  0  0  0  0  0  0  0  0  0  0
   -2.3700    9.7153   -2.9380 C   0  0  0  0  0  0  0  0  0  0  0  0
   -5.7855    6.8568   -2.2878 O   0  0  0  0  0  0  0  0  0  0  0  0
   -5.2311    6.2080   -1.3649 C   0  0  0  0  0  0  0  0  0  0  0  0
   -7.2692    4.9166   -1.0717 C   0  0  0  0  0  0  0  0  0  0  0  0
   -4.0651    6.7843   -0.7874 N   0  0  0  0  0  0  0  0  0  0  0  0
   -3.8502    8.8704   -2.6652 S   0  0  0  0  0  0  0  0  0  0  0  0
   -2.0406    8.1257   -1.3345 N   0  0  0  0  0  0  0  0  0  0  0  0
   -0.1112    9.4748   -1.9220 C   0  0  0  0  0  0  0  0  0  0  0  0
    0.6044    9.9323   -2.9981 C   0  0  0  0  0  0  0  0  0  0  0  0
    1.9338   10.3102   -2.9302 C   0  0  0  0  0  0  0  0  0  0  0  0
    2.5811   10.2288   -1.7342 C   0  0  0  0  0  0  0  0  0  0  0  0
    4.2684   10.7029   -1.6234 Cl  0  0  0  0  0  0  0  0  0  0  0  0
    1.8845    9.7715   -0.6344 C   0  0  0  0  0  0  0  0  0  0  0  0
    0.5604    9.3989   -0.7190 C   0  0  0  0  0  0  0  0  0  0  0  0
  6  1  1  0
  1  7  1  0
  8  2  1  0
  2  9  1  0
  2 10  2  0
  3  4  2  0
 10  3  1  0
  3 11  1  0
  9  4  1  0
  6  5  2  0
  6  8  1  0
 11 12  2  0
 11 17  1  0
 12 13  1  0
 13 14  2  0
 14 15  1  0
 14 16  1  0
 16 17  2  0
M  END
$$$$
