
     RDKit          3D

 17 18  0  0  0  0  0  0  0  0999 V2000
   -5.9710    5.7245   -0.8048 C   0  0  0  0  0  0  0  0  0  0  0  0
   -2.5682    7.5363   -1.2813 C   0  0  0  0  0  0  0  0  0  0  0  0
   -0.8260    8.9012   -1.5737 C   0  0  0  0  0  0  0  0  0  0  0  0
   -1.3215    9.7938   -0.6465 C   0  0  0  0  0  0  0  0  0  0  0  0
   -5.1273    7.9562   -0.5085 O   0  0  0  0  0  0  0  0  0  0  0  0
   -4.9065    6.7517   -0.8563 C   0  0  0  0  0  0  0  0  0  0  0  0
   -6.8575    5.8285   -2.0163 C   0  0  0  0  0  0  0  0  0  0  0  0
   -3.5983    6.4521   -1.2911 N   0  0  0  0  0  0  0  0  0  0  0  0
   -2.8917    8.9732   -0.1131 S   0  0  0  0  0  0  0  0  0  0  0  0
   -1.5883    7.8390   -1.7521 N   0  0  0  0  0  0  0  0  0  0  0  0
    0.4649    9.1686   -2.2806 C   0  0  0  0  0  0  0  0  0  0  0  0
    1.2677   10.2074   -1.8603 C   0  0  0  0  0  0  0  0  0  0  0  0
    2.4818   10.4799   -2.5045 C   0  0  0  0  0  0  0  0  0  0  0  0
    2.8907    9.7036   -3.5771 C   0  0  0  0  0  0  0  0  0  0  0  0
    4.3921    9.9866   -4.4271 Cl  0  0  0  0  0  0  0  0  0  0  0  0
    2.0631    8.6635   -3.9801 C   0  0  0  0  0  0  0  0  0  0  0  0
    0.8732    8.4037   -3.3415 C   0  0  0  0  0  0  0  0  0  0  0  0
  1  6  1  1
  7  1  1  6
  8  2  1  0
  2  9  1  0
  2 10  2  0
  3  4  2  0
 10  3  1  0
  3 11  1  0
  9  4  1  0
  6  5  2  0
  6  8  1  0
 11 12  2  0
 11 17  1  0
 12 13  1  0
 13 14  2  0
 14 15  1  0
 14 16  1  0
 16 17  2  0
M  END
$$$$
