
     RDKit          3D

 17 18  0  0  0  0  0  0  0  0999 V2000
   -6.3273    5.7579   -1.9440 C   0  0  0  0  0  0  0  0  0  0  0  0
   -3.0851    7.6802   -1.1364 C   0  0  0  0  0  0  0  0  0  0  0  0
   -1.2634    9.0294   -1.1759 C   0  0  0  0  0  0  0  0  0  0  0  0
   -1.8598    9.7621   -0.1852 C   0  0  0  0  0  0  0  0  0  0  0  0
   -5.7613    7.5422   -0.4290 O   0  0  0  0  0  0  0  0  0  0  0  0
   -5.3658    6.6727   -1.2461 C   0  0  0  0  0  0  0  0  0  0  0  0
   -6.8513    4.7749   -0.9310 C   0  0  0  0  0  0  0  0  0  0  0  0
   -3.9632    6.5998   -1.4755 N   0  0  0  0  0  0  0  0  0  0  0  0
   -3.3349    8.8924    0.0321 S   0  0  0  0  0  0  0  0  0  0  0  0
   -1.9066    7.9942   -1.6271 N   0  0  0  0  0  0  0  0  0  0  0  0
    0.0684    9.4012   -1.7162 C   0  0  0  0  0  0  0  0  0  0  0  0
    0.5746    8.7987   -2.8387 C   0  0  0  0  0  0  0  0  0  0  0  0
    1.8084    9.1070   -3.3841 C   0  0  0  0  0  0  0  0  0  0  0  0
    2.5743   10.0601   -2.7833 C   0  0  0  0  0  0  0  0  0  0  0  0
    4.1437   10.4684   -3.4571 Cl  0  0  0  0  0  0  0  0  0  0  0  0
    2.0888   10.6827   -1.6516 C   0  0  0  0  0  0  0  0  0  0  0  0
    0.8575   10.3640   -1.1210 C   0  0  0  0  0  0  0  0  0  0  0  0
  6  1  1  0
  1  7  1  0
  8  2  1  0
  2  9  1  0
  2 10  2  0
  3  4  2  0
 10  3  1  0
  3 11  1  0
  9  4  1  0
  6  5  2  0
  6  8  1  0
 11 12  2  0
 11 17  1  0
 12 13  1  0
 13 14  2  0
 14 15  1  0
 14 16  1  0
 16 17  2  0
M  END
$$$$
