
     RDKit          3D

 17 18  0  0  0  0  0  0  0  0999 V2000
   -6.0001    5.6592   -0.9433 C   0  0  0  0  0  0  0  0  0  0  0  0
   -2.6043    7.4733   -1.4374 C   0  0  0  0  0  0  0  0  0  0  0  0
   -0.7508    8.7169   -1.4747 C   0  0  0  0  0  0  0  0  0  0  0  0
   -1.1526    9.4169   -0.3566 C   0  0  0  0  0  0  0  0  0  0  0  0
   -4.9834    7.6916   -0.1586 O   0  0  0  0  0  0  0  0  0  0  0  0
   -4.9064    6.6553   -0.8940 C   0  0  0  0  0  0  0  0  0  0  0  0
   -7.1906    6.2249   -1.6694 C   0  0  0  0  0  0  0  0  0  0  0  0
   -3.7274    6.5100   -1.6550 N   0  0  0  0  0  0  0  0  0  0  0  0
   -2.7831    8.6331    0.0313 S   0  0  0  0  0  0  0  0  0  0  0  0
   -1.6074    7.7902   -1.8605 N   0  0  0  0  0  0  0  0  0  0  0  0
    0.5498    9.0263   -2.1458 C   0  0  0  0  0  0  0  0  0  0  0  0
    1.3613   10.0155   -1.6325 C   0  0  0  0  0  0  0  0  0  0  0  0
    2.5846   10.3257   -2.2413 C   0  0  0  0  0  0  0  0  0  0  0  0
    2.9940    9.6375   -3.3723 C   0  0  0  0  0  0  0  0  0  0  0  0
    4.5066    9.9718   -4.1828 Cl  0  0  0  0  0  0  0  0  0  0  0  0
    2.1576    8.6459   -3.8687 C   0  0  0  0  0  0  0  0  0  0  0  0
    0.9587    8.3485   -3.2642 C   0  0  0  0  0  0  0  0  0  0  0  0
  1  6  1  1
  7  1  1  6
  8  2  1  0
  2  9  1  0
  2 10  2  0
  3  4  2  0
 10  3  1  0
  3 11  1  0
  9  4  1  0
  6  5  2  0
  6  8  1  0
 11 12  2  0
 11 17  1  0
 12 13  1  0
 13 14  2  0
 14 15  1  0
 14 16  1  0
 16 17  2  0
M  END
$$$$
