
     RDKit          3D

 17 18  0  0  0  0  0  0  0  0999 V2000
   -6.0154    6.0609   -1.3145 C   0  0  0  0  0  0  0  0  0  0  0  0
   -2.4775    7.6241   -1.4141 C   0  0  0  0  0  0  0  0  0  0  0  0
   -0.6798    8.9357   -1.5913 C   0  0  0  0  0  0  0  0  0  0  0  0
   -1.1500    9.7775   -0.6054 C   0  0  0  0  0  0  0  0  0  0  0  0
   -4.8949    7.8580   -0.1763 O   0  0  0  0  0  0  0  0  0  0  0  0
   -4.8225    6.8684   -0.9738 C   0  0  0  0  0  0  0  0  0  0  0  0
   -6.6354    5.4916   -0.0670 C   0  0  0  0  0  0  0  0  0  0  0  0
   -3.5494    6.5856   -1.5117 N   0  0  0  0  0  0  0  0  0  0  0  0
   -2.7572    8.9839   -0.1464 S   0  0  0  0  0  0  0  0  0  0  0  0
   -1.4813    7.9207   -1.8534 N   0  0  0  0  0  0  0  0  0  0  0  0
    0.6284    9.2019   -2.2661 C   0  0  0  0  0  0  0  0  0  0  0  0
    1.0605    8.3592   -3.2679 C   0  0  0  0  0  0  0  0  0  0  0  0
    2.2818    8.5853   -3.9166 C   0  0  0  0  0  0  0  0  0  0  0  0
    3.0727    9.6645   -3.5559 C   0  0  0  0  0  0  0  0  0  0  0  0
    4.6066   10.0065   -4.3220 Cl  0  0  0  0  0  0  0  0  0  0  0  0
    2.6138   10.4977   -2.5437 C   0  0  0  0  0  0  0  0  0  0  0  0
    1.4137   10.2676   -1.9128 C   0  0  0  0  0  0  0  0  0  0  0  0
  1  6  1  1
  7  1  1  6
  8  2  1  0
  2  9  1  0
  2 10  2  0
  3  4  2  0
 10  3  1  0
  3 11  1  0
  9  4  1  0
  6  5  2  0
  6  8  1  0
 11 12  2  0
 11 17  1  0
 12 13  1  0
 13 14  2  0
 14 15  1  0
 14 16  1  0
 16 17  2  0
M  END
$$$$
