
     RDKit          3D

 17 18  0  0  0  0  0  0  0  0999 V2000
   -6.0076    5.2704   -0.3640 C   0  0  0  0  0  0  0  0  0  0  0  0
   -3.3471    7.9052   -1.3625 C   0  0  0  0  0  0  0  0  0  0  0  0
   -1.6822    9.3015   -2.0100 C   0  0  0  0  0  0  0  0  0  0  0  0
   -2.6122    9.9607   -2.7680 C   0  0  0  0  0  0  0  0  0  0  0  0
   -5.8422    6.9845   -2.0474 O   0  0  0  0  0  0  0  0  0  0  0  0
   -5.3079    6.3874   -1.0789 C   0  0  0  0  0  0  0  0  0  0  0  0
   -6.5650    4.3324   -1.4016 C   0  0  0  0  0  0  0  0  0  0  0  0
   -4.0087    6.8233   -0.6952 N   0  0  0  0  0  0  0  0  0  0  0  0
   -4.0332    9.0418   -2.4277 S   0  0  0  0  0  0  0  0  0  0  0  0
   -2.0870    8.2773   -1.3199 N   0  0  0  0  0  0  0  0  0  0  0  0
   -0.2638    9.7381   -1.9757 C   0  0  0  0  0  0  0  0  0  0  0  0
    0.5988    9.2808   -1.0134 C   0  0  0  0  0  0  0  0  0  0  0  0
    1.9287    9.6549   -0.9354 C   0  0  0  0  0  0  0  0  0  0  0  0
    2.4230   10.5256   -1.8593 C   0  0  0  0  0  0  0  0  0  0  0  0
    4.1076   11.0150   -1.7807 Cl  0  0  0  0  0  0  0  0  0  0  0  0
    1.5763   11.0018   -2.8393 C   0  0  0  0  0  0  0  0  0  0  0  0
    0.2539   10.6191   -2.9029 C   0  0  0  0  0  0  0  0  0  0  0  0
  6  1  1  0
  1  7  1  0
  8  2  1  0
  2  9  1  0
  2 10  2  0
  3  4  2  0
 10  3  1  0
  3 11  1  0
  9  4  1  0
  6  5  2  0
  6  8  1  0
 11 12  2  0
 11 17  1  0
 12 13  1  0
 13 14  2  0
 14 15  1  0
 14 16  1  0
 16 17  2  0
M  END
$$$$
