
     RDKit          3D

 17 18  0  0  0  0  0  0  0  0999 V2000
   -6.3356    6.0528   -1.4842 C   0  0  0  0  0  0  0  0  0  0  0  0
   -2.8828    7.8150   -1.7340 C   0  0  0  0  0  0  0  0  0  0  0  0
   -0.9667    8.9509   -1.5861 C   0  0  0  0  0  0  0  0  0  0  0  0
   -1.3275    9.4741   -0.3622 C   0  0  0  0  0  0  0  0  0  0  0  0
   -5.0132    7.5028   -0.0952 O   0  0  0  0  0  0  0  0  0  0  0  0
   -5.1309    6.8603   -1.1879 C   0  0  0  0  0  0  0  0  0  0  0  0
   -6.9771    5.5822   -0.2068 C   0  0  0  0  0  0  0  0  0  0  0  0
   -4.0555    6.9602   -2.0955 N   0  0  0  0  0  0  0  0  0  0  0  0
   -2.9956    8.7210   -0.0907 S   0  0  0  0  0  0  0  0  0  0  0  0
   -1.8719    8.1466   -2.1104 N   0  0  0  0  0  0  0  0  0  0  0  0
    0.3461    9.3010   -2.2118 C   0  0  0  0  0  0  0  0  0  0  0  0
    1.0633   10.3757   -1.7312 C   0  0  0  0  0  0  0  0  0  0  0  0
    2.2956   10.7257   -2.2988 C   0  0  0  0  0  0  0  0  0  0  0  0
    2.8095    9.9909   -3.3554 C   0  0  0  0  0  0  0  0  0  0  0  0
    4.3396   10.3706   -4.1113 Cl  0  0  0  0  0  0  0  0  0  0  0  0
    2.0668    8.9132   -3.8203 C   0  0  0  0  0  0  0  0  0  0  0  0
    0.8581    8.5774   -3.2567 C   0  0  0  0  0  0  0  0  0  0  0  0
  1  6  1  1
  7  1  1  6
  8  2  1  0
  2  9  1  0
  2 10  2  0
  3  4  2  0
 10  3  1  0
  3 11  1  0
  9  4  1  0
  6  5  2  0
  6  8  1  0
 11 12  2  0
 11 17  1  0
 12 13  1  0
 13 14  2  0
 14 15  1  0
 14 16  1  0
 16 17  2  0
M  END
$$$$
