
     RDKit          3D

 17 18  0  0  0  0  0  0  0  0999 V2000
   -5.8686    5.8459   -1.5502 C   0  0  0  0  0  0  0  0  0  0  0  0
   -2.3887    7.5339   -1.3957 C   0  0  0  0  0  0  0  0  0  0  0  0
   -0.6431    8.9210   -1.5078 C   0  0  0  0  0  0  0  0  0  0  0  0
   -1.1715    9.7263   -0.5208 C   0  0  0  0  0  0  0  0  0  0  0  0
   -4.9333    7.7700   -0.4532 O   0  0  0  0  0  0  0  0  0  0  0  0
   -4.7451    6.7254   -1.1560 C   0  0  0  0  0  0  0  0  0  0  0  0
   -6.8580    5.7242   -0.4228 C   0  0  0  0  0  0  0  0  0  0  0  0
   -3.4139    6.4541   -1.5361 N   0  0  0  0  0  0  0  0  0  0  0  0
   -2.7550    8.8598   -0.1143 S   0  0  0  0  0  0  0  0  0  0  0  0
   -1.3953    7.8785   -1.8055 N   0  0  0  0  0  0  0  0  0  0  0  0
    0.6688    9.2519   -2.1458 C   0  0  0  0  0  0  0  0  0  0  0  0
    1.1666    8.4362   -3.1394 C   0  0  0  0  0  0  0  0  0  0  0  0
    2.3929    8.7228   -3.7537 C   0  0  0  0  0  0  0  0  0  0  0  0
    3.1224    9.8356   -3.3668 C   0  0  0  0  0  0  0  0  0  0  0  0
    4.6586   10.2533   -4.0895 Cl  0  0  0  0  0  0  0  0  0  0  0  0
    2.5982   10.6405   -2.3636 C   0  0  0  0  0  0  0  0  0  0  0  0
    1.3936   10.3511   -1.7665 C   0  0  0  0  0  0  0  0  0  0  0  0
  1  6  1  1
  7  1  1  6
  8  2  1  0
  2  9  1  0
  2 10  2  0
  3  4  2  0
 10  3  1  0
  3 11  1  0
  9  4  1  0
  6  5  2  0
  6  8  1  0
 11 12  2  0
 11 17  1  0
 12 13  1  0
 13 14  2  0
 14 15  1  0
 14 16  1  0
 16 17  2  0
M  END
$$$$
