
     RDKit          3D

 17 18  0  0  0  0  0  0  0  0999 V2000
   -6.2771    6.0052   -1.4927 C   0  0  0  0  0  0  0  0  0  0  0  0
   -2.7720    7.5743   -1.0158 C   0  0  0  0  0  0  0  0  0  0  0  0
   -0.7768    8.6468   -0.9171 C   0  0  0  0  0  0  0  0  0  0  0  0
   -1.1254    9.0514    0.3434 C   0  0  0  0  0  0  0  0  0  0  0  0
   -5.1416    7.1252    0.3116 O   0  0  0  0  0  0  0  0  0  0  0  0
   -5.0879    6.6585   -0.8543 C   0  0  0  0  0  0  0  0  0  0  0  0
   -6.4011    4.6146   -0.9292 C   0  0  0  0  0  0  0  0  0  0  0  0
   -3.8452    6.7805   -1.5368 N   0  0  0  0  0  0  0  0  0  0  0  0
   -2.6830    8.3263    0.5086 S   0  0  0  0  0  0  0  0  0  0  0  0
   -1.6262    7.9086   -1.5671 N   0  0  0  0  0  0  0  0  0  0  0  0
    0.5223    9.0354   -1.5214 C   0  0  0  0  0  0  0  0  0  0  0  0
    1.3483    9.9432   -0.9107 C   0  0  0  0  0  0  0  0  0  0  0  0
    2.5680   10.3403   -1.4296 C   0  0  0  0  0  0  0  0  0  0  0  0
    2.9850    9.8082   -2.6124 C   0  0  0  0  0  0  0  0  0  0  0  0
    4.5294   10.2968   -3.2906 Cl  0  0  0  0  0  0  0  0  0  0  0  0
    2.1729    8.8919   -3.2487 C   0  0  0  0  0  0  0  0  0  0  0  0
    0.9605    8.5070   -2.7183 C   0  0  0  0  0  0  0  0  0  0  0  0
  6  1  1  0
  1  7  1  0
  8  2  1  0
  2  9  1  0
  2 10  2  0
  3  4  2  0
 10  3  1  0
  3 11  1  0
  9  4  1  0
  6  5  2  0
  6  8  1  0
 11 12  2  0
 11 17  1  0
 12 13  1  0
 13 14  2  0
 14 15  1  0
 14 16  1  0
 16 17  2  0
M  END
$$$$
