
     RDKit          3D

 17 18  0  0  0  0  0  0  0  0999 V2000
   -6.1647    4.7663   -0.6931 C   0  0  0  0  0  0  0  0  0  0  0  0
   -3.4740    7.4306   -1.4495 C   0  0  0  0  0  0  0  0  0  0  0  0
   -1.7484    8.7982   -1.9904 C   0  0  0  0  0  0  0  0  0  0  0  0
   -2.5420    9.3065   -2.9833 C   0  0  0  0  0  0  0  0  0  0  0  0
   -6.1044    6.7875   -2.0008 O   0  0  0  0  0  0  0  0  0  0  0  0
   -5.5210    6.0271   -1.1875 C   0  0  0  0  0  0  0  0  0  0  0  0
   -7.3047    5.1512    0.2120 C   0  0  0  0  0  0  0  0  0  0  0  0
   -4.2221    6.4213   -0.7603 N   0  0  0  0  0  0  0  0  0  0  0  0
   -3.9825    8.3806   -2.7672 S   0  0  0  0  0  0  0  0  0  0  0  0
   -2.2489    7.8604   -1.2428 N   0  0  0  0  0  0  0  0  0  0  0  0
   -0.3673    9.2977   -1.7737 C   0  0  0  0  0  0  0  0  0  0  0  0
    0.1929    9.3217   -0.5228 C   0  0  0  0  0  0  0  0  0  0  0  0
    1.4741    9.7763   -0.2650 C   0  0  0  0  0  0  0  0  0  0  0  0
    2.2334   10.2285   -1.3019 C   0  0  0  0  0  0  0  0  0  0  0  0
    3.8624   10.8104   -0.9994 Cl  0  0  0  0  0  0  0  0  0  0  0  0
    1.6940   10.2155   -2.5719 C   0  0  0  0  0  0  0  0  0  0  0  0
    0.4159    9.7593   -2.8117 C   0  0  0  0  0  0  0  0  0  0  0  0
  6  1  1  0
  1  7  1  0
  8  2  1  0
  2  9  1  0
  2 10  2  0
  3  4  2  0
 10  3  1  0
  3 11  1  0
  9  4  1  0
  6  5  2  0
  6  8  1  0
 11 12  2  0
 11 17  1  0
 12 13  1  0
 13 14  2  0
 14 15  1  0
 14 16  1  0
 16 17  2  0
M  END
$$$$
