
     RDKit          3D

 17 18  0  0  0  0  0  0  0  0999 V2000
   -5.9739    5.7166   -1.3615 C   0  0  0  0  0  0  0  0  0  0  0  0
   -2.7597    7.8553   -1.2851 C   0  0  0  0  0  0  0  0  0  0  0  0
   -0.7188    8.8403   -1.2124 C   0  0  0  0  0  0  0  0  0  0  0  0
   -1.0550    9.3059    0.0303 C   0  0  0  0  0  0  0  0  0  0  0  0
   -5.1108    7.4239    0.1012 O   0  0  0  0  0  0  0  0  0  0  0  0
   -4.9866    6.7744   -0.9677 C   0  0  0  0  0  0  0  0  0  0  0  0
   -7.3421    6.3445   -1.3855 C   0  0  0  0  0  0  0  0  0  0  0  0
   -3.8650    7.0919   -1.7840 N   0  0  0  0  0  0  0  0  0  0  0  0
   -2.6444    8.6578    0.2116 S   0  0  0  0  0  0  0  0  0  0  0  0
   -1.5974    8.1176   -1.8406 N   0  0  0  0  0  0  0  0  0  0  0  0
    0.5994    9.1480   -1.8219 C   0  0  0  0  0  0  0  0  0  0  0  0
    1.4413   10.0763   -1.2663 C   0  0  0  0  0  0  0  0  0  0  0  0
    2.6792   10.4009   -1.7925 C   0  0  0  0  0  0  0  0  0  0  0  0
    3.0986    9.7713   -2.9255 C   0  0  0  0  0  0  0  0  0  0  0  0
    4.6658   10.1666   -3.6120 Cl  0  0  0  0  0  0  0  0  0  0  0  0
    2.2707    8.8322   -3.5058 C   0  0  0  0  0  0  0  0  0  0  0  0
    1.0404    8.5204   -2.9689 C   0  0  0  0  0  0  0  0  0  0  0  0
  6  1  1  0
  1  7  1  0
  8  2  1  0
  2  9  1  0
  2 10  2  0
  3  4  2  0
 10  3  1  0
  3 11  1  0
  9  4  1  0
  6  5  2  0
  6  8  1  0
 11 12  2  0
 11 17  1  0
 12 13  1  0
 13 14  2  0
 14 15  1  0
 14 16  1  0
 16 17  2  0
M  END
$$$$
