
     RDKit          3D

 17 18  0  0  0  0  0  0  0  0999 V2000
   -6.1483    5.1187   -0.1537 C   0  0  0  0  0  0  0  0  0  0  0  0
   -3.3361    7.4432   -1.4437 C   0  0  0  0  0  0  0  0  0  0  0  0
   -1.5393    8.6025   -2.1974 C   0  0  0  0  0  0  0  0  0  0  0  0
   -2.2365    8.8109   -3.3569 C   0  0  0  0  0  0  0  0  0  0  0  0
   -5.8086    6.4478   -2.1329 O   0  0  0  0  0  0  0  0  0  0  0  0
   -5.3897    6.0957   -1.0013 C   0  0  0  0  0  0  0  0  0  0  0  0
   -7.5966    5.5301   -0.1545 C   0  0  0  0  0  0  0  0  0  0  0  0
   -4.1624    6.6691   -0.5653 N   0  0  0  0  0  0  0  0  0  0  0  0
   -3.7120    7.9838   -3.0133 S   0  0  0  0  0  0  0  0  0  0  0  0
   -2.1219    7.9134   -1.2622 N   0  0  0  0  0  0  0  0  0  0  0  0
   -0.1689    9.1424   -2.0126 C   0  0  0  0  0  0  0  0  0  0  0  0
    0.6748    9.3231   -3.0779 C   0  0  0  0  0  0  0  0  0  0  0  0
    1.9602    9.8221   -2.9620 C   0  0  0  0  0  0  0  0  0  0  0  0
    2.4276   10.1571   -1.7269 C   0  0  0  0  0  0  0  0  0  0  0  0
    4.0556   10.7924   -1.5549 Cl  0  0  0  0  0  0  0  0  0  0  0  0
    1.5991    9.9854   -0.6369 C   0  0  0  0  0  0  0  0  0  0  0  0
    0.3211    9.4870   -0.7695 C   0  0  0  0  0  0  0  0  0  0  0  0
  6  1  1  0
  1  7  1  0
  8  2  1  0
  2  9  1  0
  2 10  2  0
  3  4  2  0
 10  3  1  0
  3 11  1  0
  9  4  1  0
  6  5  2  0
  6  8  1  0
 11 12  2  0
 11 17  1  0
 12 13  1  0
 13 14  2  0
 14 15  1  0
 14 16  1  0
 16 17  2  0
M  END
$$$$
