
     RDKit          3D

 17 18  0  0  0  0  0  0  0  0999 V2000
   -5.4928    5.1809   -0.6501 C   0  0  0  0  0  0  0  0  0  0  0  0
   -2.7932    7.7655   -1.5509 C   0  0  0  0  0  0  0  0  0  0  0  0
   -1.0452    9.1795   -1.8436 C   0  0  0  0  0  0  0  0  0  0  0  0
   -1.7915   10.1362   -1.2097 C   0  0  0  0  0  0  0  0  0  0  0  0
   -5.4938    7.5760   -0.9006 O   0  0  0  0  0  0  0  0  0  0  0  0
   -4.8783    6.4899   -1.0470 C   0  0  0  0  0  0  0  0  0  0  0  0
   -6.6652    4.9239   -1.5591 C   0  0  0  0  0  0  0  0  0  0  0  0
   -3.5721    6.5640   -1.6069 N   0  0  0  0  0  0  0  0  0  0  0  0
   -3.2398    9.2605   -0.8707 S   0  0  0  0  0  0  0  0  0  0  0  0
   -1.5797    8.0048   -1.9963 N   0  0  0  0  0  0  0  0  0  0  0  0
    0.3236    9.4704   -2.3390 C   0  0  0  0  0  0  0  0  0  0  0  0
    0.6906   10.7366   -2.7148 C   0  0  0  0  0  0  0  0  0  0  0  0
    1.9513   11.0625   -3.1829 C   0  0  0  0  0  0  0  0  0  0  0  0
    2.8910   10.0810   -3.2814 C   0  0  0  0  0  0  0  0  0  0  0  0
    4.4980   10.4704   -3.8728 Cl  0  0  0  0  0  0  0  0  0  0  0  0
    2.5484    8.7970   -2.9098 C   0  0  0  0  0  0  0  0  0  0  0  0
    1.2879    8.4891   -2.4455 C   0  0  0  0  0  0  0  0  0  0  0  0
  6  1  1  0
  1  7  1  0
  8  2  1  0
  2  9  1  0
  2 10  2  0
  3  4  2  0
 10  3  1  0
  3 11  1  0
  9  4  1  0
  6  5  2  0
  6  8  1  0
 11 12  2  0
 11 17  1  0
 12 13  1  0
 13 14  2  0
 14 15  1  0
 14 16  1  0
 16 17  2  0
M  END
$$$$
