
     RDKit          3D

 17 18  0  0  0  0  0  0  0  0999 V2000
   -5.9257    5.5405   -0.6104 C   0  0  0  0  0  0  0  0  0  0  0  0
   -2.7927    7.5855   -1.6533 C   0  0  0  0  0  0  0  0  0  0  0  0
   -1.2035    9.0106   -2.3070 C   0  0  0  0  0  0  0  0  0  0  0  0
   -2.0571   10.0848   -2.1689 C   0  0  0  0  0  0  0  0  0  0  0  0
   -5.4684    7.7964   -1.3046 O   0  0  0  0  0  0  0  0  0  0  0  0
   -5.0282    6.6262   -1.0652 C   0  0  0  0  0  0  0  0  0  0  0  0
   -7.3352    5.8000   -1.0697 C   0  0  0  0  0  0  0  0  0  0  0  0
   -3.6453    6.4227   -1.2564 N   0  0  0  0  0  0  0  0  0  0  0  0
   -3.6179    9.2736   -1.5950 S   0  0  0  0  0  0  0  0  0  0  0  0
   -1.7530    7.8498   -2.0036 N   0  0  0  0  0  0  0  0  0  0  0  0
    0.2073    9.2070   -2.7637 C   0  0  0  0  0  0  0  0  0  0  0  0
    1.0641    8.1280   -2.8078 C   0  0  0  0  0  0  0  0  0  0  0  0
    2.3906    8.2838   -3.2315 C   0  0  0  0  0  0  0  0  0  0  0  0
    2.8579    9.5315   -3.6129 C   0  0  0  0  0  0  0  0  0  0  0  0
    4.4996    9.7986   -4.1517 Cl  0  0  0  0  0  0  0  0  0  0  0  0
    1.9740   10.6015   -3.5590 C   0  0  0  0  0  0  0  0  0  0  0  0
    0.6737   10.4387   -3.1417 C   0  0  0  0  0  0  0  0  0  0  0  0
  1  6  1  1
  7  1  1  6
  8  2  1  0
  2  9  1  0
  2 10  2  0
  3  4  2  0
 10  3  1  0
  3 11  1  0
  9  4  1  0
  6  5  2  0
  6  8  1  0
 11 12  2  0
 11 17  1  0
 12 13  1  0
 13 14  2  0
 14 15  1  0
 14 16  1  0
 16 17  2  0
M  END
$$$$
