
     RDKit          3D

 17 18  0  0  0  0  0  0  0  0999 V2000
   -6.0682    4.9251   -1.4688 C   0  0  0  0  0  0  0  0  0  0  0  0
   -3.3355    7.6415   -1.7546 C   0  0  0  0  0  0  0  0  0  0  0  0
   -1.6443    9.1151   -2.0850 C   0  0  0  0  0  0  0  0  0  0  0  0
   -2.5831    9.9944   -2.5534 C   0  0  0  0  0  0  0  0  0  0  0  0
   -6.0754    7.3092   -1.8087 O   0  0  0  0  0  0  0  0  0  0  0  0
   -5.4118    6.2699   -1.5646 C   0  0  0  0  0  0  0  0  0  0  0  0
   -6.9903    4.9424   -0.2786 C   0  0  0  0  0  0  0  0  0  0  0  0
   -4.0097    6.4325   -1.3842 N   0  0  0  0  0  0  0  0  0  0  0  0
   -4.0255    9.0596   -2.3953 S   0  0  0  0  0  0  0  0  0  0  0  0
   -2.0583    7.9469   -1.6940 N   0  0  0  0  0  0  0  0  0  0  0  0
   -0.2066    9.4798   -2.0248 C   0  0  0  0  0  0  0  0  0  0  0  0
    0.3478   10.3423   -2.9348 C   0  0  0  0  0  0  0  0  0  0  0  0
    1.6802   10.7155   -2.9244 C   0  0  0  0  0  0  0  0  0  0  0  0
    2.4992   10.2059   -1.9624 C   0  0  0  0  0  0  0  0  0  0  0  0
    4.1939   10.6649   -1.9290 Cl  0  0  0  0  0  0  0  0  0  0  0  0
    1.9671    9.3352   -1.0335 C   0  0  0  0  0  0  0  0  0  0  0  0
    0.6376    8.9735   -1.0578 C   0  0  0  0  0  0  0  0  0  0  0  0
  6  1  1  0
  1  7  1  0
  8  2  1  0
  2  9  1  0
  2 10  2  0
  3  4  2  0
 10  3  1  0
  3 11  1  0
  9  4  1  0
  6  5  2  0
  6  8  1  0
 11 12  2  0
 11 17  1  0
 12 13  1  0
 13 14  2  0
 14 15  1  0
 14 16  1  0
 16 17  2  0
M  END
$$$$
