
     RDKit          3D

 17 18  0  0  0  0  0  0  0  0999 V2000
   -5.8904    5.5240   -1.6563 C   0  0  0  0  0  0  0  0  0  0  0  0
   -2.6127    7.5270   -1.2884 C   0  0  0  0  0  0  0  0  0  0  0  0
   -0.7874    8.8344   -1.6040 C   0  0  0  0  0  0  0  0  0  0  0  0
   -1.3361    9.7118   -0.7078 C   0  0  0  0  0  0  0  0  0  0  0  0
   -5.2733    7.5615   -0.5307 O   0  0  0  0  0  0  0  0  0  0  0  0
   -4.9053    6.5473   -1.1757 C   0  0  0  0  0  0  0  0  0  0  0  0
   -7.1663    5.7064   -0.8780 C   0  0  0  0  0  0  0  0  0  0  0  0
   -3.5105    6.4187   -1.4266 N   0  0  0  0  0  0  0  0  0  0  0  0
   -2.8047    8.9008   -0.3019 S   0  0  0  0  0  0  0  0  0  0  0  0
   -1.4552    7.7517   -1.8698 N   0  0  0  0  0  0  0  0  0  0  0  0
    0.5213    9.1071   -2.2494 C   0  0  0  0  0  0  0  0  0  0  0  0
    1.3925   10.0296   -1.7306 C   0  0  0  0  0  0  0  0  0  0  0  0
    2.6232   10.3221   -2.2913 C   0  0  0  0  0  0  0  0  0  0  0  0
    3.0045    9.6649   -3.4221 C   0  0  0  0  0  0  0  0  0  0  0  0
    4.5619   10.0192   -4.1520 Cl  0  0  0  0  0  0  0  0  0  0  0  0
    2.1465    8.7309   -3.9658 C   0  0  0  0  0  0  0  0  0  0  0  0
    0.9239    8.4512   -3.3948 C   0  0  0  0  0  0  0  0  0  0  0  0
  6  1  1  0
  1  7  1  0
  8  2  1  0
  2  9  1  0
  2 10  2  0
  3  4  2  0
 10  3  1  0
  3 11  1  0
  9  4  1  0
  6  5  2  0
  6  8  1  0
 11 12  2  0
 11 17  1  0
 12 13  1  0
 13 14  2  0
 14 15  1  0
 14 16  1  0
 16 17  2  0
M  END
$$$$
