
     RDKit          3D

 17 18  0  0  0  0  0  0  0  0999 V2000
   -6.1620    5.6984   -1.5285 C   0  0  0  0  0  0  0  0  0  0  0  0
   -2.9594    7.8669   -1.6780 C   0  0  0  0  0  0  0  0  0  0  0  0
   -1.1130    9.1454   -1.9890 C   0  0  0  0  0  0  0  0  0  0  0  0
   -1.7299   10.1112   -1.2403 C   0  0  0  0  0  0  0  0  0  0  0  0
   -5.4879    7.8124   -0.5926 O   0  0  0  0  0  0  0  0  0  0  0  0
   -5.1764    6.7976   -1.2657 C   0  0  0  0  0  0  0  0  0  0  0  0
   -6.5351    5.0834   -0.2058 C   0  0  0  0  0  0  0  0  0  0  0  0
   -3.8449    6.7436   -1.7649 N   0  0  0  0  0  0  0  0  0  0  0  0
   -3.2272    9.3386   -0.8657 S   0  0  0  0  0  0  0  0  0  0  0  0
   -1.7591    8.0353   -2.1870 N   0  0  0  0  0  0  0  0  0  0  0  0
    0.2433    9.3556   -2.5549 C   0  0  0  0  0  0  0  0  0  0  0  0
    0.6890   10.6083   -2.8886 C   0  0  0  0  0  0  0  0  0  0  0  0
    1.9422   10.8603   -3.4185 C   0  0  0  0  0  0  0  0  0  0  0  0
    2.7915    9.8155   -3.6260 C   0  0  0  0  0  0  0  0  0  0  0  0
    4.3871   10.1105   -4.2975 Cl  0  0  0  0  0  0  0  0  0  0  0  0
    2.3683    8.5435   -3.2988 C   0  0  0  0  0  0  0  0  0  0  0  0
    1.1166    8.3096   -2.7717 C   0  0  0  0  0  0  0  0  0  0  0  0
  6  1  1  0
  1  7  1  0
  8  2  1  0
  2  9  1  0
  2 10  2  0
  3  4  2  0
 10  3  1  0
  3 11  1  0
  9  4  1  0
  6  5  2  0
  6  8  1  0
 11 12  2  0
 11 17  1  0
 12 13  1  0
 13 14  2  0
 14 15  1  0
 14 16  1  0
 16 17  2  0
M  END
$$$$
