
     RDKit          3D

 17 18  0  0  0  0  0  0  0  0999 V2000
   -5.7072    6.0253   -0.1694 C   0  0  0  0  0  0  0  0  0  0  0  0
   -2.5896    7.8807   -1.5553 C   0  0  0  0  0  0  0  0  0  0  0  0
   -1.0036    9.1990   -2.4100 C   0  0  0  0  0  0  0  0  0  0  0  0
   -1.8363   10.2971   -2.3597 C   0  0  0  0  0  0  0  0  0  0  0  0
   -5.2491    8.1747   -1.1443 O   0  0  0  0  0  0  0  0  0  0  0  0
   -4.8152    7.0328   -0.7861 C   0  0  0  0  0  0  0  0  0  0  0  0
   -6.9712    5.8836   -0.9736 C   0  0  0  0  0  0  0  0  0  0  0  0
   -3.4447    6.7824   -1.0082 N   0  0  0  0  0  0  0  0  0  0  0  0
   -3.3878    9.5801   -1.6510 S   0  0  0  0  0  0  0  0  0  0  0  0
   -1.5590    8.0873   -1.9660 N   0  0  0  0  0  0  0  0  0  0  0  0
    0.3932    9.3201   -2.9314 C   0  0  0  0  0  0  0  0  0  0  0  0
    1.2475    8.2417   -2.8438 C   0  0  0  0  0  0  0  0  0  0  0  0
    2.5609    8.3278   -3.3242 C   0  0  0  0  0  0  0  0  0  0  0  0
    3.0176    9.5047   -3.8958 C   0  0  0  0  0  0  0  0  0  0  0  0
    4.6428    9.6827   -4.5155 Cl  0  0  0  0  0  0  0  0  0  0  0  0
    2.1365   10.5757   -3.9716 C   0  0  0  0  0  0  0  0  0  0  0  0
    0.8491   10.4817   -3.4973 C   0  0  0  0  0  0  0  0  0  0  0  0
  1  6  1  1
  7  1  1  6
  8  2  1  0
  2  9  1  0
  2 10  2  0
  3  4  2  0
 10  3  1  0
  3 11  1  0
  9  4  1  0
  6  5  2  0
  6  8  1  0
 11 12  2  0
 11 17  1  0
 12 13  1  0
 13 14  2  0
 14 15  1  0
 14 16  1  0
 16 17  2  0
M  END
$$$$
