
     RDKit          3D

 17 18  0  0  0  0  0  0  0  0999 V2000
   -6.2674    6.0190   -1.4113 C   0  0  0  0  0  0  0  0  0  0  0  0
   -2.7690    7.6877   -1.6134 C   0  0  0  0  0  0  0  0  0  0  0  0
   -0.9215    8.9407   -1.6091 C   0  0  0  0  0  0  0  0  0  0  0  0
   -1.4083    9.7219   -0.5821 C   0  0  0  0  0  0  0  0  0  0  0  0
   -5.0999    7.7588   -0.2324 O   0  0  0  0  0  0  0  0  0  0  0  0
   -5.0799    6.8567   -1.1303 C   0  0  0  0  0  0  0  0  0  0  0  0
   -6.8693    5.5168   -0.1267 C   0  0  0  0  0  0  0  0  0  0  0  0
   -3.8698    6.7005   -1.8385 N   0  0  0  0  0  0  0  0  0  0  0  0
   -3.0611    8.9563   -0.2572 S   0  0  0  0  0  0  0  0  0  0  0  0
   -1.7440    7.9794   -1.9843 N   0  0  0  0  0  0  0  0  0  0  0  0
    0.4250    9.2085   -2.2031 C   0  0  0  0  0  0  0  0  0  0  0  0
    1.0518   10.4104   -1.9526 C   0  0  0  0  0  0  0  0  0  0  0  0
    2.3131   10.6872   -2.4964 C   0  0  0  0  0  0  0  0  0  0  0  0
    2.9474    9.7502   -3.2965 C   0  0  0  0  0  0  0  0  0  0  0  0
    4.5203   10.0284   -4.0075 Cl  0  0  0  0  0  0  0  0  0  0  0  0
    2.2939    8.5477   -3.5330 C   0  0  0  0  0  0  0  0  0  0  0  0
    1.0559    8.2851   -2.9948 C   0  0  0  0  0  0  0  0  0  0  0  0
  1  6  1  1
  7  1  1  6
  8  2  1  0
  2  9  1  0
  2 10  2  0
  3  4  2  0
 10  3  1  0
  3 11  1  0
  9  4  1  0
  6  5  2  0
  6  8  1  0
 11 12  2  0
 11 17  1  0
 12 13  1  0
 13 14  2  0
 14 15  1  0
 14 16  1  0
 16 17  2  0
M  END
$$$$
