
     RDKit          3D

 17 18  0  0  0  0  0  0  0  0999 V2000
   -5.6527    5.2025   -1.2635 C   0  0  0  0  0  0  0  0  0  0  0  0
   -2.6318    7.5838   -1.4276 C   0  0  0  0  0  0  0  0  0  0  0  0
   -0.6770    8.7326   -1.4282 C   0  0  0  0  0  0  0  0  0  0  0  0
   -1.0825    9.3039   -0.2521 C   0  0  0  0  0  0  0  0  0  0  0  0
   -5.1024    7.2889   -0.1941 O   0  0  0  0  0  0  0  0  0  0  0  0
   -4.8157    6.4311   -1.0671 C   0  0  0  0  0  0  0  0  0  0  0  0
   -6.9126    5.6089   -1.9808 C   0  0  0  0  0  0  0  0  0  0  0  0
   -3.6598    6.6831   -1.8580 N   0  0  0  0  0  0  0  0  0  0  0  0
   -2.6208    8.5534   -0.0287 S   0  0  0  0  0  0  0  0  0  0  0  0
   -1.4788    7.8762   -1.9875 N   0  0  0  0  0  0  0  0  0  0  0  0
    0.6293    9.0766   -2.0438 C   0  0  0  0  0  0  0  0  0  0  0  0
    1.4930    9.9522   -1.4384 C   0  0  0  0  0  0  0  0  0  0  0  0
    2.7212   10.3072   -1.9678 C   0  0  0  0  0  0  0  0  0  0  0  0
    3.1075    9.7646   -3.1563 C   0  0  0  0  0  0  0  0  0  0  0  0
    4.6619   10.1999   -3.8479 Cl  0  0  0  0  0  0  0  0  0  0  0  0
    2.2572    8.8800   -3.7874 C   0  0  0  0  0  0  0  0  0  0  0  0
    1.0370    8.5368   -3.2466 C   0  0  0  0  0  0  0  0  0  0  0  0
  6  1  1  0
  1  7  1  0
  8  2  1  0
  2  9  1  0
  2 10  2  0
  3  4  2  0
 10  3  1  0
  3 11  1  0
  9  4  1  0
  6  5  2  0
  6  8  1  0
 11 12  2  0
 11 17  1  0
 12 13  1  0
 13 14  2  0
 14 15  1  0
 14 16  1  0
 16 17  2  0
M  END
$$$$
