
     RDKit          3D

 17 18  0  0  0  0  0  0  0  0999 V2000
   -5.8221    5.8758   -1.1620 C   0  0  0  0  0  0  0  0  0  0  0  0
   -2.4541    7.7749   -1.3705 C   0  0  0  0  0  0  0  0  0  0  0  0
   -0.4296    8.7842   -1.5230 C   0  0  0  0  0  0  0  0  0  0  0  0
   -0.7289    9.4258   -0.3514 C   0  0  0  0  0  0  0  0  0  0  0  0
   -4.8082    7.6937    0.0491 O   0  0  0  0  0  0  0  0  0  0  0  0
   -4.7323    6.8715   -0.8987 C   0  0  0  0  0  0  0  0  0  0  0  0
   -5.6377    5.3442   -2.5585 C   0  0  0  0  0  0  0  0  0  0  0  0
   -3.5631    6.9325   -1.7077 N   0  0  0  0  0  0  0  0  0  0  0  0
   -2.2992    8.7930   -0.0152 S   0  0  0  0  0  0  0  0  0  0  0  0
   -1.3174    7.9653   -2.0028 N   0  0  0  0  0  0  0  0  0  0  0  0
    0.8602    9.0133   -2.2213 C   0  0  0  0  0  0  0  0  0  0  0  0
    1.6712   10.0680   -1.8908 C   0  0  0  0  0  0  0  0  0  0  0  0
    2.8818   10.3274   -2.5087 C   0  0  0  0  0  0  0  0  0  0  0  0
    3.3049    9.4973   -3.5027 C   0  0  0  0  0  0  0  0  0  0  0  0
    4.8379    9.8062   -4.3016 Cl  0  0  0  0  0  0  0  0  0  0  0  0
    2.5079    8.4275   -3.8556 C   0  0  0  0  0  0  0  0  0  0  0  0
    1.3046    8.1831   -3.2300 C   0  0  0  0  0  0  0  0  0  0  0  0
  6  1  1  0
  1  7  1  0
  8  2  1  0
  2  9  1  0
  2 10  2  0
  3  4  2  0
 10  3  1  0
  3 11  1  0
  9  4  1  0
  6  5  2  0
  6  8  1  0
 11 12  2  0
 11 17  1  0
 12 13  1  0
 13 14  2  0
 14 15  1  0
 14 16  1  0
 16 17  2  0
M  END
$$$$
