
     RDKit          3D

 17 18  0  0  0  0  0  0  0  0999 V2000
   -6.3734    5.3182   -1.7609 C   0  0  0  0  0  0  0  0  0  0  0  0
   -3.3124    7.5475   -1.0022 C   0  0  0  0  0  0  0  0  0  0  0  0
   -1.5782    9.0073   -0.9534 C   0  0  0  0  0  0  0  0  0  0  0  0
   -2.2847    9.7214   -0.0234 C   0  0  0  0  0  0  0  0  0  0  0  0
   -5.9535    7.1732   -0.2838 O   0  0  0  0  0  0  0  0  0  0  0  0
   -5.4930    6.3377   -1.1023 C   0  0  0  0  0  0  0  0  0  0  0  0
   -6.8715    4.3775   -0.6960 C   0  0  0  0  0  0  0  0  0  0  0  0
   -4.0975    6.4072   -1.3722 N   0  0  0  0  0  0  0  0  0  0  0  0
   -3.7151    8.7656    0.1165 S   0  0  0  0  0  0  0  0  0  0  0  0
   -2.1246    7.9246   -1.4207 N   0  0  0  0  0  0  0  0  0  0  0  0
   -0.2380    9.4507   -1.4126 C   0  0  0  0  0  0  0  0  0  0  0  0
    0.2735    9.0409   -2.6166 C   0  0  0  0  0  0  0  0  0  0  0  0
    1.5153    9.4235   -3.0923 C   0  0  0  0  0  0  0  0  0  0  0  0
    2.2841   10.2534   -2.3331 C   0  0  0  0  0  0  0  0  0  0  0  0
    3.8636   10.7527   -2.9158 Cl  0  0  0  0  0  0  0  0  0  0  0  0
    1.7934   10.6812   -1.1164 C   0  0  0  0  0  0  0  0  0  0  0  0
    0.5542   10.2907   -0.6571 C   0  0  0  0  0  0  0  0  0  0  0  0
  6  1  1  0
  1  7  1  0
  8  2  1  0
  2  9  1  0
  2 10  2  0
  3  4  2  0
 10  3  1  0
  3 11  1  0
  9  4  1  0
  6  5  2  0
  6  8  1  0
 11 12  2  0
 11 17  1  0
 12 13  1  0
 13 14  2  0
 14 15  1  0
 14 16  1  0
 16 17  2  0
M  END
$$$$
