
     RDKit          3D

 17 18  0  0  0  0  0  0  0  0999 V2000
   -6.0012    5.6444   -1.6357 C   0  0  0  0  0  0  0  0  0  0  0  0
   -2.7503    7.7518   -1.5543 C   0  0  0  0  0  0  0  0  0  0  0  0
   -0.8291    8.9551   -1.5928 C   0  0  0  0  0  0  0  0  0  0  0  0
   -1.2730    9.5862   -0.4620 C   0  0  0  0  0  0  0  0  0  0  0  0
   -5.1782    7.4722   -0.3011 O   0  0  0  0  0  0  0  0  0  0  0  0
   -4.9810    6.6742   -1.2521 C   0  0  0  0  0  0  0  0  0  0  0  0
   -7.1323    5.7199   -0.6448 C   0  0  0  0  0  0  0  0  0  0  0  0
   -3.7442    6.7964   -1.9452 N   0  0  0  0  0  0  0  0  0  0  0  0
   -2.7935    8.8063   -0.2188 S   0  0  0  0  0  0  0  0  0  0  0  0
   -1.5955    8.0425   -2.1112 N   0  0  0  0  0  0  0  0  0  0  0  0
    0.4786    9.2984   -2.2059 C   0  0  0  0  0  0  0  0  0  0  0  0
    0.9388    8.6399   -3.3167 C   0  0  0  0  0  0  0  0  0  0  0  0
    2.1485    8.9195   -3.9276 C   0  0  0  0  0  0  0  0  0  0  0  0
    2.9372    9.9012   -3.4078 C   0  0  0  0  0  0  0  0  0  0  0  0
    4.4767   10.2740   -4.1658 Cl  0  0  0  0  0  0  0  0  0  0  0  0
    2.4981   10.5803   -2.2897 C   0  0  0  0  0  0  0  0  0  0  0  0
    1.2903   10.2894   -1.6932 C   0  0  0  0  0  0  0  0  0  0  0  0
  6  1  1  0
  1  7  1  0
  8  2  1  0
  2  9  1  0
  2 10  2  0
  3  4  2  0
 10  3  1  0
  3 11  1  0
  9  4  1  0
  6  5  2  0
  6  8  1  0
 11 12  2  0
 11 17  1  0
 12 13  1  0
 13 14  2  0
 14 15  1  0
 14 16  1  0
 16 17  2  0
M  END
$$$$
