
     RDKit          3D

 17 18  0  0  0  0  0  0  0  0999 V2000
   -6.4127    6.3397   -1.1191 C   0  0  0  0  0  0  0  0  0  0  0  0
   -2.8476    7.8522   -1.4222 C   0  0  0  0  0  0  0  0  0  0  0  0
   -0.8392    8.8178   -1.2890 C   0  0  0  0  0  0  0  0  0  0  0  0
   -1.1189    9.3134   -0.0328 C   0  0  0  0  0  0  0  0  0  0  0  0
   -4.9687    7.6890    0.2500 O   0  0  0  0  0  0  0  0  0  0  0  0
   -5.1537    7.0688   -0.8462 C   0  0  0  0  0  0  0  0  0  0  0  0
   -6.1186    4.9179   -1.5149 C   0  0  0  0  0  0  0  0  0  0  0  0
   -4.0981    7.1146   -1.7810 N   0  0  0  0  0  0  0  0  0  0  0  0
   -2.8358    8.6894    0.2610 S   0  0  0  0  0  0  0  0  0  0  0  0
   -1.8238    8.1157   -1.8171 N   0  0  0  0  0  0  0  0  0  0  0  0
    0.4796    9.0859   -1.9420 C   0  0  0  0  0  0  0  0  0  0  0  0
    1.4204    9.8503   -1.2855 C   0  0  0  0  0  0  0  0  0  0  0  0
    2.6637   10.1169   -1.8742 C   0  0  0  0  0  0  0  0  0  0  0  0
    2.9624    9.6121   -3.1297 C   0  0  0  0  0  0  0  0  0  0  0  0
    4.4925    9.9048   -3.9235 Cl  0  0  0  0  0  0  0  0  0  0  0  0
    1.9969    8.8452   -3.7691 C   0  0  0  0  0  0  0  0  0  0  0  0
    0.7793    8.5889   -3.1832 C   0  0  0  0  0  0  0  0  0  0  0  0
  1  6  1  1
  7  1  1  6
  8  2  1  0
  2  9  1  0
  2 10  2  0
  3  4  2  0
 10  3  1  0
  3 11  1  0
  9  4  1  0
  6  5  2  0
  6  8  1  0
 11 12  2  0
 11 17  1  0
 12 13  1  0
 13 14  2  0
 14 15  1  0
 14 16  1  0
 16 17  2  0
M  END
$$$$
