
     RDKit          3D

 17 18  0  0  0  0  0  0  0  0999 V2000
   -5.8877    5.6583   -1.2503 C   0  0  0  0  0  0  0  0  0  0  0  0
   -2.4388    7.4007   -1.6437 C   0  0  0  0  0  0  0  0  0  0  0  0
   -0.5930    8.6555   -1.6885 C   0  0  0  0  0  0  0  0  0  0  0  0
   -0.9894    9.3458   -0.5624 C   0  0  0  0  0  0  0  0  0  0  0  0
   -4.8271    7.6381   -0.3926 O   0  0  0  0  0  0  0  0  0  0  0  0
   -4.7601    6.6110   -1.1416 C   0  0  0  0  0  0  0  0  0  0  0  0
   -7.1675    6.3937   -1.5435 C   0  0  0  0  0  0  0  0  0  0  0  0
   -3.5581    6.4322   -1.8582 N   0  0  0  0  0  0  0  0  0  0  0  0
   -2.6120    8.5499   -0.1660 S   0  0  0  0  0  0  0  0  0  0  0  0
   -1.4473    7.7262   -2.0731 N   0  0  0  0  0  0  0  0  0  0  0  0
    0.7001    8.9769   -2.3684 C   0  0  0  0  0  0  0  0  0  0  0  0
    1.4956    9.9880   -1.8732 C   0  0  0  0  0  0  0  0  0  0  0  0
    2.7115   10.3099   -2.4906 C   0  0  0  0  0  0  0  0  0  0  0  0
    3.1297    9.6112   -3.6119 C   0  0  0  0  0  0  0  0  0  0  0  0
    4.6339    9.9590   -4.4323 Cl  0  0  0  0  0  0  0  0  0  0  0  0
    2.3094    8.5975   -4.0901 C   0  0  0  0  0  0  0  0  0  0  0  0
    1.1176    8.2888   -3.4773 C   0  0  0  0  0  0  0  0  0  0  0  0
  1  6  1  1
  7  1  1  6
  8  2  1  0
  2  9  1  0
  2 10  2  0
  3  4  2  0
 10  3  1  0
  3 11  1  0
  9  4  1  0
  6  5  2  0
  6  8  1  0
 11 12  2  0
 11 17  1  0
 12 13  1  0
 13 14  2  0
 14 15  1  0
 14 16  1  0
 16 17  2  0
M  END
$$$$
