
     RDKit          3D

 17 18  0  0  0  0  0  0  0  0999 V2000
   -6.7273    5.0627    0.8439 C   0  0  0  0  0  0  0  0  0  0  0  0
   -3.8521    6.7445   -1.1050 C   0  0  0  0  0  0  0  0  0  0  0  0
   -2.5094    8.2393   -2.0778 C   0  0  0  0  0  0  0  0  0  0  0  0
   -3.3612    8.3594   -3.1556 C   0  0  0  0  0  0  0  0  0  0  0  0
   -6.5305    6.1970   -1.2668 O   0  0  0  0  0  0  0  0  0  0  0  0
   -5.9537    5.6848   -0.2541 C   0  0  0  0  0  0  0  0  0  0  0  0
   -7.8457    4.2244    0.2862 C   0  0  0  0  0  0  0  0  0  0  0  0
   -4.5443    5.7427   -0.2367 N   0  0  0  0  0  0  0  0  0  0  0  0
   -4.7218    7.1865   -2.7120 S   0  0  0  0  0  0  0  0  0  0  0  0
   -2.9262    7.3873   -1.1604 N   0  0  0  0  0  0  0  0  0  0  0  0
   -1.2414    9.0302   -2.0118 C   0  0  0  0  0  0  0  0  0  0  0  0
   -0.6780    9.5099   -3.1749 C   0  0  0  0  0  0  0  0  0  0  0  0
    0.5092   10.2534   -3.1418 C   0  0  0  0  0  0  0  0  0  0  0  0
    1.1331   10.5159   -1.9326 C   0  0  0  0  0  0  0  0  0  0  0  0
    2.6152   11.4362   -1.8171 Cl  0  0  0  0  0  0  0  0  0  0  0  0
    0.5444   10.0211   -0.7760 C   0  0  0  0  0  0  0  0  0  0  0  0
   -0.6210    9.2922   -0.8185 C   0  0  0  0  0  0  0  0  0  0  0  0
  1  6  1  1
  7  1  1  6
  8  2  1  0
  2  9  1  0
  2 10  2  0
  3  4  2  0
 10  3  1  0
  3 11  1  0
  9  4  1  0
  6  5  2  0
  6  8  1  0
 11 12  2  0
 11 17  1  0
 12 13  1  0
 13 14  2  0
 14 15  1  0
 14 16  1  0
 16 17  2  0
M  END
$$$$
