
     RDKit          3D

 30 32  0  0  0  0  0  0  0  0999 V2000
  -28.0101   45.0833   12.9803 C   0  0  0  0  0  0  0  0  0  0  0  0
  -30.1335   44.5362   14.2338 C   0  0  0  0  0  0  0  0  0  0  0  0
  -30.8184   44.1329   15.5099 C   0  0  0  0  0  0  0  0  0  0  0  0
  -32.7736   47.9030   15.0373 C   0  0  0  0  0  0  0  0  0  0  0  0
  -33.0850   48.1168   17.5220 C   0  0  0  0  0  0  0  0  0  0  0  0
  -25.4081   46.0397    9.6567 C   0  0  0  0  0  0  0  0  0  0  0  0
  -26.3207   45.7124   10.7962 C   0  0  0  0  0  0  0  0  0  0  0  0
  -25.7912   45.3351   12.0257 C   0  0  0  0  0  0  0  0  0  0  0  0
  -26.6179   45.0315   13.0800 C   0  0  0  0  0  0  0  0  0  0  0  0
  -28.7595   44.7504   14.1342 N   0  0  0  0  0  0  0  0  0  0  0  0
  -30.8572   44.6786   13.2311 O   0  0  0  0  0  0  0  0  0  0  0  0
  -31.7781   45.1085   15.9271 N   0  0  0  0  0  0  0  0  0  0  0  0
  -33.1958   44.9471   15.8231 C   0  0  0  0  0  0  0  0  0  0  0  0
  -33.8095   43.9499   15.3621 O   0  0  0  0  0  0  0  0  0  0  0  0
  -33.8457   46.1077   16.3294 N   0  0  0  0  0  0  0  0  0  0  0  0
  -32.8664   47.1837   16.3686 C   0  0  1  0  0  0  0  0  0  0  0  0
  -31.5995   46.4030   16.5115 C   0  0  0  0  0  0  0  0  0  0  0  0
  -30.5029   46.7369   17.0405 O   0  0  0  0  0  0  0  0  0  0  0  0
  -28.5308   45.4496   11.7866 C   0  0  0  0  0  0  0  0  0  0  0  0
  -27.6875   45.7588   10.7123 C   0  0  0  0  0  0  0  0  0  0  0  0
  -28.4106   46.2316    9.1860 S   0  0  2  0  0  6  0  0  0  0  0  0
  -29.7812   45.5937    9.0716 O   0  0  0  0  0  0  0  0  0  0  0  0
  -27.5650   45.6870    8.0565 O   0  0  0  0  0  0  0  0  0  0  0  0
  -28.5719   47.9028    8.9945 N   0  0  0  0  0  0  0  0  0  0  0  0
  -27.9838   48.6894    9.9711 C   0  0  0  0  0  0  0  0  0  0  0  0
  -26.5905   49.2039    9.5851 C   0  0  0  0  0  0  0  0  0  0  0  0
  -26.6996   50.2302    8.4942 C   0  0  0  0  0  0  0  0  0  0  0  0
  -27.2474   49.6552    7.2137 C   0  0  0  0  0  0  0  0  0  0  0  0
  -28.7369   49.5811    7.1858 C   0  0  0  0  0  0  0  0  0  0  0  0
  -29.3191   48.4089    7.9384 C   0  0  0  0  0  0  0  0  0  0  0  0
  1  9  2  0
 10  1  1  0
  1 19  1  0
  3  2  1  0
  2 10  1  0
  2 11  2  0
  3 12  1  6
  4 16  1  6
  5 16  1  6
  6  7  1  6
  8  7  2  0
  7 20  1  0
  9  8  1  0
 13 12  1  0
 12 17  1  0
 13 14  2  0
 15 13  1  0
 16 15  1  6
 16 17  1  0
 17 18  2  0
 19 20  2  0
 20 21  1  0
 21 22  2  0
 21 23  2  0
 21 24  1  1
 25 24  1  1
 30 24  1  1
 26 25  1  1
 27 26  1  1
 28 27  1  1
 28 29  1  0
 29 30  1  6
M  END
$$$$
