
     RDKit          3D

 30 32  0  0  0  0  0  0  0  0999 V2000
  -26.1067   47.7501    8.9283 C   0  0  0  0  0  0  0  0  0  0  0  0
  -26.4952   46.8215   11.2238 C   0  0  0  0  0  0  0  0  0  0  0  0
  -26.3276   45.6183   12.1187 C   0  0  0  0  0  0  0  0  0  0  0  0
  -27.6859   43.5436    8.5844 C   0  0  0  0  0  0  0  0  0  0  0  0
  -28.6636   41.7471    9.9873 C   0  0  0  0  0  0  0  0  0  0  0  0
  -26.4551   50.5633    5.7173 C   0  0  0  0  0  0  0  0  0  0  0  0
  -26.3347   49.5904    6.8168 C   0  0  0  0  0  0  0  0  0  0  0  0
  -25.8672   48.3108    6.5698 C   0  0  0  0  0  0  0  0  0  0  0  0
  -25.7596   47.4191    7.6091 C   0  0  0  0  0  0  0  0  0  0  0  0
  -25.9565   46.7515    9.9267 N   0  0  0  0  0  0  0  0  0  0  0  0
  -27.0914   47.8362   11.6298 O   0  0  0  0  0  0  0  0  0  0  0  0
  -26.5663   44.3883   11.3935 N   0  0  0  0  0  0  0  0  0  0  0  0
  -25.6194   43.4650   10.8648 C   0  0  0  0  0  0  0  0  0  0  0  0
  -24.3556   43.5837   10.9520 O   0  0  0  0  0  0  0  0  0  0  0  0
  -26.3002   42.3847   10.2215 N   0  0  0  0  0  0  0  0  0  0  0  0
  -27.6399   42.8607    9.9448 C   0  0  1  0  0  0  0  0  0  0  0  0
  -27.8488   43.8302   11.0483 C   0  0  0  0  0  0  0  0  0  0  0  0
  -28.9394   44.1212   11.5920 O   0  0  0  0  0  0  0  0  0  0  0  0
  -26.5634   49.0232    9.1264 C   0  0  0  0  0  0  0  0  0  0  0  0
  -26.6869   49.9631    8.0872 C   0  0  0  0  0  0  0  0  0  0  0  0
  -27.2737   51.5578    8.3928 S   0  0  2  0  0  6  0  0  0  0  0  0
  -26.4481   52.6098    7.6844 O   0  0  0  0  0  0  0  0  0  0  0  0
  -27.0666   51.8507    9.8741 O   0  0  0  0  0  0  0  0  0  0  0  0
  -28.9387   51.7745    8.0076 N   0  0  0  0  0  0  0  0  0  0  0  0
  -29.1984   53.0422    7.4235 C   0  0  0  0  0  0  0  0  0  0  0  0
  -30.2267   53.8586    8.1761 C   0  0  0  0  0  0  0  0  0  0  0  0
  -31.6398   53.3691    7.9198 C   0  0  0  0  0  0  0  0  0  0  0  0
  -32.0600   52.3558    8.9403 C   0  0  0  0  0  0  0  0  0  0  0  0
  -31.1808   51.1434    8.8062 C   0  0  0  0  0  0  0  0  0  0  0  0
  -29.7418   51.4280    9.1340 C   0  0  0  0  0  0  0  0  0  0  0  0
  1  9  2  0
 10  1  1  0
  1 19  1  0
  3  2  1  0
  2 10  1  0
  2 11  2  0
 12  3  1  0
 16  4  1  6
 16  5  1  0
  7  6  1  0
  8  7  2  0
  7 20  1  0
  9  8  1  0
 13 12  1  0
 12 17  1  0
 13 14  2  0
 15 13  1  0
 15 16  1  0
 16 17  1  0
 17 18  2  0
 19 20  2  0
 20 21  1  0
 21 22  2  0
 21 23  2  0
 21 24  1  6
 24 25  1  0
 24 30  1  0
 25 26  1  0
 26 27  1  0
 27 28  1  0
 28 29  1  0
 29 30  1  0
M  END
$$$$
