
     RDKit          3D

 30 32  0  0  0  0  0  0  0  0999 V2000
  -28.2838   45.4641   13.0029 C   0  0  0  0  0  0  0  0  0  0  0  0
  -30.4793   44.5731   13.8779 C   0  0  0  0  0  0  0  0  0  0  0  0
  -31.3356   44.1467   15.0377 C   0  0  0  0  0  0  0  0  0  0  0  0
  -31.8862   45.1591   19.1525 C   0  0  0  0  0  0  0  0  0  0  0  0
  -30.2734   47.0765   18.9551 C   0  0  0  0  0  0  0  0  0  0  0  0
  -25.3343   46.8812   10.1703 C   0  0  0  0  0  0  0  0  0  0  0  0
  -26.3655   46.3922   11.1378 C   0  0  0  0  0  0  0  0  0  0  0  0
  -26.0096   46.1153   12.4535 C   0  0  0  0  0  0  0  0  0  0  0  0
  -26.9464   45.6653   13.3518 C   0  0  0  0  0  0  0  0  0  0  0  0
  -29.1588   44.9991   14.0139 N   0  0  0  0  0  0  0  0  0  0  0  0
  -31.0044   44.5330   12.7500 O   0  0  0  0  0  0  0  0  0  0  0  0
  -30.8461   44.6679   16.2770 N   0  0  0  0  0  0  0  0  0  0  0  0
  -29.8781   44.0163   17.1045 C   0  0  0  0  0  0  0  0  0  0  0  0
  -29.3166   42.9123   16.8822 O   0  0  0  0  0  0  0  0  0  0  0  0
  -29.6236   44.8120   18.2569 N   0  0  0  0  0  0  0  0  0  0  0  0
  -30.7197   45.7598   18.3930 C   0  0  1  0  0  0  0  0  0  0  0  0
  -31.1638   45.8792   16.9705 C   0  0  0  0  0  0  0  0  0  0  0  0
  -31.7317   46.8409   16.3820 O   0  0  0  0  0  0  0  0  0  0  0  0
  -28.6358   45.7316   11.7243 C   0  0  0  0  0  0  0  0  0  0  0  0
  -27.6802   46.1901   10.8091 C   0  0  0  0  0  0  0  0  0  0  0  0
  -28.1864   46.5262    9.1639 S   0  0  2  0  0  6  0  0  0  0  0  0
  -29.4619   45.7594    8.8745 O   0  0  0  0  0  0  0  0  0  0  0  0
  -27.1275   46.0132    8.2136 O   0  0  0  0  0  0  0  0  0  0  0  0
  -28.4557   48.1652    8.8527 N   0  0  0  0  0  0  0  0  0  0  0  0
  -27.3837   48.8730    8.3350 C   0  0  0  0  0  0  0  0  0  0  0  0
  -27.4215   49.0093    6.8069 C   0  0  0  0  0  0  0  0  0  0  0  0
  -28.5314   49.9335    6.3952 C   0  0  0  0  0  0  0  0  0  0  0  0
  -29.8928   49.3945    6.7504 C   0  0  0  0  0  0  0  0  0  0  0  0
  -30.2912   49.6711    8.1609 C   0  0  0  0  0  0  0  0  0  0  0  0
  -29.6782   48.7391    9.1783 C   0  0  0  0  0  0  0  0  0  0  0  0
  1  9  2  0
 10  1  1  0
  1 19  1  0
  3  2  1  0
  2 10  1  0
  2 11  2  0
  3 12  1  6
  4 16  1  6
  5 16  1  6
  6  7  1  6
  8  7  2  0
  7 20  1  0
  9  8  1  0
 13 12  1  0
 12 17  1  0
 13 14  2  0
 15 13  1  0
 16 15  1  6
 16 17  1  0
 17 18  2  0
 19 20  2  0
 20 21  1  0
 21 22  2  0
 21 23  2  0
 21 24  1  1
 25 24  1  1
 30 24  1  1
 26 25  1  1
 27 26  1  1
 28 27  1  1
 28 29  1  0
 29 30  1  6
M  END
$$$$
