
     RDKit          3D

 30 32  0  0  0  0  0  0  0  0999 V2000
  -30.0078   43.1112    8.8899 C   0  0  0  0  0  0  0  0  0  0  0  0
  -29.0149   44.4604   10.7802 C   0  0  0  0  0  0  0  0  0  0  0  0
  -28.1260   44.5364   11.9903 C   0  0  0  0  0  0  0  0  0  0  0  0
  -25.5347   46.6231    9.3087 C   0  0  0  0  0  0  0  0  0  0  0  0
  -23.5057   45.6076   10.3895 C   0  0  0  0  0  0  0  0  0  0  0  0
  -32.3084   42.2230    5.3333 C   0  0  0  0  0  0  0  0  0  0  0  0
  -31.5130   42.5460    6.5586 C   0  0  0  0  0  0  0  0  0  0  0  0
  -31.1277   41.5296    7.4263 C   0  0  0  0  0  0  0  0  0  0  0  0
  -30.3977   41.8125    8.5550 C   0  0  0  0  0  0  0  0  0  0  0  0
  -29.2560   43.2808   10.0774 N   0  0  0  0  0  0  0  0  0  0  0  0
  -29.5491   45.5222   10.4106 O   0  0  0  0  0  0  0  0  0  0  0  0
  -26.8843   45.1833   11.6956 N   0  0  0  0  0  0  0  0  0  0  0  0
  -26.4746   46.4395   12.2440 C   0  0  0  0  0  0  0  0  0  0  0  0
  -27.1207   47.1568   13.0511 O   0  0  0  0  0  0  0  0  0  0  0  0
  -25.1900   46.7841   11.7371 N   0  0  0  0  0  0  0  0  0  0  0  0
  -24.9500   45.9776   10.5497 C   0  0  1  0  0  0  0  0  0  0  0  0
  -25.8045   44.7866   10.8437 C   0  0  0  0  0  0  0  0  0  0  0  0
  -25.6815   43.5915   10.4560 O   0  0  0  0  0  0  0  0  0  0  0  0
  -30.3799   44.1040    8.0497 C   0  0  0  0  0  0  0  0  0  0  0  0
  -31.1242   43.8149    6.8993 C   0  0  0  0  0  0  0  0  0  0  0  0
  -31.5796   45.1361    5.8396 S   0  0  2  0  0  6  0  0  0  0  0  0
  -31.1471   44.8046    4.4249 O   0  0  0  0  0  0  0  0  0  0  0  0
  -30.8284   46.3796    6.2601 O   0  0  0  0  0  0  0  0  0  0  0  0
  -33.2361   45.4703    5.8367 N   0  0  0  0  0  0  0  0  0  0  0  0
  -33.7161   46.1902    6.9181 C   0  0  0  0  0  0  0  0  0  0  0  0
  -33.8402   47.6952    6.6445 C   0  0  0  0  0  0  0  0  0  0  0  0
  -34.9579   47.9566    5.6762 C   0  0  0  0  0  0  0  0  0  0  0  0
  -34.6980   47.3560    4.3190 C   0  0  0  0  0  0  0  0  0  0  0  0
  -35.0624   45.9124    4.2291 C   0  0  0  0  0  0  0  0  0  0  0  0
  -34.0404   44.9713    4.8199 C   0  0  0  0  0  0  0  0  0  0  0  0
  1  9  2  0
 10  1  1  0
  1 19  1  0
  3  2  1  0
  2 10  1  0
  2 11  2  0
  3 12  1  6
  4 16  1  6
  5 16  1  6
  6  7  1  6
  8  7  2  0
  7 20  1  0
  9  8  1  0
 13 12  1  0
 12 17  1  0
 13 14  2  0
 15 13  1  0
 16 15  1  1
 16 17  1  0
 17 18  2  0
 19 20  2  0
 20 21  1  0
 21 22  2  0
 21 23  2  0
 21 24  1  6
 25 24  1  1
 30 24  1  1
 26 25  1  1
 27 26  1  1
 28 27  1  1
 28 29  1  0
 29 30  1  6
M  END
$$$$
