
     RDKit          3D

 30 32  0  0  0  0  0  0  0  0999 V2000
  -29.7273   43.7951    9.7297 C   0  0  0  0  0  0  0  0  0  0  0  0
  -27.5342   44.0851   10.9485 C   0  0  0  0  0  0  0  0  0  0  0  0
  -26.0432   43.8961   10.9852 C   0  0  0  0  0  0  0  0  0  0  0  0
  -26.0166   47.8615    9.3931 C   0  0  0  0  0  0  0  0  0  0  0  0
  -24.0884   47.3023    7.8812 C   0  0  0  0  0  0  0  0  0  0  0  0
  -33.9133   44.3048    8.7554 C   0  0  0  0  0  0  0  0  0  0  0  0
  -32.4677   44.1400    9.1040 C   0  0  0  0  0  0  0  0  0  0  0  0
  -31.6786   43.2413    8.3941 C   0  0  0  0  0  0  0  0  0  0  0  0
  -30.3501   43.0800    8.7042 C   0  0  0  0  0  0  0  0  0  0  0  0
  -28.3524   43.5463    9.9567 N   0  0  0  0  0  0  0  0  0  0  0  0
  -28.0352   44.7627   11.8647 O   0  0  0  0  0  0  0  0  0  0  0  0
  -25.3532   45.0191   10.4286 N   0  0  0  0  0  0  0  0  0  0  0  0
  -24.4588   45.8641   11.1584 C   0  0  0  0  0  0  0  0  0  0  0  0
  -24.1432   45.7587   12.3720 O   0  0  0  0  0  0  0  0  0  0  0  0
  -23.9532   46.8787   10.2978 N   0  0  0  0  0  0  0  0  0  0  0  0
  -24.8290   46.9543    9.1379 C   0  0  1  0  0  0  0  0  0  0  0  0
  -25.3676   45.5601    9.1033 C   0  0  0  0  0  0  0  0  0  0  0  0
  -25.7897   44.8837    8.1246 O   0  0  0  0  0  0  0  0  0  0  0  0
  -30.4900   44.6707   10.4238 C   0  0  0  0  0  0  0  0  0  0  0  0
  -31.8442   44.8345   10.1072 C   0  0  0  0  0  0  0  0  0  0  0  0
  -32.7903   45.9844   11.0339 S   0  0  2  0  0  6  0  0  0  0  0  0
  -33.6838   46.7628   10.0884 O   0  0  0  0  0  0  0  0  0  0  0  0
  -31.8517   46.9758   11.6847 O   0  0  0  0  0  0  0  0  0  0  0  0
  -33.7519   45.2736   12.2280 N   0  0  0  0  0  0  0  0  0  0  0  0
  -33.3194   45.4304   13.5344 C   0  0  0  0  0  0  0  0  0  0  0  0
  -34.0022   46.5916   14.2695 C   0  0  0  0  0  0  0  0  0  0  0  0
  -35.4420   46.2607   14.5392 C   0  0  0  0  0  0  0  0  0  0  0  0
  -36.2447   46.1034   13.2737 C   0  0  0  0  0  0  0  0  0  0  0  0
  -36.1289   44.7479   12.6621 C   0  0  0  0  0  0  0  0  0  0  0  0
  -34.8658   44.5270   11.8652 C   0  0  0  0  0  0  0  0  0  0  0  0
  1  9  2  0
 10  1  1  0
  1 19  1  0
  3  2  1  0
  2 10  1  0
  2 11  2  0
  3 12  1  6
  4 16  1  6
  5 16  1  6
  6  7  1  6
  8  7  2  0
  7 20  1  0
  9  8  1  0
 13 12  1  0
 12 17  1  0
 13 14  2  0
 15 13  1  0
 16 15  1  1
 16 17  1  0
 17 18  2  0
 19 20  2  0
 20 21  1  0
 21 22  2  0
 21 23  2  0
 21 24  1  1
 25 24  1  1
 30 24  1  1
 26 25  1  1
 27 26  1  1
 28 27  1  1
 28 29  1  0
 29 30  1  6
M  END
$$$$
