
     RDKit          3D

 30 32  0  0  0  0  0  0  0  0999 V2000
  -28.7370   46.7337    8.3504 C   0  0  0  0  0  0  0  0  0  0  0  0
  -30.8651   47.1567    7.0573 C   0  0  0  0  0  0  0  0  0  0  0  0
  -31.6263   46.9407    5.7790 C   0  0  0  0  0  0  0  0  0  0  0  0
  -33.3906   43.6444    3.7099 C   0  0  0  0  0  0  0  0  0  0  0  0
  -32.5605   42.0338    5.4515 C   0  0  0  0  0  0  0  0  0  0  0  0
  -26.1312   46.0114   11.7295 C   0  0  0  0  0  0  0  0  0  0  0  0
  -27.0450   46.2612   10.5715 C   0  0  0  0  0  0  0  0  0  0  0  0
  -26.5278   46.3518    9.2836 C   0  0  0  0  0  0  0  0  0  0  0  0
  -27.3556   46.5814    8.2118 C   0  0  0  0  0  0  0  0  0  0  0  0
  -29.4892   46.9648    7.1735 N   0  0  0  0  0  0  0  0  0  0  0  0
  -31.5250   47.5259    8.0461 O   0  0  0  0  0  0  0  0  0  0  0  0
  -31.6388   45.5621    5.3965 N   0  0  0  0  0  0  0  0  0  0  0  0
  -30.7101   44.9648    4.4869 C   0  0  0  0  0  0  0  0  0  0  0  0
  -29.7597   45.5386    3.8943 O   0  0  0  0  0  0  0  0  0  0  0  0
  -31.0142   43.5828    4.3348 N   0  0  0  0  0  0  0  0  0  0  0  0
  -32.3761   43.3734    4.8034 C   0  0  1  0  0  0  0  0  0  0  0  0
  -32.5091   44.4938    5.7843 C   0  0  0  0  0  0  0  0  0  0  0  0
  -33.2365   44.5822    6.8123 O   0  0  0  0  0  0  0  0  0  0  0  0
  -29.2459   46.6467    9.6008 C   0  0  0  0  0  0  0  0  0  0  0  0
  -28.4013   46.4128   10.6931 C   0  0  0  0  0  0  0  0  0  0  0  0
  -29.1092   46.3048   12.2941 S   0  0  2  0  0  6  0  0  0  0  0  0
  -30.5814   46.6564   12.2066 O   0  0  0  0  0  0  0  0  0  0  0  0
  -28.4532   47.3337   13.1877 O   0  0  0  0  0  0  0  0  0  0  0  0
  -28.9565   44.7807   13.0078 N   0  0  0  0  0  0  0  0  0  0  0  0
  -28.0473   44.6814   14.0478 C   0  0  0  0  0  0  0  0  0  0  0  0
  -28.6903   44.8018   15.4360 C   0  0  0  0  0  0  0  0  0  0  0  0
  -29.5173   43.5838   15.7327 C   0  0  0  0  0  0  0  0  0  0  0  0
  -30.6885   43.4393   14.7957 C   0  0  0  0  0  0  0  0  0  0  0  0
  -30.3358   42.7884   13.5008 C   0  0  0  0  0  0  0  0  0  0  0  0
  -29.6733   43.7045   12.5002 C   0  0  0  0  0  0  0  0  0  0  0  0
  1  9  2  0
 10  1  1  0
  1 19  1  0
  3  2  1  0
  2 10  1  0
  2 11  2  0
  3 12  1  6
  4 16  1  6
  5 16  1  6
  6  7  1  6
  8  7  2  0
  7 20  1  0
  9  8  1  0
 13 12  1  0
 12 17  1  0
 13 14  2  0
 15 13  1  0
 16 15  1  6
 16 17  1  0
 17 18  2  0
 19 20  2  0
 20 21  1  0
 21 22  2  0
 21 23  2  0
 21 24  1  1
 25 24  1  1
 30 24  1  1
 26 25  1  1
 27 26  1  1
 28 27  1  1
 28 29  1  0
 29 30  1  6
M  END
$$$$
