
     RDKit          3D

 30 32  0  0  0  0  0  0  0  0999 V2000
  -28.1497   45.0297   11.7820 C   0  0  0  0  0  0  0  0  0  0  0  0
  -29.4162   45.7722   13.8136 C   0  0  0  0  0  0  0  0  0  0  0  0
  -30.6704   45.5681   14.6270 C   0  0  0  0  0  0  0  0  0  0  0  0
  -33.1936   42.2720   15.8141 C   0  0  0  0  0  0  0  0  0  0  0  0
  -31.6248   40.6635   14.7640 C   0  0  0  0  0  0  0  0  0  0  0  0
  -25.0063   45.2154    8.8784 C   0  0  0  0  0  0  0  0  0  0  0  0
  -26.0870   45.1443    9.8769 C   0  0  0  0  0  0  0  0  0  0  0  0
  -26.3233   43.9685   10.5686 C   0  0  0  0  0  0  0  0  0  0  0  0
  -27.3341   43.9233   11.4977 C   0  0  0  0  0  0  0  0  0  0  0  0
  -29.1660   44.8733   12.7614 N   0  0  0  0  0  0  0  0  0  0  0  0
  -28.6364   46.7073   14.0733 O   0  0  0  0  0  0  0  0  0  0  0  0
  -31.2665   44.2769   14.3565 N   0  0  0  0  0  0  0  0  0  0  0  0
  -32.2631   43.9366   13.3975 C   0  0  0  0  0  0  0  0  0  0  0  0
  -32.8105   44.7541   12.5907 O   0  0  0  0  0  0  0  0  0  0  0  0
  -32.5569   42.5395   13.4761 N   0  0  0  0  0  0  0  0  0  0  0  0
  -32.0919   42.1027   14.7765 C   0  0  1  0  0  0  0  0  0  0  0  0
  -30.9645   43.0354   15.0219 C   0  0  0  0  0  0  0  0  0  0  0  0
  -29.9292   42.7991   15.6867 O   0  0  0  0  0  0  0  0  0  0  0  0
  -27.8814   46.1691   11.0762 C   0  0  0  0  0  0  0  0  0  0  0  0
  -26.8553   46.2528   10.1176 C   0  0  0  0  0  0  0  0  0  0  0  0
  -26.5620   47.7170    9.2512 S   0  0  2  0  0  6  0  0  0  0  0  0
  -25.0860   47.9436    9.0066 O   0  0  0  0  0  0  0  0  0  0  0  0
  -26.9776   48.8766   10.1489 O   0  0  0  0  0  0  0  0  0  0  0  0
  -27.4183   47.8293    7.7607 N   0  0  0  0  0  0  0  0  0  0  0  0
  -26.9232   48.8682    6.9292 C   0  0  0  0  0  0  0  0  0  0  0  0
  -27.9735   49.8845    6.5363 C   0  0  0  0  0  0  0  0  0  0  0  0
  -28.8971   49.3582    5.4536 C   0  0  0  0  0  0  0  0  0  0  0  0
  -30.1082   48.7007    6.0415 C   0  0  0  0  0  0  0  0  0  0  0  0
  -29.6698   47.4929    6.8223 C   0  0  0  0  0  0  0  0  0  0  0  0
  -28.8219   47.8445    8.0125 C   0  0  0  0  0  0  0  0  0  0  0  0
  1  9  2  0
 10  1  1  0
  1 19  1  0
  3  2  1  0
  2 10  1  0
  2 11  2  0
 12  3  1  0
 16  4  1  1
 16  5  1  0
  7  6  1  0
  8  7  2  0
  7 20  1  0
  9  8  1  0
 13 12  1  0
 12 17  1  0
 13 14  2  0
 15 13  1  0
 15 16  1  0
 16 17  1  0
 17 18  2  0
 19 20  2  0
 20 21  1  0
 21 22  2  0
 21 23  2  0
 21 24  1  6
 24 25  1  0
 24 30  1  0
 25 26  1  0
 26 27  1  0
 27 28  1  0
 28 29  1  0
 29 30  1  0
M  END
$$$$
