
     RDKit          3D

 30 32  0  0  0  0  0  0  0  0999 V2000
  -26.5968   48.4221    8.8897 C   0  0  0  0  0  0  0  0  0  0  0  0
  -27.1425   45.9965    9.2089 C   0  0  0  0  0  0  0  0  0  0  0  0
  -26.6874   44.6956    9.8229 C   0  0  0  0  0  0  0  0  0  0  0  0
  -28.3071   43.4687   13.6322 C   0  0  0  0  0  0  0  0  0  0  0  0
  -28.0553   45.7755   14.5077 C   0  0  0  0  0  0  0  0  0  0  0  0
  -27.2738   52.4799    7.6973 C   0  0  0  0  0  0  0  0  0  0  0  0
  -27.0338   51.0853    8.1067 C   0  0  0  0  0  0  0  0  0  0  0  0
  -25.7706   50.6809    8.5038 C   0  0  0  0  0  0  0  0  0  0  0  0
  -25.5679   49.3768    8.8846 C   0  0  0  0  0  0  0  0  0  0  0  0
  -26.2772   47.1012    9.3019 N   0  0  0  0  0  0  0  0  0  0  0  0
  -28.2477   46.0783    8.6418 O   0  0  0  0  0  0  0  0  0  0  0  0
  -26.6981   44.7661   11.2688 N   0  0  0  0  0  0  0  0  0  0  0  0
  -25.7175   44.3045   12.1929 C   0  0  0  0  0  0  0  0  0  0  0  0
  -24.6270   43.7308   11.8755 O   0  0  0  0  0  0  0  0  0  0  0  0
  -26.1406   44.5817   13.5302 N   0  0  0  0  0  0  0  0  0  0  0  0
  -27.5722   44.7919   13.4643 C   0  0  1  0  0  0  0  0  0  0  0  0
  -27.7340   45.3346   12.0930 C   0  0  0  0  0  0  0  0  0  0  0  0
  -28.6098   46.1430   11.7068 O   0  0  0  0  0  0  0  0  0  0  0  0
  -27.8269   48.8645    8.4905 C   0  0  0  0  0  0  0  0  0  0  0  0
  -28.0722   50.1916    8.0939 C   0  0  0  0  0  0  0  0  0  0  0  0
  -29.6458   50.6965    7.5945 S   0  0  2  0  0  6  0  0  0  0  0  0
  -30.0516   52.0040    8.2392 O   0  0  0  0  0  0  0  0  0  0  0  0
  -30.6490   49.6834    8.1333 O   0  0  0  0  0  0  0  0  0  0  0  0
  -29.8318   50.8129    5.8859 N   0  0  0  0  0  0  0  0  0  0  0  0
  -31.1862   50.9935    5.5001 C   0  0  0  0  0  0  0  0  0  0  0  0
  -31.6930   49.9327    4.5471 C   0  0  0  0  0  0  0  0  0  0  0  0
  -31.1850   50.1485    3.1337 C   0  0  0  0  0  0  0  0  0  0  0  0
  -29.9079   49.4031    2.8931 C   0  0  0  0  0  0  0  0  0  0  0  0
  -28.8445   49.9645    3.7958 C   0  0  0  0  0  0  0  0  0  0  0  0
  -29.1385   49.7395    5.2525 C   0  0  0  0  0  0  0  0  0  0  0  0
  1  9  2  0
 10  1  1  0
  1 19  1  0
  3  2  1  0
  2 10  1  0
  2 11  2  0
 12  3  1  0
 16  4  1  6
 16  5  1  0
  7  6  1  0
  8  7  2  0
  7 20  1  0
  9  8  1  0
 13 12  1  0
 12 17  1  0
 13 14  2  0
 15 13  1  0
 15 16  1  0
 16 17  1  0
 17 18  2  0
 19 20  2  0
 20 21  1  0
 21 22  2  0
 21 23  2  0
 21 24  1  6
 24 25  1  0
 24 30  1  0
 25 26  1  0
 26 27  1  0
 27 28  1  0
 28 29  1  0
 29 30  1  0
M  END
$$$$
