
     RDKit          3D

 30 32  0  0  0  0  0  0  0  0999 V2000
  -29.4075   45.0248   10.7812 C   0  0  0  0  0  0  0  0  0  0  0  0
  -27.4468   46.0125   11.9907 C   0  0  0  0  0  0  0  0  0  0  0  0
  -26.0351   45.7640   12.4617 C   0  0  0  0  0  0  0  0  0  0  0  0
  -22.3135   45.5526   10.2836 C   0  0  0  0  0  0  0  0  0  0  0  0
  -23.5495   45.2199    8.1593 C   0  0  0  0  0  0  0  0  0  0  0  0
  -33.2466   45.0271    8.8818 C   0  0  0  0  0  0  0  0  0  0  0  0
  -31.9280   45.0202    9.5386 C   0  0  0  0  0  0  0  0  0  0  0  0
  -31.4702   43.8793   10.1754 C   0  0  0  0  0  0  0  0  0  0  0  0
  -30.2367   43.8922   10.7796 C   0  0  0  0  0  0  0  0  0  0  0  0
  -28.1511   44.9290   11.4359 N   0  0  0  0  0  0  0  0  0  0  0  0
  -27.9609   47.1416   12.0942 O   0  0  0  0  0  0  0  0  0  0  0  0
  -25.2232   45.1942   11.4073 N   0  0  0  0  0  0  0  0  0  0  0  0
  -24.6865   43.8788   11.3052 C   0  0  0  0  0  0  0  0  0  0  0  0
  -24.8450   42.9558   12.1665 O   0  0  0  0  0  0  0  0  0  0  0  0
  -23.9430   43.7497   10.0908 N   0  0  0  0  0  0  0  0  0  0  0  0
  -23.6289   45.0982    9.6655 C   0  0  1  0  0  0  0  0  0  0  0  0
  -24.7789   45.8611   10.2101 C   0  0  0  0  0  0  0  0  0  0  0  0
  -25.2837   46.9007    9.7262 O   0  0  0  0  0  0  0  0  0  0  0  0
  -29.8989   46.1283   10.1414 C   0  0  0  0  0  0  0  0  0  0  0  0
  -31.1567   46.1522    9.5120 C   0  0  0  0  0  0  0  0  0  0  0  0
  -31.7308   47.5754    8.7211 S   0  0  2  0  0  6  0  0  0  0  0  0
  -30.9254   48.7984    9.1024 O   0  0  0  0  0  0  0  0  0  0  0  0
  -33.1303   47.8658    9.2504 O   0  0  0  0  0  0  0  0  0  0  0  0
  -31.7990   47.4407    7.0051 N   0  0  0  0  0  0  0  0  0  0  0  0
  -30.6655   48.0150    6.3718 C   0  0  0  0  0  0  0  0  0  0  0  0
  -31.0116   49.0943    5.3691 C   0  0  0  0  0  0  0  0  0  0  0  0
  -31.5363   48.5150    4.0685 C   0  0  0  0  0  0  0  0  0  0  0  0
  -33.0298   48.3980    4.0864 C   0  0  0  0  0  0  0  0  0  0  0  0
  -33.4237   47.4165    5.1550 C   0  0  0  0  0  0  0  0  0  0  0  0
  -33.0702   47.8875    6.5379 C   0  0  0  0  0  0  0  0  0  0  0  0
  1  9  2  0
 10  1  1  0
  1 19  1  0
  3  2  1  0
  2 10  1  0
  2 11  2  0
 12  3  1  0
 16  4  1  1
 16  5  1  0
  7  6  1  0
  8  7  2  0
  7 20  1  0
  9  8  1  0
 13 12  1  0
 12 17  1  0
 13 14  2  0
 15 13  1  0
 15 16  1  0
 16 17  1  0
 17 18  2  0
 19 20  2  0
 20 21  1  0
 21 22  2  0
 21 23  2  0
 21 24  1  6
 24 25  1  0
 24 30  1  0
 25 26  1  0
 26 27  1  0
 27 28  1  0
 28 29  1  0
 29 30  1  0
M  END
$$$$
