
     RDKit          3D

 30 32  0  0  0  0  0  0  0  0999 V2000
  -27.1371   45.0905   12.7805 C   0  0  0  0  0  0  0  0  0  0  0  0
  -28.9207   45.0477   14.5684 C   0  0  0  0  0  0  0  0  0  0  0  0
  -29.2849   44.8213   16.0093 C   0  0  0  0  0  0  0  0  0  0  0  0
  -32.6635   42.8216   14.3222 C   0  0  0  0  0  0  0  0  0  0  0  0
  -33.9788   43.1362   16.4406 C   0  0  0  0  0  0  0  0  0  0  0  0
  -25.1557   46.0893    9.0646 C   0  0  0  0  0  0  0  0  0  0  0  0
  -25.8533   45.7538   10.3449 C   0  0  0  0  0  0  0  0  0  0  0  0
  -25.2503   44.9008   11.2633 C   0  0  0  0  0  0  0  0  0  0  0  0
  -25.8801   44.5842   12.4423 C   0  0  0  0  0  0  0  0  0  0  0  0
  -27.6866   44.6953   14.0238 N   0  0  0  0  0  0  0  0  0  0  0  0
  -29.7864   45.5791   13.8491 O   0  0  0  0  0  0  0  0  0  0  0  0
  -30.4479   43.9979   16.1384 N   0  0  0  0  0  0  0  0  0  0  0  0
  -30.4213   42.5982   16.4330 C   0  0  0  0  0  0  0  0  0  0  0  0
  -29.4008   41.8863   16.6212 O   0  0  0  0  0  0  0  0  0  0  0  0
  -31.7525   42.0975   16.4873 N   0  0  0  0  0  0  0  0  0  0  0  0
  -32.6164   43.0593   15.8188 C   0  0  1  0  0  0  0  0  0  0  0  0
  -31.8374   44.3197   16.0178 C   0  0  0  0  0  0  0  0  0  0  0  0
  -32.2409   45.5141   16.0828 O   0  0  0  0  0  0  0  0  0  0  0  0
  -27.7286   45.9206   11.8909 C   0  0  0  0  0  0  0  0  0  0  0  0
  -27.0860   46.2429   10.6892 C   0  0  0  0  0  0  0  0  0  0  0  0
  -27.8922   47.3261    9.5699 S   0  0  2  0  0  6  0  0  0  0  0  0
  -26.9434   47.6571    8.4348 O   0  0  0  0  0  0  0  0  0  0  0  0
  -28.2068   48.6208   10.2855 O   0  0  0  0  0  0  0  0  0  0  0  0
  -29.3196   46.6980    8.9189 N   0  0  0  0  0  0  0  0  0  0  0  0
  -29.9072   47.4385    7.9067 C   0  0  0  0  0  0  0  0  0  0  0  0
  -29.5451   46.9457    6.4991 C   0  0  0  0  0  0  0  0  0  0  0  0
  -30.1992   45.6213    6.2283 C   0  0  0  0  0  0  0  0  0  0  0  0
  -29.6964   44.5322    7.1402 C   0  0  0  0  0  0  0  0  0  0  0  0
  -30.3765   44.5084    8.4675 C   0  0  0  0  0  0  0  0  0  0  0  0
  -29.8693   45.5375    9.4488 C   0  0  0  0  0  0  0  0  0  0  0  0
  1  9  2  0
 10  1  1  0
  1 19  1  0
  3  2  1  0
  2 10  1  0
  2 11  2  0
  3 12  1  6
  4 16  1  6
  5 16  1  6
  6  7  1  6
  8  7  2  0
  7 20  1  0
  9  8  1  0
 13 12  1  0
 12 17  1  0
 13 14  2  0
 15 13  1  0
 16 15  1  1
 16 17  1  0
 17 18  2  0
 19 20  2  0
 20 21  1  0
 21 22  2  0
 21 23  2  0
 21 24  1  6
 25 24  1  1
 30 24  1  1
 26 25  1  1
 27 26  1  1
 28 27  1  1
 28 29  1  0
 29 30  1  6
M  END
$$$$
