
     RDKit          3D

 30 32  0  0  0  0  0  0  0  0999 V2000
  -32.2255   44.0555    8.7982 C   0  0  0  0  0  0  0  0  0  0  0  0
  -34.1651   45.2418    9.8985 C   0  0  0  0  0  0  0  0  0  0  0  0
  -35.6371   45.3174   10.1944 C   0  0  0  0  0  0  0  0  0  0  0  0
  -35.5041   49.2498    8.5276 C   0  0  0  0  0  0  0  0  0  0  0  0
  -37.9275   49.6260    9.0771 C   0  0  0  0  0  0  0  0  0  0  0  0
  -28.1350   43.0702    7.7844 C   0  0  0  0  0  0  0  0  0  0  0  0
  -29.5437   43.4238    8.1436 C   0  0  0  0  0  0  0  0  0  0  0  0
  -30.5961   42.6338    7.6931 C   0  0  0  0  0  0  0  0  0  0  0  0
  -31.8940   42.9475    8.0152 C   0  0  0  0  0  0  0  0  0  0  0  0
  -33.5977   44.2778    9.0663 N   0  0  0  0  0  0  0  0  0  0  0  0
  -33.4408   46.0978   10.4390 O   0  0  0  0  0  0  0  0  0  0  0  0
  -36.2581   46.4132    9.5155 N   0  0  0  0  0  0  0  0  0  0  0  0
  -36.6339   46.4034    8.1352 C   0  0  0  0  0  0  0  0  0  0  0  0
  -36.4841   45.4570    7.3195 O   0  0  0  0  0  0  0  0  0  0  0  0
  -37.2225   47.6532    7.7930 N   0  0  0  0  0  0  0  0  0  0  0  0
  -36.8499   48.6156    8.8193 C   0  0  1  0  0  0  0  0  0  0  0  0
  -36.6401   47.7088    9.9893 C   0  0  0  0  0  0  0  0  0  0  0  0
  -36.7541   47.9472   11.2237 O   0  0  0  0  0  0  0  0  0  0  0  0
  -31.2060   44.8278    9.2391 C   0  0  0  0  0  0  0  0  0  0  0  0
  -29.8831   44.5075    8.9103 C   0  0  0  0  0  0  0  0  0  0  0  0
  -28.5960   45.5376    9.5087 S   0  0  2  0  0  6  0  0  0  0  0  0
  -29.1588   46.4642   10.5684 O   0  0  0  0  0  0  0  0  0  0  0  0
  -28.0966   46.4032    8.3734 O   0  0  0  0  0  0  0  0  0  0  0  0
  -27.2912   44.6891   10.1669 N   0  0  0  0  0  0  0  0  0  0  0  0
  -26.2301   44.4409    9.3121 C   0  0  0  0  0  0  0  0  0  0  0  0
  -25.0894   45.4593    9.4414 C   0  0  0  0  0  0  0  0  0  0  0  0
  -24.3791   45.2801   10.7524 C   0  0  0  0  0  0  0  0  0  0  0  0
  -25.2674   45.5703   11.9343 C   0  0  0  0  0  0  0  0  0  0  0  0
  -26.1247   44.4157   12.3302 C   0  0  0  0  0  0  0  0  0  0  0  0
  -27.3554   44.2286   11.4759 C   0  0  0  0  0  0  0  0  0  0  0  0
  1  9  2  0
 10  1  1  0
  1 19  1  0
  3  2  1  0
  2 10  1  0
  2 11  2  0
  3 12  1  6
  4 16  1  6
  5 16  1  6
  6  7  1  6
  8  7  2  0
  7 20  1  0
  9  8  1  0
 13 12  1  0
 12 17  1  0
 13 14  2  0
 15 13  1  0
 16 15  1  6
 16 17  1  0
 17 18  2  0
 19 20  2  0
 20 21  1  0
 21 22  2  0
 21 23  2  0
 21 24  1  1
 25 24  1  1
 30 24  1  1
 26 25  1  1
 27 26  1  1
 28 27  1  1
 28 29  1  0
 29 30  1  6
M  END
$$$$
