
     RDKit          3D

 30 32  0  0  0  0  0  0  0  0999 V2000
  -28.1862   45.1034   13.0547 C   0  0  0  0  0  0  0  0  0  0  0  0
  -30.3653   45.3283   14.3118 C   0  0  0  0  0  0  0  0  0  0  0  0
  -31.2117   44.9958   15.5090 C   0  0  0  0  0  0  0  0  0  0  0  0
  -31.0611   42.5417   19.0040 C   0  0  0  0  0  0  0  0  0  0  0  0
  -28.6189   42.0741   18.6393 C   0  0  0  0  0  0  0  0  0  0  0  0
  -25.3015   45.5155    9.8547 C   0  0  0  0  0  0  0  0  0  0  0  0
  -26.3085   45.3840   10.9534 C   0  0  0  0  0  0  0  0  0  0  0  0
  -26.0594   44.5371   12.0282 C   0  0  0  0  0  0  0  0  0  0  0  0
  -26.9756   44.4068   13.0432 C   0  0  0  0  0  0  0  0  0  0  0  0
  -29.0512   44.8901   14.1548 N   0  0  0  0  0  0  0  0  0  0  0  0
  -30.8928   46.0332   13.4318 O   0  0  0  0  0  0  0  0  0  0  0  0
  -30.6833   43.8843   16.2388 N   0  0  0  0  0  0  0  0  0  0  0  0
  -30.9329   42.5124   15.9193 C   0  0  0  0  0  0  0  0  0  0  0  0
  -31.6361   42.0745   14.9720 O   0  0  0  0  0  0  0  0  0  0  0  0
  -30.2546   41.6757   16.8496 N   0  0  0  0  0  0  0  0  0  0  0  0
  -29.9169   42.4852   18.0110 C   0  0  1  0  0  0  0  0  0  0  0  0
  -29.8342   43.8428   17.3904 C   0  0  0  0  0  0  0  0  0  0  0  0
  -29.1609   44.8504   17.7441 O   0  0  0  0  0  0  0  0  0  0  0  0
  -28.4340   45.9286   12.0117 C   0  0  0  0  0  0  0  0  0  0  0  0
  -27.4996   46.0608   10.9772 C   0  0  0  0  0  0  0  0  0  0  0  0
  -27.8654   47.1456    9.6485 S   0  0  2  0  0  6  0  0  0  0  0  0
  -26.8808   46.8958    8.5231 O   0  0  0  0  0  0  0  0  0  0  0  0
  -27.6652   48.5709   10.1135 O   0  0  0  0  0  0  0  0  0  0  0  0
  -29.4347   46.9809    9.0436 N   0  0  0  0  0  0  0  0  0  0  0  0
  -30.1386   48.1566    8.8428 C   0  0  0  0  0  0  0  0  0  0  0  0
  -30.0853   48.6616    7.3945 C   0  0  0  0  0  0  0  0  0  0  0  0
  -30.8827   47.7570    6.4994 C   0  0  0  0  0  0  0  0  0  0  0  0
  -30.3084   46.3660    6.4255 C   0  0  0  0  0  0  0  0  0  0  0  0
  -30.7297   45.4891    7.5562 C   0  0  0  0  0  0  0  0  0  0  0  0
  -29.9679   45.7144    8.8400 C   0  0  0  0  0  0  0  0  0  0  0  0
  1  9  2  0
 10  1  1  0
  1 19  1  0
  3  2  1  0
  2 10  1  0
  2 11  2  0
  3 12  1  6
  4 16  1  6
  5 16  1  6
  6  7  1  6
  8  7  2  0
  7 20  1  0
  9  8  1  0
 13 12  1  0
 12 17  1  0
 13 14  2  0
 15 13  1  0
 16 15  1  6
 16 17  1  0
 17 18  2  0
 19 20  2  0
 20 21  1  0
 21 22  2  0
 21 23  2  0
 21 24  1  6
 25 24  1  1
 30 24  1  1
 26 25  1  1
 27 26  1  1
 28 27  1  1
 28 29  1  0
 29 30  1  6
M  END
$$$$
