
     RDKit          3D

 30 32  0  0  0  0  0  0  0  0999 V2000
  -29.9656   43.8695    8.6819 C   0  0  0  0  0  0  0  0  0  0  0  0
  -29.1722   45.3430   10.5737 C   0  0  0  0  0  0  0  0  0  0  0  0
  -28.0535   45.8171   11.4591 C   0  0  0  0  0  0  0  0  0  0  0  0
  -23.7810   45.7679   11.4033 C   0  0  0  0  0  0  0  0  0  0  0  0
  -23.7676   44.4865    9.2413 C   0  0  0  0  0  0  0  0  0  0  0  0
  -32.5858   42.2663    5.6330 C   0  0  0  0  0  0  0  0  0  0  0  0
  -31.6891   42.8343    6.6875 C   0  0  0  0  0  0  0  0  0  0  0  0
  -30.5898   42.1073    7.1319 C   0  0  0  0  0  0  0  0  0  0  0  0
  -29.7589   42.6168    8.0998 C   0  0  0  0  0  0  0  0  0  0  0  0
  -29.0420   44.2907    9.6686 N   0  0  0  0  0  0  0  0  0  0  0  0
  -30.2592   45.9407   10.6768 O   0  0  0  0  0  0  0  0  0  0  0  0
  -26.8111   45.1922   11.1230 N   0  0  0  0  0  0  0  0  0  0  0  0
  -26.2986   44.0154   11.7548 C   0  0  0  0  0  0  0  0  0  0  0  0
  -26.8422   43.3588   12.6805 O   0  0  0  0  0  0  0  0  0  0  0  0
  -25.0445   43.6718   11.1760 N   0  0  0  0  0  0  0  0  0  0  0  0
  -24.5432   44.8439   10.4739 C   0  0  1  0  0  0  0  0  0  0  0  0
  -25.8239   45.5427   10.1474 C   0  0  0  0  0  0  0  0  0  0  0  0
  -26.0930   46.3288    9.1969 O   0  0  0  0  0  0  0  0  0  0  0  0
  -31.0334   44.5812    8.2537 C   0  0  0  0  0  0  0  0  0  0  0  0
  -31.8801   44.0610    7.2671 C   0  0  0  0  0  0  0  0  0  0  0  0
  -33.2495   45.0234    6.7429 S   0  0  2  0  0  6  0  0  0  0  0  0
  -34.1015   45.3660    7.9492 O   0  0  0  0  0  0  0  0  0  0  0  0
  -34.1023   44.1911    5.8115 O   0  0  0  0  0  0  0  0  0  0  0  0
  -32.8178   46.4565    5.9584 N   0  0  0  0  0  0  0  0  0  0  0  0
  -32.8272   46.4218    4.5739 C   0  0  0  0  0  0  0  0  0  0  0  0
  -34.1215   46.9690    3.9571 C   0  0  0  0  0  0  0  0  0  0  0  0
  -34.2024   48.4557    4.1534 C   0  0  0  0  0  0  0  0  0  0  0  0
  -34.2954   48.8417    5.6069 C   0  0  0  0  0  0  0  0  0  0  0  0
  -32.9712   48.9021    6.2909 C   0  0  0  0  0  0  0  0  0  0  0  0
  -32.4182   47.5590    6.7029 C   0  0  0  0  0  0  0  0  0  0  0  0
  1  9  2  0
 10  1  1  0
  1 19  1  0
  3  2  1  0
  2 10  1  0
  2 11  2  0
  3 12  1  6
  4 16  1  6
  5 16  1  6
  6  7  1  6
  8  7  2  0
  7 20  1  0
  9  8  1  0
 13 12  1  0
 12 17  1  0
 13 14  2  0
 15 13  1  0
 16 15  1  1
 16 17  1  0
 17 18  2  0
 19 20  2  0
 20 21  1  0
 21 22  2  0
 21 23  2  0
 21 24  1  6
 25 24  1  1
 30 24  1  1
 26 25  1  1
 27 26  1  1
 28 27  1  1
 28 29  1  0
 29 30  1  6
M  END
$$$$
