
     RDKit          3D

 30 32  0  0  0  0  0  0  0  0999 V2000
  -27.7998   47.3775    8.6273 C   0  0  0  0  0  0  0  0  0  0  0  0
  -28.5654   46.3684   10.7903 C   0  0  0  0  0  0  0  0  0  0  0  0
  -28.7786   45.0838   11.5525 C   0  0  0  0  0  0  0  0  0  0  0  0
  -26.5342   41.6972   13.0128 C   0  0  0  0  0  0  0  0  0  0  0  0
  -24.4344   43.0124   12.9024 C   0  0  0  0  0  0  0  0  0  0  0  0
  -26.7523   50.5131    5.9040 C   0  0  0  0  0  0  0  0  0  0  0  0
  -27.1130   49.4300    6.8350 C   0  0  0  0  0  0  0  0  0  0  0  0
  -27.0434   48.1079    6.4300 C   0  0  0  0  0  0  0  0  0  0  0  0
  -27.3813   47.1123    7.3140 C   0  0  0  0  0  0  0  0  0  0  0  0
  -28.1255   46.2727    9.4580 N   0  0  0  0  0  0  0  0  0  0  0  0
  -28.7747   47.4698   11.3317 O   0  0  0  0  0  0  0  0  0  0  0  0
  -27.5861   44.2632   11.5408 N   0  0  0  0  0  0  0  0  0  0  0  0
  -27.1047   43.4017   10.5138 C   0  0  0  0  0  0  0  0  0  0  0  0
  -27.6758   43.2105    9.3929 O   0  0  0  0  0  0  0  0  0  0  0  0
  -25.8843   42.7836   10.9295 N   0  0  0  0  0  0  0  0  0  0  0  0
  -25.8472   42.8962   12.3731 C   0  0  1  0  0  0  0  0  0  0  0  0
  -26.6136   44.1467   12.5973 C   0  0  0  0  0  0  0  0  0  0  0  0
  -26.4544   44.9642   13.5332 O   0  0  0  0  0  0  0  0  0  0  0  0
  -27.8540   48.6958    8.9845 C   0  0  0  0  0  0  0  0  0  0  0  0
  -27.5158   49.7418    8.1068 C   0  0  0  0  0  0  0  0  0  0  0  0
  -27.6061   51.3911    8.6090 S   0  0  2  0  0  6  0  0  0  0  0  0
  -26.4003   52.1865    8.1581 O   0  0  0  0  0  0  0  0  0  0  0  0
  -27.5264   51.4161   10.1309 O   0  0  0  0  0  0  0  0  0  0  0  0
  -29.0466   52.1941    8.1115 N   0  0  0  0  0  0  0  0  0  0  0  0
  -30.2110   51.4209    8.3612 C   0  0  0  0  0  0  0  0  0  0  0  0
  -31.0413   51.1562    7.1239 C   0  0  0  0  0  0  0  0  0  0  0  0
  -31.8485   52.3725    6.7099 C   0  0  0  0  0  0  0  0  0  0  0  0
  -31.0984   53.2159    5.7248 C   0  0  0  0  0  0  0  0  0  0  0  0
  -29.8653   53.7568    6.3937 C   0  0  0  0  0  0  0  0  0  0  0  0
  -28.8912   52.6790    6.7794 C   0  0  0  0  0  0  0  0  0  0  0  0
  1  9  2  0
 10  1  1  0
  1 19  1  0
  3  2  1  0
  2 10  1  0
  2 11  2  0
 12  3  1  0
 16  4  1  1
 16  5  1  0
  7  6  1  0
  8  7  2  0
  7 20  1  0
  9  8  1  0
 13 12  1  0
 12 17  1  0
 13 14  2  0
 15 13  1  0
 15 16  1  0
 16 17  1  0
 17 18  2  0
 19 20  2  0
 20 21  1  0
 21 22  2  0
 21 23  2  0
 21 24  1  1
 24 25  1  0
 24 30  1  0
 25 26  1  0
 26 27  1  0
 27 28  1  0
 28 29  1  0
 29 30  1  0
M  END
$$$$
