
     RDKit          3D

 30 32  0  0  0  0  0  0  0  0999 V2000
  -29.5641   44.1317    8.2542 C   0  0  0  0  0  0  0  0  0  0  0  0
  -29.1288   45.8387   10.0642 C   0  0  0  0  0  0  0  0  0  0  0  0
  -28.2287   46.3948   11.1323 C   0  0  0  0  0  0  0  0  0  0  0  0
  -25.1662   44.1702    9.1493 C   0  0  0  0  0  0  0  0  0  0  0  0
  -23.5881   44.5188   11.0740 C   0  0  0  0  0  0  0  0  0  0  0  0
  -31.6718   42.0481    5.1002 C   0  0  0  0  0  0  0  0  0  0  0  0
  -30.9507   42.7824    6.1861 C   0  0  0  0  0  0  0  0  0  0  0  0
  -30.0542   42.1063    7.0070 C   0  0  0  0  0  0  0  0  0  0  0  0
  -29.3859   42.7685    8.0079 C   0  0  0  0  0  0  0  0  0  0  0  0
  -28.8196   44.7062    9.3123 N   0  0  0  0  0  0  0  0  0  0  0  0
  -30.1987   46.4425    9.8638 O   0  0  0  0  0  0  0  0  0  0  0  0
  -26.8501   46.1346   10.8513 N   0  0  0  0  0  0  0  0  0  0  0  0
  -26.0043   46.9924   10.0797 C   0  0  0  0  0  0  0  0  0  0  0  0
  -26.3266   48.0825    9.5400 O   0  0  0  0  0  0  0  0  0  0  0  0
  -24.6999   46.4287    9.9999 N   0  0  0  0  0  0  0  0  0  0  0  0
  -24.8025   45.0200   10.3510 C   0  0  1  0  0  0  0  0  0  0  0  0
  -26.0109   45.0389   11.2311 C   0  0  0  0  0  0  0  0  0  0  0  0
  -26.3312   44.2658   12.1762 O   0  0  0  0  0  0  0  0  0  0  0  0
  -30.4351   44.7945    7.4590 C   0  0  0  0  0  0  0  0  0  0  0  0
  -31.1161   44.1189    6.4389 C   0  0  0  0  0  0  0  0  0  0  0  0
  -32.2323   45.0228    5.4325 S   0  0  2  0  0  6  0  0  0  0  0  0
  -31.9019   44.7648    3.9756 O   0  0  0  0  0  0  0  0  0  0  0  0
  -32.0297   46.5002    5.6850 O   0  0  0  0  0  0  0  0  0  0  0  0
  -33.8565   44.6385    5.6972 N   0  0  0  0  0  0  0  0  0  0  0  0
  -34.5044   45.3671    6.6808 C   0  0  0  0  0  0  0  0  0  0  0  0
  -35.3108   46.5523    6.1330 C   0  0  0  0  0  0  0  0  0  0  0  0
  -36.5123   46.0589    5.3793 C   0  0  0  0  0  0  0  0  0  0  0  0
  -36.1391   45.2687    4.1518 C   0  0  0  0  0  0  0  0  0  0  0  0
  -35.8288   43.8382    4.4383 C   0  0  0  0  0  0  0  0  0  0  0  0
  -34.4446   43.5969    4.9907 C   0  0  0  0  0  0  0  0  0  0  0  0
  1  9  2  0
 10  1  1  0
  1 19  1  0
  3  2  1  0
  2 10  1  0
  2 11  2  0
  3 12  1  6
  4 16  1  6
  5 16  1  6
  6  7  1  6
  8  7  2  0
  7 20  1  0
  9  8  1  0
 13 12  1  0
 12 17  1  0
 13 14  2  0
 15 13  1  0
 16 15  1  6
 16 17  1  0
 17 18  2  0
 19 20  2  0
 20 21  1  0
 21 22  2  0
 21 23  2  0
 21 24  1  6
 25 24  1  1
 30 24  1  1
 26 25  1  1
 27 26  1  1
 28 27  1  1
 28 29  1  0
 29 30  1  6
M  END
$$$$
