
     RDKit          3D

 30 32  0  0  0  0  0  0  0  0999 V2000
  -27.5737   45.4407   13.0950 C   0  0  0  0  0  0  0  0  0  0  0  0
  -29.3753   45.2852   14.8584 C   0  0  0  0  0  0  0  0  0  0  0  0
  -29.7657   45.5419   16.2874 C   0  0  0  0  0  0  0  0  0  0  0  0
  -30.6226   43.2611   19.7979 C   0  0  0  0  0  0  0  0  0  0  0  0
  -30.1445   41.1116   18.5866 C   0  0  0  0  0  0  0  0  0  0  0  0
  -25.7932   45.7977    9.1664 C   0  0  0  0  0  0  0  0  0  0  0  0
  -26.4219   45.6827   10.5192 C   0  0  0  0  0  0  0  0  0  0  0  0
  -25.7461   45.0352   11.5480 C   0  0  0  0  0  0  0  0  0  0  0  0
  -26.3122   44.9221   12.7945 C   0  0  0  0  0  0  0  0  0  0  0  0
  -28.0537   45.2651   14.4151 N   0  0  0  0  0  0  0  0  0  0  0  0
  -30.3023   45.0835   14.0526 O   0  0  0  0  0  0  0  0  0  0  0  0
  -30.2506   44.3564   16.9250 N   0  0  0  0  0  0  0  0  0  0  0  0
  -31.6248   43.9605   16.9626 C   0  0  0  0  0  0  0  0  0  0  0  0
  -32.6002   44.5726   16.4551 O   0  0  0  0  0  0  0  0  0  0  0  0
  -31.7483   42.7357   17.6769 N   0  0  0  0  0  0  0  0  0  0  0  0
  -30.5349   42.5538   18.4598 C   0  0  1  0  0  0  0  0  0  0  0  0
  -29.5548   43.3299   17.6399 C   0  0  0  0  0  0  0  0  0  0  0  0
  -28.3057   43.1853   17.5275 O   0  0  0  0  0  0  0  0  0  0  0  0
  -28.2359   46.0715   12.0981 C   0  0  0  0  0  0  0  0  0  0  0  0
  -27.6583   46.1862   10.8276 C   0  0  0  0  0  0  0  0  0  0  0  0
  -28.5551   47.0158    9.5692 S   0  0  2  0  0  6  0  0  0  0  0  0
  -27.6371   47.2561    8.3868 O   0  0  0  0  0  0  0  0  0  0  0  0
  -28.9842   48.3701   10.0882 O   0  0  0  0  0  0  0  0  0  0  0  0
  -29.9201   46.1751    9.0348 N   0  0  0  0  0  0  0  0  0  0  0  0
  -30.5298   46.6638    7.8912 C   0  0  0  0  0  0  0  0  0  0  0  0
  -30.0997   45.9362    6.6103 C   0  0  0  0  0  0  0  0  0  0  0  0
  -30.6566   44.5416    6.5932 C   0  0  0  0  0  0  0  0  0  0  0  0
  -30.1056   43.6866    7.7048 C   0  0  0  0  0  0  0  0  0  0  0  0
  -30.8164   43.8706    9.0032 C   0  0  0  0  0  0  0  0  0  0  0  0
  -30.4044   45.1025    9.7727 C   0  0  0  0  0  0  0  0  0  0  0  0
  1  9  2  0
 10  1  1  0
  1 19  1  0
  3  2  1  0
  2 10  1  0
  2 11  2  0
  3 12  1  6
  4 16  1  6
  5 16  1  6
  6  7  1  6
  8  7  2  0
  7 20  1  0
  9  8  1  0
 13 12  1  0
 12 17  1  0
 13 14  2  0
 15 13  1  0
 16 15  1  6
 16 17  1  0
 17 18  2  0
 19 20  2  0
 20 21  1  0
 21 22  2  0
 21 23  2  0
 21 24  1  6
 25 24  1  1
 30 24  1  1
 26 25  1  1
 27 26  1  1
 28 27  1  1
 28 29  1  0
 29 30  1  6
M  END
$$$$
