
     RDKit          3D

 30 32  0  0  0  0  0  0  0  0999 V2000
  -29.6245   44.2013   11.1686 C   0  0  0  0  0  0  0  0  0  0  0  0
  -27.7960   45.7750   11.8490 C   0  0  0  0  0  0  0  0  0  0  0  0
  -26.3663   45.8873   12.3180 C   0  0  0  0  0  0  0  0  0  0  0  0
  -22.6062   46.2033   10.2201 C   0  0  0  0  0  0  0  0  0  0  0  0
  -23.7147   45.5748    8.0923 C   0  0  0  0  0  0  0  0  0  0  0  0
  -33.5260   43.0695    9.8110 C   0  0  0  0  0  0  0  0  0  0  0  0
  -32.1841   43.4530   10.2824 C   0  0  0  0  0  0  0  0  0  0  0  0
  -31.4019   42.5465   10.9775 C   0  0  0  0  0  0  0  0  0  0  0  0
  -30.1522   42.9225   11.4062 C   0  0  0  0  0  0  0  0  0  0  0  0
  -28.3213   44.4847   11.6563 N   0  0  0  0  0  0  0  0  0  0  0  0
  -28.4783   46.7956   11.6428 O   0  0  0  0  0  0  0  0  0  0  0  0
  -25.4442   45.4146   11.3071 N   0  0  0  0  0  0  0  0  0  0  0  0
  -24.6943   44.2041   11.2781 C   0  0  0  0  0  0  0  0  0  0  0  0
  -24.7198   43.3068   12.1799 O   0  0  0  0  0  0  0  0  0  0  0  0
  -23.9086   44.1469   10.0849 N   0  0  0  0  0  0  0  0  0  0  0  0
  -23.8117   45.5087    9.6009 C   0  0  1  0  0  0  0  0  0  0  0  0
  -25.0860   46.0925   10.0874 C   0  0  0  0  0  0  0  0  0  0  0  0
  -25.7435   47.0106    9.5449 O   0  0  0  0  0  0  0  0  0  0  0  0
  -30.4305   45.0636   10.4793 C   0  0  0  0  0  0  0  0  0  0  0  0
  -31.7150   44.7142   10.0248 C   0  0  0  0  0  0  0  0  0  0  0  0
  -32.6933   45.8447    9.1615 S   0  0  2  0  0  6  0  0  0  0  0  0
  -32.2201   47.2685    9.3583 O   0  0  0  0  0  0  0  0  0  0  0  0
  -34.0849   45.8209    9.7827 O   0  0  0  0  0  0  0  0  0  0  0  0
  -32.8272   45.5083    7.4773 N   0  0  0  0  0  0  0  0  0  0  0  0
  -31.9079   46.2612    6.7003 C   0  0  0  0  0  0  0  0  0  0  0  0
  -32.5659   47.1096    5.6338 C   0  0  0  0  0  0  0  0  0  0  0  0
  -33.0084   46.2818    4.4416 C   0  0  0  0  0  0  0  0  0  0  0  0
  -34.4242   45.8165    4.5955 C   0  0  0  0  0  0  0  0  0  0  0  0
  -34.5025   44.8942    5.7804 C   0  0  0  0  0  0  0  0  0  0  0  0
  -34.1943   45.5860    7.0787 C   0  0  0  0  0  0  0  0  0  0  0  0
  1  9  2  0
 10  1  1  0
  1 19  1  0
  3  2  1  0
  2 10  1  0
  2 11  2  0
 12  3  1  0
 16  4  1  1
 16  5  1  0
  7  6  1  0
  8  7  2  0
  7 20  1  0
  9  8  1  0
 13 12  1  0
 12 17  1  0
 13 14  2  0
 15 13  1  0
 15 16  1  0
 16 17  1  0
 17 18  2  0
 19 20  2  0
 20 21  1  0
 21 22  2  0
 21 23  2  0
 21 24  1  6
 24 25  1  0
 24 30  1  0
 25 26  1  0
 26 27  1  0
 27 28  1  0
 28 29  1  0
 29 30  1  0
M  END
$$$$
