
     RDKit          3D

 30 32  0  0  0  0  0  0  0  0999 V2000
  -27.7420   45.0541   12.7222 C   0  0  0  0  0  0  0  0  0  0  0  0
  -30.0040   44.4716   13.6832 C   0  0  0  0  0  0  0  0  0  0  0  0
  -30.8513   44.1018   14.8687 C   0  0  0  0  0  0  0  0  0  0  0  0
  -32.4622   45.9731   18.3564 C   0  0  0  0  0  0  0  0  0  0  0  0
  -31.6044   48.2169   17.6176 C   0  0  0  0  0  0  0  0  0  0  0  0
  -24.6956   45.8662    9.7571 C   0  0  0  0  0  0  0  0  0  0  0  0
  -25.7603   45.5870   10.7705 C   0  0  0  0  0  0  0  0  0  0  0  0
  -25.4150   45.3605   12.0986 C   0  0  0  0  0  0  0  0  0  0  0  0
  -26.3825   45.1026   13.0389 C   0  0  0  0  0  0  0  0  0  0  0  0
  -28.6478   44.7813   13.7753 N   0  0  0  0  0  0  0  0  0  0  0  0
  -30.5709   44.4939   12.5753 O   0  0  0  0  0  0  0  0  0  0  0  0
  -30.8082   45.1080   15.8850 N   0  0  0  0  0  0  0  0  0  0  0  0
  -29.8438   45.1531   16.9406 C   0  0  0  0  0  0  0  0  0  0  0  0
  -28.9047   44.3393   17.1395 O   0  0  0  0  0  0  0  0  0  0  0  0
  -30.0958   46.2833   17.7681 N   0  0  0  0  0  0  0  0  0  0  0  0
  -31.4570   46.7286   17.5093 C   0  0  1  0  0  0  0  0  0  0  0  0
  -31.6463   46.2471   16.1067 C   0  0  0  0  0  0  0  0  0  0  0  0
  -32.3935   46.6977   15.1943 O   0  0  0  0  0  0  0  0  0  0  0  0
  -28.0839   45.2735   11.4318 C   0  0  0  0  0  0  0  0  0  0  0  0
  -27.0970   45.5362   10.4737 C   0  0  0  0  0  0  0  0  0  0  0  0
  -27.5909   45.8174    8.8145 S   0  0  2  0  0  6  0  0  0  0  0  0
  -29.0184   45.3383    8.6374 O   0  0  0  0  0  0  0  0  0  0  0  0
  -26.7203   44.9858    7.8990 O   0  0  0  0  0  0  0  0  0  0  0  0
  -27.4986   47.4362    8.3386 N   0  0  0  0  0  0  0  0  0  0  0  0
  -28.5427   47.9043    7.5584 C   0  0  0  0  0  0  0  0  0  0  0  0
  -29.6241   48.6400    8.3612 C   0  0  0  0  0  0  0  0  0  0  0  0
  -29.0971   49.9555    8.8583 C   0  0  0  0  0  0  0  0  0  0  0  0
  -27.9619   49.7904    9.8352 C   0  0  0  0  0  0  0  0  0  0  0  0
  -26.6369   49.5968    9.1781 C   0  0  0  0  0  0  0  0  0  0  0  0
  -26.3853   48.1945    8.6786 C   0  0  0  0  0  0  0  0  0  0  0  0
  1  9  2  0
 10  1  1  0
  1 19  1  0
  3  2  1  0
  2 10  1  0
  2 11  2  0
  3 12  1  6
  4 16  1  6
  5 16  1  6
  6  7  1  6
  8  7  2  0
  7 20  1  0
  9  8  1  0
 13 12  1  0
 12 17  1  0
 13 14  2  0
 15 13  1  0
 16 15  1  1
 16 17  1  0
 17 18  2  0
 19 20  2  0
 20 21  1  0
 21 22  2  0
 21 23  2  0
 21 24  1  6
 25 24  1  1
 30 24  1  1
 26 25  1  1
 27 26  1  1
 28 27  1  1
 28 29  1  0
 29 30  1  6
M  END
$$$$
