
     RDKit          3D

 30 32  0  0  0  0  0  0  0  0999 V2000
  -28.9143   46.8262   10.7112 C   0  0  0  0  0  0  0  0  0  0  0  0
  -27.4447   45.1835   11.9049 C   0  0  0  0  0  0  0  0  0  0  0  0
  -26.0814   44.9479   12.5069 C   0  0  0  0  0  0  0  0  0  0  0  0
  -24.8512   45.5625    8.4144 C   0  0  0  0  0  0  0  0  0  0  0  0
  -23.2253   43.6989    8.5995 C   0  0  0  0  0  0  0  0  0  0  0  0
  -32.4203   48.2133    8.6791 C   0  0  0  0  0  0  0  0  0  0  0  0
  -31.2108   47.7420    9.3755 C   0  0  0  0  0  0  0  0  0  0  0  0
  -30.1375   48.5952    9.5675 C   0  0  0  0  0  0  0  0  0  0  0  0
  -29.0197   48.1375   10.2217 C   0  0  0  0  0  0  0  0  0  0  0  0
  -27.7130   46.4573   11.3728 N   0  0  0  0  0  0  0  0  0  0  0  0
  -28.2954   44.2747   11.8851 O   0  0  0  0  0  0  0  0  0  0  0  0
  -25.0476   44.9841   11.4941 N   0  0  0  0  0  0  0  0  0  0  0  0
  -23.9753   45.9095   11.3451 C   0  0  0  0  0  0  0  0  0  0  0  0
  -23.7486   46.8958   12.1163 O   0  0  0  0  0  0  0  0  0  0  0  0
  -23.1914   45.5656   10.1999 N   0  0  0  0  0  0  0  0  0  0  0  0
  -24.0296   44.7169    9.3782 C   0  0  1  0  0  0  0  0  0  0  0  0
  -24.8876   44.0639   10.3972 C   0  0  0  0  0  0  0  0  0  0  0  0
  -25.3898   42.9180   10.3294 O   0  0  0  0  0  0  0  0  0  0  0  0
  -29.9966   46.0186   10.4997 C   0  0  0  0  0  0  0  0  0  0  0  0
  -31.1576   46.4522    9.8343 C   0  0  0  0  0  0  0  0  0  0  0  0
  -32.4952   45.3883    9.5904 S   0  0  2  0  0  6  0  0  0  0  0  0
  -33.4657   45.4245   10.7509 O   0  0  0  0  0  0  0  0  0  0  0  0
  -31.9579   43.9619    9.5929 O   0  0  0  0  0  0  0  0  0  0  0  0
  -33.3455   45.6627    8.1176 N   0  0  0  0  0  0  0  0  0  0  0  0
  -34.5812   44.9651    8.0682 C   0  0  0  0  0  0  0  0  0  0  0  0
  -34.7063   44.0345    6.8814 C   0  0  0  0  0  0  0  0  0  0  0  0
  -34.9960   44.7876    5.5964 C   0  0  0  0  0  0  0  0  0  0  0  0
  -33.7321   45.1394    4.8731 C   0  0  0  0  0  0  0  0  0  0  0  0
  -32.9357   46.0867    5.7270 C   0  0  0  0  0  0  0  0  0  0  0  0
  -32.4685   45.4612    7.0113 C   0  0  0  0  0  0  0  0  0  0  0  0
  1  9  2  0
 10  1  1  0
  1 19  1  0
  3  2  1  0
  2 10  1  0
  2 11  2  0
 12  3  1  0
 16  4  1  6
 16  5  1  0
  7  6  1  0
  8  7  2  0
  7 20  1  0
  9  8  1  0
 13 12  1  0
 12 17  1  0
 13 14  2  0
 15 13  1  0
 15 16  1  0
 16 17  1  0
 17 18  2  0
 19 20  2  0
 20 21  1  0
 21 22  2  0
 21 23  2  0
 21 24  1  6
 24 25  1  0
 24 30  1  0
 25 26  1  0
 26 27  1  0
 27 28  1  0
 28 29  1  0
 29 30  1  0
M  END
$$$$
