
     RDKit          3D

 30 32  0  0  0  0  0  0  0  0999 V2000
  -27.7582   47.7076    9.5249 C   0  0  0  0  0  0  0  0  0  0  0  0
  -27.5969   45.1948    9.7233 C   0  0  0  0  0  0  0  0  0  0  0  0
  -28.0275   44.1262   10.6892 C   0  0  0  0  0  0  0  0  0  0  0  0
  -28.4342   43.4791   14.8935 C   0  0  0  0  0  0  0  0  0  0  0  0
  -28.4391   45.9539   15.3312 C   0  0  0  0  0  0  0  0  0  0  0  0
  -28.8719   51.5665    7.9124 C   0  0  0  0  0  0  0  0  0  0  0  0
  -28.5001   50.2257    8.4627 C   0  0  0  0  0  0  0  0  0  0  0  0
  -27.3697   50.0903    9.2615 C   0  0  0  0  0  0  0  0  0  0  0  0
  -27.0169   48.8651    9.7726 C   0  0  0  0  0  0  0  0  0  0  0  0
  -27.2986   46.5016   10.1065 N   0  0  0  0  0  0  0  0  0  0  0  0
  -27.5114   44.8653    8.5259 O   0  0  0  0  0  0  0  0  0  0  0  0
  -27.7862   44.5106   12.0461 N   0  0  0  0  0  0  0  0  0  0  0  0
  -26.5087   44.4596   12.6881 C   0  0  0  0  0  0  0  0  0  0  0  0
  -25.4228   44.0803   12.1777 O   0  0  0  0  0  0  0  0  0  0  0  0
  -26.6325   44.9120   14.0318 N   0  0  0  0  0  0  0  0  0  0  0  0
  -28.0416   44.8548   14.3917 C   0  0  1  0  0  0  0  0  0  0  0  0
  -28.6793   45.0078   13.0482 C   0  0  0  0  0  0  0  0  0  0  0  0
  -29.8086   45.4817   12.7419 O   0  0  0  0  0  0  0  0  0  0  0  0
  -28.8588   47.8332    8.7483 C   0  0  0  0  0  0  0  0  0  0  0  0
  -29.2178   49.0825    8.2275 C   0  0  0  0  0  0  0  0  0  0  0  0
  -30.6553   49.1945    7.2289 S   0  0  2  0  0  6  0  0  0  0  0  0
  -31.3020   50.5484    7.4464 O   0  0  0  0  0  0  0  0  0  0  0  0
  -31.6459   48.1449    7.6809 O   0  0  0  0  0  0  0  0  0  0  0  0
  -30.3580   48.9938    5.5776 N   0  0  0  0  0  0  0  0  0  0  0  0
  -30.9421   47.8885    4.9815 C   0  0  0  0  0  0  0  0  0  0  0  0
  -32.2676   48.2036    4.2751 C   0  0  0  0  0  0  0  0  0  0  0  0
  -32.0173   49.0268    3.0443 C   0  0  0  0  0  0  0  0  0  0  0  0
  -31.4394   50.3812    3.3636 C   0  0  0  0  0  0  0  0  0  0  0  0
  -29.9607   50.3647    3.5582 C   0  0  0  0  0  0  0  0  0  0  0  0
  -29.5137   49.8757    4.9148 C   0  0  0  0  0  0  0  0  0  0  0  0
  1  9  2  0
 10  1  1  0
  1 19  1  0
  3  2  1  0
  2 10  1  0
  2 11  2  0
  3 12  1  6
  4 16  1  6
  5 16  1  6
  6  7  1  6
  8  7  2  0
  7 20  1  0
  9  8  1  0
 13 12  1  0
 12 17  1  0
 13 14  2  0
 15 13  1  0
 16 15  1  6
 16 17  1  0
 17 18  2  0
 19 20  2  0
 20 21  1  0
 21 22  2  0
 21 23  2  0
 21 24  1  6
 25 24  1  1
 30 24  1  1
 26 25  1  1
 27 26  1  1
 28 27  1  1
 28 29  1  0
 29 30  1  6
M  END
$$$$
