
     RDKit          3D

 30 32  0  0  0  0  0  0  0  0999 V2000
  -28.5554   44.7738    7.4472 C   0  0  0  0  0  0  0  0  0  0  0  0
  -27.6086   46.6283    8.8769 C   0  0  0  0  0  0  0  0  0  0  0  0
  -26.5323   47.1308    9.7984 C   0  0  0  0  0  0  0  0  0  0  0  0
  -28.1911   45.0595   13.1476 C   0  0  0  0  0  0  0  0  0  0  0  0
  -26.0837   45.4000   14.4739 C   0  0  0  0  0  0  0  0  0  0  0  0
  -31.3536   42.6307    4.9355 C   0  0  0  0  0  0  0  0  0  0  0  0
  -30.3980   43.3827    5.8072 C   0  0  0  0  0  0  0  0  0  0  0  0
  -29.0891   42.9354    5.9527 C   0  0  0  0  0  0  0  0  0  0  0  0
  -28.2017   43.6162    6.7503 C   0  0  0  0  0  0  0  0  0  0  0  0
  -27.5557   45.3908    8.2370 N   0  0  0  0  0  0  0  0  0  0  0  0
  -28.5852   47.3785    8.6954 O   0  0  0  0  0  0  0  0  0  0  0  0
  -26.3909   46.2966   10.9521 N   0  0  0  0  0  0  0  0  0  0  0  0
  -26.0691   44.9033   10.9104 C   0  0  0  0  0  0  0  0  0  0  0  0
  -25.8635   44.2072    9.8825 O   0  0  0  0  0  0  0  0  0  0  0  0
  -26.0093   44.3884   12.2360 N   0  0  0  0  0  0  0  0  0  0  0  0
  -26.6993   45.3268   13.1085 C   0  0  1  0  0  0  0  0  0  0  0  0
  -26.5225   46.5999   12.3449 C   0  0  0  0  0  0  0  0  0  0  0  0
  -26.4821   47.7906   12.7623 O   0  0  0  0  0  0  0  0  0  0  0  0
  -29.8274   45.2135    7.3096 C   0  0  0  0  0  0  0  0  0  0  0  0
  -30.7314   44.5190    6.4964 C   0  0  0  0  0  0  0  0  0  0  0  0
  -32.3684   45.1307    6.3475 S   0  0  2  0  0  6  0  0  0  0  0  0
  -32.9219   44.7325    4.9935 O   0  0  0  0  0  0  0  0  0  0  0  0
  -32.3300   46.6420    6.3913 O   0  0  0  0  0  0  0  0  0  0  0  0
  -33.4184   44.5733    7.5486 N   0  0  0  0  0  0  0  0  0  0  0  0
  -34.3171   45.4990    8.0522 C   0  0  0  0  0  0  0  0  0  0  0  0
  -35.7029   45.4253    7.3969 C   0  0  0  0  0  0  0  0  0  0  0  0
  -36.4078   44.1662    7.8130 C   0  0  0  0  0  0  0  0  0  0  0  0
  -35.7051   42.9245    7.3287 C   0  0  0  0  0  0  0  0  0  0  0  0
  -34.5826   42.4950    8.2121 C   0  0  0  0  0  0  0  0  0  0  0  0
  -33.3023   43.2714    8.0188 C   0  0  0  0  0  0  0  0  0  0  0  0
  1  9  2  0
 10  1  1  0
  1 19  1  0
  3  2  1  0
  2 10  1  0
  2 11  2  0
  3 12  1  6
  4 16  1  6
  5 16  1  6
  6  7  1  6
  8  7  2  0
  7 20  1  0
  9  8  1  0
 13 12  1  0
 12 17  1  0
 13 14  2  0
 15 13  1  0
 16 15  1  6
 16 17  1  0
 17 18  2  0
 19 20  2  0
 20 21  1  0
 21 22  2  0
 21 23  2  0
 21 24  1  1
 25 24  1  1
 30 24  1  1
 26 25  1  1
 27 26  1  1
 28 27  1  1
 28 29  1  0
 29 30  1  6
M  END
$$$$
