
     RDKit          3D

 30 32  0  0  0  0  0  0  0  0999 V2000
  -27.5842   48.1106   10.2418 C   0  0  0  0  0  0  0  0  0  0  0  0
  -28.0072   45.6443   10.0955 C   0  0  0  0  0  0  0  0  0  0  0  0
  -28.2303   44.3743   10.8791 C   0  0  0  0  0  0  0  0  0  0  0  0
  -29.9531   43.2530   14.6757 C   0  0  0  0  0  0  0  0  0  0  0  0
  -30.6330   45.6025   15.0867 C   0  0  0  0  0  0  0  0  0  0  0  0
  -26.9107   52.0785    8.7763 C   0  0  0  0  0  0  0  0  0  0  0  0
  -27.1400   50.7159    9.2869 C   0  0  0  0  0  0  0  0  0  0  0  0
  -27.1850   50.4786   10.6502 C   0  0  0  0  0  0  0  0  0  0  0  0
  -27.4028   49.2014   11.1063 C   0  0  0  0  0  0  0  0  0  0  0  0
  -27.8026   46.8321   10.8201 N   0  0  0  0  0  0  0  0  0  0  0  0
  -28.0061   45.6300    8.8507 O   0  0  0  0  0  0  0  0  0  0  0  0
  -28.5023   44.6588   12.2722 N   0  0  0  0  0  0  0  0  0  0  0  0
  -27.5906   44.7279   13.3643 C   0  0  0  0  0  0  0  0  0  0  0  0
  -26.3348   44.5412   13.2809 O   0  0  0  0  0  0  0  0  0  0  0  0
  -28.2964   45.0381   14.5684 N   0  0  0  0  0  0  0  0  0  0  0  0
  -29.6845   44.7086   14.3179 C   0  0  1  0  0  0  0  0  0  0  0  0
  -29.7894   44.9385   12.8560 C   0  0  0  0  0  0  0  0  0  0  0  0
  -30.8081   45.3095   12.2282 O   0  0  0  0  0  0  0  0  0  0  0  0
  -27.5321   48.3902    8.9049 C   0  0  0  0  0  0  0  0  0  0  0  0
  -27.3112   49.6849    8.4011 C   0  0  0  0  0  0  0  0  0  0  0  0
  -27.2507   49.9817    6.7014 S   0  0  2  0  0  6  0  0  0  0  0  0
  -27.2741   48.6973    5.9016 O   0  0  0  0  0  0  0  0  0  0  0  0
  -25.8918   50.5965    6.3875 O   0  0  0  0  0  0  0  0  0  0  0  0
  -28.4869   51.0384    6.1332 N   0  0  0  0  0  0  0  0  0  0  0  0
  -29.7496   50.3954    6.0439 C   0  0  0  0  0  0  0  0  0  0  0  0
  -30.3619   50.4486    4.6610 C   0  0  0  0  0  0  0  0  0  0  0  0
  -30.9522   51.8120    4.3526 C   0  0  0  0  0  0  0  0  0  0  0  0
  -29.9529   52.6987    3.6746 C   0  0  0  0  0  0  0  0  0  0  0  0
  -28.8146   52.9553    4.6228 C   0  0  0  0  0  0  0  0  0  0  0  0
  -28.0420   51.7099    4.9564 C   0  0  0  0  0  0  0  0  0  0  0  0
  1  9  2  0
 10  1  1  0
  1 19  1  0
  3  2  1  0
  2 10  1  0
  2 11  2  0
 12  3  1  0
 16  4  1  6
 16  5  1  0
  7  6  1  0
  8  7  2  0
  7 20  1  0
  9  8  1  0
 13 12  1  0
 12 17  1  0
 13 14  2  0
 15 13  1  0
 15 16  1  0
 16 17  1  0
 17 18  2  0
 19 20  2  0
 20 21  1  0
 21 22  2  0
 21 23  2  0
 21 24  1  6
 24 25  1  0
 24 30  1  0
 25 26  1  0
 26 27  1  0
 27 28  1  0
 28 29  1  0
 29 30  1  0
M  END
$$$$
