
     RDKit          3D

 30 32  0  0  0  0  0  0  0  0999 V2000
  -27.7038   44.9871   12.7369 C   0  0  0  0  0  0  0  0  0  0  0  0
  -29.7480   44.7276   14.1976 C   0  0  0  0  0  0  0  0  0  0  0  0
  -30.4658   44.0056   15.3037 C   0  0  0  0  0  0  0  0  0  0  0  0
  -31.3114   44.7033   19.4338 C   0  0  0  0  0  0  0  0  0  0  0  0
  -29.9407   46.8098   19.4169 C   0  0  0  0  0  0  0  0  0  0  0  0
  -25.1771   46.4273    9.5318 C   0  0  0  0  0  0  0  0  0  0  0  0
  -26.0624   45.9399   10.6350 C   0  0  0  0  0  0  0  0  0  0  0  0
  -25.6057   44.9636   11.5141 C   0  0  0  0  0  0  0  0  0  0  0  0
  -26.4085   44.5070   12.5309 C   0  0  0  0  0  0  0  0  0  0  0  0
  -28.4370   44.4427   13.8186 N   0  0  0  0  0  0  0  0  0  0  0  0
  -30.3832   45.6212   13.6080 O   0  0  0  0  0  0  0  0  0  0  0  0
  -30.0976   44.5093   16.5913 N   0  0  0  0  0  0  0  0  0  0  0  0
  -29.0924   43.9325   17.4301 C   0  0  0  0  0  0  0  0  0  0  0  0
  -28.3900   42.9193   17.1781 O   0  0  0  0  0  0  0  0  0  0  0  0
  -28.9874   44.6850   18.6337 N   0  0  0  0  0  0  0  0  0  0  0  0
  -30.1968   45.4838   18.7652 C   0  0  1  0  0  0  0  0  0  0  0  0
  -30.5915   45.6310   17.3308 C   0  0  0  0  0  0  0  0  0  0  0  0
  -31.2483   46.5495   16.7663 O   0  0  0  0  0  0  0  0  0  0  0  0
  -28.1535   45.9367   11.8848 C   0  0  0  0  0  0  0  0  0  0  0  0
  -27.3347   46.4017   10.8483 C   0  0  0  0  0  0  0  0  0  0  0  0
  -27.9619   47.6360    9.7718 S   0  0  2  0  0  6  0  0  0  0  0  0
  -26.8392   48.5861    9.4043 O   0  0  0  0  0  0  0  0  0  0  0  0
  -29.0088   48.4404   10.5097 O   0  0  0  0  0  0  0  0  0  0  0  0
  -28.6413   47.0230    8.3511 N   0  0  0  0  0  0  0  0  0  0  0  0
  -29.3589   45.8451    8.4757 C   0  0  0  0  0  0  0  0  0  0  0  0
  -30.8725   46.0619    8.6068 C   0  0  0  0  0  0  0  0  0  0  0  0
  -31.4428   46.5451    7.3042 C   0  0  0  0  0  0  0  0  0  0  0  0
  -30.9102   47.8977    6.9076 C   0  0  0  0  0  0  0  0  0  0  0  0
  -29.5896   47.8363    6.2169 C   0  0  0  0  0  0  0  0  0  0  0  0
  -28.4079   47.6635    7.1406 C   0  0  0  0  0  0  0  0  0  0  0  0
  1  9  2  0
 10  1  1  0
  1 19  1  0
  3  2  1  0
  2 10  1  0
  2 11  2  0
  3 12  1  6
  4 16  1  6
  5 16  1  6
  6  7  1  6
  8  7  2  0
  7 20  1  0
  9  8  1  0
 13 12  1  0
 12 17  1  0
 13 14  2  0
 15 13  1  0
 16 15  1  6
 16 17  1  0
 17 18  2  0
 19 20  2  0
 20 21  1  0
 21 22  2  0
 21 23  2  0
 21 24  1  6
 25 24  1  1
 30 24  1  1
 26 25  1  1
 27 26  1  1
 28 27  1  1
 28 29  1  0
 29 30  1  6
M  END
$$$$
