
     RDKit          3D

 30 32  0  0  0  0  0  0  0  0999 V2000
  -30.6777   44.0591   12.9020 C   0  0  0  0  0  0  0  0  0  0  0  0
  -31.6132   45.3013   14.8923 C   0  0  0  0  0  0  0  0  0  0  0  0
  -32.4887   45.3135   16.1144 C   0  0  0  0  0  0  0  0  0  0  0  0
  -34.4241   42.3912   18.5587 C   0  0  0  0  0  0  0  0  0  0  0  0
  -33.7361   40.5465   16.9966 C   0  0  0  0  0  0  0  0  0  0  0  0
  -28.2141   43.2394    9.4394 C   0  0  0  0  0  0  0  0  0  0  0  0
  -29.0558   43.5353   10.6404 C   0  0  0  0  0  0  0  0  0  0  0  0
  -30.1668   42.7477   10.9229 C   0  0  0  0  0  0  0  0  0  0  0  0
  -30.9483   43.0088   12.0219 C   0  0  0  0  0  0  0  0  0  0  0  0
  -31.5524   44.2304   14.0018 N   0  0  0  0  0  0  0  0  0  0  0  0
  -30.9180   46.3142   14.6918 O   0  0  0  0  0  0  0  0  0  0  0  0
  -33.1962   44.0798   16.2713 N   0  0  0  0  0  0  0  0  0  0  0  0
  -34.5435   43.8581   15.8446 C   0  0  0  0  0  0  0  0  0  0  0  0
  -35.3015   44.6878   15.2783 O   0  0  0  0  0  0  0  0  0  0  0  0
  -34.9286   42.5239   16.1567 N   0  0  0  0  0  0  0  0  0  0  0  0
  -33.9981   42.0147   17.1533 C   0  0  1  0  0  0  0  0  0  0  0  0
  -32.7864   42.8359   16.8493 C   0  0  0  0  0  0  0  0  0  0  0  0
  -31.5662   42.5697   17.0327 O   0  0  0  0  0  0  0  0  0  0  0  0
  -29.5984   44.8287   12.6322 C   0  0  0  0  0  0  0  0  0  0  0  0
  -28.8022   44.5621   11.5115 C   0  0  0  0  0  0  0  0  0  0  0  0
  -27.4117   45.5863   11.2062 S   0  0  2  0  0  6  0  0  0  0  0  0
  -26.1479   44.8000   11.4941 O   0  0  0  0  0  0  0  0  0  0  0  0
  -27.4448   46.7529   12.1682 O   0  0  0  0  0  0  0  0  0  0  0  0
  -27.3335   46.1800    9.6260 N   0  0  0  0  0  0  0  0  0  0  0  0
  -28.5417   46.3085    8.9611 C   0  0  0  0  0  0  0  0  0  0  0  0
  -29.1227   47.7278    9.0169 C   0  0  0  0  0  0  0  0  0  0  0  0
  -28.2958   48.6607    8.1795 C   0  0  0  0  0  0  0  0  0  0  0  0
  -26.8921   48.8167    8.7045 C   0  0  0  0  0  0  0  0  0  0  0  0
  -25.9698   47.7301    8.2649 C   0  0  0  0  0  0  0  0  0  0  0  0
  -26.0989   46.4453    9.0472 C   0  0  0  0  0  0  0  0  0  0  0  0
  1  9  2  0
 10  1  1  0
  1 19  1  0
  3  2  1  0
  2 10  1  0
  2 11  2  0
  3 12  1  6
  4 16  1  6
  5 16  1  6
  6  7  1  6
  8  7  2  0
  7 20  1  0
  9  8  1  0
 13 12  1  0
 12 17  1  0
 13 14  2  0
 15 13  1  0
 16 15  1  6
 16 17  1  0
 17 18  2  0
 19 20  2  0
 20 21  1  0
 21 22  2  0
 21 23  2  0
 21 24  1  6
 25 24  1  1
 30 24  1  1
 26 25  1  1
 27 26  1  1
 28 27  1  1
 28 29  1  0
 29 30  1  6
M  END
$$$$
