
     RDKit          3D

 30 32  0  0  0  0  0  0  0  0999 V2000
  -27.0838   44.9624   12.8484 C   0  0  0  0  0  0  0  0  0  0  0  0
  -28.8658   44.7919   14.6302 C   0  0  0  0  0  0  0  0  0  0  0  0
  -29.2995   44.2992   15.9828 C   0  0  0  0  0  0  0  0  0  0  0  0
  -32.1320   41.3535   17.2318 C   0  0  0  0  0  0  0  0  0  0  0  0
  -33.2681   41.4140   14.9909 C   0  0  0  0  0  0  0  0  0  0  0  0
  -25.0690   46.2874    9.2545 C   0  0  0  0  0  0  0  0  0  0  0  0
  -25.7783   45.8392   10.4933 C   0  0  0  0  0  0  0  0  0  0  0  0
  -25.1739   44.9243   11.3489 C   0  0  0  0  0  0  0  0  0  0  0  0
  -25.8143   44.5041   12.4892 C   0  0  0  0  0  0  0  0  0  0  0  0
  -27.6435   44.4600   14.0477 N   0  0  0  0  0  0  0  0  0  0  0  0
  -29.6607   45.5329   14.0231 O   0  0  0  0  0  0  0  0  0  0  0  0
  -30.6072   43.7201   15.9411 N   0  0  0  0  0  0  0  0  0  0  0  0
  -31.7812   44.3291   16.4865 C   0  0  0  0  0  0  0  0  0  0  0  0
  -31.8513   45.4402   17.0730 O   0  0  0  0  0  0  0  0  0  0  0  0
  -32.9027   43.4800   16.2697 N   0  0  0  0  0  0  0  0  0  0  0  0
  -32.3998   42.1479   15.9686 C   0  0  1  0  0  0  0  0  0  0  0  0
  -31.0611   42.4789   15.3910 C   0  0  0  0  0  0  0  0  0  0  0  0
  -30.3644   41.8397   14.5545 O   0  0  0  0  0  0  0  0  0  0  0  0
  -27.6767   45.8525   12.0199 C   0  0  0  0  0  0  0  0  0  0  0  0
  -27.0233   46.2802   10.8575 C   0  0  0  0  0  0  0  0  0  0  0  0
  -27.8320   47.4378    9.8172 S   0  0  2  0  0  6  0  0  0  0  0  0
  -26.7878   48.2180    9.0430 O   0  0  0  0  0  0  0  0  0  0  0  0
  -28.5843   48.4263   10.6799 O   0  0  0  0  0  0  0  0  0  0  0  0
  -28.9088   46.7357    8.7203 N   0  0  0  0  0  0  0  0  0  0  0  0
  -30.2314   46.6620    9.1246 C   0  0  0  0  0  0  0  0  0  0  0  0
  -31.0983   47.8115    8.5934 C   0  0  0  0  0  0  0  0  0  0  0  0
  -31.2994   47.6686    7.1120 C   0  0  0  0  0  0  0  0  0  0  0  0
  -30.0112   47.7921    6.3402 C   0  0  0  0  0  0  0  0  0  0  0  0
  -29.2325   46.5214    6.2781 C   0  0  0  0  0  0  0  0  0  0  0  0
  -28.4348   46.2151    7.5228 C   0  0  0  0  0  0  0  0  0  0  0  0
  1  9  2  0
 10  1  1  0
  1 19  1  0
  3  2  1  0
  2 10  1  0
  2 11  2  0
  3 12  1  6
  4 16  1  6
  5 16  1  6
  6  7  1  6
  8  7  2  0
  7 20  1  0
  9  8  1  0
 13 12  1  0
 12 17  1  0
 13 14  2  0
 15 13  1  0
 16 15  1  1
 16 17  1  0
 17 18  2  0
 19 20  2  0
 20 21  1  0
 21 22  2  0
 21 23  2  0
 21 24  1  6
 25 24  1  1
 30 24  1  1
 26 25  1  1
 27 26  1  1
 28 27  1  1
 28 29  1  0
 29 30  1  6
M  END
$$$$
