
     RDKit          3D

 30 32  0  0  0  0  0  0  0  0999 V2000
  -29.6638   45.6445    8.8854 C   0  0  0  0  0  0  0  0  0  0  0  0
  -27.7922   44.0147    9.2373 C   0  0  0  0  0  0  0  0  0  0  0  0
  -26.5842   43.6740   10.0747 C   0  0  0  0  0  0  0  0  0  0  0  0
  -26.6315   47.9316   10.7892 C   0  0  0  0  0  0  0  0  0  0  0  0
  -24.1648   47.9385   11.0471 C   0  0  0  0  0  0  0  0  0  0  0  0
  -33.2426   47.1950    7.1150 C   0  0  0  0  0  0  0  0  0  0  0  0
  -32.0113   46.6676    7.7281 C   0  0  0  0  0  0  0  0  0  0  0  0
  -31.5357   47.2031    8.9130 C   0  0  0  0  0  0  0  0  0  0  0  0
  -30.3873   46.6956    9.4702 C   0  0  0  0  0  0  0  0  0  0  0  0
  -28.4893   45.1965    9.5460 N   0  0  0  0  0  0  0  0  0  0  0  0
  -28.1508   43.2686    8.3075 O   0  0  0  0  0  0  0  0  0  0  0  0
  -26.0821   44.8403   10.7698 N   0  0  0  0  0  0  0  0  0  0  0  0
  -26.2301   45.1953   12.1412 C   0  0  0  0  0  0  0  0  0  0  0  0
  -26.8569   44.5090   13.0103 O   0  0  0  0  0  0  0  0  0  0  0  0
  -25.5696   46.4374   12.3963 N   0  0  0  0  0  0  0  0  0  0  0  0
  -25.4097   47.0805   11.1083 C   0  0  1  0  0  0  0  0  0  0  0  0
  -25.3071   45.9124   10.1993 C   0  0  0  0  0  0  0  0  0  0  0  0
  -24.6650   45.8545    9.1250 O   0  0  0  0  0  0  0  0  0  0  0  0
  -30.1690   45.1464    7.7170 C   0  0  0  0  0  0  0  0  0  0  0  0
  -31.3415   45.6404    7.1172 C   0  0  0  0  0  0  0  0  0  0  0  0
  -31.9336   44.9767    5.6375 S   0  0  2  0  0  6  0  0  0  0  0  0
  -30.9089   44.0886    4.9658 O   0  0  0  0  0  0  0  0  0  0  0  0
  -32.1317   46.1294    4.6602 O   0  0  0  0  0  0  0  0  0  0  0  0
  -33.4200   44.1215    5.8018 N   0  0  0  0  0  0  0  0  0  0  0  0
  -33.9429   44.1935    7.1198 C   0  0  0  0  0  0  0  0  0  0  0  0
  -34.1695   42.8402    7.7582 C   0  0  0  0  0  0  0  0  0  0  0  0
  -35.4156   42.1602    7.2223 C   0  0  0  0  0  0  0  0  0  0  0  0
  -35.0967   41.2796    6.0529 C   0  0  0  0  0  0  0  0  0  0  0  0
  -34.5879   42.1377    4.9279 C   0  0  0  0  0  0  0  0  0  0  0  0
  -33.2846   42.8122    5.2529 C   0  0  0  0  0  0  0  0  0  0  0  0
  1  9  2  0
 10  1  1  0
  1 19  1  0
  3  2  1  0
  2 10  1  0
  2 11  2  0
 12  3  1  0
 16  4  1  6
 16  5  1  0
  7  6  1  0
  8  7  2  0
  7 20  1  0
  9  8  1  0
 13 12  1  0
 12 17  1  0
 13 14  2  0
 15 13  1  0
 15 16  1  0
 16 17  1  0
 17 18  2  0
 19 20  2  0
 20 21  1  0
 21 22  2  0
 21 23  2  0
 21 24  1  1
 24 25  1  0
 24 30  1  0
 25 26  1  0
 26 27  1  0
 27 28  1  0
 28 29  1  0
 29 30  1  0
M  END
$$$$
