
     RDKit          3D

 30 32  0  0  0  0  0  0  0  0999 V2000
  -30.4165   45.7203   11.8478 C   0  0  0  0  0  0  0  0  0  0  0  0
  -28.0681   44.9715   11.3927 C   0  0  0  0  0  0  0  0  0  0  0  0
  -26.7003   44.7458   11.9884 C   0  0  0  0  0  0  0  0  0  0  0  0
  -24.5738   44.4332    8.2441 C   0  0  0  0  0  0  0  0  0  0  0  0
  -22.4325   44.9290    9.3929 C   0  0  0  0  0  0  0  0  0  0  0  0
  -34.5626   46.3572   10.9819 C   0  0  0  0  0  0  0  0  0  0  0  0
  -33.1380   46.1394   11.2868 C   0  0  0  0  0  0  0  0  0  0  0  0
  -32.7290   45.9104   12.5895 C   0  0  0  0  0  0  0  0  0  0  0  0
  -31.3963   45.7068   12.8528 C   0  0  0  0  0  0  0  0  0  0  0  0
  -29.0672   45.4983   12.2307 N   0  0  0  0  0  0  0  0  0  0  0  0
  -28.2937   44.6973   10.1996 O   0  0  0  0  0  0  0  0  0  0  0  0
  -25.6569   45.1948   11.0909 N   0  0  0  0  0  0  0  0  0  0  0  0
  -25.5615   46.4226   10.3755 C   0  0  0  0  0  0  0  0  0  0  0  0
  -26.4201   47.3609   10.4161 O   0  0  0  0  0  0  0  0  0  0  0  0
  -24.3575   46.4443    9.6047 N   0  0  0  0  0  0  0  0  0  0  0  0
  -23.9373   45.0642    9.4752 C   0  0  1  0  0  0  0  0  0  0  0  0
  -24.4664   44.4697   10.7273 C   0  0  0  0  0  0  0  0  0  0  0  0
  -23.9761   43.5091   11.3649 O   0  0  0  0  0  0  0  0  0  0  0  0
  -30.8645   45.9499   10.5770 C   0  0  0  0  0  0  0  0  0  0  0  0
  -32.2206   46.1625   10.2695 C   0  0  0  0  0  0  0  0  0  0  0  0
  -32.7318   46.4522    8.6461 S   0  0  2  0  0  6  0  0  0  0  0  0
  -31.5682   46.7847    7.7375 O   0  0  0  0  0  0  0  0  0  0  0  0
  -33.5819   47.7173    8.6479 O   0  0  0  0  0  0  0  0  0  0  0  0
  -33.6484   45.1637    7.9627 N   0  0  0  0  0  0  0  0  0  0  0  0
  -33.7653   44.0563    8.8435 C   0  0  0  0  0  0  0  0  0  0  0  0
  -33.2502   42.7586    8.2595 C   0  0  0  0  0  0  0  0  0  0  0  0
  -34.2219   42.1598    7.2597 C   0  0  0  0  0  0  0  0  0  0  0  0
  -33.9226   42.6189    5.8654 C   0  0  0  0  0  0  0  0  0  0  0  0
  -34.1314   44.1061    5.7922 C   0  0  0  0  0  0  0  0  0  0  0  0
  -33.1665   44.8731    6.6524 C   0  0  0  0  0  0  0  0  0  0  0  0
  1  9  2  0
 10  1  1  0
  1 19  1  0
  3  2  1  0
  2 10  1  0
  2 11  2  0
 12  3  1  0
 16  4  1  6
 16  5  1  0
  7  6  1  0
  8  7  2  0
  7 20  1  0
  9  8  1  0
 13 12  1  0
 12 17  1  0
 13 14  2  0
 15 13  1  0
 15 16  1  0
 16 17  1  0
 17 18  2  0
 19 20  2  0
 20 21  1  0
 21 22  2  0
 21 23  2  0
 21 24  1  6
 24 25  1  0
 24 30  1  0
 25 26  1  0
 26 27  1  0
 27 28  1  0
 28 29  1  0
 29 30  1  0
M  END
$$$$
