
     RDKit          3D

 30 32  0  0  0  0  0  0  0  0999 V2000
  -28.9668   47.7403   10.4307 C   0  0  0  0  0  0  0  0  0  0  0  0
  -28.1177   45.7881   11.7539 C   0  0  0  0  0  0  0  0  0  0  0  0
  -26.8437   45.2957   12.3951 C   0  0  0  0  0  0  0  0  0  0  0  0
  -22.8090   45.0221   10.8832 C   0  0  0  0  0  0  0  0  0  0  0  0
  -23.6410   45.2488    8.5578 C   0  0  0  0  0  0  0  0  0  0  0  0
  -31.1215   49.7397    7.3154 C   0  0  0  0  0  0  0  0  0  0  0  0
  -30.3772   49.0584    8.3886 C   0  0  0  0  0  0  0  0  0  0  0  0
  -29.7561   49.7934    9.3840 C   0  0  0  0  0  0  0  0  0  0  0  0
  -29.0693   49.1392   10.3775 C   0  0  0  0  0  0  0  0  0  0  0  0
  -28.2323   47.1670   11.5024 N   0  0  0  0  0  0  0  0  0  0  0  0
  -29.0296   44.9927   11.4616 O   0  0  0  0  0  0  0  0  0  0  0  0
  -25.9003   44.8332   11.3993 N   0  0  0  0  0  0  0  0  0  0  0  0
  -25.4756   43.5024   11.1213 C   0  0  0  0  0  0  0  0  0  0  0  0
  -25.8790   42.4633   11.7349 O   0  0  0  0  0  0  0  0  0  0  0  0
  -24.5283   43.5077   10.0503 N   0  0  0  0  0  0  0  0  0  0  0  0
  -24.0177   44.8608    9.9710 C   0  0  1  0  0  0  0  0  0  0  0  0
  -25.1766   45.6489   10.4579 C   0  0  0  0  0  0  0  0  0  0  0  0
  -25.4830   46.8157   10.1196 O   0  0  0  0  0  0  0  0  0  0  0  0
  -29.5947   47.0548    9.4286 C   0  0  0  0  0  0  0  0  0  0  0  0
  -30.3068   47.6902    8.3952 C   0  0  0  0  0  0  0  0  0  0  0  0
  -31.0784   46.7752    7.1510 S   0  0  2  0  0  6  0  0  0  0  0  0
  -30.5828   45.3460    7.1097 O   0  0  0  0  0  0  0  0  0  0  0  0
  -30.6486   47.3619    5.8115 O   0  0  0  0  0  0  0  0  0  0  0  0
  -32.7987   46.7876    7.2405 N   0  0  0  0  0  0  0  0  0  0  0  0
  -33.3153   45.6332    7.8858 C   0  0  0  0  0  0  0  0  0  0  0  0
  -34.2945   44.8504    7.0381 C   0  0  0  0  0  0  0  0  0  0  0  0
  -35.6562   45.5173    6.9801 C   0  0  0  0  0  0  0  0  0  0  0  0
  -35.7611   46.4429    5.8068 C   0  0  0  0  0  0  0  0  0  0  0  0
  -34.7703   47.5599    5.9838 C   0  0  0  0  0  0  0  0  0  0  0  0
  -33.3448   47.0841    5.9569 C   0  0  0  0  0  0  0  0  0  0  0  0
  1  9  2  0
 10  1  1  0
  1 19  1  0
  3  2  1  0
  2 10  1  0
  2 11  2  0
 12  3  1  0
 16  4  1  1
 16  5  1  0
  7  6  1  0
  8  7  2  0
  7 20  1  0
  9  8  1  0
 13 12  1  0
 12 17  1  0
 13 14  2  0
 15 13  1  0
 15 16  1  0
 16 17  1  0
 17 18  2  0
 19 20  2  0
 20 21  1  0
 21 22  2  0
 21 23  2  0
 21 24  1  1
 24 25  1  0
 24 30  1  0
 25 26  1  0
 26 27  1  0
 27 28  1  0
 28 29  1  0
 29 30  1  0
M  END
$$$$
