
     RDKit          3D

 30 32  0  0  0  0  0  0  0  0999 V2000
  -28.5635   46.4375   12.7285 C   0  0  0  0  0  0  0  0  0  0  0  0
  -30.0199   44.4172   13.1488 C   0  0  0  0  0  0  0  0  0  0  0  0
  -31.1164   43.7931   13.9665 C   0  0  0  0  0  0  0  0  0  0  0  0
  -33.1763   44.4766   17.6475 C   0  0  0  0  0  0  0  0  0  0  0  0
  -32.0614   46.7122   17.9217 C   0  0  0  0  0  0  0  0  0  0  0  0
  -26.1384   49.2986   10.5688 C   0  0  0  0  0  0  0  0  0  0  0  0
  -26.9802   48.3019   11.3012 C   0  0  0  0  0  0  0  0  0  0  0  0
  -27.1384   48.4033   12.6793 C   0  0  0  0  0  0  0  0  0  0  0  0
  -27.9081   47.4946   13.3639 C   0  0  0  0  0  0  0  0  0  0  0  0
  -29.3303   45.5648   13.5374 N   0  0  0  0  0  0  0  0  0  0  0  0
  -29.7356   43.8575   12.0740 O   0  0  0  0  0  0  0  0  0  0  0  0
  -31.1830   44.3558   15.2803 N   0  0  0  0  0  0  0  0  0  0  0  0
  -30.4127   43.9012   16.3968 C   0  0  0  0  0  0  0  0  0  0  0  0
  -29.5762   42.9611   16.4032 O   0  0  0  0  0  0  0  0  0  0  0  0
  -30.7291   44.6826   17.5435 N   0  0  0  0  0  0  0  0  0  0  0  0
  -31.9942   45.3550   17.2876 C   0  0  1  0  0  0  0  0  0  0  0  0
  -31.9712   45.4343   15.7948 C   0  0  0  0  0  0  0  0  0  0  0  0
  -32.5203   46.2697   15.0240 O   0  0  0  0  0  0  0  0  0  0  0  0
  -28.4132   46.3337   11.3881 C   0  0  0  0  0  0  0  0  0  0  0  0
  -27.6283   47.2604   10.6908 C   0  0  0  0  0  0  0  0  0  0  0  0
  -27.4668   47.0853    8.9532 S   0  0  2  0  0  6  0  0  0  0  0  0
  -27.6572   45.6270    8.5851 O   0  0  0  0  0  0  0  0  0  0  0  0
  -26.0601   47.4705    8.5530 O   0  0  0  0  0  0  0  0  0  0  0  0
  -28.5640   48.0166    8.0673 N   0  0  0  0  0  0  0  0  0  0  0  0
  -28.1625   49.3060    7.7600 C   0  0  0  0  0  0  0  0  0  0  0  0
  -27.5602   49.4405    6.3549 C   0  0  0  0  0  0  0  0  0  0  0  0
  -28.6295   49.2751    5.3135 C   0  0  0  0  0  0  0  0  0  0  0  0
  -29.2363   47.8959    5.3233 C   0  0  0  0  0  0  0  0  0  0  0  0
  -30.3124   47.7282    6.3425 C   0  0  0  0  0  0  0  0  0  0  0  0
  -29.8122   47.4971    7.7481 C   0  0  0  0  0  0  0  0  0  0  0  0
  1  9  2  0
 10  1  1  0
  1 19  1  0
  3  2  1  0
  2 10  1  0
  2 11  2  0
  3 12  1  6
  4 16  1  6
  5 16  1  6
  6  7  1  6
  8  7  2  0
  7 20  1  0
  9  8  1  0
 13 12  1  0
 12 17  1  0
 13 14  2  0
 15 13  1  0
 16 15  1  1
 16 17  1  0
 17 18  2  0
 19 20  2  0
 20 21  1  0
 21 22  2  0
 21 23  2  0
 21 24  1  6
 25 24  1  1
 30 24  1  1
 26 25  1  1
 27 26  1  1
 28 27  1  1
 28 29  1  0
 29 30  1  6
M  END
$$$$
