
     RDKit          3D

 30 32  0  0  0  0  0  0  0  0999 V2000
  -27.1204   44.2238   12.3781 C   0  0  0  0  0  0  0  0  0  0  0  0
  -28.8808   44.4506   14.1751 C   0  0  0  0  0  0  0  0  0  0  0  0
  -29.5267   43.9170   15.4234 C   0  0  0  0  0  0  0  0  0  0  0  0
  -33.3865   42.9667   16.9913 C   0  0  0  0  0  0  0  0  0  0  0  0
  -34.1919   42.2427   14.7234 C   0  0  0  0  0  0  0  0  0  0  0  0
  -24.5302   45.3229    9.0896 C   0  0  0  0  0  0  0  0  0  0  0  0
  -25.4324   44.9580   10.2260 C   0  0  0  0  0  0  0  0  0  0  0  0
  -25.3498   43.6949   10.8023 C   0  0  0  0  0  0  0  0  0  0  0  0
  -26.1725   43.3469   11.8459 C   0  0  0  0  0  0  0  0  0  0  0  0
  -27.9112   43.7547   13.4545 N   0  0  0  0  0  0  0  0  0  0  0  0
  -29.2517   45.5745   13.7896 O   0  0  0  0  0  0  0  0  0  0  0  0
  -30.9463   43.8100   15.2809 N   0  0  0  0  0  0  0  0  0  0  0  0
  -31.8367   44.9248   15.1757 C   0  0  0  0  0  0  0  0  0  0  0  0
  -31.5242   46.1437   15.1903 O   0  0  0  0  0  0  0  0  0  0  0  0
  -33.1742   44.4556   15.0471 N   0  0  0  0  0  0  0  0  0  0  0  0
  -33.2032   43.0695   15.4899 C   0  0  1  0  0  0  0  0  0  0  0  0
  -31.7931   42.6580   15.2116 C   0  0  0  0  0  0  0  0  0  0  0  0
  -31.3243   41.5156   14.9494 O   0  0  0  0  0  0  0  0  0  0  0  0
  -27.2053   45.4539   11.8214 C   0  0  0  0  0  0  0  0  0  0  0  0
  -26.3664   45.8079   10.7576 C   0  0  0  0  0  0  0  0  0  0  0  0
  -26.5125   47.4156   10.0719 S   0  0  2  0  0  6  0  0  0  0  0  0
  -25.4657   47.5862    8.9887 O   0  0  0  0  0  0  0  0  0  0  0  0
  -26.2150   48.4342   11.1496 O   0  0  0  0  0  0  0  0  0  0  0  0
  -28.0339   47.7421    9.4129 N   0  0  0  0  0  0  0  0  0  0  0  0
  -28.0895   47.8631    8.0344 C   0  0  0  0  0  0  0  0  0  0  0  0
  -28.5248   46.5742    7.3243 C   0  0  0  0  0  0  0  0  0  0  0  0
  -29.9764   46.2982    7.5925 C   0  0  0  0  0  0  0  0  0  0  0  0
  -30.2529   46.0276    9.0487 C   0  0  0  0  0  0  0  0  0  0  0  0
  -30.4189   47.2671    9.8617 C   0  0  0  0  0  0  0  0  0  0  0  0
  -29.1236   47.9372   10.2522 C   0  0  0  0  0  0  0  0  0  0  0  0
  1  9  2  0
 10  1  1  0
  1 19  1  0
  3  2  1  0
  2 10  1  0
  2 11  2  0
  3 12  1  6
  4 16  1  6
  5 16  1  6
  6  7  1  6
  8  7  2  0
  7 20  1  0
  9  8  1  0
 13 12  1  0
 12 17  1  0
 13 14  2  0
 15 13  1  0
 16 15  1  6
 16 17  1  0
 17 18  2  0
 19 20  2  0
 20 21  1  0
 21 22  2  0
 21 23  2  0
 21 24  1  6
 25 24  1  1
 30 24  1  1
 26 25  1  1
 27 26  1  1
 28 27  1  1
 28 29  1  0
 29 30  1  6
M  END
$$$$
