
     RDKit          3D

 30 32  0  0  0  0  0  0  0  0999 V2000
  -28.5258   45.5486   12.8116 C   0  0  0  0  0  0  0  0  0  0  0  0
  -30.7326   44.7553   13.6968 C   0  0  0  0  0  0  0  0  0  0  0  0
  -31.4451   44.1443   14.8781 C   0  0  0  0  0  0  0  0  0  0  0  0
  -31.2658   44.2760   19.1898 C   0  0  0  0  0  0  0  0  0  0  0  0
  -29.7120   46.2064   19.0887 C   0  0  0  0  0  0  0  0  0  0  0  0
  -25.7531   46.9894    9.8821 C   0  0  0  0  0  0  0  0  0  0  0  0
  -26.7012   46.4929   10.8943 C   0  0  0  0  0  0  0  0  0  0  0  0
  -26.3191   46.3948   12.2214 C   0  0  0  0  0  0  0  0  0  0  0  0
  -27.2188   45.9320   13.1505 C   0  0  0  0  0  0  0  0  0  0  0  0
  -29.3740   45.0842   13.8515 N   0  0  0  0  0  0  0  0  0  0  0  0
  -31.3359   44.9571   12.6267 O   0  0  0  0  0  0  0  0  0  0  0  0
  -30.6995   44.3469   16.1024 N   0  0  0  0  0  0  0  0  0  0  0  0
  -29.6677   43.5411   16.6634 C   0  0  0  0  0  0  0  0  0  0  0  0
  -29.2195   42.4662   16.1509 O   0  0  0  0  0  0  0  0  0  0  0  0
  -29.2104   44.1197   17.8883 N   0  0  0  0  0  0  0  0  0  0  0  0
  -30.2579   45.0202   18.3242 C   0  0  1  0  0  0  0  0  0  0  0  0
  -30.8535   45.4374   17.0310 C   0  0  0  0  0  0  0  0  0  0  0  0
  -31.3964   46.5378   16.7777 O   0  0  0  0  0  0  0  0  0  0  0  0
  -28.8602   45.6615   11.4911 C   0  0  0  0  0  0  0  0  0  0  0  0
  -27.9660   46.1310   10.5118 C   0  0  0  0  0  0  0  0  0  0  0  0
  -28.4396   46.2499    8.8559 S   0  0  2  0  0  6  0  0  0  0  0  0
  -29.6210   45.3585    8.5399 O   0  0  0  0  0  0  0  0  0  0  0  0
  -27.3049   45.6860    8.0089 O   0  0  0  0  0  0  0  0  0  0  0  0
  -28.7758   47.8588    8.3401 N   0  0  0  0  0  0  0  0  0  0  0  0
  -30.1638   48.1566    8.3665 C   0  0  0  0  0  0  0  0  0  0  0  0
  -30.7139   48.6072    7.0306 C   0  0  0  0  0  0  0  0  0  0  0  0
  -30.3371   50.0428    6.7156 C   0  0  0  0  0  0  0  0  0  0  0  0
  -29.0605   50.1133    5.9346 C   0  0  0  0  0  0  0  0  0  0  0  0
  -27.9434   49.5792    6.7875 C   0  0  0  0  0  0  0  0  0  0  0  0
  -28.1030   48.1198    7.1100 C   0  0  0  0  0  0  0  0  0  0  0  0
  1  9  2  0
 10  1  1  0
  1 19  1  0
  3  2  1  0
  2 10  1  0
  2 11  2  0
 12  3  1  0
 16  4  1  1
 16  5  1  0
  7  6  1  0
  8  7  2  0
  7 20  1  0
  9  8  1  0
 13 12  1  0
 12 17  1  0
 13 14  2  0
 15 13  1  0
 15 16  1  0
 16 17  1  0
 17 18  2  0
 19 20  2  0
 20 21  1  0
 21 22  2  0
 21 23  2  0
 21 24  1  6
 24 25  1  0
 24 30  1  0
 25 26  1  0
 26 27  1  0
 27 28  1  0
 28 29  1  0
 29 30  1  0
M  END
$$$$
