
     RDKit          3D

 30 32  0  0  0  0  0  0  0  0999 V2000
  -30.0091   44.2178   11.7493 C   0  0  0  0  0  0  0  0  0  0  0  0
  -27.8743   44.3422   10.4051 C   0  0  0  0  0  0  0  0  0  0  0  0
  -26.4342   43.9527   10.2194 C   0  0  0  0  0  0  0  0  0  0  0  0
  -25.4715   48.1155   10.2791 C   0  0  0  0  0  0  0  0  0  0  0  0
  -23.0224   47.6106   10.0272 C   0  0  0  0  0  0  0  0  0  0  0  0
  -34.1424   44.8784   12.8495 C   0  0  0  0  0  0  0  0  0  0  0  0
  -32.7159   44.6589   12.4554 C   0  0  0  0  0  0  0  0  0  0  0  0
  -31.8813   43.8918   13.2613 C   0  0  0  0  0  0  0  0  0  0  0  0
  -30.5695   43.6829   12.9114 C   0  0  0  0  0  0  0  0  0  0  0  0
  -28.6465   43.9335   11.4915 N   0  0  0  0  0  0  0  0  0  0  0  0
  -28.3755   45.0680    9.5267 O   0  0  0  0  0  0  0  0  0  0  0  0
  -25.5488   45.0304   10.5383 N   0  0  0  0  0  0  0  0  0  0  0  0
  -25.2597   45.4759   11.8666 C   0  0  0  0  0  0  0  0  0  0  0  0
  -25.7232   45.0052   12.9376 O   0  0  0  0  0  0  0  0  0  0  0  0
  -24.3431   46.5636   11.8152 N   0  0  0  0  0  0  0  0  0  0  0  0
  -24.3629   47.0976   10.4615 C   0  0  1  0  0  0  0  0  0  0  0  0
  -24.7764   45.8860    9.6895 C   0  0  0  0  0  0  0  0  0  0  0  0
  -24.5375   45.5752    8.4894 O   0  0  0  0  0  0  0  0  0  0  0  0
  -30.8161   44.9650   10.9615 C   0  0  0  0  0  0  0  0  0  0  0  0
  -32.1533   45.1777   11.3189 C   0  0  0  0  0  0  0  0  0  0  0  0
  -33.1602   46.1509   10.2630 S   0  0  2  0  0  6  0  0  0  0  0  0
  -32.3513   46.5559    9.0465 O   0  0  0  0  0  0  0  0  0  0  0  0
  -33.5454   47.4199   10.9902 O   0  0  0  0  0  0  0  0  0  0  0  0
  -34.5649   45.3673    9.7448 N   0  0  0  0  0  0  0  0  0  0  0  0
  -35.7315   45.6984   10.4137 C   0  0  0  0  0  0  0  0  0  0  0  0
  -36.5668   46.7663    9.6946 C   0  0  0  0  0  0  0  0  0  0  0  0
  -37.1699   46.1977    8.4423 C   0  0  0  0  0  0  0  0  0  0  0  0
  -36.1280   45.8012    7.4286 C   0  0  0  0  0  0  0  0  0  0  0  0
  -35.5491   44.4480    7.6708 C   0  0  0  0  0  0  0  0  0  0  0  0
  -34.4911   44.4037    8.7468 C   0  0  0  0  0  0  0  0  0  0  0  0
  1  9  2  0
 10  1  1  0
  1 19  1  0
  3  2  1  0
  2 10  1  0
  2 11  2  0
  3 12  1  6
  4 16  1  6
  5 16  1  6
  6  7  1  6
  8  7  2  0
  7 20  1  0
  9  8  1  0
 13 12  1  0
 12 17  1  0
 13 14  2  0
 15 13  1  0
 16 15  1  1
 16 17  1  0
 17 18  2  0
 19 20  2  0
 20 21  1  0
 21 22  2  0
 21 23  2  0
 21 24  1  6
 25 24  1  1
 30 24  1  1
 26 25  1  1
 27 26  1  1
 28 27  1  1
 28 29  1  0
 29 30  1  6
M  END
$$$$
