
     RDKit          3D

 30 32  0  0  0  0  0  0  0  0999 V2000
  -27.2838   48.4258   10.3971 C   0  0  0  0  0  0  0  0  0  0  0  0
  -27.0945   45.9323   10.5697 C   0  0  0  0  0  0  0  0  0  0  0  0
  -26.6611   44.7800   11.4420 C   0  0  0  0  0  0  0  0  0  0  0  0
  -30.0294   45.9936   13.8547 C   0  0  0  0  0  0  0  0  0  0  0  0
  -29.1056   44.7665   15.8019 C   0  0  0  0  0  0  0  0  0  0  0  0
  -28.1168   52.1795    8.5100 C   0  0  0  0  0  0  0  0  0  0  0  0
  -27.8288   50.8920    9.1652 C   0  0  0  0  0  0  0  0  0  0  0  0
  -27.7484   50.8124   10.5451 C   0  0  0  0  0  0  0  0  0  0  0  0
  -27.4816   49.6020   11.1371 C   0  0  0  0  0  0  0  0  0  0  0  0
  -27.0138   47.2280   11.1106 N   0  0  0  0  0  0  0  0  0  0  0  0
  -27.5077   45.7319    9.4126 O   0  0  0  0  0  0  0  0  0  0  0  0
  -27.6474   44.4950   12.4626 N   0  0  0  0  0  0  0  0  0  0  0  0
  -28.7493   43.5938   12.4129 C   0  0  0  0  0  0  0  0  0  0  0  0
  -29.0523   42.8641   11.4155 O   0  0  0  0  0  0  0  0  0  0  0  0
  -29.4644   43.6310   13.6504 N   0  0  0  0  0  0  0  0  0  0  0  0
  -29.0934   44.8751   14.2927 C   0  0  1  0  0  0  0  0  0  0  0  0
  -27.7181   45.0822   13.7762 C   0  0  0  0  0  0  0  0  0  0  0  0
  -26.7768   45.6620   14.3658 O   0  0  0  0  0  0  0  0  0  0  0  0
  -27.3719   48.5503    9.0387 C   0  0  0  0  0  0  0  0  0  0  0  0
  -27.6434   49.7725    8.3975 C   0  0  0  0  0  0  0  0  0  0  0  0
  -27.7398   49.8743    6.6768 S   0  0  2  0  0  6  0  0  0  0  0  0
  -26.7961   48.9048    5.9990 O   0  0  0  0  0  0  0  0  0  0  0  0
  -27.2268   51.2493    6.2655 O   0  0  0  0  0  0  0  0  0  0  0  0
  -29.3316   49.6620    6.0533 N   0  0  0  0  0  0  0  0  0  0  0  0
  -29.8382   50.8431    5.4497 C   0  0  0  0  0  0  0  0  0  0  0  0
  -31.1421   51.3213    6.0510 C   0  0  0  0  0  0  0  0  0  0  0  0
  -32.3222   50.4891    5.5851 C   0  0  0  0  0  0  0  0  0  0  0  0
  -32.5925   49.3524    6.5229 C   0  0  0  0  0  0  0  0  0  0  0  0
  -31.4105   48.4232    6.5076 C   0  0  0  0  0  0  0  0  0  0  0  0
  -30.1607   49.0614    7.0460 C   0  0  0  0  0  0  0  0  0  0  0  0
  1  9  2  0
 10  1  1  0
  1 19  1  0
  3  2  1  0
  2 10  1  0
  2 11  2  0
 12  3  1  0
 16  4  1  1
 16  5  1  0
  7  6  1  0
  8  7  2  0
  7 20  1  0
  9  8  1  0
 13 12  1  0
 12 17  1  0
 13 14  2  0
 15 13  1  0
 15 16  1  0
 16 17  1  0
 17 18  2  0
 19 20  2  0
 20 21  1  0
 21 22  2  0
 21 23  2  0
 21 24  1  6
 24 25  1  0
 24 30  1  0
 25 26  1  0
 26 27  1  0
 27 28  1  0
 28 29  1  0
 29 30  1  0
M  END
$$$$
