
     RDKit          3D

 14 14  0  0  0  0  0  0  0  0999 V2000
  -23.1125   17.7825  -11.2274 C   0  0  0  0  0  0  0  0  0  0  0  0
  -23.2084   16.6949  -10.3751 C   0  0  0  0  0  0  0  0  0  0  0  0
  -23.0640   15.3944  -10.8386 C   0  0  0  0  0  0  0  0  0  0  0  0
  -22.8689   17.5925  -12.5683 C   0  0  0  0  0  0  0  0  0  0  0  0
  -22.7305   16.2931  -12.9983 C   0  0  0  0  0  0  0  0  0  0  0  0
  -22.8223   15.1937  -12.1663 C   0  0  0  0  0  0  0  0  0  0  0  0
  -22.1818   18.5428  -14.7304 C   0  0  0  0  0  0  0  0  0  0  0  0
  -22.6564   13.8644  -12.7447 C   0  0  0  0  0  0  0  0  0  0  0  0
  -22.5898   13.6237  -14.0327 C   0  0  0  0  0  0  0  0  0  0  0  0
  -22.2998   12.2917  -14.5397 C   0  0  0  0  0  0  0  0  0  0  0  0
  -22.2621   12.1144  -15.7818 O   0  0  0  0  0  0  0  0  0  0  0  0
  -22.0646   11.2158  -13.7103 O   0  0  0  0  0  0  0  0  0  0  0  0
  -23.2658   19.0373  -10.7000 O   0  0  0  0  0  0  0  0  0  0  0  0
  -22.7615   18.6116  -13.4677 O   0  0  0  0  0  0  0  0  0  0  0  0
  1  2  2  0
  1  4  1  0
  1 13  1  0
  2  3  1  0
  3  6  2  0
  4  5  2  0
  4 14  1  0
  5  6  1  0
  6  8  1  0
 14  7  1  0
  8  9  2  0
  9 10  1  0
 10 11  2  0
 10 12  1  0
M  END
$$$$
