
     RDKit          3D

 14 14  0  0  0  0  0  0  0  0999 V2000
  -23.1414   17.7748  -11.2247 C   0  0  0  0  0  0  0  0  0  0  0  0
  -23.2593   16.6749  -10.3912 C   0  0  0  0  0  0  0  0  0  0  0  0
  -23.1453   15.3797  -10.8777 C   0  0  0  0  0  0  0  0  0  0  0  0
  -22.9057   17.6029  -12.5695 C   0  0  0  0  0  0  0  0  0  0  0  0
  -22.7974   16.3084  -13.0224 C   0  0  0  0  0  0  0  0  0  0  0  0
  -22.9116   15.1970  -12.2095 C   0  0  0  0  0  0  0  0  0  0  0  0
  -23.0060   18.5843  -14.8226 C   0  0  0  0  0  0  0  0  0  0  0  0
  -22.7770   13.8746  -12.8115 C   0  0  0  0  0  0  0  0  0  0  0  0
  -22.4038   13.6633  -14.0514 C   0  0  0  0  0  0  0  0  0  0  0  0
  -22.2023   12.3166  -14.5620 C   0  0  0  0  0  0  0  0  0  0  0  0
  -22.1379   12.1460  -15.8040 O   0  0  0  0  0  0  0  0  0  0  0  0
  -22.0792   11.2194  -13.7363 O   0  0  0  0  0  0  0  0  0  0  0  0
  -23.2652   19.0233  -10.6751 O   0  0  0  0  0  0  0  0  0  0  0  0
  -22.7779   18.6349  -13.4513 O   0  0  0  0  0  0  0  0  0  0  0  0
  1  2  2  0
  1  4  1  0
  1 13  1  0
  2  3  1  0
  3  6  2  0
  4  5  2  0
  4 14  1  0
  5  6  1  0
  6  8  1  0
 14  7  1  0
  8  9  2  0
  9 10  1  0
 10 11  2  0
 10 12  1  0
M  END
$$$$
