
     RDKit          3D

 14 14  0  0  0  0  0  0  0  0999 V2000
  -23.1209   17.6343  -11.2950 C   0  0  0  0  0  0  0  0  0  0  0  0
  -23.2904   16.5385  -10.4650 C   0  0  0  0  0  0  0  0  0  0  0  0
  -23.0817   15.2438  -10.9201 C   0  0  0  0  0  0  0  0  0  0  0  0
  -22.7371   17.4586  -12.6047 C   0  0  0  0  0  0  0  0  0  0  0  0
  -22.5377   16.1646  -13.0271 C   0  0  0  0  0  0  0  0  0  0  0  0
  -22.7008   15.0573  -12.2170 C   0  0  0  0  0  0  0  0  0  0  0  0
  -22.6497   18.4204  -14.8668 C   0  0  0  0  0  0  0  0  0  0  0  0
  -22.4584   13.7350  -12.7844 C   0  0  0  0  0  0  0  0  0  0  0  0
  -22.5963   13.4415  -14.0556 C   0  0  0  0  0  0  0  0  0  0  0  0
  -22.2593   12.1230  -14.5688 C   0  0  0  0  0  0  0  0  0  0  0  0
  -22.3981   11.9002  -15.7963 O   0  0  0  0  0  0  0  0  0  0  0  0
  -21.7934   11.1078  -13.7607 O   0  0  0  0  0  0  0  0  0  0  0  0
  -23.3445   18.8827  -10.7776 O   0  0  0  0  0  0  0  0  0  0  0  0
  -22.5503   18.4864  -13.4809 O   0  0  0  0  0  0  0  0  0  0  0  0
  1  2  2  0
  1  4  1  0
  1 13  1  0
  2  3  1  0
  3  6  2  0
  4  5  2  0
  4 14  1  0
  5  6  1  0
  6  8  1  0
 14  7  1  0
  8  9  2  0
  9 10  1  0
 10 11  2  0
 10 12  1  0
M  END
$$$$
