
     RDKit          3D

 14 14  0  0  0  0  0  0  0  0999 V2000
  -23.0177   17.7402  -11.3807 C   0  0  0  0  0  0  0  0  0  0  0  0
  -23.1921   16.5093  -10.7701 C   0  0  0  0  0  0  0  0  0  0  0  0
  -23.0994   15.3238  -11.4864 C   0  0  0  0  0  0  0  0  0  0  0  0
  -22.7455   17.8130  -12.7276 C   0  0  0  0  0  0  0  0  0  0  0  0
  -22.6596   16.6222  -13.4110 C   0  0  0  0  0  0  0  0  0  0  0  0
  -22.8298   15.3837  -12.8226 C   0  0  0  0  0  0  0  0  0  0  0  0
  -22.9146   19.2484  -14.7179 C   0  0  0  0  0  0  0  0  0  0  0  0
  -22.7138   14.1922  -13.6569 C   0  0  0  0  0  0  0  0  0  0  0  0
  -22.2351   13.0439  -13.2403 C   0  0  0  0  0  0  0  0  0  0  0  0
  -22.1070   11.9069  -14.1380 C   0  0  0  0  0  0  0  0  0  0  0  0
  -21.5786   10.8537  -13.7054 O   0  0  0  0  0  0  0  0  0  0  0  0
  -22.5429   11.9396  -15.4455 O   0  0  0  0  0  0  0  0  0  0  0  0
  -23.1234   18.8685  -10.6114 O   0  0  0  0  0  0  0  0  0  0  0  0
  -22.5616   18.9858  -13.3982 O   0  0  0  0  0  0  0  0  0  0  0  0
  1  2  2  0
  1  4  1  0
  1 13  1  0
  2  3  1  0
  3  6  2  0
  4  5  2  0
  4 14  1  0
  5  6  1  0
  6  8  1  0
 14  7  1  0
  8  9  2  0
  9 10  1  0
 10 11  2  0
 10 12  1  0
M  END
$$$$
