
     RDKit          3D

 14 14  0  0  0  0  0  0  0  0999 V2000
  -23.2030   17.7987  -11.4689 C   0  0  0  0  0  0  0  0  0  0  0  0
  -23.2422   16.5955  -10.7838 C   0  0  0  0  0  0  0  0  0  0  0  0
  -23.1388   15.3796  -11.4455 C   0  0  0  0  0  0  0  0  0  0  0  0
  -23.0589   17.8124  -12.8373 C   0  0  0  0  0  0  0  0  0  0  0  0
  -22.9589   16.5925  -13.4654 C   0  0  0  0  0  0  0  0  0  0  0  0
  -22.9956   15.3808  -12.8024 C   0  0  0  0  0  0  0  0  0  0  0  0
  -22.1789   19.2019  -14.6662 C   0  0  0  0  0  0  0  0  0  0  0  0
  -22.8793   14.1537  -13.5834 C   0  0  0  0  0  0  0  0  0  0  0  0
  -22.1774   13.1084  -13.2144 C   0  0  0  0  0  0  0  0  0  0  0  0
  -22.1726   11.8845  -13.9999 C   0  0  0  0  0  0  0  0  0  0  0  0
  -22.4811   11.9467  -15.2151 O   0  0  0  0  0  0  0  0  0  0  0  0
  -21.8429   10.6582  -13.4630 O   0  0  0  0  0  0  0  0  0  0  0  0
  -23.3109   18.9598  -10.7503 O   0  0  0  0  0  0  0  0  0  0  0  0
  -23.0120   18.9549  -13.5799 O   0  0  0  0  0  0  0  0  0  0  0  0
  1  2  2  0
  1  4  1  0
  1 13  1  0
  2  3  1  0
  3  6  2  0
  4  5  2  0
  4 14  1  0
  5  6  1  0
  6  8  1  0
 14  7  1  0
  8  9  2  0
  9 10  1  0
 10 11  2  0
 10 12  1  0
M  END
$$$$
