
     RDKit          3D

 14 14  0  0  0  0  0  0  0  0999 V2000
  -23.0446   18.0430  -11.3061 C   0  0  0  0  0  0  0  0  0  0  0  0
  -22.9750   16.9768  -10.4248 C   0  0  0  0  0  0  0  0  0  0  0  0
  -22.6963   15.6894  -10.8631 C   0  0  0  0  0  0  0  0  0  0  0  0
  -22.8359   17.8443  -12.6517 C   0  0  0  0  0  0  0  0  0  0  0  0
  -22.5617   16.5584  -13.0563 C   0  0  0  0  0  0  0  0  0  0  0  0
  -22.4875   15.4804  -12.1952 C   0  0  0  0  0  0  0  0  0  0  0  0
  -22.2523   18.8560  -14.8163 C   0  0  0  0  0  0  0  0  0  0  0  0
  -22.1888   14.1637  -12.7486 C   0  0  0  0  0  0  0  0  0  0  0  0
  -22.8414   13.6183  -13.7475 C   0  0  0  0  0  0  0  0  0  0  0  0
  -22.3054   12.4733  -14.4665 C   0  0  0  0  0  0  0  0  0  0  0  0
  -23.0015   11.4318  -14.5465 O   0  0  0  0  0  0  0  0  0  0  0  0
  -21.0629   12.4861  -15.0639 O   0  0  0  0  0  0  0  0  0  0  0  0
  -23.3241   19.2857  -10.8025 O   0  0  0  0  0  0  0  0  0  0  0  0
  -22.8878   18.8425  -13.5790 O   0  0  0  0  0  0  0  0  0  0  0  0
  1  2  2  0
  1  4  1  0
  1 13  1  0
  2  3  1  0
  3  6  2  0
  4  5  2  0
  4 14  1  0
  5  6  1  0
  6  8  1  0
 14  7  1  0
  8  9  2  0
  9 10  1  0
 10 11  2  0
 10 12  1  0
M  END
$$$$
