
     RDKit          3D

 14 14  0  0  0  0  0  0  0  0999 V2000
  -22.9576   17.8580  -11.3066 C   0  0  0  0  0  0  0  0  0  0  0  0
  -23.0031   16.7622  -10.4434 C   0  0  0  0  0  0  0  0  0  0  0  0
  -22.9337   15.4951  -10.9704 C   0  0  0  0  0  0  0  0  0  0  0  0
  -22.8451   17.6937  -12.6678 C   0  0  0  0  0  0  0  0  0  0  0  0
  -22.7755   16.4034  -13.1901 C   0  0  0  0  0  0  0  0  0  0  0  0
  -22.8196   15.3088  -12.3452 C   0  0  0  0  0  0  0  0  0  0  0  0
  -22.6539   18.7794  -14.8670 C   0  0  0  0  0  0  0  0  0  0  0  0
  -22.7470   13.9720  -12.8917 C   0  0  0  0  0  0  0  0  0  0  0  0
  -22.4218   13.6703  -14.1344 C   0  0  0  0  0  0  0  0  0  0  0  0
  -22.1885   12.2709  -14.4880 C   0  0  0  0  0  0  0  0  0  0  0  0
  -21.9229   11.9616  -15.6631 O   0  0  0  0  0  0  0  0  0  0  0  0
  -22.2597   11.2726  -13.5222 O   0  0  0  0  0  0  0  0  0  0  0  0
  -23.0256   19.1490  -10.8055 O   0  0  0  0  0  0  0  0  0  0  0  0
  -22.8039   18.8021  -13.4814 O   0  0  0  0  0  0  0  0  0  0  0  0
  1  2  2  0
  1  4  1  0
  1 13  1  0
  2  3  1  0
  3  6  2  0
  4  5  2  0
  4 14  1  0
  5  6  1  0
  6  8  1  0
  7 14  1  6
  8  9  2  0
  9 10  1  0
 10 11  2  0
 10 12  1  0
M  END
$$$$
