
     RDKit          3D

 14 14  0  0  0  0  0  0  0  0999 V2000
  -22.2311   16.4777  -18.0887 C   0  0  0  0  0  0  0  0  0  0  0  0
  -22.2994   15.0851  -18.1505 C   0  0  0  0  0  0  0  0  0  0  0  0
  -22.4126   14.3707  -16.9823 C   0  0  0  0  0  0  0  0  0  0  0  0
  -22.2749   17.1445  -16.8862 C   0  0  0  0  0  0  0  0  0  0  0  0
  -22.3898   16.4087  -15.7082 C   0  0  0  0  0  0  0  0  0  0  0  0
  -22.4584   15.0277  -15.7559 C   0  0  0  0  0  0  0  0  0  0  0  0
  -23.2251   19.3732  -16.4592 C   0  0  0  0  0  0  0  0  0  0  0  0
  -22.5777   14.2685  -14.5310 C   0  0  0  0  0  0  0  0  0  0  0  0
  -22.4253   12.9623  -14.4226 C   0  0  0  0  0  0  0  0  0  0  0  0
  -22.4462   12.3524  -13.0940 C   0  0  0  0  0  0  0  0  0  0  0  0
  -22.2884   11.1248  -12.9699 O   0  0  0  0  0  0  0  0  0  0  0  0
  -22.6414   13.1305  -11.9579 O   0  0  0  0  0  0  0  0  0  0  0  0
  -22.1166   17.2266  -19.2499 O   0  0  0  0  0  0  0  0  0  0  0  0
  -22.2045   18.5183  -16.8721 O   0  0  0  0  0  0  0  0  0  0  0  0
  1  2  2  0
  1  4  1  0
  1 13  1  0
  2  3  1  0
  3  6  2  0
  4  5  2  0
  4 14  1  0
  5  6  1  0
  6  8  1  0
  7 14  1  6
  8  9  2  0
  9 10  1  0
 10 11  2  0
 10 12  1  0
M  END
$$$$
