
     RDKit          3D

 14 14  0  0  0  0  0  0  0  0999 V2000
  -23.0650   18.0160  -11.4223 C   0  0  0  0  0  0  0  0  0  0  0  0
  -23.0530   16.9874  -10.4790 C   0  0  0  0  0  0  0  0  0  0  0  0
  -22.9284   15.6888  -10.9103 C   0  0  0  0  0  0  0  0  0  0  0  0
  -22.9550   17.7549  -12.7685 C   0  0  0  0  0  0  0  0  0  0  0  0
  -22.8291   16.4335  -13.1934 C   0  0  0  0  0  0  0  0  0  0  0  0
  -22.8159   15.4048  -12.2684 C   0  0  0  0  0  0  0  0  0  0  0  0
  -21.8441   19.4021  -14.2193 C   0  0  0  0  0  0  0  0  0  0  0  0
  -22.6850   14.0354  -12.7140 C   0  0  0  0  0  0  0  0  0  0  0  0
  -22.8093   13.6214  -13.9607 C   0  0  0  0  0  0  0  0  0  0  0  0
  -22.4822   12.2337  -14.2845 C   0  0  0  0  0  0  0  0  0  0  0  0
  -22.4767   11.8555  -15.4694 O   0  0  0  0  0  0  0  0  0  0  0  0
  -22.1748   11.3230  -13.2793 O   0  0  0  0  0  0  0  0  0  0  0  0
  -23.1894   19.3366  -11.0186 O   0  0  0  0  0  0  0  0  0  0  0  0
  -22.9715   18.7996  -13.6632 O   0  0  0  0  0  0  0  0  0  0  0  0
  1  2  2  0
  1  4  1  0
  1 13  1  0
  2  3  1  0
  3  6  2  0
  4  5  2  0
  4 14  1  0
  5  6  1  0
  6  8  1  0
  7 14  1  6
  8  9  2  0
  9 10  1  0
 10 11  2  0
 10 12  1  0
M  END
$$$$
