
     RDKit          3D

 14 14  0  0  0  0  0  0  0  0999 V2000
  -23.0894   17.8133  -11.1382 C   0  0  0  0  0  0  0  0  0  0  0  0
  -23.0299   16.5514  -10.5449 C   0  0  0  0  0  0  0  0  0  0  0  0
  -22.8427   15.4481  -11.3421 C   0  0  0  0  0  0  0  0  0  0  0  0
  -22.9647   17.9718  -12.4990 C   0  0  0  0  0  0  0  0  0  0  0  0
  -22.7751   16.8449  -13.2970 C   0  0  0  0  0  0  0  0  0  0  0  0
  -22.7143   15.5885  -12.7211 C   0  0  0  0  0  0  0  0  0  0  0  0
  -22.3502   19.6569  -14.1828 C   0  0  0  0  0  0  0  0  0  0  0  0
  -22.5175   14.4223  -13.5531 C   0  0  0  0  0  0  0  0  0  0  0  0
  -22.3614   13.1875  -13.1150 C   0  0  0  0  0  0  0  0  0  0  0  0
  -22.1252   12.1154  -14.0807 C   0  0  0  0  0  0  0  0  0  0  0  0
  -21.8338   10.9731  -13.6840 O   0  0  0  0  0  0  0  0  0  0  0  0
  -22.2222   12.3559  -15.4472 O   0  0  0  0  0  0  0  0  0  0  0  0
  -23.2774   18.9458  -10.3607 O   0  0  0  0  0  0  0  0  0  0  0  0
  -23.0295   19.2344  -13.0412 O   0  0  0  0  0  0  0  0  0  0  0  0
  1  2  2  0
  1  4  1  0
  1 13  1  0
  2  3  1  0
  3  6  2  0
  4  5  2  0
  4 14  1  0
  5  6  1  0
  6  8  1  0
  7 14  1  6
  8  9  2  0
  9 10  1  0
 10 11  2  0
 10 12  1  0
M  END
$$$$
