
     RDKit          3D

 14 14  0  0  0  0  0  0  0  0999 V2000
  -22.9797   17.7534  -11.2455 C   0  0  0  0  0  0  0  0  0  0  0  0
  -22.8601   16.4985  -10.6464 C   0  0  0  0  0  0  0  0  0  0  0  0
  -22.6217   15.4015  -11.4387 C   0  0  0  0  0  0  0  0  0  0  0  0
  -22.8640   17.9112  -12.6071 C   0  0  0  0  0  0  0  0  0  0  0  0
  -22.6222   16.7908  -13.4001 C   0  0  0  0  0  0  0  0  0  0  0  0
  -22.5015   15.5414  -12.8185 C   0  0  0  0  0  0  0  0  0  0  0  0
  -22.2049   19.6764  -14.1888 C   0  0  0  0  0  0  0  0  0  0  0  0
  -22.2506   14.3819  -13.6454 C   0  0  0  0  0  0  0  0  0  0  0  0
  -22.5789   13.1404  -13.3420 C   0  0  0  0  0  0  0  0  0  0  0  0
  -22.2064   12.0630  -14.2575 C   0  0  0  0  0  0  0  0  0  0  0  0
  -22.0563   10.9053  -13.8282 O   0  0  0  0  0  0  0  0  0  0  0  0
  -22.0159   12.3155  -15.6118 O   0  0  0  0  0  0  0  0  0  0  0  0
  -23.2202   18.8793  -10.4730 O   0  0  0  0  0  0  0  0  0  0  0  0
  -22.9889   19.1668  -13.1551 O   0  0  0  0  0  0  0  0  0  0  0  0
  1  2  2  0
  1  4  1  0
  1 13  1  0
  2  3  1  0
  3  6  2  0
  4  5  2  0
  4 14  1  0
  5  6  1  0
  6  8  1  0
  7 14  1  6
  8  9  2  0
  9 10  1  0
 10 11  2  0
 10 12  1  0
M  END
$$$$
