
     RDKit          3D

 14 14  0  0  0  0  0  0  0  0999 V2000
  -23.1505   17.6341  -11.1819 C   0  0  0  0  0  0  0  0  0  0  0  0
  -23.2380   16.5211  -10.3623 C   0  0  0  0  0  0  0  0  0  0  0  0
  -23.0218   15.2401  -10.8517 C   0  0  0  0  0  0  0  0  0  0  0  0
  -22.8432   17.4900  -12.5155 C   0  0  0  0  0  0  0  0  0  0  0  0
  -22.6343   16.2091  -12.9717 C   0  0  0  0  0  0  0  0  0  0  0  0
  -22.7164   15.0850  -12.1725 C   0  0  0  0  0  0  0  0  0  0  0  0
  -21.9112   18.6069  -14.4988 C   0  0  0  0  0  0  0  0  0  0  0  0
  -22.4727   13.7793  -12.7766 C   0  0  0  0  0  0  0  0  0  0  0  0
  -22.6208   13.5185  -14.0538 C   0  0  0  0  0  0  0  0  0  0  0  0
  -22.2660   12.2212  -14.6074 C   0  0  0  0  0  0  0  0  0  0  0  0
  -22.3745   12.0439  -15.8453 O   0  0  0  0  0  0  0  0  0  0  0  0
  -21.8150   11.1782  -13.8266 O   0  0  0  0  0  0  0  0  0  0  0  0
  -23.3765   18.8673  -10.6301 O   0  0  0  0  0  0  0  0  0  0  0  0
  -22.7394   18.5364  -13.3834 O   0  0  0  0  0  0  0  0  0  0  0  0
  1  2  2  0
  1  4  1  0
  1 13  1  0
  2  3  1  0
  3  6  2  0
  4  5  2  0
  4 14  1  0
  5  6  1  0
  6  8  1  0
 14  7  1  0
  8  9  2  0
  9 10  1  0
 10 11  2  0
 10 12  1  0
M  END
$$$$
