
     RDKit          3D

 14 14  0  0  0  0  0  0  0  0999 V2000
  -23.3203   17.8068  -11.7099 C   0  0  0  0  0  0  0  0  0  0  0  0
  -23.3688   16.7373  -10.8312 C   0  0  0  0  0  0  0  0  0  0  0  0
  -23.1374   15.4365  -11.2572 C   0  0  0  0  0  0  0  0  0  0  0  0
  -23.0379   17.5981  -13.0404 C   0  0  0  0  0  0  0  0  0  0  0  0
  -22.8132   16.2989  -13.4331 C   0  0  0  0  0  0  0  0  0  0  0  0
  -22.8565   15.2173  -12.5743 C   0  0  0  0  0  0  0  0  0  0  0  0
  -22.0960   18.6742  -15.0416 C   0  0  0  0  0  0  0  0  0  0  0  0
  -22.5996   13.8863  -13.1141 C   0  0  0  0  0  0  0  0  0  0  0  0
  -22.6700   13.5809  -14.3880 C   0  0  0  0  0  0  0  0  0  0  0  0
  -22.2771   12.2677  -14.8743 C   0  0  0  0  0  0  0  0  0  0  0  0
  -22.3526   12.0332  -16.1052 O   0  0  0  0  0  0  0  0  0  0  0  0
  -21.8251   11.2699  -14.0373 O   0  0  0  0  0  0  0  0  0  0  0  0
  -23.5592   19.0631  -11.2190 O   0  0  0  0  0  0  0  0  0  0  0  0
  -22.9727   18.5987  -13.9642 O   0  0  0  0  0  0  0  0  0  0  0  0
  1  2  2  0
  1  4  1  0
  1 13  1  0
  2  3  1  0
  3  6  2  0
  4  5  2  0
  4 14  1  0
  5  6  1  0
  6  8  1  0
 14  7  1  0
  8  9  2  0
  9 10  1  0
 10 11  2  0
 10 12  1  0
M  END
$$$$
