
     RDKit          3D

 14 14  0  0  0  0  0  0  0  0999 V2000
  -23.2456   17.8596  -11.2471 C   0  0  0  0  0  0  0  0  0  0  0  0
  -23.3521   16.6436  -10.5705 C   0  0  0  0  0  0  0  0  0  0  0  0
  -23.2349   15.4731  -11.2806 C   0  0  0  0  0  0  0  0  0  0  0  0
  -23.0267   17.9076  -12.6044 C   0  0  0  0  0  0  0  0  0  0  0  0
  -22.9097   16.7134  -13.3135 C   0  0  0  0  0  0  0  0  0  0  0  0
  -23.0133   15.5014  -12.6546 C   0  0  0  0  0  0  0  0  0  0  0  0
  -23.7842   20.2097  -13.0267 C   0  0  0  0  0  0  0  0  0  0  0  0
  -22.8911   14.2651  -13.3945 C   0  0  0  0  0  0  0  0  0  0  0  0
  -22.5327   13.1014  -12.8861 C   0  0  0  0  0  0  0  0  0  0  0  0
  -22.3753   11.9542  -13.7788 C   0  0  0  0  0  0  0  0  0  0  0  0
  -21.9208   10.8824  -13.3409 O   0  0  0  0  0  0  0  0  0  0  0  0
  -22.7288   12.0445  -15.1209 O   0  0  0  0  0  0  0  0  0  0  0  0
  -23.3593   19.0577  -10.5586 O   0  0  0  0  0  0  0  0  0  0  0  0
  -22.9284   19.1285  -13.2305 O   0  0  0  0  0  0  0  0  0  0  0  0
  1  2  2  0
  1  4  1  0
  1 13  1  0
  2  3  1  0
  3  6  2  0
  4  5  2  0
  4 14  1  0
  5  6  1  0
  6  8  1  0
  7 14  1  6
  8  9  2  0
  9 10  1  0
 10 11  2  0
 10 12  1  0
M  END
$$$$
