
     RDKit          3D

 14 14  0  0  0  0  0  0  0  0999 V2000
  -23.1252   17.8629  -11.3413 C   0  0  0  0  0  0  0  0  0  0  0  0
  -23.3125   16.6313  -10.7360 C   0  0  0  0  0  0  0  0  0  0  0  0
  -23.1906   15.4461  -11.4485 C   0  0  0  0  0  0  0  0  0  0  0  0
  -22.8103   17.9368  -12.6788 C   0  0  0  0  0  0  0  0  0  0  0  0
  -22.6962   16.7462  -13.3586 C   0  0  0  0  0  0  0  0  0  0  0  0
  -22.8787   15.5070  -12.7754 C   0  0  0  0  0  0  0  0  0  0  0  0
  -23.5934   19.9199  -13.9051 C   0  0  0  0  0  0  0  0  0  0  0  0
  -22.7296   14.3159  -13.6051 C   0  0  0  0  0  0  0  0  0  0  0  0
  -22.7085   13.0900  -13.1383 C   0  0  0  0  0  0  0  0  0  0  0  0
  -22.4827   11.9507  -14.0136 C   0  0  0  0  0  0  0  0  0  0  0  0
  -22.0390   10.8869  -13.5163 O   0  0  0  0  0  0  0  0  0  0  0  0
  -22.7364   11.9924  -15.3681 O   0  0  0  0  0  0  0  0  0  0  0  0
  -23.2616   18.9908  -10.5762 O   0  0  0  0  0  0  0  0  0  0  0  0
  -22.6113   19.1104  -13.3437 O   0  0  0  0  0  0  0  0  0  0  0  0
  1  2  2  0
  1  4  1  0
  1 13  1  0
  2  3  1  0
  3  6  2  0
  4  5  2  0
  4 14  1  0
  5  6  1  0
  6  8  1  0
 14  7  1  0
  8  9  2  0
  9 10  1  0
 10 11  2  0
 10 12  1  0
M  END
$$$$
