
     RDKit          3D

 14 14  0  0  0  0  0  0  0  0999 V2000
  -22.9719   18.0022  -11.3203 C   0  0  0  0  0  0  0  0  0  0  0  0
  -23.0784   16.8256  -10.5771 C   0  0  0  0  0  0  0  0  0  0  0  0
  -23.0373   15.6179  -11.2313 C   0  0  0  0  0  0  0  0  0  0  0  0
  -22.8273   17.9751  -12.6880 C   0  0  0  0  0  0  0  0  0  0  0  0
  -22.7869   16.7439  -13.3400 C   0  0  0  0  0  0  0  0  0  0  0  0
  -22.8915   15.5703  -12.6148 C   0  0  0  0  0  0  0  0  0  0  0  0
  -23.2451   20.3838  -12.9633 C   0  0  0  0  0  0  0  0  0  0  0  0
  -22.8491   14.2953  -13.2956 C   0  0  0  0  0  0  0  0  0  0  0  0
  -22.3621   13.1762  -12.7943 C   0  0  0  0  0  0  0  0  0  0  0  0
  -22.2475   12.0016  -13.6574 C   0  0  0  0  0  0  0  0  0  0  0  0
  -21.6745   10.9782  -13.2434 O   0  0  0  0  0  0  0  0  0  0  0  0
  -22.7739   12.0118  -14.9447 O   0  0  0  0  0  0  0  0  0  0  0  0
  -23.0099   19.2362  -10.6893 O   0  0  0  0  0  0  0  0  0  0  0  0
  -22.7259   19.1593  -13.3806 O   0  0  0  0  0  0  0  0  0  0  0  0
  1  2  2  0
  1  4  1  0
  1 13  1  0
  2  3  1  0
  3  6  2  0
  4  5  2  0
  4 14  1  0
  5  6  1  0
  6  8  1  0
  7 14  1  6
  8  9  2  0
  9 10  1  0
 10 11  2  0
 10 12  1  0
M  END
$$$$
