
     RDKit          3D

 14 14  0  0  0  0  0  0  0  0999 V2000
  -22.7314   18.6279  -14.0318 C   0  0  0  0  0  0  0  0  0  0  0  0
  -22.4872   17.9631  -15.2345 C   0  0  0  0  0  0  0  0  0  0  0  0
  -22.5196   16.5896  -15.2555 C   0  0  0  0  0  0  0  0  0  0  0  0
  -23.0023   17.9371  -12.8735 C   0  0  0  0  0  0  0  0  0  0  0  0
  -23.0324   16.5441  -12.9077 C   0  0  0  0  0  0  0  0  0  0  0  0
  -22.7921   15.8731  -14.0934 C   0  0  0  0  0  0  0  0  0  0  0  0
  -22.3985   19.6076  -11.1715 C   0  0  0  0  0  0  0  0  0  0  0  0
  -22.8244   14.4278  -14.1240 C   0  0  0  0  0  0  0  0  0  0  0  0
  -22.5384   13.6346  -13.1090 C   0  0  0  0  0  0  0  0  0  0  0  0
  -22.4041   12.1981  -13.3459 C   0  0  0  0  0  0  0  0  0  0  0  0
  -22.7780   11.7075  -14.4260 O   0  0  0  0  0  0  0  0  0  0  0  0
  -21.8601   11.3655  -12.3737 O   0  0  0  0  0  0  0  0  0  0  0  0
  -22.7057   20.0131  -13.9783 O   0  0  0  0  0  0  0  0  0  0  0  0
  -23.2370   18.6332  -11.7104 O   0  0  0  0  0  0  0  0  0  0  0  0
  1  2  2  0
  1  4  1  0
  1 13  1  0
  2  3  1  0
  3  6  2  0
  4  5  2  0
  4 14  1  0
  5  6  1  0
  6  8  1  0
  7 14  1  6
  8  9  2  0
  9 10  1  0
 10 11  2  0
 10 12  1  0
M  END
$$$$
