
     RDKit          3D

 14 14  0  0  0  0  0  0  0  0999 V2000
  -23.3390   17.6866  -11.1104 C   0  0  0  0  0  0  0  0  0  0  0  0
  -23.3314   16.4312  -10.5252 C   0  0  0  0  0  0  0  0  0  0  0  0
  -23.2472   15.2748  -11.2886 C   0  0  0  0  0  0  0  0  0  0  0  0
  -23.2623   17.8137  -12.4784 C   0  0  0  0  0  0  0  0  0  0  0  0
  -23.1799   16.6506  -13.2085 C   0  0  0  0  0  0  0  0  0  0  0  0
  -23.1707   15.3885  -12.6461 C   0  0  0  0  0  0  0  0  0  0  0  0
  -22.4981   19.3558  -14.2357 C   0  0  0  0  0  0  0  0  0  0  0  0
  -23.0794   14.2309  -13.5297 C   0  0  0  0  0  0  0  0  0  0  0  0
  -22.6258   13.0562  -13.1616 C   0  0  0  0  0  0  0  0  0  0  0  0
  -22.5142   11.9576  -14.1080 C   0  0  0  0  0  0  0  0  0  0  0  0
  -22.0332   10.8676  -13.7125 O   0  0  0  0  0  0  0  0  0  0  0  0
  -22.9156   12.0653  -15.4225 O   0  0  0  0  0  0  0  0  0  0  0  0
  -23.4242   18.7837  -10.2947 O   0  0  0  0  0  0  0  0  0  0  0  0
  -23.2643   19.0134  -13.1263 O   0  0  0  0  0  0  0  0  0  0  0  0
  1  2  2  0
  1  4  1  0
  1 13  1  0
  2  3  1  0
  3  6  2  0
  4  5  2  0
  4 14  1  0
  5  6  1  0
  6  8  1  0
 14  7  1  0
  8  9  2  0
  9 10  1  0
 10 11  2  0
 10 12  1  0
M  END
$$$$
