
     RDKit          3D

 14 14  0  0  0  0  0  0  0  0999 V2000
  -22.2599   11.9637  -14.0258 C   0  0  0  0  0  0  0  0  0  0  0  0
  -22.5075   12.3106  -12.7079 C   0  0  0  0  0  0  0  0  0  0  0  0
  -22.5548   13.6376  -12.3031 C   0  0  0  0  0  0  0  0  0  0  0  0
  -22.0531   12.9409  -14.9723 C   0  0  0  0  0  0  0  0  0  0  0  0
  -22.1059   14.2464  -14.5417 C   0  0  0  0  0  0  0  0  0  0  0  0
  -22.3512   14.6153  -13.2329 C   0  0  0  0  0  0  0  0  0  0  0  0
  -22.1391   13.4842  -17.3697 C   0  0  0  0  0  0  0  0  0  0  0  0
  -22.3820   16.0360  -12.9018 C   0  0  0  0  0  0  0  0  0  0  0  0
  -22.8300   16.5193  -11.7674 C   0  0  0  0  0  0  0  0  0  0  0  0
  -22.8219   17.9484  -11.4978 C   0  0  0  0  0  0  0  0  0  0  0  0
  -23.1441   18.3477  -10.3521 O   0  0  0  0  0  0  0  0  0  0  0  0
  -22.4743   18.8825  -12.4504 O   0  0  0  0  0  0  0  0  0  0  0  0
  -22.2277   10.6340  -14.3531 O   0  0  0  0  0  0  0  0  0  0  0  0
  -21.8041   12.6779  -16.2868 O   0  0  0  0  0  0  0  0  0  0  0  0
  1  2  2  0
  1  4  1  0
  1 13  1  0
  2  3  1  0
  3  6  2  0
  4  5  2  0
  4 14  1  0
  5  6  1  0
  6  8  1  0
 14  7  1  0
  8  9  2  0
  9 10  1  0
 10 11  2  0
 10 12  1  0
M  END
$$$$
