
     RDKit          3D

 14 14  0  0  0  0  0  0  0  0999 V2000
  -23.3368   17.8935  -11.5040 C   0  0  0  0  0  0  0  0  0  0  0  0
  -23.4958   16.8620  -10.5774 C   0  0  0  0  0  0  0  0  0  0  0  0
  -23.3701   15.5607  -11.0003 C   0  0  0  0  0  0  0  0  0  0  0  0
  -23.0583   17.6327  -12.8257 C   0  0  0  0  0  0  0  0  0  0  0  0
  -22.9332   16.3086  -13.2424 C   0  0  0  0  0  0  0  0  0  0  0  0
  -23.0884   15.2770  -12.3337 C   0  0  0  0  0  0  0  0  0  0  0  0
  -23.3318   19.9892  -13.4770 C   0  0  0  0  0  0  0  0  0  0  0  0
  -22.9578   13.9049  -12.7707 C   0  0  0  0  0  0  0  0  0  0  0  0
  -22.9396   13.5004  -14.0266 C   0  0  0  0  0  0  0  0  0  0  0  0
  -22.5612   12.1195  -14.3229 C   0  0  0  0  0  0  0  0  0  0  0  0
  -22.5382   11.7193  -15.5004 O   0  0  0  0  0  0  0  0  0  0  0  0
  -22.2238   11.2400  -13.2997 O   0  0  0  0  0  0  0  0  0  0  0  0
  -23.4576   19.2168  -11.1081 O   0  0  0  0  0  0  0  0  0  0  0  0
  -22.9096   18.6804  -13.7046 O   0  0  0  0  0  0  0  0  0  0  0  0
  1  2  2  0
  1  4  1  0
  1 13  1  0
  2  3  1  0
  3  6  2  0
  4  5  2  0
  4 14  1  0
  5  6  1  0
  6  8  1  0
  7 14  1  6
  8  9  2  0
  9 10  1  0
 10 11  2  0
 10 12  1  0
M  END
$$$$
