
     RDKit          3D

 14 14  0  0  0  0  0  0  0  0999 V2000
  -22.6699   18.8422  -13.9543 C   0  0  0  0  0  0  0  0  0  0  0  0
  -22.6721   18.0254  -15.0861 C   0  0  0  0  0  0  0  0  0  0  0  0
  -22.6428   16.6613  -14.9237 C   0  0  0  0  0  0  0  0  0  0  0  0
  -22.6391   18.3096  -12.6864 C   0  0  0  0  0  0  0  0  0  0  0  0
  -22.6096   16.9244  -12.5348 C   0  0  0  0  0  0  0  0  0  0  0  0
  -22.6115   16.1037  -13.6486 C   0  0  0  0  0  0  0  0  0  0  0  0
  -23.6524   20.0523  -11.2763 C   0  0  0  0  0  0  0  0  0  0  0  0
  -22.5808   14.6672  -13.4864 C   0  0  0  0  0  0  0  0  0  0  0  0
  -22.6154   13.7855  -14.4675 C   0  0  0  0  0  0  0  0  0  0  0  0
  -22.4018   12.3721  -14.1605 C   0  0  0  0  0  0  0  0  0  0  0  0
  -22.3987   11.5298  -15.0758 O   0  0  0  0  0  0  0  0  0  0  0  0
  -22.2005   11.9522  -12.8500 O   0  0  0  0  0  0  0  0  0  0  0  0
  -22.6989   20.2222  -14.0852 O   0  0  0  0  0  0  0  0  0  0  0  0
  -22.6381   19.1522  -11.5990 O   0  0  0  0  0  0  0  0  0  0  0  0
  1  2  2  0
  1  4  1  0
  1 13  1  0
  2  3  1  0
  3  6  2  0
  4  5  2  0
  4 14  1  0
  5  6  1  0
  6  8  1  0
  7 14  1  6
  8  9  2  0
  9 10  1  0
 10 11  2  0
 10 12  1  0
M  END
$$$$
