
     RDKit          3D

 14 14  0  0  0  0  0  0  0  0999 V2000
  -23.0415   17.8137  -11.2608 C   0  0  0  0  0  0  0  0  0  0  0  0
  -23.0763   16.5929  -10.5852 C   0  0  0  0  0  0  0  0  0  0  0  0
  -23.0211   15.4276  -11.3111 C   0  0  0  0  0  0  0  0  0  0  0  0
  -22.9536   17.8713  -12.6324 C   0  0  0  0  0  0  0  0  0  0  0  0
  -22.8983   16.6823  -13.3575 C   0  0  0  0  0  0  0  0  0  0  0  0
  -22.9319   15.4656  -12.6997 C   0  0  0  0  0  0  0  0  0  0  0  0
  -22.2283   19.3851  -14.4309 C   0  0  0  0  0  0  0  0  0  0  0  0
  -22.8743   14.2347  -13.4563 C   0  0  0  0  0  0  0  0  0  0  0  0
  -22.3059   13.1144  -13.0524 C   0  0  0  0  0  0  0  0  0  0  0  0
  -22.2439   11.9781  -13.9704 C   0  0  0  0  0  0  0  0  0  0  0  0
  -21.7508   10.8999  -13.5940 O   0  0  0  0  0  0  0  0  0  0  0  0
  -22.7318   12.0857  -15.2683 O   0  0  0  0  0  0  0  0  0  0  0  0
  -23.0955   19.0069  -10.5566 O   0  0  0  0  0  0  0  0  0  0  0  0
  -22.9222   19.0967  -13.2569 O   0  0  0  0  0  0  0  0  0  0  0  0
  1  2  2  0
  1  4  1  0
  1 13  1  0
  2  3  1  0
  3  6  2  0
  4  5  2  0
  4 14  1  0
  5  6  1  0
  6  8  1  0
  7 14  1  6
  8  9  2  0
  9 10  1  0
 10 11  2  0
 10 12  1  0
M  END
$$$$
