
     RDKit          3D

 14 14  0  0  0  0  0  0  0  0999 V2000
  -22.6663   18.1230  -11.7500 C   0  0  0  0  0  0  0  0  0  0  0  0
  -22.6636   16.9994  -10.9401 C   0  0  0  0  0  0  0  0  0  0  0  0
  -22.7059   15.7190  -11.4748 C   0  0  0  0  0  0  0  0  0  0  0  0
  -22.7115   17.9903  -13.1189 C   0  0  0  0  0  0  0  0  0  0  0  0
  -22.7527   16.7096  -13.6195 C   0  0  0  0  0  0  0  0  0  0  0  0
  -22.7510   15.5750  -12.8309 C   0  0  0  0  0  0  0  0  0  0  0  0
  -21.6244   19.8325  -14.3331 C   0  0  0  0  0  0  0  0  0  0  0  0
  -22.7974   14.2708  -13.4835 C   0  0  0  0  0  0  0  0  0  0  0  0
  -22.1205   13.2209  -13.0824 C   0  0  0  0  0  0  0  0  0  0  0  0
  -22.0364   12.0186  -13.8963 C   0  0  0  0  0  0  0  0  0  0  0  0
  -21.3600   11.0497  -13.4724 O   0  0  0  0  0  0  0  0  0  0  0  0
  -22.6699   11.9003  -15.1150 O   0  0  0  0  0  0  0  0  0  0  0  0
  -22.6230   19.3550  -11.1528 O   0  0  0  0  0  0  0  0  0  0  0  0
  -22.7171   19.0475  -13.9799 O   0  0  0  0  0  0  0  0  0  0  0  0
  1  2  2  0
  1  4  1  0
  1 13  1  0
  2  3  1  0
  3  6  2  0
  4  5  2  0
  4 14  1  0
  5  6  1  0
  6  8  1  0
 14  7  1  0
  8  9  2  0
  9 10  1  0
 10 11  2  0
 10 12  1  0
M  END
$$$$
