
     RDKit          3D

 14 14  0  0  0  0  0  0  0  0999 V2000
  -22.7329   11.9139  -14.2859 C   0  0  0  0  0  0  0  0  0  0  0  0
  -22.8770   12.0015  -12.9111 C   0  0  0  0  0  0  0  0  0  0  0  0
  -23.0180   13.2259  -12.2724 C   0  0  0  0  0  0  0  0  0  0  0  0
  -22.7265   13.0544  -15.0559 C   0  0  0  0  0  0  0  0  0  0  0  0
  -22.8682   14.2527  -14.3953 C   0  0  0  0  0  0  0  0  0  0  0  0
  -23.0132   14.3636  -13.0257 C   0  0  0  0  0  0  0  0  0  0  0  0
  -22.3584   14.1534  -17.2253 C   0  0  0  0  0  0  0  0  0  0  0  0
  -23.1551   15.6942  -12.4438 C   0  0  0  0  0  0  0  0  0  0  0  0
  -22.8698   16.8089  -13.0741 C   0  0  0  0  0  0  0  0  0  0  0  0
  -22.9403   18.0972  -12.4029 C   0  0  0  0  0  0  0  0  0  0  0  0
  -22.5835   19.1242  -13.0303 O   0  0  0  0  0  0  0  0  0  0  0  0
  -23.3833   18.2355  -11.1047 O   0  0  0  0  0  0  0  0  0  0  0  0
  -22.5985   10.6720  -14.8477 O   0  0  0  0  0  0  0  0  0  0  0  0
  -22.5893   13.0484  -16.4124 O   0  0  0  0  0  0  0  0  0  0  0  0
  1  2  2  0
  1  4  1  0
  1 13  1  0
  2  3  1  0
  3  6  2  0
  4  5  2  0
  4 14  1  0
  5  6  1  0
  6  8  1  0
 14  7  1  0
  8  9  2  0
  9 10  1  0
 10 11  2  0
 10 12  1  0
M  END
$$$$
