
     RDKit          3D

 14 14  0  0  0  0  0  0  0  0999 V2000
  -23.0118   18.0302  -11.2586 C   0  0  0  0  0  0  0  0  0  0  0  0
  -23.1376   16.9707  -10.3589 C   0  0  0  0  0  0  0  0  0  0  0  0
  -23.0100   15.6836  -10.8226 C   0  0  0  0  0  0  0  0  0  0  0  0
  -22.7637   17.8107  -12.5938 C   0  0  0  0  0  0  0  0  0  0  0  0
  -22.6362   16.5006  -13.0519 C   0  0  0  0  0  0  0  0  0  0  0  0
  -22.7589   15.4415  -12.1702 C   0  0  0  0  0  0  0  0  0  0  0  0
  -23.5350   19.9571  -13.5159 C   0  0  0  0  0  0  0  0  0  0  0  0
  -22.6258   14.0840  -12.6502 C   0  0  0  0  0  0  0  0  0  0  0  0
  -22.4244   13.7329  -13.9061 C   0  0  0  0  0  0  0  0  0  0  0  0
  -22.1953   12.3238  -14.2219 C   0  0  0  0  0  0  0  0  0  0  0  0
  -22.1335   11.9536  -15.4077 O   0  0  0  0  0  0  0  0  0  0  0  0
  -22.0443   11.3838  -13.2080 O   0  0  0  0  0  0  0  0  0  0  0  0
  -23.1354   19.3402  -10.8215 O   0  0  0  0  0  0  0  0  0  0  0  0
  -22.6471   18.8849  -13.4452 O   0  0  0  0  0  0  0  0  0  0  0  0
  1  2  2  0
  1  4  1  0
  1 13  1  0
  2  3  1  0
  3  6  2  0
  4  5  2  0
  4 14  1  0
  5  6  1  0
  6  8  1  0
  7 14  1  6
  8  9  2  0
  9 10  1  0
 10 11  2  0
 10 12  1  0
M  END
$$$$
