
     RDKit          3D

 14 14  0  0  0  0  0  0  0  0999 V2000
  -22.4401   12.1094  -14.2661 C   0  0  0  0  0  0  0  0  0  0  0  0
  -22.6316   12.1137  -12.8943 C   0  0  0  0  0  0  0  0  0  0  0  0
  -22.7927   13.2976  -12.1874 C   0  0  0  0  0  0  0  0  0  0  0  0
  -22.4052   13.2946  -14.9644 C   0  0  0  0  0  0  0  0  0  0  0  0
  -22.5677   14.4511  -14.2373 C   0  0  0  0  0  0  0  0  0  0  0  0
  -22.7599   14.4789  -12.8693 C   0  0  0  0  0  0  0  0  0  0  0  0
  -21.6904   14.4473  -17.0163 C   0  0  0  0  0  0  0  0  0  0  0  0
  -22.9198   15.7722  -12.2128 C   0  0  0  0  0  0  0  0  0  0  0  0
  -22.8441   16.9272  -12.8305 C   0  0  0  0  0  0  0  0  0  0  0  0
  -23.0324   18.1805  -12.1172 C   0  0  0  0  0  0  0  0  0  0  0  0
  -22.9069   19.2583  -12.7486 O   0  0  0  0  0  0  0  0  0  0  0  0
  -23.3434   18.2324  -10.7751 O   0  0  0  0  0  0  0  0  0  0  0  0
  -22.2883   10.9034  -14.8976 O   0  0  0  0  0  0  0  0  0  0  0  0
  -22.2211   13.3707  -16.3133 O   0  0  0  0  0  0  0  0  0  0  0  0
  1  2  2  0
  1  4  1  0
  1 13  1  0
  2  3  1  0
  3  6  2  0
  4  5  2  0
  4 14  1  0
  5  6  1  0
  6  8  1  0
 14  7  1  0
  8  9  2  0
  9 10  1  0
 10 11  2  0
 10 12  1  0
M  END
$$$$
