
     RDKit          3D

 14 14  0  0  0  0  0  0  0  0999 V2000
  -22.8961   17.7763  -11.0834 C   0  0  0  0  0  0  0  0  0  0  0  0
  -22.8100   16.5392  -10.4665 C   0  0  0  0  0  0  0  0  0  0  0  0
  -22.5425   15.3846  -11.1892 C   0  0  0  0  0  0  0  0  0  0  0  0
  -22.7157   17.8865  -12.4431 C   0  0  0  0  0  0  0  0  0  0  0  0
  -22.4520   16.7256  -13.1326 C   0  0  0  0  0  0  0  0  0  0  0  0
  -22.3618   15.4816  -12.5381 C   0  0  0  0  0  0  0  0  0  0  0  0
  -22.1894   19.3561  -14.3440 C   0  0  0  0  0  0  0  0  0  0  0  0
  -22.0767   14.3243  -13.3799 C   0  0  0  0  0  0  0  0  0  0  0  0
  -22.7443   13.1959  -13.3330 C   0  0  0  0  0  0  0  0  0  0  0  0
  -22.3333   12.0404  -14.1147 C   0  0  0  0  0  0  0  0  0  0  0  0
  -21.9819   12.2133  -15.3073 O   0  0  0  0  0  0  0  0  0  0  0  0
  -22.3143   10.7623  -13.5980 O   0  0  0  0  0  0  0  0  0  0  0  0
  -23.1631   18.8728  -10.3071 O   0  0  0  0  0  0  0  0  0  0  0  0
  -22.7851   19.0678  -13.1204 O   0  0  0  0  0  0  0  0  0  0  0  0
  1  2  2  0
  1  4  1  0
  1 13  1  0
  2  3  1  0
  3  6  2  0
  4  5  2  0
  4 14  1  0
  5  6  1  0
  6  8  1  0
 14  7  1  0
  8  9  2  0
  9 10  1  0
 10 11  2  0
 10 12  1  0
M  END
$$$$
