
     RDKit          3D

 14 14  0  0  0  0  0  0  0  0999 V2000
  -23.2894   18.0262  -11.3584 C   0  0  0  0  0  0  0  0  0  0  0  0
  -23.5570   16.9463  -10.5157 C   0  0  0  0  0  0  0  0  0  0  0  0
  -23.3978   15.6693  -10.9975 C   0  0  0  0  0  0  0  0  0  0  0  0
  -22.8715   17.8366  -12.6553 C   0  0  0  0  0  0  0  0  0  0  0  0
  -22.7139   16.5366  -13.1322 C   0  0  0  0  0  0  0  0  0  0  0  0
  -22.9758   15.4575  -12.3070 C   0  0  0  0  0  0  0  0  0  0  0  0
  -22.7901   18.9773  -14.8334 C   0  0  0  0  0  0  0  0  0  0  0  0
  -22.8108   14.1105  -12.8063 C   0  0  0  0  0  0  0  0  0  0  0  0
  -22.5958   13.7826  -14.0662 C   0  0  0  0  0  0  0  0  0  0  0  0
  -22.4407   12.3717  -14.4167 C   0  0  0  0  0  0  0  0  0  0  0  0
  -22.5759   12.0050  -15.5975 O   0  0  0  0  0  0  0  0  0  0  0  0
  -22.1420   11.4260  -13.4416 O   0  0  0  0  0  0  0  0  0  0  0  0
  -23.4406   19.3266  -10.9017 O   0  0  0  0  0  0  0  0  0  0  0  0
  -22.6192   18.9302  -13.4508 O   0  0  0  0  0  0  0  0  0  0  0  0
  1  2  2  0
  1  4  1  0
  1 13  1  0
  2  3  1  0
  3  6  2  0
  4  5  2  0
  4 14  1  0
  5  6  1  0
  6  8  1  0
  7 14  1  6
  8  9  2  0
  9 10  1  0
 10 11  2  0
 10 12  1  0
M  END
$$$$
