
     RDKit          3D

 14 14  0  0  0  0  0  0  0  0999 V2000
  -22.6636   18.8528  -13.8638 C   0  0  0  0  0  0  0  0  0  0  0  0
  -22.7076   18.2388  -15.1164 C   0  0  0  0  0  0  0  0  0  0  0  0
  -22.6944   16.8666  -15.1870 C   0  0  0  0  0  0  0  0  0  0  0  0
  -22.6076   18.1135  -12.7050 C   0  0  0  0  0  0  0  0  0  0  0  0
  -22.5947   16.7224  -12.7899 C   0  0  0  0  0  0  0  0  0  0  0  0
  -22.6379   16.1016  -14.0254 C   0  0  0  0  0  0  0  0  0  0  0  0
  -23.3108   18.4120  -10.3666 C   0  0  0  0  0  0  0  0  0  0  0  0
  -22.6244   14.6580  -14.1084 C   0  0  0  0  0  0  0  0  0  0  0  0
  -22.2015   13.8413  -13.1622 C   0  0  0  0  0  0  0  0  0  0  0  0
  -22.0870   12.4134  -13.4551 C   0  0  0  0  0  0  0  0  0  0  0  0
  -21.6603   11.6320  -12.5865 O   0  0  0  0  0  0  0  0  0  0  0  0
  -22.4509   11.9120  -14.7003 O   0  0  0  0  0  0  0  0  0  0  0  0
  -22.6756   20.2353  -13.7595 O   0  0  0  0  0  0  0  0  0  0  0  0
  -22.5656   18.7605  -11.4918 O   0  0  0  0  0  0  0  0  0  0  0  0
  1  2  2  0
  1  4  1  0
  1 13  1  0
  2  3  1  0
  3  6  2  0
  4  5  2  0
  4 14  1  0
  5  6  1  0
  6  8  1  0
  7 14  1  6
  8  9  2  0
  9 10  1  0
 10 11  2  0
 10 12  1  0
M  END
$$$$
