
     RDKit          3D

 23 26  0  0  0  0  0  0  0  0999 V2000
   90.8500   95.8345  -42.3238 N   0  0  0  0  0  0  0  0  0  0  0  0
   90.3216   96.7612  -43.1518 C   0  0  0  0  0  0  0  0  0  0  0  0
   90.2880   96.2659  -44.4346 C   0  0  0  0  0  0  0  0  0  0  0  0
   89.7873   97.0353  -45.4612 C   0  0  0  0  0  0  0  0  0  0  0  0
   89.3211   98.3040  -45.1906 C   0  0  0  0  0  0  0  0  0  0  0  0
   89.3639   98.7813  -43.8973 C   0  0  0  0  0  0  0  0  0  0  0  0
   89.8621   98.0287  -42.8473 C   0  0  0  0  0  0  0  0  0  0  0  0
   88.7684   99.1899  -46.2417 C   0  0  0  0  0  0  0  0  0  0  0  0
   91.1444   94.7671  -43.0858 C   0  0  0  0  0  0  0  0  0  0  0  0
   90.8062   95.0058  -44.4023 C   0  0  0  0  0  0  0  0  0  0  0  0
   91.0414   94.0047  -45.3408 C   0  0  0  0  0  0  0  0  0  0  0  0
   91.6019   92.8025  -44.9487 C   0  0  0  0  0  0  0  0  0  0  0  0
   91.9342   92.5680  -43.6545 C   0  0  0  0  0  0  0  0  0  0  0  0
   91.6988   93.5637  -42.7300 C   0  0  0  0  0  0  0  0  0  0  0  0
   91.0584   95.9718  -40.8807 C   0  0  0  0  0  0  0  0  0  0  0  0
   92.5337   91.2980  -43.2001 C   0  0  0  0  0  0  0  0  0  0  0  0
   92.9029   90.2033  -43.9342 C   0  0  0  0  0  0  0  0  0  0  0  0
   93.4297   89.1680  -43.2731 C   0  0  0  0  0  0  0  0  0  0  0  0
   93.5589   89.2827  -41.9152 C   0  0  0  0  0  0  0  0  0  0  0  0
   92.9356   90.8427  -41.6104 S   0  0  0  0  0  0  0  0  0  0  0  0
   92.4428   96.4883  -40.6480 C   0  0  0  0  0  0  0  0  0  0  0  0
   87.3394   99.3894  -46.0810 N   0  0  0  0  0  4  0  0  0  0  0  0
   86.8527  100.2486  -47.1147 C   0  0  0  0  0  0  0  0  0  0  0  0
  1  2  1  0
  1  9  1  0
  1 15  1  0
  2  3  2  0
  2  7  1  0
  3  4  1  0
  3 10  1  0
  4  5  2  0
  5  6  1  0
  5  8  1  0
  6  7  2  0
  8 22  1  0
  9 10  2  0
  9 14  1  0
 10 11  1  0
 11 12  2  0
 12 13  1  0
 13 14  2  0
 13 16  1  0
 15 21  1  0
 16 17  2  0
 16 20  1  0
 17 18  1  0
 18 19  2  0
 19 20  1  0
 22 23  1  0
M  CHG  1  22   1
M  END
$$$$
