
     RDKit          3D

 23 26  0  0  0  0  0  0  0  0999 V2000
   91.3990   93.6204  -42.5813 N   0  0  0  0  0  0  0  0  0  0  0  0
   91.1685   94.8907  -42.1857 C   0  0  0  0  0  0  0  0  0  0  0  0
   90.7525   95.6393  -43.2621 C   0  0  0  0  0  0  0  0  0  0  0  0
   90.4551   96.9746  -43.1037 C   0  0  0  0  0  0  0  0  0  0  0  0
   90.5783   97.5521  -41.8581 C   0  0  0  0  0  0  0  0  0  0  0  0
   90.9970   96.7836  -40.7922 C   0  0  0  0  0  0  0  0  0  0  0  0
   91.3022   95.4395  -40.9241 C   0  0  0  0  0  0  0  0  0  0  0  0
   90.2768   98.9813  -41.6101 C   0  0  0  0  0  0  0  0  0  0  0  0
   91.1284   93.5767  -43.8972 C   0  0  0  0  0  0  0  0  0  0  0  0
   90.7242   94.8166  -44.3483 C   0  0  0  0  0  0  0  0  0  0  0  0
   90.4005   94.9607  -45.6947 C   0  0  0  0  0  0  0  0  0  0  0  0
   90.4864   93.8769  -46.5499 C   0  0  0  0  0  0  0  0  0  0  0  0
   90.8837   92.6582  -46.1061 C   0  0  0  0  0  0  0  0  0  0  0  0
   91.2029   92.5222  -44.7716 C   0  0  0  0  0  0  0  0  0  0  0  0
   91.8541   92.5132  -41.7377 C   0  0  0  0  0  0  0  0  0  0  0  0
   90.9871   91.4799  -46.9894 C   0  0  0  0  0  0  0  0  0  0  0  0
   91.3127   90.1882  -46.6751 C   0  0  0  0  0  0  0  0  0  0  0  0
   91.3359   89.2990  -47.6728 C   0  0  0  0  0  0  0  0  0  0  0  0
   91.0326   89.7488  -48.9295 C   0  0  0  0  0  0  0  0  0  0  0  0
   90.7243   91.4077  -48.6691 S   0  0  0  0  0  0  0  0  0  0  0  0
   93.3475   92.5562  -41.6627 C   0  0  0  0  0  0  0  0  0  0  0  0
   91.4803   99.7458  -41.3364 N   0  0  0  0  0  4  0  0  0  0  0  0
   91.1450  101.1223  -41.1458 C   0  0  0  0  0  0  0  0  0  0  0  0
  1  2  1  0
  1  9  1  0
  1 15  1  0
  2  3  2  0
  2  7  1  0
  3  4  1  0
  3 10  1  0
  4  5  2  0
  5  6  1  0
  5  8  1  0
  6  7  2  0
  8 22  1  0
  9 10  2  0
  9 14  1  0
 10 11  1  0
 11 12  2  0
 12 13  1  0
 13 14  2  0
 13 16  1  0
 15 21  1  0
 16 17  2  0
 16 20  1  0
 17 18  1  0
 18 19  2  0
 19 20  1  0
 22 23  1  0
M  CHG  1  22   1
M  END
$$$$
