
     RDKit          3D

 23 26  0  0  0  0  0  0  0  0999 V2000
   91.6752   93.9472  -42.8916 N   0  0  0  0  0  0  0  0  0  0  0  0
   91.4494   95.2004  -42.4423 C   0  0  0  0  0  0  0  0  0  0  0  0
   90.9731   95.9790  -43.4713 C   0  0  0  0  0  0  0  0  0  0  0  0
   90.6683   97.3042  -43.2533 C   0  0  0  0  0  0  0  0  0  0  0  0
   90.8450   97.8412  -41.9961 C   0  0  0  0  0  0  0  0  0  0  0  0
   91.3238   97.0430  -40.9784 C   0  0  0  0  0  0  0  0  0  0  0  0
   91.6378   95.7083  -41.1706 C   0  0  0  0  0  0  0  0  0  0  0  0
   90.5394   99.2572  -41.6852 C   0  0  0  0  0  0  0  0  0  0  0  0
   91.3415   93.9440  -44.1937 C   0  0  0  0  0  0  0  0  0  0  0  0
   90.9017   95.1929  -44.5824 C   0  0  0  0  0  0  0  0  0  0  0  0
   90.5113   95.3778  -45.9059 C   0  0  0  0  0  0  0  0  0  0  0  0
   90.5682   94.3245  -46.8007 C   0  0  0  0  0  0  0  0  0  0  0  0
   91.0007   93.0969  -46.4184 C   0  0  0  0  0  0  0  0  0  0  0  0
   91.3858   92.9205  -45.1062 C   0  0  0  0  0  0  0  0  0  0  0  0
   92.1835   92.8184  -42.1092 C   0  0  0  0  0  0  0  0  0  0  0  0
   91.0747   91.9504  -47.3453 C   0  0  0  0  0  0  0  0  0  0  0  0
   90.5064   91.7982  -48.5812 C   0  0  0  0  0  0  0  0  0  0  0  0
   90.7299   90.6478  -49.2240 C   0  0  0  0  0  0  0  0  0  0  0  0
   91.5085   89.7127  -48.5972 C   0  0  0  0  0  0  0  0  0  0  0  0
   91.9021   90.4801  -47.1237 S   0  0  0  0  0  0  0  0  0  0  0  0
   93.6786   92.8528  -42.1422 C   0  0  0  0  0  0  0  0  0  0  0  0
   91.7411  100.0134  -41.3824 N   0  0  0  0  0  4  0  0  0  0  0  0
   91.4050  101.3846  -41.1581 C   0  0  0  0  0  0  0  0  0  0  0  0
  1  2  1  0
  1  9  1  0
  1 15  1  0
  2  3  2  0
  2  7  1  0
  3  4  1  0
  3 10  1  0
  4  5  2  0
  5  6  1  0
  5  8  1  0
  6  7  2  0
  8 22  1  0
  9 10  2  0
  9 14  1  0
 10 11  1  0
 11 12  2  0
 12 13  1  0
 13 14  2  0
 13 16  1  0
 15 21  1  0
 16 17  2  0
 16 20  1  0
 17 18  1  0
 18 19  2  0
 19 20  1  0
 22 23  1  0
M  CHG  1  22   1
M  END
$$$$
