
     RDKit          3D

 23 26  0  0  0  0  0  0  0  0999 V2000
   91.1097   96.4211  -42.6760 N   0  0  0  0  0  0  0  0  0  0  0  0
   90.4824   97.1307  -43.6384 C   0  0  0  0  0  0  0  0  0  0  0  0
   90.1521   96.2981  -44.6823 C   0  0  0  0  0  0  0  0  0  0  0  0
   89.5005   96.7983  -45.7877 C   0  0  0  0  0  0  0  0  0  0  0  0
   89.1832   98.1388  -45.8371 C   0  0  0  0  0  0  0  0  0  0  0  0
   89.5235   98.9562  -44.7797 C   0  0  0  0  0  0  0  0  0  0  0  0
   90.1785   98.4790  -43.6571 C   0  0  0  0  0  0  0  0  0  0  0  0
   88.4834   98.7491  -46.9917 C   0  0  0  0  0  0  0  0  0  0  0  0
   91.1704   95.1528  -43.1171 C   0  0  0  0  0  0  0  0  0  0  0  0
   90.5833   95.0457  -44.3613 C   0  0  0  0  0  0  0  0  0  0  0  0
   90.5540   93.7974  -44.9771 C   0  0  0  0  0  0  0  0  0  0  0  0
   91.1048   92.6975  -44.3445 C   0  0  0  0  0  0  0  0  0  0  0  0
   91.6819   92.8030  -43.1214 C   0  0  0  0  0  0  0  0  0  0  0  0
   91.7076   94.0421  -42.5170 C   0  0  0  0  0  0  0  0  0  0  0  0
   91.6207   96.9376  -41.4045 C   0  0  0  0  0  0  0  0  0  0  0  0
   92.2792   91.6516  -42.4168 C   0  0  0  0  0  0  0  0  0  0  0  0
   92.2272   90.3210  -42.7333 C   0  0  0  0  0  0  0  0  0  0  0  0
   92.8605   89.4697  -41.9204 C   0  0  0  0  0  0  0  0  0  0  0  0
   93.5109   89.9940  -40.8362 C   0  0  0  0  0  0  0  0  0  0  0  0
   93.2117   91.6675  -40.9934 S   0  0  0  0  0  0  0  0  0  0  0  0
   90.5300   96.8516  -40.3844 C   0  0  0  0  0  0  0  0  0  0  0  0
   87.0972   99.0503  -46.6830 N   0  0  0  0  0  4  0  0  0  0  0  0
   86.4791   99.6834  -47.8058 C   0  0  0  0  0  0  0  0  0  0  0  0
  1  2  1  0
  1  9  1  0
  1 15  1  0
  2  3  2  0
  2  7  1  0
  3  4  1  0
  3 10  1  0
  4  5  2  0
  5  6  1  0
  5  8  1  0
  6  7  2  0
  8 22  1  0
  9 10  2  0
  9 14  1  0
 10 11  1  0
 11 12  2  0
 12 13  1  0
 13 14  2  0
 13 16  1  0
 15 21  1  0
 16 17  2  0
 16 20  1  0
 17 18  1  0
 18 19  2  0
 19 20  1  0
 22 23  1  0
M  CHG  1  22   1
M  END
$$$$
