
     RDKit          3D

 23 26  0  0  0  0  0  0  0  0999 V2000
   91.6108   93.8543  -42.8406 N   0  0  0  0  0  0  0  0  0  0  0  0
   91.4674   95.1303  -42.4227 C   0  0  0  0  0  0  0  0  0  0  0  0
   91.1084   95.9250  -43.4865 C   0  0  0  0  0  0  0  0  0  0  0  0
   90.9037   97.2748  -43.3047 C   0  0  0  0  0  0  0  0  0  0  0  0
   91.0620   97.8199  -42.0486 C   0  0  0  0  0  0  0  0  0  0  0  0
   91.4224   97.0053  -40.9957 C   0  0  0  0  0  0  0  0  0  0  0  0
   91.6342   95.6459  -41.1511 C   0  0  0  0  0  0  0  0  0  0  0  0
   90.8594   99.2620  -41.7755 C   0  0  0  0  0  0  0  0  0  0  0  0
   91.3426   93.8530  -44.1578 C   0  0  0  0  0  0  0  0  0  0  0  0
   91.0271   95.1258  -44.5875 C   0  0  0  0  0  0  0  0  0  0  0  0
   90.7192   95.3161  -45.9318 C   0  0  0  0  0  0  0  0  0  0  0  0
   90.7329   94.2445  -46.8062 C   0  0  0  0  0  0  0  0  0  0  0  0
   91.0431   92.9933  -46.3836 C   0  0  0  0  0  0  0  0  0  0  0  0
   91.3471   92.8117  -45.0510 C   0  0  0  0  0  0  0  0  0  0  0  0
   91.9849   92.7033  -42.0161 C   0  0  0  0  0  0  0  0  0  0  0  0
   91.0677   91.8267  -47.2878 C   0  0  0  0  0  0  0  0  0  0  0  0
   90.4781   91.6682  -48.5128 C   0  0  0  0  0  0  0  0  0  0  0  0
   90.6559   90.4985  -49.1347 C   0  0  0  0  0  0  0  0  0  0  0  0
   91.4128   89.5516  -48.4992 C   0  0  0  0  0  0  0  0  0  0  0  0
   91.8508   90.3352  -47.0470 S   0  0  0  0  0  0  0  0  0  0  0  0
   93.4771   92.6037  -41.9889 C   0  0  0  0  0  0  0  0  0  0  0  0
   89.5420   99.5259  -41.2255 N   0  0  0  0  0  4  0  0  0  0  0  0
   89.4100  100.9196  -40.9360 C   0  0  0  0  0  0  0  0  0  0  0  0
  1  2  1  0
  1  9  1  0
  1 15  1  0
  2  3  2  0
  2  7  1  0
  3  4  1  0
  3 10  1  0
  4  5  2  0
  5  6  1  0
  5  8  1  0
  6  7  2  0
  8 22  1  0
  9 10  2  0
  9 14  1  0
 10 11  1  0
 11 12  2  0
 12 13  1  0
 13 14  2  0
 13 16  1  0
 15 21  1  0
 16 17  2  0
 16 20  1  0
 17 18  1  0
 18 19  2  0
 19 20  1  0
 22 23  1  0
M  CHG  1  22   1
M  END
$$$$
