
     RDKit          3D

 23 26  0  0  0  0  0  0  0  0999 V2000
   91.4837   93.9052  -42.8058 N   0  0  0  0  0  0  0  0  0  0  0  0
   91.2501   95.1721  -42.4010 C   0  0  0  0  0  0  0  0  0  0  0  0
   90.7635   95.9094  -43.4554 C   0  0  0  0  0  0  0  0  0  0  0  0
   90.4494   97.2393  -43.2840 C   0  0  0  0  0  0  0  0  0  0  0  0
   90.6273   97.8227  -42.0478 C   0  0  0  0  0  0  0  0  0  0  0  0
   91.1164   97.0654  -41.0041 C   0  0  0  0  0  0  0  0  0  0  0  0
   91.4398   95.7270  -41.1494 C   0  0  0  0  0  0  0  0  0  0  0  0
   90.3120   99.2466  -41.7869 C   0  0  0  0  0  0  0  0  0  0  0  0
   91.1447   93.8524  -44.1055 C   0  0  0  0  0  0  0  0  0  0  0  0
   90.6936   95.0831  -44.5370 C   0  0  0  0  0  0  0  0  0  0  0  0
   90.2963   95.2171  -45.8646 C   0  0  0  0  0  0  0  0  0  0  0  0
   90.3577   94.1326  -46.7210 C   0  0  0  0  0  0  0  0  0  0  0  0
   90.8011   92.9230  -46.2966 C   0  0  0  0  0  0  0  0  0  0  0  0
   91.1930   92.7970  -44.9806 C   0  0  0  0  0  0  0  0  0  0  0  0
   92.0039   92.8093  -41.9854 C   0  0  0  0  0  0  0  0  0  0  0  0
   90.8801   91.7443  -47.1818 C   0  0  0  0  0  0  0  0  0  0  0  0
   91.2120   90.4522  -46.8755 C   0  0  0  0  0  0  0  0  0  0  0  0
   91.2083   89.5627  -47.8732 C   0  0  0  0  0  0  0  0  0  0  0  0
   90.8735   90.0125  -49.1218 C   0  0  0  0  0  0  0  0  0  0  0  0
   90.5742   91.6719  -48.8542 S   0  0  0  0  0  0  0  0  0  0  0  0
   93.4969   92.8985  -41.9654 C   0  0  0  0  0  0  0  0  0  0  0  0
   91.4421  100.1102  -42.0779 N   0  0  0  0  0  4  0  0  0  0  0  0
   91.0744  101.4751  -41.8640 C   0  0  0  0  0  0  0  0  0  0  0  0
  1  2  1  0
  1  9  1  0
  1 15  1  0
  2  3  2  0
  2  7  1  0
  3  4  1  0
  3 10  1  0
  4  5  2  0
  5  6  1  0
  5  8  1  0
  6  7  2  0
  8 22  1  0
  9 10  2  0
  9 14  1  0
 10 11  1  0
 11 12  2  0
 12 13  1  0
 13 14  2  0
 13 16  1  0
 15 21  1  0
 16 17  2  0
 16 20  1  0
 17 18  1  0
 18 19  2  0
 19 20  1  0
 22 23  1  0
M  CHG  1  22   1
M  END
$$$$
