
     RDKit          3D

 23 26  0  0  0  0  0  0  0  0999 V2000
   91.6271   93.8333  -42.8429 N   0  0  0  0  0  0  0  0  0  0  0  0
   91.4191   95.0843  -42.3791 C   0  0  0  0  0  0  0  0  0  0  0  0
   90.9402   95.8779  -43.3955 C   0  0  0  0  0  0  0  0  0  0  0  0
   90.6515   97.2040  -43.1614 C   0  0  0  0  0  0  0  0  0  0  0  0
   90.8470   97.7267  -41.9010 C   0  0  0  0  0  0  0  0  0  0  0  0
   91.3280   96.9137  -40.8961 C   0  0  0  0  0  0  0  0  0  0  0  0
   91.6261   95.5778  -41.1046 C   0  0  0  0  0  0  0  0  0  0  0  0
   90.5593   99.1427  -41.5732 C   0  0  0  0  0  0  0  0  0  0  0  0
   91.2799   93.8463  -44.1414 C   0  0  0  0  0  0  0  0  0  0  0  0
   90.8490   95.1035  -44.5133 C   0  0  0  0  0  0  0  0  0  0  0  0
   90.4468   95.3053  -45.8308 C   0  0  0  0  0  0  0  0  0  0  0  0
   90.4834   94.2604  -46.7363 C   0  0  0  0  0  0  0  0  0  0  0  0
   90.9071   93.0247  -46.3705 C   0  0  0  0  0  0  0  0  0  0  0  0
   91.3040   92.8314  -45.0642 C   0  0  0  0  0  0  0  0  0  0  0  0
   92.1318   92.6918  -42.0768 C   0  0  0  0  0  0  0  0  0  0  0  0
   90.9595   91.8867  -47.3092 C   0  0  0  0  0  0  0  0  0  0  0  0
   90.3065   91.7158  -48.5000 C   0  0  0  0  0  0  0  0  0  0  0  0
   90.5294   90.5789  -49.1667 C   0  0  0  0  0  0  0  0  0  0  0  0
   91.3921   89.6753  -48.6075 C   0  0  0  0  0  0  0  0  0  0  0  0
   91.8629   90.4521  -47.1619 S   0  0  0  0  0  0  0  0  0  0  0  0
   93.6270   92.7215  -42.1099 C   0  0  0  0  0  0  0  0  0  0  0  0
   91.7121   99.9940  -41.8059 N   0  0  0  0  0  4  0  0  0  0  0  0
   91.3807  101.3502  -41.4982 C   0  0  0  0  0  0  0  0  0  0  0  0
  1  2  1  0
  1  9  1  0
  1 15  1  0
  2  3  2  0
  2  7  1  0
  3  4  1  0
  3 10  1  0
  4  5  2  0
  5  6  1  0
  5  8  1  0
  6  7  2  0
  8 22  1  0
  9 10  2  0
  9 14  1  0
 10 11  1  0
 11 12  2  0
 12 13  1  0
 13 14  2  0
 13 16  1  0
 15 21  1  0
 16 17  2  0
 16 20  1  0
 17 18  1  0
 18 19  2  0
 19 20  1  0
 22 23  1  0
M  CHG  1  22   1
M  END
$$$$
