
     RDKit          3D

 23 26  0  0  0  0  0  0  0  0999 V2000
   91.7196   96.3659  -44.5131 N   0  0  0  0  0  0  0  0  0  0  0  0
   90.7921   97.3453  -44.4503 C   0  0  0  0  0  0  0  0  0  0  0  0
   89.8805   97.0527  -43.4627 C   0  0  0  0  0  0  0  0  0  0  0  0
   88.8338   97.9113  -43.2098 C   0  0  0  0  0  0  0  0  0  0  0  0
   88.7094   99.0643  -43.9549 C   0  0  0  0  0  0  0  0  0  0  0  0
   89.6344   99.3387  -44.9404 C   0  0  0  0  0  0  0  0  0  0  0  0
   90.6955   98.4928  -45.2149 C   0  0  0  0  0  0  0  0  0  0  0  0
   87.6110  100.0354  -43.7412 C   0  0  0  0  0  0  0  0  0  0  0  0
   91.3884   95.4672  -43.5699 C   0  0  0  0  0  0  0  0  0  0  0  0
   90.2497   95.8672  -42.9008 C   0  0  0  0  0  0  0  0  0  0  0  0
   89.7565   95.0543  -41.8838 C   0  0  0  0  0  0  0  0  0  0  0  0
   90.4034   93.8749  -41.5616 C   0  0  0  0  0  0  0  0  0  0  0  0
   91.5228   93.4820  -42.2195 C   0  0  0  0  0  0  0  0  0  0  0  0
   92.0060   94.2916  -43.2257 C   0  0  0  0  0  0  0  0  0  0  0  0
   92.8593   96.3015  -45.4305 C   0  0  0  0  0  0  0  0  0  0  0  0
   92.2390   92.2307  -41.9029 C   0  0  0  0  0  0  0  0  0  0  0  0
   91.8945   91.2325  -41.0320 C   0  0  0  0  0  0  0  0  0  0  0  0
   92.7267   90.1917  -40.9283 C   0  0  0  0  0  0  0  0  0  0  0  0
   93.8571   90.2050  -41.7000 C   0  0  0  0  0  0  0  0  0  0  0  0
   93.7147   91.6803  -42.5473 S   0  0  0  0  0  0  0  0  0  0  0  0
   93.9703   97.1290  -44.8663 C   0  0  0  0  0  0  0  0  0  0  0  0
   87.9721  101.0513  -42.7690 N   0  0  0  0  0  4  0  0  0  0  0  0
   86.8534  101.9079  -42.5276 C   0  0  0  0  0  0  0  0  0  0  0  0
  1  2  1  0
  1  9  1  0
  1 15  1  0
  2  3  2  0
  2  7  1  0
  3  4  1  0
  3 10  1  0
  4  5  2  0
  5  6  1  0
  5  8  1  0
  6  7  2  0
  8 22  1  0
  9 10  2  0
  9 14  1  0
 10 11  1  0
 11 12  2  0
 12 13  1  0
 13 14  2  0
 13 16  1  0
 15 21  1  0
 16 17  2  0
 16 20  1  0
 17 18  1  0
 18 19  2  0
 19 20  1  0
 22 23  1  0
M  CHG  1  22   1
M  END
$$$$
