
     RDKit          3D

 23 26  0  0  0  0  0  0  0  0999 V2000
   91.2528   93.7834  -42.7142 N   0  0  0  0  0  0  0  0  0  0  0  0
   91.1366   95.0582  -42.2843 C   0  0  0  0  0  0  0  0  0  0  0  0
   90.7754   95.8672  -43.3365 C   0  0  0  0  0  0  0  0  0  0  0  0
   90.5958   97.2186  -43.1413 C   0  0  0  0  0  0  0  0  0  0  0  0
   90.7813   97.7510  -41.8834 C   0  0  0  0  0  0  0  0  0  0  0  0
   91.1434   96.9222  -40.8422 C   0  0  0  0  0  0  0  0  0  0  0  0
   91.3304   95.5607  -41.0113 C   0  0  0  0  0  0  0  0  0  0  0  0
   90.6066   99.1939  -41.5962 C   0  0  0  0  0  0  0  0  0  0  0  0
   90.9655   93.7970  -44.0273 C   0  0  0  0  0  0  0  0  0  0  0  0
   90.6650   95.0783  -44.4424 C   0  0  0  0  0  0  0  0  0  0  0  0
   90.3407   95.2843  -45.7806 C   0  0  0  0  0  0  0  0  0  0  0  0
   90.3240   94.2196  -46.6634 C   0  0  0  0  0  0  0  0  0  0  0  0
   90.6195   92.9602  -46.2551 C   0  0  0  0  0  0  0  0  0  0  0  0
   90.9398   92.7629  -44.9285 C   0  0  0  0  0  0  0  0  0  0  0  0
   91.6197   92.6198  -41.9042 C   0  0  0  0  0  0  0  0  0  0  0  0
   90.6117   91.8006  -47.1685 C   0  0  0  0  0  0  0  0  0  0  0  0
   89.9644   91.6449  -48.3644 C   0  0  0  0  0  0  0  0  0  0  0  0
   90.1234   90.4818  -49.0036 C   0  0  0  0  0  0  0  0  0  0  0  0
   90.9202   89.5382  -48.4133 C   0  0  0  0  0  0  0  0  0  0  0  0
   91.4208   90.3157  -46.9781 S   0  0  0  0  0  0  0  0  0  0  0  0
   93.1107   92.5006  -41.8924 C   0  0  0  0  0  0  0  0  0  0  0  0
   89.2176   99.5268  -41.3361 N   0  0  0  0  0  4  0  0  0  0  0  0
   89.1045  100.9175  -41.0251 C   0  0  0  0  0  0  0  0  0  0  0  0
  1  2  1  0
  1  9  1  0
  1 15  1  0
  2  3  2  0
  2  7  1  0
  3  4  1  0
  3 10  1  0
  4  5  2  0
  5  6  1  0
  5  8  1  0
  6  7  2  0
  8 22  1  0
  9 10  2  0
  9 14  1  0
 10 11  1  0
 11 12  2  0
 12 13  1  0
 13 14  2  0
 13 16  1  0
 15 21  1  0
 16 17  2  0
 16 20  1  0
 17 18  1  0
 18 19  2  0
 19 20  1  0
 22 23  1  0
M  CHG  1  22   1
M  END
$$$$
