
     RDKit          3D

 23 26  0  0  0  0  0  0  0  0999 V2000
   91.6810   94.1996  -42.7646 N   0  0  0  0  0  0  0  0  0  0  0  0
   91.4325   95.4891  -42.4503 C   0  0  0  0  0  0  0  0  0  0  0  0
   90.8703   96.1260  -43.5320 C   0  0  0  0  0  0  0  0  0  0  0  0
   90.5273   97.4573  -43.4507 C   0  0  0  0  0  0  0  0  0  0  0  0
   90.7528   98.1435  -42.2766 C   0  0  0  0  0  0  0  0  0  0  0  0
   91.3176   97.4860  -41.2039 C   0  0  0  0  0  0  0  0  0  0  0  0
   91.6716   96.1486  -41.2592 C   0  0  0  0  0  0  0  0  0  0  0  0
   90.4107   99.5758  -42.1136 C   0  0  0  0  0  0  0  0  0  0  0  0
   91.2760   94.0329  -44.0354 C   0  0  0  0  0  0  0  0  0  0  0  0
   90.7676   95.2130  -44.5387 C   0  0  0  0  0  0  0  0  0  0  0  0
   90.2976   95.2286  -45.8491 C   0  0  0  0  0  0  0  0  0  0  0  0
   90.3452   94.0799  -46.6181 C   0  0  0  0  0  0  0  0  0  0  0  0
   90.8450   92.9200  -46.1232 C   0  0  0  0  0  0  0  0  0  0  0  0
   91.3089   92.9112  -44.8246 C   0  0  0  0  0  0  0  0  0  0  0  0
   92.2750   93.1872  -41.8887 C   0  0  0  0  0  0  0  0  0  0  0  0
   90.9115   91.6755  -46.9143 C   0  0  0  0  0  0  0  0  0  0  0  0
   91.5274   90.4906  -46.6140 C   0  0  0  0  0  0  0  0  0  0  0  0
   91.4374   89.5051  -47.5125 C   0  0  0  0  0  0  0  0  0  0  0  0
   90.7374   89.7571  -48.6614 C   0  0  0  0  0  0  0  0  0  0  0  0
   90.2275   91.3718  -48.4426 S   0  0  0  0  0  0  0  0  0  0  0  0
   91.1724   92.4665  -41.1801 C   0  0  0  0  0  0  0  0  0  0  0  0
   89.9021   99.8598  -40.7838 N   0  0  0  0  0  4  0  0  0  0  0  0
   89.5857  101.2497  -40.6746 C   0  0  0  0  0  0  0  0  0  0  0  0
  1  2  1  0
  1  9  1  0
  1 15  1  0
  2  3  2  0
  2  7  1  0
  3  4  1  0
  3 10  1  0
  4  5  2  0
  5  6  1  0
  5  8  1  0
  6  7  2  0
  8 22  1  0
  9 10  2  0
  9 14  1  0
 10 11  1  0
 11 12  2  0
 12 13  1  0
 13 14  2  0
 13 16  1  0
 15 21  1  0
 16 17  2  0
 16 20  1  0
 17 18  1  0
 18 19  2  0
 19 20  1  0
 22 23  1  0
M  CHG  1  22   1
M  END
$$$$
