
     RDKit          3D

 23 26  0  0  0  0  0  0  0  0999 V2000
   91.4344   93.9185  -42.6914 N   0  0  0  0  0  0  0  0  0  0  0  0
   91.3044   95.1908  -42.2580 C   0  0  0  0  0  0  0  0  0  0  0  0
   90.9240   95.9969  -43.3057 C   0  0  0  0  0  0  0  0  0  0  0  0
   90.7277   97.3454  -43.1062 C   0  0  0  0  0  0  0  0  0  0  0  0
   90.9160   97.8778  -41.8488 C   0  0  0  0  0  0  0  0  0  0  0  0
   91.2975   97.0519  -40.8122 C   0  0  0  0  0  0  0  0  0  0  0  0
   91.5014   95.6935  -40.9856 C   0  0  0  0  0  0  0  0  0  0  0  0
   90.7241   99.3177  -41.5572 C   0  0  0  0  0  0  0  0  0  0  0  0
   91.1366   93.9308  -44.0021 C   0  0  0  0  0  0  0  0  0  0  0  0
   90.8155   95.2087  -44.4122 C   0  0  0  0  0  0  0  0  0  0  0  0
   90.4779   95.4130  -45.7474 C   0  0  0  0  0  0  0  0  0  0  0  0
   90.4687   94.3498  -46.6322 C   0  0  0  0  0  0  0  0  0  0  0  0
   90.7844   93.0938  -46.2288 C   0  0  0  0  0  0  0  0  0  0  0  0
   91.1178   92.8982  -44.9052 C   0  0  0  0  0  0  0  0  0  0  0  0
   91.8234   92.7585  -41.8866 C   0  0  0  0  0  0  0  0  0  0  0  0
   90.7850   91.9360  -47.1446 C   0  0  0  0  0  0  0  0  0  0  0  0
   90.3492   91.8562  -48.4396 C   0  0  0  0  0  0  0  0  0  0  0  0
   90.4624   90.6754  -49.0555 C   0  0  0  0  0  0  0  0  0  0  0  0
   91.0045   89.6392  -48.3443 C   0  0  0  0  0  0  0  0  0  0  0  0
   91.3383   90.3574  -46.8318 S   0  0  0  0  0  0  0  0  0  0  0  0
   93.3168   92.6788  -41.8593 C   0  0  0  0  0  0  0  0  0  0  0  0
   89.3537   99.6125  -41.1792 N   0  0  0  0  0  4  0  0  0  0  0  0
   89.2341  100.9953  -40.8371 C   0  0  0  0  0  0  0  0  0  0  0  0
  1  2  1  0
  1  9  1  0
  1 15  1  0
  2  3  2  0
  2  7  1  0
  3  4  1  0
  3 10  1  0
  4  5  2  0
  5  6  1  0
  5  8  1  0
  6  7  2  0
  8 22  1  0
  9 10  2  0
  9 14  1  0
 10 11  1  0
 11 12  2  0
 12 13  1  0
 13 14  2  0
 13 16  1  0
 15 21  1  0
 16 17  2  0
 16 20  1  0
 17 18  1  0
 18 19  2  0
 19 20  1  0
 22 23  1  0
M  CHG  1  22   1
M  END
$$$$
