
     RDKit          3D

 23 26  0  0  0  0  0  0  0  0999 V2000
   91.7958   94.0418  -42.8915 N   0  0  0  0  0  0  0  0  0  0  0  0
   91.5153   95.2840  -42.4425 C   0  0  0  0  0  0  0  0  0  0  0  0
   90.8725   95.9953  -43.4289 C   0  0  0  0  0  0  0  0  0  0  0  0
   90.4838   97.2970  -43.2028 C   0  0  0  0  0  0  0  0  0  0  0  0
   90.7449   97.8785  -41.9805 C   0  0  0  0  0  0  0  0  0  0  0  0
   91.3906   97.1476  -41.0053 C   0  0  0  0  0  0  0  0  0  0  0  0
   91.7919   95.8379  -41.2066 C   0  0  0  0  0  0  0  0  0  0  0  0
   90.3575   99.2730  -41.6635 C   0  0  0  0  0  0  0  0  0  0  0  0
   91.3306   93.9785  -44.1511 C   0  0  0  0  0  0  0  0  0  0  0  0
   90.7515   95.1778  -44.5126 C   0  0  0  0  0  0  0  0  0  0  0  0
   90.2123   95.2967  -45.7907 C   0  0  0  0  0  0  0  0  0  0  0  0
   90.2628   94.2288  -46.6683 C   0  0  0  0  0  0  0  0  0  0  0  0
   90.8322   93.0500  -46.3127 C   0  0  0  0  0  0  0  0  0  0  0  0
   91.3643   92.9387  -45.0454 C   0  0  0  0  0  0  0  0  0  0  0  0
   92.4736   92.9779  -42.1477 C   0  0  0  0  0  0  0  0  0  0  0  0
   90.9040   91.8897  -47.2224 C   0  0  0  0  0  0  0  0  0  0  0  0
   90.1875   91.6365  -48.3608 C   0  0  0  0  0  0  0  0  0  0  0  0
   90.4470   90.4978  -49.0109 C   0  0  0  0  0  0  0  0  0  0  0  0
   91.4078   89.6747  -48.4884 C   0  0  0  0  0  0  0  0  0  0  0  0
   91.9163   90.5274  -47.0995 S   0  0  0  0  0  0  0  0  0  0  0  0
   91.4360   92.0960  -41.5287 C   0  0  0  0  0  0  0  0  0  0  0  0
   91.4983  100.1702  -41.7003 N   0  0  0  0  0  4  0  0  0  0  0  0
   91.0713  101.5056  -41.4208 C   0  0  0  0  0  0  0  0  0  0  0  0
  1  2  1  0
  1  9  1  0
  1 15  1  0
  2  3  2  0
  2  7  1  0
  3  4  1  0
  3 10  1  0
  4  5  2  0
  5  6  1  0
  5  8  1  0
  6  7  2  0
  8 22  1  0
  9 10  2  0
  9 14  1  0
 10 11  1  0
 11 12  2  0
 12 13  1  0
 13 14  2  0
 13 16  1  0
 15 21  1  0
 16 17  2  0
 16 20  1  0
 17 18  1  0
 18 19  2  0
 19 20  1  0
 22 23  1  0
M  CHG  1  22   1
M  END
$$$$
