
     RDKit          3D

 23 26  0  0  0  0  0  0  0  0999 V2000
   91.8074   94.2600  -42.7326 N   0  0  0  0  0  0  0  0  0  0  0  0
   91.5558   95.5298  -42.3481 C   0  0  0  0  0  0  0  0  0  0  0  0
   90.9547   96.2122  -43.3801 C   0  0  0  0  0  0  0  0  0  0  0  0
   90.6012   97.5340  -43.2234 C   0  0  0  0  0  0  0  0  0  0  0  0
   90.8553   98.1647  -42.0243 C   0  0  0  0  0  0  0  0  0  0  0  0
   91.4588   97.4621  -41.0024 C   0  0  0  0  0  0  0  0  0  0  0  0
   91.8242   96.1331  -41.1337 C   0  0  0  0  0  0  0  0  0  0  0  0
   90.5041   99.5833  -41.7810 C   0  0  0  0  0  0  0  0  0  0  0  0
   91.3658   94.1509  -43.9975 C   0  0  0  0  0  0  0  0  0  0  0  0
   90.8307   95.3483  -44.4269 C   0  0  0  0  0  0  0  0  0  0  0  0
   90.3212   95.4224  -45.7204 C   0  0  0  0  0  0  0  0  0  0  0  0
   90.3569   94.3132  -46.5459 C   0  0  0  0  0  0  0  0  0  0  0  0
   90.8830   93.1363  -46.1236 C   0  0  0  0  0  0  0  0  0  0  0  0
   91.3860   93.0695  -44.8414 C   0  0  0  0  0  0  0  0  0  0  0  0
   92.4376   93.2130  -41.9255 C   0  0  0  0  0  0  0  0  0  0  0  0
   90.9379   91.9328  -46.9765 C   0  0  0  0  0  0  0  0  0  0  0  0
   90.3649   91.7116  -48.1997 C   0  0  0  0  0  0  0  0  0  0  0  0
   90.5697   90.5197  -48.7689 C   0  0  0  0  0  0  0  0  0  0  0  0
   91.3354   89.6143  -48.0853 C   0  0  0  0  0  0  0  0  0  0  0  0
   91.7435   90.4669  -46.6635 S   0  0  0  0  0  0  0  0  0  0  0  0
   91.3640   92.4450  -41.2220 C   0  0  0  0  0  0  0  0  0  0  0  0
   89.2897   99.7102  -40.9956 N   0  0  0  0  0  4  0  0  0  0  0  0
   89.0214  101.0911  -40.7411 C   0  0  0  0  0  0  0  0  0  0  0  0
  1  2  1  0
  1  9  1  0
  1 15  1  0
  2  3  2  0
  2  7  1  0
  3  4  1  0
  3 10  1  0
  4  5  2  0
  5  6  1  0
  5  8  1  0
  6  7  2  0
  8 22  1  0
  9 10  2  0
  9 14  1  0
 10 11  1  0
 11 12  2  0
 12 13  1  0
 13 14  2  0
 13 16  1  0
 15 21  1  0
 16 17  2  0
 16 20  1  0
 17 18  1  0
 18 19  2  0
 19 20  1  0
 22 23  1  0
M  CHG  1  22   1
M  END
$$$$
