
     RDKit          3D

 23 26  0  0  0  0  0  0  0  0999 V2000
   91.6078   94.2630  -42.9112 N   0  0  0  0  0  0  0  0  0  0  0  0
   91.3356   95.5319  -42.5379 C   0  0  0  0  0  0  0  0  0  0  0  0
   90.7192   96.1939  -43.5741 C   0  0  0  0  0  0  0  0  0  0  0  0
   90.3435   97.5109  -43.4286 C   0  0  0  0  0  0  0  0  0  0  0  0
   90.5910   98.1573  -42.2365 C   0  0  0  0  0  0  0  0  0  0  0  0
   91.2103   97.4751  -41.2103 C   0  0  0  0  0  0  0  0  0  0  0  0
   91.5980   96.1513  -41.3303 C   0  0  0  0  0  0  0  0  0  0  0  0
   90.2162   99.5720  -42.0055 C   0  0  0  0  0  0  0  0  0  0  0  0
   91.1635   94.1342  -44.1733 C   0  0  0  0  0  0  0  0  0  0  0  0
   90.6063   95.3180  -44.6121 C   0  0  0  0  0  0  0  0  0  0  0  0
   90.0909   95.3710  -45.9043 C   0  0  0  0  0  0  0  0  0  0  0  0
   90.1427   94.2547  -46.7194 C   0  0  0  0  0  0  0  0  0  0  0  0
   90.6906   93.0911  -46.2878 C   0  0  0  0  0  0  0  0  0  0  0  0
   91.1992   93.0453  -45.0070 C   0  0  0  0  0  0  0  0  0  0  0  0
   92.2588   93.2348  -42.0966 C   0  0  0  0  0  0  0  0  0  0  0  0
   90.7631   91.8805  -47.1294 C   0  0  0  0  0  0  0  0  0  0  0  0
   90.1549   91.6217  -48.3279 C   0  0  0  0  0  0  0  0  0  0  0  0
   90.3872   90.4322  -48.8918 C   0  0  0  0  0  0  0  0  0  0  0  0
   91.2140   89.5668  -48.2277 C   0  0  0  0  0  0  0  0  0  0  0  0
   91.6390   90.4524  -46.8313 S   0  0  0  0  0  0  0  0  0  0  0  0
   91.1993   92.4100  -41.4373 C   0  0  0  0  0  0  0  0  0  0  0  0
   90.6516  100.0382  -40.7013 N   0  0  0  0  0  4  0  0  0  0  0  0
   90.2904  101.4112  -40.5341 C   0  0  0  0  0  0  0  0  0  0  0  0
  1  2  1  0
  1  9  1  0
  1 15  1  0
  2  3  2  0
  2  7  1  0
  3  4  1  0
  3 10  1  0
  4  5  2  0
  5  6  1  0
  5  8  1  0
  6  7  2  0
  8 22  1  0
  9 10  2  0
  9 14  1  0
 10 11  1  0
 11 12  2  0
 12 13  1  0
 13 14  2  0
 13 16  1  0
 15 21  1  0
 16 17  2  0
 16 20  1  0
 17 18  1  0
 18 19  2  0
 19 20  1  0
 22 23  1  0
M  CHG  1  22   1
M  END
$$$$
