
     RDKit          3D

 23 26  0  0  0  0  0  0  0  0999 V2000
   90.7514   95.1023  -44.7613 N   0  0  0  0  0  0  0  0  0  0  0  0
   90.3290   96.3555  -44.4885 C   0  0  0  0  0  0  0  0  0  0  0  0
   90.4963   96.6157  -43.1482 C   0  0  0  0  0  0  0  0  0  0  0  0
   90.1341   97.8391  -42.6296 C   0  0  0  0  0  0  0  0  0  0  0  0
   89.6032   98.7979  -43.4656 C   0  0  0  0  0  0  0  0  0  0  0  0
   89.4439   98.5165  -44.8063 C   0  0  0  0  0  0  0  0  0  0  0  0
   89.7998   97.2953  -45.3531 C   0  0  0  0  0  0  0  0  0  0  0  0
   89.1906  100.1359  -42.9813 C   0  0  0  0  0  0  0  0  0  0  0  0
   91.1800   94.5836  -43.5976 C   0  0  0  0  0  0  0  0  0  0  0  0
   91.0338   95.5010  -42.5772 C   0  0  0  0  0  0  0  0  0  0  0  0
   91.4281   95.1351  -41.2931 C   0  0  0  0  0  0  0  0  0  0  0  0
   91.9531   93.8769  -41.0595 C   0  0  0  0  0  0  0  0  0  0  0  0
   92.0967   92.9752  -42.0627 C   0  0  0  0  0  0  0  0  0  0  0  0
   91.7042   93.3439  -43.3322 C   0  0  0  0  0  0  0  0  0  0  0  0
   90.7419   94.4441  -46.0694 C   0  0  0  0  0  0  0  0  0  0  0  0
   92.6526   91.6243  -41.8506 C   0  0  0  0  0  0  0  0  0  0  0  0
   93.0551   91.0267  -40.6869 C   0  0  0  0  0  0  0  0  0  0  0  0
   93.5282   89.7791  -40.7672 C   0  0  0  0  0  0  0  0  0  0  0  0
   93.5733   89.1971  -42.0052 C   0  0  0  0  0  0  0  0  0  0  0  0
   92.9492   90.4219  -43.0177 S   0  0  0  0  0  0  0  0  0  0  0  0
   89.4126   93.7851  -46.2596 C   0  0  0  0  0  0  0  0  0  0  0  0
   90.3272  101.0250  -42.8220 N   0  0  0  0  0  4  0  0  0  0  0  0
   89.8777  102.3098  -42.3851 C   0  0  0  0  0  0  0  0  0  0  0  0
  1  2  1  0
  1  9  1  0
  1 15  1  0
  2  3  2  0
  2  7  1  0
  3  4  1  0
  3 10  1  0
  4  5  2  0
  5  6  1  0
  5  8  1  0
  6  7  2  0
  8 22  1  0
  9 10  2  0
  9 14  1  0
 10 11  1  0
 11 12  2  0
 12 13  1  0
 13 14  2  0
 13 16  1  0
 15 21  1  0
 16 17  2  0
 16 20  1  0
 17 18  1  0
 18 19  2  0
 19 20  1  0
 22 23  1  0
M  CHG  1  22   1
M  END
$$$$
