
     RDKit          3D

 23 26  0  0  0  0  0  0  0  0999 V2000
   91.8086   94.0215  -42.7913 N   0  0  0  0  0  0  0  0  0  0  0  0
   91.5459   95.2607  -42.3234 C   0  0  0  0  0  0  0  0  0  0  0  0
   90.8924   95.9884  -43.2905 C   0  0  0  0  0  0  0  0  0  0  0  0
   90.5182   97.2905  -43.0430 C   0  0  0  0  0  0  0  0  0  0  0  0
   90.8046   97.8557  -41.8188 C   0  0  0  0  0  0  0  0  0  0  0  0
   91.4606   97.1085  -40.8630 C   0  0  0  0  0  0  0  0  0  0  0  0
   91.8477   95.7980  -41.0861 C   0  0  0  0  0  0  0  0  0  0  0  0
   90.4340   99.2495  -41.4793 C   0  0  0  0  0  0  0  0  0  0  0  0
   91.3217   93.9765  -44.0434 C   0  0  0  0  0  0  0  0  0  0  0  0
   90.7464   95.1845  -44.3813 C   0  0  0  0  0  0  0  0  0  0  0  0
   90.1868   95.3225  -45.6486 C   0  0  0  0  0  0  0  0  0  0  0  0
   90.2138   94.2645  -46.5391 C   0  0  0  0  0  0  0  0  0  0  0  0
   90.7794   93.0771  -46.2067 C   0  0  0  0  0  0  0  0  0  0  0  0
   91.3319   92.9470  -44.9500 C   0  0  0  0  0  0  0  0  0  0  0  0
   92.4901   92.9437  -42.0712 C   0  0  0  0  0  0  0  0  0  0  0  0
   90.8264   91.9269  -47.1307 C   0  0  0  0  0  0  0  0  0  0  0  0
   90.1019   91.7014  -48.2699 C   0  0  0  0  0  0  0  0  0  0  0  0
   90.3378   90.5660  -48.9347 C   0  0  0  0  0  0  0  0  0  0  0  0
   91.2841   89.7184  -48.4253 C   0  0  0  0  0  0  0  0  0  0  0  0
   91.8128   90.5441  -47.0276 S   0  0  0  0  0  0  0  0  0  0  0  0
   91.4565   92.0760  -41.4261 C   0  0  0  0  0  0  0  0  0  0  0  0
   91.5187  100.1759  -41.7492 N   0  0  0  0  0  4  0  0  0  0  0  0
   91.1124  101.5053  -41.4158 C   0  0  0  0  0  0  0  0  0  0  0  0
  1  2  1  0
  1  9  1  0
  1 15  1  0
  2  3  2  0
  2  7  1  0
  3  4  1  0
  3 10  1  0
  4  5  2  0
  5  6  1  0
  5  8  1  0
  6  7  2  0
  8 22  1  0
  9 10  2  0
  9 14  1  0
 10 11  1  0
 11 12  2  0
 12 13  1  0
 13 14  2  0
 13 16  1  0
 15 21  1  0
 16 17  2  0
 16 20  1  0
 17 18  1  0
 18 19  2  0
 19 20  1  0
 22 23  1  0
M  CHG  1  22   1
M  END
$$$$
