
     RDKit          3D

 23 26  0  0  0  0  0  0  0  0999 V2000
   91.5751   93.8964  -42.7396 N   0  0  0  0  0  0  0  0  0  0  0  0
   91.3831   95.1472  -42.2684 C   0  0  0  0  0  0  0  0  0  0  0  0
   90.8775   95.9432  -43.2697 C   0  0  0  0  0  0  0  0  0  0  0  0
   90.5985   97.2697  -43.0258 C   0  0  0  0  0  0  0  0  0  0  0  0
   90.8307   97.7902  -41.7707 C   0  0  0  0  0  0  0  0  0  0  0  0
   91.3381   96.9746  -40.7809 C   0  0  0  0  0  0  0  0  0  0  0  0
   91.6271   95.6383  -40.9996 C   0  0  0  0  0  0  0  0  0  0  0  0
   90.5557   99.2063  -41.4330 C   0  0  0  0  0  0  0  0  0  0  0  0
   91.1914   93.9120  -44.0278 C   0  0  0  0  0  0  0  0  0  0  0  0
   90.7530   95.1707  -44.3856 C   0  0  0  0  0  0  0  0  0  0  0  0
   90.3143   95.3753  -45.6909 C   0  0  0  0  0  0  0  0  0  0  0  0
   90.3229   94.3316  -46.5985 C   0  0  0  0  0  0  0  0  0  0  0  0
   90.7538   93.0944  -46.2465 C   0  0  0  0  0  0  0  0  0  0  0  0
   91.1871   92.8984  -44.9522 C   0  0  0  0  0  0  0  0  0  0  0  0
   92.0986   92.7526  -41.9897 C   0  0  0  0  0  0  0  0  0  0  0  0
   90.7771   91.9576  -47.1879 C   0  0  0  0  0  0  0  0  0  0  0  0
   90.2712   91.8739  -48.4570 C   0  0  0  0  0  0  0  0  0  0  0  0
   90.4259   90.7159  -49.1062 C   0  0  0  0  0  0  0  0  0  0  0  0
   91.0774   89.7051  -48.4524 C   0  0  0  0  0  0  0  0  0  0  0  0
   91.4521   90.4145  -46.9453 S   0  0  0  0  0  0  0  0  0  0  0  0
   93.5930   92.7941  -42.0424 C   0  0  0  0  0  0  0  0  0  0  0  0
   91.7213  100.0459  -41.6427 N   0  0  0  0  0  4  0  0  0  0  0  0
   91.3990  101.4046  -41.3365 C   0  0  0  0  0  0  0  0  0  0  0  0
  1  2  1  0
  1  9  1  0
  1 15  1  0
  2  3  2  0
  2  7  1  0
  3  4  1  0
  3 10  1  0
  4  5  2  0
  5  6  1  0
  5  8  1  0
  6  7  2  0
  8 22  1  0
  9 10  2  0
  9 14  1  0
 10 11  1  0
 11 12  2  0
 12 13  1  0
 13 14  2  0
 13 16  1  0
 15 21  1  0
 16 17  2  0
 16 20  1  0
 17 18  1  0
 18 19  2  0
 19 20  1  0
 22 23  1  0
M  CHG  1  22   1
M  END
$$$$
