
     RDKit          3D

 23 24  0  0  0  0  0  0  0  0999 V2000
   -7.5882  -33.1399  -14.8908 C   0  0  1  0  0  0  0  0  0  0  0  0
   -8.0032  -34.5437  -14.5151 C   0  0  1  0  0  0  0  0  0  0  0  0
   -7.0558  -35.5775  -15.0244 C   0  0  2  0  0  0  0  0  0  0  0  0
   -6.3000  -35.0618  -16.2269 C   0  0  1  0  0  0  0  0  0  0  0  0
   -5.6223  -33.7502  -15.9550 C   0  0  1  0  0  0  0  0  0  0  0  0
   -5.4211  -33.0024  -17.2686 C   0  0  0  0  0  0  0  0  0  0  0  0
   -8.0601  -32.2959  -13.9020 O   0  0  0  0  0  0  0  0  0  0  0  0
   -8.0308  -34.6063  -13.1139 O   0  0  0  0  0  0  0  0  0  0  0  0
   -7.7664  -36.7101  -15.3520 O   0  0  0  0  0  0  0  0  0  0  0  0
   -5.4222  -36.0132  -16.7314 O   0  0  0  0  0  0  0  0  0  0  0  0
   -6.2183  -32.9942  -14.9927 O   0  0  0  0  0  0  0  0  0  0  0  0
   -5.3582  -33.9077  -18.3386 O   0  0  0  0  0  0  0  0  0  0  0  0
   -6.1977  -30.9140  -13.2748 C   0  0  0  0  0  0  0  0  0  0  0  0
   -7.5543  -31.0037  -13.9542 C   0  0  1  0  0  0  0  0  0  0  0  0
   -7.4247  -30.6465  -15.4159 C   0  0  2  0  0  0  0  0  0  0  0  0
   -8.1740  -29.3235  -15.4860 C   0  0  1  0  0  0  0  0  0  0  0  0
   -8.1019  -28.8992  -14.0344 C   0  0  1  0  0  0  0  0  0  0  0  0
   -9.1131  -27.8138  -13.7225 C   0  0  0  0  0  0  0  0  0  0  0  0
   -6.4007  -31.1262  -11.8952 O   0  0  0  0  0  0  0  0  0  0  0  0
   -8.3951  -30.0793  -13.3701 O   0  0  0  0  0  0  0  0  0  0  0  0
   -8.0592  -31.5777  -16.2072 O   0  0  0  0  0  0  0  0  0  0  0  0
   -7.5374  -28.4666  -16.3463 O   0  0  0  0  0  0  0  0  0  0  0  0
  -10.3620  -28.4465  -13.6109 O   0  0  0  0  0  0  0  0  0  0  0  0
  1  2  1  0
  1  7  1  1
  1 11  1  0
  2  3  1  0
  2  8  1  1
  3  4  1  0
  3  9  1  6
  5  4  1  0
  4 10  1  1
  5  6  1  0
  5 11  1  1
  6 12  1  6
 14  7  1  6
 14 13  1  0
 13 19  1  6
 14 15  1  0
 20 14  1  0
 16 15  1  0
 15 21  1  6
 17 16  1  0
 16 22  1  6
 18 17  1  0
 17 20  1  1
 18 23  1  6
M  END
$$$$
