
     RDKit          3D

 23 24  0  0  0  0  0  0  0  0999 V2000
   -7.0192  -32.4470  -14.5131 C   0  0  1  0  0  0  0  0  0  0  0  0
   -6.3669  -31.4082  -13.6303 C   0  0  1  0  0  0  0  0  0  0  0  0
   -7.1476  -30.1384  -13.5659 C   0  0  2  0  0  0  0  0  0  0  0  0
   -8.0168  -29.9843  -14.7923 C   0  0  1  0  0  0  0  0  0  0  0  0
   -8.8917  -31.1816  -15.0253 C   0  0  1  0  0  0  0  0  0  0  0  0
   -9.2560  -31.2626  -16.5037 C   0  0  0  0  0  0  0  0  0  0  0  0
   -6.6605  -33.6874  -14.0177 O   0  0  0  0  0  0  0  0  0  0  0  0
   -6.2836  -31.9540  -12.3407 O   0  0  0  0  0  0  0  0  0  0  0  0
   -6.2714  -29.0818  -13.4611 O   0  0  0  0  0  0  0  0  0  0  0  0
   -8.7422  -28.7997  -14.7649 O   0  0  0  0  0  0  0  0  0  0  0  0
   -8.3970  -32.3488  -14.5296 O   0  0  0  0  0  0  0  0  0  0  0  0
   -8.7120  -30.1719  -17.1987 O   0  0  0  0  0  0  0  0  0  0  0  0
   -7.9567  -35.6778  -14.3783 C   0  0  0  0  0  0  0  0  0  0  0  0
   -6.8738  -34.7440  -14.8933 C   0  0  1  0  0  0  0  0  0  0  0  0
   -7.2974  -34.1381  -16.2103 C   0  0  2  0  0  0  0  0  0  0  0  0
   -6.3265  -34.7892  -17.1851 C   0  0  1  0  0  0  0  0  0  0  0  0
   -5.9282  -36.0127  -16.3871 C   0  0  1  0  0  0  0  0  0  0  0  0
   -4.6627  -36.6438  -16.9331 C   0  0  0  0  0  0  0  0  0  0  0  0
   -7.5742  -36.0979  -13.0872 O   0  0  0  0  0  0  0  0  0  0  0  0
   -5.7329  -35.4850  -15.1209 O   0  0  0  0  0  0  0  0  0  0  0  0
   -7.1038  -32.7749  -16.2088 O   0  0  0  0  0  0  0  0  0  0  0  0
   -6.9652  -35.0794  -18.3630 O   0  0  0  0  0  0  0  0  0  0  0  0
   -3.6975  -36.5560  -15.9166 O   0  0  0  0  0  0  0  0  0  0  0  0
  1  2  1  0
  1  7  1  1
  1 11  1  0
  2  3  1  0
  2  8  1  1
  3  4  1  0
  3  9  1  6
  5  4  1  0
  4 10  1  1
  5  6  1  0
  5 11  1  6
  6 12  1  6
 14  7  1  1
 14 13  1  0
 13 19  1  6
 14 15  1  0
 20 14  1  0
 16 15  1  0
 15 21  1  1
 17 16  1  0
 16 22  1  6
 18 17  1  0
 17 20  1  1
 18 23  1  6
M  END
$$$$
