
     RDKit          3D

 23 24  0  0  0  0  0  0  0  0999 V2000
   -7.1400  -33.7470  -15.2219 C   0  0  1  0  0  0  0  0  0  0  0  0
   -8.1903  -34.7964  -15.5043 C   0  0  1  0  0  0  0  0  0  0  0  0
   -7.6465  -35.9641  -16.2571 C   0  0  2  0  0  0  0  0  0  0  0  0
   -6.4138  -35.5686  -17.0366 C   0  0  1  0  0  0  0  0  0  0  0  0
   -5.3771  -34.9142  -16.1705 C   0  0  1  0  0  0  0  0  0  0  0  0
   -4.4897  -34.0206  -17.0303 C   0  0  0  0  0  0  0  0  0  0  0  0
   -7.5030  -33.1111  -14.0487 O   0  0  0  0  0  0  0  0  0  0  0  0
   -8.6738  -35.2423  -14.2652 O   0  0  0  0  0  0  0  0  0  0  0  0
   -8.6205  -36.4396  -17.1058 O   0  0  0  0  0  0  0  0  0  0  0  0
   -5.8972  -36.6356  -17.7610 O   0  0  0  0  0  0  0  0  0  0  0  0
   -5.8745  -34.2805  -15.0733 O   0  0  0  0  0  0  0  0  0  0  0  0
   -3.3876  -33.5710  -16.2874 O   0  0  0  0  0  0  0  0  0  0  0  0
   -6.5086  -31.4108  -12.6734 C   0  0  0  0  0  0  0  0  0  0  0  0
   -7.1719  -31.7636  -13.9945 C   0  0  1  0  0  0  0  0  0  0  0  0
   -6.2186  -31.5042  -15.1368 C   0  0  2  0  0  0  0  0  0  0  0  0
   -6.8771  -30.3239  -15.8368 C   0  0  1  0  0  0  0  0  0  0  0  0
   -7.7259  -29.7831  -14.7058 C   0  0  1  0  0  0  0  0  0  0  0  0
   -8.8037  -28.8484  -15.2184 C   0  0  0  0  0  0  0  0  0  0  0  0
   -7.4668  -31.5986  -11.6554 O   0  0  0  0  0  0  0  0  0  0  0  0
   -8.2649  -30.9398  -14.1659 O   0  0  0  0  0  0  0  0  0  0  0  0
   -6.1736  -32.5812  -15.9934 O   0  0  0  0  0  0  0  0  0  0  0  0
   -5.9217  -29.4469  -16.2813 O   0  0  0  0  0  0  0  0  0  0  0  0
   -9.7910  -29.6557  -15.8066 O   0  0  0  0  0  0  0  0  0  0  0  0
  1  2  1  0
  1  7  1  1
  1 11  1  0
  2  3  1  0
  2  8  1  1
  3  4  1  0
  3  9  1  6
  5  4  1  0
  4 10  1  1
  5  6  1  0
  5 11  1  1
  6 12  1  6
 14  7  1  1
 14 13  1  0
 13 19  1  6
 14 15  1  0
 20 14  1  0
 16 15  1  0
 15 21  1  6
 17 16  1  0
 16 22  1  1
 18 17  1  0
 17 20  1  6
 18 23  1  6
M  END
$$$$
