
     RDKit          3D

 23 24  0  0  0  0  0  0  0  0999 V2000
   -6.4433  -31.8207  -14.6955 C   0  0  1  0  0  0  0  0  0  0  0  0
   -6.3887  -31.4595  -13.2291 C   0  0  1  0  0  0  0  0  0  0  0  0
   -7.5864  -30.6898  -12.7830 C   0  0  2  0  0  0  0  0  0  0  0  0
   -8.2264  -29.9757  -13.9508 C   0  0  1  0  0  0  0  0  0  0  0  0
   -8.5358  -30.9057  -15.0878 C   0  0  1  0  0  0  0  0  0  0  0  0
   -8.5845  -30.1144  -16.3903 C   0  0  0  0  0  0  0  0  0  0  0  0
   -5.7368  -32.9993  -14.8525 O   0  0  0  0  0  0  0  0  0  0  0  0
   -6.3291  -32.6616  -12.5084 O   0  0  0  0  0  0  0  0  0  0  0  0
   -7.2013  -29.7861  -11.8187 O   0  0  0  0  0  0  0  0  0  0  0  0
   -9.3356  -29.2368  -13.5585 O   0  0  0  0  0  0  0  0  0  0  0  0
   -7.7329  -32.0027  -15.1559 O   0  0  0  0  0  0  0  0  0  0  0  0
   -9.6014  -29.1493  -16.3349 O   0  0  0  0  0  0  0  0  0  0  0  0
   -7.5058  -34.3862  -14.0046 C   0  0  0  0  0  0  0  0  0  0  0  0
   -6.5209  -34.1115  -15.1291 C   0  0  1  0  0  0  0  0  0  0  0  0
   -7.2670  -33.8101  -16.4072 C   0  0  2  0  0  0  0  0  0  0  0  0
   -6.9402  -35.0283  -17.2592 C   0  0  1  0  0  0  0  0  0  0  0  0
   -6.5669  -36.0184  -16.1764 C   0  0  1  0  0  0  0  0  0  0  0  0
   -5.8059  -37.2005  -16.7434 C   0  0  0  0  0  0  0  0  0  0  0  0
   -8.4605  -35.3026  -14.4929 O   0  0  0  0  0  0  0  0  0  0  0  0
   -5.7726  -35.2509  -15.3398 O   0  0  0  0  0  0  0  0  0  0  0  0
   -6.7684  -32.6780  -17.0117 O   0  0  0  0  0  0  0  0  0  0  0  0
   -8.0373  -35.3975  -17.9938 O   0  0  0  0  0  0  0  0  0  0  0  0
   -4.4424  -36.8696  -16.6807 O   0  0  0  0  0  0  0  0  0  0  0  0
  1  2  1  0
  1  7  1  1
  1 11  1  0
  2  3  1  0
  2  8  1  1
  3  4  1  0
  3  9  1  1
  5  4  1  0
  4 10  1  1
  5  6  1  0
  5 11  1  6
  6 12  1  6
 14  7  1  1
 14 13  1  0
 13 19  1  6
 14 15  1  0
 20 14  1  0
 16 15  1  0
 15 21  1  6
 17 16  1  0
 16 22  1  1
 18 17  1  0
 17 20  1  1
 18 23  1  6
M  END
$$$$
