
     RDKit          3D

 23 24  0  0  0  0  0  0  0  0999 V2000
   -7.2487  -33.2186  -14.9091 C   0  0  1  0  0  0  0  0  0  0  0  0
   -7.7284  -32.8121  -13.5349 C   0  0  1  0  0  0  0  0  0  0  0  0
   -7.9256  -31.3386  -13.4088 C   0  0  2  0  0  0  0  0  0  0  0  0
   -7.0739  -30.5989  -14.4142 C   0  0  1  0  0  0  0  0  0  0  0  0
   -7.2938  -31.0869  -15.8166 C   0  0  1  0  0  0  0  0  0  0  0  0
   -6.0556  -30.7907  -16.6558 C   0  0  0  0  0  0  0  0  0  0  0  0
   -7.7170  -34.4986  -15.1432 O   0  0  0  0  0  0  0  0  0  0  0  0
   -8.9573  -33.4532  -13.3188 O   0  0  0  0  0  0  0  0  0  0  0  0
   -7.6012  -30.9538  -12.1275 O   0  0  0  0  0  0  0  0  0  0  0  0
   -7.2266  -29.2222  -14.3059 O   0  0  0  0  0  0  0  0  0  0  0  0
   -7.7069  -32.3807  -15.9072 O   0  0  0  0  0  0  0  0  0  0  0  0
   -5.1860  -29.9409  -15.9559 O   0  0  0  0  0  0  0  0  0  0  0  0
   -7.2902  -34.6359  -17.5034 C   0  0  0  0  0  0  0  0  0  0  0  0
   -7.0206  -35.2004  -16.1183 C   0  0  1  0  0  0  0  0  0  0  0  0
   -5.5537  -35.0693  -15.7836 C   0  0  2  0  0  0  0  0  0  0  0  0
   -5.0985  -36.5218  -15.7816 C   0  0  1  0  0  0  0  0  0  0  0  0
   -6.1855  -37.1428  -16.6331 C   0  0  1  0  0  0  0  0  0  0  0  0
   -6.2234  -38.6497  -16.4728 C   0  0  0  0  0  0  0  0  0  0  0  0
   -8.6137  -34.9795  -17.8500 O   0  0  0  0  0  0  0  0  0  0  0  0
   -7.3292  -36.5447  -16.1290 O   0  0  0  0  0  0  0  0  0  0  0  0
   -5.3825  -34.5312  -14.5278 O   0  0  0  0  0  0  0  0  0  0  0  0
   -3.8435  -36.6229  -16.3241 O   0  0  0  0  0  0  0  0  0  0  0  0
   -6.8950  -38.9100  -15.2671 O   0  0  0  0  0  0  0  0  0  0  0  0
  1  2  1  0
  1  7  1  6
  1 11  1  0
  2  3  1  0
  2  8  1  6
  3  4  1  0
  3  9  1  1
  5  4  1  0
  4 10  1  6
  5  6  1  0
  5 11  1  1
  6 12  1  6
 14  7  1  1
 14 13  1  0
 13 19  1  6
 14 15  1  0
 20 14  1  0
 16 15  1  0
 15 21  1  1
 17 16  1  0
 16 22  1  6
 18 17  1  0
 17 20  1  1
 18 23  1  6
M  END
$$$$
