
     RDKit          3D

 23 24  0  0  0  0  0  0  0  0999 V2000
   -6.6125  -33.5280  -16.1381 C   0  0  1  0  0  0  0  0  0  0  0  0
   -5.4186  -33.9781  -16.9480 C   0  0  1  0  0  0  0  0  0  0  0  0
   -5.5192  -35.4044  -17.3737 C   0  0  2  0  0  0  0  0  0  0  0  0
   -6.4265  -36.1757  -16.4435 C   0  0  1  0  0  0  0  0  0  0  0  0
   -7.7724  -35.5281  -16.2931 C   0  0  1  0  0  0  0  0  0  0  0  0
   -8.3878  -35.9429  -14.9610 C   0  0  0  0  0  0  0  0  0  0  0  0
   -6.7697  -32.1722  -16.3610 O   0  0  0  0  0  0  0  0  0  0  0  0
   -5.3645  -33.1673  -18.0915 O   0  0  0  0  0  0  0  0  0  0  0  0
   -4.2581  -35.9564  -17.3831 O   0  0  0  0  0  0  0  0  0  0  0  0
   -6.5236  -37.5126  -16.8087 O   0  0  0  0  0  0  0  0  0  0  0  0
   -7.7775  -34.1814  -16.4906 O   0  0  0  0  0  0  0  0  0  0  0  0
   -7.3884  -36.0810  -13.9859 O   0  0  0  0  0  0  0  0  0  0  0  0
   -8.8899  -31.0758  -16.0884 C   0  0  0  0  0  0  0  0  0  0  0  0
   -7.5889  -31.5261  -15.4445 C   0  0  1  0  0  0  0  0  0  0  0  0
   -7.8744  -32.5182  -14.3421 C   0  0  2  0  0  0  0  0  0  0  0  0
   -7.4898  -31.7289  -13.0988 C   0  0  1  0  0  0  0  0  0  0  0  0
   -7.5981  -30.3173  -13.6352 C   0  0  1  0  0  0  0  0  0  0  0  0
   -6.8820  -29.3264  -12.7389 C   0  0  0  0  0  0  0  0  0  0  0  0
   -8.6405  -29.8442  -16.7294 O   0  0  0  0  0  0  0  0  0  0  0  0
   -6.9836  -30.4268  -14.8722 O   0  0  0  0  0  0  0  0  0  0  0  0
   -7.0627  -33.6247  -14.4547 O   0  0  0  0  0  0  0  0  0  0  0  0
   -8.3633  -32.0027  -12.0781 O   0  0  0  0  0  0  0  0  0  0  0  0
   -5.6193  -29.1039  -13.3121 O   0  0  0  0  0  0  0  0  0  0  0  0
  1  2  1  0
  1  7  1  6
  1 11  1  0
  2  3  1  0
  2  8  1  6
  3  4  1  0
  3  9  1  1
  5  4  1  0
  4 10  1  6
  5  6  1  0
  5 11  1  1
  6 12  1  6
 14  7  1  6
 14 13  1  0
 13 19  1  6
 14 15  1  0
 20 14  1  0
 16 15  1  0
 15 21  1  6
 17 16  1  0
 16 22  1  1
 18 17  1  0
 17 20  1  6
 18 23  1  6
M  END
$$$$
