
     RDKit          3D

 23 24  0  0  0  0  0  0  0  0999 V2000
   -6.8669  -33.9241  -15.6729 C   0  0  1  0  0  0  0  0  0  0  0  0
   -7.2802  -34.3275  -17.0695 C   0  0  1  0  0  0  0  0  0  0  0  0
   -6.6116  -35.5807  -17.5260 C   0  0  2  0  0  0  0  0  0  0  0  0
   -5.3139  -35.7940  -16.7818 C   0  0  1  0  0  0  0  0  0  0  0  0
   -5.4974  -35.7543  -15.2926 C   0  0  1  0  0  0  0  0  0  0  0  0
   -4.1810  -35.3621  -14.6305 C   0  0  0  0  0  0  0  0  0  0  0  0
   -7.9312  -33.2409  -15.1133 O   0  0  0  0  0  0  0  0  0  0  0  0
   -8.6671  -34.5370  -17.0467 O   0  0  0  0  0  0  0  0  0  0  0  0
   -6.3812  -35.4946  -18.8804 O   0  0  0  0  0  0  0  0  0  0  0  0
   -4.6624  -36.9472  -17.2013 O   0  0  0  0  0  0  0  0  0  0  0  0
   -6.5536  -35.0054  -14.8724 O   0  0  0  0  0  0  0  0  0  0  0  0
   -3.1486  -35.3346  -15.5802 O   0  0  0  0  0  0  0  0  0  0  0  0
   -7.7543  -32.7978  -12.7587 C   0  0  0  0  0  0  0  0  0  0  0  0
   -7.5738  -32.2803  -14.1763 C   0  0  1  0  0  0  0  0  0  0  0  0
   -6.1212  -31.9503  -14.4247 C   0  0  2  0  0  0  0  0  0  0  0  0
   -6.1569  -30.4332  -14.5424 C   0  0  1  0  0  0  0  0  0  0  0  0
   -7.4478  -30.1393  -13.8079 C   0  0  1  0  0  0  0  0  0  0  0  0
   -7.9543  -28.7434  -14.1123 C   0  0  0  0  0  0  0  0  0  0  0  0
   -9.1393  -32.9449  -12.5352 O   0  0  0  0  0  0  0  0  0  0  0  0
   -8.2970  -31.1132  -14.3085 O   0  0  0  0  0  0  0  0  0  0  0  0
   -5.6902  -32.4945  -15.6139 O   0  0  0  0  0  0  0  0  0  0  0  0
   -5.0463  -29.8886  -13.9511 O   0  0  0  0  0  0  0  0  0  0  0  0
   -8.9068  -28.8744  -15.1361 O   0  0  0  0  0  0  0  0  0  0  0  0
  1  2  1  0
  1  7  1  1
  1 11  1  0
  2  3  1  0
  2  8  1  1
  3  4  1  0
  3  9  1  6
  5  4  1  0
  4 10  1  1
  5  6  1  0
  5 11  1  6
  6 12  1  6
 14  7  1  6
 14 13  1  0
 13 19  1  6
 14 15  1  0
 20 14  1  0
 16 15  1  0
 15 21  1  6
 17 16  1  0
 16 22  1  1
 18 17  1  0
 17 20  1  6
 18 23  1  6
M  END
$$$$
