
     RDKit          3D

 23 24  0  0  0  0  0  0  0  0999 V2000
   -5.8474  -34.5035  -14.8591 C   0  0  1  0  0  0  0  0  0  0  0  0
   -4.8229  -35.2906  -14.0751 C   0  0  1  0  0  0  0  0  0  0  0  0
   -3.7732  -35.8939  -14.9469 C   0  0  2  0  0  0  0  0  0  0  0  0
   -4.2902  -36.0770  -16.3549 C   0  0  1  0  0  0  0  0  0  0  0  0
   -4.8475  -34.8063  -16.9275 C   0  0  1  0  0  0  0  0  0  0  0  0
   -5.8619  -35.1431  -18.0150 C   0  0  0  0  0  0  0  0  0  0  0  0
   -6.3193  -33.5046  -14.0272 O   0  0  0  0  0  0  0  0  0  0  0  0
   -4.2113  -34.3991  -13.1812 O   0  0  0  0  0  0  0  0  0  0  0  0
   -3.3922  -37.1041  -14.4129 O   0  0  0  0  0  0  0  0  0  0  0  0
   -3.3360  -36.6538  -17.1838 O   0  0  0  0  0  0  0  0  0  0  0  0
   -5.3242  -33.9298  -16.0016 O   0  0  0  0  0  0  0  0  0  0  0  0
   -5.2436  -35.8583  -19.0517 O   0  0  0  0  0  0  0  0  0  0  0  0
   -7.9319  -31.8032  -13.5018 C   0  0  0  0  0  0  0  0  0  0  0  0
   -7.5097  -32.9212  -14.4407 C   0  0  1  0  0  0  0  0  0  0  0  0
   -7.2649  -32.3687  -15.8248 C   0  0  2  0  0  0  0  0  0  0  0  0
   -8.4108  -32.9816  -16.6174 C   0  0  1  0  0  0  0  0  0  0  0  0
   -9.3785  -33.2870  -15.4937 C   0  0  1  0  0  0  0  0  0  0  0  0
  -10.4442  -34.2723  -15.9314 C   0  0  0  0  0  0  0  0  0  0  0  0
   -9.1214  -31.2457  -14.0157 O   0  0  0  0  0  0  0  0  0  0  0  0
   -8.5445  -33.8290  -14.5290 O   0  0  0  0  0  0  0  0  0  0  0  0
   -6.0647  -32.8182  -16.3280 O   0  0  0  0  0  0  0  0  0  0  0  0
   -8.8889  -32.0772  -17.5302 O   0  0  0  0  0  0  0  0  0  0  0  0
  -10.2074  -35.4626  -15.2245 O   0  0  0  0  0  0  0  0  0  0  0  0
  1  2  1  0
  1  7  1  1
  1 11  1  0
  2  3  1  0
  2  8  1  1
  3  4  1  0
  3  9  1  1
  5  4  1  0
  4 10  1  6
  5  6  1  0
  5 11  1  1
  6 12  1  6
 14  7  1  1
 14 13  1  0
 13 19  1  6
 14 15  1  0
 20 14  1  0
 16 15  1  0
 15 21  1  6
 17 16  1  0
 16 22  1  6
 18 17  1  0
 17 20  1  1
 18 23  1  6
M  END
$$$$
