
     RDKit          3D

 23 24  0  0  0  0  0  0  0  0999 V2000
   -6.9013  -34.1844  -14.9793 C   0  0  1  0  0  0  0  0  0  0  0  0
   -7.5627  -35.5277  -14.7744 C   0  0  1  0  0  0  0  0  0  0  0  0
   -6.8898  -36.6203  -15.5355 C   0  0  2  0  0  0  0  0  0  0  0  0
   -6.1430  -36.0605  -16.7238 C   0  0  1  0  0  0  0  0  0  0  0  0
   -5.1925  -34.9654  -16.3356 C   0  0  1  0  0  0  0  0  0  0  0  0
   -4.9482  -34.0578  -17.5363 C   0  0  0  0  0  0  0  0  0  0  0  0
   -7.1107  -33.4462  -13.8287 O   0  0  0  0  0  0  0  0  0  0  0  0
   -7.4908  -35.8200  -13.4042 O   0  0  0  0  0  0  0  0  0  0  0  0
   -7.8404  -37.5266  -15.9479 O   0  0  0  0  0  0  0  0  0  0  0  0
   -5.5208  -37.0610  -17.4601 O   0  0  0  0  0  0  0  0  0  0  0  0
   -5.5431  -34.2845  -15.2104 O   0  0  0  0  0  0  0  0  0  0  0  0
   -4.1132  -34.6958  -18.4660 O   0  0  0  0  0  0  0  0  0  0  0  0
   -9.0626  -32.0575  -13.6461 C   0  0  0  0  0  0  0  0  0  0  0  0
   -7.5998  -32.1645  -14.0444 C   0  0  1  0  0  0  0  0  0  0  0  0
   -6.7646  -31.2327  -13.1987 C   0  0  2  0  0  0  0  0  0  0  0  0
   -6.3197  -30.1934  -14.2179 C   0  0  1  0  0  0  0  0  0  0  0  0
   -7.3881  -30.3816  -15.2740 C   0  0  1  0  0  0  0  0  0  0  0  0
   -6.9766  -29.7646  -16.5960 C   0  0  0  0  0  0  0  0  0  0  0  0
   -9.4571  -30.7173  -13.8410 O   0  0  0  0  0  0  0  0  0  0  0  0
   -7.4762  -31.7619  -15.3579 O   0  0  0  0  0  0  0  0  0  0  0  0
   -5.6616  -31.8839  -12.6934 O   0  0  0  0  0  0  0  0  0  0  0  0
   -6.3167  -28.9463  -13.6484 O   0  0  0  0  0  0  0  0  0  0  0  0
   -5.9334  -30.5565  -17.1032 O   0  0  0  0  0  0  0  0  0  0  0  0
  1  2  1  0
  1  7  1  1
  1 11  1  0
  2  3  1  0
  2  8  1  1
  3  4  1  0
  3  9  1  6
  5  4  1  0
  4 10  1  1
  5  6  1  0
  5 11  1  1
  6 12  1  6
 14  7  1  6
 14 13  1  0
 13 19  1  6
 14 15  1  0
 20 14  1  0
 16 15  1  0
 15 21  1  6
 17 16  1  0
 16 22  1  1
 18 17  1  0
 17 20  1  6
 18 23  1  6
M  END
$$$$
