
     RDKit          3D

 23 24  0  0  0  0  0  0  0  0999 V2000
   -7.3585  -32.3961  -14.7273 C   0  0  1  0  0  0  0  0  0  0  0  0
   -8.5771  -31.5087  -14.6192 C   0  0  1  0  0  0  0  0  0  0  0  0
   -8.2832  -30.2104  -13.9456 C   0  0  2  0  0  0  0  0  0  0  0  0
   -7.0734  -30.3368  -13.0491 C   0  0  1  0  0  0  0  0  0  0  0  0
   -5.8804  -30.8865  -13.7755 C   0  0  1  0  0  0  0  0  0  0  0  0
   -4.9407  -31.5514  -12.7754 C   0  0  0  0  0  0  0  0  0  0  0  0
   -7.5212  -33.1776  -15.8566 O   0  0  0  0  0  0  0  0  0  0  0  0
   -9.0189  -31.2510  -15.9255 O   0  0  0  0  0  0  0  0  0  0  0  0
   -9.3857  -29.8280  -13.2152 O   0  0  0  0  0  0  0  0  0  0  0  0
   -6.7885  -29.1441  -12.3960 O   0  0  0  0  0  0  0  0  0  0  0  0
   -6.1820  -31.6809  -14.8388 O   0  0  0  0  0  0  0  0  0  0  0  0
   -3.6468  -31.6419  -13.3103 O   0  0  0  0  0  0  0  0  0  0  0  0
   -5.1741  -33.6896  -15.8809 C   0  0  0  0  0  0  0  0  0  0  0  0
   -6.5990  -34.2079  -15.9851 C   0  0  1  0  0  0  0  0  0  0  0  0
   -6.8775  -35.1824  -14.8654 C   0  0  2  0  0  0  0  0  0  0  0  0
   -7.0069  -36.4995  -15.6172 C   0  0  1  0  0  0  0  0  0  0  0  0
   -6.2507  -36.1588  -16.8838 C   0  0  1  0  0  0  0  0  0  0  0  0
   -6.5569  -37.1434  -17.9950 C   0  0  0  0  0  0  0  0  0  0  0  0
   -4.9860  -32.7566  -16.9220 O   0  0  0  0  0  0  0  0  0  0  0  0
   -6.7271  -34.8910  -17.1765 O   0  0  0  0  0  0  0  0  0  0  0  0
   -8.0700  -34.8881  -14.2433 O   0  0  0  0  0  0  0  0  0  0  0  0
   -6.4411  -37.5146  -14.8898 O   0  0  0  0  0  0  0  0  0  0  0  0
   -7.6322  -36.6082  -18.7228 O   0  0  0  0  0  0  0  0  0  0  0  0
  1  2  1  0
  1  7  1  6
  1 11  1  0
  2  3  1  0
  2  8  1  6
  3  4  1  0
  3  9  1  1
  5  4  1  0
  4 10  1  6
  5  6  1  0
  5 11  1  6
  6 12  1  6
 14  7  1  6
 14 13  1  0
 13 19  1  6
 14 15  1  0
 20 14  1  0
 16 15  1  0
 15 21  1  6
 17 16  1  0
 16 22  1  1
 18 17  1  0
 17 20  1  6
 18 23  1  6
M  END
$$$$
