
     RDKit          3D

 23 24  0  0  0  0  0  0  0  0999 V2000
   -6.1967  -33.8213  -15.9711 C   0  0  1  0  0  0  0  0  0  0  0  0
   -4.9368  -34.4543  -16.5150 C   0  0  1  0  0  0  0  0  0  0  0  0
   -5.1277  -35.8873  -16.8834 C   0  0  2  0  0  0  0  0  0  0  0  0
   -6.2772  -36.4883  -16.1083 C   0  0  1  0  0  0  0  0  0  0  0  0
   -7.5399  -35.6890  -16.2494 C   0  0  1  0  0  0  0  0  0  0  0  0
   -8.4360  -35.9404  -15.0415 C   0  0  0  0  0  0  0  0  0  0  0  0
   -6.1458  -32.4753  -16.2845 O   0  0  0  0  0  0  0  0  0  0  0  0
   -4.5753  -33.7358  -17.6644 O   0  0  0  0  0  0  0  0  0  0  0  0
   -3.9623  -36.5728  -16.6248 O   0  0  0  0  0  0  0  0  0  0  0  0
   -6.4652  -37.8289  -16.4210 O   0  0  0  0  0  0  0  0  0  0  0  0
   -7.3465  -34.3668  -16.5084 O   0  0  0  0  0  0  0  0  0  0  0  0
   -7.8397  -36.8732  -14.1798 O   0  0  0  0  0  0  0  0  0  0  0  0
   -7.8863  -30.8353  -16.5138 C   0  0  0  0  0  0  0  0  0  0  0  0
   -7.0402  -31.6823  -15.5776 C   0  0  1  0  0  0  0  0  0  0  0  0
   -7.9233  -32.6201  -14.7893 C   0  0  2  0  0  0  0  0  0  0  0  0
   -7.8030  -32.0583  -13.3798 C   0  0  1  0  0  0  0  0  0  0  0  0
   -7.3655  -30.6432  -13.6935 C   0  0  1  0  0  0  0  0  0  0  0  0
   -6.7757  -29.9614  -12.4748 C   0  0  0  0  0  0  0  0  0  0  0  0
   -7.8363  -31.4359  -17.7892 O   0  0  0  0  0  0  0  0  0  0  0  0
   -6.4131  -30.8437  -14.6798 O   0  0  0  0  0  0  0  0  0  0  0  0
   -7.4255  -33.9036  -14.8175 O   0  0  0  0  0  0  0  0  0  0  0  0
   -9.0116  -32.1352  -12.7372 O   0  0  0  0  0  0  0  0  0  0  0  0
   -5.4083  -30.2810  -12.4563 O   0  0  0  0  0  0  0  0  0  0  0  0
  1  2  1  0
  1  7  1  6
  1 11  1  0
  2  3  1  0
  2  8  1  6
  3  4  1  0
  3  9  1  1
  5  4  1  0
  4 10  1  6
  5  6  1  0
  5 11  1  1
  6 12  1  6
 14  7  1  6
 14 13  1  0
 13 19  1  6
 14 15  1  0
 20 14  1  0
 16 15  1  0
 15 21  1  1
 17 16  1  0
 16 22  1  6
 18 17  1  0
 17 20  1  6
 18 23  1  6
M  END
$$$$
