
     RDKit          3D

 23 24  0  0  0  0  0  0  0  0999 V2000
   -6.7627  -33.9725  -14.6749 C   0  0  1  0  0  0  0  0  0  0  0  0
   -6.9385  -34.7964  -13.4201 C   0  0  1  0  0  0  0  0  0  0  0  0
   -5.9170  -35.8766  -13.2955 C   0  0  2  0  0  0  0  0  0  0  0  0
   -5.3707  -36.2529  -14.6532 C   0  0  1  0  0  0  0  0  0  0  0  0
   -4.8551  -35.0635  -15.4101 C   0  0  1  0  0  0  0  0  0  0  0  0
   -4.8987  -35.3573  -16.9057 C   0  0  0  0  0  0  0  0  0  0  0  0
   -7.2391  -32.7035  -14.4004 O   0  0  0  0  0  0  0  0  0  0  0  0
   -6.8090  -33.9232  -12.3299 O   0  0  0  0  0  0  0  0  0  0  0  0
   -6.4956  -36.9690  -12.6899 O   0  0  0  0  0  0  0  0  0  0  0  0
   -4.4286  -37.2703  -14.5663 O   0  0  0  0  0  0  0  0  0  0  0  0
   -5.4444  -33.8825  -15.0776 O   0  0  0  0  0  0  0  0  0  0  0  0
   -3.8476  -34.6986  -17.5612 O   0  0  0  0  0  0  0  0  0  0  0  0
   -8.3485  -30.7344  -15.2148 C   0  0  0  0  0  0  0  0  0  0  0  0
   -7.4204  -31.8992  -15.5178 C   0  0  1  0  0  0  0  0  0  0  0  0
   -6.0555  -31.3842  -15.9085 C   0  0  2  0  0  0  0  0  0  0  0  0
   -5.9864  -31.7574  -17.3825 C   0  0  1  0  0  0  0  0  0  0  0  0
   -7.4623  -31.8891  -17.6934 C   0  0  1  0  0  0  0  0  0  0  0  0
   -7.6919  -32.6481  -18.9854 C   0  0  0  0  0  0  0  0  0  0  0  0
   -8.0627  -30.2954  -13.9051 O   0  0  0  0  0  0  0  0  0  0  0  0
   -7.9306  -32.5927  -16.5954 O   0  0  0  0  0  0  0  0  0  0  0  0
   -5.0647  -32.0464  -15.2188 O   0  0  0  0  0  0  0  0  0  0  0  0
   -5.3570  -30.7663  -18.0904 O   0  0  0  0  0  0  0  0  0  0  0  0
   -8.1451  -33.9279  -18.6260 O   0  0  0  0  0  0  0  0  0  0  0  0
  1  2  1  0
  1  7  1  1
  1 11  1  0
  2  3  1  0
  2  8  1  1
  3  4  1  0
  3  9  1  6
  5  4  1  0
  4 10  1  1
  5  6  1  0
  5 11  1  6
  6 12  1  6
 14  7  1  1
 14 13  1  0
 13 19  1  6
 14 15  1  0
 20 14  1  0
 16 15  1  0
 15 21  1  1
 17 16  1  0
 16 22  1  6
 18 17  1  0
 17 20  1  1
 18 23  1  6
M  END
$$$$
