
     RDKit          3D

 23 24  0  0  0  0  0  0  0  0999 V2000
   -6.6851  -32.6202  -15.8192 C   0  0  1  0  0  0  0  0  0  0  0  0
   -7.1222  -31.2987  -16.4079 C   0  0  1  0  0  0  0  0  0  0  0  0
   -8.0843  -31.4636  -17.5361 C   0  0  2  0  0  0  0  0  0  0  0  0
   -7.9280  -32.8238  -18.1754 C   0  0  1  0  0  0  0  0  0  0  0  0
   -8.0244  -33.9386  -17.1749 C   0  0  1  0  0  0  0  0  0  0  0  0
   -7.2827  -35.1607  -17.7054 C   0  0  0  0  0  0  0  0  0  0  0  0
   -6.3915  -32.3966  -14.4864 O   0  0  0  0  0  0  0  0  0  0  0  0
   -7.7478  -30.5750  -15.3818 O   0  0  0  0  0  0  0  0  0  0  0  0
   -7.8609  -30.4686  -18.4609 O   0  0  0  0  0  0  0  0  0  0  0  0
   -8.8022  -32.9962  -19.2414 O   0  0  0  0  0  0  0  0  0  0  0  0
   -7.6586  -33.5962  -15.9093 O   0  0  0  0  0  0  0  0  0  0  0  0
   -6.1627  -34.7635  -18.4513 O   0  0  0  0  0  0  0  0  0  0  0  0
   -5.9866  -33.2487  -12.2769 C   0  0  0  0  0  0  0  0  0  0  0  0
   -6.0613  -33.5377  -13.7672 C   0  0  1  0  0  0  0  0  0  0  0  0
   -7.1444  -34.5535  -14.0428 C   0  0  2  0  0  0  0  0  0  0  0  0
   -6.3364  -35.7662  -14.4825 C   0  0  1  0  0  0  0  0  0  0  0  0
   -4.9965  -35.4331  -13.8613 C   0  0  1  0  0  0  0  0  0  0  0  0
   -3.8815  -36.2606  -14.4696 C   0  0  0  0  0  0  0  0  0  0  0  0
   -5.0361  -32.2229  -12.0920 O   0  0  0  0  0  0  0  0  0  0  0  0
   -4.8603  -34.0878  -14.1641 O   0  0  0  0  0  0  0  0  0  0  0  0
   -7.9541  -34.1400  -15.0768 O   0  0  0  0  0  0  0  0  0  0  0  0
   -6.9047  -36.9137  -13.9926 O   0  0  0  0  0  0  0  0  0  0  0  0
   -2.6811  -35.5871  -14.1900 O   0  0  0  0  0  0  0  0  0  0  0  0
  1  2  1  0
  1  7  1  1
  1 11  1  0
  2  3  1  0
  2  8  1  1
  3  4  1  0
  3  9  1  6
  5  4  1  0
  4 10  1  6
  5  6  1  0
  5 11  1  1
  6 12  1  6
 14  7  1  6
 14 13  1  0
 13 19  1  6
 14 15  1  0
 20 14  1  0
 16 15  1  0
 15 21  1  6
 17 16  1  0
 16 22  1  1
 18 17  1  0
 17 20  1  6
 18 23  1  6
M  END
$$$$
