
     RDKit          3D

 23 24  0  0  0  0  0  0  0  0999 V2000
   -6.8725  -33.6068  -15.3743 C   0  0  1  0  0  0  0  0  0  0  0  0
   -6.9693  -34.6691  -14.3037 C   0  0  1  0  0  0  0  0  0  0  0  0
   -6.6682  -36.0351  -14.8223 C   0  0  2  0  0  0  0  0  0  0  0  0
   -6.9235  -36.1089  -16.3098 C   0  0  1  0  0  0  0  0  0  0  0  0
   -6.1953  -35.0369  -17.0672 C   0  0  1  0  0  0  0  0  0  0  0  0
   -6.9213  -34.7620  -18.3796 C   0  0  0  0  0  0  0  0  0  0  0  0
   -6.5063  -32.4288  -14.7491 O   0  0  0  0  0  0  0  0  0  0  0  0
   -6.0314  -34.3445  -13.3123 O   0  0  0  0  0  0  0  0  0  0  0  0
   -7.4519  -36.9482  -14.1536 O   0  0  0  0  0  0  0  0  0  0  0  0
   -6.6666  -37.3774  -16.8150 O   0  0  0  0  0  0  0  0  0  0  0  0
   -5.9408  -33.9095  -16.3481 O   0  0  0  0  0  0  0  0  0  0  0  0
   -6.8336  -35.8773  -19.2264 O   0  0  0  0  0  0  0  0  0  0  0  0
   -7.0862  -31.1534  -16.7006 C   0  0  0  0  0  0  0  0  0  0  0  0
   -7.1878  -31.3027  -15.1916 C   0  0  1  0  0  0  0  0  0  0  0  0
   -8.6316  -31.4814  -14.7862 C   0  0  2  0  0  0  0  0  0  0  0  0
   -8.9170  -30.1800  -14.0501 C   0  0  1  0  0  0  0  0  0  0  0  0
   -7.8316  -29.3004  -14.6336 C   0  0  1  0  0  0  0  0  0  0  0  0
   -7.6108  -28.0591  -13.7918 C   0  0  0  0  0  0  0  0  0  0  0  0
   -5.7933  -30.6702  -16.9919 O   0  0  0  0  0  0  0  0  0  0  0  0
   -6.7297  -30.1400  -14.6078 O   0  0  0  0  0  0  0  0  0  0  0  0
   -8.7706  -32.5414  -13.9184 O   0  0  0  0  0  0  0  0  0  0  0  0
  -10.1886  -29.7501  -14.3291 O   0  0  0  0  0  0  0  0  0  0  0  0
   -6.6270  -28.3848  -12.8438 O   0  0  0  0  0  0  0  0  0  0  0  0
  1  2  1  0
  1  7  1  1
  1 11  1  0
  2  3  1  0
  2  8  1  1
  3  4  1  0
  3  9  1  1
  5  4  1  0
  4 10  1  6
  5  6  1  0
  5 11  1  1
  6 12  1  6
 14  7  1  1
 14 13  1  0
 13 19  1  6
 14 15  1  0
 20 14  1  0
 16 15  1  0
 15 21  1  1
 17 16  1  0
 16 22  1  6
 18 17  1  0
 17 20  1  1
 18 23  1  6
M  END
$$$$
