
     RDKit          3D

 23 24  0  0  0  0  0  0  0  0999 V2000
   -6.4324  -33.2671  -16.6786 C   0  0  1  0  0  0  0  0  0  0  0  0
   -6.4661  -33.8251  -18.0826 C   0  0  1  0  0  0  0  0  0  0  0  0
   -6.6441  -35.3062  -18.1070 C   0  0  2  0  0  0  0  0  0  0  0  0
   -6.1653  -35.9220  -16.8128 C   0  0  1  0  0  0  0  0  0  0  0  0
   -6.8031  -35.2897  -15.6101 C   0  0  1  0  0  0  0  0  0  0  0  0
   -5.8961  -35.4770  -14.3987 C   0  0  0  0  0  0  0  0  0  0  0  0
   -6.9242  -31.9759  -16.7402 O   0  0  0  0  0  0  0  0  0  0  0  0
   -7.5522  -33.2280  -18.7396 O   0  0  0  0  0  0  0  0  0  0  0  0
   -5.9429  -35.8216  -19.1736 O   0  0  0  0  0  0  0  0  0  0  0  0
   -6.3046  -37.3043  -16.8168 O   0  0  0  0  0  0  0  0  0  0  0  0
   -7.1971  -33.9994  -15.7913 O   0  0  0  0  0  0  0  0  0  0  0  0
   -6.2191  -34.5449  -13.4010 O   0  0  0  0  0  0  0  0  0  0  0  0
   -5.7501  -30.0761  -15.8550 C   0  0  0  0  0  0  0  0  0  0  0  0
   -6.7143  -31.2214  -15.5935 C   0  0  1  0  0  0  0  0  0  0  0  0
   -8.0610  -30.6783  -15.1783 C   0  0  2  0  0  0  0  0  0  0  0  0
   -8.1385  -31.1054  -13.7195 C   0  0  1  0  0  0  0  0  0  0  0  0
   -6.6668  -31.2962  -13.4192 C   0  0  1  0  0  0  0  0  0  0  0  0
   -6.4586  -32.1112  -12.1582 C   0  0  0  0  0  0  0  0  0  0  0  0
   -6.1515  -28.9921  -15.0466 O   0  0  0  0  0  0  0  0  0  0  0  0
   -6.2241  -31.9717  -14.5451 O   0  0  0  0  0  0  0  0  0  0  0  0
   -9.0743  -31.2814  -15.8893 O   0  0  0  0  0  0  0  0  0  0  0  0
   -8.7339  -30.1226  -12.9718 O   0  0  0  0  0  0  0  0  0  0  0  0
   -5.7153  -33.2439  -12.5284 O   0  0  0  0  0  0  0  0  0  0  0  0
  1  2  1  0
  1  7  1  6
  1 11  1  0
  2  3  1  0
  2  8  1  6
  3  4  1  0
  3  9  1  6
  5  4  1  0
  4 10  1  6
  5  6  1  0
  5 11  1  6
  6 12  1  6
 14  7  1  6
 14 13  1  0
 13 19  1  6
 14 15  1  0
 20 14  1  0
 16 15  1  0
 15 21  1  6
 17 16  1  0
 16 22  1  1
 18 17  1  0
 17 20  1  6
 18 23  1  6
M  END
$$$$
