
     RDKit          3D

 23 24  0  0  0  0  0  0  0  0999 V2000
   -7.4370  -33.9516  -15.5863 C   0  0  1  0  0  0  0  0  0  0  0  0
   -8.0392  -34.7120  -16.7452 C   0  0  1  0  0  0  0  0  0  0  0  0
   -7.4842  -36.0905  -16.8771 C   0  0  2  0  0  0  0  0  0  0  0  0
   -6.1123  -36.1750  -16.2492 C   0  0  1  0  0  0  0  0  0  0  0  0
   -6.1043  -35.6894  -14.8289 C   0  0  1  0  0  0  0  0  0  0  0  0
   -4.7002  -35.2218  -14.4615 C   0  0  0  0  0  0  0  0  0  0  0  0
   -8.3940  -33.0567  -15.1435 O   0  0  0  0  0  0  0  0  0  0  0  0
   -9.4194  -34.8005  -16.5100 O   0  0  0  0  0  0  0  0  0  0  0  0
   -7.4236  -36.4204  -18.2122 O   0  0  0  0  0  0  0  0  0  0  0  0
   -5.5654  -37.4461  -16.3740 O   0  0  0  0  0  0  0  0  0  0  0  0
   -7.0683  -34.7732  -14.5388 O   0  0  0  0  0  0  0  0  0  0  0  0
   -3.7395  -36.0397  -15.0752 O   0  0  0  0  0  0  0  0  0  0  0  0
   -8.8560  -30.7041  -14.9915 C   0  0  0  0  0  0  0  0  0  0  0  0
   -7.8891  -31.8405  -14.7028 C   0  0  1  0  0  0  0  0  0  0  0  0
   -7.6767  -31.9723  -13.2133 C   0  0  2  0  0  0  0  0  0  0  0  0
   -6.2277  -31.5323  -13.0600 C   0  0  1  0  0  0  0  0  0  0  0  0
   -6.0591  -30.7238  -14.3290 C   0  0  1  0  0  0  0  0  0  0  0  0
   -4.5956  -30.4953  -14.6513 C   0  0  0  0  0  0  0  0  0  0  0  0
   -8.1170  -29.6608  -15.5874 O   0  0  0  0  0  0  0  0  0  0  0  0
   -6.6720  -31.5314  -15.2735 O   0  0  0  0  0  0  0  0  0  0  0  0
   -7.8047  -33.2835  -12.8130 O   0  0  0  0  0  0  0  0  0  0  0  0
   -6.0770  -30.7990  -11.9114 O   0  0  0  0  0  0  0  0  0  0  0  0
   -4.0954  -31.7136  -15.1393 O   0  0  0  0  0  0  0  0  0  0  0  0
  1  2  1  0
  1  7  1  1
  1 11  1  0
  2  3  1  0
  2  8  1  1
  3  4  1  0
  3  9  1  6
  5  4  1  0
  4 10  1  1
  5  6  1  0
  5 11  1  6
  6 12  1  6
 14  7  1  6
 14 13  1  0
 13 19  1  6
 14 15  1  0
 20 14  1  0
 16 15  1  0
 15 21  1  6
 17 16  1  0
 16 22  1  1
 18 17  1  0
 17 20  1  6
 18 23  1  6
M  END
$$$$
