
     RDKit          3D

 23 24  0  0  0  0  0  0  0  0999 V2000
   -7.0671  -33.3395  -14.5289 C   0  0  1  0  0  0  0  0  0  0  0  0
   -7.1753  -32.2787  -13.4580 C   0  0  1  0  0  0  0  0  0  0  0  0
   -7.5021  -30.9335  -14.0143 C   0  0  2  0  0  0  0  0  0  0  0  0
   -7.0709  -30.8350  -15.4591 C   0  0  1  0  0  0  0  0  0  0  0  0
   -7.6258  -31.9499  -16.2971 C   0  0  1  0  0  0  0  0  0  0  0  0
   -6.7266  -32.1683  -17.5091 C   0  0  0  0  0  0  0  0  0  0  0  0
   -7.4269  -34.5428  -13.9498 O   0  0  0  0  0  0  0  0  0  0  0  0
   -8.2041  -32.6711  -12.5889 O   0  0  0  0  0  0  0  0  0  0  0  0
   -6.8704  -29.9730  -13.2570 O   0  0  0  0  0  0  0  0  0  0  0  0
   -7.3489  -29.5842  -15.9963 O   0  0  0  0  0  0  0  0  0  0  0  0
   -7.8900  -33.0956  -15.6113 O   0  0  0  0  0  0  0  0  0  0  0  0
   -7.3270  -33.0666  -18.4041 O   0  0  0  0  0  0  0  0  0  0  0  0
   -7.0569  -36.9065  -13.7316 C   0  0  0  0  0  0  0  0  0  0  0  0
   -6.9434  -35.6678  -14.6048 C   0  0  1  0  0  0  0  0  0  0  0  0
   -7.7782  -35.8367  -15.8520 C   0  0  2  0  0  0  0  0  0  0  0  0
   -6.7131  -35.9345  -16.9350 C   0  0  1  0  0  0  0  0  0  0  0  0
   -5.5237  -36.3614  -16.1011 C   0  0  1  0  0  0  0  0  0  0  0  0
   -4.2195  -36.1464  -16.8432 C   0  0  0  0  0  0  0  0  0  0  0  0
   -5.8233  -37.0703  -13.0674 O   0  0  0  0  0  0  0  0  0  0  0  0
   -5.6280  -35.5311  -14.9967 O   0  0  0  0  0  0  0  0  0  0  0  0
   -8.5601  -34.7253  -16.0741 O   0  0  0  0  0  0  0  0  0  0  0  0
   -7.0859  -36.8544  -17.8807 O   0  0  0  0  0  0  0  0  0  0  0  0
   -3.9161  -34.7792  -16.7373 O   0  0  0  0  0  0  0  0  0  0  0  0
  1  2  1  0
  1  7  1  1
  1 11  1  0
  2  3  1  0
  2  8  1  1
  3  4  1  0
  3  9  1  1
  5  4  1  0
  4 10  1  6
  5  6  1  0
  5 11  1  1
  6 12  1  6
 14  7  1  1
 14 13  1  0
 13 19  1  6
 14 15  1  0
 20 14  1  0
 16 15  1  0
 15 21  1  6
 17 16  1  0
 16 22  1  6
 18 17  1  0
 17 20  1  1
 18 23  1  6
M  END
$$$$
