
     RDKit          3D

 35 39  0  0  0  0  0  0  0  0999 V2000
    5.7986   -4.9999   43.4786 C   0  0  0  0  0  0  0  0  0  0  0  0
    6.4629   -3.6649   43.2140 C   0  0  0  0  0  0  0  0  0  0  0  0
    7.0184   -3.1300   44.4868 C   0  0  0  0  0  0  0  0  0  0  0  0
    6.1980   -3.1758   45.4699 O   0  0  0  0  0  0  0  0  0  0  0  0
    8.3166   -2.6139   44.6376 N   0  0  0  0  0  0  0  0  0  0  0  0
    9.3247   -3.0796   43.7069 C   0  0  0  0  0  0  0  0  0  0  0  0
   10.7312   -2.6825   44.0872 C   0  0  0  0  0  0  0  0  0  0  0  0
   10.9509   -2.5060   45.4889 N   0  0  0  0  0  0  0  0  0  0  0  0
    9.8591   -2.2569   46.3887 C   0  0  0  0  0  0  0  0  0  0  0  0
    8.6625   -1.6691   45.6467 C   0  0  0  0  0  0  0  0  0  0  0  0
   12.2745   -2.5842   45.9897 C   0  0  0  0  0  0  0  0  0  0  0  0
   12.5546   -2.1527   47.2552 N   0  0  0  0  0  0  0  0  0  0  0  0
   13.7497   -2.2376   47.7911 N   0  0  0  0  0  0  0  0  0  0  0  0
   14.8094   -2.7673   47.1175 C   0  0  0  0  0  0  0  0  0  0  0  0
   16.1178   -2.8538   47.7330 C   0  0  0  0  0  0  0  0  0  0  0  0
   16.8903   -4.0091   47.5936 C   0  0  0  0  0  0  0  0  0  0  0  0
   18.1290   -4.1478   48.1958 C   0  0  0  0  0  0  0  0  0  0  0  0
   18.6371   -3.1280   48.9621 C   0  0  0  0  0  0  0  0  0  0  0  0
   17.9034   -1.9495   49.1340 C   0  0  0  0  0  0  0  0  0  0  0  0
   16.6703   -1.8649   48.5096 C   0  0  0  0  0  0  0  0  0  0  0  0
   14.5842   -3.2159   45.8464 C   0  0  0  0  0  0  0  0  0  0  0  0
   15.5844   -3.7694   45.1088 C   0  0  0  0  0  0  0  0  0  0  0  0
   15.3888   -4.2365   43.8204 C   0  0  0  0  0  0  0  0  0  0  0  0
   14.1394   -4.1394   43.2633 C   0  0  0  0  0  0  0  0  0  0  0  0
   13.7922   -4.6949   41.6421 Cl  0  0  0  0  0  0  0  0  0  0  0  0
   13.1080   -3.5818   43.9985 C   0  0  0  0  0  0  0  0  0  0  0  0
   13.2959   -3.1179   45.2824 C   0  0  0  0  0  0  0  0  0  0  0  0
   16.4835   -4.8273   43.0789 C   0  0  0  0  0  0  0  0  0  0  0  0
   16.8823   -6.1424   43.3159 C   0  0  0  0  0  0  0  0  0  0  0  0
   16.1533   -6.8274   44.3033 O   0  0  0  0  0  0  0  0  0  0  0  0
   17.9155   -6.7345   42.6350 C   0  0  0  0  0  0  0  0  0  0  0  0
   18.6184   -6.0350   41.6646 C   0  0  0  0  0  0  0  0  0  0  0  0
   18.2299   -4.7384   41.4258 C   0  0  0  0  0  0  0  0  0  0  0  0
   17.1921   -4.1401   42.1083 C   0  0  0  0  0  0  0  0  0  0  0  0
   16.8375   -2.8414   41.8384 F   0  0  0  0  0  0  0  0  0  0  0  0
  1  2  1  6
  2  3  1  6
  3  4  2  0
  3  5  1  0
  6  5  1  1
 10  5  1  1
  6  7  1  0
  7  8  1  6
  9  8  1  1
  8 11  1  0
  9 10  1  0
 11 12  2  0
 11 27  1  0
 12 13  1  0
 13 14  2  0
 14 15  1  0
 14 21  1  0
 15 16  2  0
 15 20  1  0
 16 17  1  0
 17 18  2  0
 18 19  1  0
 19 20  2  0
 21 22  1  0
 21 27  2  0
 22 23  2  0
 23 24  1  0
 23 28  1  0
 24 25  1  0
 24 26  2  0
 26 27  1  0
 28 29  2  0
 28 34  1  0
 29 30  1  0
 29 31  1  0
 31 32  2  0
 32 33  1  0
 33 34  2  0
 34 35  1  0
M  END
$$$$
