
     RDKit          3D

 35 39  0  0  0  0  0  0  0  0999 V2000
    5.9898   -3.5207   41.6453 C   0  0  0  0  0  0  0  0  0  0  0  0
    6.7277   -3.9421   42.9148 C   0  0  0  0  0  0  0  0  0  0  0  0
    7.3513   -2.7404   43.5043 C   0  0  0  0  0  0  0  0  0  0  0  0
    6.6339   -1.7358   43.7582 O   0  0  0  0  0  0  0  0  0  0  0  0
    8.7384   -2.7317   43.7769 N   0  0  0  0  0  0  0  0  0  0  0  0
    9.3969   -1.4928   44.2096 C   0  0  0  0  0  0  0  0  0  0  0  0
   10.3974   -1.9034   45.3221 C   0  0  0  0  0  0  0  0  0  0  0  0
   11.3722   -2.7266   44.6234 N   0  0  0  0  0  0  0  0  0  0  0  0
   10.9975   -3.6774   43.6074 C   0  0  0  0  0  0  0  0  0  0  0  0
    9.5172   -3.9105   43.6477 C   0  0  0  0  0  0  0  0  0  0  0  0
   12.7375   -2.5759   44.9389 C   0  0  0  0  0  0  0  0  0  0  0  0
   13.1278   -1.5207   45.6514 N   0  0  0  0  0  0  0  0  0  0  0  0
   14.3601   -1.3563   46.0004 N   0  0  0  0  0  0  0  0  0  0  0  0
   15.3249   -2.2174   45.6795 C   0  0  0  0  0  0  0  0  0  0  0  0
   16.6730   -1.9264   46.1171 C   0  0  0  0  0  0  0  0  0  0  0  0
   17.1369   -0.6102   46.0714 C   0  0  0  0  0  0  0  0  0  0  0  0
   18.3843   -0.2472   46.4939 C   0  0  0  0  0  0  0  0  0  0  0  0
   19.2404   -1.1960   46.9894 C   0  0  0  0  0  0  0  0  0  0  0  0
   18.8224   -2.5151   47.0537 C   0  0  0  0  0  0  0  0  0  0  0  0
   17.5560   -2.8542   46.6205 C   0  0  0  0  0  0  0  0  0  0  0  0
   14.9903   -3.3287   44.9420 C   0  0  0  0  0  0  0  0  0  0  0  0
   15.9189   -4.2436   44.5543 C   0  0  0  0  0  0  0  0  0  0  0  0
   15.6302   -5.3695   43.7920 C   0  0  0  0  0  0  0  0  0  0  0  0
   14.3194   -5.5499   43.4168 C   0  0  0  0  0  0  0  0  0  0  0  0
   13.8776   -6.9520   42.4515 Cl  0  0  0  0  0  0  0  0  0  0  0  0
   13.3417   -4.6255   43.7999 C   0  0  0  0  0  0  0  0  0  0  0  0
   13.6507   -3.5140   44.5584 C   0  0  0  0  0  0  0  0  0  0  0  0
   16.7095   -6.2827   43.4374 C   0  0  0  0  0  0  0  0  0  0  0  0
   17.2344   -7.1824   44.3387 C   0  0  0  0  0  0  0  0  0  0  0  0
   16.6893   -7.1850   45.6190 O   0  0  0  0  0  0  0  0  0  0  0  0
   18.2686   -8.0565   43.9891 C   0  0  0  0  0  0  0  0  0  0  0  0
   18.7870   -8.0301   42.7152 C   0  0  0  0  0  0  0  0  0  0  0  0
   18.2781   -7.1384   41.7966 C   0  0  0  0  0  0  0  0  0  0  0  0
   17.2590   -6.2834   42.1565 C   0  0  0  0  0  0  0  0  0  0  0  0
   16.7261   -5.3857   41.2866 F   0  0  0  0  0  0  0  0  0  0  0  0
  1  2  1  0
  2  3  1  0
  3  4  2  0
  3  5  1  0
  5  6  1  0
  5 10  1  0
  6  7  1  0
  7  8  1  0
  8  9  1  0
  8 11  1  0
  9 10  1  0
 11 12  2  0
 11 27  1  0
 12 13  1  0
 13 14  2  0
 14 15  1  0
 14 21  1  0
 15 16  2  0
 15 20  1  0
 16 17  1  0
 17 18  2  0
 18 19  1  0
 19 20  2  0
 21 22  1  0
 21 27  2  0
 22 23  2  0
 23 24  1  0
 23 28  1  0
 24 25  1  0
 24 26  2  0
 26 27  1  0
 28 29  2  0
 28 34  1  0
 29 30  1  0
 29 31  1  0
 31 32  2  0
 32 33  1  0
 33 34  2  0
 34 35  1  0
M  END
$$$$
