
     RDKit          3D

 35 39  0  0  0  0  0  0  0  0999 V2000
    4.8454   -3.1822   43.0310 C   0  0  0  0  0  0  0  0  0  0  0  0
    5.8750   -2.7525   44.0552 C   0  0  0  0  0  0  0  0  0  0  0  0
    6.8861   -3.8318   44.2205 C   0  0  0  0  0  0  0  0  0  0  0  0
    6.5595   -4.9376   43.6617 O   0  0  0  0  0  0  0  0  0  0  0  0
    8.0982   -3.6914   44.9171 N   0  0  0  0  0  0  0  0  0  0  0  0
    8.3818   -2.3929   45.4942 C   0  0  0  0  0  0  0  0  0  0  0  0
    9.7978   -2.2493   45.9986 C   0  0  0  0  0  0  0  0  0  0  0  0
   10.7646   -3.0577   45.3232 N   0  0  0  0  0  0  0  0  0  0  0  0
   10.3734   -4.2257   44.5840 C   0  0  0  0  0  0  0  0  0  0  0  0
    9.0300   -4.7580   45.0738 C   0  0  0  0  0  0  0  0  0  0  0  0
   12.1314   -2.6879   45.3874 C   0  0  0  0  0  0  0  0  0  0  0  0
   12.4892   -1.4752   45.9045 N   0  0  0  0  0  0  0  0  0  0  0  0
   13.7384   -1.0924   46.0302 N   0  0  0  0  0  0  0  0  0  0  0  0
   14.7802   -1.8844   45.6500 C   0  0  0  0  0  0  0  0  0  0  0  0
   16.1504   -1.4405   45.8033 C   0  0  0  0  0  0  0  0  0  0  0  0
   17.1146   -1.7792   44.8513 C   0  0  0  0  0  0  0  0  0  0  0  0
   18.4420   -1.4076   44.9780 C   0  0  0  0  0  0  0  0  0  0  0  0
   18.8494   -0.6805   46.0693 C   0  0  0  0  0  0  0  0  0  0  0  0
   17.9235   -0.3155   47.0523 C   0  0  0  0  0  0  0  0  0  0  0  0
   16.6094   -0.7144   46.8750 C   0  0  0  0  0  0  0  0  0  0  0  0
   14.4782   -3.1101   45.1266 C   0  0  0  0  0  0  0  0  0  0  0  0
   15.4587   -3.9673   44.7329 C   0  0  0  0  0  0  0  0  0  0  0  0
   15.1868   -5.2167   44.2025 C   0  0  0  0  0  0  0  0  0  0  0  0
   13.8796   -5.6088   44.0675 C   0  0  0  0  0  0  0  0  0  0  0  0
   13.4329   -7.1637   43.4040 Cl  0  0  0  0  0  0  0  0  0  0  0  0
   12.8678   -4.7521   44.4647 C   0  0  0  0  0  0  0  0  0  0  0  0
   13.1323   -3.5085   44.9962 C   0  0  0  0  0  0  0  0  0  0  0  0
   16.2660   -6.0979   43.8073 C   0  0  0  0  0  0  0  0  0  0  0  0
   16.4482   -6.4533   42.4712 C   0  0  0  0  0  0  0  0  0  0  0  0
   15.5260   -5.8994   41.5664 O   0  0  0  0  0  0  0  0  0  0  0  0
   17.4572   -7.2867   42.0600 C   0  0  0  0  0  0  0  0  0  0  0  0
   18.3540   -7.8193   42.9747 C   0  0  0  0  0  0  0  0  0  0  0  0
   18.1804   -7.4725   44.2934 C   0  0  0  0  0  0  0  0  0  0  0  0
   17.1673   -6.6354   44.7102 C   0  0  0  0  0  0  0  0  0  0  0  0
   17.0298   -6.3154   46.0383 F   0  0  0  0  0  0  0  0  0  0  0  0
  1  2  1  6
  2  3  1  6
  3  4  2  0
  3  5  1  0
  6  5  1  1
 10  5  1  1
  6  7  1  0
  7  8  1  6
  9  8  1  1
  8 11  1  0
  9 10  1  0
 11 12  2  0
 11 27  1  0
 12 13  1  0
 13 14  2  0
 14 15  1  0
 14 21  1  0
 15 16  2  0
 15 20  1  0
 16 17  1  0
 17 18  2  0
 18 19  1  0
 19 20  2  0
 21 22  1  0
 21 27  2  0
 22 23  2  0
 23 24  1  0
 23 28  1  0
 24 25  1  0
 24 26  2  0
 26 27  1  0
 28 29  2  0
 28 34  1  0
 29 30  1  0
 29 31  1  0
 31 32  2  0
 32 33  1  0
 33 34  2  0
 34 35  1  0
M  END
$$$$
