
     RDKit          3D

 35 39  0  0  0  0  0  0  0  0999 V2000
    5.3953   -2.4607   42.7668 C   0  0  0  0  0  0  0  0  0  0  0  0
    6.2421   -3.4309   43.5638 C   0  0  0  0  0  0  0  0  0  0  0  0
    7.4319   -2.7183   44.1036 C   0  0  0  0  0  0  0  0  0  0  0  0
    7.2965   -1.4450   44.1495 O   0  0  0  0  0  0  0  0  0  0  0  0
    8.6128   -3.3468   44.5334 N   0  0  0  0  0  0  0  0  0  0  0  0
    9.7090   -2.4888   44.9354 C   0  0  0  0  0  0  0  0  0  0  0  0
   11.0125   -3.2240   45.1370 C   0  0  0  0  0  0  0  0  0  0  0  0
   11.1651   -4.4093   44.3522 N   0  0  0  0  0  0  0  0  0  0  0  0
   10.0262   -5.0907   43.8023 C   0  0  0  0  0  0  0  0  0  0  0  0
    8.7608   -4.7629   44.5894 C   0  0  0  0  0  0  0  0  0  0  0  0
   12.4696   -4.9103   44.1150 C   0  0  0  0  0  0  0  0  0  0  0  0
   12.6488   -6.0018   43.3134 N   0  0  0  0  0  0  0  0  0  0  0  0
   13.8327   -6.4874   43.0214 N   0  0  0  0  0  0  0  0  0  0  0  0
   14.9813   -5.9330   43.5016 C   0  0  0  0  0  0  0  0  0  0  0  0
   16.2764   -6.4853   43.1609 C   0  0  0  0  0  0  0  0  0  0  0  0
   17.3024   -5.6542   42.7057 C   0  0  0  0  0  0  0  0  0  0  0  0
   18.5422   -6.1450   42.3341 C   0  0  0  0  0  0  0  0  0  0  0  0
   18.7961   -7.4926   42.4064 C   0  0  0  0  0  0  0  0  0  0  0  0
   17.8023   -8.3687   42.8554 C   0  0  0  0  0  0  0  0  0  0  0  0
   16.5808   -7.8235   43.2134 C   0  0  0  0  0  0  0  0  0  0  0  0
   14.8594   -4.8370   44.3087 C   0  0  0  0  0  0  0  0  0  0  0  0
   15.9561   -4.2157   44.8208 C   0  0  0  0  0  0  0  0  0  0  0  0
   15.8673   -3.1018   45.6380 C   0  0  0  0  0  0  0  0  0  0  0  0
   14.6273   -2.6027   45.9450 C   0  0  0  0  0  0  0  0  0  0  0  0
   14.4097   -1.2048   46.9725 Cl  0  0  0  0  0  0  0  0  0  0  0  0
   13.4996   -3.2190   45.4317 C   0  0  0  0  0  0  0  0  0  0  0  0
   13.5818   -4.3261   44.6152 C   0  0  0  0  0  0  0  0  0  0  0  0
   17.0650   -2.4692   46.1506 C   0  0  0  0  0  0  0  0  0  0  0  0
   17.7088   -2.9655   47.2837 C   0  0  0  0  0  0  0  0  0  0  0  0
   17.1175   -4.0990   47.8680 O   0  0  0  0  0  0  0  0  0  0  0  0
   18.8432   -2.3917   47.7989 C   0  0  0  0  0  0  0  0  0  0  0  0
   19.4061   -1.2731   47.2018 C   0  0  0  0  0  0  0  0  0  0  0  0
   18.7767   -0.7791   46.0841 C   0  0  0  0  0  0  0  0  0  0  0  0
   17.6363   -1.3532   45.5636 C   0  0  0  0  0  0  0  0  0  0  0  0
   17.0392   -0.8265   44.4451 F   0  0  0  0  0  0  0  0  0  0  0  0
  1  2  1  6
  2  3  1  6
  3  4  2  0
  3  5  1  0
  6  5  1  1
 10  5  1  1
  6  7  1  0
  7  8  1  6
  9  8  1  1
  8 11  1  0
  9 10  1  0
 11 12  2  0
 11 27  1  0
 12 13  1  0
 13 14  2  0
 14 15  1  0
 14 21  1  0
 15 16  2  0
 15 20  1  0
 16 17  1  0
 17 18  2  0
 18 19  1  0
 19 20  2  0
 21 22  1  0
 21 27  2  0
 22 23  2  0
 23 24  1  0
 23 28  1  0
 24 25  1  0
 24 26  2  0
 26 27  1  0
 28 29  2  0
 28 34  1  0
 29 30  1  0
 29 31  1  0
 31 32  2  0
 32 33  1  0
 33 34  2  0
 34 35  1  0
M  END
$$$$
