
     RDKit          3D

 35 39  0  0  0  0  0  0  0  0999 V2000
    4.3374   -2.9163   41.0505 C   0  0  0  0  0  0  0  0  0  0  0  0
    4.5541   -3.2709   42.5205 C   0  0  0  0  0  0  0  0  0  0  0  0
    5.8252   -4.0142   42.6314 C   0  0  0  0  0  0  0  0  0  0  0  0
    5.9045   -5.1746   42.1459 O   0  0  0  0  0  0  0  0  0  0  0  0
    6.9329   -3.4179   43.2762 N   0  0  0  0  0  0  0  0  0  0  0  0
    8.1392   -4.2084   43.5513 C   0  0  0  0  0  0  0  0  0  0  0  0
    9.3423   -3.2790   43.2418 C   0  0  0  0  0  0  0  0  0  0  0  0
    9.2364   -2.2310   44.2450 N   0  0  0  0  0  0  0  0  0  0  0  0
    7.9729   -1.6626   44.6415 C   0  0  0  0  0  0  0  0  0  0  0  0
    6.9078   -2.0526   43.6613 C   0  0  0  0  0  0  0  0  0  0  0  0
   10.4127   -1.7659   44.8667 C   0  0  0  0  0  0  0  0  0  0  0  0
   10.3818   -0.6177   45.5405 N   0  0  0  0  0  0  0  0  0  0  0  0
   11.4210   -0.1672   46.1607 N   0  0  0  0  0  0  0  0  0  0  0  0
   12.5898   -0.8067   46.1750 C   0  0  0  0  0  0  0  0  0  0  0  0
   13.6896   -0.2030   46.8958 C   0  0  0  0  0  0  0  0  0  0  0  0
   13.4595    0.3443   48.1596 C   0  0  0  0  0  0  0  0  0  0  0  0
   14.4483    0.9048   48.9175 C   0  0  0  0  0  0  0  0  0  0  0  0
   15.7330    0.9461   48.4417 C   0  0  0  0  0  0  0  0  0  0  0  0
   16.0079    0.4145   47.1924 C   0  0  0  0  0  0  0  0  0  0  0  0
   14.9895   -0.1468   46.4477 C   0  0  0  0  0  0  0  0  0  0  0  0
   12.6911   -1.9984   45.4963 C   0  0  0  0  0  0  0  0  0  0  0  0
   13.8540   -2.7015   45.4428 C   0  0  0  0  0  0  0  0  0  0  0  0
   14.0080   -3.8983   44.7530 C   0  0  0  0  0  0  0  0  0  0  0  0
   12.9048   -4.3831   44.0901 C   0  0  0  0  0  0  0  0  0  0  0  0
   13.0231   -5.8926   43.1955 Cl  0  0  0  0  0  0  0  0  0  0  0  0
   11.6948   -3.6819   44.1262 C   0  0  0  0  0  0  0  0  0  0  0  0
   11.5639   -2.4947   44.8188 C   0  0  0  0  0  0  0  0  0  0  0  0
   15.3043   -4.5648   44.7680 C   0  0  0  0  0  0  0  0  0  0  0  0
   15.6569   -5.4599   45.7537 C   0  0  0  0  0  0  0  0  0  0  0  0
   14.7169   -5.7056   46.7498 O   0  0  0  0  0  0  0  0  0  0  0  0
   16.9022   -6.0964   45.7590 C   0  0  0  0  0  0  0  0  0  0  0  0
   17.8109   -5.8328   44.7605 C   0  0  0  0  0  0  0  0  0  0  0  0
   17.4804   -4.9407   43.7640 C   0  0  0  0  0  0  0  0  0  0  0  0
   16.2493   -4.3215   43.7728 C   0  0  0  0  0  0  0  0  0  0  0  0
   15.8788   -3.4333   42.8134 F   0  0  0  0  0  0  0  0  0  0  0  0
  1  2  1  0
  2  3  1  0
  3  4  2  0
  3  5  1  0
  5  6  1  0
  5 10  1  0
  6  7  1  0
  7  8  1  0
  8  9  1  0
  8 11  1  0
  9 10  1  0
 11 12  2  0
 11 27  1  0
 12 13  1  0
 13 14  2  0
 14 15  1  0
 14 21  1  0
 15 16  2  0
 15 20  1  0
 16 17  1  0
 17 18  2  0
 18 19  1  0
 19 20  2  0
 21 22  1  0
 21 27  2  0
 22 23  2  0
 23 24  1  0
 23 28  1  0
 24 25  1  0
 24 26  2  0
 26 27  1  0
 28 29  2  0
 28 34  1  0
 29 30  1  0
 29 31  1  0
 31 32  2  0
 32 33  1  0
 33 34  2  0
 34 35  1  0
M  END
$$$$
