
     RDKit          3D

 35 39  0  0  0  0  0  0  0  0999 V2000
    6.9081   -0.0852   44.9468 C   0  0  0  0  0  0  0  0  0  0  0  0
    7.7823   -0.4592   43.7512 C   0  0  0  0  0  0  0  0  0  0  0  0
    7.7118   -1.9230   43.5702 C   0  0  0  0  0  0  0  0  0  0  0  0
    6.5860   -2.4735   43.4364 O   0  0  0  0  0  0  0  0  0  0  0  0
    8.9020   -2.6853   43.5475 N   0  0  0  0  0  0  0  0  0  0  0  0
   10.2078   -2.0140   43.5522 C   0  0  0  0  0  0  0  0  0  0  0  0
   11.1135   -2.8416   44.5019 C   0  0  0  0  0  0  0  0  0  0  0  0
   11.2520   -4.1194   43.8208 N   0  0  0  0  0  0  0  0  0  0  0  0
   10.1544   -4.7568   43.1384 C   0  0  0  0  0  0  0  0  0  0  0  0
    8.8626   -4.1035   43.5282 C   0  0  0  0  0  0  0  0  0  0  0  0
   12.5123   -4.7501   43.8120 C   0  0  0  0  0  0  0  0  0  0  0  0
   12.6473   -5.9252   43.2001 N   0  0  0  0  0  0  0  0  0  0  0  0
   13.7882   -6.5258   43.1294 N   0  0  0  0  0  0  0  0  0  0  0  0
   14.9048   -6.0243   43.6557 C   0  0  0  0  0  0  0  0  0  0  0  0
   16.1256   -6.7897   43.5236 C   0  0  0  0  0  0  0  0  0  0  0  0
   16.0691   -8.1831   43.5934 C   0  0  0  0  0  0  0  0  0  0  0  0
   17.1697   -8.9792   43.4483 C   0  0  0  0  0  0  0  0  0  0  0  0
   18.3974   -8.4128   43.2235 C   0  0  0  0  0  0  0  0  0  0  0  0
   18.5008   -7.0336   43.1464 C   0  0  0  0  0  0  0  0  0  0  0  0
   17.3720   -6.2526   43.2960 C   0  0  0  0  0  0  0  0  0  0  0  0
   14.8351   -4.8138   44.3044 C   0  0  0  0  0  0  0  0  0  0  0  0
   15.9235   -4.2445   44.8882 C   0  0  0  0  0  0  0  0  0  0  0  0
   15.8958   -3.0342   45.5710 C   0  0  0  0  0  0  0  0  0  0  0  0
   14.6834   -2.3897   45.6501 C   0  0  0  0  0  0  0  0  0  0  0  0
   14.5703   -0.8532   46.4981 Cl  0  0  0  0  0  0  0  0  0  0  0  0
   13.5458   -2.9508   45.0601 C   0  0  0  0  0  0  0  0  0  0  0  0
   13.5963   -4.1544   44.3853 C   0  0  0  0  0  0  0  0  0  0  0  0
   17.1283   -2.5203   46.1555 C   0  0  0  0  0  0  0  0  0  0  0  0
   17.8117   -3.1997   47.1397 C   0  0  0  0  0  0  0  0  0  0  0  0
   17.2725   -4.4108   47.5624 O   0  0  0  0  0  0  0  0  0  0  0  0
   18.9948   -2.7001   47.6934 C   0  0  0  0  0  0  0  0  0  0  0  0
   19.5033   -1.4996   47.2548 C   0  0  0  0  0  0  0  0  0  0  0  0
   18.8368   -0.8020   46.2714 C   0  0  0  0  0  0  0  0  0  0  0  0
   17.6720   -1.3075   45.7358 C   0  0  0  0  0  0  0  0  0  0  0  0
   16.9784   -0.6555   44.7660 F   0  0  0  0  0  0  0  0  0  0  0  0
  1  2  1  0
  2  3  1  0
  3  4  2  0
  3  5  1  0
  5  6  1  0
  5 10  1  0
  6  7  1  0
  7  8  1  0
  8  9  1  0
  8 11  1  0
  9 10  1  0
 11 12  2  0
 11 27  1  0
 12 13  1  0
 13 14  2  0
 14 15  1  0
 14 21  1  0
 15 16  2  0
 15 20  1  0
 16 17  1  0
 17 18  2  0
 18 19  1  0
 19 20  2  0
 21 22  1  0
 21 27  2  0
 22 23  2  0
 23 24  1  0
 23 28  1  0
 24 25  1  0
 24 26  2  0
 26 27  1  0
 28 29  2  0
 28 34  1  0
 29 30  1  0
 29 31  1  0
 31 32  2  0
 32 33  1  0
 33 34  2  0
 34 35  1  0
M  END
$$$$
