
     RDKit          3D

 35 39  0  0  0  0  0  0  0  0999 V2000
   -1.1158   -1.9491   37.0013 C   0  0  0  0  0  0  0  0  0  0  0  0
   -0.9003   -0.4747   36.7307 C   0  0  0  0  0  0  0  0  0  0  0  0
    0.5562   -0.2089   36.5806 C   0  0  0  0  0  0  0  0  0  0  0  0
    1.2757   -0.7295   37.5042 O   0  0  0  0  0  0  0  0  0  0  0  0
    1.1287    0.5386   35.5377 N   0  0  0  0  0  0  0  0  0  0  0  0
    0.4019    0.5894   34.2853 C   0  0  0  0  0  0  0  0  0  0  0  0
    1.1937    1.1898   33.1482 C   0  0  0  0  0  0  0  0  0  0  0  0
    2.6111    1.0320   33.2496 N   0  0  0  0  0  0  0  0  0  0  0  0
    3.2429    0.7673   34.5124 C   0  0  0  0  0  0  0  0  0  0  0  0
    2.3658    1.2332   35.6706 C   0  0  0  0  0  0  0  0  0  0  0  0
    3.3975    1.1365   32.0751 C   0  0  0  0  0  0  0  0  0  0  0  0
    4.7224    0.8054   32.1063 N   0  0  0  0  0  0  0  0  0  0  0  0
    5.4929    0.8402   31.0443 N   0  0  0  0  0  0  0  0  0  0  0  0
    5.0231    1.2133   29.8206 C   0  0  0  0  0  0  0  0  0  0  0  0
    5.8930    1.2392   28.6628 C   0  0  0  0  0  0  0  0  0  0  0  0
    7.0917    1.9554   28.6943 C   0  0  0  0  0  0  0  0  0  0  0  0
    7.9337    2.0372   27.5987 C   0  0  0  0  0  0  0  0  0  0  0  0
    7.6002    1.4008   26.4285 C   0  0  0  0  0  0  0  0  0  0  0  0
    6.4103    0.6703   26.3438 C   0  0  0  0  0  0  0  0  0  0  0  0
    5.6056    0.6226   27.4697 C   0  0  0  0  0  0  0  0  0  0  0  0
    3.7026    1.5542   29.7327 C   0  0  0  0  0  0  0  0  0  0  0  0
    3.1503    1.9271   28.5466 C   0  0  0  0  0  0  0  0  0  0  0  0
    1.8161    2.2746   28.4229 C   0  0  0  0  0  0  0  0  0  0  0  0
    1.0172    2.2426   29.5372 C   0  0  0  0  0  0  0  0  0  0  0  0
   -0.6778    2.6688   29.4858 Cl  0  0  0  0  0  0  0  0  0  0  0  0
    1.5597    1.8634   30.7526 C   0  0  0  0  0  0  0  0  0  0  0  0
    2.8863    1.5133   30.8814 C   0  0  0  0  0  0  0  0  0  0  0  0
    1.2721    2.6551   27.1358 C   0  0  0  0  0  0  0  0  0  0  0  0
    0.7154    1.7023   26.2832 C   0  0  0  0  0  0  0  0  0  0  0  0
    0.7235    0.3815   26.7639 O   0  0  0  0  0  0  0  0  0  0  0  0
    0.1929    2.0249   25.0566 C   0  0  0  0  0  0  0  0  0  0  0  0
    0.1976    3.3373   24.6067 C   0  0  0  0  0  0  0  0  0  0  0  0
    0.7444    4.2815   25.4426 C   0  0  0  0  0  0  0  0  0  0  0  0
    1.2706    3.9608   26.6759 C   0  0  0  0  0  0  0  0  0  0  0  0
    1.8080    4.9360   27.4792 F   0  0  0  0  0  0  0  0  0  0  0  0
  1  2  1  6
  2  3  1  6
  3  4  2  0
  3  5  1  0
  6  5  1  1
 10  5  1  1
  6  7  1  0
  7  8  1  6
  9  8  1  1
  8 11  1  0
  9 10  1  0
 11 12  2  0
 11 27  1  0
 12 13  1  0
 13 14  2  0
 14 15  1  0
 14 21  1  0
 15 16  2  0
 15 20  1  0
 16 17  1  0
 17 18  2  0
 18 19  1  0
 19 20  2  0
 21 22  1  0
 21 27  2  0
 22 23  2  0
 23 24  1  0
 23 28  1  0
 24 25  1  0
 24 26  2  0
 26 27  1  0
 28 29  2  0
 28 34  1  0
 29 30  1  0
 29 31  1  0
 31 32  2  0
 32 33  1  0
 33 34  2  0
 34 35  1  0
M  END
$$$$
