
     RDKit          3D

 35 39  0  0  0  0  0  0  0  0999 V2000
    5.2383   -2.4173   43.3648 C   0  0  0  0  0  0  0  0  0  0  0  0
    6.3511   -2.3498   44.3899 C   0  0  0  0  0  0  0  0  0  0  0  0
    7.4257   -3.3085   44.0148 C   0  0  0  0  0  0  0  0  0  0  0  0
    7.0232   -4.5198   43.9024 O   0  0  0  0  0  0  0  0  0  0  0  0
    8.7685   -2.9580   43.7954 N   0  0  0  0  0  0  0  0  0  0  0  0
    9.6741   -4.0211   43.4092 C   0  0  0  0  0  0  0  0  0  0  0  0
   11.1295   -3.6200   43.4414 C   0  0  0  0  0  0  0  0  0  0  0  0
   11.4517   -2.5903   44.3796 N   0  0  0  0  0  0  0  0  0  0  0  0
   10.4433   -1.7007   44.8850 C   0  0  0  0  0  0  0  0  0  0  0  0
    9.2538   -1.6252   43.9324 C   0  0  0  0  0  0  0  0  0  0  0  0
   12.7937   -2.4566   44.8155 C   0  0  0  0  0  0  0  0  0  0  0  0
   13.1355   -1.4593   45.6842 N   0  0  0  0  0  0  0  0  0  0  0  0
   14.3506   -1.3089   46.1572 N   0  0  0  0  0  0  0  0  0  0  0  0
   15.3704   -2.1446   45.8127 C   0  0  0  0  0  0  0  0  0  0  0  0
   16.7019   -1.9599   46.3522 C   0  0  0  0  0  0  0  0  0  0  0  0
   17.8102   -1.9209   45.5031 C   0  0  0  0  0  0  0  0  0  0  0  0
   19.1027   -1.7836   45.9794 C   0  0  0  0  0  0  0  0  0  0  0  0
   19.3285   -1.6808   47.3300 C   0  0  0  0  0  0  0  0  0  0  0  0
   18.2530   -1.7146   48.2238 C   0  0  0  0  0  0  0  0  0  0  0  0
   16.9819   -1.8542   47.6926 C   0  0  0  0  0  0  0  0  0  0  0  0
   15.0829   -3.1615   44.9461 C   0  0  0  0  0  0  0  0  0  0  0  0
   16.0402   -4.0475   44.5597 C   0  0  0  0  0  0  0  0  0  0  0  0
   15.7812   -5.0903   43.6868 C   0  0  0  0  0  0  0  0  0  0  0  0
   14.5112   -5.2387   43.1908 C   0  0  0  0  0  0  0  0  0  0  0  0
   14.0849   -6.5191   42.0788 Cl  0  0  0  0  0  0  0  0  0  0  0  0
   13.5227   -4.3491   43.5738 C   0  0  0  0  0  0  0  0  0  0  0  0
   13.7738   -3.3112   44.4448 C   0  0  0  0  0  0  0  0  0  0  0  0
   16.8319   -6.0141   43.3132 C   0  0  0  0  0  0  0  0  0  0  0  0
   17.4503   -6.8203   44.2684 C   0  0  0  0  0  0  0  0  0  0  0  0
   16.9810   -6.6680   45.5845 O   0  0  0  0  0  0  0  0  0  0  0  0
   18.4499   -7.7049   43.9523 C   0  0  0  0  0  0  0  0  0  0  0  0
   18.8940   -7.8353   42.6444 C   0  0  0  0  0  0  0  0  0  0  0  0
   18.2882   -7.0439   41.6978 C   0  0  0  0  0  0  0  0  0  0  0  0
   17.2834   -6.1536   42.0120 C   0  0  0  0  0  0  0  0  0  0  0  0
   16.7059   -5.3813   41.0347 F   0  0  0  0  0  0  0  0  0  0  0  0
  1  2  1  6
  2  3  1  6
  3  4  2  0
  3  5  1  0
  6  5  1  1
 10  5  1  1
  6  7  1  0
  7  8  1  6
  9  8  1  1
  8 11  1  0
  9 10  1  0
 11 12  2  0
 11 27  1  0
 12 13  1  0
 13 14  2  0
 14 15  1  0
 14 21  1  0
 15 16  2  0
 15 20  1  0
 16 17  1  0
 17 18  2  0
 18 19  1  0
 19 20  2  0
 21 22  1  0
 21 27  2  0
 22 23  2  0
 23 24  1  0
 23 28  1  0
 24 25  1  0
 24 26  2  0
 26 27  1  0
 28 29  2  0
 28 34  1  0
 29 30  1  0
 29 31  1  0
 31 32  2  0
 32 33  1  0
 33 34  2  0
 34 35  1  0
M  END
$$$$
