
     RDKit          3D

 35 39  0  0  0  0  0  0  0  0999 V2000
    7.1932   -8.7849   44.6722 C   0  0  0  0  0  0  0  0  0  0  0  0
    7.6326   -8.5225   46.1115 C   0  0  0  0  0  0  0  0  0  0  0  0
    7.5746   -7.0666   46.3515 C   0  0  0  0  0  0  0  0  0  0  0  0
    6.4549   -6.5153   46.5265 O   0  0  0  0  0  0  0  0  0  0  0  0
    8.7699   -6.3126   46.3836 N   0  0  0  0  0  0  0  0  0  0  0  0
   10.0706   -6.9885   46.2975 C   0  0  0  0  0  0  0  0  0  0  0  0
   10.9520   -6.1086   45.3723 C   0  0  0  0  0  0  0  0  0  0  0  0
   11.1197   -4.8755   46.1254 N   0  0  0  0  0  0  0  0  0  0  0  0
   10.0478   -4.2759   46.8791 C   0  0  0  0  0  0  0  0  0  0  0  0
    8.7405   -4.8982   46.4906 C   0  0  0  0  0  0  0  0  0  0  0  0
   12.3839   -4.2524   46.1335 C   0  0  0  0  0  0  0  0  0  0  0  0
   12.5600   -3.1480   46.8565 N   0  0  0  0  0  0  0  0  0  0  0  0
   13.7078   -2.5609   46.9292 N   0  0  0  0  0  0  0  0  0  0  0  0
   14.7914   -3.0076   46.2955 C   0  0  0  0  0  0  0  0  0  0  0  0
   16.0235   -2.2633   46.4421 C   0  0  0  0  0  0  0  0  0  0  0  0
   16.7320   -1.8834   45.3004 C   0  0  0  0  0  0  0  0  0  0  0  0
   17.8861   -1.1542   45.3509 C   0  0  0  0  0  0  0  0  0  0  0  0
   18.3949   -0.7641   46.5623 C   0  0  0  0  0  0  0  0  0  0  0  0
   17.7249   -1.1184   47.7218 C   0  0  0  0  0  0  0  0  0  0  0  0
   16.5600   -1.8553   47.6419 C   0  0  0  0  0  0  0  0  0  0  0  0
   14.6782   -4.1436   45.5288 C   0  0  0  0  0  0  0  0  0  0  0  0
   15.7302   -4.6516   44.8324 C   0  0  0  0  0  0  0  0  0  0  0  0
   15.6572   -5.7839   44.0297 C   0  0  0  0  0  0  0  0  0  0  0  0
   14.4371   -6.4134   43.9478 C   0  0  0  0  0  0  0  0  0  0  0  0
   14.2678   -7.8527   42.9515 Cl  0  0  0  0  0  0  0  0  0  0  0  0
   13.3364   -5.9141   44.6521 C   0  0  0  0  0  0  0  0  0  0  0  0
   13.4317   -4.7877   45.4450 C   0  0  0  0  0  0  0  0  0  0  0  0
   16.8534   -6.2370   43.3307 C   0  0  0  0  0  0  0  0  0  0  0  0
   16.9504   -6.2198   41.9568 C   0  0  0  0  0  0  0  0  0  0  0  0
   15.8472   -5.7490   41.2514 O   0  0  0  0  0  0  0  0  0  0  0  0
   18.1029   -6.6546   41.2946 C   0  0  0  0  0  0  0  0  0  0  0  0
   19.1776   -7.1147   42.0196 C   0  0  0  0  0  0  0  0  0  0  0  0
   19.1034   -7.1416   43.3950 C   0  0  0  0  0  0  0  0  0  0  0  0
   17.9606   -6.7099   44.0329 C   0  0  0  0  0  0  0  0  0  0  0  0
   17.8396   -6.7192   45.3863 F   0  0  0  0  0  0  0  0  0  0  0  0
  1  2  1  0
  2  3  1  0
  3  4  2  0
  3  5  1  0
  5  6  1  0
  5 10  1  0
  6  7  1  0
  7  8  1  0
  8  9  1  0
  8 11  1  0
  9 10  1  0
 11 12  2  0
 11 27  1  0
 12 13  1  0
 13 14  2  0
 14 15  1  0
 14 21  1  0
 15 16  2  0
 15 20  1  0
 16 17  1  0
 17 18  2  0
 18 19  1  0
 19 20  2  0
 21 22  1  0
 21 27  2  0
 22 23  2  0
 23 24  1  0
 23 28  1  0
 24 25  1  0
 24 26  2  0
 26 27  1  0
 28 29  2  0
 28 34  1  0
 29 30  1  0
 29 31  1  0
 31 32  2  0
 32 33  1  0
 33 34  2  0
 34 35  1  0
M  END
$$$$
