
     RDKit          3D

 35 39  0  0  0  0  0  0  0  0999 V2000
    5.7793   -3.4934   41.6538 C   0  0  0  0  0  0  0  0  0  0  0  0
    7.0329   -4.1819   42.1520 C   0  0  0  0  0  0  0  0  0  0  0  0
    7.2764   -3.7975   43.5688 C   0  0  0  0  0  0  0  0  0  0  0  0
    6.3719   -4.2059   44.3793 O   0  0  0  0  0  0  0  0  0  0  0  0
    8.3828   -3.0562   44.0169 N   0  0  0  0  0  0  0  0  0  0  0  0
    9.6339   -3.2449   43.3107 C   0  0  0  0  0  0  0  0  0  0  0  0
   10.8211   -2.6177   44.0017 C   0  0  0  0  0  0  0  0  0  0  0  0
   10.7077   -2.5144   45.4232 N   0  0  0  0  0  0  0  0  0  0  0  0
    9.4270   -2.5513   46.0730 C   0  0  0  0  0  0  0  0  0  0  0  0
    8.3141   -2.1461   45.1111 C   0  0  0  0  0  0  0  0  0  0  0  0
   11.8877   -2.3776   46.1962 C   0  0  0  0  0  0  0  0  0  0  0  0
   11.8104   -1.9705   47.4978 N   0  0  0  0  0  0  0  0  0  0  0  0
   12.8612   -1.8654   48.2773 N   0  0  0  0  0  0  0  0  0  0  0  0
   14.1188   -2.1573   47.8408 C   0  0  0  0  0  0  0  0  0  0  0  0
   15.2618   -2.0374   48.7224 C   0  0  0  0  0  0  0  0  0  0  0  0
   16.5228   -2.4732   48.3092 C   0  0  0  0  0  0  0  0  0  0  0  0
   17.6336   -2.4116   49.1330 C   0  0  0  0  0  0  0  0  0  0  0  0
   17.5165   -1.9088   50.4054 C   0  0  0  0  0  0  0  0  0  0  0  0
   16.2757   -1.4591   50.8688 C   0  0  0  0  0  0  0  0  0  0  0  0
   15.1985   -1.5447   50.0029 C   0  0  0  0  0  0  0  0  0  0  0  0
   14.2531   -2.5709   46.5453 C   0  0  0  0  0  0  0  0  0  0  0  0
   15.4715   -2.8935   46.0331 C   0  0  0  0  0  0  0  0  0  0  0  0
   15.6413   -3.3191   44.7269 C   0  0  0  0  0  0  0  0  0  0  0  0
   14.5406   -3.4209   43.9151 C   0  0  0  0  0  0  0  0  0  0  0  0
   14.6513   -3.9431   42.2500 Cl  0  0  0  0  0  0  0  0  0  0  0  0
   13.2920   -3.0998   44.4182 C   0  0  0  0  0  0  0  0  0  0  0  0
   13.1164   -2.6786   45.7185 C   0  0  0  0  0  0  0  0  0  0  0  0
   16.9582   -3.6610   44.2307 C   0  0  0  0  0  0  0  0  0  0  0  0
   17.6800   -4.7185   44.7834 C   0  0  0  0  0  0  0  0  0  0  0  0
   17.0407   -5.4063   45.8293 O   0  0  0  0  0  0  0  0  0  0  0  0
   18.9300   -5.0699   44.3411 C   0  0  0  0  0  0  0  0  0  0  0  0
   19.5377   -4.3737   43.3063 C   0  0  0  0  0  0  0  0  0  0  0  0
   18.8314   -3.3305   42.7568 C   0  0  0  0  0  0  0  0  0  0  0  0
   17.5750   -2.9744   43.1989 C   0  0  0  0  0  0  0  0  0  0  0  0
   16.9047   -1.9244   42.6216 F   0  0  0  0  0  0  0  0  0  0  0  0
  1  2  1  6
  2  3  1  6
  3  4  2  0
  3  5  1  0
  6  5  1  1
 10  5  1  1
  6  7  1  0
  7  8  1  6
  9  8  1  1
  8 11  1  0
  9 10  1  0
 11 12  2  0
 11 27  1  0
 12 13  1  0
 13 14  2  0
 14 15  1  0
 14 21  1  0
 15 16  2  0
 15 20  1  0
 16 17  1  0
 17 18  2  0
 18 19  1  0
 19 20  2  0
 21 22  1  0
 21 27  2  0
 22 23  2  0
 23 24  1  0
 23 28  1  0
 24 25  1  0
 24 26  2  0
 26 27  1  0
 28 29  2  0
 28 34  1  0
 29 30  1  0
 29 31  1  0
 31 32  2  0
 32 33  1  0
 33 34  2  0
 34 35  1  0
M  END
$$$$
