
     RDKit          3D

 35 39  0  0  0  0  0  0  0  0999 V2000
    1.3629    0.8422   24.9324 C   0  0  0  0  0  0  0  0  0  0  0  0
    2.2116    1.6004   25.9315 C   0  0  0  0  0  0  0  0  0  0  0  0
    3.1194    0.6496   26.6291 C   0  0  0  0  0  0  0  0  0  0  0  0
    3.7029   -0.1792   25.8452 O   0  0  0  0  0  0  0  0  0  0  0  0
    3.3429    0.6299   28.0161 N   0  0  0  0  0  0  0  0  0  0  0  0
    4.3033   -0.3327   28.5167 C   0  0  0  0  0  0  0  0  0  0  0  0
    4.2996   -0.4674   30.0208 C   0  0  0  0  0  0  0  0  0  0  0  0
    3.0492   -0.1771   30.6502 N   0  0  0  0  0  0  0  0  0  0  0  0
    2.0500    0.6173   29.9912 C   0  0  0  0  0  0  0  0  0  0  0  0
    2.6766    1.5061   28.9210 C   0  0  0  0  0  0  0  0  0  0  0  0
    2.7997   -0.6913   31.9472 C   0  0  0  0  0  0  0  0  0  0  0  0
    1.5197   -0.7721   32.4174 N   0  0  0  0  0  0  0  0  0  0  0  0
    1.2201   -1.2773   33.5913 N   0  0  0  0  0  0  0  0  0  0  0  0
    2.1735   -1.7626   34.4355 C   0  0  0  0  0  0  0  0  0  0  0  0
    1.8165   -2.3192   35.7242 C   0  0  0  0  0  0  0  0  0  0  0  0
    2.5670   -2.0100   36.8609 C   0  0  0  0  0  0  0  0  0  0  0  0
    2.2832   -2.5490   38.1039 C   0  0  0  0  0  0  0  0  0  0  0  0
    1.2324   -3.4209   38.2496 C   0  0  0  0  0  0  0  0  0  0  0  0
    0.4492   -3.7641   37.1426 C   0  0  0  0  0  0  0  0  0  0  0  0
    0.7783   -3.1959   35.9234 C   0  0  0  0  0  0  0  0  0  0  0  0
    3.4722   -1.7070   34.0137 C   0  0  0  0  0  0  0  0  0  0  0  0
    4.4843   -2.1804   34.7899 C   0  0  0  0  0  0  0  0  0  0  0  0
    5.8093   -2.1424   34.3909 C   0  0  0  0  0  0  0  0  0  0  0  0
    6.1170   -1.6076   33.1661 C   0  0  0  0  0  0  0  0  0  0  0  0
    7.7594   -1.5090   32.5743 Cl  0  0  0  0  0  0  0  0  0  0  0  0
    5.1014   -1.1231   32.3606 C   0  0  0  0  0  0  0  0  0  0  0  0
    3.7803   -1.1610   32.7510 C   0  0  0  0  0  0  0  0  0  0  0  0
    6.8505   -2.6686   35.2490 C   0  0  0  0  0  0  0  0  0  0  0  0
    6.9844   -4.0415   35.4540 C   0  0  0  0  0  0  0  0  0  0  0  0
    6.0539   -4.8483   34.7765 O   0  0  0  0  0  0  0  0  0  0  0  0
    7.9565   -4.5759   36.2609 C   0  0  0  0  0  0  0  0  0  0  0  0
    8.8626   -3.7561   36.9178 C   0  0  0  0  0  0  0  0  0  0  0  0
    8.7365   -2.4018   36.7195 C   0  0  0  0  0  0  0  0  0  0  0  0
    7.7606   -1.8612   35.9094 C   0  0  0  0  0  0  0  0  0  0  0  0
    7.6700   -0.5017   35.7398 F   0  0  0  0  0  0  0  0  0  0  0  0
  1  2  1  6
  2  3  1  6
  3  4  2  0
  3  5  1  0
  6  5  1  1
 10  5  1  1
  6  7  1  0
  7  8  1  6
  9  8  1  1
  8 11  1  0
  9 10  1  0
 11 12  2  0
 11 27  1  0
 12 13  1  0
 13 14  2  0
 14 15  1  0
 14 21  1  0
 15 16  2  0
 15 20  1  0
 16 17  1  0
 17 18  2  0
 18 19  1  0
 19 20  2  0
 21 22  1  0
 21 27  2  0
 22 23  2  0
 23 24  1  0
 23 28  1  0
 24 25  1  0
 24 26  2  0
 26 27  1  0
 28 29  2  0
 28 34  1  0
 29 30  1  0
 29 31  1  0
 31 32  2  0
 32 33  1  0
 33 34  2  0
 34 35  1  0
M  END
$$$$
