
     RDKit          3D

 35 39  0  0  0  0  0  0  0  0999 V2000
    9.9317  -12.0235   41.5982 C   0  0  0  0  0  0  0  0  0  0  0  0
   10.4915  -10.6233   41.7392 C   0  0  0  0  0  0  0  0  0  0  0  0
   11.5172  -10.6089   42.8173 C   0  0  0  0  0  0  0  0  0  0  0  0
   12.1516  -11.7150   42.9437 O   0  0  0  0  0  0  0  0  0  0  0  0
   11.7945   -9.5055   43.6418 N   0  0  0  0  0  0  0  0  0  0  0  0
   11.3794   -8.2024   43.1630 C   0  0  0  0  0  0  0  0  0  0  0  0
   11.9329   -7.0540   43.9724 C   0  0  0  0  0  0  0  0  0  0  0  0
   13.1845   -7.3143   44.6128 N   0  0  0  0  0  0  0  0  0  0  0  0
   13.6285   -8.6575   44.8626 C   0  0  0  0  0  0  0  0  0  0  0  0
   12.4491   -9.6247   44.9018 C   0  0  0  0  0  0  0  0  0  0  0  0
   13.9961   -6.2190   45.0005 C   0  0  0  0  0  0  0  0  0  0  0  0
   15.2411   -6.4385   45.5180 N   0  0  0  0  0  0  0  0  0  0  0  0
   16.0562   -5.4667   45.8558 N   0  0  0  0  0  0  0  0  0  0  0  0
   15.7166   -4.1545   45.7140 C   0  0  0  0  0  0  0  0  0  0  0  0
   16.6360   -3.1004   46.0901 C   0  0  0  0  0  0  0  0  0  0  0  0
   16.1666   -1.8101   46.3461 C   0  0  0  0  0  0  0  0  0  0  0  0
   17.0143   -0.7654   46.6718 C   0  0  0  0  0  0  0  0  0  0  0  0
   18.3682   -0.9804   46.7519 C   0  0  0  0  0  0  0  0  0  0  0  0
   18.8903   -2.2543   46.5045 C   0  0  0  0  0  0  0  0  0  0  0  0
   17.9968   -3.2620   46.1823 C   0  0  0  0  0  0  0  0  0  0  0  0
   14.4812   -3.8782   45.1993 C   0  0  0  0  0  0  0  0  0  0  0  0
   14.0678   -2.5953   45.0140 C   0  0  0  0  0  0  0  0  0  0  0  0
   12.8248   -2.2815   44.4918 C   0  0  0  0  0  0  0  0  0  0  0  0
   11.9748   -3.3009   44.1466 C   0  0  0  0  0  0  0  0  0  0  0  0
   10.3829   -3.0083   43.4851 Cl  0  0  0  0  0  0  0  0  0  0  0  0
   12.3779   -4.6128   44.3250 C   0  0  0  0  0  0  0  0  0  0  0  0
   13.6151   -4.9314   44.8414 C   0  0  0  0  0  0  0  0  0  0  0  0
   12.4343   -0.8996   44.3038 C   0  0  0  0  0  0  0  0  0  0  0  0
   12.1904   -0.0688   45.3969 C   0  0  0  0  0  0  0  0  0  0  0  0
   12.3528   -0.6658   46.6590 O   0  0  0  0  0  0  0  0  0  0  0  0
   11.8169    1.2437   45.2577 C   0  0  0  0  0  0  0  0  0  0  0  0
   11.6641    1.8079   43.9995 C   0  0  0  0  0  0  0  0  0  0  0  0
   11.9036    0.9945   42.9176 C   0  0  0  0  0  0  0  0  0  0  0  0
   12.2788   -0.3252   43.0539 C   0  0  0  0  0  0  0  0  0  0  0  0
   12.5075   -1.1026   41.9455 F   0  0  0  0  0  0  0  0  0  0  0  0
  1  2  1  6
  2  3  1  6
  3  4  2  0
  3  5  1  0
  6  5  1  1
 10  5  1  1
  6  7  1  0
  7  8  1  6
  9  8  1  1
  8 11  1  0
  9 10  1  0
 11 12  2  0
 11 27  1  0
 12 13  1  0
 13 14  2  0
 14 15  1  0
 14 21  1  0
 15 16  2  0
 15 20  1  0
 16 17  1  0
 17 18  2  0
 18 19  1  0
 19 20  2  0
 21 22  1  0
 21 27  2  0
 22 23  2  0
 23 24  1  0
 23 28  1  0
 24 25  1  0
 24 26  2  0
 26 27  1  0
 28 29  2  0
 28 34  1  0
 29 30  1  0
 29 31  1  0
 31 32  2  0
 32 33  1  0
 33 34  2  0
 34 35  1  0
M  END
$$$$
