
     RDKit          3D

 35 39  0  0  0  0  0  0  0  0999 V2000
   11.9744  -15.4809   42.1617 C   0  0  0  0  0  0  0  0  0  0  0  0
   12.6566  -14.2170   41.6812 C   0  0  0  0  0  0  0  0  0  0  0  0
   14.0470  -14.5376   41.2584 C   0  0  0  0  0  0  0  0  0  0  0  0
   14.1312  -15.5538   40.4825 O   0  0  0  0  0  0  0  0  0  0  0  0
   15.1878  -13.8177   41.6515 N   0  0  0  0  0  0  0  0  0  0  0  0
   14.9755  -12.4989   42.2130 C   0  0  0  0  0  0  0  0  0  0  0  0
   16.2444  -11.6954   42.3711 C   0  0  0  0  0  0  0  0  0  0  0  0
   17.2823  -12.0163   41.4417 N   0  0  0  0  0  0  0  0  0  0  0  0
   17.3043  -13.2783   40.7557 C   0  0  0  0  0  0  0  0  0  0  0  0
   16.5107  -14.3314   41.5232 C   0  0  0  0  0  0  0  0  0  0  0  0
   18.3014  -11.0621   41.1970 C   0  0  0  0  0  0  0  0  0  0  0  0
   19.3898  -11.4003   40.4440 N   0  0  0  0  0  0  0  0  0  0  0  0
   20.3451  -10.5507   40.1468 N   0  0  0  0  0  0  0  0  0  0  0  0
   20.3211   -9.2562   40.5721 C   0  0  0  0  0  0  0  0  0  0  0  0
   21.3858   -8.3368   40.2267 C   0  0  0  0  0  0  0  0  0  0  0  0
   21.0914   -7.0311   39.8276 C   0  0  0  0  0  0  0  0  0  0  0  0
   22.0754   -6.1322   39.4533 C   0  0  0  0  0  0  0  0  0  0  0  0
   23.3942   -6.5144   39.4663 C   0  0  0  0  0  0  0  0  0  0  0  0
   23.7431   -7.8113   39.8576 C   0  0  0  0  0  0  0  0  0  0  0  0
   22.7185   -8.6689   40.2211 C   0  0  0  0  0  0  0  0  0  0  0  0
   19.2530   -8.8640   41.3289 C   0  0  0  0  0  0  0  0  0  0  0  0
   19.1452   -7.5866   41.7842 C   0  0  0  0  0  0  0  0  0  0  0  0
   18.0749   -7.1564   42.5496 C   0  0  0  0  0  0  0  0  0  0  0  0
   17.0829   -8.0502   42.8625 C   0  0  0  0  0  0  0  0  0  0  0  0
   15.6939   -7.6064   43.8275 Cl  0  0  0  0  0  0  0  0  0  0  0  0
   17.1728   -9.3538   42.4065 C   0  0  0  0  0  0  0  0  0  0  0  0
   18.2342   -9.7869   41.6417 C   0  0  0  0  0  0  0  0  0  0  0  0
   18.0002   -5.7829   43.0023 C   0  0  0  0  0  0  0  0  0  0  0  0
   18.4296   -5.4251   44.2799 C   0  0  0  0  0  0  0  0  0  0  0  0
   18.9287   -6.4770   45.0674 O   0  0  0  0  0  0  0  0  0  0  0  0
   18.3722   -4.1354   44.7438 C   0  0  0  0  0  0  0  0  0  0  0  0
   17.8750   -3.1160   43.9449 C   0  0  0  0  0  0  0  0  0  0  0  0
   17.4505   -3.4618   42.6841 C   0  0  0  0  0  0  0  0  0  0  0  0
   17.5066   -4.7569   42.2147 C   0  0  0  0  0  0  0  0  0  0  0  0
   17.0710   -5.0586   40.9481 F   0  0  0  0  0  0  0  0  0  0  0  0
  1  2  1  6
  2  3  1  6
  3  4  2  0
  3  5  1  0
  6  5  1  1
 10  5  1  1
  6  7  1  0
  7  8  1  6
  9  8  1  1
  8 11  1  0
  9 10  1  0
 11 12  2  0
 11 27  1  0
 12 13  1  0
 13 14  2  0
 14 15  1  0
 14 21  1  0
 15 16  2  0
 15 20  1  0
 16 17  1  0
 17 18  2  0
 18 19  1  0
 19 20  2  0
 21 22  1  0
 21 27  2  0
 22 23  2  0
 23 24  1  0
 23 28  1  0
 24 25  1  0
 24 26  2  0
 26 27  1  0
 28 29  2  0
 28 34  1  0
 29 30  1  0
 29 31  1  0
 31 32  2  0
 32 33  1  0
 33 34  2  0
 34 35  1  0
M  END
$$$$
