
     RDKit          3D

 35 39  0  0  0  0  0  0  0  0999 V2000
   11.2696  -11.9062   40.4247 C   0  0  0  0  0  0  0  0  0  0  0  0
   12.1926  -11.2996   41.4610 C   0  0  0  0  0  0  0  0  0  0  0  0
   11.3797  -10.6626   42.5324 C   0  0  0  0  0  0  0  0  0  0  0  0
   10.1421  -10.9939   42.5100 O   0  0  0  0  0  0  0  0  0  0  0  0
   11.8846   -9.7751   43.4977 N   0  0  0  0  0  0  0  0  0  0  0  0
   10.9741   -9.3446   44.5394 C   0  0  0  0  0  0  0  0  0  0  0  0
   11.5068   -8.2081   45.3791 C   0  0  0  0  0  0  0  0  0  0  0  0
   12.4308   -7.3452   44.7114 N   0  0  0  0  0  0  0  0  0  0  0  0
   13.1444   -7.7792   43.5426 C   0  0  0  0  0  0  0  0  0  0  0  0
   13.2285   -9.3016   43.4875 C   0  0  0  0  0  0  0  0  0  0  0  0
   12.6357   -6.0376   45.2185 C   0  0  0  0  0  0  0  0  0  0  0  0
   11.6005   -5.3557   45.7924 N   0  0  0  0  0  0  0  0  0  0  0  0
   11.7361   -4.1605   46.3178 N   0  0  0  0  0  0  0  0  0  0  0  0
   12.9312   -3.5057   46.3290 C   0  0  0  0  0  0  0  0  0  0  0  0
   13.0557   -2.1888   46.9192 C   0  0  0  0  0  0  0  0  0  0  0  0
   12.0786   -1.2168   46.6929 C   0  0  0  0  0  0  0  0  0  0  0  0
   12.1770    0.0648   47.2066 C   0  0  0  0  0  0  0  0  0  0  0  0
   13.2641    0.4169   47.9680 C   0  0  0  0  0  0  0  0  0  0  0  0
   14.2715   -0.5192   48.2243 C   0  0  0  0  0  0  0  0  0  0  0  0
   14.1221   -1.7859   47.6852 C   0  0  0  0  0  0  0  0  0  0  0  0
   14.0016   -4.1439   45.7682 C   0  0  0  0  0  0  0  0  0  0  0  0
   15.2331   -3.5659   45.7479 C   0  0  0  0  0  0  0  0  0  0  0  0
   16.3381   -4.1866   45.1912 C   0  0  0  0  0  0  0  0  0  0  0  0
   16.1891   -5.4326   44.6379 C   0  0  0  0  0  0  0  0  0  0  0  0
   17.5213   -6.2965   43.9056 Cl  0  0  0  0  0  0  0  0  0  0  0  0
   14.9449   -6.0386   44.6509 C   0  0  0  0  0  0  0  0  0  0  0  0
   13.8420   -5.4270   45.2064 C   0  0  0  0  0  0  0  0  0  0  0  0
   17.6311   -3.5344   45.2031 C   0  0  0  0  0  0  0  0  0  0  0  0
   18.3538   -3.3977   46.3879 C   0  0  0  0  0  0  0  0  0  0  0  0
   17.7422   -3.9322   47.5351 O   0  0  0  0  0  0  0  0  0  0  0  0
   19.5798   -2.7844   46.4381 C   0  0  0  0  0  0  0  0  0  0  0  0
   20.1607   -2.2657   45.2899 C   0  0  0  0  0  0  0  0  0  0  0  0
   19.4537   -2.3976   44.1186 C   0  0  0  0  0  0  0  0  0  0  0  0
   18.2213   -3.0132   44.0645 C   0  0  0  0  0  0  0  0  0  0  0  0
   17.5487   -3.1228   42.8725 F   0  0  0  0  0  0  0  0  0  0  0  0
  1  2  1  6
  2  3  1  6
  3  4  2  0
  3  5  1  0
  6  5  1  1
 10  5  1  1
  6  7  1  0
  7  8  1  6
  9  8  1  1
  8 11  1  0
  9 10  1  0
 11 12  2  0
 11 27  1  0
 12 13  1  0
 13 14  2  0
 14 15  1  0
 14 21  1  0
 15 16  2  0
 15 20  1  0
 16 17  1  0
 17 18  2  0
 18 19  1  0
 19 20  2  0
 21 22  1  0
 21 27  2  0
 22 23  2  0
 23 24  1  0
 23 28  1  0
 24 25  1  0
 24 26  2  0
 26 27  1  0
 28 29  2  0
 28 34  1  0
 29 30  1  0
 29 31  1  0
 31 32  2  0
 32 33  1  0
 33 34  2  0
 34 35  1  0
M  END
$$$$
