
     RDKit          3D

 35 39  0  0  0  0  0  0  0  0999 V2000
    5.5395   -3.5826   43.3843 C   0  0  0  0  0  0  0  0  0  0  0  0
    6.5519   -4.1658   44.3480 C   0  0  0  0  0  0  0  0  0  0  0  0
    7.3414   -3.0631   44.9605 C   0  0  0  0  0  0  0  0  0  0  0  0
    6.7063   -2.4095   45.8611 O   0  0  0  0  0  0  0  0  0  0  0  0
    8.6629   -2.7371   44.6116 N   0  0  0  0  0  0  0  0  0  0  0  0
    9.4901   -3.8048   44.0871 C   0  0  0  0  0  0  0  0  0  0  0  0
   10.9519   -3.4420   43.9779 C   0  0  0  0  0  0  0  0  0  0  0  0
   11.4029   -2.4624   44.9166 N   0  0  0  0  0  0  0  0  0  0  0  0
   10.4811   -1.5705   45.5636 C   0  0  0  0  0  0  0  0  0  0  0  0
    9.1992   -1.4241   44.7491 C   0  0  0  0  0  0  0  0  0  0  0  0
   12.7872   -2.3813   45.2098 C   0  0  0  0  0  0  0  0  0  0  0  0
   13.2528   -1.4139   46.0545 N   0  0  0  0  0  0  0  0  0  0  0  0
   14.5154   -1.3128   46.3984 N   0  0  0  0  0  0  0  0  0  0  0  0
   15.4639   -2.1737   45.9332 C   0  0  0  0  0  0  0  0  0  0  0  0
   16.8504   -2.0435   46.3314 C   0  0  0  0  0  0  0  0  0  0  0  0
   17.5717   -3.1605   46.7589 C   0  0  0  0  0  0  0  0  0  0  0  0
   18.8865   -3.0742   47.1833 C   0  0  0  0  0  0  0  0  0  0  0  0
   19.5253   -1.8588   47.1938 C   0  0  0  0  0  0  0  0  0  0  0  0
   18.8478   -0.7085   46.7758 C   0  0  0  0  0  0  0  0  0  0  0  0
   17.5342   -0.8527   46.3622 C   0  0  0  0  0  0  0  0  0  0  0  0
   15.0517   -3.1625   45.0847 C   0  0  0  0  0  0  0  0  0  0  0  0
   15.9319   -4.0709   44.5836 C   0  0  0  0  0  0  0  0  0  0  0  0
   15.5465   -5.0863   43.7252 C   0  0  0  0  0  0  0  0  0  0  0  0
   14.2269   -5.1832   43.3642 C   0  0  0  0  0  0  0  0  0  0  0  0
   13.6419   -6.4256   42.2819 Cl  0  0  0  0  0  0  0  0  0  0  0  0
   13.3156   -4.2702   43.8654 C   0  0  0  0  0  0  0  0  0  0  0  0
   13.6927   -3.2592   44.7225 C   0  0  0  0  0  0  0  0  0  0  0  0
   16.5196   -6.0357   43.2264 C   0  0  0  0  0  0  0  0  0  0  0  0
   16.9209   -7.1241   44.0003 C   0  0  0  0  0  0  0  0  0  0  0  0
   16.3182   -7.2215   45.2664 O   0  0  0  0  0  0  0  0  0  0  0  0
   17.8412   -8.0421   43.5622 C   0  0  0  0  0  0  0  0  0  0  0  0
   18.4205   -7.9220   42.3073 C   0  0  0  0  0  0  0  0  0  0  0  0
   18.0288   -6.8516   41.5390 C   0  0  0  0  0  0  0  0  0  0  0  0
   17.1043   -5.9270   41.9763 C   0  0  0  0  0  0  0  0  0  0  0  0
   16.7420   -4.8718   41.1761 F   0  0  0  0  0  0  0  0  0  0  0  0
  1  2  1  6
  2  3  1  6
  3  4  2  0
  3  5  1  0
  6  5  1  1
 10  5  1  1
  6  7  1  0
  7  8  1  6
  9  8  1  1
  8 11  1  0
  9 10  1  0
 11 12  2  0
 11 27  1  0
 12 13  1  0
 13 14  2  0
 14 15  1  0
 14 21  1  0
 15 16  2  0
 15 20  1  0
 16 17  1  0
 17 18  2  0
 18 19  1  0
 19 20  2  0
 21 22  1  0
 21 27  2  0
 22 23  2  0
 23 24  1  0
 23 28  1  0
 24 25  1  0
 24 26  2  0
 26 27  1  0
 28 29  2  0
 28 34  1  0
 29 30  1  0
 29 31  1  0
 31 32  2  0
 32 33  1  0
 33 34  2  0
 34 35  1  0
M  END
$$$$
