
     RDKit          3D

 35 39  0  0  0  0  0  0  0  0999 V2000
   -4.5506   -6.3130   31.5790 C   0  0  0  0  0  0  0  0  0  0  0  0
   -3.8436   -7.6348   31.3630 C   0  0  0  0  0  0  0  0  0  0  0  0
   -2.3740   -7.4328   31.4809 C   0  0  0  0  0  0  0  0  0  0  0  0
   -1.7305   -7.6653   30.3975 O   0  0  0  0  0  0  0  0  0  0  0  0
   -1.7148   -7.0256   32.6530 N   0  0  0  0  0  0  0  0  0  0  0  0
   -2.5439   -6.6187   33.7696 C   0  0  0  0  0  0  0  0  0  0  0  0
   -1.7734   -5.9598   34.8888 C   0  0  0  0  0  0  0  0  0  0  0  0
   -0.5804   -5.2835   34.4845 N   0  0  0  0  0  0  0  0  0  0  0  0
    0.0716   -5.5999   33.2441 C   0  0  0  0  0  0  0  0  0  0  0  0
   -0.2954   -7.0052   32.7767 C   0  0  0  0  0  0  0  0  0  0  0  0
   -0.0418   -4.2809   35.3292 C   0  0  0  0  0  0  0  0  0  0  0  0
   -0.8032   -3.7468   36.3298 N   0  0  0  0  0  0  0  0  0  0  0  0
   -0.3491   -2.8473   37.1709 N   0  0  0  0  0  0  0  0  0  0  0  0
    0.9278   -2.3753   37.1068 C   0  0  0  0  0  0  0  0  0  0  0  0
    1.4063   -1.3855   38.0499 C   0  0  0  0  0  0  0  0  0  0  0  0
    2.2153   -0.3314   37.6197 C   0  0  0  0  0  0  0  0  0  0  0  0
    2.7245    0.6144   38.4929 C   0  0  0  0  0  0  0  0  0  0  0  0
    2.4385    0.5343   39.8336 C   0  0  0  0  0  0  0  0  0  0  0  0
    1.6330   -0.5023   40.3165 C   0  0  0  0  0  0  0  0  0  0  0  0
    1.1513   -1.4208   39.3990 C   0  0  0  0  0  0  0  0  0  0  0  0
    1.7337   -2.8774   36.1240 C   0  0  0  0  0  0  0  0  0  0  0  0
    3.0252   -2.4688   35.9970 C   0  0  0  0  0  0  0  0  0  0  0  0
    3.8686   -2.9601   35.0153 C   0  0  0  0  0  0  0  0  0  0  0  0
    3.3868   -3.8950   34.1352 C   0  0  0  0  0  0  0  0  0  0  0  0
    4.3704   -4.5719   32.8578 Cl  0  0  0  0  0  0  0  0  0  0  0  0
    2.0764   -4.3254   34.2495 C   0  0  0  0  0  0  0  0  0  0  0  0
    1.2331   -3.8424   35.2265 C   0  0  0  0  0  0  0  0  0  0  0  0
    5.2394   -2.5013   34.9272 C   0  0  0  0  0  0  0  0  0  0  0  0
    6.2094   -2.9673   35.8140 C   0  0  0  0  0  0  0  0  0  0  0  0
    5.7599   -3.8939   36.7706 O   0  0  0  0  0  0  0  0  0  0  0  0
    7.5164   -2.5539   35.7623 C   0  0  0  0  0  0  0  0  0  0  0  0
    7.9332   -1.6381   34.8072 C   0  0  0  0  0  0  0  0  0  0  0  0
    6.9821   -1.1752   33.9296 C   0  0  0  0  0  0  0  0  0  0  0  0
    5.6676   -1.5883   33.9787 C   0  0  0  0  0  0  0  0  0  0  0  0
    4.7495   -1.0995   33.0824 F   0  0  0  0  0  0  0  0  0  0  0  0
  1  2  1  6
  2  3  1  6
  3  4  2  0
  3  5  1  0
  6  5  1  1
 10  5  1  1
  6  7  1  0
  7  8  1  6
  9  8  1  1
  8 11  1  0
  9 10  1  0
 11 12  2  0
 11 27  1  0
 12 13  1  0
 13 14  2  0
 14 15  1  0
 14 21  1  0
 15 16  2  0
 15 20  1  0
 16 17  1  0
 17 18  2  0
 18 19  1  0
 19 20  2  0
 21 22  1  0
 21 27  2  0
 22 23  2  0
 23 24  1  0
 23 28  1  0
 24 25  1  0
 24 26  2  0
 26 27  1  0
 28 29  2  0
 28 34  1  0
 29 30  1  0
 29 31  1  0
 31 32  2  0
 32 33  1  0
 33 34  2  0
 34 35  1  0
M  END
$$$$
