
     RDKit          3D

 35 39  0  0  0  0  0  0  0  0999 V2000
   11.0073  -11.2669   41.4557 C   0  0  0  0  0  0  0  0  0  0  0  0
   10.5005  -10.7456   42.7992 C   0  0  0  0  0  0  0  0  0  0  0  0
   11.6520  -10.1967   43.5431 C   0  0  0  0  0  0  0  0  0  0  0  0
   12.5995  -10.9630   43.8645 O   0  0  0  0  0  0  0  0  0  0  0  0
   11.6783   -8.8248   43.8829 N   0  0  0  0  0  0  0  0  0  0  0  0
   12.7849   -8.2844   44.6825 C   0  0  0  0  0  0  0  0  0  0  0  0
   13.1331   -6.9069   44.0595 C   0  0  0  0  0  0  0  0  0  0  0  0
   11.9458   -6.1045   44.3096 N   0  0  0  0  0  0  0  0  0  0  0  0
   10.6117   -6.6340   44.1822 C   0  0  0  0  0  0  0  0  0  0  0  0
   10.6502   -7.9451   43.4563 C   0  0  0  0  0  0  0  0  0  0  0  0
   12.1061   -4.7626   44.7097 C   0  0  0  0  0  0  0  0  0  0  0  0
   11.0386   -3.9683   44.7641 N   0  0  0  0  0  0  0  0  0  0  0  0
   11.1249   -2.7427   45.1615 N   0  0  0  0  0  0  0  0  0  0  0  0
   12.2728   -2.1840   45.5432 C   0  0  0  0  0  0  0  0  0  0  0  0
   12.2522   -0.7990   45.9612 C   0  0  0  0  0  0  0  0  0  0  0  0
   11.4983    0.1233   45.2326 C   0  0  0  0  0  0  0  0  0  0  0  0
   11.4016    1.4415   45.5779 C   0  0  0  0  0  0  0  0  0  0  0  0
   12.0634    1.9081   46.6837 C   0  0  0  0  0  0  0  0  0  0  0  0
   12.8233    1.0284   47.4370 C   0  0  0  0  0  0  0  0  0  0  0  0
   12.9032   -0.2991   47.0658 C   0  0  0  0  0  0  0  0  0  0  0  0
   13.4150   -2.9489   45.5090 C   0  0  0  0  0  0  0  0  0  0  0  0
   14.6295   -2.4478   45.8602 C   0  0  0  0  0  0  0  0  0  0  0  0
   15.8122   -3.1770   45.8219 C   0  0  0  0  0  0  0  0  0  0  0  0
   15.7269   -4.4829   45.3990 C   0  0  0  0  0  0  0  0  0  0  0  0
   17.1816   -5.4683   45.3244 Cl  0  0  0  0  0  0  0  0  0  0  0  0
   14.4916   -5.0264   45.0304 C   0  0  0  0  0  0  0  0  0  0  0  0
   13.3285   -4.2838   45.0772 C   0  0  0  0  0  0  0  0  0  0  0  0
   17.0565   -2.5333   46.2243 C   0  0  0  0  0  0  0  0  0  0  0  0
   17.7556   -2.9252   47.3445 C   0  0  0  0  0  0  0  0  0  0  0  0
   17.2205   -3.9718   48.0892 O   0  0  0  0  0  0  0  0  0  0  0  0
   18.9501   -2.3033   47.7219 C   0  0  0  0  0  0  0  0  0  0  0  0
   19.4541   -1.2709   46.9653 C   0  0  0  0  0  0  0  0  0  0  0  0
   18.7720   -0.8615   45.8406 C   0  0  0  0  0  0  0  0  0  0  0  0
   17.5962   -1.4843   45.4819 C   0  0  0  0  0  0  0  0  0  0  0  0
   16.8871   -1.1147   44.3831 F   0  0  0  0  0  0  0  0  0  0  0  0
  1  2  1  0
  2  3  1  0
  3  4  2  0
  3  5  1  0
  5  6  1  0
  5 10  1  0
  6  7  1  0
  7  8  1  0
  8  9  1  0
  8 11  1  0
  9 10  1  0
 11 12  2  0
 11 27  1  0
 12 13  1  0
 13 14  2  0
 14 15  1  0
 14 21  1  0
 15 16  2  0
 15 20  1  0
 16 17  1  0
 17 18  2  0
 18 19  1  0
 19 20  2  0
 21 22  1  0
 21 27  2  0
 22 23  2  0
 23 24  1  0
 23 28  1  0
 24 25  1  0
 24 26  2  0
 26 27  1  0
 28 29  2  0
 28 34  1  0
 29 30  1  0
 29 31  1  0
 31 32  2  0
 32 33  1  0
 33 34  2  0
 34 35  1  0
M  END
$$$$
