
     RDKit          3D

 35 39  0  0  0  0  0  0  0  0999 V2000
   11.3179   -8.4542   42.0357 C   0  0  0  0  0  0  0  0  0  0  0  0
   10.5607   -7.4294   41.2172 C   0  0  0  0  0  0  0  0  0  0  0  0
    9.8579   -6.4895   42.1322 C   0  0  0  0  0  0  0  0  0  0  0  0
    8.6493   -6.2384   41.7886 O   0  0  0  0  0  0  0  0  0  0  0  0
   10.4310   -5.9098   43.2766 N   0  0  0  0  0  0  0  0  0  0  0  0
    9.5233   -5.3698   44.2686 C   0  0  0  0  0  0  0  0  0  0  0  0
   10.2080   -4.5458   45.3328 C   0  0  0  0  0  0  0  0  0  0  0  0
   11.4175   -3.9067   44.9170 N   0  0  0  0  0  0  0  0  0  0  0  0
   12.1559   -4.3781   43.7784 C   0  0  0  0  0  0  0  0  0  0  0  0
   11.8384   -5.8421   43.4890 C   0  0  0  0  0  0  0  0  0  0  0  0
   11.8854   -2.7854   45.6468 C   0  0  0  0  0  0  0  0  0  0  0  0
   11.0000   -1.8614   46.1247 N   0  0  0  0  0  0  0  0  0  0  0  0
   11.3662   -0.8254   46.8426 N   0  0  0  0  0  0  0  0  0  0  0  0
   12.6693   -0.5931   47.1668 C   0  0  0  0  0  0  0  0  0  0  0  0
   13.0471    0.5554   47.9643 C   0  0  0  0  0  0  0  0  0  0  0  0
   12.3789    1.7726   47.8131 C   0  0  0  0  0  0  0  0  0  0  0  0
   12.7321    2.9042   48.5278 C   0  0  0  0  0  0  0  0  0  0  0  0
   13.7726    2.8534   49.4223 C   0  0  0  0  0  0  0  0  0  0  0  0
   14.4753    1.6588   49.6113 C   0  0  0  0  0  0  0  0  0  0  0  0
   14.0799    0.5582   48.8697 C   0  0  0  0  0  0  0  0  0  0  0  0
   13.5976   -1.4883   46.7145 C   0  0  0  0  0  0  0  0  0  0  0  0
   14.9186   -1.3372   47.0027 C   0  0  0  0  0  0  0  0  0  0  0  0
   15.8833   -2.2274   46.5633 C   0  0  0  0  0  0  0  0  0  0  0  0
   15.4957   -3.3046   45.8081 C   0  0  0  0  0  0  0  0  0  0  0  0
   16.6378   -4.4813   45.2012 Cl  0  0  0  0  0  0  0  0  0  0  0  0
   14.1561   -3.4773   45.5063 C   0  0  0  0  0  0  0  0  0  0  0  0
   13.1910   -2.5962   45.9435 C   0  0  0  0  0  0  0  0  0  0  0  0
   17.2765   -2.0290   46.9052 C   0  0  0  0  0  0  0  0  0  0  0  0
   17.9142   -2.8609   47.8250 C   0  0  0  0  0  0  0  0  0  0  0  0
   17.1164   -3.8795   48.3744 O   0  0  0  0  0  0  0  0  0  0  0  0
   19.2310   -2.7021   48.1748 C   0  0  0  0  0  0  0  0  0  0  0  0
   19.9957   -1.6880   47.6166 C   0  0  0  0  0  0  0  0  0  0  0  0
   19.3733   -0.8648   46.7087 C   0  0  0  0  0  0  0  0  0  0  0  0
   18.0500   -1.0213   46.3549 C   0  0  0  0  0  0  0  0  0  0  0  0
   17.4674   -0.1754   45.4438 F   0  0  0  0  0  0  0  0  0  0  0  0
  1  2  1  6
  2  3  1  6
  3  4  2  0
  3  5  1  0
  6  5  1  1
 10  5  1  1
  6  7  1  0
  7  8  1  6
  9  8  1  1
  8 11  1  0
  9 10  1  0
 11 12  2  0
 11 27  1  0
 12 13  1  0
 13 14  2  0
 14 15  1  0
 14 21  1  0
 15 16  2  0
 15 20  1  0
 16 17  1  0
 17 18  2  0
 18 19  1  0
 19 20  2  0
 21 22  1  0
 21 27  2  0
 22 23  2  0
 23 24  1  0
 23 28  1  0
 24 25  1  0
 24 26  2  0
 26 27  1  0
 28 29  2  0
 28 34  1  0
 29 30  1  0
 29 31  1  0
 31 32  2  0
 32 33  1  0
 33 34  2  0
 34 35  1  0
M  END
$$$$
