
     RDKit          3D

 35 39  0  0  0  0  0  0  0  0999 V2000
    6.5377   -7.6860   48.6860 C   0  0  0  0  0  0  0  0  0  0  0  0
    6.5352   -6.2560   48.1486 C   0  0  0  0  0  0  0  0  0  0  0  0
    7.3196   -6.2337   46.8977 C   0  0  0  0  0  0  0  0  0  0  0  0
    6.7842   -6.6302   45.8279 O   0  0  0  0  0  0  0  0  0  0  0  0
    8.6544   -5.7687   46.9147 N   0  0  0  0  0  0  0  0  0  0  0  0
    9.1544   -5.0046   48.0645 C   0  0  0  0  0  0  0  0  0  0  0  0
   10.5941   -5.5185   48.3292 C   0  0  0  0  0  0  0  0  0  0  0  0
   11.3310   -5.1077   47.1441 N   0  0  0  0  0  0  0  0  0  0  0  0
   10.7723   -5.1868   45.8181 C   0  0  0  0  0  0  0  0  0  0  0  0
    9.5358   -6.0341   45.8350 C   0  0  0  0  0  0  0  0  0  0  0  0
   12.6347   -4.5954   47.2999 C   0  0  0  0  0  0  0  0  0  0  0  0
   13.0409   -4.2070   48.5072 N   0  0  0  0  0  0  0  0  0  0  0  0
   14.2378   -3.7675   48.7110 N   0  0  0  0  0  0  0  0  0  0  0  0
   15.1482   -3.6693   47.7430 C   0  0  0  0  0  0  0  0  0  0  0  0
   16.4561   -3.1539   48.0855 C   0  0  0  0  0  0  0  0  0  0  0  0
   17.5895   -3.7270   47.5053 C   0  0  0  0  0  0  0  0  0  0  0  0
   18.8567   -3.2801   47.7518 C   0  0  0  0  0  0  0  0  0  0  0  0
   19.0549   -2.2239   48.6026 C   0  0  0  0  0  0  0  0  0  0  0  0
   17.9590   -1.6240   49.2009 C   0  0  0  0  0  0  0  0  0  0  0  0
   16.6891   -2.0954   48.9335 C   0  0  0  0  0  0  0  0  0  0  0  0
   14.7931   -4.0519   46.4709 C   0  0  0  0  0  0  0  0  0  0  0  0
   15.6557   -3.9616   45.4232 C   0  0  0  0  0  0  0  0  0  0  0  0
   15.3343   -4.3170   44.1185 C   0  0  0  0  0  0  0  0  0  0  0  0
   14.0607   -4.7855   43.8949 C   0  0  0  0  0  0  0  0  0  0  0  0
   13.5811   -5.2552   42.2694 Cl  0  0  0  0  0  0  0  0  0  0  0  0
   13.1507   -4.8892   44.9524 C   0  0  0  0  0  0  0  0  0  0  0  0
   13.4918   -4.5312   46.2416 C   0  0  0  0  0  0  0  0  0  0  0  0
   16.3434   -4.1784   43.0758 C   0  0  0  0  0  0  0  0  0  0  0  0
   17.0840   -5.2489   42.6255 C   0  0  0  0  0  0  0  0  0  0  0  0
   16.8306   -6.4844   43.2134 O   0  0  0  0  0  0  0  0  0  0  0  0
   18.0488   -5.1071   41.6230 C   0  0  0  0  0  0  0  0  0  0  0  0
   18.2767   -3.8724   41.0609 C   0  0  0  0  0  0  0  0  0  0  0  0
   17.5481   -2.7869   41.4955 C   0  0  0  0  0  0  0  0  0  0  0  0
   16.6011   -2.9429   42.4844 C   0  0  0  0  0  0  0  0  0  0  0  0
   15.8595   -1.9024   42.9471 F   0  0  0  0  0  0  0  0  0  0  0  0
  1  2  1  0
  2  3  1  0
  3  4  2  0
  3  5  1  0
  5  6  1  0
  5 10  1  0
  6  7  1  0
  7  8  1  0
  8  9  1  0
  8 11  1  0
  9 10  1  0
 11 12  2  0
 11 27  1  0
 12 13  1  0
 13 14  2  0
 14 15  1  0
 14 21  1  0
 15 16  2  0
 15 20  1  0
 16 17  1  0
 17 18  2  0
 18 19  1  0
 19 20  2  0
 21 22  1  0
 21 27  2  0
 22 23  2  0
 23 24  1  0
 23 28  1  0
 24 25  1  0
 24 26  2  0
 26 27  1  0
 28 29  2  0
 28 34  1  0
 29 30  1  0
 29 31  1  0
 31 32  2  0
 32 33  1  0
 33 34  2  0
 34 35  1  0
M  END
$$$$
