
     RDKit          3D

 35 39  0  0  0  0  0  0  0  0999 V2000
    5.4167   -5.3518   44.4788 C   0  0  0  0  0  0  0  0  0  0  0  0
    6.7217   -4.7416   43.9706 C   0  0  0  0  0  0  0  0  0  0  0  0
    7.0788   -3.6161   44.8572 C   0  0  0  0  0  0  0  0  0  0  0  0
    6.1660   -2.8712   45.3051 O   0  0  0  0  0  0  0  0  0  0  0  0
    8.4331   -3.3895   45.1927 N   0  0  0  0  0  0  0  0  0  0  0  0
    9.4376   -4.4323   44.9489 C   0  0  0  0  0  0  0  0  0  0  0  0
   10.6947   -3.7009   44.4090 C   0  0  0  0  0  0  0  0  0  0  0  0
   11.1327   -2.8899   45.5344 N   0  0  0  0  0  0  0  0  0  0  0  0
   10.2090   -2.1925   46.3929 C   0  0  0  0  0  0  0  0  0  0  0  0
    8.8506   -2.1577   45.7598 C   0  0  0  0  0  0  0  0  0  0  0  0
   12.5123   -2.7971   45.8073 C   0  0  0  0  0  0  0  0  0  0  0  0
   12.9330   -1.9614   46.7549 N   0  0  0  0  0  0  0  0  0  0  0  0
   14.1816   -1.8674   47.0705 N   0  0  0  0  0  0  0  0  0  0  0  0
   15.1342   -2.5890   46.4812 C   0  0  0  0  0  0  0  0  0  0  0  0
   16.5023   -2.3939   46.9099 C   0  0  0  0  0  0  0  0  0  0  0  0
   16.9428   -1.1066   47.2236 C   0  0  0  0  0  0  0  0  0  0  0  0
   18.2084   -0.8415   47.6644 C   0  0  0  0  0  0  0  0  0  0  0  0
   19.1075   -1.8651   47.8148 C   0  0  0  0  0  0  0  0  0  0  0  0
   18.7139   -3.1590   47.5156 C   0  0  0  0  0  0  0  0  0  0  0  0
   17.4283   -3.3988   47.0726 C   0  0  0  0  0  0  0  0  0  0  0  0
   14.7680   -3.4707   45.4915 C   0  0  0  0  0  0  0  0  0  0  0  0
   15.6810   -4.2271   44.8253 C   0  0  0  0  0  0  0  0  0  0  0  0
   15.3594   -5.1152   43.8056 C   0  0  0  0  0  0  0  0  0  0  0  0
   14.0311   -5.2195   43.4645 C   0  0  0  0  0  0  0  0  0  0  0  0
   13.5476   -6.3231   42.1835 Cl  0  0  0  0  0  0  0  0  0  0  0  0
   13.0687   -4.4539   44.1314 C   0  0  0  0  0  0  0  0  0  0  0  0
   13.4106   -3.5781   45.1426 C   0  0  0  0  0  0  0  0  0  0  0  0
   16.4248   -5.8753   43.1638 C   0  0  0  0  0  0  0  0  0  0  0  0
   16.6880   -7.1874   43.4899 C   0  0  0  0  0  0  0  0  0  0  0  0
   15.8888   -7.7673   44.4703 O   0  0  0  0  0  0  0  0  0  0  0  0
   17.7109   -7.9098   42.8673 C   0  0  0  0  0  0  0  0  0  0  0  0
   18.4844   -7.3090   41.9014 C   0  0  0  0  0  0  0  0  0  0  0  0
   18.2399   -5.9972   41.5589 C   0  0  0  0  0  0  0  0  0  0  0  0
   17.2282   -5.2986   42.1816 C   0  0  0  0  0  0  0  0  0  0  0  0
   16.9505   -4.0032   41.8794 F   0  0  0  0  0  0  0  0  0  0  0  0
  1  2  1  0
  2  3  1  0
  3  4  2  0
  3  5  1  0
  5  6  1  0
  5 10  1  0
  6  7  1  0
  7  8  1  0
  8  9  1  0
  8 11  1  0
  9 10  1  0
 11 12  2  0
 11 27  1  0
 12 13  1  0
 13 14  2  0
 14 15  1  0
 14 21  1  0
 15 16  2  0
 15 20  1  0
 16 17  1  0
 17 18  2  0
 18 19  1  0
 19 20  2  0
 21 22  1  0
 21 27  2  0
 22 23  2  0
 23 24  1  0
 23 28  1  0
 24 25  1  0
 24 26  2  0
 26 27  1  0
 28 29  2  0
 28 34  1  0
 29 30  1  0
 29 31  1  0
 31 32  2  0
 32 33  1  0
 33 34  2  0
 34 35  1  0
M  END
$$$$
