
     RDKit          3D

 35 39  0  0  0  0  0  0  0  0999 V2000
   11.3783  -10.3697   40.7899 C   0  0  0  0  0  0  0  0  0  0  0  0
   11.7652  -10.1261   42.2475 C   0  0  0  0  0  0  0  0  0  0  0  0
   10.7616   -9.2225   42.8446 C   0  0  0  0  0  0  0  0  0  0  0  0
    9.5418   -9.5350   42.7905 O   0  0  0  0  0  0  0  0  0  0  0  0
   11.1788   -8.0244   43.4680 N   0  0  0  0  0  0  0  0  0  0  0  0
   10.2336   -6.9138   43.6381 C   0  0  0  0  0  0  0  0  0  0  0  0
   10.5007   -6.3344   45.0523 C   0  0  0  0  0  0  0  0  0  0  0  0
   11.8450   -5.7875   44.9534 N   0  0  0  0  0  0  0  0  0  0  0  0
   12.9031   -6.4564   44.2395 C   0  0  0  0  0  0  0  0  0  0  0  0
   12.5058   -7.8719   43.9466 C   0  0  0  0  0  0  0  0  0  0  0  0
   12.1192   -4.5471   45.5637 C   0  0  0  0  0  0  0  0  0  0  0  0
   11.1062   -3.7862   45.9741 N   0  0  0  0  0  0  0  0  0  0  0  0
   11.3038   -2.6599   46.5739 N   0  0  0  0  0  0  0  0  0  0  0  0
   12.5197   -2.1768   46.8260 C   0  0  0  0  0  0  0  0  0  0  0  0
   12.6211   -0.8988   47.4967 C   0  0  0  0  0  0  0  0  0  0  0  0
   13.4926    0.0693   46.9939 C   0  0  0  0  0  0  0  0  0  0  0  0
   13.6247    1.3103   47.5495 C   0  0  0  0  0  0  0  0  0  0  0  0
   12.8815    1.6481   48.6505 C   0  0  0  0  0  0  0  0  0  0  0  0
   12.0033    0.7188   49.1835 C   0  0  0  0  0  0  0  0  0  0  0  0
   11.8890   -0.5280   48.6014 C   0  0  0  0  0  0  0  0  0  0  0  0
   13.6107   -2.9122   46.4262 C   0  0  0  0  0  0  0  0  0  0  0  0
   14.8846   -2.4792   46.6252 C   0  0  0  0  0  0  0  0  0  0  0  0
   16.0156   -3.1784   46.2203 C   0  0  0  0  0  0  0  0  0  0  0  0
   15.8117   -4.3787   45.5805 C   0  0  0  0  0  0  0  0  0  0  0  0
   17.1950   -5.3202   45.0394 Cl  0  0  0  0  0  0  0  0  0  0  0  0
   14.5130   -4.8500   45.3609 C   0  0  0  0  0  0  0  0  0  0  0  0
   13.4032   -4.1391   45.7725 C   0  0  0  0  0  0  0  0  0  0  0  0
   17.3328   -2.6153   46.4899 C   0  0  0  0  0  0  0  0  0  0  0  0
   18.1990   -3.1797   47.4000 C   0  0  0  0  0  0  0  0  0  0  0  0
   17.7623   -4.3224   48.0632 O   0  0  0  0  0  0  0  0  0  0  0  0
   19.4619   -2.6338   47.6509 C   0  0  0  0  0  0  0  0  0  0  0  0
   19.8655   -1.5031   46.9794 C   0  0  0  0  0  0  0  0  0  0  0  0
   19.0158   -0.9207   46.0646 C   0  0  0  0  0  0  0  0  0  0  0  0
   17.7744   -1.4706   45.8286 C   0  0  0  0  0  0  0  0  0  0  0  0
   16.9012   -0.9313   44.9379 F   0  0  0  0  0  0  0  0  0  0  0  0
  1  2  1  0
  2  3  1  0
  3  4  2  0
  3  5  1  0
  5  6  1  0
  5 10  1  0
  6  7  1  0
  7  8  1  0
  8  9  1  0
  8 11  1  0
  9 10  1  0
 11 12  2  0
 11 27  1  0
 12 13  1  0
 13 14  2  0
 14 15  1  0
 14 21  1  0
 15 16  2  0
 15 20  1  0
 16 17  1  0
 17 18  2  0
 18 19  1  0
 19 20  2  0
 21 22  1  0
 21 27  2  0
 22 23  2  0
 23 24  1  0
 23 28  1  0
 24 25  1  0
 24 26  2  0
 26 27  1  0
 28 29  2  0
 28 34  1  0
 29 30  1  0
 29 31  1  0
 31 32  2  0
 32 33  1  0
 33 34  2  0
 34 35  1  0
M  END
$$$$
