
     RDKit          3D

 35 39  0  0  0  0  0  0  0  0999 V2000
    5.2418   -3.3740   45.2925 C   0  0  0  0  0  0  0  0  0  0  0  0
    6.1565   -2.4459   44.4952 C   0  0  0  0  0  0  0  0  0  0  0  0
    7.2509   -3.2572   43.9257 C   0  0  0  0  0  0  0  0  0  0  0  0
    6.9798   -4.1467   43.0749 O   0  0  0  0  0  0  0  0  0  0  0  0
    8.5832   -3.0268   44.3382 N   0  0  0  0  0  0  0  0  0  0  0  0
    9.5694   -4.1134   44.2865 C   0  0  0  0  0  0  0  0  0  0  0  0
   10.8857   -3.4752   43.7694 C   0  0  0  0  0  0  0  0  0  0  0  0
   11.2644   -2.5560   44.8313 N   0  0  0  0  0  0  0  0  0  0  0  0
   10.3021   -1.7470   45.5357 C   0  0  0  0  0  0  0  0  0  0  0  0
    8.9962   -1.7503   44.7997 C   0  0  0  0  0  0  0  0  0  0  0  0
   12.6222   -2.4660   45.1981 C   0  0  0  0  0  0  0  0  0  0  0  0
   12.9978   -1.5414   46.0798 N   0  0  0  0  0  0  0  0  0  0  0  0
   14.2219   -1.4425   46.4789 N   0  0  0  0  0  0  0  0  0  0  0  0
   15.1922   -2.2464   46.0458 C   0  0  0  0  0  0  0  0  0  0  0  0
   16.5303   -2.0375   46.5553 C   0  0  0  0  0  0  0  0  0  0  0  0
   16.7182   -1.8544   47.9267 C   0  0  0  0  0  0  0  0  0  0  0  0
   17.9502   -1.6817   48.4911 C   0  0  0  0  0  0  0  0  0  0  0  0
   19.0698   -1.6833   47.7004 C   0  0  0  0  0  0  0  0  0  0  0  0
   18.9310   -1.8618   46.3338 C   0  0  0  0  0  0  0  0  0  0  0  0
   17.6738   -2.0350   45.7897 C   0  0  0  0  0  0  0  0  0  0  0  0
   14.8727   -3.2226   45.1315 C   0  0  0  0  0  0  0  0  0  0  0  0
   15.8083   -4.0686   44.6229 C   0  0  0  0  0  0  0  0  0  0  0  0
   15.5353   -5.0554   43.6829 C   0  0  0  0  0  0  0  0  0  0  0  0
   14.2333   -5.1655   43.2537 C   0  0  0  0  0  0  0  0  0  0  0  0
   13.8114   -6.3914   42.0654 Cl  0  0  0  0  0  0  0  0  0  0  0  0
   13.2488   -4.3091   43.7581 C   0  0  0  0  0  0  0  0  0  0  0  0
   13.5422   -3.3359   44.6926 C   0  0  0  0  0  0  0  0  0  0  0  0
   16.6207   -5.9060   43.2107 C   0  0  0  0  0  0  0  0  0  0  0  0
   16.8424   -7.1646   43.7246 C   0  0  0  0  0  0  0  0  0  0  0  0
   15.9805   -7.5985   44.7271 O   0  0  0  0  0  0  0  0  0  0  0  0
   17.8852   -7.9748   43.2640 C   0  0  0  0  0  0  0  0  0  0  0  0
   18.7210   -7.5178   42.2716 C   0  0  0  0  0  0  0  0  0  0  0  0
   18.5188   -6.2620   41.7426 C   0  0  0  0  0  0  0  0  0  0  0  0
   17.4870   -5.4755   42.2072 C   0  0  0  0  0  0  0  0  0  0  0  0
   17.2492   -4.2301   41.7183 F   0  0  0  0  0  0  0  0  0  0  0  0
  1  2  1  0
  2  3  1  0
  3  4  2  0
  3  5  1  0
  5  6  1  0
  5 10  1  0
  6  7  1  0
  7  8  1  0
  8  9  1  0
  8 11  1  0
  9 10  1  0
 11 12  2  0
 11 27  1  0
 12 13  1  0
 13 14  2  0
 14 15  1  0
 14 21  1  0
 15 16  2  0
 15 20  1  0
 16 17  1  0
 17 18  2  0
 18 19  1  0
 19 20  2  0
 21 22  1  0
 21 27  2  0
 22 23  2  0
 23 24  1  0
 23 28  1  0
 24 25  1  0
 24 26  2  0
 26 27  1  0
 28 29  2  0
 28 34  1  0
 29 30  1  0
 29 31  1  0
 31 32  2  0
 32 33  1  0
 33 34  2  0
 34 35  1  0
M  END
$$$$
