
     RDKit          3D

 35 39  0  0  0  0  0  0  0  0999 V2000
    5.8964   -3.1559   40.7244 C   0  0  0  0  0  0  0  0  0  0  0  0
    6.4957   -4.3028   41.5112 C   0  0  0  0  0  0  0  0  0  0  0  0
    7.9798   -4.1964   41.4847 C   0  0  0  0  0  0  0  0  0  0  0  0
    8.4861   -4.3048   40.3126 O   0  0  0  0  0  0  0  0  0  0  0  0
    8.7869   -3.9960   42.6172 N   0  0  0  0  0  0  0  0  0  0  0  0
    8.1162   -3.6426   43.8520 C   0  0  0  0  0  0  0  0  0  0  0  0
    9.0561   -3.1981   44.9472 C   0  0  0  0  0  0  0  0  0  0  0  0
   10.2729   -2.6001   44.4933 N   0  0  0  0  0  0  0  0  0  0  0  0
   10.7666   -2.8321   43.1643 C   0  0  0  0  0  0  0  0  0  0  0  0
   10.2053   -4.1302   42.5916 C   0  0  0  0  0  0  0  0  0  0  0  0
   10.9952   -1.7610   45.3781 C   0  0  0  0  0  0  0  0  0  0  0  0
   10.3323   -0.8583   46.1602 N   0  0  0  0  0  0  0  0  0  0  0  0
   10.9392   -0.0839   47.0290 N   0  0  0  0  0  0  0  0  0  0  0  0
   12.2885   -0.1238   47.2160 C   0  0  0  0  0  0  0  0  0  0  0  0
   12.9340    0.7384   48.1845 C   0  0  0  0  0  0  0  0  0  0  0  0
   13.9292    0.2365   49.0262 C   0  0  0  0  0  0  0  0  0  0  0  0
   14.5452    1.0159   49.9903 C   0  0  0  0  0  0  0  0  0  0  0  0
   14.1817    2.3311   50.1440 C   0  0  0  0  0  0  0  0  0  0  0  0
   13.1897    2.8830   49.3267 C   0  0  0  0  0  0  0  0  0  0  0  0
   12.6067    2.0580   48.3796 C   0  0  0  0  0  0  0  0  0  0  0  0
   13.0009   -1.0110   46.4592 C   0  0  0  0  0  0  0  0  0  0  0  0
   14.3503   -1.1231   46.5915 C   0  0  0  0  0  0  0  0  0  0  0  0
   15.1006   -2.0139   45.8432 C   0  0  0  0  0  0  0  0  0  0  0  0
   14.4619   -2.8160   44.9324 C   0  0  0  0  0  0  0  0  0  0  0  0
   15.3207   -3.9681   43.9362 Cl  0  0  0  0  0  0  0  0  0  0  0  0
   13.0893   -2.7188   44.7848 C   0  0  0  0  0  0  0  0  0  0  0  0
   12.3368   -1.8363   45.5290 C   0  0  0  0  0  0  0  0  0  0  0  0
   16.5342   -2.1034   46.0279 C   0  0  0  0  0  0  0  0  0  0  0  0
   17.1069   -3.2014   46.6690 C   0  0  0  0  0  0  0  0  0  0  0  0
   16.2039   -4.1861   47.1058 O   0  0  0  0  0  0  0  0  0  0  0  0
   18.4596   -3.3197   46.8637 C   0  0  0  0  0  0  0  0  0  0  0  0
   19.3286   -2.3325   46.4219 C   0  0  0  0  0  0  0  0  0  0  0  0
   18.7705   -1.2477   45.7886 C   0  0  0  0  0  0  0  0  0  0  0  0
   17.4115   -1.1255   45.5914 C   0  0  0  0  0  0  0  0  0  0  0  0
   16.8960   -0.0240   44.9541 F   0  0  0  0  0  0  0  0  0  0  0  0
  1  2  1  6
  2  3  1  6
  3  4  2  0
  3  5  1  0
  6  5  1  1
 10  5  1  1
  6  7  1  0
  7  8  1  6
  9  8  1  1
  8 11  1  0
  9 10  1  0
 11 12  2  0
 11 27  1  0
 12 13  1  0
 13 14  2  0
 14 15  1  0
 14 21  1  0
 15 16  2  0
 15 20  1  0
 16 17  1  0
 17 18  2  0
 18 19  1  0
 19 20  2  0
 21 22  1  0
 21 27  2  0
 22 23  2  0
 23 24  1  0
 23 28  1  0
 24 25  1  0
 24 26  2  0
 26 27  1  0
 28 29  2  0
 28 34  1  0
 29 30  1  0
 29 31  1  0
 31 32  2  0
 32 33  1  0
 33 34  2  0
 34 35  1  0
M  END
$$$$
