
     RDKit          3D

 35 39  0  0  0  0  0  0  0  0999 V2000
    5.1229   -2.8000   44.3768 C   0  0  0  0  0  0  0  0  0  0  0  0
    6.3960   -2.0110   44.6012 C   0  0  0  0  0  0  0  0  0  0  0  0
    7.5168   -2.6665   43.8740 C   0  0  0  0  0  0  0  0  0  0  0  0
    7.2983   -2.8270   42.6217 O   0  0  0  0  0  0  0  0  0  0  0  0
    8.7188   -3.0853   44.4689 N   0  0  0  0  0  0  0  0  0  0  0  0
    9.0073   -2.5853   45.7980 C   0  0  0  0  0  0  0  0  0  0  0  0
   10.4165   -2.8695   46.2604 C   0  0  0  0  0  0  0  0  0  0  0  0
   11.3851   -2.9786   45.2145 N   0  0  0  0  0  0  0  0  0  0  0  0
   10.9932   -3.2695   43.8634 C   0  0  0  0  0  0  0  0  0  0  0  0
    9.6361   -3.9659   43.8259 C   0  0  0  0  0  0  0  0  0  0  0  0
   12.7546   -2.7902   45.5271 C   0  0  0  0  0  0  0  0  0  0  0  0
   13.1277   -1.8191   46.4125 N   0  0  0  0  0  0  0  0  0  0  0  0
   14.3739   -1.6231   46.7750 N   0  0  0  0  0  0  0  0  0  0  0  0
   15.3970   -2.3813   46.2897 C   0  0  0  0  0  0  0  0  0  0  0  0
   16.7637   -2.1478   46.7091 C   0  0  0  0  0  0  0  0  0  0  0  0
   17.7906   -2.0742   45.7654 C   0  0  0  0  0  0  0  0  0  0  0  0
   19.1144   -1.8897   46.1254 C   0  0  0  0  0  0  0  0  0  0  0  0
   19.4548   -1.7729   47.4505 C   0  0  0  0  0  0  0  0  0  0  0  0
   18.4644   -1.8400   48.4360 C   0  0  0  0  0  0  0  0  0  0  0  0
   17.1570   -2.0263   48.0194 C   0  0  0  0  0  0  0  0  0  0  0  0
   15.0791   -3.3690   45.4004 C   0  0  0  0  0  0  0  0  0  0  0  0
   16.0386   -4.1789   44.8767 C   0  0  0  0  0  0  0  0  0  0  0  0
   15.7497   -5.1904   43.9768 C   0  0  0  0  0  0  0  0  0  0  0  0
   14.4466   -5.3864   43.5967 C   0  0  0  0  0  0  0  0  0  0  0  0
   13.9803   -6.6327   42.4622 Cl  0  0  0  0  0  0  0  0  0  0  0  0
   13.4556   -4.5746   44.1202 C   0  0  0  0  0  0  0  0  0  0  0  0
   13.7367   -3.5682   45.0186 C   0  0  0  0  0  0  0  0  0  0  0  0
   16.8053   -6.0334   43.4549 C   0  0  0  0  0  0  0  0  0  0  0  0
   17.1829   -7.2014   44.1166 C   0  0  0  0  0  0  0  0  0  0  0  0
   16.4728   -7.4855   45.2959 O   0  0  0  0  0  0  0  0  0  0  0  0
   18.1791   -8.0229   43.6536 C   0  0  0  0  0  0  0  0  0  0  0  0
   18.8639   -7.7186   42.4861 C   0  0  0  0  0  0  0  0  0  0  0  0
   18.4962   -6.5688   41.8287 C   0  0  0  0  0  0  0  0  0  0  0  0
   17.4956   -5.7408   42.2912 C   0  0  0  0  0  0  0  0  0  0  0  0
   17.1607   -4.6008   41.6030 F   0  0  0  0  0  0  0  0  0  0  0  0
  1  2  1  6
  2  3  1  6
  3  4  2  0
  3  5  1  0
  6  5  1  1
 10  5  1  1
  6  7  1  0
  7  8  1  6
  9  8  1  1
  8 11  1  0
  9 10  1  0
 11 12  2  0
 11 27  1  0
 12 13  1  0
 13 14  2  0
 14 15  1  0
 14 21  1  0
 15 16  2  0
 15 20  1  0
 16 17  1  0
 17 18  2  0
 18 19  1  0
 19 20  2  0
 21 22  1  0
 21 27  2  0
 22 23  2  0
 23 24  1  0
 23 28  1  0
 24 25  1  0
 24 26  2  0
 26 27  1  0
 28 29  2  0
 28 34  1  0
 29 30  1  0
 29 31  1  0
 31 32  2  0
 32 33  1  0
 33 34  2  0
 34 35  1  0
M  END
$$$$
