
     RDKit          3D

 35 39  0  0  0  0  0  0  0  0999 V2000
    5.2417   -3.7634   45.5343 C   0  0  0  0  0  0  0  0  0  0  0  0
    6.3031   -2.6859   45.4574 C   0  0  0  0  0  0  0  0  0  0  0  0
    7.3465   -3.0909   44.4767 C   0  0  0  0  0  0  0  0  0  0  0  0
    6.9316   -3.9187   43.5911 O   0  0  0  0  0  0  0  0  0  0  0  0
    8.6741   -2.6311   44.4868 N   0  0  0  0  0  0  0  0  0  0  0  0
    9.6221   -3.3313   43.6438 C   0  0  0  0  0  0  0  0  0  0  0  0
   11.0601   -2.9482   43.8998 C   0  0  0  0  0  0  0  0  0  0  0  0
   11.3401   -2.5074   45.2308 N   0  0  0  0  0  0  0  0  0  0  0  0
   10.2964   -2.0204   46.0894 C   0  0  0  0  0  0  0  0  0  0  0  0
    9.1052   -1.5249   45.2748 C   0  0  0  0  0  0  0  0  0  0  0  0
   12.6755   -2.5602   45.7029 C   0  0  0  0  0  0  0  0  0  0  0  0
   13.0184   -1.9207   46.8603 N   0  0  0  0  0  0  0  0  0  0  0  0
   14.2264   -1.9671   47.3714 N   0  0  0  0  0  0  0  0  0  0  0  0
   15.2372   -2.6633   46.7790 C   0  0  0  0  0  0  0  0  0  0  0  0
   16.5609   -2.7026   47.3657 C   0  0  0  0  0  0  0  0  0  0  0  0
   17.2320   -3.9181   47.5169 C   0  0  0  0  0  0  0  0  0  0  0  0
   18.4817   -4.0050   48.1061 C   0  0  0  0  0  0  0  0  0  0  0  0
   19.1033   -2.8703   48.5662 C   0  0  0  0  0  0  0  0  0  0  0  0
   18.4741   -1.6274   48.4394 C   0  0  0  0  0  0  0  0  0  0  0  0
   17.2248   -1.5990   47.8429 C   0  0  0  0  0  0  0  0  0  0  0  0
   14.9480   -3.3233   45.6178 C   0  0  0  0  0  0  0  0  0  0  0  0
   15.8961   -4.0513   44.9682 C   0  0  0  0  0  0  0  0  0  0  0  0
   15.6351   -4.7342   43.7927 C   0  0  0  0  0  0  0  0  0  0  0  0
   14.3727   -4.6769   43.2598 C   0  0  0  0  0  0  0  0  0  0  0  0
   13.9448   -5.4993   41.7773 Cl  0  0  0  0  0  0  0  0  0  0  0  0
   13.3936   -3.9436   43.9070 C   0  0  0  0  0  0  0  0  0  0  0  0
   13.6466   -3.2644   45.0790 C   0  0  0  0  0  0  0  0  0  0  0  0
   16.6757   -5.5044   43.1437 C   0  0  0  0  0  0  0  0  0  0  0  0
   17.1191   -6.7101   43.6864 C   0  0  0  0  0  0  0  0  0  0  0  0
   16.4888   -7.1052   44.8790 O   0  0  0  0  0  0  0  0  0  0  0  0
   18.1035   -7.4652   43.1012 C   0  0  0  0  0  0  0  0  0  0  0  0
   18.7088   -7.0515   41.9234 C   0  0  0  0  0  0  0  0  0  0  0  0
   18.2760   -5.8642   41.3829 C   0  0  0  0  0  0  0  0  0  0  0  0
   17.2870   -5.1026   41.9684 C   0  0  0  0  0  0  0  0  0  0  0  0
   16.8852   -3.9218   41.3947 F   0  0  0  0  0  0  0  0  0  0  0  0
  1  2  1  6
  2  3  1  6
  3  4  2  0
  3  5  1  0
  6  5  1  1
 10  5  1  1
  6  7  1  0
  7  8  1  6
  9  8  1  1
  8 11  1  0
  9 10  1  0
 11 12  2  0
 11 27  1  0
 12 13  1  0
 13 14  2  0
 14 15  1  0
 14 21  1  0
 15 16  2  0
 15 20  1  0
 16 17  1  0
 17 18  2  0
 18 19  1  0
 19 20  2  0
 21 22  1  0
 21 27  2  0
 22 23  2  0
 23 24  1  0
 23 28  1  0
 24 25  1  0
 24 26  2  0
 26 27  1  0
 28 29  2  0
 28 34  1  0
 29 30  1  0
 29 31  1  0
 31 32  2  0
 32 33  1  0
 33 34  2  0
 34 35  1  0
M  END
$$$$
