
     RDKit          3D

 35 39  0  0  0  0  0  0  0  0999 V2000
    6.4418   -3.0444   43.9570 C   0  0  0  0  0  0  0  0  0  0  0  0
    6.7872   -3.3597   45.3975 C   0  0  0  0  0  0  0  0  0  0  0  0
    7.3308   -4.7424   45.4827 C   0  0  0  0  0  0  0  0  0  0  0  0
    6.4534   -5.6566   45.2930 O   0  0  0  0  0  0  0  0  0  0  0  0
    8.6747   -5.0579   45.7449 N   0  0  0  0  0  0  0  0  0  0  0  0
    9.6027   -3.9510   45.8599 C   0  0  0  0  0  0  0  0  0  0  0  0
   11.0519   -4.3746   45.8859 C   0  0  0  0  0  0  0  0  0  0  0  0
   11.3371   -5.5950   45.1977 N   0  0  0  0  0  0  0  0  0  0  0  0
   10.3053   -6.5579   44.9297 C   0  0  0  0  0  0  0  0  0  0  0  0
    9.1403   -6.3955   45.9016 C   0  0  0  0  0  0  0  0  0  0  0  0
   12.6655   -5.8472   44.7727 C   0  0  0  0  0  0  0  0  0  0  0  0
   12.9307   -6.8979   43.9411 N   0  0  0  0  0  0  0  0  0  0  0  0
   14.1313   -7.1583   43.4791 N   0  0  0  0  0  0  0  0  0  0  0  0
   15.2121   -6.3921   43.7986 C   0  0  0  0  0  0  0  0  0  0  0  0
   16.5263   -6.6979   43.2719 C   0  0  0  0  0  0  0  0  0  0  0  0
   17.0357   -7.9960   43.3510 C   0  0  0  0  0  0  0  0  0  0  0  0
   18.3007   -8.3234   42.8941 C   0  0  0  0  0  0  0  0  0  0  0  0
   19.1017   -7.3553   42.3402 C   0  0  0  0  0  0  0  0  0  0  0  0
   18.6394   -6.0391   42.2376 C   0  0  0  0  0  0  0  0  0  0  0  0
   17.3668   -5.7677   42.7110 C   0  0  0  0  0  0  0  0  0  0  0  0
   15.0025   -5.3261   44.6276 C   0  0  0  0  0  0  0  0  0  0  0  0
   16.0247   -4.5034   44.9869 C   0  0  0  0  0  0  0  0  0  0  0  0
   15.8455   -3.4136   45.8215 C   0  0  0  0  0  0  0  0  0  0  0  0
   14.5900   -3.1501   46.3064 C   0  0  0  0  0  0  0  0  0  0  0  0
   14.2620   -1.8022   47.3707 Cl  0  0  0  0  0  0  0  0  0  0  0  0
   13.5364   -3.9738   45.9504 C   0  0  0  0  0  0  0  0  0  0  0  0
   13.7081   -5.0582   45.1175 C   0  0  0  0  0  0  0  0  0  0  0  0
   16.9639   -2.5609   46.1671 C   0  0  0  0  0  0  0  0  0  0  0  0
   17.0862   -1.2832   45.6218 C   0  0  0  0  0  0  0  0  0  0  0  0
   16.0625   -0.9021   44.7372 O   0  0  0  0  0  0  0  0  0  0  0  0
   18.1321   -0.4487   45.9240 C   0  0  0  0  0  0  0  0  0  0  0  0
   19.1292   -0.8504   46.8011 C   0  0  0  0  0  0  0  0  0  0  0  0
   19.0144   -2.1085   47.3425 C   0  0  0  0  0  0  0  0  0  0  0  0
   17.9646   -2.9499   47.0409 C   0  0  0  0  0  0  0  0  0  0  0  0
   17.8893   -4.1998   47.6043 F   0  0  0  0  0  0  0  0  0  0  0  0
  1  2  1  6
  2  3  1  6
  3  4  2  0
  3  5  1  0
  6  5  1  1
 10  5  1  1
  6  7  1  0
  7  8  1  6
  9  8  1  1
  8 11  1  0
  9 10  1  0
 11 12  2  0
 11 27  1  0
 12 13  1  0
 13 14  2  0
 14 15  1  0
 14 21  1  0
 15 16  2  0
 15 20  1  0
 16 17  1  0
 17 18  2  0
 18 19  1  0
 19 20  2  0
 21 22  1  0
 21 27  2  0
 22 23  2  0
 23 24  1  0
 23 28  1  0
 24 25  1  0
 24 26  2  0
 26 27  1  0
 28 29  2  0
 28 34  1  0
 29 30  1  0
 29 31  1  0
 31 32  2  0
 32 33  1  0
 33 34  2  0
 34 35  1  0
M  END
$$$$
