
     RDKit          3D

 35 39  0  0  0  0  0  0  0  0999 V2000
    5.3470   -4.9729   41.6362 C   0  0  0  0  0  0  0  0  0  0  0  0
    6.2004   -3.7292   41.3940 C   0  0  0  0  0  0  0  0  0  0  0  0
    7.6208   -4.1293   41.4450 C   0  0  0  0  0  0  0  0  0  0  0  0
    8.0377   -5.0227   40.6598 O   0  0  0  0  0  0  0  0  0  0  0  0
    8.4922   -3.5076   42.3683 N   0  0  0  0  0  0  0  0  0  0  0  0
    8.0610   -2.3073   43.0959 C   0  0  0  0  0  0  0  0  0  0  0  0
    8.5783   -2.4761   44.5488 C   0  0  0  0  0  0  0  0  0  0  0  0
   10.0255   -2.4370   44.4070 N   0  0  0  0  0  0  0  0  0  0  0  0
   10.7153   -3.0831   43.3192 C   0  0  0  0  0  0  0  0  0  0  0  0
    9.7881   -4.0288   42.6169 C   0  0  0  0  0  0  0  0  0  0  0  0
   10.7812   -1.7246   45.3598 C   0  0  0  0  0  0  0  0  0  0  0  0
   10.1553   -0.9203   46.2169 N   0  0  0  0  0  0  0  0  0  0  0  0
   10.7965   -0.2758   47.1339 N   0  0  0  0  0  0  0  0  0  0  0  0
   12.1166   -0.3634   47.2926 C   0  0  0  0  0  0  0  0  0  0  0  0
   12.7302    0.4118   48.3491 C   0  0  0  0  0  0  0  0  0  0  0  0
   13.6733   -0.1943   49.1815 C   0  0  0  0  0  0  0  0  0  0  0  0
   14.3203    0.4748   50.1815 C   0  0  0  0  0  0  0  0  0  0  0  0
   14.0517    1.8008   50.4010 C   0  0  0  0  0  0  0  0  0  0  0  0
   13.1228    2.4434   49.5990 C   0  0  0  0  0  0  0  0  0  0  0  0
   12.4840    1.7433   48.5948 C   0  0  0  0  0  0  0  0  0  0  0  0
   12.8249   -1.1757   46.4386 C   0  0  0  0  0  0  0  0  0  0  0  0
   14.1766   -1.3026   46.5189 C   0  0  0  0  0  0  0  0  0  0  0  0
   14.9353   -2.0950   45.6655 C   0  0  0  0  0  0  0  0  0  0  0  0
   14.2581   -2.7837   44.6863 C   0  0  0  0  0  0  0  0  0  0  0  0
   15.1508   -3.8071   43.5690 Cl  0  0  0  0  0  0  0  0  0  0  0  0
   12.8677   -2.6727   44.5782 C   0  0  0  0  0  0  0  0  0  0  0  0
   12.1334   -1.8801   45.4379 C   0  0  0  0  0  0  0  0  0  0  0  0
   16.3801   -2.1546   45.8488 C   0  0  0  0  0  0  0  0  0  0  0  0
   17.0071   -3.2623   46.3752 C   0  0  0  0  0  0  0  0  0  0  0  0
   16.1977   -4.3363   46.7324 O   0  0  0  0  0  0  0  0  0  0  0  0
   18.3944   -3.3116   46.5456 C   0  0  0  0  0  0  0  0  0  0  0  0
   19.1681   -2.2336   46.1830 C   0  0  0  0  0  0  0  0  0  0  0  0
   18.5631   -1.1144   45.6547 C   0  0  0  0  0  0  0  0  0  0  0  0
   17.1949   -1.0811   45.4931 C   0  0  0  0  0  0  0  0  0  0  0  0
   16.5528    0.0003   44.9785 F   0  0  0  0  0  0  0  0  0  0  0  0
  1  2  1  0
  2  3  1  0
  3  4  2  0
  3  5  1  0
  5  6  1  0
  5 10  1  0
  6  7  1  0
  7  8  1  0
  8  9  1  0
  8 11  1  0
  9 10  1  0
 11 12  2  0
 11 27  1  0
 12 13  1  0
 13 14  2  0
 14 15  1  0
 14 21  1  0
 15 16  2  0
 15 20  1  0
 16 17  1  0
 17 18  2  0
 18 19  1  0
 19 20  2  0
 21 22  1  0
 21 27  2  0
 22 23  2  0
 23 24  1  0
 23 28  1  0
 24 25  1  0
 24 26  2  0
 26 27  1  0
 28 29  2  0
 28 34  1  0
 29 30  1  0
 29 31  1  0
 31 32  2  0
 32 33  1  0
 33 34  2  0
 34 35  1  0
M  END
$$$$
