
     RDKit          3D

 12 12  0  0  0  0  0  0  0  0999 V2000
   -7.4552  -33.3755  -16.5095 C   0  0  1  0  0  0  0  0  0  0  0  0
   -7.5727  -32.2411  -15.5382 C   0  0  1  0  0  0  0  0  0  0  0  0
   -7.2510  -32.7657  -14.1654 C   0  0  2  0  0  0  0  0  0  0  0  0
   -5.9582  -33.5158  -14.1469 C   0  0  1  0  0  0  0  0  0  0  0  0
   -5.6390  -34.2863  -15.3554 C   0  0  1  0  0  0  0  0  0  0  0  0
   -5.6875  -35.7812  -14.9913 C   0  0  0  0  0  0  0  0  0  0  0  0
   -7.6064  -32.8269  -17.7922 O   0  0  0  0  0  0  0  0  0  0  0  0
   -6.8100  -31.1390  -15.8829 O   0  0  0  0  0  0  0  0  0  0  0  0
   -8.3357  -33.5075  -13.7159 O   0  0  0  0  0  0  0  0  0  0  0  0
   -4.9444  -32.5693  -13.8659 O   0  0  0  0  0  0  0  0  0  0  0  0
   -6.3537  -34.1142  -16.4671 O   0  0  0  0  0  0  0  0  0  0  0  0
   -5.5310  -36.5350  -16.1502 O   0  0  0  0  0  0  0  0  0  0  0  0
  1  2  1  0
  1  7  1  6
 11  1  1  0
  3  2  1  0
  2  8  1  6
  4  3  1  0
  3  9  1  6
  5  4  1  0
  4 10  1  6
  6  5  1  0
  5 11  1  6
  6 12  1  6
M  END
$$$$
