
     RDKit          3D

 12 12  0  0  0  0  0  0  0  0999 V2000
   -6.6356  -34.4281  -16.1294 C   0  0  1  0  0  0  0  0  0  0  0  0
   -7.8393  -33.6848  -15.6366 C   0  0  1  0  0  0  0  0  0  0  0  0
   -7.4936  -33.0609  -14.3120 C   0  0  2  0  0  0  0  0  0  0  0  0
   -6.2214  -32.2793  -14.3820 C   0  0  1  0  0  0  0  0  0  0  0  0
   -5.1822  -32.8117  -15.2723 C   0  0  1  0  0  0  0  0  0  0  0  0
   -4.0061  -33.2845  -14.3988 C   0  0  0  0  0  0  0  0  0  0  0  0
   -6.9344  -34.8651  -17.4290 O   0  0  0  0  0  0  0  0  0  0  0  0
   -8.3326  -32.7680  -16.5483 O   0  0  0  0  0  0  0  0  0  0  0  0
   -7.4849  -34.0600  -13.3474 O   0  0  0  0  0  0  0  0  0  0  0  0
   -6.5763  -30.9593  -14.7486 O   0  0  0  0  0  0  0  0  0  0  0  0
   -5.4722  -33.7899  -16.1298 O   0  0  0  0  0  0  0  0  0  0  0  0
   -2.9434  -32.3999  -14.5526 O   0  0  0  0  0  0  0  0  0  0  0  0
  1  2  1  0
  1  7  1  6
 11  1  1  0
  3  2  1  0
  2  8  1  6
  4  3  1  0
  3  9  1  1
  5  4  1  0
  4 10  1  6
  6  5  1  0
  5 11  1  1
  6 12  1  6
M  END
$$$$
