
     RDKit          3D

 12 12  0  0  0  0  0  0  0  0999 V2000
   -6.4362  -32.6845  -16.1565 C   0  0  1  0  0  0  0  0  0  0  0  0
   -7.2684  -33.6092  -15.3220 C   0  0  1  0  0  0  0  0  0  0  0  0
   -7.1192  -33.2011  -13.8816 C   0  0  2  0  0  0  0  0  0  0  0  0
   -7.3679  -31.7396  -13.6904 C   0  0  1  0  0  0  0  0  0  0  0  0
   -6.9359  -30.8604  -14.7843 C   0  0  1  0  0  0  0  0  0  0  0  0
   -5.7683  -30.0002  -14.2683 C   0  0  0  0  0  0  0  0  0  0  0  0
   -6.7159  -32.9881  -17.4977 O   0  0  0  0  0  0  0  0  0  0  0  0
   -8.5904  -33.6767  -15.7255 O   0  0  0  0  0  0  0  0  0  0  0  0
   -5.8726  -33.6203  -13.4357 O   0  0  0  0  0  0  0  0  0  0  0  0
   -8.7529  -31.5936  -13.4388 O   0  0  0  0  0  0  0  0  0  0  0  0
   -6.5726  -31.3798  -15.9567 O   0  0  0  0  0  0  0  0  0  0  0  0
   -5.5680  -28.9368  -15.1427 O   0  0  0  0  0  0  0  0  0  0  0  0
  1  2  1  0
  1  7  1  6
 11  1  1  0
  3  2  1  0
  2  8  1  6
  4  3  1  0
  3  9  1  6
  5  4  1  0
  4 10  1  6
  6  5  1  0
  5 11  1  6
  6 12  1  6
M  END
$$$$
