
     RDKit          3D

 12 12  0  0  0  0  0  0  0  0999 V2000
   -6.3173  -34.1260  -14.2366 C   0  0  1  0  0  0  0  0  0  0  0  0
   -6.6631  -32.7165  -13.8339 C   0  0  1  0  0  0  0  0  0  0  0  0
   -7.6387  -32.1630  -14.8177 C   0  0  2  0  0  0  0  0  0  0  0  0
   -6.9673  -32.2230  -16.1966 C   0  0  1  0  0  0  0  0  0  0  0  0
   -6.7151  -33.6818  -16.4322 C   0  0  1  0  0  0  0  0  0  0  0  0
   -6.1765  -33.9917  -17.7971 C   0  0  0  0  0  0  0  0  0  0  0  0
   -7.4757  -34.8930  -14.3825 O   0  0  0  0  0  0  0  0  0  0  0  0
   -7.1166  -32.6658  -12.5291 O   0  0  0  0  0  0  0  0  0  0  0  0
   -8.1337  -30.9288  -14.5242 O   0  0  0  0  0  0  0  0  0  0  0  0
   -7.7734  -31.6290  -17.1349 O   0  0  0  0  0  0  0  0  0  0  0  0
   -5.7198  -34.0736  -15.5081 O   0  0  0  0  0  0  0  0  0  0  0  0
   -5.8136  -35.3189  -17.9478 O   0  0  0  0  0  0  0  0  0  0  0  0
  1  2  1  0
  1  7  1  6
 11  1  1  0
  3  2  1  0
  2  8  1  1
  4  3  1  0
  3  9  1  1
  5  4  1  0
  4 10  1  6
  5  6  1  6
  5 11  1  0
 12  6  1  0
M  END
$$$$
