
     RDKit          3D

 12 12  0  0  0  0  0  0  0  0999 V2000
   -6.0725  -31.9779  -16.2501 C   0  0  1  0  0  0  0  0  0  0  0  0
   -6.6218  -31.1692  -15.1151 C   0  0  1  0  0  0  0  0  0  0  0  0
   -7.5922  -32.0306  -14.3537 C   0  0  2  0  0  0  0  0  0  0  0  0
   -6.9947  -33.3519  -13.9908 C   0  0  1  0  0  0  0  0  0  0  0  0
   -6.0587  -33.9288  -14.9640 C   0  0  1  0  0  0  0  0  0  0  0  0
   -6.7092  -35.1920  -15.5563 C   0  0  0  0  0  0  0  0  0  0  0  0
   -5.0619  -31.2067  -16.8441 O   0  0  0  0  0  0  0  0  0  0  0  0
   -5.6433  -30.6199  -14.3052 O   0  0  0  0  0  0  0  0  0  0  0  0
   -8.7629  -32.1297  -15.0943 O   0  0  0  0  0  0  0  0  0  0  0  0
   -6.3758  -33.1841  -12.7292 O   0  0  0  0  0  0  0  0  0  0  0  0
   -5.6066  -33.1900  -15.9769 O   0  0  0  0  0  0  0  0  0  0  0  0
   -5.9063  -35.6754  -16.5845 O   0  0  0  0  0  0  0  0  0  0  0  0
  1  2  1  0
  1  7  1  1
 11  1  1  0
  3  2  1  0
  2  8  1  1
  4  3  1  0
  3  9  1  6
  5  4  1  0
  4 10  1  1
  6  5  1  0
  5 11  1  6
  6 12  1  6
M  END
$$$$
