
     RDKit          3D

 12 12  0  0  0  0  0  0  0  0999 V2000
   -6.3064  -33.4107  -16.2185 C   0  0  1  0  0  0  0  0  0  0  0  0
   -7.1315  -34.1919  -15.2424 C   0  0  1  0  0  0  0  0  0  0  0  0
   -7.0840  -33.4823  -13.9166 C   0  0  2  0  0  0  0  0  0  0  0  0
   -7.4221  -32.0325  -14.0509 C   0  0  1  0  0  0  0  0  0  0  0  0
   -6.9792  -31.3759  -15.2874 C   0  0  1  0  0  0  0  0  0  0  0  0
   -5.8903  -30.3527  -14.9173 C   0  0  0  0  0  0  0  0  0  0  0  0
   -6.4951  -34.0061  -17.4751 O   0  0  0  0  0  0  0  0  0  0  0  0
   -8.4237  -34.4282  -15.6776 O   0  0  0  0  0  0  0  0  0  0  0  0
   -5.8427  -33.7170  -13.3397 O   0  0  0  0  0  0  0  0  0  0  0  0
   -8.8247  -31.9272  -13.8946 O   0  0  0  0  0  0  0  0  0  0  0  0
   -6.5244  -32.1047  -16.3064 O   0  0  0  0  0  0  0  0  0  0  0  0
   -5.6984  -29.4874  -15.9897 O   0  0  0  0  0  0  0  0  0  0  0  0
  1  2  1  0
  1  7  1  6
 11  1  1  0
  3  2  1  0
  2  8  1  6
  4  3  1  0
  3  9  1  6
  5  4  1  0
  4 10  1  6
  6  5  1  0
  5 11  1  6
  6 12  1  6
M  END
$$$$
