
     RDKit          3D

 12 12  0  0  0  0  0  0  0  0999 V2000
   -6.9973  -31.4576  -16.0695 C   0  0  1  0  0  0  0  0  0  0  0  0
   -7.1262  -30.6574  -14.8097 C   0  0  1  0  0  0  0  0  0  0  0  0
   -7.2256  -31.6163  -13.6547 C   0  0  2  0  0  0  0  0  0  0  0  0
   -6.1281  -32.6308  -13.6797 C   0  0  1  0  0  0  0  0  0  0  0  0
   -5.6865  -33.0747  -15.0079 C   0  0  1  0  0  0  0  0  0  0  0  0
   -6.0854  -34.5525  -15.1709 C   0  0  0  0  0  0  0  0  0  0  0  0
   -6.7508  -30.5438  -17.1055 O   0  0  0  0  0  0  0  0  0  0  0  0
   -6.1192  -29.7227  -14.6448 O   0  0  0  0  0  0  0  0  0  0  0  0
   -8.4997  -32.1692  -13.6543 O   0  0  0  0  0  0  0  0  0  0  0  0
   -5.0512  -32.0812  -12.9442 O   0  0  0  0  0  0  0  0  0  0  0  0
   -6.0861  -32.4218  -16.0990 O   0  0  0  0  0  0  0  0  0  0  0  0
   -5.4490  -35.0723  -16.2936 O   0  0  0  0  0  0  0  0  0  0  0  0
  1  2  1  0
  1  7  1  6
 11  1  1  0
  3  2  1  0
  2  8  1  1
  4  3  1  0
  3  9  1  6
  5  4  1  0
  4 10  1  6
  6  5  1  0
  5 11  1  6
  6 12  1  6
M  END
$$$$
