
     RDKit          3D

 12 12  0  0  0  0  0  0  0  0999 V2000
   -6.3000  -33.2042  -13.6081 C   0  0  1  0  0  0  0  0  0  0  0  0
   -6.6597  -31.7534  -13.7937 C   0  0  1  0  0  0  0  0  0  0  0  0
   -7.6603  -31.6452  -14.8950 C   0  0  2  0  0  0  0  0  0  0  0  0
   -7.0124  -32.2462  -16.1498 C   0  0  1  0  0  0  0  0  0  0  0  0
   -6.7425  -33.6761  -15.7893 C   0  0  1  0  0  0  0  0  0  0  0  0
   -6.2233  -34.5015  -16.9286 C   0  0  0  0  0  0  0  0  0  0  0  0
   -7.4492  -33.9734  -13.4104 O   0  0  0  0  0  0  0  0  0  0  0  0
   -7.0910  -31.1890  -12.6079 O   0  0  0  0  0  0  0  0  0  0  0  0
   -8.1685  -30.3998  -15.1076 O   0  0  0  0  0  0  0  0  0  0  0  0
   -7.8435  -32.0816  -17.2293 O   0  0  0  0  0  0  0  0  0  0  0  0
   -5.7256  -33.6598  -14.8077 O   0  0  0  0  0  0  0  0  0  0  0  0
   -5.8118  -35.7644  -16.5393 O   0  0  0  0  0  0  0  0  0  0  0  0
  1  2  1  0
  1  7  1  6
 11  1  1  0
  3  2  1  0
  2  8  1  1
  4  3  1  0
  3  9  1  6
  5  4  1  0
  4 10  1  6
  5  6  1  6
  5 11  1  0
 12  6  1  0
M  END
$$$$
