
     RDKit          3D

 12 12  0  0  0  0  0  0  0  0999 V2000
   -7.2553  -32.8556  -16.2750 C   0  0  1  0  0  0  0  0  0  0  0  0
   -7.4933  -31.8246  -15.2146 C   0  0  1  0  0  0  0  0  0  0  0  0
   -7.4079  -32.5035  -13.8747 C   0  0  2  0  0  0  0  0  0  0  0  0
   -6.1559  -33.3088  -13.7395 C   0  0  1  0  0  0  0  0  0  0  0  0
   -5.6711  -33.9626  -14.9617 C   0  0  1  0  0  0  0  0  0  0  0  0
   -5.8184  -35.4836  -14.7762 C   0  0  0  0  0  0  0  0  0  0  0  0
   -7.1860  -32.1699  -17.4973 O   0  0  0  0  0  0  0  0  0  0  0  0
   -6.6551  -30.7280  -15.3139 O   0  0  0  0  0  0  0  0  0  0  0  0
   -8.5704  -33.2387  -13.6826 O   0  0  0  0  0  0  0  0  0  0  0  0
   -5.1732  -32.4433  -13.2029 O   0  0  0  0  0  0  0  0  0  0  0  0
   -6.1955  -33.6434  -16.1446 O   0  0  0  0  0  0  0  0  0  0  0  0
   -5.0921  -36.1334  -15.7691 O   0  0  0  0  0  0  0  0  0  0  0  0
  1  2  1  0
  1  7  1  6
 11  1  1  0
  3  2  1  0
  2  8  1  1
  4  3  1  0
  3  9  1  6
  5  4  1  0
  4 10  1  6
  6  5  1  0
  5 11  1  6
  6 12  1  6
M  END
$$$$
