
     RDKit          3D

 12 12  0  0  0  0  0  0  0  0999 V2000
   -8.0625  -34.1032  -15.9883 C   0  0  1  0  0  0  0  0  0  0  0  0
   -8.1442  -33.3372  -14.6940 C   0  0  1  0  0  0  0  0  0  0  0  0
   -6.8501  -32.6280  -14.4747 C   0  0  2  0  0  0  0  0  0  0  0  0
   -5.7514  -33.6993  -14.4452 C   0  0  1  0  0  0  0  0  0  0  0  0
   -5.8072  -34.3370  -15.8007 C   0  0  1  0  0  0  0  0  0  0  0  0
   -4.7179  -35.3382  -16.0455 C   0  0  0  0  0  0  0  0  0  0  0  0
   -7.6923  -33.2574  -17.0366 O   0  0  0  0  0  0  0  0  0  0  0  0
   -9.2380  -32.4922  -14.6808 O   0  0  0  0  0  0  0  0  0  0  0  0
   -6.8093  -31.7993  -13.3949 O   0  0  0  0  0  0  0  0  0  0  0  0
   -4.5444  -33.1222  -14.1401 O   0  0  0  0  0  0  0  0  0  0  0  0
   -7.0280  -35.0469  -15.8628 O   0  0  0  0  0  0  0  0  0  0  0  0
   -4.7882  -36.4326  -15.2009 O   0  0  0  0  0  0  0  0  0  0  0  0
  1  2  1  0
  1  7  1  6
 11  1  1  0
  3  2  1  0
  2  8  1  6
  4  3  1  0
  3  9  1  1
  5  4  1  0
  4 10  1  6
  5  6  1  1
  5 11  1  0
 12  6  1  0
M  END
$$$$
