
     RDKit          3D

 12 12  0  0  0  0  0  0  0  0999 V2000
   -7.5843  -33.4258  -16.1853 C   0  0  1  0  0  0  0  0  0  0  0  0
   -7.9800  -32.6229  -14.9739 C   0  0  1  0  0  0  0  0  0  0  0  0
   -6.7490  -32.2794  -14.2040 C   0  0  2  0  0  0  0  0  0  0  0  0
   -6.0732  -33.6043  -13.8251 C   0  0  1  0  0  0  0  0  0  0  0  0
   -5.7405  -34.2490  -15.1369 C   0  0  1  0  0  0  0  0  0  0  0  0
   -4.9443  -35.5131  -15.0071 C   0  0  0  0  0  0  0  0  0  0  0  0
   -6.6181  -32.7459  -16.9306 O   0  0  0  0  0  0  0  0  0  0  0  0
   -8.7271  -31.5157  -15.3296 O   0  0  0  0  0  0  0  0  0  0  0  0
   -6.9344  -31.4561  -13.1353 O   0  0  0  0  0  0  0  0  0  0  0  0
   -4.9874  -33.3619  -13.0217 O   0  0  0  0  0  0  0  0  0  0  0  0
   -6.9706  -34.6074  -15.7339 O   0  0  0  0  0  0  0  0  0  0  0  0
   -4.8230  -36.2022  -16.2014 O   0  0  0  0  0  0  0  0  0  0  0  0
  1  2  1  0
  1  7  1  6
 11  1  1  0
  3  2  1  0
  2  8  1  6
  4  3  1  0
  3  9  1  1
  5  4  1  0
  4 10  1  1
  5  6  1  1
  5 11  1  0
 12  6  1  0
M  END
$$$$
