
     RDKit          3D

 12 12  0  0  0  0  0  0  0  0999 V2000
   -7.6144  -32.7901  -16.3175 C   0  0  1  0  0  0  0  0  0  0  0  0
   -8.0281  -32.3626  -14.9337 C   0  0  1  0  0  0  0  0  0  0  0  0
   -6.8034  -32.1928  -14.0988 C   0  0  2  0  0  0  0  0  0  0  0  0
   -6.0738  -33.5431  -14.0937 C   0  0  1  0  0  0  0  0  0  0  0  0
   -5.7300  -33.7936  -15.5312 C   0  0  1  0  0  0  0  0  0  0  0  0
   -4.8849  -35.0131  -15.7492 C   0  0  0  0  0  0  0  0  0  0  0  0
   -6.6824  -31.8958  -16.8494 O   0  0  0  0  0  0  0  0  0  0  0  0
   -8.8205  -31.2307  -14.9756 O   0  0  0  0  0  0  0  0  0  0  0  0
   -7.0092  -31.6987  -12.8466 O   0  0  0  0  0  0  0  0  0  0  0  0
   -4.9900  -33.4854  -13.2540 O   0  0  0  0  0  0  0  0  0  0  0  0
   -6.9515  -34.0247  -16.2039 O   0  0  0  0  0  0  0  0  0  0  0  0
   -5.5336  -36.1889  -15.4138 O   0  0  0  0  0  0  0  0  0  0  0  0
  1  2  1  0
  1  7  1  1
 11  1  1  0
  3  2  1  0
  2  8  1  6
  4  3  1  0
  3  9  1  1
  5  4  1  0
  4 10  1  1
  5  6  1  1
  5 11  1  0
 12  6  1  0
M  END
$$$$
