
     RDKit          3D

 12 12  0  0  0  0  0  0  0  0999 V2000
   -6.7384  -32.4467  -16.6751 C   0  0  1  0  0  0  0  0  0  0  0  0
   -7.5067  -31.8269  -15.5374 C   0  0  1  0  0  0  0  0  0  0  0  0
   -6.8875  -32.2580  -14.2503 C   0  0  2  0  0  0  0  0  0  0  0  0
   -6.9422  -33.7916  -14.2184 C   0  0  1  0  0  0  0  0  0  0  0  0
   -6.1225  -34.2248  -15.3964 C   0  0  1  0  0  0  0  0  0  0  0  0
   -5.9262  -35.7088  -15.4862 C   0  0  0  0  0  0  0  0  0  0  0  0
   -5.3781  -32.1471  -16.5695 O   0  0  0  0  0  0  0  0  0  0  0  0
   -7.5809  -30.4533  -15.6733 O   0  0  0  0  0  0  0  0  0  0  0  0
   -7.4061  -31.6873  -13.1280 O   0  0  0  0  0  0  0  0  0  0  0  0
   -6.4829  -34.2504  -13.0094 O   0  0  0  0  0  0  0  0  0  0  0  0
   -6.8425  -33.8432  -16.5514 O   0  0  0  0  0  0  0  0  0  0  0  0
   -5.4622  -36.1200  -16.7236 O   0  0  0  0  0  0  0  0  0  0  0  0
  1  2  1  0
  1  7  1  1
 11  1  1  0
  3  2  1  0
  2  8  1  6
  4  3  1  0
  3  9  1  1
  5  4  1  0
  4 10  1  1
  5  6  1  6
  5 11  1  0
 12  6  1  0
M  END
$$$$
