
     RDKit          3D

 12 12  0  0  0  0  0  0  0  0999 V2000
   -5.2881  -32.1089  -15.0816 C   0  0  1  0  0  0  0  0  0  0  0  0
   -6.1375  -31.3684  -14.0945 C   0  0  1  0  0  0  0  0  0  0  0  0
   -7.5782  -31.6945  -14.3799 C   0  0  2  0  0  0  0  0  0  0  0  0
   -7.8064  -33.1691  -14.4678 C   0  0  1  0  0  0  0  0  0  0  0  0
   -6.7130  -33.9605  -15.0459 C   0  0  1  0  0  0  0  0  0  0  0  0
   -7.1984  -34.5277  -16.3921 C   0  0  0  0  0  0  0  0  0  0  0  0
   -3.9537  -31.9107  -14.6956 O   0  0  0  0  0  0  0  0  0  0  0  0
   -5.7854  -31.6050  -12.7773 O   0  0  0  0  0  0  0  0  0  0  0  0
   -7.9666  -30.9987  -15.5174 O   0  0  0  0  0  0  0  0  0  0  0  0
   -8.1153  -33.6102  -13.1590 O   0  0  0  0  0  0  0  0  0  0  0  0
   -5.5176  -33.4056  -15.2446 O   0  0  0  0  0  0  0  0  0  0  0  0
   -6.2481  -35.4211  -16.8763 O   0  0  0  0  0  0  0  0  0  0  0  0
  1  2  1  0
  1  7  1  1
 11  1  1  0
  3  2  1  0
  2  8  1  1
  4  3  1  0
  3  9  1  6
  5  4  1  0
  4 10  1  1
  6  5  1  0
  5 11  1  6
  6 12  1  6
M  END
$$$$
