
     RDKit          3D

 12 12  0  0  0  0  0  0  0  0999 V2000
   -6.5671  -32.7705  -13.5947 C   0  0  1  0  0  0  0  0  0  0  0  0
   -7.0469  -31.3944  -13.9411 C   0  0  1  0  0  0  0  0  0  0  0  0
   -6.4798  -31.0258  -15.2850 C   0  0  2  0  0  0  0  0  0  0  0  0
   -6.7360  -32.0876  -16.3054 C   0  0  1  0  0  0  0  0  0  0  0  0
   -6.7140  -33.4728  -15.8185 C   0  0  1  0  0  0  0  0  0  0  0  0
   -5.4926  -34.1743  -16.4394 C   0  0  0  0  0  0  0  0  0  0  0  0
   -7.2328  -33.1466  -12.4181 O   0  0  0  0  0  0  0  0  0  0  0  0
   -8.4231  -31.2600  -13.8852 O   0  0  0  0  0  0  0  0  0  0  0  0
   -5.1354  -30.7179  -15.1224 O   0  0  0  0  0  0  0  0  0  0  0  0
   -7.9800  -31.7806  -16.9064 O   0  0  0  0  0  0  0  0  0  0  0  0
   -6.7055  -33.7220  -14.5093 O   0  0  0  0  0  0  0  0  0  0  0  0
   -5.6404  -35.5505  -16.2983 O   0  0  0  0  0  0  0  0  0  0  0  0
  1  2  1  0
  1  7  1  1
 11  1  1  0
  3  2  1  0
  2  8  1  6
  4  3  1  0
  3  9  1  1
  5  4  1  0
  4 10  1  1
  6  5  1  0
  5 11  1  1
  6 12  1  6
M  END
$$$$
