
     RDKit          3D

 12 12  0  0  0  0  0  0  0  0999 V2000
   -6.8818  -31.9317  -16.3202 C   0  0  1  0  0  0  0  0  0  0  0  0
   -7.0330  -31.2180  -15.0118 C   0  0  1  0  0  0  0  0  0  0  0  0
   -7.3259  -32.2436  -13.9508 C   0  0  2  0  0  0  0  0  0  0  0  0
   -6.3396  -33.3664  -13.9771 C   0  0  1  0  0  0  0  0  0  0  0  0
   -5.8364  -33.7558  -15.3005 C   0  0  1  0  0  0  0  0  0  0  0  0
   -6.3692  -35.1653  -15.6146 C   0  0  0  0  0  0  0  0  0  0  0  0
   -6.4577  -30.9756  -17.2556 O   0  0  0  0  0  0  0  0  0  0  0  0
   -5.9530  -30.4129  -14.6950 O   0  0  0  0  0  0  0  0  0  0  0  0
   -8.6454  -32.6535  -14.0918 O   0  0  0  0  0  0  0  0  0  0  0  0
   -5.2773  -32.9930  -13.1198 O   0  0  0  0  0  0  0  0  0  0  0  0
   -6.0747  -32.9842  -16.3607 O   0  0  0  0  0  0  0  0  0  0  0  0
   -5.8498  -35.5843  -16.8354 O   0  0  0  0  0  0  0  0  0  0  0  0
  1  2  1  0
  1  7  1  6
 11  1  1  0
  3  2  1  0
  2  8  1  1
  4  3  1  0
  3  9  1  6
  5  4  1  0
  4 10  1  1
  6  5  1  0
  5 11  1  6
  6 12  1  6
M  END
$$$$
