
     RDKit          3D

 12 12  0  0  0  0  0  0  0  0999 V2000
   -7.5729  -32.6963  -16.6775 C   0  0  1  0  0  0  0  0  0  0  0  0
   -8.0968  -32.1026  -15.3962 C   0  0  1  0  0  0  0  0  0  0  0  0
   -7.0614  -32.2655  -14.3344 C   0  0  2  0  0  0  0  0  0  0  0  0
   -6.7850  -33.7697  -14.2051 C   0  0  1  0  0  0  0  0  0  0  0  0
   -6.2631  -34.1762  -15.5503 C   0  0  1  0  0  0  0  0  0  0  0  0
   -5.7967  -35.6000  -15.6153 C   0  0  0  0  0  0  0  0  0  0  0  0
   -6.3319  -32.1436  -17.0031 O   0  0  0  0  0  0  0  0  0  0  0  0
   -8.4903  -30.7899  -15.5770 O   0  0  0  0  0  0  0  0  0  0  0  0
   -7.3458  -31.6759  -13.1403 O   0  0  0  0  0  0  0  0  0  0  0  0
   -5.9157  -33.9975  -13.1680 O   0  0  0  0  0  0  0  0  0  0  0  0
   -7.3450  -34.0653  -16.4533 O   0  0  0  0  0  0  0  0  0  0  0  0
   -5.9266  -36.1557  -16.8763 O   0  0  0  0  0  0  0  0  0  0  0  0
  1  2  1  0
  1  7  1  1
 11  1  1  0
  3  2  1  0
  2  8  1  6
  4  3  1  0
  3  9  1  1
  5  4  1  0
  4 10  1  1
  5  6  1  1
  5 11  1  0
 12  6  1  0
M  END
$$$$
