
     RDKit          3D

 12 12  0  0  0  0  0  0  0  0999 V2000
   -6.8580  -31.9385  -16.5052 C   0  0  1  0  0  0  0  0  0  0  0  0
   -7.6945  -31.5017  -15.3312 C   0  0  1  0  0  0  0  0  0  0  0  0
   -7.1914  -32.1849  -14.1041 C   0  0  2  0  0  0  0  0  0  0  0  0
   -7.2940  -33.6951  -14.3581 C   0  0  1  0  0  0  0  0  0  0  0  0
   -6.3975  -33.9436  -15.5336 C   0  0  1  0  0  0  0  0  0  0  0  0
   -6.2389  -35.3940  -15.8799 C   0  0  0  0  0  0  0  0  0  0  0  0
   -5.5019  -31.7225  -16.2490 O   0  0  0  0  0  0  0  0  0  0  0  0
   -7.7170  -30.1243  -15.2177 O   0  0  0  0  0  0  0  0  0  0  0  0
   -7.7794  -31.8045  -12.9362 O   0  0  0  0  0  0  0  0  0  0  0  0
   -6.9449  -34.3844  -13.2241 O   0  0  0  0  0  0  0  0  0  0  0  0
   -7.0129  -33.3286  -16.6476 O   0  0  0  0  0  0  0  0  0  0  0  0
   -5.5961  -35.5952  -17.0891 O   0  0  0  0  0  0  0  0  0  0  0  0
  1  2  1  0
  1  7  1  1
 11  1  1  0
  3  2  1  0
  2  8  1  1
  4  3  1  0
  3  9  1  1
  5  4  1  0
  4 10  1  1
  5  6  1  6
  5 11  1  0
 12  6  1  0
M  END
$$$$
