
     RDKit          3D

 12 12  0  0  0  0  0  0  0  0999 V2000
   -7.4044  -32.5247  -16.2217 C   0  0  1  0  0  0  0  0  0  0  0  0
   -7.2706  -31.6355  -15.0236 C   0  0  1  0  0  0  0  0  0  0  0  0
   -7.0602  -32.5070  -13.8155 C   0  0  2  0  0  0  0  0  0  0  0  0
   -5.9577  -33.4937  -14.0283 C   0  0  1  0  0  0  0  0  0  0  0  0
   -5.8181  -34.0253  -15.3900 C   0  0  1  0  0  0  0  0  0  0  0  0
   -6.1828  -35.5204  -15.3551 C   0  0  0  0  0  0  0  0  0  0  0  0
   -7.4426  -31.6856  -17.3458 O   0  0  0  0  0  0  0  0  0  0  0  0
   -6.2920  -30.6669  -15.1625 O   0  0  0  0  0  0  0  0  0  0  0  0
   -8.2756  -33.0890  -13.4796 O   0  0  0  0  0  0  0  0  0  0  0  0
   -4.7631  -32.8645  -13.6042 O   0  0  0  0  0  0  0  0  0  0  0  0
   -6.4861  -33.4661  -16.3986 O   0  0  0  0  0  0  0  0  0  0  0  0
   -5.8797  -36.0895  -16.5879 O   0  0  0  0  0  0  0  0  0  0  0  0
  1  2  1  0
  1  7  1  6
 11  1  1  0
  3  2  1  0
  2  8  1  6
  4  3  1  0
  3  9  1  6
  5  4  1  0
  4 10  1  6
  6  5  1  0
  5 11  1  6
  6 12  1  6
M  END
$$$$
