
     RDKit          3D

 12 12  0  0  0  0  0  0  0  0999 V2000
   -6.7476  -32.5003  -16.3807 C   0  0  1  0  0  0  0  0  0  0  0  0
   -6.9439  -31.6230  -15.1824 C   0  0  1  0  0  0  0  0  0  0  0  0
   -7.3076  -32.4999  -14.0154 C   0  0  2  0  0  0  0  0  0  0  0  0
   -6.3454  -33.6319  -13.8508 C   0  0  1  0  0  0  0  0  0  0  0  0
   -5.7899  -34.1949  -15.0881 C   0  0  1  0  0  0  0  0  0  0  0  0
   -6.3377  -35.6247  -15.2463 C   0  0  0  0  0  0  0  0  0  0  0  0
   -6.2602  -31.6782  -17.4082 O   0  0  0  0  0  0  0  0  0  0  0  0
   -5.8627  -30.8006  -14.9182 O   0  0  0  0  0  0  0  0  0  0  0  0
   -8.6276  -32.9042  -14.1673 O   0  0  0  0  0  0  0  0  0  0  0  0
   -5.3162  -33.1684  -12.9973 O   0  0  0  0  0  0  0  0  0  0  0  0
   -5.9622  -33.5616  -16.2480 O   0  0  0  0  0  0  0  0  0  0  0  0
   -5.7229  -36.2270  -16.3394 O   0  0  0  0  0  0  0  0  0  0  0  0
  1  2  1  0
  1  7  1  6
 11  1  1  0
  3  2  1  0
  2  8  1  1
  4  3  1  0
  3  9  1  6
  5  4  1  0
  4 10  1  1
  6  5  1  0
  5 11  1  6
  6 12  1  6
M  END
$$$$
