
     RDKit          3D

 12 12  0  0  0  0  0  0  0  0999 V2000
   -6.2837  -32.2388  -16.5074 C   0  0  1  0  0  0  0  0  0  0  0  0
   -7.2401  -31.5765  -15.5506 C   0  0  1  0  0  0  0  0  0  0  0  0
   -7.0616  -32.1823  -14.1989 C   0  0  2  0  0  0  0  0  0  0  0  0
   -7.3344  -33.6859  -14.3423 C   0  0  1  0  0  0  0  0  0  0  0  0
   -6.2922  -34.1702  -15.3049 C   0  0  1  0  0  0  0  0  0  0  0  0
   -6.2860  -35.6578  -15.4946 C   0  0  0  0  0  0  0  0  0  0  0  0
   -4.9761  -32.1697  -16.0208 O   0  0  0  0  0  0  0  0  0  0  0  0
   -7.0838  -30.2031  -15.5573 O   0  0  0  0  0  0  0  0  0  0  0  0
   -7.7829  -31.6076  -13.1971 O   0  0  0  0  0  0  0  0  0  0  0  0
   -7.2907  -34.2882  -13.1101 O   0  0  0  0  0  0  0  0  0  0  0  0
   -6.6096  -33.6054  -16.5612 O   0  0  0  0  0  0  0  0  0  0  0  0
   -5.4672  -36.0681  -16.5324 O   0  0  0  0  0  0  0  0  0  0  0  0
  1  2  1  0
  1  7  1  1
 11  1  1  0
  3  2  1  0
  2  8  1  1
  4  3  1  0
  3  9  1  1
  5  4  1  0
  4 10  1  1
  5  6  1  6
  5 11  1  0
 12  6  1  0
M  END
$$$$
