
     RDKit          3D

 12 12  0  0  0  0  0  0  0  0999 V2000
   -7.3166  -32.2497  -16.1032 C   0  0  1  0  0  0  0  0  0  0  0  0
   -7.3524  -31.3449  -14.9099 C   0  0  1  0  0  0  0  0  0  0  0  0
   -7.2326  -32.1951  -13.6745 C   0  0  2  0  0  0  0  0  0  0  0  0
   -6.0696  -33.1307  -13.7555 C   0  0  1  0  0  0  0  0  0  0  0  0
   -5.7611  -33.6669  -15.0872 C   0  0  1  0  0  0  0  0  0  0  0  0
   -6.0587  -35.1771  -15.0710 C   0  0  0  0  0  0  0  0  0  0  0  0
   -7.2727  -31.4231  -17.2363 O   0  0  0  0  0  0  0  0  0  0  0  0
   -6.4099  -30.3326  -14.9571 O   0  0  0  0  0  0  0  0  0  0  0  0
   -8.4490  -32.8306  -13.4619 O   0  0  0  0  0  0  0  0  0  0  0  0
   -4.9573  -32.4424  -13.2154 O   0  0  0  0  0  0  0  0  0  0  0  0
   -6.3424  -33.1484  -16.1687 O   0  0  0  0  0  0  0  0  0  0  0  0
   -5.7509  -35.7129  -16.3175 O   0  0  0  0  0  0  0  0  0  0  0  0
  1  2  1  0
  1  7  1  6
 11  1  1  0
  3  2  1  0
  2  8  1  6
  4  3  1  0
  3  9  1  6
  5  4  1  0
  4 10  1  6
  6  5  1  0
  5 11  1  6
  6 12  1  6
M  END
$$$$
