
     RDKit          3D

 12 12  0  0  0  0  0  0  0  0999 V2000
   -7.8631  -34.3279  -15.9446 C   0  0  1  0  0  0  0  0  0  0  0  0
   -8.1006  -33.3873  -14.7924 C   0  0  1  0  0  0  0  0  0  0  0  0
   -6.8679  -32.5756  -14.5749 C   0  0  2  0  0  0  0  0  0  0  0  0
   -5.7263  -33.5616  -14.2915 C   0  0  1  0  0  0  0  0  0  0  0  0
   -5.6261  -34.3930  -15.5349 C   0  0  1  0  0  0  0  0  0  0  0  0
   -4.4720  -35.3506  -15.5331 C   0  0  0  0  0  0  0  0  0  0  0  0
   -7.4389  -33.6235  -17.0738 O   0  0  0  0  0  0  0  0  0  0  0  0
   -9.2303  -32.6181  -14.9991 O   0  0  0  0  0  0  0  0  0  0  0  0
   -6.9667  -31.5969  -13.6332 O   0  0  0  0  0  0  0  0  0  0  0  0
   -4.5817  -32.8733  -13.9768 O   0  0  0  0  0  0  0  0  0  0  0  0
   -6.8004  -35.1779  -15.5913 O   0  0  0  0  0  0  0  0  0  0  0  0
   -4.6078  -36.3645  -16.4655 O   0  0  0  0  0  0  0  0  0  0  0  0
  1  2  1  0
  1  7  1  6
 11  1  1  0
  3  2  1  0
  2  8  1  6
  4  3  1  0
  3  9  1  1
  5  4  1  0
  4 10  1  6
  5  6  1  1
  5 11  1  0
 12  6  1  0
M  END
$$$$
