
     RDKit          3D

 12 12  0  0  0  0  0  0  0  0999 V2000
   -7.2013  -32.4709  -16.8316 C   0  0  1  0  0  0  0  0  0  0  0  0
   -7.9109  -31.8582  -15.6528 C   0  0  1  0  0  0  0  0  0  0  0  0
   -7.1455  -32.1796  -14.4131 C   0  0  2  0  0  0  0  0  0  0  0  0
   -7.0741  -33.7096  -14.3147 C   0  0  1  0  0  0  0  0  0  0  0  0
   -6.3319  -34.1345  -15.5459 C   0  0  1  0  0  0  0  0  0  0  0  0
   -6.0264  -35.6018  -15.5941 C   0  0  0  0  0  0  0  0  0  0  0  0
   -5.8653  -32.0641  -16.8660 O   0  0  0  0  0  0  0  0  0  0  0  0
   -8.1069  -30.5022  -15.8361 O   0  0  0  0  0  0  0  0  0  0  0  0
   -7.6047  -31.5975  -13.2709 O   0  0  0  0  0  0  0  0  0  0  0  0
   -6.4723  -34.0744  -13.1366 O   0  0  0  0  0  0  0  0  0  0  0  0
   -7.1816  -33.8639  -16.6428 O   0  0  0  0  0  0  0  0  0  0  0  0
   -5.8023  -36.0667  -16.8785 O   0  0  0  0  0  0  0  0  0  0  0  0
  1  2  1  0
  1  7  1  1
 11  1  1  0
  3  2  1  0
  2  8  1  6
  4  3  1  0
  3  9  1  1
  5  4  1  0
  4 10  1  1
  5  6  1  1
  5 11  1  0
 12  6  1  0
M  END
$$$$
