
     RDKit          3D

 12 12  0  0  0  0  0  0  0  0999 V2000
   -5.7545  -31.4353  -15.5438 C   0  0  1  0  0  0  0  0  0  0  0  0
   -6.5801  -30.8749  -14.4265 C   0  0  1  0  0  0  0  0  0  0  0  0
   -7.7463  -31.7976  -14.1984 C   0  0  2  0  0  0  0  0  0  0  0  0
   -7.3079  -33.2181  -14.0434 C   0  0  1  0  0  0  0  0  0  0  0  0
   -6.1509  -33.6305  -14.8481 C   0  0  1  0  0  0  0  0  0  0  0  0
   -6.6401  -34.6460  -15.8964 C   0  0  0  0  0  0  0  0  0  0  0  0
   -4.5988  -30.6439  -15.6289 O   0  0  0  0  0  0  0  0  0  0  0  0
   -5.8550  -30.6327  -13.2730 O   0  0  0  0  0  0  0  0  0  0  0  0
   -8.6640  -31.6031  -15.2226 O   0  0  0  0  0  0  0  0  0  0  0  0
   -7.0640  -33.4188  -12.6639 O   0  0  0  0  0  0  0  0  0  0  0  0
   -5.4143  -32.7163  -15.4788 O   0  0  0  0  0  0  0  0  0  0  0  0
   -5.5373  -35.2095  -16.5303 O   0  0  0  0  0  0  0  0  0  0  0  0
  1  2  1  0
  1  7  1  1
 11  1  1  0
  3  2  1  0
  2  8  1  1
  4  3  1  0
  3  9  1  6
  5  4  1  0
  4 10  1  1
  6  5  1  0
  5 11  1  6
  6 12  1  6
M  END
$$$$
