
     RDKit          3D

 12 12  0  0  0  0  0  0  0  0999 V2000
   -7.1876  -32.7583  -16.7447 C   0  0  1  0  0  0  0  0  0  0  0  0
   -7.6935  -32.1425  -15.4667 C   0  0  1  0  0  0  0  0  0  0  0  0
   -6.6947  -32.3916  -14.3868 C   0  0  2  0  0  0  0  0  0  0  0  0
   -6.5302  -33.9132  -14.2709 C   0  0  1  0  0  0  0  0  0  0  0  0
   -6.0115  -34.3416  -15.6106 C   0  0  1  0  0  0  0  0  0  0  0  0
   -5.6479  -35.7946  -15.6841 C   0  0  0  0  0  0  0  0  0  0  0  0
   -5.9036  -32.2934  -17.0389 O   0  0  0  0  0  0  0  0  0  0  0  0
   -7.9875  -30.8028  -15.6388 O   0  0  0  0  0  0  0  0  0  0  0  0
   -6.9603  -31.7962  -13.1913 O   0  0  0  0  0  0  0  0  0  0  0  0
   -5.7012  -34.2148  -13.2198 O   0  0  0  0  0  0  0  0  0  0  0  0
   -7.0638  -34.1427  -16.5332 O   0  0  0  0  0  0  0  0  0  0  0  0
   -4.2891  -36.0058  -15.8417 O   0  0  0  0  0  0  0  0  0  0  0  0
  1  2  1  0
  1  7  1  1
 11  1  1  0
  3  2  1  0
  2  8  1  6
  4  3  1  0
  3  9  1  1
  5  4  1  0
  4 10  1  1
  5  6  1  1
  5 11  1  0
 12  6  1  0
M  END
$$$$
