
     RDKit          3D

 12 12  0  0  0  0  0  0  0  0999 V2000
   -7.1060  -34.8605  -15.6195 C   0  0  1  0  0  0  0  0  0  0  0  0
   -7.3799  -33.8947  -14.4966 C   0  0  1  0  0  0  0  0  0  0  0  0
   -7.4959  -32.5201  -15.0648 C   0  0  2  0  0  0  0  0  0  0  0  0
   -6.1714  -32.2173  -15.7789 C   0  0  1  0  0  0  0  0  0  0  0  0
   -6.0771  -33.2533  -16.8582 C   0  0  1  0  0  0  0  0  0  0  0  0
   -4.9084  -33.0655  -17.7790 C   0  0  0  0  0  0  0  0  0  0  0  0
   -8.0736  -34.7378  -16.6195 O   0  0  0  0  0  0  0  0  0  0  0  0
   -8.4892  -34.2780  -13.7663 O   0  0  0  0  0  0  0  0  0  0  0  0
   -7.8548  -31.5472  -14.1822 O   0  0  0  0  0  0  0  0  0  0  0  0
   -6.1718  -30.9230  -16.2348 O   0  0  0  0  0  0  0  0  0  0  0  0
   -5.8838  -34.4946  -16.2103 O   0  0  0  0  0  0  0  0  0  0  0  0
   -4.7823  -34.0831  -18.7088 O   0  0  0  0  0  0  0  0  0  0  0  0
  1  2  1  0
  1  7  1  6
 11  1  1  0
  3  2  1  0
  2  8  1  6
  4  3  1  0
  3  9  1  1
  5  4  1  0
  4 10  1  6
  5  6  1  6
  5 11  1  0
 12  6  1  0
M  END
$$$$
