
     RDKit          3D

 12 12  0  0  0  0  0  0  0  0999 V2000
   -6.9297  -32.3004  -16.5261 C   0  0  1  0  0  0  0  0  0  0  0  0
   -7.6273  -31.7724  -15.3000 C   0  0  1  0  0  0  0  0  0  0  0  0
   -6.9019  -32.2577  -14.0900 C   0  0  2  0  0  0  0  0  0  0  0  0
   -6.9121  -33.7915  -14.1467 C   0  0  1  0  0  0  0  0  0  0  0  0
   -6.1713  -34.1293  -15.4054 C   0  0  1  0  0  0  0  0  0  0  0  0
   -5.9418  -35.5986  -15.5986 C   0  0  0  0  0  0  0  0  0  0  0  0
   -5.5740  -31.9644  -16.5024 O   0  0  0  0  0  0  0  0  0  0  0  0
   -7.7491  -30.3963  -15.3471 O   0  0  0  0  0  0  0  0  0  0  0  0
   -7.3504  -31.7699  -12.9004 O   0  0  0  0  0  0  0  0  0  0  0  0
   -6.3512  -34.3049  -13.0044 O   0  0  0  0  0  0  0  0  0  0  0  0
   -6.9860  -33.7043  -16.4795 O   0  0  0  0  0  0  0  0  0  0  0  0
   -5.6154  -35.9291  -16.9025 O   0  0  0  0  0  0  0  0  0  0  0  0
  1  2  1  0
  1  7  1  1
 11  1  1  0
  3  2  1  0
  2  8  1  6
  4  3  1  0
  3  9  1  1
  5  4  1  0
  4 10  1  1
  5  6  1  6
  5 11  1  0
 12  6  1  0
M  END
$$$$
