
     RDKit          3D

 12 12  0  0  0  0  0  0  0  0999 V2000
   -6.7602  -32.9979  -16.7711 C   0  0  1  0  0  0  0  0  0  0  0  0
   -6.9735  -34.2850  -16.0349 C   0  0  1  0  0  0  0  0  0  0  0  0
   -6.6383  -34.0563  -14.5862 C   0  0  2  0  0  0  0  0  0  0  0  0
   -7.3444  -32.8593  -14.0357 C   0  0  1  0  0  0  0  0  0  0  0  0
   -7.5377  -31.7377  -14.9635 C   0  0  1  0  0  0  0  0  0  0  0  0
   -6.6725  -30.5625  -14.4737 C   0  0  0  0  0  0  0  0  0  0  0  0
   -7.2267  -33.1983  -18.0793 O   0  0  0  0  0  0  0  0  0  0  0  0
   -8.2371  -34.8200  -16.2145 O   0  0  0  0  0  0  0  0  0  0  0  0
   -5.2564  -33.9981  -14.4614 O   0  0  0  0  0  0  0  0  0  0  0  0
   -8.5834  -33.3173  -13.5281 O   0  0  0  0  0  0  0  0  0  0  0  0
   -7.3063  -31.8990  -16.2661 O   0  0  0  0  0  0  0  0  0  0  0  0
   -7.0015  -29.4235  -15.2016 O   0  0  0  0  0  0  0  0  0  0  0  0
  1  2  1  0
  1  7  1  6
 11  1  1  0
  3  2  1  0
  2  8  1  1
  4  3  1  0
  3  9  1  6
  5  4  1  0
  4 10  1  6
  6  5  1  0
  5 11  1  6
  6 12  1  6
M  END
$$$$
