
     RDKit          3D

 12 12  0  0  0  0  0  0  0  0999 V2000
   -6.0348  -34.1328  -14.1837 C   0  0  1  0  0  0  0  0  0  0  0  0
   -6.4329  -32.7455  -13.7529 C   0  0  1  0  0  0  0  0  0  0  0  0
   -7.5306  -32.2646  -14.6415 C   0  0  2  0  0  0  0  0  0  0  0  0
   -6.9893  -32.2920  -16.0774 C   0  0  1  0  0  0  0  0  0  0  0  0
   -6.6652  -33.7332  -16.3330 C   0  0  1  0  0  0  0  0  0  0  0  0
   -6.2380  -34.0184  -17.7419 C   0  0  0  0  0  0  0  0  0  0  0  0
   -7.1490  -34.9746  -14.2184 O   0  0  0  0  0  0  0  0  0  0  0  0
   -6.7642  -32.7139  -12.4113 O   0  0  0  0  0  0  0  0  0  0  0  0
   -8.0757  -31.0629  -14.3051 O   0  0  0  0  0  0  0  0  0  0  0  0
   -7.9171  -31.7593  -16.9367 O   0  0  0  0  0  0  0  0  0  0  0  0
   -5.5640  -34.0519  -15.5060 O   0  0  0  0  0  0  0  0  0  0  0  0
   -5.8073  -35.3211  -17.9242 O   0  0  0  0  0  0  0  0  0  0  0  0
  1  2  1  0
  1  7  1  6
 11  1  1  0
  3  2  1  0
  2  8  1  1
  4  3  1  0
  3  9  1  1
  5  4  1  0
  4 10  1  6
  5  6  1  6
  5 11  1  0
 12  6  1  0
M  END
$$$$
