
     RDKit          3D

 24 27  0  0  0  0  0  0  0  0999 V2000
   26.8603   55.3201   87.4179 C   0  0  0  0  0  0  0  0  0  0  0  0
   21.5251   55.1695   90.6909 C   0  0  0  0  0  0  0  0  0  0  0  0
   30.1763   56.0582   85.8226 C   0  0  0  0  0  0  0  0  0  0  0  0
   27.8578   55.7396   86.4398 C   0  0  0  0  0  0  0  0  0  0  0  0
   29.7623   56.5305   84.5974 C   0  0  0  0  0  0  0  0  0  0  0  0
   28.4133   56.6002   84.3130 C   0  0  0  0  0  0  0  0  0  0  0  0
   29.1982   55.6662   86.7328 C   0  0  0  0  0  0  0  0  0  0  0  0
   30.6969   56.9161   83.6997 F   0  0  0  0  0  0  0  0  0  0  0  0
   27.5053   56.2078   85.2299 N   0  0  0  0  0  0  0  0  0  0  0  0
   27.2330   54.8915   88.5338 O   0  0  0  0  0  0  0  0  0  0  0  0
   25.4858   55.3787   87.1541 N   0  0  0  0  0  0  0  0  0  0  0  0
   24.4699   55.8096   88.0434 C   0  0  1  0  0  0  0  0  0  0  0  0
   24.3309   57.3565   88.1127 C   0  0  0  0  0  0  0  0  0  0  0  0
   23.2385   56.5043   87.6620 C   0  0  2  0  0  0  0  0  0  0  0  0
   22.0008   56.1993   88.4865 C   0  0  2  0  0  0  0  0  0  0  0  0
   22.4456   55.6412   89.7434 N   0  0  0  0  0  0  0  0  0  0  0  0
   21.2384   55.0647   87.7855 C   0  0  0  0  0  0  0  0  0  0  0  0
   19.9126   55.4635   87.7093 O   0  0  0  0  0  0  0  0  0  0  0  0
   20.0208   56.8258   87.4252 C   0  0  0  0  0  0  0  0  0  0  0  0
   20.9956   57.2632   88.5365 C   0  0  1  0  0  0  0  0  0  0  0  0
   20.1806   57.4585   89.7527 C   0  0  0  0  0  0  0  0  0  0  0  0
   19.8889   55.8607   90.6133 S   0  0  0  0  0  0  0  0  0  0  0  0
   21.8177   54.3073   91.5557 N   0  0  0  0  0  0  0  0  0  0  0  0
   22.7677   54.3234   91.9949 H   0  0  0  0  0  0  0  0  0  0  0  0
  1  4  1  0
  1 10  2  0
 11  1  1  0
 16  2  1  0
  2 22  1  0
  2 23  2  0
  3  5  2  0
  7  3  1  0
  4  7  2  0
  4  9  1  0
  6  5  1  0
  5  8  1  0
  9  6  2  0
 12 11  1  6
 13 12  1  1
 14 12  1  0
 14 13  1  1
 15 14  1  0
 15 16  1  1
 15 17  1  0
 15 20  1  0
 17 18  1  6
 19 18  1  1
 20 19  1  6
 20 21  1  0
 21 22  1  6
 23 24  1  0
M  END
$$$$
