
     RDKit          3D

 24 27  0  0  0  0  0  0  0  0999 V2000
   25.9123   55.7891   86.0193 C   0  0  0  0  0  0  0  0  0  0  0  0
   21.4179   55.0170   90.7445 C   0  0  0  0  0  0  0  0  0  0  0  0
   29.6078   56.0796   85.4326 C   0  0  0  0  0  0  0  0  0  0  0  0
   27.3529   55.7305   86.2398 C   0  0  0  0  0  0  0  0  0  0  0  0
   30.0871   55.6259   86.6409 C   0  0  0  0  0  0  0  0  0  0  0  0
   29.2001   55.2342   87.6234 C   0  0  0  0  0  0  0  0  0  0  0  0
   28.2275   56.1228   85.2552 C   0  0  0  0  0  0  0  0  0  0  0  0
   31.4245   55.5765   86.8327 F   0  0  0  0  0  0  0  0  0  0  0  0
   27.8710   55.2954   87.4015 N   0  0  0  0  0  0  0  0  0  0  0  0
   25.4497   56.5905   85.1757 O   0  0  0  0  0  0  0  0  0  0  0  0
   25.0160   54.9743   86.7228 N   0  0  0  0  0  0  0  0  0  0  0  0
   24.2477   55.3409   87.8559 C   0  0  1  0  0  0  0  0  0  0  0  0
   24.7232   56.6653   88.5169 C   0  0  0  0  0  0  0  0  0  0  0  0
   23.3853   56.5200   87.9584 C   0  0  2  0  0  0  0  0  0  0  0  0
   22.1258   56.3724   88.7931 C   0  0  2  0  0  0  0  0  0  0  0  0
   22.4175   55.4345   89.8535 N   0  0  0  0  0  0  0  0  0  0  0  0
   21.0644   55.6833   87.9221 C   0  0  0  0  0  0  0  0  0  0  0  0
   19.9023   56.4296   88.0456 O   0  0  0  0  0  0  0  0  0  0  0  0
   20.3830   57.7399   88.0639 C   0  0  0  0  0  0  0  0  0  0  0  0
   21.4600   57.6238   89.1608 C   0  0  1  0  0  0  0  0  0  0  0  0
   20.7529   57.7372   90.4526 C   0  0  0  0  0  0  0  0  0  0  0  0
   20.0398   56.1199   90.9571 S   0  0  0  0  0  0  0  0  0  0  0  0
   21.4718   53.9287   91.3687 N   0  0  0  0  0  0  0  0  0  0  0  0
   21.7196   53.9326   92.3857 H   0  0  0  0  0  0  0  0  0  0  0  0
  1  4  1  0
  1 10  2  0
 11  1  1  0
 16  2  1  0
  2 22  1  0
  2 23  2  0
  3  5  2  0
  7  3  1  0
  4  7  2  0
  4  9  1  0
  6  5  1  0
  5  8  1  0
  9  6  2  0
 12 11  1  6
 13 12  1  1
 14 12  1  0
 14 13  1  1
 15 14  1  0
 15 16  1  1
 15 17  1  0
 15 20  1  0
 17 18  1  6
 19 18  1  1
 20 19  1  6
 20 21  1  0
 21 22  1  6
 23 24  1  0
M  END
$$$$
