
     RDKit          3D

 24 27  0  0  0  0  0  0  0  0999 V2000
   26.4671   56.1816   87.2975 C   0  0  0  0  0  0  0  0  0  0  0  0
   21.5834   55.0640   90.3387 C   0  0  0  0  0  0  0  0  0  0  0  0
   30.0023   55.3362   86.3635 C   0  0  0  0  0  0  0  0  0  0  0  0
   27.6195   55.7274   86.5273 C   0  0  0  0  0  0  0  0  0  0  0  0
   29.8154   54.8701   85.0815 C   0  0  0  0  0  0  0  0  0  0  0  0
   28.5439   54.8394   84.5450 C   0  0  0  0  0  0  0  0  0  0  0  0
   28.8811   55.7620   87.0706 C   0  0  0  0  0  0  0  0  0  0  0  0
   30.8918   54.4519   84.3783 F   0  0  0  0  0  0  0  0  0  0  0  0
   27.4900   55.2636   85.2722 N   0  0  0  0  0  0  0  0  0  0  0  0
   26.6280   56.5707   88.4767 O   0  0  0  0  0  0  0  0  0  0  0  0
   25.1724   56.1997   86.7628 N   0  0  0  0  0  0  0  0  0  0  0  0
   23.9772   56.5324   87.4480 C   0  0  1  0  0  0  0  0  0  0  0  0
   23.1327   57.6146   86.7182 C   0  0  0  0  0  0  0  0  0  0  0  0
   22.6176   56.2749   86.9688 C   0  0  2  0  0  0  0  0  0  0  0  0
   21.5746   55.9471   88.0221 C   0  0  2  0  0  0  0  0  0  0  0  0
   22.2793   55.5247   89.2113 N   0  0  0  0  0  0  0  0  0  0  0  0
   20.8016   54.7077   87.5464 C   0  0  0  0  0  0  0  0  0  0  0  0
   19.4536   55.0014   87.6860 O   0  0  0  0  0  0  0  0  0  0  0  0
   19.3927   56.3410   87.2987 C   0  0  0  0  0  0  0  0  0  0  0  0
   20.5061   56.9354   88.1839 C   0  0  1  0  0  0  0  0  0  0  0  0
   19.9033   57.1668   89.5124 C   0  0  0  0  0  0  0  0  0  0  0  0
   19.9057   55.6256   90.5140 S   0  0  0  0  0  0  0  0  0  0  0  0
   22.0962   54.2969   91.1905 N   0  0  0  0  0  0  0  0  0  0  0  0
   21.6938   54.2608   92.1561 H   0  0  0  0  0  0  0  0  0  0  0  0
  1  4  1  0
  1 10  2  0
 11  1  1  0
 16  2  1  0
  2 22  1  0
  2 23  2  0
  3  5  2  0
  7  3  1  0
  4  7  2  0
  4  9  1  0
  6  5  1  0
  5  8  1  0
  9  6  2  0
 12 11  1  6
 13 12  1  1
 14 12  1  0
 14 13  1  1
 15 14  1  0
 15 16  1  1
 15 17  1  0
 15 20  1  0
 17 18  1  6
 19 18  1  1
 20 19  1  6
 20 21  1  0
 21 22  1  6
 23 24  1  0
M  END
$$$$
