
     RDKit          3D

 24 27  0  0  0  0  0  0  0  0999 V2000
   26.5475   56.0419   87.6417 C   0  0  0  0  0  0  0  0  0  0  0  0
   21.5930   55.2001   90.4421 C   0  0  0  0  0  0  0  0  0  0  0  0
   30.0738   55.8859   86.3666 C   0  0  0  0  0  0  0  0  0  0  0  0
   27.7072   55.6853   86.8321 C   0  0  0  0  0  0  0  0  0  0  0  0
   29.9166   55.0200   85.3077 C   0  0  0  0  0  0  0  0  0  0  0  0
   28.6674   54.5032   85.0283 C   0  0  0  0  0  0  0  0  0  0  0  0
   28.9464   56.2052   87.1186 C   0  0  0  0  0  0  0  0  0  0  0  0
   30.9994   54.6974   84.5652 F   0  0  0  0  0  0  0  0  0  0  0  0
   27.6063   54.8444   85.7881 N   0  0  0  0  0  0  0  0  0  0  0  0
   26.6188   55.9634   88.8893 O   0  0  0  0  0  0  0  0  0  0  0  0
   25.3433   56.4738   87.0709 N   0  0  0  0  0  0  0  0  0  0  0  0
   24.1262   56.7276   87.7512 C   0  0  1  0  0  0  0  0  0  0  0  0
   23.3289   57.9225   87.1567 C   0  0  0  0  0  0  0  0  0  0  0  0
   22.7837   56.5717   87.1875 C   0  0  2  0  0  0  0  0  0  0  0  0
   21.6934   56.1152   88.1402 C   0  0  2  0  0  0  0  0  0  0  0  0
   22.3317   55.7522   89.3852 N   0  0  0  0  0  0  0  0  0  0  0  0
   21.1062   54.8073   87.5884 C   0  0  0  0  0  0  0  0  0  0  0  0
   19.7271   54.9506   87.6078 O   0  0  0  0  0  0  0  0  0  0  0  0
   19.5545   56.2820   87.2257 C   0  0  0  0  0  0  0  0  0  0  0  0
   20.5129   56.9789   88.2117 C   0  0  1  0  0  0  0  0  0  0  0  0
   19.7728   57.1215   89.4819 C   0  0  0  0  0  0  0  0  0  0  0  0
   19.8549   55.5733   90.4692 S   0  0  0  0  0  0  0  0  0  0  0  0
   22.1090   54.4792   91.3315 N   0  0  0  0  0  0  0  0  0  0  0  0
   21.6907   53.5424   91.5388 H   0  0  0  0  0  0  0  0  0  0  0  0
  1  4  1  0
  1 10  2  0
 11  1  1  0
 16  2  1  0
  2 22  1  0
  2 23  2  0
  3  5  2  0
  7  3  1  0
  4  7  2  0
  4  9  1  0
  6  5  1  0
  5  8  1  0
  9  6  2  0
 12 11  1  6
 13 12  1  1
 14 12  1  0
 14 13  1  1
 15 14  1  0
 15 16  1  1
 15 17  1  0
 15 20  1  0
 17 18  1  6
 19 18  1  1
 20 19  1  6
 20 21  1  0
 21 22  1  6
 23 24  1  0
M  END
$$$$
