
     RDKit          3D

 24 27  0  0  0  0  0  0  0  0999 V2000
   26.2556   55.7377   85.5060 C   0  0  0  0  0  0  0  0  0  0  0  0
   22.1074   55.2987   90.2295 C   0  0  0  0  0  0  0  0  0  0  0  0
   28.7097   53.9728   87.7304 C   0  0  0  0  0  0  0  0  0  0  0  0
   27.4589   55.4520   86.2795 C   0  0  0  0  0  0  0  0  0  0  0  0
   29.7328   54.8940   87.7510 C   0  0  0  0  0  0  0  0  0  0  0  0
   29.6056   56.0713   87.0414 C   0  0  0  0  0  0  0  0  0  0  0  0
   27.5755   54.2770   86.9823 C   0  0  0  0  0  0  0  0  0  0  0  0
   30.8427   54.6170   88.4717 F   0  0  0  0  0  0  0  0  0  0  0  0
   28.4854   56.3183   86.3318 N   0  0  0  0  0  0  0  0  0  0  0  0
   26.3456   56.4019   84.4484 O   0  0  0  0  0  0  0  0  0  0  0  0
   24.9888   55.2927   85.9053 N   0  0  0  0  0  0  0  0  0  0  0  0
   24.0781   55.9755   86.7498 C   0  0  1  0  0  0  0  0  0  0  0  0
   23.3234   57.1298   86.0322 C   0  0  0  0  0  0  0  0  0  0  0  0
   22.6212   55.9878   86.6028 C   0  0  2  0  0  0  0  0  0  0  0  0
   21.8076   56.0418   87.8834 C   0  0  2  0  0  0  0  0  0  0  0  0
   22.6199   55.4744   88.9357 N   0  0  0  0  0  0  0  0  0  0  0  0
   20.6195   55.0810   87.7247 C   0  0  0  0  0  0  0  0  0  0  0  0
   19.4871   55.7805   88.1132 O   0  0  0  0  0  0  0  0  0  0  0  0
   19.7268   57.0562   87.5998 C   0  0  0  0  0  0  0  0  0  0  0  0
   21.1407   57.3167   88.1562 C   0  0  1  0  0  0  0  0  0  0  0  0
   20.9623   57.7788   89.5478 C   0  0  0  0  0  0  0  0  0  0  0  0
   20.7550   56.3557   90.6926 S   0  0  0  0  0  0  0  0  0  0  0  0
   22.5623   54.4482   91.0337 N   0  0  0  0  0  0  0  0  0  0  0  0
   23.2577   53.7430   90.6951 H   0  0  0  0  0  0  0  0  0  0  0  0
  1  4  1  0
  1 10  2  0
 11  1  1  0
 16  2  1  0
  2 22  1  0
  2 23  2  0
  3  5  2  0
  7  3  1  0
  4  7  2  0
  4  9  1  0
  6  5  1  0
  5  8  1  0
  9  6  2  0
 12 11  1  6
 13 12  1  1
 14 12  1  0
 14 13  1  6
 15 14  1  0
 15 16  1  1
 15 17  1  0
 15 20  1  0
 17 18  1  6
 19 18  1  1
 20 19  1  1
 20 21  1  0
 21 22  1  6
 23 24  1  0
M  END
$$$$
