
     RDKit          3D

 24 27  0  0  0  0  0  0  0  0999 V2000
   26.1974   56.2434   86.7509 C   0  0  0  0  0  0  0  0  0  0  0  0
   20.3328   57.7112   88.8047 C   0  0  0  0  0  0  0  0  0  0  0  0
   29.9301   56.6184   86.6434 C   0  0  0  0  0  0  0  0  0  0  0  0
   27.6142   56.0246   87.0200 C   0  0  0  0  0  0  0  0  0  0  0  0
   30.3045   55.6236   87.5186 C   0  0  0  0  0  0  0  0  0  0  0  0
   29.3367   54.8499   88.1270 C   0  0  0  0  0  0  0  0  0  0  0  0
   28.5697   56.8004   86.4091 C   0  0  0  0  0  0  0  0  0  0  0  0
   31.6209   55.4311   87.7594 F   0  0  0  0  0  0  0  0  0  0  0  0
   28.0312   55.0667   87.8660 N   0  0  0  0  0  0  0  0  0  0  0  0
   25.8498   57.1887   86.0069 O   0  0  0  0  0  0  0  0  0  0  0  0
   25.1991   55.4277   87.2989 N   0  0  0  0  0  0  0  0  0  0  0  0
   23.8656   55.8044   87.5967 C   0  0  1  0  0  0  0  0  0  0  0  0
   22.8090   54.8034   87.0503 C   0  0  0  0  0  0  0  0  0  0  0  0
   22.9478   55.0759   88.4749 C   0  0  2  0  0  0  0  0  0  0  0  0
   21.9694   55.9110   89.2812 C   0  0  2  0  0  0  0  0  0  0  0  0
   21.2504   56.7521   88.3513 N   0  0  0  0  0  0  0  0  0  0  0  0
   22.7856   56.8762   90.1543 C   0  0  0  0  0  0  0  0  0  0  0  0
   22.2738   56.7801   91.4395 O   0  0  0  0  0  0  0  0  0  0  0  0
   22.0085   55.4150   91.5597 C   0  0  0  0  0  0  0  0  0  0  0  0
   21.1847   55.1797   90.2781 C   0  0  1  0  0  0  0  0  0  0  0  0
   19.8026   55.5984   90.5885 C   0  0  0  0  0  0  0  0  0  0  0  0
   19.6077   57.4165   90.4010 S   0  0  0  0  0  0  0  0  0  0  0  0
   20.0249   58.7296   88.1375 N   0  0  0  0  0  0  0  0  0  0  0  0
   19.7707   58.6234   87.1277 H   0  0  0  0  0  0  0  0  0  0  0  0
  1  4  1  0
  1 10  2  0
 11  1  1  0
 16  2  1  0
  2 22  1  0
  2 23  2  0
  3  5  2  0
  7  3  1  0
  4  7  2  0
  4  9  1  0
  6  5  1  0
  5  8  1  0
  9  6  2  0
 12 11  1  1
 13 12  1  1
 14 12  1  0
 14 13  1  6
 15 14  1  0
 15 16  1  6
 15 17  1  0
 15 20  1  0
 17 18  1  6
 19 18  1  1
 20 19  1  1
 20 21  1  0
 21 22  1  6
 23 24  1  0
M  END
$$$$
