
     RDKit          3D

 24 27  0  0  0  0  0  0  0  0999 V2000
   26.7087   56.2787   86.1753 C   0  0  0  0  0  0  0  0  0  0  0  0
   22.2410   55.1806   90.3075 C   0  0  0  0  0  0  0  0  0  0  0  0
   30.2783   55.3156   86.8205 C   0  0  0  0  0  0  0  0  0  0  0  0
   27.8822   55.6546   86.7761 C   0  0  0  0  0  0  0  0  0  0  0  0
   30.1178   54.4799   87.9028 C   0  0  0  0  0  0  0  0  0  0  0  0
   28.8525   54.2452   88.4024 C   0  0  0  0  0  0  0  0  0  0  0  0
   29.1374   55.8948   86.2712 C   0  0  0  0  0  0  0  0  0  0  0  0
   31.2136   53.9077   88.4506 F   0  0  0  0  0  0  0  0  0  0  0  0
   27.7789   54.8312   87.8337 N   0  0  0  0  0  0  0  0  0  0  0  0
   26.8282   57.3768   85.5856 O   0  0  0  0  0  0  0  0  0  0  0  0
   25.4388   55.6904   86.2330 N   0  0  0  0  0  0  0  0  0  0  0  0
   24.3090   56.1803   86.9347 C   0  0  1  0  0  0  0  0  0  0  0  0
   23.3512   57.0210   86.0443 C   0  0  0  0  0  0  0  0  0  0  0  0
   22.9183   55.7906   86.6935 C   0  0  2  0  0  0  0  0  0  0  0  0
   22.0041   55.7431   87.9046 C   0  0  2  0  0  0  0  0  0  0  0  0
   22.8180   55.3938   89.0469 N   0  0  0  0  0  0  0  0  0  0  0  0
   21.0390   54.5626   87.7174 C   0  0  0  0  0  0  0  0  0  0  0  0
   19.7652   55.0446   87.9775 O   0  0  0  0  0  0  0  0  0  0  0  0
   19.7994   56.3177   87.4063 C   0  0  0  0  0  0  0  0  0  0  0  0
   21.0854   56.8744   88.0489 C   0  0  1  0  0  0  0  0  0  0  0  0
   20.7051   57.3557   89.3925 C   0  0  0  0  0  0  0  0  0  0  0  0
   20.6774   55.9733   90.6037 S   0  0  0  0  0  0  0  0  0  0  0  0
   22.7803   54.4729   91.1936 N   0  0  0  0  0  0  0  0  0  0  0  0
   22.6443   54.7213   92.2013 H   0  0  0  0  0  0  0  0  0  0  0  0
  1  4  1  0
  1 10  2  0
 11  1  1  0
 16  2  1  0
  2 22  1  0
  2 23  2  0
  3  5  2  0
  7  3  1  0
  4  7  2  0
  4  9  1  0
  6  5  1  0
  5  8  1  0
  9  6  2  0
 12 11  1  6
 13 12  1  1
 14 12  1  0
 14 13  1  6
 15 14  1  0
 15 16  1  1
 15 17  1  0
 15 20  1  0
 17 18  1  6
 19 18  1  1
 20 19  1  1
 20 21  1  0
 21 22  1  6
 23 24  1  0
M  END
$$$$
