
     RDKit          3D

 24 27  0  0  0  0  0  0  0  0999 V2000
   17.2167   56.1916   89.1413 C   0  0  0  0  0  0  0  0  0  0  0  0
   22.8115   55.0280   90.1834 C   0  0  0  0  0  0  0  0  0  0  0  0
   13.7869   57.5812   89.7665 C   0  0  0  0  0  0  0  0  0  0  0  0
   15.7657   56.3405   89.1318 C   0  0  0  0  0  0  0  0  0  0  0  0
   13.0164   56.6385   89.1237 C   0  0  0  0  0  0  0  0  0  0  0  0
   13.6262   55.5690   88.4992 C   0  0  0  0  0  0  0  0  0  0  0  0
   15.1684   57.4088   89.7565 C   0  0  0  0  0  0  0  0  0  0  0  0
   11.6727   56.7881   89.1222 F   0  0  0  0  0  0  0  0  0  0  0  0
   14.9695   55.4478   88.5184 N   0  0  0  0  0  0  0  0  0  0  0  0
   17.9122   56.9726   89.8298 O   0  0  0  0  0  0  0  0  0  0  0  0
   17.8695   55.1972   88.4015 N   0  0  0  0  0  0  0  0  0  0  0  0
   19.2651   54.9545   88.3548 C   0  0  1  0  0  0  0  0  0  0  0  0
   19.7608   54.4923   86.9557 C   0  0  0  0  0  0  0  0  0  0  0  0
   20.2400   55.7206   87.5758 C   0  0  2  0  0  0  0  0  0  0  0  0
   21.6211   55.8844   88.1844 C   0  0  2  0  0  0  0  0  0  0  0  0
   21.6851   55.0286   89.3475 N   0  0  0  0  0  0  0  0  0  0  0  0
   21.7268   57.3173   88.7282 C   0  0  0  0  0  0  0  0  0  0  0  0
   22.9261   57.8330   88.2611 O   0  0  0  0  0  0  0  0  0  0  0  0
   22.9912   57.3235   86.9632 C   0  0  0  0  0  0  0  0  0  0  0  0
   22.7394   55.8281   87.2406 C   0  0  1  0  0  0  0  0  0  0  0  0
   24.0362   55.2578   87.6587 C   0  0  0  0  0  0  0  0  0  0  0  0
   24.3409   55.5561   89.4466 S   0  0  0  0  0  0  0  0  0  0  0  0
   22.7663   54.6780   91.3885 N   0  0  0  0  0  0  0  0  0  0  0  0
   23.6065   54.2313   91.8245 H   0  0  0  0  0  0  0  0  0  0  0  0
  1  4  1  0
  1 10  2  0
 11  1  1  0
 16  2  1  0
  2 22  1  0
  2 23  2  0
  3  5  2  0
  7  3  1  0
  4  7  2  0
  4  9  1  0
  6  5  1  0
  5  8  1  0
  9  6  2  0
 12 11  1  6
 13 12  1  1
 14 12  1  0
 14 13  1  6
 15 14  1  0
 15 16  1  1
 15 17  1  0
 15 20  1  0
 17 18  1  6
 19 18  1  1
 20 19  1  1
 20 21  1  0
 21 22  1  6
 23 24  1  0
M  END
$$$$
