
     RDKit          3D

 24 27  0  0  0  0  0  0  0  0999 V2000
   26.2658   56.9609   87.1475 C   0  0  0  0  0  0  0  0  0  0  0  0
   21.6611   58.1691   90.2415 C   0  0  0  0  0  0  0  0  0  0  0  0
   29.7624   55.7207   87.7141 C   0  0  0  0  0  0  0  0  0  0  0  0
   27.5245   56.2484   86.9585 C   0  0  0  0  0  0  0  0  0  0  0  0
   29.9172   54.9050   86.6158 C   0  0  0  0  0  0  0  0  0  0  0  0
   28.8822   54.7735   85.7119 C   0  0  0  0  0  0  0  0  0  0  0  0
   28.5486   56.3861   87.8642 C   0  0  0  0  0  0  0  0  0  0  0  0
   31.0887   54.2501   86.4522 F   0  0  0  0  0  0  0  0  0  0  0  0
   27.7254   55.4403   85.9031 N   0  0  0  0  0  0  0  0  0  0  0  0
   26.2603   58.0492   87.7666 O   0  0  0  0  0  0  0  0  0  0  0  0
   25.0491   56.4692   86.6576 N   0  0  0  0  0  0  0  0  0  0  0  0
   23.7536   56.7780   87.1422 C   0  0  1  0  0  0  0  0  0  0  0  0
   22.6148   56.2867   86.2048 C   0  0  0  0  0  0  0  0  0  0  0  0
   22.7480   55.8046   87.5733 C   0  0  2  0  0  0  0  0  0  0  0  0
   21.8401   56.2233   88.7156 C   0  0  2  0  0  0  0  0  0  0  0  0
   22.2538   57.5433   89.1349 N   0  0  0  0  0  0  0  0  0  0  0  0
   22.1375   55.3057   89.9113 C   0  0  0  0  0  0  0  0  0  0  0  0
   20.9136   54.8527   90.3796 O   0  0  0  0  0  0  0  0  0  0  0  0
   20.1963   54.6417   89.2009 C   0  0  0  0  0  0  0  0  0  0  0  0
   20.4089   55.9989   88.5015 C   0  0  1  0  0  0  0  0  0  0  0  0
   19.4166   56.9266   89.0816 C   0  0  0  0  0  0  0  0  0  0  0  0
   20.0217   57.6298   90.6684 S   0  0  0  0  0  0  0  0  0  0  0  0
   22.2373   59.0632   90.9090 N   0  0  0  0  0  0  0  0  0  0  0  0
   21.9598   60.0633   90.7735 H   0  0  0  0  0  0  0  0  0  0  0  0
  1  4  1  0
  1 10  2  0
 11  1  1  0
 16  2  1  0
  2 22  1  0
  2 23  2  0
  3  5  2  0
  7  3  1  0
  4  7  2  0
  4  9  1  0
  6  5  1  0
  5  8  1  0
  9  6  2  0
 12 11  1  6
 13 12  1  1
 14 12  1  0
 14 13  1  6
 15 14  1  0
 15 16  1  1
 15 17  1  0
 15 20  1  0
 17 18  1  6
 19 18  1  1
 20 19  1  1
 20 21  1  0
 21 22  1  6
 23 24  1  0
M  END
$$$$
