
     RDKit          3D

 42 43  0  0  0  0  0  0  0  0999 V2000
   14.0707   -8.6513  -15.4689 N   0  0  0  0  0  4  0  0  0  0  0  0
   13.0439   -8.4950  -14.4322 C   0  0  2  0  0  0  0  0  0  0  0  0
   13.2328   -9.5574  -13.4277 C   0  0  0  0  0  0  0  0  0  0  0  0
   13.0758   -9.2553  -12.2028 O   0  0  0  0  0  0  0  0  0  0  0  0
   11.7146   -8.5862  -15.1619 C   0  0  0  0  0  0  0  0  0  0  0  0
   11.8472   -8.5158  -16.6302 C   0  0  0  0  0  0  0  0  0  0  0  0
   12.9496   -9.0174  -17.2836 C   0  0  0  0  0  0  0  0  0  0  0  0
   10.8636   -7.9508  -17.3952 C   0  0  0  0  0  0  0  0  0  0  0  0
   13.0789   -8.9649  -18.6446 C   0  0  0  0  0  0  0  0  0  0  0  0
   10.9641   -7.8838  -18.7557 C   0  0  0  0  0  0  0  0  0  0  0  0
   12.0772   -8.3932  -19.3870 C   0  0  0  0  0  0  0  0  0  0  0  0
   13.5758  -10.8914  -13.7147 N   0  0  0  0  0  0  0  0  0  0  0  0
   12.9086  -12.1433  -13.5250 C   0  0  2  0  0  0  0  0  0  0  0  0
   13.5062  -12.9733  -12.4327 C   0  0  0  0  0  0  0  0  0  0  0  0
   14.4047  -13.8126  -12.7007 O   0  0  0  0  0  0  0  0  0  0  0  0
   13.0459  -12.8502  -14.8696 C   0  0  0  0  0  0  0  0  0  0  0  0
   14.4405  -12.4201  -15.3050 C   0  0  0  0  0  0  0  0  0  0  0  0
   14.8341  -11.2840  -14.3751 C   0  0  0  0  0  0  0  0  0  0  0  0
   13.0817  -12.8399  -11.0864 N   0  0  0  0  0  0  0  0  0  0  0  0
   12.8602  -13.9735  -10.2203 C   0  0  2  0  0  0  0  0  0  0  0  0
   14.0036  -14.9477  -10.3153 C   0  0  0  0  0  0  0  0  0  0  0  0
   13.8338  -15.9400  -11.0558 O   0  0  0  0  0  0  0  0  0  0  0  0
   11.5342  -14.6043  -10.5400 C   0  0  0  0  0  0  0  0  0  0  0  0
   15.1963  -14.7191   -9.5883 N   0  0  0  0  0  0  0  0  0  0  0  0
   16.1396  -15.8063   -9.3759 C   0  0  1  0  0  0  0  0  0  0  0  0
   17.4407  -15.4653   -9.9929 C   0  0  1  0  0  0  0  0  0  0  0  0
   17.4263  -15.1852  -11.4739 C   0  0  0  0  0  0  0  0  0  0  0  0
   18.0021  -14.4108   -9.2772 O   0  0  0  0  0  0  0  0  0  0  0  0
   19.4581  -13.8786   -9.8673 P   0  0  2  0  0  5  0  0  0  0  0  0
   20.6382  -15.0990   -9.7042 O   0  0  0  0  0  0  0  0  0  0  0  0
   19.9242  -12.7262   -9.0087 O   0  0  0  0  0  0  0  0  0  0  0  0
   19.3959  -13.3200  -11.4496 O   0  0  0  0  0  0  0  0  0  0  0  0
   16.1279  -16.1359   -7.9510 C   0  0  0  0  0  0  0  0  0  0  0  0
   15.2635  -15.6118   -7.1799 O   0  0  0  0  0  0  0  0  0  0  0  0
   17.0267  -17.0292   -7.3135 N   0  0  0  0  0  0  0  0  0  0  0  0
   16.9618  -17.3156   -5.8846 C   0  0  2  0  0  0  0  0  0  0  0  0
   18.3024  -17.4691   -5.2845 C   0  0  0  0  0  0  0  0  0  0  0  0
   19.2563  -17.8236   -5.9904 O   0  0  0  0  0  0  0  0  0  0  0  0
   16.1081  -18.5351   -5.6057 C   0  0  1  0  0  0  0  0  0  0  0  0
   16.8610  -19.8183   -5.8726 C   0  0  0  0  0  0  0  0  0  0  0  0
   15.5316  -18.5199   -4.2183 C   0  0  0  0  0  0  0  0  0  0  0  0
   18.4839  -17.2189   -3.9405 O   0  0  0  0  0  0  0  0  0  0  0  0
  2  1  1  6
  2  3  1  0
  2  5  1  0
  3  4  2  0
  3 12  1  0
  5  6  1  0
  6  7  2  0
  6  8  1  0
  7  9  1  0
  8 10  2  0
  9 11  2  0
 10 11  1  0
 12 13  1  0
 12 18  1  0
 13 14  1  1
 13 16  1  0
 14 15  2  0
 14 19  1  0
 16 17  1  0
 17 18  1  0
 19 20  1  0
 20 21  1  0
 20 23  1  6
 21 22  2  0
 21 24  1  0
 25 24  1  1
 25 26  1  0
 25 33  1  0
 26 27  1  6
 26 28  1  0
 28 29  1  0
 29 30  1  6
 29 31  2  0
 29 32  1  0
 33 34  2  0
 33 35  1  0
 36 35  1  6
 36 37  1  0
 36 39  1  0
 37 38  2  0
 37 42  1  0
 39 40  1  1
 39 41  1  0
M  CHG  1   1   1
M  END
$$$$
