
     RDKit          3D

 42 43  0  0  0  0  0  0  0  0999 V2000
   14.0835    7.4126   15.5134 N   0  0  0  0  0  4  0  0  0  0  0  0
   14.7090    8.2675   14.4978 C   0  0  2  0  0  0  0  0  0  0  0  0
   13.7103    9.2500   14.0391 C   0  0  0  0  0  0  0  0  0  0  0  0
   12.6014    8.8122   13.5976 O   0  0  0  0  0  0  0  0  0  0  0  0
   15.1712    7.3225   13.4019 C   0  0  0  0  0  0  0  0  0  0  0  0
   16.2546    7.8788   12.5681 C   0  0  0  0  0  0  0  0  0  0  0  0
   16.8869    7.1268   11.6045 C   0  0  0  0  0  0  0  0  0  0  0  0
   16.6620    9.1755   12.7241 C   0  0  0  0  0  0  0  0  0  0  0  0
   17.8865    7.6349   10.8204 C   0  0  0  0  0  0  0  0  0  0  0  0
   17.6569    9.7109   11.9566 C   0  0  0  0  0  0  0  0  0  0  0  0
   18.2746    8.9384   10.9982 C   0  0  0  0  0  0  0  0  0  0  0  0
   13.8839   10.6463   14.0495 N   0  0  0  0  0  0  0  0  0  0  0  0
   13.0610   11.7448   13.6441 C   0  0  2  0  0  0  0  0  0  0  0  0
   13.5368   12.4103   12.3911 C   0  0  0  0  0  0  0  0  0  0  0  0
   14.7635   12.4187   12.1104 O   0  0  0  0  0  0  0  0  0  0  0  0
   13.1215   12.7141   14.8202 C   0  0  0  0  0  0  0  0  0  0  0  0
   14.5640   12.5525   15.2814 C   0  0  0  0  0  0  0  0  0  0  0  0
   15.0890   11.3125   14.5763 C   0  0  0  0  0  0  0  0  0  0  0  0
   12.6323   13.0416   11.5001 N   0  0  0  0  0  0  0  0  0  0  0  0
   12.9938   13.4153   10.1533 C   0  0  2  0  0  0  0  0  0  0  0  0
   14.0403   14.4971   10.1636 C   0  0  0  0  0  0  0  0  0  0  0  0
   13.8075   15.4947   10.8795 O   0  0  0  0  0  0  0  0  0  0  0  0
   11.7616   13.8092    9.3884 C   0  0  0  0  0  0  0  0  0  0  0  0
   15.2166   14.3575    9.3890 N   0  0  0  0  0  0  0  0  0  0  0  0
   16.1201   15.4864    9.2267 C   0  0  1  0  0  0  0  0  0  0  0  0
   17.4284   15.1704    9.8418 C   0  0  1  0  0  0  0  0  0  0  0  0
   17.3901   14.5498   11.2149 C   0  0  0  0  0  0  0  0  0  0  0  0
   18.1564   14.3905    8.9468 O   0  0  0  0  0  0  0  0  0  0  0  0
   19.6363   13.8978    9.5114 P   0  0  2  0  0  5  0  0  0  0  0  0
   19.4874   12.4039   10.3205 O   0  0  0  0  0  0  0  0  0  0  0  0
   20.1025   14.8926   10.5485 O   0  0  0  0  0  0  0  0  0  0  0  0
   20.8302   13.8189    8.3333 O   0  0  0  0  0  0  0  0  0  0  0  0
   16.1068   15.8700    7.8154 C   0  0  0  0  0  0  0  0  0  0  0  0
   15.3487   15.2634    6.9944 O   0  0  0  0  0  0  0  0  0  0  0  0
   16.8908   16.9050    7.2444 N   0  0  0  0  0  0  0  0  0  0  0  0
   16.8779   17.1974    5.8154 C   0  0  2  0  0  0  0  0  0  0  0  0
   18.2080   17.5999    5.3157 C   0  0  0  0  0  0  0  0  0  0  0  0
   19.1348   17.7896    6.1152 O   0  0  0  0  0  0  0  0  0  0  0  0
   15.8396   18.2468    5.4775 C   0  0  1  0  0  0  0  0  0  0  0  0
   14.4439   17.7881    5.8329 C   0  0  0  0  0  0  0  0  0  0  0  0
   16.1517   19.5771    6.1024 C   0  0  0  0  0  0  0  0  0  0  0  0
   18.4101   17.7644    3.9615 O   0  0  0  0  0  0  0  0  0  0  0  0
  2  1  1  1
  2  3  1  0
  2  5  1  0
  3  4  2  0
  3 12  1  0
  5  6  1  0
  6  7  2  0
  6  8  1  0
  7  9  1  0
  8 10  2  0
  9 11  2  0
 10 11  1  0
 12 13  1  0
 12 18  1  0
 13 14  1  6
 13 16  1  0
 14 15  2  0
 14 19  1  0
 16 17  1  0
 17 18  1  0
 19 20  1  0
 20 21  1  0
 20 23  1  6
 21 22  2  0
 21 24  1  0
 25 24  1  6
 25 26  1  0
 25 33  1  0
 26 27  1  1
 26 28  1  0
 28 29  1  0
 29 30  1  1
 29 31  2  0
 29 32  1  0
 33 34  2  0
 33 35  1  0
 36 35  1  1
 36 37  1  0
 36 39  1  0
 37 38  2  0
 37 42  1  0
 39 40  1  1
 39 41  1  0
M  CHG  1   1   1
M  END
$$$$
