
     RDKit          3D

 42 43  0  0  0  0  0  0  0  0999 V2000
   12.1822   -8.8604  -13.7712 N   0  0  0  0  0  4  0  0  0  0  0  0
   11.5088   -9.7242  -14.7478 C   0  0  2  0  0  0  0  0  0  0  0  0
   11.8823  -11.1223  -14.4663 C   0  0  0  0  0  0  0  0  0  0  0  0
   11.0079  -12.0245  -14.6609 O   0  0  0  0  0  0  0  0  0  0  0  0
   11.9771   -9.2385  -16.1089 C   0  0  0  0  0  0  0  0  0  0  0  0
   11.6865   -7.8121  -16.3529 C   0  0  0  0  0  0  0  0  0  0  0  0
   10.8676   -7.4046  -17.3811 C   0  0  0  0  0  0  0  0  0  0  0  0
   12.2218   -6.8418  -15.5505 C   0  0  0  0  0  0  0  0  0  0  0  0
   10.5849   -6.0859  -17.6111 C   0  0  0  0  0  0  0  0  0  0  0  0
   11.9580   -5.5174  -15.7551 C   0  0  0  0  0  0  0  0  0  0  0  0
   11.1349   -5.1341  -16.7907 C   0  0  0  0  0  0  0  0  0  0  0  0
   13.1389  -11.5457  -13.9957 N   0  0  0  0  0  0  0  0  0  0  0  0
   13.8195  -12.8046  -13.9987 C   0  0  2  0  0  0  0  0  0  0  0  0
   13.8934  -13.4412  -12.6465 C   0  0  0  0  0  0  0  0  0  0  0  0
   14.5758  -14.4852  -12.4794 O   0  0  0  0  0  0  0  0  0  0  0  0
   15.2177  -12.4750  -14.5115 C   0  0  0  0  0  0  0  0  0  0  0  0
   15.4651  -11.1104  -13.8819 C   0  0  0  0  0  0  0  0  0  0  0  0
   14.1162  -10.6429  -13.3604 C   0  0  0  0  0  0  0  0  0  0  0  0
   13.2056  -12.8945  -11.5336 N   0  0  0  0  0  0  0  0  0  0  0  0
   13.1701  -13.5393  -10.2424 C   0  0  2  0  0  0  0  0  0  0  0  0
   14.1186  -14.7074  -10.2042 C   0  0  0  0  0  0  0  0  0  0  0  0
   14.3685  -15.2618  -11.2961 O   0  0  0  0  0  0  0  0  0  0  0  0
   11.7576  -13.9296   -9.9093 C   0  0  0  0  0  0  0  0  0  0  0  0
   14.6804  -15.1289   -8.9754 N   0  0  0  0  0  0  0  0  0  0  0  0
   15.8196  -16.0339   -8.9677 C   0  0  1  0  0  0  0  0  0  0  0  0
   16.9724  -15.3900   -9.6358 C   0  0  1  0  0  0  0  0  0  0  0  0
   16.7348  -14.8755  -11.0326 C   0  0  0  0  0  0  0  0  0  0  0  0
   17.4627  -14.3914   -8.7982 O   0  0  0  0  0  0  0  0  0  0  0  0
   18.9872  -13.8613   -9.1809 P   0  0  2  0  0  5  0  0  0  0  0  0
   19.5751  -12.8322   -7.9546 O   0  0  0  0  0  0  0  0  0  0  0  0
   18.8950  -13.0164  -10.4299 O   0  0  0  0  0  0  0  0  0  0  0  0
   20.0835  -15.0927   -9.4993 O   0  0  0  0  0  0  0  0  0  0  0  0
   16.0053  -16.5066   -7.5961 C   0  0  0  0  0  0  0  0  0  0  0  0
   15.9655  -15.6863   -6.6255 O   0  0  0  0  0  0  0  0  0  0  0  0
   16.2325  -17.8561   -7.2226 N   0  0  0  0  0  0  0  0  0  0  0  0
   16.3936  -18.2654   -5.8319 C   0  0  2  0  0  0  0  0  0  0  0  0
   16.8642  -17.1586   -4.9750 C   0  0  0  0  0  0  0  0  0  0  0  0
   16.9005  -17.3039   -3.7455 O   0  0  0  0  0  0  0  0  0  0  0  0
   17.3140  -19.4622   -5.7132 C   0  0  1  0  0  0  0  0  0  0  0  0
   18.6751  -19.1826   -6.3082 C   0  0  0  0  0  0  0  0  0  0  0  0
   17.4284  -19.9531   -4.2978 C   0  0  0  0  0  0  0  0  0  0  0  0
   17.2584  -15.9681   -5.5488 O   0  0  0  0  0  0  0  0  0  0  0  0
  2  1  1  1
  2  3  1  0
  2  5  1  0
  3  4  2  0
  3 12  1  0
  5  6  1  0
  6  7  2  0
  6  8  1  0
  7  9  1  0
  8 10  2  0
  9 11  2  0
 10 11  1  0
 12 13  1  0
 12 18  1  0
 13 14  1  1
 13 16  1  0
 14 15  2  0
 14 19  1  0
 16 17  1  0
 17 18  1  0
 19 20  1  0
 20 21  1  0
 20 23  1  6
 21 22  2  0
 21 24  1  0
 25 24  1  1
 25 26  1  0
 25 33  1  0
 26 27  1  6
 26 28  1  0
 28 29  1  0
 29 30  1  1
 29 31  2  0
 29 32  1  0
 33 34  2  0
 33 35  1  0
 36 35  1  6
 36 37  1  0
 36 39  1  0
 37 38  2  0
 37 42  1  0
 39 40  1  1
 39 41  1  0
M  CHG  1   1   1
M  END
$$$$
