
     RDKit          3D

 42 43  0  0  0  0  0  0  0  0999 V2000
   11.8754    7.9211   14.2315 N   0  0  0  0  0  4  0  0  0  0  0  0
   12.9543    8.8754   14.5119 C   0  0  2  0  0  0  0  0  0  0  0  0
   12.4711   10.2303   14.1891 C   0  0  0  0  0  0  0  0  0  0  0  0
   11.2240   10.3900   14.0003 O   0  0  0  0  0  0  0  0  0  0  0  0
   14.1224    8.4313   13.6481 C   0  0  0  0  0  0  0  0  0  0  0  0
   13.7256    7.5391   12.5413 C   0  0  0  0  0  0  0  0  0  0  0  0
   14.0996    7.7871   11.2404 C   0  0  0  0  0  0  0  0  0  0  0  0
   12.9724    6.4219   12.7790 C   0  0  0  0  0  0  0  0  0  0  0  0
   13.7444    6.9623   10.2082 C   0  0  0  0  0  0  0  0  0  0  0  0
   12.6024    5.5796   11.7694 C   0  0  0  0  0  0  0  0  0  0  0  0
   12.9893    5.8488   10.4753 C   0  0  0  0  0  0  0  0  0  0  0  0
   13.2835   11.3731   14.0716 N   0  0  0  0  0  0  0  0  0  0  0  0
   13.0138   12.7485   13.7817 C   0  0  2  0  0  0  0  0  0  0  0  0
   13.4606   13.1643   12.4154 C   0  0  0  0  0  0  0  0  0  0  0  0
   14.6263   12.8942   12.0258 O   0  0  0  0  0  0  0  0  0  0  0  0
   13.7828   13.5162   14.8522 C   0  0  0  0  0  0  0  0  0  0  0  0
   15.0372   12.6657   15.0029 C   0  0  0  0  0  0  0  0  0  0  0  0
   14.7424   11.3596   14.2835 C   0  0  0  0  0  0  0  0  0  0  0  0
   12.5963   13.8649   11.5365 N   0  0  0  0  0  0  0  0  0  0  0  0
   12.9519   14.1745   10.1719 C   0  0  2  0  0  0  0  0  0  0  0  0
   14.1592   15.0724   10.1269 C   0  0  0  0  0  0  0  0  0  0  0  0
   14.1619   16.0468   10.9095 O   0  0  0  0  0  0  0  0  0  0  0  0
   11.7663   14.7626    9.4600 C   0  0  0  0  0  0  0  0  0  0  0  0
   15.2192   14.7962    9.2306 N   0  0  0  0  0  0  0  0  0  0  0  0
   16.2754   15.7760    9.0277 C   0  0  1  0  0  0  0  0  0  0  0  0
   17.4660   15.3973    9.8207 C   0  0  1  0  0  0  0  0  0  0  0  0
   17.2377   15.1354   11.2875 C   0  0  0  0  0  0  0  0  0  0  0  0
   18.0822   14.3155    9.1967 O   0  0  0  0  0  0  0  0  0  0  0  0
   19.4827   13.8082    9.9266 P   0  0  2  0  0  5  0  0  0  0  0  0
   20.1198   12.4597    9.0994 O   0  0  0  0  0  0  0  0  0  0  0  0
   19.1437   13.3259   11.3177 O   0  0  0  0  0  0  0  0  0  0  0  0
   20.6458   15.0080   10.0913 O   0  0  0  0  0  0  0  0  0  0  0  0
   16.4472   15.9558    7.5864 C   0  0  0  0  0  0  0  0  0  0  0  0
   15.5674   15.5211    6.7779 O   0  0  0  0  0  0  0  0  0  0  0  0
   17.5496   16.6024    6.9711 N   0  0  0  0  0  0  0  0  0  0  0  0
   17.5088   17.0730    5.5909 C   0  0  2  0  0  0  0  0  0  0  0  0
   18.7847   17.6878    5.1727 C   0  0  0  0  0  0  0  0  0  0  0  0
   19.5963   18.0654    6.0287 O   0  0  0  0  0  0  0  0  0  0  0  0
   16.3560   18.0298    5.3693 C   0  0  1  0  0  0  0  0  0  0  0  0
   16.6999   19.4330    5.8140 C   0  0  0  0  0  0  0  0  0  0  0  0
   15.8682   18.0126    3.9483 C   0  0  0  0  0  0  0  0  0  0  0  0
   19.0643   17.8400    3.8309 O   0  0  0  0  0  0  0  0  0  0  0  0
  2  1  1  6
  2  3  1  0
  2  5  1  0
  3  4  2  0
  3 12  1  0
  5  6  1  0
  6  7  2  0
  6  8  1  0
  7  9  1  0
  8 10  2  0
  9 11  2  0
 10 11  1  0
 12 13  1  0
 12 18  1  0
 13 14  1  6
 13 16  1  0
 14 15  2  0
 14 19  1  0
 16 17  1  0
 17 18  1  0
 19 20  1  0
 20 21  1  0
 20 23  1  1
 21 22  2  0
 21 24  1  0
 25 24  1  6
 25 26  1  0
 25 33  1  0
 26 27  1  1
 26 28  1  0
 28 29  1  0
 29 30  1  6
 29 31  2  0
 29 32  1  0
 33 34  2  0
 33 35  1  0
 36 35  1  1
 36 37  1  0
 36 39  1  0
 37 38  2  0
 37 42  1  0
 39 40  1  6
 39 41  1  0
M  CHG  1   1   1
M  END
$$$$
