
     RDKit          3D

 42 43  0  0  0  0  0  0  0  0999 V2000
   14.1564   -7.3262  -14.0763 N   0  0  0  0  0  4  0  0  0  0  0  0
   14.3045   -8.5364  -14.8931 C   0  0  2  0  0  0  0  0  0  0  0  0
   13.3937   -9.5678  -14.3640 C   0  0  0  0  0  0  0  0  0  0  0  0
   12.3030   -9.1858  -13.8340 O   0  0  0  0  0  0  0  0  0  0  0  0
   15.7712   -8.9180  -14.7892 C   0  0  0  0  0  0  0  0  0  0  0  0
   16.2228   -9.1336  -13.4006 C   0  0  0  0  0  0  0  0  0  0  0  0
   17.5076   -9.5315  -13.1095 C   0  0  0  0  0  0  0  0  0  0  0  0
   15.3706   -8.9345  -12.3489 C   0  0  0  0  0  0  0  0  0  0  0  0
   17.9390   -9.7262  -11.8258 C   0  0  0  0  0  0  0  0  0  0  0  0
   15.7722   -9.1206  -11.0568 C   0  0  0  0  0  0  0  0  0  0  0  0
   17.0635   -9.5188  -10.7905 C   0  0  0  0  0  0  0  0  0  0  0  0
   13.6333  -10.9539  -14.3974 N   0  0  0  0  0  0  0  0  0  0  0  0
   12.9779  -12.0818  -13.8088 C   0  0  2  0  0  0  0  0  0  0  0  0
   13.7511  -12.6958  -12.6844 C   0  0  0  0  0  0  0  0  0  0  0  0
   14.8342  -13.2924  -12.9182 O   0  0  0  0  0  0  0  0  0  0  0  0
   12.8291  -13.0727  -14.9590 C   0  0  0  0  0  0  0  0  0  0  0  0
   14.1248  -12.8514  -15.7283 C   0  0  0  0  0  0  0  0  0  0  0  0
   14.7264  -11.5723  -15.1696 C   0  0  0  0  0  0  0  0  0  0  0  0
   13.2907  -12.6247  -11.3453 N   0  0  0  0  0  0  0  0  0  0  0  0
   13.0585  -13.7966  -10.5347 C   0  0  2  0  0  0  0  0  0  0  0  0
   14.2446  -14.7219  -10.5844 C   0  0  0  0  0  0  0  0  0  0  0  0
   14.9391  -14.6869  -11.6228 O   0  0  0  0  0  0  0  0  0  0  0  0
   11.7837  -14.4661  -10.9649 C   0  0  0  0  0  0  0  0  0  0  0  0
   14.5288  -15.5749   -9.4913 N   0  0  0  0  0  0  0  0  0  0  0  0
   15.8592  -16.1434   -9.3377 C   0  0  1  0  0  0  0  0  0  0  0  0
   16.8470  -15.2991  -10.0456 C   0  0  1  0  0  0  0  0  0  0  0  0
   16.4163  -14.7379  -11.3766 C   0  0  0  0  0  0  0  0  0  0  0  0
   17.2669  -14.2944   -9.1774 O   0  0  0  0  0  0  0  0  0  0  0  0
   18.6674  -13.5325   -9.6350 P   0  0  2  0  0  5  0  0  0  0  0  0
   19.0804  -12.3315   -8.4967 O   0  0  0  0  0  0  0  0  0  0  0  0
   18.4091  -12.8077  -10.9352 O   0  0  0  0  0  0  0  0  0  0  0  0
   19.9605  -14.5708   -9.8987 O   0  0  0  0  0  0  0  0  0  0  0  0
   16.0759  -16.3950   -7.9133 C   0  0  0  0  0  0  0  0  0  0  0  0
   15.3521  -15.8150   -7.0436 O   0  0  0  0  0  0  0  0  0  0  0  0
   17.0587  -17.2676   -7.3797 N   0  0  0  0  0  0  0  0  0  0  0  0
   17.2627  -17.4306   -5.9446 C   0  0  2  0  0  0  0  0  0  0  0  0
   18.6932  -17.5320   -5.5920 C   0  0  0  0  0  0  0  0  0  0  0  0
   19.0340  -17.5552   -4.4014 O   0  0  0  0  0  0  0  0  0  0  0  0
   16.4946  -18.6217   -5.4110 C   0  0  1  0  0  0  0  0  0  0  0  0
   15.9786  -19.5007   -6.5273 C   0  0  0  0  0  0  0  0  0  0  0  0
   17.2951  -19.4157   -4.4179 C   0  0  0  0  0  0  0  0  0  0  0  0
   19.6419  -17.5980   -6.5907 O   0  0  0  0  0  0  0  0  0  0  0  0
  2  1  1  1
  2  3  1  0
  2  5  1  0
  3  4  2  0
  3 12  1  0
  5  6  1  0
  6  7  2  0
  6  8  1  0
  7  9  1  0
  8 10  2  0
  9 11  2  0
 10 11  1  0
 12 13  1  0
 12 18  1  0
 13 14  1  1
 13 16  1  0
 14 15  2  0
 14 19  1  0
 16 17  1  0
 17 18  1  0
 19 20  1  0
 20 21  1  0
 20 23  1  6
 21 22  2  0
 21 24  1  0
 25 24  1  1
 25 26  1  0
 25 33  1  0
 26 27  1  6
 26 28  1  0
 28 29  1  0
 29 30  1  1
 29 31  2  0
 29 32  1  0
 33 34  2  0
 33 35  1  0
 36 35  1  6
 36 37  1  0
 36 39  1  0
 37 38  2  0
 37 42  1  0
 39 40  1  6
 39 41  1  0
M  CHG  1   1   1
M  END
$$$$
