
     RDKit          3D

 42 43  0  0  0  0  0  0  0  0999 V2000
   14.0224    7.6198   14.1205 N   0  0  0  0  0  4  0  0  0  0  0  0
   14.3031    8.9605   14.6467 C   0  0  2  0  0  0  0  0  0  0  0  0
   13.4999    9.9352   13.8863 C   0  0  0  0  0  0  0  0  0  0  0  0
   12.6244    9.4876   13.0802 O   0  0  0  0  0  0  0  0  0  0  0  0
   15.8006    9.1552   14.4811 C   0  0  0  0  0  0  0  0  0  0  0  0
   16.2124    9.3608   13.0788 C   0  0  0  0  0  0  0  0  0  0  0  0
   17.5021    9.7055   12.7450 C   0  0  0  0  0  0  0  0  0  0  0  0
   15.3164    9.2055   12.0565 C   0  0  0  0  0  0  0  0  0  0  0  0
   17.8966    9.8904   11.4480 C   0  0  0  0  0  0  0  0  0  0  0  0
   15.6803    9.3832   10.7521 C   0  0  0  0  0  0  0  0  0  0  0  0
   16.9775    9.7277   10.4429 C   0  0  0  0  0  0  0  0  0  0  0  0
   13.6224   11.3338   13.9795 N   0  0  0  0  0  0  0  0  0  0  0  0
   12.8593   12.4269   13.4590 C   0  0  2  0  0  0  0  0  0  0  0  0
   13.5488   13.1547   12.3481 C   0  0  0  0  0  0  0  0  0  0  0  0
   14.8026   13.1101   12.2501 O   0  0  0  0  0  0  0  0  0  0  0  0
   12.6571   13.3487   14.6574 C   0  0  0  0  0  0  0  0  0  0  0  0
   13.9862   13.2046   15.3871 C   0  0  0  0  0  0  0  0  0  0  0  0
   14.6790   12.0080   14.7559 C   0  0  0  0  0  0  0  0  0  0  0  0
   12.8193   13.9044   11.3909 N   0  0  0  0  0  0  0  0  0  0  0  0
   13.2201   14.0075   10.0078 C   0  0  2  0  0  0  0  0  0  0  0  0
   14.2144   15.1223    9.8231 C   0  0  0  0  0  0  0  0  0  0  0  0
   13.8553   16.2603   10.1946 O   0  0  0  0  0  0  0  0  0  0  0  0
   12.0047   14.1660    9.1382 C   0  0  0  0  0  0  0  0  0  0  0  0
   15.4831   14.8582    9.2540 N   0  0  0  0  0  0  0  0  0  0  0  0
   16.3957   15.9546    8.9680 C   0  0  1  0  0  0  0  0  0  0  0  0
   17.7102   15.6848    9.5919 C   0  0  1  0  0  0  0  0  0  0  0  0
   17.7461   15.6723   11.0987 C   0  0  0  0  0  0  0  0  0  0  0  0
   18.2145   14.5020    9.0572 O   0  0  0  0  0  0  0  0  0  0  0  0
   19.7035   14.0639    9.6422 P   0  0  2  0  0  5  0  0  0  0  0  0
   20.8784   15.2064    9.1698 O   0  0  0  0  0  0  0  0  0  0  0  0
   20.1019   12.7589    8.9936 O   0  0  0  0  0  0  0  0  0  0  0  0
   19.7454   13.8210   11.3032 O   0  0  0  0  0  0  0  0  0  0  0  0
   16.3640   16.1978    7.5262 C   0  0  0  0  0  0  0  0  0  0  0  0
   16.0179   15.2704    6.7282 O   0  0  0  0  0  0  0  0  0  0  0  0
   16.6933   17.4269    6.8992 N   0  0  0  0  0  0  0  0  0  0  0  0
   17.1626   17.4995    5.5200 C   0  0  2  0  0  0  0  0  0  0  0  0
   18.4881   18.1421    5.4144 C   0  0  0  0  0  0  0  0  0  0  0  0
   18.8576   18.9390    6.2876 O   0  0  0  0  0  0  0  0  0  0  0  0
   16.1560   18.2008    4.6320 C   0  0  1  0  0  0  0  0  0  0  0  0
   16.5889   18.1970    3.1838 C   0  0  0  0  0  0  0  0  0  0  0  0
   14.7714   17.6387    4.7885 C   0  0  0  0  0  0  0  0  0  0  0  0
   19.3062   17.8526    4.3426 O   0  0  0  0  0  0  0  0  0  0  0  0
  2  1  1  6
  2  3  1  0
  2  5  1  0
  3  4  2  0
  3 12  1  0
  5  6  1  0
  6  7  2  0
  6  8  1  0
  7  9  1  0
  8 10  2  0
  9 11  2  0
 10 11  1  0
 12 13  1  0
 12 18  1  0
 13 14  1  6
 13 16  1  0
 14 15  2  0
 14 19  1  0
 16 17  1  0
 17 18  1  0
 19 20  1  0
 20 21  1  0
 20 23  1  6
 21 22  2  0
 21 24  1  0
 25 24  1  6
 25 26  1  0
 25 33  1  0
 26 27  1  1
 26 28  1  0
 28 29  1  0
 29 30  1  1
 29 31  2  0
 29 32  1  0
 33 34  2  0
 33 35  1  0
 36 35  1  1
 36 37  1  0
 36 39  1  0
 37 38  2  0
 37 42  1  0
 39 40  1  6
 39 41  1  0
M  CHG  1   1   1
M  END
$$$$
