
     RDKit          3D

 42 43  0  0  0  0  0  0  0  0999 V2000
   11.8804   -8.0459  -14.6050 N   0  0  0  0  0  4  0  0  0  0  0  0
   12.8895   -9.1051  -14.7203 C   0  0  2  0  0  0  0  0  0  0  0  0
   12.2889  -10.3704  -14.2605 C   0  0  0  0  0  0  0  0  0  0  0  0
   11.0892  -10.3437  -13.8405 O   0  0  0  0  0  0  0  0  0  0  0  0
   14.0572   -8.6468  -13.8634 C   0  0  0  0  0  0  0  0  0  0  0  0
   13.6620   -7.7253  -12.7803 C   0  0  0  0  0  0  0  0  0  0  0  0
   13.2684   -6.4317  -13.0365 C   0  0  0  0  0  0  0  0  0  0  0  0
   13.6673   -8.1361  -11.4753 C   0  0  0  0  0  0  0  0  0  0  0  0
   12.8921   -5.5718  -12.0411 C   0  0  0  0  0  0  0  0  0  0  0  0
   13.2970   -7.3008  -10.4601 C   0  0  0  0  0  0  0  0  0  0  0  0
   12.9065   -6.0104  -10.7416 C   0  0  0  0  0  0  0  0  0  0  0  0
   12.9393  -11.6180  -14.2480 N   0  0  0  0  0  0  0  0  0  0  0  0
   12.5294  -12.9396  -13.8824 C   0  0  2  0  0  0  0  0  0  0  0  0
   13.1328  -13.4127  -12.5974 C   0  0  0  0  0  0  0  0  0  0  0  0
   14.3548  -13.2189  -12.3677 O   0  0  0  0  0  0  0  0  0  0  0  0
   12.9938  -13.8122  -15.0442 C   0  0  0  0  0  0  0  0  0  0  0  0
   14.3136  -13.1515  -15.4199 C   0  0  0  0  0  0  0  0  0  0  0  0
   14.3300  -11.8151  -14.6960 C   0  0  0  0  0  0  0  0  0  0  0  0
   12.3562  -14.0835  -11.6190 N   0  0  0  0  0  0  0  0  0  0  0  0
   12.8158  -14.2968  -10.2671 C   0  0  2  0  0  0  0  0  0  0  0  0
   13.9697  -15.2630  -10.2431 C   0  0  0  0  0  0  0  0  0  0  0  0
   13.8491  -16.2966  -10.9352 O   0  0  0  0  0  0  0  0  0  0  0  0
   11.6682  -14.7443   -9.4061 C   0  0  0  0  0  0  0  0  0  0  0  0
   15.1178  -14.9821   -9.4645 N   0  0  0  0  0  0  0  0  0  0  0  0
   16.1558  -15.9895   -9.3075 C   0  0  1  0  0  0  0  0  0  0  0  0
   17.3747  -15.5667  -10.0323 C   0  0  1  0  0  0  0  0  0  0  0  0
   17.2003  -15.2163  -11.4879 C   0  0  0  0  0  0  0  0  0  0  0  0
   17.9680  -14.5261   -9.3221 O   0  0  0  0  0  0  0  0  0  0  0  0
   19.3434  -13.9153  -10.0197 P   0  0  2  0  0  5  0  0  0  0  0  0
   19.2488  -12.2149  -10.1114 O   0  0  0  0  0  0  0  0  0  0  0  0
   19.4108  -14.4098  -11.4457 O   0  0  0  0  0  0  0  0  0  0  0  0
   20.7664  -14.3913   -9.2659 O   0  0  0  0  0  0  0  0  0  0  0  0
   16.2806  -16.2837   -7.8803 C   0  0  0  0  0  0  0  0  0  0  0  0
   15.5798  -15.6469   -7.0319 O   0  0  0  0  0  0  0  0  0  0  0  0
   17.1451  -17.2597   -7.3216 N   0  0  0  0  0  0  0  0  0  0  0  0
   17.2642  -17.4662   -5.8825 C   0  0  2  0  0  0  0  0  0  0  0  0
   18.6324  -17.2044   -5.3923 C   0  0  0  0  0  0  0  0  0  0  0  0
   18.8741  -17.2650   -4.1790 O   0  0  0  0  0  0  0  0  0  0  0  0
   16.8108  -18.8558   -5.4863 C   0  0  1  0  0  0  0  0  0  0  0  0
   16.9784  -19.0977   -4.0037 C   0  0  0  0  0  0  0  0  0  0  0  0
   15.4042  -19.1427   -5.9297 C   0  0  0  0  0  0  0  0  0  0  0  0
   19.6330  -16.8916   -6.2883 O   0  0  0  0  0  0  0  0  0  0  0  0
  2  1  1  1
  2  3  1  0
  2  5  1  0
  3  4  2  0
  3 12  1  0
  5  6  1  0
  6  7  2  0
  6  8  1  0
  7  9  1  0
  8 10  2  0
  9 11  2  0
 10 11  1  0
 12 13  1  0
 12 18  1  0
 13 14  1  1
 13 16  1  0
 14 15  2  0
 14 19  1  0
 16 17  1  0
 17 18  1  0
 19 20  1  0
 20 21  1  0
 20 23  1  1
 21 22  2  0
 21 24  1  0
 25 24  1  1
 25 26  1  0
 25 33  1  0
 26 27  1  6
 26 28  1  0
 28 29  1  0
 29 30  1  6
 29 31  2  0
 29 32  1  0
 33 34  2  0
 33 35  1  0
 36 35  1  6
 36 37  1  0
 36 39  1  0
 37 38  2  0
 37 42  1  0
 39 40  1  1
 39 41  1  0
M  CHG  1   1   1
M  END
$$$$
