
     RDKit          3D

 42 43  0  0  0  0  0  0  0  0999 V2000
   13.3459    8.6927   15.5533 N   0  0  0  0  0  4  0  0  0  0  0  0
   11.9859    9.1420   15.2339 C   0  0  2  0  0  0  0  0  0  0  0  0
   11.9723    9.6280   13.8422 C   0  0  0  0  0  0  0  0  0  0  0  0
   11.7515    8.7840   12.9174 O   0  0  0  0  0  0  0  0  0  0  0  0
   11.6670   10.2233   16.2522 C   0  0  0  0  0  0  0  0  0  0  0  0
   12.8599   10.9550   16.7215 C   0  0  0  0  0  0  0  0  0  0  0  0
   14.1281   10.6134   16.3109 C   0  0  0  0  0  0  0  0  0  0  0  0
   12.7388   12.0118   17.5820 C   0  0  0  0  0  0  0  0  0  0  0  0
   15.2398   11.2900   16.7330 C   0  0  0  0  0  0  0  0  0  0  0  0
   13.8297   12.7066   18.0208 C   0  0  0  0  0  0  0  0  0  0  0  0
   15.0890   12.3459   17.5955 C   0  0  0  0  0  0  0  0  0  0  0  0
   12.1853   10.9618   13.4482 N   0  0  0  0  0  0  0  0  0  0  0  0
   12.2935   11.6084   12.1760 C   0  0  2  0  0  0  0  0  0  0  0  0
   13.6887   12.0371   11.8463 C   0  0  0  0  0  0  0  0  0  0  0  0
   14.6674   11.4725   12.4003 O   0  0  0  0  0  0  0  0  0  0  0  0
   11.3750   12.8208   12.2910 C   0  0  0  0  0  0  0  0  0  0  0  0
   11.5904   13.2366   13.7402 C   0  0  0  0  0  0  0  0  0  0  0  0
   12.3225   12.0794   14.4000 C   0  0  0  0  0  0  0  0  0  0  0  0
   13.9423   13.0765   10.9158 N   0  0  0  0  0  0  0  0  0  0  0  0
   14.4671   12.8315    9.5934 C   0  0  2  0  0  0  0  0  0  0  0  0
   14.7567   14.1285    8.8867 C   0  0  0  0  0  0  0  0  0  0  0  0
   13.8207   14.9546    8.8265 O   0  0  0  0  0  0  0  0  0  0  0  0
   13.5189   11.9536    8.8262 C   0  0  0  0  0  0  0  0  0  0  0  0
   16.0362   14.3664    8.3305 N   0  0  0  0  0  0  0  0  0  0  0  0
   16.5506   15.7244    8.2411 C   0  0  1  0  0  0  0  0  0  0  0  0
   17.8143   15.8301    9.0039 C   0  0  1  0  0  0  0  0  0  0  0  0
   17.6880   15.8793   10.5051 C   0  0  0  0  0  0  0  0  0  0  0  0
   18.6608   14.8031    8.5940 O   0  0  0  0  0  0  0  0  0  0  0  0
   20.1686   14.8392    9.2844 P   0  0  2  0  0  5  0  0  0  0  0  0
   21.0982   13.5205    8.7318 O   0  0  0  0  0  0  0  0  0  0  0  0
   20.0117   14.6473   10.7747 O   0  0  0  0  0  0  0  0  0  0  0  0
   20.9939   16.2840    9.0583 O   0  0  0  0  0  0  0  0  0  0  0  0
   16.5755   16.1007    6.8280 C   0  0  0  0  0  0  0  0  0  0  0  0
   16.7531   15.2152    5.9330 O   0  0  0  0  0  0  0  0  0  0  0  0
   16.4088   17.4192    6.3323 N   0  0  0  0  0  0  0  0  0  0  0  0
   16.4473   17.7291    4.9074 C   0  0  2  0  0  0  0  0  0  0  0  0
   16.8273   19.1330    4.6514 C   0  0  0  0  0  0  0  0  0  0  0  0
   17.2186   19.4698    3.5256 O   0  0  0  0  0  0  0  0  0  0  0  0
   15.1298   17.4008    4.2367 C   0  0  1  0  0  0  0  0  0  0  0  0
   14.9554   18.1623    2.9427 C   0  0  0  0  0  0  0  0  0  0  0  0
   14.9508   15.9236    4.0282 C   0  0  0  0  0  0  0  0  0  0  0  0
   16.7465   20.0609    5.6685 O   0  0  0  0  0  0  0  0  0  0  0  0
  2  1  1  1
  2  3  1  0
  2  5  1  0
  3  4  2  0
  3 12  1  0
  5  6  1  0
  6  7  2  0
  6  8  1  0
  7  9  1  0
  8 10  2  0
  9 11  2  0
 10 11  1  0
 12 13  1  0
 12 18  1  0
 13 14  1  1
 13 16  1  0
 14 15  2  0
 14 19  1  0
 16 17  1  0
 17 18  1  0
 19 20  1  0
 20 21  1  0
 20 23  1  6
 21 22  2  0
 21 24  1  0
 25 24  1  6
 25 26  1  0
 25 33  1  0
 26 27  1  1
 26 28  1  0
 28 29  1  0
 29 30  1  6
 29 31  2  0
 29 32  1  0
 33 34  2  0
 33 35  1  0
 36 35  1  1
 36 37  1  0
 36 39  1  0
 37 38  2  0
 37 42  1  0
 39 40  1  6
 39 41  1  0
M  CHG  1   1   1
M  END
$$$$
