
     RDKit          3D

 42 43  0  0  0  0  0  0  0  0999 V2000
    9.7366   -8.1466  -13.6683 N   0  0  0  0  0  4  0  0  0  0  0  0
   11.0523   -8.7003  -13.3281 C   0  0  2  0  0  0  0  0  0  0  0  0
   11.3869   -9.7425  -14.3156 C   0  0  0  0  0  0  0  0  0  0  0  0
   11.0716   -9.5372  -15.5300 O   0  0  0  0  0  0  0  0  0  0  0  0
   10.9132   -9.2345  -11.9129 C   0  0  0  0  0  0  0  0  0  0  0  0
    9.5309   -9.6182  -11.5656 C   0  0  0  0  0  0  0  0  0  0  0  0
    8.5236   -8.6862  -11.4636 C   0  0  0  0  0  0  0  0  0  0  0  0
    9.2040  -10.9274  -11.3400 C   0  0  0  0  0  0  0  0  0  0  0  0
    7.2373   -9.0318  -11.1506 C   0  0  0  0  0  0  0  0  0  0  0  0
    7.9290  -11.3032  -11.0258 C   0  0  0  0  0  0  0  0  0  0  0  0
    6.9376  -10.3520  -10.9299 C   0  0  0  0  0  0  0  0  0  0  0  0
   12.0328  -10.9578  -14.0230 N   0  0  0  0  0  0  0  0  0  0  0  0
   11.9574  -11.8751  -12.9271 C   0  0  2  0  0  0  0  0  0  0  0  0
   13.1647  -11.8426  -12.0435 C   0  0  0  0  0  0  0  0  0  0  0  0
   13.8155  -10.7743  -11.9072 O   0  0  0  0  0  0  0  0  0  0  0  0
   11.8166  -13.2418  -13.5896 C   0  0  0  0  0  0  0  0  0  0  0  0
   12.7091  -13.0864  -14.8138 C   0  0  0  0  0  0  0  0  0  0  0  0
   13.0059  -11.5999  -14.9254 C   0  0  0  0  0  0  0  0  0  0  0  0
   13.6025  -12.9977  -11.3475 N   0  0  0  0  0  0  0  0  0  0  0  0
   14.2623  -12.9348  -10.0649 C   0  0  2  0  0  0  0  0  0  0  0  0
   14.7963  -14.2866   -9.6739 C   0  0  0  0  0  0  0  0  0  0  0  0
   13.9616  -15.2118   -9.5768 O   0  0  0  0  0  0  0  0  0  0  0  0
   13.3236  -12.3645   -9.0393 C   0  0  0  0  0  0  0  0  0  0  0  0
   16.1802  -14.4643   -9.4360 N   0  0  0  0  0  0  0  0  0  0  0  0
   16.6755  -15.7369   -8.9342 C   0  0  1  0  0  0  0  0  0  0  0  0
   18.0070  -16.0179   -9.5155 C   0  0  1  0  0  0  0  0  0  0  0  0
   18.0245  -16.5235  -10.9353 C   0  0  0  0  0  0  0  0  0  0  0  0
   18.7990  -14.8822   -9.3660 O   0  0  0  0  0  0  0  0  0  0  0  0
   20.4095  -15.1215   -9.6825 P   0  0  2  0  0  5  0  0  0  0  0  0
   21.0335  -16.3365   -8.6613 O   0  0  0  0  0  0  0  0  0  0  0  0
   21.1543  -13.8547   -9.3319 O   0  0  0  0  0  0  0  0  0  0  0  0
   20.7507  -15.4641  -11.2906 O   0  0  0  0  0  0  0  0  0  0  0  0
   16.5600  -15.7178   -7.4763 C   0  0  0  0  0  0  0  0  0  0  0  0
   16.3743  -14.6195   -6.8634 O   0  0  0  0  0  0  0  0  0  0  0  0
   16.6339  -16.8594   -6.6376 N   0  0  0  0  0  0  0  0  0  0  0  0
   16.6560  -16.7599   -5.1824 C   0  0  2  0  0  0  0  0  0  0  0  0
   18.0035  -16.9972   -4.6270 C   0  0  0  0  0  0  0  0  0  0  0  0
   18.9446  -17.2648   -5.3866 O   0  0  0  0  0  0  0  0  0  0  0  0
   15.6451  -17.6943   -4.5512 C   0  0  1  0  0  0  0  0  0  0  0  0
   14.3166  -17.0103   -4.3233 C   0  0  0  0  0  0  0  0  0  0  0  0
   15.4766  -18.9640   -5.3369 C   0  0  0  0  0  0  0  0  0  0  0  0
   18.2061  -16.9218   -3.2649 O   0  0  0  0  0  0  0  0  0  0  0  0
  2  1  1  6
  2  3  1  0
  2  5  1  0
  3  4  2  0
  3 12  1  0
  5  6  1  0
  6  7  2  0
  6  8  1  0
  7  9  1  0
  8 10  2  0
  9 11  2  0
 10 11  1  0
 12 13  1  0
 12 18  1  0
 13 14  1  6
 13 16  1  0
 14 15  2  0
 14 19  1  0
 16 17  1  0
 17 18  1  0
 19 20  1  0
 20 21  1  0
 20 23  1  1
 21 22  2  0
 21 24  1  0
 25 24  1  1
 25 26  1  0
 25 33  1  0
 26 27  1  6
 26 28  1  0
 28 29  1  0
 29 30  1  1
 29 31  2  0
 29 32  1  0
 33 34  2  0
 33 35  1  0
 36 35  1  6
 36 37  1  0
 36 39  1  0
 37 38  2  0
 37 42  1  0
 39 40  1  6
 39 41  1  0
M  CHG  1   1   1
M  END
$$$$
