
     RDKit          3D

 42 43  0  0  0  0  0  0  0  0999 V2000
   10.4757    8.9698   16.4045 N   0  0  0  0  0  4  0  0  0  0  0  0
   11.7544    9.1965   15.7211 C   0  0  2  0  0  0  0  0  0  0  0  0
   11.5901   10.3300   14.7929 C   0  0  0  0  0  0  0  0  0  0  0  0
   10.4874   10.4353   14.1687 O   0  0  0  0  0  0  0  0  0  0  0  0
   12.0772    7.8874   15.0213 C   0  0  0  0  0  0  0  0  0  0  0  0
   11.1562    7.5749   13.9111 C   0  0  0  0  0  0  0  0  0  0  0  0
    9.9058    8.1429   13.8245 C   0  0  0  0  0  0  0  0  0  0  0  0
   11.5249    6.7076   12.9192 C   0  0  0  0  0  0  0  0  0  0  0  0
    9.0474    7.8668   12.7955 C   0  0  0  0  0  0  0  0  0  0  0  0
   10.6901    6.4123   11.8793 C   0  0  0  0  0  0  0  0  0  0  0  0
    9.4434    6.9938   11.8144 C   0  0  0  0  0  0  0  0  0  0  0  0
   12.5617   11.3152   14.5378 N   0  0  0  0  0  0  0  0  0  0  0  0
   12.5556   12.5351   13.7895 C   0  0  2  0  0  0  0  0  0  0  0  0
   13.3336   12.4513   12.5140 C   0  0  0  0  0  0  0  0  0  0  0  0
   13.6032   11.3282   12.0145 O   0  0  0  0  0  0  0  0  0  0  0  0
   13.1826   13.5576   14.7319 C   0  0  0  0  0  0  0  0  0  0  0  0
   14.2447   12.7217   15.4339 C   0  0  0  0  0  0  0  0  0  0  0  0
   13.9267   11.2749   15.0935 C   0  0  0  0  0  0  0  0  0  0  0  0
   13.7830   13.6176   11.8443 N   0  0  0  0  0  0  0  0  0  0  0  0
   13.6294   13.8108   10.4219 C   0  0  2  0  0  0  0  0  0  0  0  0
   14.3861   15.0292    9.9653 C   0  0  0  0  0  0  0  0  0  0  0  0
   13.7140   16.0641    9.7669 O   0  0  0  0  0  0  0  0  0  0  0  0
   12.1689   13.8721   10.0733 C   0  0  0  0  0  0  0  0  0  0  0  0
   15.7880   14.9692    9.7805 N   0  0  0  0  0  0  0  0  0  0  0  0
   16.5215   16.1600    9.3796 C   0  0  1  0  0  0  0  0  0  0  0  0
   17.8973   16.1043    9.9219 C   0  0  1  0  0  0  0  0  0  0  0  0
   18.0297   15.7199   11.3734 C   0  0  0  0  0  0  0  0  0  0  0  0
   18.6588   15.2764    9.1009 O   0  0  0  0  0  0  0  0  0  0  0  0
   20.1875   14.9675    9.6655 P   0  0  2  0  0  5  0  0  0  0  0  0
   20.1099   14.3024   11.2340 O   0  0  0  0  0  0  0  0  0  0  0  0
   20.9165   16.2836    9.8029 O   0  0  0  0  0  0  0  0  0  0  0  0
   21.1110   13.9965    8.6536 O   0  0  0  0  0  0  0  0  0  0  0  0
   16.3660   16.3150    7.9336 C   0  0  0  0  0  0  0  0  0  0  0  0
   15.8866   15.3661    7.2362 O   0  0  0  0  0  0  0  0  0  0  0  0
   16.7100   17.4771    7.1965 N   0  0  0  0  0  0  0  0  0  0  0  0
   16.9186   17.4536    5.7530 C   0  0  2  0  0  0  0  0  0  0  0  0
   18.3406   17.6215    5.3916 C   0  0  0  0  0  0  0  0  0  0  0  0
   19.1673   17.9180    6.2650 O   0  0  0  0  0  0  0  0  0  0  0  0
   16.0635   18.4912    5.0561 C   0  0  1  0  0  0  0  0  0  0  0  0
   14.9369   17.8548    4.2746 C   0  0  0  0  0  0  0  0  0  0  0  0
   15.5464   19.5333    6.0070 C   0  0  0  0  0  0  0  0  0  0  0  0
   18.7397   17.4494    4.0828 O   0  0  0  0  0  0  0  0  0  0  0  0
  2  1  1  6
  2  3  1  0
  2  5  1  0
  3  4  2  0
  3 12  1  0
  5  6  1  0
  6  7  2  0
  6  8  1  0
  7  9  1  0
  8 10  2  0
  9 11  2  0
 10 11  1  0
 12 13  1  0
 12 18  1  0
 13 14  1  6
 13 16  1  0
 14 15  2  0
 14 19  1  0
 16 17  1  0
 17 18  1  0
 19 20  1  0
 20 21  1  0
 20 23  1  1
 21 22  2  0
 21 24  1  0
 25 24  1  6
 25 26  1  0
 25 33  1  0
 26 27  1  1
 26 28  1  0
 28 29  1  0
 29 30  1  1
 29 31  2  0
 29 32  1  0
 33 34  2  0
 33 35  1  0
 36 35  1  1
 36 37  1  0
 36 39  1  0
 37 38  2  0
 37 42  1  0
 39 40  1  1
 39 41  1  0
M  CHG  1   1   1
M  END
$$$$
