
     RDKit          3D

 42 43  0  0  0  0  0  0  0  0999 V2000
   10.4951  -10.6433  -15.5197 N   0  0  0  0  0  4  0  0  0  0  0  0
   11.5713  -11.3537  -16.2202 C   0  0  2  0  0  0  0  0  0  0  0  0
   12.5389  -11.8353  -15.2177 C   0  0  0  0  0  0  0  0  0  0  0  0
   13.3897  -12.7077  -15.5803 O   0  0  0  0  0  0  0  0  0  0  0  0
   12.1608  -10.3423  -17.1884 C   0  0  0  0  0  0  0  0  0  0  0  0
   11.9740   -8.9428  -16.7582 C   0  0  0  0  0  0  0  0  0  0  0  0
   11.2466   -8.0454  -17.5061 C   0  0  0  0  0  0  0  0  0  0  0  0
   12.5177   -8.4926  -15.5862 C   0  0  0  0  0  0  0  0  0  0  0  0
   11.0602   -6.7483  -17.1127 C   0  0  0  0  0  0  0  0  0  0  0  0
   12.3490   -7.2037  -15.1671 C   0  0  0  0  0  0  0  0  0  0  0  0
   11.6163   -6.3240  -15.9328 C   0  0  0  0  0  0  0  0  0  0  0  0
   12.6001  -11.4053  -13.8794 N   0  0  0  0  0  0  0  0  0  0  0  0
   13.6688  -11.2610  -12.9384 C   0  0  2  0  0  0  0  0  0  0  0  0
   13.6508  -12.2967  -11.8585 C   0  0  0  0  0  0  0  0  0  0  0  0
   12.8475  -13.2629  -11.9272 O   0  0  0  0  0  0  0  0  0  0  0  0
   13.4646   -9.8695  -12.3479 C   0  0  0  0  0  0  0  0  0  0  0  0
   11.9455   -9.7790  -12.2855 C   0  0  0  0  0  0  0  0  0  0  0  0
   11.4257  -10.9379  -13.1204 C   0  0  0  0  0  0  0  0  0  0  0  0
   14.5242  -12.2180  -10.7443 N   0  0  0  0  0  0  0  0  0  0  0  0
   14.1982  -12.7777   -9.4540 C   0  0  2  0  0  0  0  0  0  0  0  0
   14.8048  -14.1465   -9.2988 C   0  0  0  0  0  0  0  0  0  0  0  0
   14.1339  -15.1085   -9.7303 O   0  0  0  0  0  0  0  0  0  0  0  0
   12.7075  -12.7803   -9.2644 C   0  0  0  0  0  0  0  0  0  0  0  0
   16.0734  -14.2985   -8.6898 N   0  0  0  0  0  0  0  0  0  0  0  0
   16.7181  -15.6026   -8.6656 C   0  0  1  0  0  0  0  0  0  0  0  0
   18.1751  -15.4423   -8.8692 C   0  0  1  0  0  0  0  0  0  0  0  0
   18.8813  -16.5738   -9.5713 C   0  0  0  0  0  0  0  0  0  0  0  0
   18.3970  -14.2247   -9.5075 O   0  0  0  0  0  0  0  0  0  0  0  0
   19.9958  -13.8668   -9.7669 P   0  0  2  0  0  5  0  0  0  0  0  0
   20.1402  -12.3495  -10.5322 O   0  0  0  0  0  0  0  0  0  0  0  0
   20.5569  -14.8810  -10.7359 O   0  0  0  0  0  0  0  0  0  0  0  0
   20.9471  -13.9278   -8.3845 O   0  0  0  0  0  0  0  0  0  0  0  0
   16.2724  -16.2991   -7.4592 C   0  0  0  0  0  0  0  0  0  0  0  0
   15.2193  -15.9219   -6.8547 O   0  0  0  0  0  0  0  0  0  0  0  0
   16.9279  -17.4106   -6.8703 N   0  0  0  0  0  0  0  0  0  0  0  0
   16.8804  -17.6763   -5.4368 C   0  0  2  0  0  0  0  0  0  0  0  0
   18.0224  -18.4949   -4.9825 C   0  0  0  0  0  0  0  0  0  0  0  0
   18.7959  -18.9887   -5.8144 O   0  0  0  0  0  0  0  0  0  0  0  0
   15.5688  -18.3207   -5.0394 C   0  0  1  0  0  0  0  0  0  0  0  0
   15.5288  -19.7849   -5.4125 C   0  0  0  0  0  0  0  0  0  0  0  0
   15.2552  -18.1204   -3.5837 C   0  0  0  0  0  0  0  0  0  0  0  0
   18.2199  -18.7069   -3.6342 O   0  0  0  0  0  0  0  0  0  0  0  0
  2  1  1  1
  2  3  1  0
  2  5  1  0
  3  4  2  0
  3 12  1  0
  5  6  1  0
  6  7  2  0
  6  8  1  0
  7  9  1  0
  8 10  2  0
  9 11  2  0
 10 11  1  0
 12 13  1  0
 12 18  1  0
 13 14  1  1
 13 16  1  0
 14 15  2  0
 14 19  1  0
 16 17  1  0
 17 18  1  0
 19 20  1  0
 20 21  1  0
 20 23  1  6
 21 22  2  0
 21 24  1  0
 25 24  1  1
 25 26  1  0
 25 33  1  0
 26 27  1  6
 26 28  1  0
 28 29  1  0
 29 30  1  6
 29 31  2  0
 29 32  1  0
 33 34  2  0
 33 35  1  0
 36 35  1  6
 36 37  1  0
 36 39  1  0
 37 38  2  0
 37 42  1  0
 39 40  1  1
 39 41  1  0
M  CHG  1   1   1
M  END
$$$$
