
     RDKit          3D

 42 43  0  0  0  0  0  0  0  0999 V2000
   14.9129    9.3208   17.1237 N   0  0  0  0  0  4  0  0  0  0  0  0
   14.0740    9.0041   15.9620 C   0  0  2  0  0  0  0  0  0  0  0  0
   14.7291    9.5421   14.7559 C   0  0  0  0  0  0  0  0  0  0  0  0
   15.9898    9.7041   14.7834 O   0  0  0  0  0  0  0  0  0  0  0  0
   12.7259    9.6422   16.2502 C   0  0  0  0  0  0  0  0  0  0  0  0
   12.8154   11.0808   16.5678 C   0  0  0  0  0  0  0  0  0  0  0  0
   13.9951   11.7785   16.4442 C   0  0  0  0  0  0  0  0  0  0  0  0
   11.7144   11.7736   16.9917 C   0  0  0  0  0  0  0  0  0  0  0  0
   14.0874   13.1138   16.7278 C   0  0  0  0  0  0  0  0  0  0  0  0
   11.7753   13.1068   17.2823 C   0  0  0  0  0  0  0  0  0  0  0  0
   12.9675   13.7836   17.1505 C   0  0  0  0  0  0  0  0  0  0  0  0
   14.0685    9.8946   13.5646 N   0  0  0  0  0  0  0  0  0  0  0  0
   14.5214   10.3149   12.2737 C   0  0  2  0  0  0  0  0  0  0  0  0
   14.2728   11.7653   12.0022 C   0  0  0  0  0  0  0  0  0  0  0  0
   13.5803   12.4453   12.8033 O   0  0  0  0  0  0  0  0  0  0  0  0
   13.7346    9.4460   11.2978 C   0  0  0  0  0  0  0  0  0  0  0  0
   12.3831    9.3451   11.9926 C   0  0  0  0  0  0  0  0  0  0  0  0
   12.6031    9.8596   13.4058 C   0  0  0  0  0  0  0  0  0  0  0  0
   14.8015   12.4031   10.8515 N   0  0  0  0  0  0  0  0  0  0  0  0
   13.9725   13.0771    9.8805 C   0  0  2  0  0  0  0  0  0  0  0  0
   14.5667   14.4081    9.5054 C   0  0  0  0  0  0  0  0  0  0  0  0
   13.9987   15.0359    8.5860 O   0  0  0  0  0  0  0  0  0  0  0  0
   12.5701   13.1971   10.4073 C   0  0  0  0  0  0  0  0  0  0  0  0
   15.7116   14.8930   10.1816 N   0  0  0  0  0  0  0  0  0  0  0  0
   16.4475   16.0283    9.6462 C   0  0  1  0  0  0  0  0  0  0  0  0
   17.8820   15.8971    9.9849 C   0  0  1  0  0  0  0  0  0  0  0  0
   18.1996   15.3377   11.3481 C   0  0  0  0  0  0  0  0  0  0  0  0
   18.5062   15.1701    8.9743 O   0  0  0  0  0  0  0  0  0  0  0  0
   19.6795   14.1245    9.5049 P   0  0  2  0  0  5  0  0  0  0  0  0
   21.0326   14.9977   10.0664 O   0  0  0  0  0  0  0  0  0  0  0  0
   20.1622   13.3156    8.3237 O   0  0  0  0  0  0  0  0  0  0  0  0
   19.1530   13.0328   10.6670 O   0  0  0  0  0  0  0  0  0  0  0  0
   16.0916   16.1657    8.2343 C   0  0  0  0  0  0  0  0  0  0  0  0
   15.4647   15.2336    7.6387 O   0  0  0  0  0  0  0  0  0  0  0  0
   16.3873   17.2925    7.4249 N   0  0  0  0  0  0  0  0  0  0  0  0
   16.7288   17.1717    6.0119 C   0  0  2  0  0  0  0  0  0  0  0  0
   18.0199   17.8136    5.6928 C   0  0  0  0  0  0  0  0  0  0  0  0
   18.4729   18.6912    6.4402 O   0  0  0  0  0  0  0  0  0  0  0  0
   15.6264   17.7200    5.1301 C   0  0  1  0  0  0  0  0  0  0  0  0
   15.4235   19.2024    5.3443 C   0  0  0  0  0  0  0  0  0  0  0  0
   15.8502   17.4047    3.6782 C   0  0  0  0  0  0  0  0  0  0  0  0
   18.7130   17.4336    4.5626 O   0  0  0  0  0  0  0  0  0  0  0  0
  2  1  1  1
  2  3  1  0
  2  5  1  0
  3  4  2  0
  3 12  1  0
  5  6  1  0
  6  7  2  0
  6  8  1  0
  7  9  1  0
  8 10  2  0
  9 11  2  0
 10 11  1  0
 12 13  1  0
 12 18  1  0
 13 14  1  6
 13 16  1  0
 14 15  2  0
 14 19  1  0
 16 17  1  0
 17 18  1  0
 19 20  1  0
 20 21  1  0
 20 23  1  1
 21 22  2  0
 21 24  1  0
 25 24  1  6
 25 26  1  0
 25 33  1  0
 26 27  1  1
 26 28  1  0
 28 29  1  0
 29 30  1  1
 29 31  2  0
 29 32  1  0
 33 34  2  0
 33 35  1  0
 36 35  1  1
 36 37  1  0
 36 39  1  0
 37 38  2  0
 37 42  1  0
 39 40  1  6
 39 41  1  0
M  CHG  1   1   1
M  END
$$$$
