
     RDKit          3D

 42 43  0  0  0  0  0  0  0  0999 V2000
   13.9757    7.9636   13.2202 N   0  0  0  0  0  4  0  0  0  0  0  0
   13.7920    8.9533   14.2880 C   0  0  2  0  0  0  0  0  0  0  0  0
   12.9759   10.0610   13.7588 C   0  0  0  0  0  0  0  0  0  0  0  0
   12.1242    9.7951   12.8530 O   0  0  0  0  0  0  0  0  0  0  0  0
   15.1935    9.3779   14.6920 C   0  0  0  0  0  0  0  0  0  0  0  0
   15.9269   10.0738   13.6166 C   0  0  0  0  0  0  0  0  0  0  0  0
   16.9800   10.9177   13.8858 C   0  0  0  0  0  0  0  0  0  0  0  0
   15.5832    9.8926   12.3048 C   0  0  0  0  0  0  0  0  0  0  0  0
   17.6719   11.5612   12.8963 C   0  0  0  0  0  0  0  0  0  0  0  0
   16.2550   10.5211   11.2952 C   0  0  0  0  0  0  0  0  0  0  0  0
   17.3061   11.3609   11.5896 C   0  0  0  0  0  0  0  0  0  0  0  0
   13.0616   11.4017   14.1771 N   0  0  0  0  0  0  0  0  0  0  0  0
   12.3976   12.6040   13.7749 C   0  0  2  0  0  0  0  0  0  0  0  0
   13.2762   13.5348   12.9996 C   0  0  0  0  0  0  0  0  0  0  0  0
   14.5277   13.4284   13.0766 O   0  0  0  0  0  0  0  0  0  0  0  0
   11.9610   13.2492   15.0863 C   0  0  0  0  0  0  0  0  0  0  0  0
   13.1295   12.9105   16.0026 C   0  0  0  0  0  0  0  0  0  0  0  0
   13.9437   11.8594   15.2662 C   0  0  0  0  0  0  0  0  0  0  0  0
   12.7307   14.5477   12.1708 N   0  0  0  0  0  0  0  0  0  0  0  0
   12.9995   14.6285   10.7547 C   0  0  2  0  0  0  0  0  0  0  0  0
   14.2698   15.3934   10.4966 C   0  0  0  0  0  0  0  0  0  0  0  0
   14.6683   16.1431   11.4137 O   0  0  0  0  0  0  0  0  0  0  0  0
   11.8134   15.2202   10.0464 C   0  0  0  0  0  0  0  0  0  0  0  0
   14.9522   15.2463    9.2654 N   0  0  0  0  0  0  0  0  0  0  0  0
   16.2491   15.8767    9.0715 C   0  0  1  0  0  0  0  0  0  0  0  0
   17.2995   15.0692    9.7306 C   0  0  1  0  0  0  0  0  0  0  0  0
   17.2645   13.5849    9.4709 C   0  0  0  0  0  0  0  0  0  0  0  0
   18.5391   15.6167    9.4097 O   0  0  0  0  0  0  0  0  0  0  0  0
   19.8309   14.8523   10.1157 P   0  0  2  0  0  5  0  0  0  0  0  0
   21.2498   15.7718    9.8925 O   0  0  0  0  0  0  0  0  0  0  0  0
   20.0597   13.5449    9.3940 O   0  0  0  0  0  0  0  0  0  0  0  0
   19.6096   14.4862   11.7395 O   0  0  0  0  0  0  0  0  0  0  0  0
   16.4012   16.1560    7.6439 C   0  0  0  0  0  0  0  0  0  0  0  0
   15.5051   15.7873    6.8206 O   0  0  0  0  0  0  0  0  0  0  0  0
   17.5010   16.8341    7.0584 N   0  0  0  0  0  0  0  0  0  0  0  0
   17.5933   17.0803    5.6236 C   0  0  2  0  0  0  0  0  0  0  0  0
   18.9869   17.2882    5.1814 C   0  0  0  0  0  0  0  0  0  0  0  0
   19.8784   17.4738    6.0209 O   0  0  0  0  0  0  0  0  0  0  0  0
   16.7205   18.2459    5.2076 C   0  0  1  0  0  0  0  0  0  0  0  0
   15.2998   18.0843    5.6978 C   0  0  0  0  0  0  0  0  0  0  0  0
   17.2966   19.5671    5.6322 C   0  0  0  0  0  0  0  0  0  0  0  0
   19.2873   17.2768    3.8355 O   0  0  0  0  0  0  0  0  0  0  0  0
  2  1  1  6
  2  3  1  0
  2  5  1  0
  3  4  2  0
  3 12  1  0
  5  6  1  0
  6  7  2  0
  6  8  1  0
  7  9  1  0
  8 10  2  0
  9 11  2  0
 10 11  1  0
 12 13  1  0
 12 18  1  0
 13 14  1  1
 13 16  1  0
 14 15  2  0
 14 19  1  0
 16 17  1  0
 17 18  1  0
 19 20  1  0
 20 21  1  0
 20 23  1  6
 21 22  2  0
 21 24  1  0
 25 24  1  6
 25 26  1  0
 25 33  1  0
 26 27  1  6
 26 28  1  0
 28 29  1  0
 29 30  1  1
 29 31  2  0
 29 32  1  0
 33 34  2  0
 33 35  1  0
 36 35  1  1
 36 37  1  0
 36 39  1  0
 37 38  2  0
 37 42  1  0
 39 40  1  1
 39 41  1  0
M  CHG  1   1   1
M  END
$$$$
