
     RDKit          3D

 42 43  0  0  0  0  0  0  0  0999 V2000
   12.9900   -8.4355  -14.9383 N   0  0  0  0  0  4  0  0  0  0  0  0
   11.6358   -8.9050  -14.6238 C   0  0  2  0  0  0  0  0  0  0  0  0
   11.6563   -9.5164  -13.2824 C   0  0  0  0  0  0  0  0  0  0  0  0
   11.4113   -8.7702  -12.2826 O   0  0  0  0  0  0  0  0  0  0  0  0
   11.2812   -9.8869  -15.7273 C   0  0  0  0  0  0  0  0  0  0  0  0
   12.4477  -10.6224  -16.2532 C   0  0  0  0  0  0  0  0  0  0  0  0
   13.7222  -10.3868  -15.7906 C   0  0  0  0  0  0  0  0  0  0  0  0
   12.2947  -11.5768  -17.2215 C   0  0  0  0  0  0  0  0  0  0  0  0
   14.8094  -11.0686  -16.2650 C   0  0  0  0  0  0  0  0  0  0  0  0
   13.3607  -12.2738  -17.7148 C   0  0  0  0  0  0  0  0  0  0  0  0
   14.6268  -12.0204  -17.2355 C   0  0  0  0  0  0  0  0  0  0  0  0
   11.9270  -10.8707  -13.0138 N   0  0  0  0  0  0  0  0  0  0  0  0
   11.6856  -11.7194  -11.8870 C   0  0  2  0  0  0  0  0  0  0  0  0
   12.9273  -12.0573  -11.1234 C   0  0  0  0  0  0  0  0  0  0  0  0
   12.9836  -13.1211  -10.4535 O   0  0  0  0  0  0  0  0  0  0  0  0
   11.0695  -12.9781  -12.4894 C   0  0  0  0  0  0  0  0  0  0  0  0
   11.8398  -13.1052  -13.7970 C   0  0  0  0  0  0  0  0  0  0  0  0
   12.5628  -11.7813  -13.9835 C   0  0  0  0  0  0  0  0  0  0  0  0
   14.0568  -11.2002  -11.1323 N   0  0  0  0  0  0  0  0  0  0  0  0
   15.2635  -11.4889  -10.3941 C   0  0  2  0  0  0  0  0  0  0  0  0
   15.1886  -12.8538   -9.7641 C   0  0  0  0  0  0  0  0  0  0  0  0
   14.0454  -13.3262   -9.5855 O   0  0  0  0  0  0  0  0  0  0  0  0
   15.5156  -10.4005   -9.3891 C   0  0  0  0  0  0  0  0  0  0  0  0
   16.3741  -13.5385   -9.4050 N   0  0  0  0  0  0  0  0  0  0  0  0
   16.3040  -14.9025   -8.9035 C   0  0  1  0  0  0  0  0  0  0  0  0
   17.5026  -15.6550   -9.3361 C   0  0  1  0  0  0  0  0  0  0  0  0
   17.5874  -15.9933  -10.8025 C   0  0  0  0  0  0  0  0  0  0  0  0
   18.6326  -14.9661   -8.9027 O   0  0  0  0  0  0  0  0  0  0  0  0
   20.0096  -15.2921   -9.7682 P   0  0  2  0  0  5  0  0  0  0  0  0
   19.6063  -15.7518  -11.3603 O   0  0  0  0  0  0  0  0  0  0  0  0
   20.6884  -16.4891   -9.1446 O   0  0  0  0  0  0  0  0  0  0  0  0
   21.1288  -14.0405   -9.7767 O   0  0  0  0  0  0  0  0  0  0  0  0
   16.0224  -14.8375   -7.4698 C   0  0  0  0  0  0  0  0  0  0  0  0
   15.8466  -13.7134   -6.9024 O   0  0  0  0  0  0  0  0  0  0  0  0
   15.9165  -15.9593   -6.6081 N   0  0  0  0  0  0  0  0  0  0  0  0
   15.6631  -15.8248   -5.1778 C   0  0  2  0  0  0  0  0  0  0  0  0
   16.2203  -16.9522   -4.4037 C   0  0  0  0  0  0  0  0  0  0  0  0
   16.2874  -16.8783   -3.1692 O   0  0  0  0  0  0  0  0  0  0  0  0
   14.1847  -15.6598   -4.8937 C   0  0  1  0  0  0  0  0  0  0  0  0
   13.9240  -15.3758   -3.4321 C   0  0  0  0  0  0  0  0  0  0  0  0
   13.5497  -14.6198   -5.7727 C   0  0  0  0  0  0  0  0  0  0  0  0
   16.6652  -18.0805   -5.0603 O   0  0  0  0  0  0  0  0  0  0  0  0
  2  1  1  6
  2  3  1  0
  2  5  1  0
  3  4  2  0
  3 12  1  0
  5  6  1  0
  6  7  2  0
  6  8  1  0
  7  9  1  0
  8 10  2  0
  9 11  2  0
 10 11  1  0
 12 13  1  0
 12 18  1  0
 13 14  1  6
 13 16  1  0
 14 15  2  0
 14 19  1  0
 16 17  1  0
 17 18  1  0
 19 20  1  0
 20 21  1  0
 20 23  1  1
 21 22  2  0
 21 24  1  0
 25 24  1  1
 25 26  1  0
 25 33  1  0
 26 27  1  6
 26 28  1  0
 28 29  1  0
 29 30  1  6
 29 31  2  0
 29 32  1  0
 33 34  2  0
 33 35  1  0
 36 35  1  6
 36 37  1  0
 36 39  1  0
 37 38  2  0
 37 42  1  0
 39 40  1  1
 39 41  1  0
M  CHG  1   1   1
M  END
$$$$
