
     RDKit          3D

 42 43  0  0  0  0  0  0  0  0999 V2000
   11.8906    7.9798   16.4680 N   0  0  0  0  0  4  0  0  0  0  0  0
   12.9656    8.5953   15.6814 C   0  0  2  0  0  0  0  0  0  0  0  0
   12.4106    9.7602   14.9685 C   0  0  0  0  0  0  0  0  0  0  0  0
   11.2169    9.6831   14.5377 O   0  0  0  0  0  0  0  0  0  0  0  0
   13.4641    7.5021   14.7518 C   0  0  0  0  0  0  0  0  0  0  0  0
   14.3296    6.5128   15.4231 C   0  0  0  0  0  0  0  0  0  0  0  0
   13.8675    5.2650   15.7740 C   0  0  0  0  0  0  0  0  0  0  0  0
   15.6340    6.8068   15.7129 C   0  0  0  0  0  0  0  0  0  0  0  0
   14.6634    4.3374   16.3890 C   0  0  0  0  0  0  0  0  0  0  0  0
   16.4528    5.9018   16.3261 C   0  0  0  0  0  0  0  0  0  0  0  0
   15.9675    4.6589   16.6672 C   0  0  0  0  0  0  0  0  0  0  0  0
   13.0988   10.9626   14.7228 N   0  0  0  0  0  0  0  0  0  0  0  0
   12.7504   12.1786   14.0534 C   0  0  2  0  0  0  0  0  0  0  0  0
   13.4375   12.3466   12.7347 C   0  0  0  0  0  0  0  0  0  0  0  0
   14.1794   11.4320   12.2913 O   0  0  0  0  0  0  0  0  0  0  0  0
   13.1772   13.2768   15.0222 C   0  0  0  0  0  0  0  0  0  0  0  0
   14.4535   12.6912   15.6119 C   0  0  0  0  0  0  0  0  0  0  0  0
   14.4683   11.2283   15.1998 C   0  0  0  0  0  0  0  0  0  0  0  0
   13.2751   13.5238   11.9613 N   0  0  0  0  0  0  0  0  0  0  0  0
   13.5884   13.5839   10.5533 C   0  0  2  0  0  0  0  0  0  0  0  0
   14.4775   14.7613   10.2555 C   0  0  0  0  0  0  0  0  0  0  0  0
   14.1101   15.8683   10.7043 O   0  0  0  0  0  0  0  0  0  0  0  0
   12.3175   13.6009    9.7513 C   0  0  0  0  0  0  0  0  0  0  0  0
   15.6628   14.5861    9.5019 N   0  0  0  0  0  0  0  0  0  0  0  0
   16.5212   15.7263    9.2190 C   0  0  1  0  0  0  0  0  0  0  0  0
   17.8928   15.4493    9.7003 C   0  0  1  0  0  0  0  0  0  0  0  0
   18.0467   15.2063   11.1800 C   0  0  0  0  0  0  0  0  0  0  0  0
   18.4164   14.3987    8.9511 O   0  0  0  0  0  0  0  0  0  0  0  0
   19.9339   13.9146    9.4140 P   0  0  2  0  0  5  0  0  0  0  0  0
   19.8952   13.3080   11.0075 O   0  0  0  0  0  0  0  0  0  0  0  0
   20.8288   15.1313    9.4494 O   0  0  0  0  0  0  0  0  0  0  0  0
   20.6494   12.8072    8.3741 O   0  0  0  0  0  0  0  0  0  0  0  0
   16.3525   16.0734    7.8082 C   0  0  0  0  0  0  0  0  0  0  0  0
   15.5477   15.4128    7.0785 O   0  0  0  0  0  0  0  0  0  0  0  0
   17.0274   17.1280    7.1417 N   0  0  0  0  0  0  0  0  0  0  0  0
   16.9863   17.2896    5.6926 C   0  0  2  0  0  0  0  0  0  0  0  0
   18.3265   17.5251    5.1188 C   0  0  0  0  0  0  0  0  0  0  0  0
   19.2799   17.7829    5.8662 O   0  0  0  0  0  0  0  0  0  0  0  0
   16.0301   18.3922    5.2884 C   0  0  1  0  0  0  0  0  0  0  0  0
   16.5311   19.7524    5.7167 C   0  0  0  0  0  0  0  0  0  0  0  0
   15.7188   18.3641    3.8187 C   0  0  0  0  0  0  0  0  0  0  0  0
   18.5083   17.4589    3.7534 O   0  0  0  0  0  0  0  0  0  0  0  0
  2  1  1  1
  2  3  1  0
  2  5  1  0
  3  4  2  0
  3 12  1  0
  5  6  1  0
  6  7  2  0
  6  8  1  0
  7  9  1  0
  8 10  2  0
  9 11  2  0
 10 11  1  0
 12 13  1  0
 12 18  1  0
 13 14  1  6
 13 16  1  0
 14 15  2  0
 14 19  1  0
 16 17  1  0
 17 18  1  0
 19 20  1  0
 20 21  1  0
 20 23  1  6
 21 22  2  0
 21 24  1  0
 25 24  1  6
 25 26  1  0
 25 33  1  0
 26 27  1  1
 26 28  1  0
 28 29  1  0
 29 30  1  1
 29 31  2  0
 29 32  1  0
 33 34  2  0
 33 35  1  0
 36 35  1  1
 36 37  1  0
 36 39  1  0
 37 38  2  0
 37 42  1  0
 39 40  1  6
 39 41  1  0
M  CHG  1   1   1
M  END
$$$$
