
     RDKit          3D

 42 43  0  0  0  0  0  0  0  0999 V2000
   15.3399   -9.8757  -15.3912 N   0  0  0  0  0  4  0  0  0  0  0  0
   14.5020   -9.1104  -14.4606 C   0  0  2  0  0  0  0  0  0  0  0  0
   13.5582  -10.0401  -13.8139 C   0  0  0  0  0  0  0  0  0  0  0  0
   12.7458   -9.5665  -12.9582 O   0  0  0  0  0  0  0  0  0  0  0  0
   13.8182   -8.0516  -15.3086 C   0  0  0  0  0  0  0  0  0  0  0  0
   13.6910   -8.4318  -16.7290 C   0  0  0  0  0  0  0  0  0  0  0  0
   14.0870   -9.6676  -17.1870 C   0  0  0  0  0  0  0  0  0  0  0  0
   13.1625   -7.5605  -17.6419 C   0  0  0  0  0  0  0  0  0  0  0  0
   13.9659  -10.0335  -18.4999 C   0  0  0  0  0  0  0  0  0  0  0  0
   13.0290   -7.8970  -18.9589 C   0  0  0  0  0  0  0  0  0  0  0  0
   13.4321   -9.1402  -19.3934 C   0  0  0  0  0  0  0  0  0  0  0  0
   13.4807  -11.4219  -14.0674 N   0  0  0  0  0  0  0  0  0  0  0  0
   12.6842  -12.4803  -13.5254 C   0  0  2  0  0  0  0  0  0  0  0  0
   13.4556  -13.4087  -12.6410 C   0  0  0  0  0  0  0  0  0  0  0  0
   14.7136  -13.3746  -12.6386 O   0  0  0  0  0  0  0  0  0  0  0  0
   12.1599  -13.2219  -14.7509 C   0  0  0  0  0  0  0  0  0  0  0  0
   13.3498  -13.1362  -15.6977 C   0  0  0  0  0  0  0  0  0  0  0  0
   14.2904  -12.1081  -15.0907 C   0  0  0  0  0  0  0  0  0  0  0  0
   12.8002  -14.3391  -11.7954 N   0  0  0  0  0  0  0  0  0  0  0  0
   12.9131  -14.3029  -10.3566 C   0  0  2  0  0  0  0  0  0  0  0  0
   13.8963  -15.3350   -9.8734 C   0  0  0  0  0  0  0  0  0  0  0  0
   13.4245  -16.4397   -9.5284 O   0  0  0  0  0  0  0  0  0  0  0  0
   11.5534  -14.4641   -9.7371 C   0  0  0  0  0  0  0  0  0  0  0  0
   15.2786  -15.0346   -9.8258 N   0  0  0  0  0  0  0  0  0  0  0  0
   16.2281  -16.0424   -9.3789 C   0  0  1  0  0  0  0  0  0  0  0  0
   17.5545  -15.7792   -9.9798 C   0  0  1  0  0  0  0  0  0  0  0  0
   17.6271  -15.8184  -11.4849 C   0  0  0  0  0  0  0  0  0  0  0  0
   18.0328  -14.5728   -9.4748 O   0  0  0  0  0  0  0  0  0  0  0  0
   19.4819  -14.0854  -10.1182 P   0  0  2  0  0  5  0  0  0  0  0  0
   20.7049  -15.2072   -9.7252 O   0  0  0  0  0  0  0  0  0  0  0  0
   19.8783  -12.7843   -9.4604 O   0  0  0  0  0  0  0  0  0  0  0  0
   19.4404  -13.8075  -11.7737 O   0  0  0  0  0  0  0  0  0  0  0  0
   16.1450  -16.1189   -7.9206 C   0  0  0  0  0  0  0  0  0  0  0  0
   15.4198  -15.2966   -7.2769 O   0  0  0  0  0  0  0  0  0  0  0  0
   16.8230  -17.0686   -7.1141 N   0  0  0  0  0  0  0  0  0  0  0  0
   16.9666  -16.9081   -5.6714 C   0  0  2  0  0  0  0  0  0  0  0  0
   18.3498  -17.1551   -5.2171 C   0  0  0  0  0  0  0  0  0  0  0  0
   18.6796  -16.8624   -4.0596 O   0  0  0  0  0  0  0  0  0  0  0  0
   15.9912  -17.7896   -4.9196 C   0  0  1  0  0  0  0  0  0  0  0  0
   14.5775  -17.6195   -5.4268 C   0  0  0  0  0  0  0  0  0  0  0  0
   16.4047  -19.2340   -4.9319 C   0  0  0  0  0  0  0  0  0  0  0  0
   19.2675  -17.7083   -6.0852 O   0  0  0  0  0  0  0  0  0  0  0  0
  2  1  1  6
  2  3  1  0
  2  5  1  0
  3  4  2  0
  3 12  1  0
  5  6  1  0
  6  7  2  0
  6  8  1  0
  7  9  1  0
  8 10  2  0
  9 11  2  0
 10 11  1  0
 12 13  1  0
 12 18  1  0
 13 14  1  1
 13 16  1  0
 14 15  2  0
 14 19  1  0
 16 17  1  0
 17 18  1  0
 19 20  1  0
 20 21  1  0
 20 23  1  1
 21 22  2  0
 21 24  1  0
 25 24  1  1
 25 26  1  0
 25 33  1  0
 26 27  1  6
 26 28  1  0
 28 29  1  0
 29 30  1  6
 29 31  2  0
 29 32  1  0
 33 34  2  0
 33 35  1  0
 36 35  1  6
 36 37  1  0
 36 39  1  0
 37 38  2  0
 37 42  1  0
 39 40  1  6
 39 41  1  0
M  CHG  1   1   1
M  END
$$$$
