
     RDKit          3D

 42 43  0  0  0  0  0  0  0  0999 V2000
   10.2088   10.3258   15.1605 N   0  0  0  0  0  4  0  0  0  0  0  0
   10.3453   11.0440   13.8881 C   0  0  2  0  0  0  0  0  0  0  0  0
   11.3295   10.3293   13.0550 C   0  0  0  0  0  0  0  0  0  0  0  0
   10.9175    9.3586   12.3448 O   0  0  0  0  0  0  0  0  0  0  0  0
   10.7812   12.4504   14.2617 C   0  0  0  0  0  0  0  0  0  0  0  0
   11.8409   12.4811   15.2886 C   0  0  0  0  0  0  0  0  0  0  0  0
   11.6343   11.9928   16.5584 C   0  0  0  0  0  0  0  0  0  0  0  0
   13.0767   12.9944   15.0036 C   0  0  0  0  0  0  0  0  0  0  0  0
   12.6120   12.0087   17.5154 C   0  0  0  0  0  0  0  0  0  0  0  0
   14.0726   13.0240   15.9377 C   0  0  0  0  0  0  0  0  0  0  0  0
   13.8419   12.5288   17.2020 C   0  0  0  0  0  0  0  0  0  0  0  0
   12.7007   10.6354   12.9794 N   0  0  0  0  0  0  0  0  0  0  0  0
   13.4613   11.8210   13.2324 C   0  0  2  0  0  0  0  0  0  0  0  0
   13.9759   12.4716   11.9869 C   0  0  0  0  0  0  0  0  0  0  0  0
   14.4949   13.6166   12.0440 O   0  0  0  0  0  0  0  0  0  0  0  0
   14.6190   11.3461   14.1047 C   0  0  0  0  0  0  0  0  0  0  0  0
   14.9136    9.9755   13.5097 C   0  0  0  0  0  0  0  0  0  0  0  0
   13.7345    9.6525   12.6066 C   0  0  0  0  0  0  0  0  0  0  0  0
   13.8924   11.8262   10.7272 N   0  0  0  0  0  0  0  0  0  0  0  0
   14.7979   12.1130    9.6400 C   0  0  2  0  0  0  0  0  0  0  0  0
   15.2238   13.5563    9.6684 C   0  0  0  0  0  0  0  0  0  0  0  0
   14.3883   14.3784   10.1020 O   0  0  0  0  0  0  0  0  0  0  0  0
   14.1630   11.7224    8.3350 C   0  0  0  0  0  0  0  0  0  0  0  0
   16.5137   13.9273    9.2190 N   0  0  0  0  0  0  0  0  0  0  0  0
   16.8366   15.3305    9.0101 C   0  0  1  0  0  0  0  0  0  0  0  0
   18.2336   15.5877    9.4249 C   0  0  1  0  0  0  0  0  0  0  0  0
   18.4468   15.9435   10.8740 C   0  0  0  0  0  0  0  0  0  0  0  0
   19.0115   14.4969    9.0450 O   0  0  0  0  0  0  0  0  0  0  0  0
   20.6076   14.6060    9.4830 P   0  0  2  0  0  5  0  0  0  0  0  0
   21.3337   15.9489    8.7227 O   0  0  0  0  0  0  0  0  0  0  0  0
   21.3272   13.3859    8.9575 O   0  0  0  0  0  0  0  0  0  0  0  0
   20.8638   14.6523   11.1418 O   0  0  0  0  0  0  0  0  0  0  0  0
   16.4590   15.6767    7.6401 C   0  0  0  0  0  0  0  0  0  0  0  0
   15.7162   14.8968    6.9645 O   0  0  0  0  0  0  0  0  0  0  0  0
   16.8553   16.8559    6.9585 N   0  0  0  0  0  0  0  0  0  0  0  0
   16.7617   16.9894    5.5089 C   0  0  2  0  0  0  0  0  0  0  0  0
   17.7739   17.9185    4.9674 C   0  0  0  0  0  0  0  0  0  0  0  0
   18.4806   18.5787    5.7412 O   0  0  0  0  0  0  0  0  0  0  0  0
   15.3698   17.4075    5.0831 C   0  0  1  0  0  0  0  0  0  0  0  0
   14.3152   16.8954    6.0373 C   0  0  0  0  0  0  0  0  0  0  0  0
   15.2563   18.8934    4.8917 C   0  0  0  0  0  0  0  0  0  0  0  0
   17.9249   18.0473    3.6027 O   0  0  0  0  0  0  0  0  0  0  0  0
  2  1  1  1
  2  3  1  0
  2  5  1  0
  3  4  2  0
  3 12  1  0
  5  6  1  0
  6  7  2  0
  6  8  1  0
  7  9  1  0
  8 10  2  0
  9 11  2  0
 10 11  1  0
 12 13  1  0
 12 18  1  0
 13 14  1  6
 13 16  1  0
 14 15  2  0
 14 19  1  0
 16 17  1  0
 17 18  1  0
 19 20  1  0
 20 21  1  0
 20 23  1  6
 21 22  2  0
 21 24  1  0
 25 24  1  6
 25 26  1  0
 25 33  1  0
 26 27  1  1
 26 28  1  0
 28 29  1  0
 29 30  1  6
 29 31  2  0
 29 32  1  0
 33 34  2  0
 33 35  1  0
 36 35  1  1
 36 37  1  0
 36 39  1  0
 37 38  2  0
 37 42  1  0
 39 40  1  1
 39 41  1  0
M  CHG  1   1   1
M  END
$$$$
