
     RDKit          3D

 24 26  0  0  0  0  0  0  0  0999 V2000
  106.2653   63.2371   45.5599 N   0  0  0  0  0  0  0  0  0  0  0  0
  106.6004   63.1849   46.9735 C   0  0  0  0  0  0  0  0  0  0  0  0
  107.5835   63.8961   47.4244 N   0  0  0  0  0  0  0  0  0  0  0  0
  107.9271   63.8958   48.7859 C   0  0  0  0  0  0  0  0  0  0  0  0
  107.1612   63.1179   49.5174 N   0  0  0  0  0  0  0  0  0  0  0  0
  105.7988   62.3729   47.7247 C   0  0  0  0  0  0  0  0  0  0  0  0
  106.1395   62.3626   49.1188 C   0  0  0  0  0  0  0  0  0  0  0  0
  104.7788   61.5636   47.5587 N   0  0  0  0  0  0  0  0  0  0  0  0
  104.3903   61.0038   48.7266 C   0  0  0  0  0  0  0  0  0  0  0  0
  105.2228   61.4871   49.7044 C   0  0  0  0  0  0  0  0  0  0  0  0
  105.2853   61.1942   51.1403 C   0  0  0  0  0  0  0  0  0  0  0  0
  105.7034   59.8879   51.5077 N   0  0  1  0  0  4  0  0  0  0  0  0
  107.0177   59.6534   50.9533 C   0  0  0  0  0  0  0  0  0  0  0  0
  107.9188   59.3624   52.1129 C   0  0  2  0  0  0  0  0  0  0  0  0
  109.0233   58.5838   51.7932 O   0  0  0  0  0  0  0  0  0  0  0  0
  105.8045   59.6764   52.9493 C   0  0  0  0  0  0  0  0  0  0  0  0
  106.9751   58.7283   53.0978 C   0  0  2  0  0  0  0  0  0  0  0  0
  107.4957   58.5973   54.4818 C   0  0  0  0  0  0  0  0  0  0  0  0
  106.1796   58.8921   55.6865 S   0  0  0  0  0  0  0  0  0  0  0  0
  106.3832   60.3383   56.6938 C   0  0  0  0  0  0  0  0  0  0  0  0
  105.1750   61.1695   56.9453 C   0  0  0  0  0  0  0  0  0  0  0  0
  105.4789   62.3209   57.8980 C   0  0  0  0  0  0  0  0  0  0  0  0
  104.2034   63.1273   57.9646 C   0  0  0  0  0  0  0  0  0  0  0  0
  103.2279   63.7632   58.0277 C   0  0  0  0  0  0  0  0  0  0  0  0
  1  2  1  0
  2  3  2  0
  2  6  1  0
  3  4  1  0
  4  5  2  0
  5  7  1  0
  6  7  2  0
  6  8  1  0
  7 10  1  0
  8  9  1  0
  9 10  2  0
 11 10  1  1
 12 11  1  1
 12 13  1  0
 12 16  1  0
 13 14  1  6
 14 15  1  6
 14 17  1  0
 16 17  1  6
 17 18  1  1
 18 19  1  6
 20 19  1  1
 21 20  1  1
 21 22  1  0
 22 23  1  6
 23 24  3  0
M  CHG  1  12   1
M  END
$$$$
