
     RDKit          3D

 24 26  0  0  0  0  0  0  0  0999 V2000
  104.1840   64.1493   48.0128 N   0  0  0  0  0  0  0  0  0  0  0  0
  105.3646   63.4934   48.5507 C   0  0  0  0  0  0  0  0  0  0  0  0
  106.5134   64.0856   48.4798 N   0  0  0  0  0  0  0  0  0  0  0  0
  107.6757   63.5008   49.0078 C   0  0  0  0  0  0  0  0  0  0  0  0
  107.4649   62.3273   49.5604 N   0  0  0  0  0  0  0  0  0  0  0  0
  105.1347   62.2740   49.1221 C   0  0  0  0  0  0  0  0  0  0  0  0
  106.3148   61.6644   49.6654 C   0  0  0  0  0  0  0  0  0  0  0  0
  104.1315   61.4534   49.3299 N   0  0  0  0  0  0  0  0  0  0  0  0
  104.5280   60.3336   49.9759 C   0  0  0  0  0  0  0  0  0  0  0  0
  105.8784   60.4468   50.1915 C   0  0  0  0  0  0  0  0  0  0  0  0
  106.8308   59.5187   50.8106 C   0  0  0  0  0  0  0  0  0  0  0  0
  106.9410   59.5668   52.2254 N   0  0  1  0  0  4  0  0  0  0  0  0
  107.8990   60.5907   52.5769 C   0  0  0  0  0  0  0  0  0  0  0  0
  107.1683   61.5749   53.4364 C   0  0  2  0  0  0  0  0  0  0  0  0
  107.9834   62.2811   54.3112 O   0  0  0  0  0  0  0  0  0  0  0  0
  105.6940   59.8959   52.9108 C   0  0  0  0  0  0  0  0  0  0  0  0
  106.1390   60.7077   54.1084 C   0  0  2  0  0  0  0  0  0  0  0  0
  105.0491   61.4382   54.8026 C   0  0  0  0  0  0  0  0  0  0  0  0
  103.8042   61.9992   53.6169 S   0  0  0  0  0  0  0  0  0  0  0  0
  102.3516   62.7273   54.3293 C   0  0  0  0  0  0  0  0  0  0  0  0
  101.4228   61.8220   55.0583 C   0  0  0  0  0  0  0  0  0  0  0  0
  100.2329   61.4273   54.1900 C   0  0  0  0  0  0  0  0  0  0  0  0
  100.5607   60.0468   53.6721 C   0  0  0  0  0  0  0  0  0  0  0  0
  100.8185   58.9889   53.2546 C   0  0  0  0  0  0  0  0  0  0  0  0
  1  2  1  0
  2  3  2  0
  2  6  1  0
  3  4  1  0
  4  5  2  0
  5  7  1  0
  6  7  2  0
  6  8  1  0
  7 10  1  0
  8  9  1  0
  9 10  2  0
 11 10  1  1
 12 11  1  6
 12 13  1  0
 12 16  1  0
 13 14  1  6
 14 15  1  1
 14 17  1  0
 16 17  1  6
 17 18  1  6
 18 19  1  6
 20 19  1  1
 21 20  1  1
 21 22  1  0
 22 23  1  6
 23 24  3  0
M  CHG  1  12   1
M  END
$$$$
