
     RDKit          3D

 24 26  0  0  0  0  0  0  0  0999 V2000
  107.3877   63.9649   47.0852 N   0  0  0  0  0  0  0  0  0  0  0  0
  106.7796   63.7604   48.3896 C   0  0  0  0  0  0  0  0  0  0  0  0
  106.9288   64.6559   49.3124 N   0  0  0  0  0  0  0  0  0  0  0  0
  106.3391   64.5120   50.5786 C   0  0  0  0  0  0  0  0  0  0  0  0
  105.6455   63.4034   50.7085 N   0  0  0  0  0  0  0  0  0  0  0  0
  106.0617   62.6049   48.5145 C   0  0  0  0  0  0  0  0  0  0  0  0
  105.4538   62.4446   49.8046 C   0  0  0  0  0  0  0  0  0  0  0  0
  105.7494   61.5528   47.7943 N   0  0  0  0  0  0  0  0  0  0  0  0
  104.9729   60.6876   48.4849 C   0  0  0  0  0  0  0  0  0  0  0  0
  104.7800   61.2237   49.7331 C   0  0  0  0  0  0  0  0  0  0  0  0
  104.0567   60.7028   50.8981 C   0  0  0  0  0  0  0  0  0  0  0  0
  104.8418   60.1281   51.9322 N   0  0  1  0  0  4  0  0  0  0  0  0
  106.0040   59.5085   51.3361 C   0  0  0  0  0  0  0  0  0  0  0  0
  107.1973   60.1767   51.9454 C   0  0  2  0  0  0  0  0  0  0  0  0
  108.3438   59.3933   51.9560 O   0  0  0  0  0  0  0  0  0  0  0  0
  105.3291   61.0902   52.9171 C   0  0  0  0  0  0  0  0  0  0  0  0
  106.6888   60.5533   53.3101 C   0  0  2  0  0  0  0  0  0  0  0  0
  107.5393   61.5088   54.0630 C   0  0  0  0  0  0  0  0  0  0  0  0
  106.8881   61.7614   55.7311 S   0  0  0  0  0  0  0  0  0  0  0  0
  105.9949   63.2747   55.9758 C   0  0  0  0  0  0  0  0  0  0  0  0
  104.5223   63.1744   56.1634 C   0  0  0  0  0  0  0  0  0  0  0  0
  104.1732   62.5402   57.5056 C   0  0  0  0  0  0  0  0  0  0  0  0
  103.2800   61.3692   57.1704 C   0  0  0  0  0  0  0  0  0  0  0  0
  102.5769   60.4719   56.9244 C   0  0  0  0  0  0  0  0  0  0  0  0
  1  2  1  0
  2  3  2  0
  2  6  1  0
  3  4  1  0
  4  5  2  0
  5  7  1  0
  6  7  2  0
  6  8  1  0
  7 10  1  0
  8  9  1  0
  9 10  2  0
 11 10  1  1
 12 11  1  6
 12 13  1  0
 12 16  1  0
 13 14  1  6
 14 15  1  1
 14 17  1  0
 16 17  1  6
 17 18  1  6
 18 19  1  6
 20 19  1  1
 21 20  1  1
 21 22  1  0
 22 23  1  6
 23 24  3  0
M  CHG  1  12   1
M  END
$$$$
