
     RDKit          3D

 24 26  0  0  0  0  0  0  0  0999 V2000
  104.6751   64.1434   46.0853 N   0  0  0  0  0  0  0  0  0  0  0  0
  105.5184   63.8470   47.1719 C   0  0  0  0  0  0  0  0  0  0  0  0
  106.4541   64.8922   47.5606 N   0  0  0  0  0  0  0  0  0  0  0  0
  107.1714   64.4484   48.6461 C   0  0  0  0  0  0  0  0  0  0  0  0
  107.2078   63.4379   49.3076 N   0  0  0  0  0  0  0  0  0  0  0  0
  105.5336   62.7073   47.8892 C   0  0  0  0  0  0  0  0  0  0  0  0
  106.3223   62.3544   48.9922 C   0  0  0  0  0  0  0  0  0  0  0  0
  104.8211   61.6287   47.6777 N   0  0  0  0  0  0  0  0  0  0  0  0
  105.0629   60.5789   48.5452 C   0  0  0  0  0  0  0  0  0  0  0  0
  106.1022   61.1430   49.4271 C   0  0  0  0  0  0  0  0  0  0  0  0
  106.5544   60.3181   50.5632 C   0  0  0  0  0  0  0  0  0  0  0  0
  105.7125   60.3586   51.7194 N   0  0  1  0  0  4  0  0  0  0  0  0
  106.5710   60.0676   52.8752 C   0  0  0  0  0  0  0  0  0  0  0  0
  106.4237   61.3191   53.7480 C   0  0  2  0  0  0  0  0  0  0  0  0
  106.7902   61.0455   55.0274 O   0  0  0  0  0  0  0  0  0  0  0  0
  104.9673   61.5388   51.9885 C   0  0  0  0  0  0  0  0  0  0  0  0
  104.9610   61.5609   53.5593 C   0  0  2  0  0  0  0  0  0  0  0  0
  104.2763   62.7118   54.1127 C   0  0  0  0  0  0  0  0  0  0  0  0
  103.8846   62.7485   55.8134 S   0  0  0  0  0  0  0  0  0  0  0  0
  102.4015   61.8266   56.2593 C   0  0  0  0  0  0  0  0  0  0  0  0
  102.1748   61.9798   57.7431 C   0  0  0  0  0  0  0  0  0  0  0  0
  100.7634   62.3297   58.0971 C   0  0  0  0  0  0  0  0  0  0  0  0
   99.9292   61.9830   56.9228 C   0  0  0  0  0  0  0  0  0  0  0  0
   99.1969   61.6931   55.9285 C   0  0  0  0  0  0  0  0  0  0  0  0
  1  2  1  0
  2  3  2  0
  2  6  1  0
  3  4  1  0
  4  5  2  0
  5  7  1  0
  6  7  2  0
  6  8  1  0
  7 10  1  0
  8  9  1  0
  9 10  2  0
 10 11  1  0
 12 11  1  6
 12 13  1  0
 12 16  1  0
 13 14  1  0
 14 15  1  1
 14 17  1  0
 16 17  1  0
 17 18  1  6
 18 19  1  0
 19 20  1  0
 20 21  1  0
 21 22  1  0
 22 23  1  0
 23 24  3  0
M  CHG  1  12   1
M  END
$$$$
