
     RDKit          3D

 24 26  0  0  0  0  0  0  0  0999 V2000
  123.7945   87.8360   45.7135 N   0  0  0  0  0  0  0  0  0  0  0  0
  123.8714   88.2281   47.1112 C   0  0  0  0  0  0  0  0  0  0  0  0
  124.3645   89.3830   47.4253 N   0  0  0  0  0  0  0  0  0  0  0  0
  124.4358   89.8134   48.7600 C   0  0  0  0  0  0  0  0  0  0  0  0
  123.9608   88.9378   49.6170 N   0  0  0  0  0  0  0  0  0  0  0  0
  123.3758   87.3106   47.9938 C   0  0  0  0  0  0  0  0  0  0  0  0
  123.4432   87.7376   49.3622 C   0  0  0  0  0  0  0  0  0  0  0  0
  122.8428   86.1112   47.9772 N   0  0  0  0  0  0  0  0  0  0  0  0
  122.5352   85.6843   49.2229 C   0  0  0  0  0  0  0  0  0  0  0  0
  122.9009   86.6793   50.0941 C   0  0  0  0  0  0  0  0  0  0  0  0
  122.8342   86.7431   51.5581 C   0  0  0  0  0  0  0  0  0  0  0  0
  121.6363   87.2577   52.1206 N   0  0  1  0  0  4  0  0  0  0  0  0
  121.7540   87.2244   53.5610 C   0  0  0  0  0  0  0  0  0  0  0  0
  121.5936   88.6371   54.0300 C   0  0  2  0  0  0  0  0  0  0  0  0
  121.1175   88.7542   55.3292 O   0  0  0  0  0  0  0  0  0  0  0  0
  121.3471   88.6399   51.7479 C   0  0  0  0  0  0  0  0  0  0  0  0
  120.6870   89.2197   52.9806 C   0  0  2  0  0  0  0  0  0  0  0  0
  120.5771   90.7000   52.9875 C   0  0  0  0  0  0  0  0  0  0  0  0
  122.2055   91.4572   53.2010 S   0  0  0  0  0  0  0  0  0  0  0  0
  122.1910   93.1570   53.7090 C   0  0  0  0  0  0  0  0  0  0  0  0
  123.4131   93.6788   54.3784 C   0  0  0  0  0  0  0  0  0  0  0  0
  123.9005   94.9670   53.7237 C   0  0  0  0  0  0  0  0  0  0  0  0
  122.6502   95.7666   53.4429 C   0  0  0  0  0  0  0  0  0  0  0  0
  121.6878   96.3812   53.2065 C   0  0  0  0  0  0  0  0  0  0  0  0
  1  2  1  0
  2  3  2  0
  2  6  1  0
  3  4  1  0
  4  5  2  0
  5  7  1  0
  6  7  2  0
  6  8  1  0
  7 10  1  0
  8  9  1  0
  9 10  2  0
 11 10  1  1
 12 11  1  6
 12 13  1  0
 12 16  1  0
 13 14  1  6
 14 15  1  1
 14 17  1  0
 16 17  1  6
 17 18  1  6
 18 19  1  6
 20 19  1  1
 21 20  1  1
 21 22  1  0
 22 23  1  6
 23 24  3  0
M  CHG  1  12   1
M  END
$$$$
