
     RDKit          3D

 24 26  0  0  0  0  0  0  0  0999 V2000
  104.3545   63.3543   46.7865 N   0  0  0  0  0  0  0  0  0  0  0  0
  105.5296   63.2540   47.6363 C   0  0  0  0  0  0  0  0  0  0  0  0
  106.3813   64.2283   47.6678 N   0  0  0  0  0  0  0  0  0  0  0  0
  107.5173   64.1854   48.4920 C   0  0  0  0  0  0  0  0  0  0  0  0
  107.6077   63.0814   49.1991 N   0  0  0  0  0  0  0  0  0  0  0  0
  105.6145   62.1024   48.3664 C   0  0  0  0  0  0  0  0  0  0  0  0
  106.7718   62.0450   49.2131 C   0  0  0  0  0  0  0  0  0  0  0  0
  104.9431   60.9872   48.5344 N   0  0  0  0  0  0  0  0  0  0  0  0
  105.5440   60.1728   49.4313 C   0  0  0  0  0  0  0  0  0  0  0  0
  106.6792   60.8120   49.8620 C   0  0  0  0  0  0  0  0  0  0  0  0
  107.7236   60.3827   50.7982 C   0  0  0  0  0  0  0  0  0  0  0  0
  107.4113   60.4584   52.1813 N   0  0  1  0  0  4  0  0  0  0  0  0
  107.0537   61.8229   52.4974 C   0  0  0  0  0  0  0  0  0  0  0  0
  105.6591   61.7785   53.0402 C   0  0  2  0  0  0  0  0  0  0  0  0
  105.3489   62.8262   53.8971 O   0  0  0  0  0  0  0  0  0  0  0  0
  106.2877   59.6179   52.5868 C   0  0  0  0  0  0  0  0  0  0  0  0
  105.6094   60.4174   53.6786 C   0  0  2  0  0  0  0  0  0  0  0  0
  104.2537   59.9384   54.0474 C   0  0  0  0  0  0  0  0  0  0  0  0
  103.5303   60.9976   55.3222 S   0  0  0  0  0  0  0  0  0  0  0  0
  101.7575   61.0009   55.3898 C   0  0  0  0  0  0  0  0  0  0  0  0
  101.0662   62.2839   55.0900 C   0  0  0  0  0  0  0  0  0  0  0  0
   99.8451   62.4810   55.9820 C   0  0  0  0  0  0  0  0  0  0  0  0
  100.3776   62.4504   57.3952 C   0  0  0  0  0  0  0  0  0  0  0  0
  100.7938   62.4459   58.4846 C   0  0  0  0  0  0  0  0  0  0  0  0
  1  2  1  0
  2  3  2  0
  2  6  1  0
  3  4  1  0
  4  5  2  0
  5  7  1  0
  6  7  2  0
  6  8  1  0
  7 10  1  0
  8  9  1  0
  9 10  2  0
 11 10  1  1
 12 11  1  6
 12 13  1  0
 12 16  1  0
 13 14  1  6
 14 15  1  1
 14 17  1  0
 16 17  1  6
 17 18  1  6
 18 19  1  6
 20 19  1  1
 21 20  1  1
 21 22  1  0
 22 23  1  6
 23 24  3  0
M  CHG  1  12   1
M  END
$$$$
