
     RDKit          3D

 24 26  0  0  0  0  0  0  0  0999 V2000
  104.8715   63.7455   46.0389 N   0  0  0  0  0  0  0  0  0  0  0  0
  105.7583   63.4759   47.0975 C   0  0  0  0  0  0  0  0  0  0  0  0
  106.7011   64.5343   47.4290 N   0  0  0  0  0  0  0  0  0  0  0  0
  107.4629   64.1165   48.4943 C   0  0  0  0  0  0  0  0  0  0  0  0
  107.5318   63.1195   49.1736 N   0  0  0  0  0  0  0  0  0  0  0  0
  105.8091   62.3508   47.8358 C   0  0  0  0  0  0  0  0  0  0  0  0
  106.6423   62.0246   48.9141 C   0  0  0  0  0  0  0  0  0  0  0  0
  105.0964   61.2638   47.6733 N   0  0  0  0  0  0  0  0  0  0  0  0
  105.3788   60.2330   48.5511 C   0  0  0  0  0  0  0  0  0  0  0  0
  106.4475   60.8208   49.3807 C   0  0  0  0  0  0  0  0  0  0  0  0
  106.9489   60.0213   50.5144 C   0  0  0  0  0  0  0  0  0  0  0  0
  106.0390   59.8781   51.6093 N   0  0  1  0  0  4  0  0  0  0  0  0
  106.7358   60.3750   52.8031 C   0  0  0  0  0  0  0  0  0  0  0  0
  105.8362   61.5183   53.2862 C   0  0  2  0  0  0  0  0  0  0  0  0
  106.0893   61.7955   54.5920 O   0  0  0  0  0  0  0  0  0  0  0  0
  104.7634   60.5006   51.5316 C   0  0  0  0  0  0  0  0  0  0  0  0
  104.5053   60.8874   53.0322 C   0  0  2  0  0  0  0  0  0  0  0  0
  103.2523   61.5860   53.2356 C   0  0  0  0  0  0  0  0  0  0  0  0
  102.7338   61.9755   54.8563 S   0  0  0  0  0  0  0  0  0  0  0  0
  101.3787   60.9594   55.4725 C   0  0  0  0  0  0  0  0  0  0  0  0
  100.9692   61.4838   56.8267 C   0  0  0  0  0  0  0  0  0  0  0  0
  100.9122   60.4253   57.8831 C   0  0  0  0  0  0  0  0  0  0  0  0
  101.8961   60.8056   58.9235 C   0  0  0  0  0  0  0  0  0  0  0  0
  102.7429   61.1500   59.8028 C   0  0  0  0  0  0  0  0  0  0  0  0
  1  2  1  0
  2  3  2  0
  2  6  1  0
  3  4  1  0
  4  5  2  0
  5  7  1  0
  6  7  2  0
  6  8  1  0
  7 10  1  0
  8  9  1  0
  9 10  2  0
 10 11  1  0
 12 11  1  6
 12 13  1  0
 12 16  1  0
 13 14  1  0
 14 15  1  1
 14 17  1  0
 16 17  1  0
 17 18  1  6
 18 19  1  0
 19 20  1  0
 20 21  1  0
 21 22  1  0
 22 23  1  0
 23 24  3  0
M  CHG  1  12   1
M  END
$$$$
