
     RDKit          3D

 24 26  0  0  0  0  0  0  0  0999 V2000
  104.5146   63.9881   46.3510 N   0  0  0  0  0  0  0  0  0  0  0  0
  105.4832   63.6405   47.3105 C   0  0  0  0  0  0  0  0  0  0  0  0
  106.5303   64.6233   47.5492 N   0  0  0  0  0  0  0  0  0  0  0  0
  107.3648   64.1369   48.5273 C   0  0  0  0  0  0  0  0  0  0  0  0
  107.4298   63.1283   49.1897 N   0  0  0  0  0  0  0  0  0  0  0  0
  105.5270   62.5047   48.0326 C   0  0  0  0  0  0  0  0  0  0  0  0
  106.4404   62.1043   49.0168 C   0  0  0  0  0  0  0  0  0  0  0  0
  104.7235   61.4744   47.9380 N   0  0  0  0  0  0  0  0  0  0  0  0
  105.0183   60.4139   48.7754 C   0  0  0  0  0  0  0  0  0  0  0  0
  106.2068   60.9114   49.4936 C   0  0  0  0  0  0  0  0  0  0  0  0
  106.7621   60.0622   50.5643 C   0  0  0  0  0  0  0  0  0  0  0  0
  106.2142   60.2869   51.8668 N   0  0  1  0  0  4  0  0  0  0  0  0
  106.8332   61.5174   52.3771 C   0  0  0  0  0  0  0  0  0  0  0  0
  105.6339   62.4401   52.6223 C   0  0  2  0  0  0  0  0  0  0  0  0
  105.9741   63.4336   53.4843 O   0  0  0  0  0  0  0  0  0  0  0  0
  104.8039   60.3894   52.0132 C   0  0  0  0  0  0  0  0  0  0  0  0
  104.6794   61.4342   53.1797 C   0  0  2  0  0  0  0  0  0  0  0  0
  103.3071   61.7548   53.5167 C   0  0  0  0  0  0  0  0  0  0  0  0
  102.5473   60.9732   54.8801 S   0  0  0  0  0  0  0  0  0  0  0  0
  100.7457   61.0176   54.8592 C   0  0  0  0  0  0  0  0  0  0  0  0
  100.2364   60.1892   56.0128 C   0  0  0  0  0  0  0  0  0  0  0  0
   99.5987   61.0030   57.0949 C   0  0  0  0  0  0  0  0  0  0  0  0
   99.1656   60.0528   58.1460 C   0  0  0  0  0  0  0  0  0  0  0  0
   98.7893   59.2248   59.0300 C   0  0  0  0  0  0  0  0  0  0  0  0
  1  2  1  0
  2  3  2  0
  2  6  1  0
  3  4  1  0
  4  5  2  0
  5  7  1  0
  6  7  2  0
  6  8  1  0
  7 10  1  0
  8  9  1  0
  9 10  2  0
 10 11  1  0
 12 11  1  6
 12 13  1  0
 12 16  1  0
 13 14  1  0
 14 15  1  1
 14 17  1  0
 16 17  1  0
 17 18  1  6
 18 19  1  0
 19 20  1  0
 20 21  1  0
 21 22  1  0
 22 23  1  0
 23 24  3  0
M  CHG  1  12   1
M  END
$$$$
