
     RDKit          3D

 24 26  0  0  0  0  0  0  0  0999 V2000
  104.4733   64.8251   46.6454 N   0  0  0  0  0  0  0  0  0  0  0  0
  104.9366   63.5892   47.1331 C   0  0  0  0  0  0  0  0  0  0  0  0
  104.8191   62.4574   46.2252 N   0  0  0  0  0  0  0  0  0  0  0  0
  105.3414   61.3483   46.8472 C   0  0  0  0  0  0  0  0  0  0  0  0
  105.8381   61.1101   47.9227 N   0  0  0  0  0  0  0  0  0  0  0  0
  105.4860   63.3573   48.3405 C   0  0  0  0  0  0  0  0  0  0  0  0
  105.9894   62.1666   48.8810 C   0  0  0  0  0  0  0  0  0  0  0  0
  105.6344   64.2132   49.3209 N   0  0  0  0  0  0  0  0  0  0  0  0
  106.1956   63.6999   50.4761 C   0  0  0  0  0  0  0  0  0  0  0  0
  106.4202   62.2894   50.1074 C   0  0  0  0  0  0  0  0  0  0  0  0
  107.1083   61.4291   51.0883 C   0  0  0  0  0  0  0  0  0  0  0  0
  106.2823   60.4503   51.7263 N   0  0  1  0  0  4  0  0  0  0  0  0
  107.1025   59.8248   52.7720 C   0  0  0  0  0  0  0  0  0  0  0  0
  106.3176   60.1147   54.0564 C   0  0  2  0  0  0  0  0  0  0  0  0
  106.6917   59.2551   55.0398 O   0  0  0  0  0  0  0  0  0  0  0  0
  105.0458   60.8579   52.2970 C   0  0  0  0  0  0  0  0  0  0  0  0
  104.9339   59.8973   53.5350 C   0  0  2  0  0  0  0  0  0  0  0  0
  103.7472   60.1290   54.3335 C   0  0  0  0  0  0  0  0  0  0  0  0
  103.7278   61.4334   55.4934 S   0  0  0  0  0  0  0  0  0  0  0  0
  102.2637   61.4788   56.5435 C   0  0  0  0  0  0  0  0  0  0  0  0
  101.0425   61.4396   55.6583 C   0  0  0  0  0  0  0  0  0  0  0  0
   99.9768   62.4063   56.0701 C   0  0  0  0  0  0  0  0  0  0  0  0
   99.2474   61.7834   57.1994 C   0  0  0  0  0  0  0  0  0  0  0  0
   98.6098   61.2682   58.1672 C   0  0  0  0  0  0  0  0  0  0  0  0
  1  2  1  0
  2  3  2  0
  2  6  1  0
  3  4  1  0
  4  5  2  0
  5  7  1  0
  6  7  2  0
  6  8  1  0
  7 10  1  0
  8  9  1  0
  9 10  2  0
 10 11  1  0
 12 11  1  1
 12 13  1  0
 12 16  1  0
 13 14  1  0
 14 15  1  1
 14 17  1  0
 16 17  1  0
 17 18  1  1
 18 19  1  0
 19 20  1  0
 20 21  1  0
 21 22  1  0
 22 23  1  0
 23 24  3  0
M  CHG  1  12   1
M  END
$$$$
