
     RDKit          3D

 24 26  0  0  0  0  0  0  0  0999 V2000
  106.0456   65.3955   47.0872 N   0  0  0  0  0  0  0  0  0  0  0  0
  105.6579   64.0804   47.4035 C   0  0  0  0  0  0  0  0  0  0  0  0
  104.4459   63.5969   46.7582 N   0  0  0  0  0  0  0  0  0  0  0  0
  104.2343   62.2976   47.1540 C   0  0  0  0  0  0  0  0  0  0  0  0
  104.7895   61.5121   47.8855 N   0  0  0  0  0  0  0  0  0  0  0  0
  106.3007   63.2294   48.2256 C   0  0  0  0  0  0  0  0  0  0  0  0
  105.9893   61.9062   48.5656 C   0  0  0  0  0  0  0  0  0  0  0  0
  107.3682   63.4759   48.9437 N   0  0  0  0  0  0  0  0  0  0  0  0
  107.8024   62.4306   49.7385 C   0  0  0  0  0  0  0  0  0  0  0  0
  106.8144   61.3797   49.4298 C   0  0  0  0  0  0  0  0  0  0  0  0
  107.0161   60.0527   50.0416 C   0  0  0  0  0  0  0  0  0  0  0  0
  106.4575   59.8928   51.3491 N   0  0  1  0  0  4  0  0  0  0  0  0
  107.0115   60.9715   52.1780 C   0  0  0  0  0  0  0  0  0  0  0  0
  105.7657   61.7331   52.6444 C   0  0  2  0  0  0  0  0  0  0  0  0
  106.0537   62.4757   53.7452 O   0  0  0  0  0  0  0  0  0  0  0  0
  105.0439   59.8810   51.4982 C   0  0  0  0  0  0  0  0  0  0  0  0
  104.8653   60.5679   52.8997 C   0  0  2  0  0  0  0  0  0  0  0  0
  103.4781   60.7169   53.2912 C   0  0  0  0  0  0  0  0  0  0  0  0
  102.9864   62.1152   54.2132 S   0  0  0  0  0  0  0  0  0  0  0  0
  102.2437   61.7344   55.8106 C   0  0  0  0  0  0  0  0  0  0  0  0
  100.7455   61.8547   55.6790 C   0  0  0  0  0  0  0  0  0  0  0  0
  100.1089   62.6199   56.7966 C   0  0  0  0  0  0  0  0  0  0  0  0
   99.0318   61.7619   57.3434 C   0  0  0  0  0  0  0  0  0  0  0  0
   98.0947   61.0395   57.8004 C   0  0  0  0  0  0  0  0  0  0  0  0
  1  2  1  0
  2  3  2  0
  2  6  1  0
  3  4  1  0
  4  5  2  0
  5  7  1  0
  6  7  2  0
  6  8  1  0
  7 10  1  0
  8  9  1  0
  9 10  2  0
 10 11  1  0
 12 11  1  6
 12 13  1  0
 12 16  1  0
 13 14  1  0
 14 15  1  1
 14 17  1  0
 16 17  1  0
 17 18  1  6
 18 19  1  0
 19 20  1  0
 20 21  1  0
 21 22  1  0
 22 23  1  0
 23 24  3  0
M  CHG  1  12   1
M  END
$$$$
