
     RDKit          3D

 24 26  0  0  0  0  0  0  0  0999 V2000
  103.8781   63.5471   46.9575 N   0  0  0  0  0  0  0  0  0  0  0  0
  104.8167   63.5022   48.0666 C   0  0  0  0  0  0  0  0  0  0  0  0
  105.2197   64.6066   48.6085 N   0  0  0  0  0  0  0  0  0  0  0  0
  106.1064   64.6104   49.6973 C   0  0  0  0  0  0  0  0  0  0  0  0
  106.4632   63.4062   50.0841 N   0  0  0  0  0  0  0  0  0  0  0  0
  105.1818   62.2461   48.4603 C   0  0  0  0  0  0  0  0  0  0  0  0
  106.0889   62.2353   49.5723 C   0  0  0  0  0  0  0  0  0  0  0  0
  104.9562   60.9989   48.1190 N   0  0  0  0  0  0  0  0  0  0  0  0
  105.6313   60.1347   48.9102 C   0  0  0  0  0  0  0  0  0  0  0  0
  106.3391   60.8834   49.8165 C   0  0  0  0  0  0  0  0  0  0  0  0
  107.2652   60.4773   50.8790 C   0  0  0  0  0  0  0  0  0  0  0  0
  106.7138   59.7365   51.9576 N   0  0  1  0  0  4  0  0  0  0  0  0
  107.3410   60.1749   53.1840 C   0  0  0  0  0  0  0  0  0  0  0  0
  106.2398   60.6792   54.0641 C   0  0  2  0  0  0  0  0  0  0  0  0
  106.5205   60.6099   55.4223 O   0  0  0  0  0  0  0  0  0  0  0  0
  105.2739   59.9120   52.1284 C   0  0  0  0  0  0  0  0  0  0  0  0
  105.0723   59.8375   53.6267 C   0  0  2  0  0  0  0  0  0  0  0  0
  103.7433   60.3016   54.0979 C   0  0  0  0  0  0  0  0  0  0  0  0
  103.9099   61.8047   55.0895 S   0  0  0  0  0  0  0  0  0  0  0  0
  102.3917   62.4649   55.7274 C   0  0  0  0  0  0  0  0  0  0  0  0
  102.2596   62.5644   57.2061 C   0  0  0  0  0  0  0  0  0  0  0  0
  100.9342   61.9839   57.6878 C   0  0  0  0  0  0  0  0  0  0  0  0
   99.9365   62.3226   56.6056 C   0  0  0  0  0  0  0  0  0  0  0  0
   99.1742   62.5702   55.7584 C   0  0  0  0  0  0  0  0  0  0  0  0
  1  2  1  0
  2  3  2  0
  2  6  1  0
  3  4  1  0
  4  5  2  0
  5  7  1  0
  6  7  2  0
  6  8  1  0
  7 10  1  0
  8  9  1  0
  9 10  2  0
 11 10  1  1
 12 11  1  6
 12 13  1  0
 12 16  1  0
 13 14  1  6
 14 15  1  1
 14 17  1  0
 16 17  1  6
 17 18  1  6
 18 19  1  6
 20 19  1  1
 21 20  1  1
 21 22  1  0
 22 23  1  6
 23 24  3  0
M  CHG  1  12   1
M  END
$$$$
