
     RDKit          3D

 24 26  0  0  0  0  0  0  0  0999 V2000
  103.7687   63.6562   46.2357 N   0  0  0  0  0  0  0  0  0  0  0  0
  104.9596   63.1665   46.9103 C   0  0  0  0  0  0  0  0  0  0  0  0
  105.9828   62.7927   46.2109 N   0  0  0  0  0  0  0  0  0  0  0  0
  107.1626   62.3363   46.8204 C   0  0  0  0  0  0  0  0  0  0  0  0
  107.1051   62.3346   48.1332 N   0  0  0  0  0  0  0  0  0  0  0  0
  104.8893   63.1681   48.2746 C   0  0  0  0  0  0  0  0  0  0  0  0
  106.0887   62.7031   48.9106 C   0  0  0  0  0  0  0  0  0  0  0  0
  104.0290   63.4687   49.2193 N   0  0  0  0  0  0  0  0  0  0  0  0
  104.5438   63.2519   50.4507 C   0  0  0  0  0  0  0  0  0  0  0  0
  105.8195   62.7767   50.2788 C   0  0  0  0  0  0  0  0  0  0  0  0
  106.8204   62.3428   51.2593 C   0  0  0  0  0  0  0  0  0  0  0  0
  106.7131   61.0086   51.7333 N   0  0  1  0  0  4  0  0  0  0  0  0
  107.0583   60.9906   53.1369 C   0  0  0  0  0  0  0  0  0  0  0  0
  105.8604   60.4570   53.8591 C   0  0  2  0  0  0  0  0  0  0  0  0
  106.1532   59.8431   55.0698 O   0  0  0  0  0  0  0  0  0  0  0  0
  105.3732   60.4391   51.6161 C   0  0  0  0  0  0  0  0  0  0  0  0
  105.2494   59.5447   52.8310 C   0  0  2  0  0  0  0  0  0  0  0  0
  103.8682   59.0887   53.1276 C   0  0  0  0  0  0  0  0  0  0  0  0
  102.8421   60.4775   53.6649 S   0  0  0  0  0  0  0  0  0  0  0  0
  101.7486   60.1336   55.0191 C   0  0  0  0  0  0  0  0  0  0  0  0
  100.5832   61.0404   55.2014 C   0  0  0  0  0  0  0  0  0  0  0  0
  100.6789   61.8148   56.5117 C   0  0  0  0  0  0  0  0  0  0  0  0
  101.7644   61.1234   57.3023 C   0  0  0  0  0  0  0  0  0  0  0  0
  102.5888   60.5780   57.9211 C   0  0  0  0  0  0  0  0  0  0  0  0
  1  2  1  0
  2  3  2  0
  2  6  1  0
  3  4  1  0
  4  5  2  0
  5  7  1  0
  6  7  2  0
  6  8  1  0
  7 10  1  0
  8  9  1  0
  9 10  2  0
 11 10  1  1
 12 11  1  1
 12 13  1  0
 12 16  1  0
 13 14  1  6
 14 15  1  1
 14 17  1  0
 16 17  1  6
 17 18  1  1
 18 19  1  6
 20 19  1  1
 21 20  1  1
 21 22  1  0
 22 23  1  6
 23 24  3  0
M  CHG  1  12   1
M  END
$$$$
