
     RDKit          3D

 24 26  0  0  0  0  0  0  0  0999 V2000
  103.7652   63.2964   46.7907 N   0  0  0  0  0  0  0  0  0  0  0  0
  104.7947   63.2509   47.7487 C   0  0  0  0  0  0  0  0  0  0  0  0
  105.4808   64.5075   48.0123 N   0  0  0  0  0  0  0  0  0  0  0  0
  106.4265   64.2878   48.9855 C   0  0  0  0  0  0  0  0  0  0  0  0
  106.8051   63.3373   49.6284 N   0  0  0  0  0  0  0  0  0  0  0  0
  105.1931   62.1718   48.4488 C   0  0  0  0  0  0  0  0  0  0  0  0
  106.1868   62.0583   49.4302 C   0  0  0  0  0  0  0  0  0  0  0  0
  104.7533   60.9436   48.3297 N   0  0  0  0  0  0  0  0  0  0  0  0
  105.3665   60.0124   49.1481 C   0  0  0  0  0  0  0  0  0  0  0  0
  106.3396   60.8430   49.8825 C   0  0  0  0  0  0  0  0  0  0  0  0
  107.1340   60.1894   50.9395 C   0  0  0  0  0  0  0  0  0  0  0  0
  106.3936   59.7789   52.0931 N   0  0  1  0  0  4  0  0  0  0  0  0
  107.3778   59.4998   53.1472 C   0  0  0  0  0  0  0  0  0  0  0  0
  106.9823   60.4711   54.2652 C   0  0  2  0  0  0  0  0  0  0  0  0
  107.4960   60.0553   55.4523 O   0  0  0  0  0  0  0  0  0  0  0  0
  105.3960   60.6459   52.6164 C   0  0  0  0  0  0  0  0  0  0  0  0
  105.4962   60.3544   54.1568 C   0  0  2  0  0  0  0  0  0  0  0  0
  104.5847   61.1534   54.9508 C   0  0  0  0  0  0  0  0  0  0  0  0
  103.6038   62.3713   54.1753 S   0  0  0  0  0  0  0  0  0  0  0  0
  101.8272   62.1054   54.3214 C   0  0  0  0  0  0  0  0  0  0  0  0
  101.4865   61.9642   55.7844 C   0  0  0  0  0  0  0  0  0  0  0  0
  100.9020   63.2053   56.3825 C   0  0  0  0  0  0  0  0  0  0  0  0
   99.4366   62.9977   56.4516 C   0  0  0  0  0  0  0  0  0  0  0  0
   98.1797   62.8315   56.4918 C   0  0  0  0  0  0  0  0  0  0  0  0
  1  2  1  0
  2  3  2  0
  2  6  1  0
  3  4  1  0
  4  5  2  0
  5  7  1  0
  6  7  2  0
  6  8  1  0
  7 10  1  0
  8  9  1  0
  9 10  2  0
 10 11  1  0
 12 11  1  6
 12 13  1  0
 12 16  1  0
 13 14  1  0
 14 15  1  1
 14 17  1  0
 16 17  1  0
 17 18  1  1
 18 19  1  0
 19 20  1  0
 20 21  1  0
 21 22  1  0
 22 23  1  0
 23 24  3  0
M  CHG  1  12   1
M  END
$$$$
