
     RDKit          3D

 24 26  0  0  0  0  0  0  0  0999 V2000
  122.9918   87.8855   45.2326 N   0  0  0  0  0  0  0  0  0  0  0  0
  123.0043   87.2304   46.5303 C   0  0  0  0  0  0  0  0  0  0  0  0
  123.0210   85.9376   46.5940 N   0  0  0  0  0  0  0  0  0  0  0  0
  123.0583   85.2627   47.8247 C   0  0  0  0  0  0  0  0  0  0  0  0
  123.0736   86.0693   48.8621 N   0  0  0  0  0  0  0  0  0  0  0  0
  123.0193   88.0776   47.6019 C   0  0  0  0  0  0  0  0  0  0  0  0
  123.0567   87.4007   48.8668 C   0  0  0  0  0  0  0  0  0  0  0  0
  123.0028   89.3680   47.8417 N   0  0  0  0  0  0  0  0  0  0  0  0
  123.0310   89.6298   49.1680 C   0  0  0  0  0  0  0  0  0  0  0  0
  123.0640   88.4222   49.8188 C   0  0  0  0  0  0  0  0  0  0  0  0
  123.0658   88.1055   51.2510 C   0  0  0  0  0  0  0  0  0  0  0  0
  121.8039   87.8503   51.8499 N   0  0  1  0  0  4  0  0  0  0  0  0
  121.9418   86.7288   52.7515 C   0  0  0  0  0  0  0  0  0  0  0  0
  121.5470   87.2266   54.1072 C   0  0  2  0  0  0  0  0  0  0  0  0
  121.0726   86.2385   54.9598 O   0  0  0  0  0  0  0  0  0  0  0  0
  121.2778   88.9653   52.6330 C   0  0  0  0  0  0  0  0  0  0  0  0
  120.5421   88.2951   53.7736 C   0  0  2  0  0  0  0  0  0  0  0  0
  120.1803   89.1985   54.8945 C   0  0  0  0  0  0  0  0  0  0  0  0
  121.6671   89.8678   55.6767 S   0  0  0  0  0  0  0  0  0  0  0  0
  121.9975   91.5780   55.3393 C   0  0  0  0  0  0  0  0  0  0  0  0
  123.4087   91.9572   55.0589 C   0  0  0  0  0  0  0  0  0  0  0  0
  124.3275   91.5814   56.2167 C   0  0  0  0  0  0  0  0  0  0  0  0
  123.7265   92.2475   57.4318 C   0  0  0  0  0  0  0  0  0  0  0  0
  123.2461   92.7655   58.3596 C   0  0  0  0  0  0  0  0  0  0  0  0
  1  2  1  0
  2  3  2  0
  2  6  1  0
  3  4  1  0
  4  5  2  0
  5  7  1  0
  6  7  2  0
  6  8  1  0
  7 10  1  0
  8  9  1  0
  9 10  2  0
 11 10  1  1
 12 11  1  1
 12 13  1  0
 12 16  1  0
 13 14  1  6
 14 15  1  1
 14 17  1  0
 16 17  1  6
 17 18  1  1
 18 19  1  6
 20 19  1  1
 21 20  1  1
 21 22  1  0
 22 23  1  6
 23 24  3  0
M  CHG  1  12   1
M  END
$$$$
