
     RDKit          3D

 24 26  0  0  0  0  0  0  0  0999 V2000
  104.6357   64.4199   46.7145 N   0  0  0  0  0  0  0  0  0  0  0  0
  105.5443   63.8654   47.6347 C   0  0  0  0  0  0  0  0  0  0  0  0
  106.6581   64.7164   48.0275 N   0  0  0  0  0  0  0  0  0  0  0  0
  107.4215   64.0335   48.9443 C   0  0  0  0  0  0  0  0  0  0  0  0
  107.3864   62.9418   49.4612 N   0  0  0  0  0  0  0  0  0  0  0  0
  105.4761   62.6417   48.1927 C   0  0  0  0  0  0  0  0  0  0  0  0
  106.3247   62.0363   49.1289 C   0  0  0  0  0  0  0  0  0  0  0  0
  104.5969   61.7040   47.9406 N   0  0  0  0  0  0  0  0  0  0  0  0
  104.7813   60.5181   48.6280 C   0  0  0  0  0  0  0  0  0  0  0  0
  105.9832   60.8128   49.4309 C   0  0  0  0  0  0  0  0  0  0  0  0
  106.4368   59.7821   50.3836 C   0  0  0  0  0  0  0  0  0  0  0  0
  106.0300   59.9844   51.7404 N   0  0  1  0  0  4  0  0  0  0  0  0
  107.1984   59.6858   52.5789 C   0  0  0  0  0  0  0  0  0  0  0  0
  107.4404   61.0012   53.3278 C   0  0  2  0  0  0  0  0  0  0  0  0
  108.1881   60.7779   54.4401 O   0  0  0  0  0  0  0  0  0  0  0  0
  105.5045   61.2491   52.1213 C   0  0  0  0  0  0  0  0  0  0  0  0
  106.0195   61.3763   53.5999 C   0  0  2  0  0  0  0  0  0  0  0  0
  105.6429   62.6248   54.2316 C   0  0  0  0  0  0  0  0  0  0  0  0
  104.3367   62.6473   55.3894 S   0  0  0  0  0  0  0  0  0  0  0  0
  102.9176   61.6329   54.9359 C   0  0  0  0  0  0  0  0  0  0  0  0
  101.8191   62.5440   54.4466 C   0  0  0  0  0  0  0  0  0  0  0  0
  100.5954   61.8115   53.9929 C   0  0  0  0  0  0  0  0  0  0  0  0
  100.3144   60.7747   55.0134 C   0  0  0  0  0  0  0  0  0  0  0  0
  100.0666   59.9031   55.9009 C   0  0  0  0  0  0  0  0  0  0  0  0
  1  2  1  0
  2  3  2  0
  2  6  1  0
  3  4  1  0
  4  5  2  0
  5  7  1  0
  6  7  2  0
  6  8  1  0
  7 10  1  0
  8  9  1  0
  9 10  2  0
 10 11  1  0
 12 11  1  6
 12 13  1  0
 12 16  1  0
 13 14  1  0
 14 15  1  1
 14 17  1  0
 16 17  1  0
 17 18  1  6
 18 19  1  0
 19 20  1  0
 20 21  1  0
 21 22  1  0
 22 23  1  0
 23 24  3  0
M  CHG  1  12   1
M  END
$$$$
