
     RDKit          3D

 24 26  0  0  0  0  0  0  0  0999 V2000
  104.0192   63.4275   46.9555 N   0  0  0  0  0  0  0  0  0  0  0  0
  105.0308   63.3058   47.9258 C   0  0  0  0  0  0  0  0  0  0  0  0
  105.7213   64.5348   48.2892 N   0  0  0  0  0  0  0  0  0  0  0  0
  106.6476   64.2390   49.2609 C   0  0  0  0  0  0  0  0  0  0  0  0
  107.0074   63.2425   49.8419 N   0  0  0  0  0  0  0  0  0  0  0  0
  105.4084   62.1768   48.5551 C   0  0  0  0  0  0  0  0  0  0  0  0
  106.3832   61.9860   49.5433 C   0  0  0  0  0  0  0  0  0  0  0  0
  104.9617   60.9639   48.3422 N   0  0  0  0  0  0  0  0  0  0  0  0
  105.5530   59.9722   49.1036 C   0  0  0  0  0  0  0  0  0  0  0  0
  106.5188   60.7407   49.9116 C   0  0  0  0  0  0  0  0  0  0  0  0
  107.2891   60.0075   50.9338 C   0  0  0  0  0  0  0  0  0  0  0  0
  106.5339   59.5661   52.0661 N   0  0  1  0  0  4  0  0  0  0  0  0
  107.5072   59.1474   53.0835 C   0  0  0  0  0  0  0  0  0  0  0  0
  107.1890   60.0607   54.2728 C   0  0  2  0  0  0  0  0  0  0  0  0
  107.6851   59.5280   55.4201 O   0  0  0  0  0  0  0  0  0  0  0  0
  105.6022   60.4580   52.6637 C   0  0  0  0  0  0  0  0  0  0  0  0
  105.6975   60.0513   54.1781 C   0  0  2  0  0  0  0  0  0  0  0  0
  104.8498   60.8505   55.0396 C   0  0  0  0  0  0  0  0  0  0  0  0
  103.1152   60.6786   54.9449 S   0  0  0  0  0  0  0  0  0  0  0  0
  102.2602   62.1002   54.2404 C   0  0  0  0  0  0  0  0  0  0  0  0
  101.6115   62.8697   55.3645 C   0  0  0  0  0  0  0  0  0  0  0  0
  101.2051   64.2576   54.9795 C   0  0  0  0  0  0  0  0  0  0  0  0
  101.7425   64.4992   53.6200 C   0  0  0  0  0  0  0  0  0  0  0  0
  102.2077   64.6844   52.4546 C   0  0  0  0  0  0  0  0  0  0  0  0
  1  2  1  0
  2  3  2  0
  2  6  1  0
  3  4  1  0
  4  5  2  0
  5  7  1  0
  6  7  2  0
  6  8  1  0
  7 10  1  0
  8  9  1  0
  9 10  2  0
 10 11  1  0
 12 11  1  6
 12 13  1  0
 12 16  1  0
 13 14  1  0
 14 15  1  1
 14 17  1  0
 16 17  1  0
 17 18  1  1
 18 19  1  0
 19 20  1  0
 20 21  1  0
 21 22  1  0
 22 23  1  0
 23 24  3  0
M  CHG  1  12   1
M  END
$$$$
