
     RDKit          3D

 24 26  0  0  0  0  0  0  0  0999 V2000
  104.5098   63.8523   46.8595 N   0  0  0  0  0  0  0  0  0  0  0  0
  105.4968   63.4190   47.7639 C   0  0  0  0  0  0  0  0  0  0  0  0
  106.5801   64.3551   48.0269 N   0  0  0  0  0  0  0  0  0  0  0  0
  107.4295   63.7860   48.9459 C   0  0  0  0  0  0  0  0  0  0  0  0
  107.4843   62.7372   49.5436 N   0  0  0  0  0  0  0  0  0  0  0  0
  105.5283   62.2402   48.4142 C   0  0  0  0  0  0  0  0  0  0  0  0
  106.4593   61.7544   49.3418 C   0  0  0  0  0  0  0  0  0  0  0  0
  104.6913   61.2410   48.2840 N   0  0  0  0  0  0  0  0  0  0  0  0
  104.9795   60.1232   49.0458 C   0  0  0  0  0  0  0  0  0  0  0  0
  106.2045   60.5416   49.7532 C   0  0  0  0  0  0  0  0  0  0  0  0
  106.7667   59.6129   50.7518 C   0  0  0  0  0  0  0  0  0  0  0  0
  106.1916   59.7017   52.0590 N   0  0  1  0  0  4  0  0  0  0  0  0
  107.2571   60.1670   52.9565 C   0  0  0  0  0  0  0  0  0  0  0  0
  106.6934   61.4741   53.5254 C   0  0  2  0  0  0  0  0  0  0  0  0
  107.3394   61.8036   54.6743 O   0  0  0  0  0  0  0  0  0  0  0  0
  105.0422   60.5155   52.2526 C   0  0  0  0  0  0  0  0  0  0  0  0
  105.2723   61.0504   53.7117 C   0  0  2  0  0  0  0  0  0  0  0  0
  104.2339   61.9564   54.1593 C   0  0  0  0  0  0  0  0  0  0  0  0
  102.6860   61.9623   53.3524 S   0  0  0  0  0  0  0  0  0  0  0  0
  101.3650   61.1407   54.2625 C   0  0  0  0  0  0  0  0  0  0  0  0
  100.7482   62.1396   55.2102 C   0  0  0  0  0  0  0  0  0  0  0  0
  101.0802   61.8816   56.6466 C   0  0  0  0  0  0  0  0  0  0  0  0
  100.3443   60.6581   57.0426 C   0  0  0  0  0  0  0  0  0  0  0  0
   99.7198   59.6013   57.3621 C   0  0  0  0  0  0  0  0  0  0  0  0
  1  2  1  0
  2  3  2  0
  2  6  1  0
  3  4  1  0
  4  5  2  0
  5  7  1  0
  6  7  2  0
  6  8  1  0
  7 10  1  0
  8  9  1  0
  9 10  2  0
 10 11  1  0
 12 11  1  6
 12 13  1  0
 12 16  1  0
 13 14  1  0
 14 15  1  1
 14 17  1  0
 16 17  1  0
 17 18  1  6
 18 19  1  0
 19 20  1  0
 20 21  1  0
 21 22  1  0
 22 23  1  0
 23 24  3  0
M  CHG  1  12   1
M  END
$$$$
