
     RDKit          3D

 24 26  0  0  0  0  0  0  0  0999 V2000
  104.3215   64.1556   46.6079 N   0  0  0  0  0  0  0  0  0  0  0  0
  105.0003   64.0477   47.8888 C   0  0  0  0  0  0  0  0  0  0  0  0
  105.1196   65.0954   48.6397 N   0  0  0  0  0  0  0  0  0  0  0  0
  105.7456   65.0326   49.8950 C   0  0  0  0  0  0  0  0  0  0  0  0
  106.1783   63.8306   50.2031 N   0  0  0  0  0  0  0  0  0  0  0  0
  105.4468   62.7945   48.1991 C   0  0  0  0  0  0  0  0  0  0  0  0
  106.0897   62.7161   49.4797 C   0  0  0  0  0  0  0  0  0  0  0  0
  105.4767   61.5958   47.6651 N   0  0  0  0  0  0  0  0  0  0  0  0
  106.0834   60.7019   48.4784 C   0  0  0  0  0  0  0  0  0  0  0  0
  106.4703   61.3787   49.6075 C   0  0  0  0  0  0  0  0  0  0  0  0
  107.1977   60.9216   50.7964 C   0  0  0  0  0  0  0  0  0  0  0  0
  106.5625   59.9319   51.5920 N   0  0  1  0  0  4  0  0  0  0  0  0
  107.2996   59.7931   52.8277 C   0  0  0  0  0  0  0  0  0  0  0  0
  106.3359   60.1031   53.9308 C   0  0  2  0  0  0  0  0  0  0  0  0
  106.6474   59.5025   55.1434 O   0  0  0  0  0  0  0  0  0  0  0  0
  105.1829   60.2493   51.9514 C   0  0  0  0  0  0  0  0  0  0  0  0
  105.0239   59.6660   53.3391 C   0  0  2  0  0  0  0  0  0  0  0  0
  103.8147   60.1224   54.0693 C   0  0  0  0  0  0  0  0  0  0  0  0
  103.7811   61.9273   54.1773 S   0  0  0  0  0  0  0  0  0  0  0  0
  103.2290   62.5842   55.7301 C   0  0  0  0  0  0  0  0  0  0  0  0
  104.1958   62.5646   56.8610 C   0  0  0  0  0  0  0  0  0  0  0  0
  103.6350   63.2785   58.0864 C   0  0  0  0  0  0  0  0  0  0  0  0
  102.1494   63.3874   57.8363 C   0  0  0  0  0  0  0  0  0  0  0  0
  101.0024   63.4530   57.6359 C   0  0  0  0  0  0  0  0  0  0  0  0
  1  2  1  0
  2  3  2  0
  2  6  1  0
  3  4  1  0
  4  5  2  0
  5  7  1  0
  6  7  2  0
  6  8  1  0
  7 10  1  0
  8  9  1  0
  9 10  2  0
 11 10  1  1
 12 11  1  6
 12 13  1  0
 12 16  1  0
 13 14  1  6
 14 15  1  1
 14 17  1  0
 16 17  1  6
 17 18  1  1
 18 19  1  6
 20 19  1  1
 21 20  1  1
 21 22  1  0
 22 23  1  6
 23 24  3  0
M  CHG  1  12   1
M  END
$$$$
