
     RDKit          3D

 24 26  0  0  0  0  0  0  0  0999 V2000
  105.2563   64.0209   46.1024 N   0  0  0  0  0  0  0  0  0  0  0  0
  106.0230   63.5949   47.2026 C   0  0  0  0  0  0  0  0  0  0  0  0
  107.0589   64.5121   47.6552 N   0  0  0  0  0  0  0  0  0  0  0  0
  107.6837   63.9545   48.7454 C   0  0  0  0  0  0  0  0  0  0  0  0
  107.5816   62.9263   49.3720 N   0  0  0  0  0  0  0  0  0  0  0  0
  105.8832   62.4393   47.8797 C   0  0  0  0  0  0  0  0  0  0  0  0
  106.5887   61.9631   48.9927 C   0  0  0  0  0  0  0  0  0  0  0  0
  105.0592   61.4576   47.6095 N   0  0  0  0  0  0  0  0  0  0  0  0
  105.1496   60.3603   48.4466 C   0  0  0  0  0  0  0  0  0  0  0  0
  106.2165   60.7724   49.3782 C   0  0  0  0  0  0  0  0  0  0  0  0
  106.5326   59.8654   50.4977 C   0  0  0  0  0  0  0  0  0  0  0  0
  105.6883   59.9963   51.6455 N   0  0  1  0  0  4  0  0  0  0  0  0
  106.5483   60.4351   52.7524 C   0  0  0  0  0  0  0  0  0  0  0  0
  105.9262   61.7712   53.1740 C   0  0  2  0  0  0  0  0  0  0  0  0
  106.3165   62.0941   54.4347 O   0  0  0  0  0  0  0  0  0  0  0  0
  104.5581   60.8556   51.5756 C   0  0  0  0  0  0  0  0  0  0  0  0
  104.4831   61.4042   53.0457 C   0  0  2  0  0  0  0  0  0  0  0  0
  103.4089   62.3555   53.2473 C   0  0  0  0  0  0  0  0  0  0  0  0
  101.9802   61.8715   54.1260 S   0  0  0  0  0  0  0  0  0  0  0  0
  102.0270   62.2382   55.8899 C   0  0  0  0  0  0  0  0  0  0  0  0
  102.2581   60.9483   56.6376 C   0  0  0  0  0  0  0  0  0  0  0  0
  102.1021   61.0827   58.1200 C   0  0  0  0  0  0  0  0  0  0  0  0
  100.6860   61.4393   58.3705 C   0  0  0  0  0  0  0  0  0  0  0  0
   99.4800   61.7655   58.5900 C   0  0  0  0  0  0  0  0  0  0  0  0
  1  2  1  0
  2  3  2  0
  2  6  1  0
  3  4  1  0
  4  5  2  0
  5  7  1  0
  6  7  2  0
  6  8  1  0
  7 10  1  0
  8  9  1  0
  9 10  2  0
 10 11  1  0
 12 11  1  6
 12 13  1  0
 12 16  1  0
 13 14  1  0
 14 15  1  1
 14 17  1  0
 16 17  1  0
 17 18  1  6
 18 19  1  0
 19 20  1  0
 20 21  1  0
 21 22  1  0
 22 23  1  0
 23 24  3  0
M  CHG  1  12   1
M  END
$$$$
