
     RDKit          3D

 24 26  0  0  0  0  0  0  0  0999 V2000
  104.9074   63.7875   46.3277 N   0  0  0  0  0  0  0  0  0  0  0  0
  105.6800   63.3590   47.4228 C   0  0  0  0  0  0  0  0  0  0  0  0
  106.6701   64.3046   47.9176 N   0  0  0  0  0  0  0  0  0  0  0  0
  107.3066   63.7389   48.9967 C   0  0  0  0  0  0  0  0  0  0  0  0
  107.2426   62.6872   49.5884 N   0  0  0  0  0  0  0  0  0  0  0  0
  105.5833   62.1768   48.0603 C   0  0  0  0  0  0  0  0  0  0  0  0
  106.2968   61.6950   49.1658 C   0  0  0  0  0  0  0  0  0  0  0  0
  104.8057   61.1699   47.7484 N   0  0  0  0  0  0  0  0  0  0  0  0
  104.9348   60.0505   48.5504 C   0  0  0  0  0  0  0  0  0  0  0  0
  105.9726   60.4773   49.5079 C   0  0  0  0  0  0  0  0  0  0  0  0
  106.3157   59.5485   50.6012 C   0  0  0  0  0  0  0  0  0  0  0  0
  105.5426   59.7004   51.7956 N   0  0  1  0  0  4  0  0  0  0  0  0
  106.3356   59.1190   52.8868 C   0  0  0  0  0  0  0  0  0  0  0  0
  106.5250   60.2956   53.8508 C   0  0  2  0  0  0  0  0  0  0  0  0
  106.8490   59.8406   55.0894 O   0  0  0  0  0  0  0  0  0  0  0  0
  105.1180   61.0011   52.1812 C   0  0  0  0  0  0  0  0  0  0  0  0
  105.1617   60.8994   53.7482 C   0  0  2  0  0  0  0  0  0  0  0  0
  104.7966   62.1345   54.4122 C   0  0  0  0  0  0  0  0  0  0  0  0
  103.2100   62.8160   54.1568 S   0  0  0  0  0  0  0  0  0  0  0  0
  101.9243   62.1378   55.2224 C   0  0  0  0  0  0  0  0  0  0  0  0
  102.0014   62.8307   56.5604 C   0  0  0  0  0  0  0  0  0  0  0  0
  101.8687   61.8976   57.7230 C   0  0  0  0  0  0  0  0  0  0  0  0
  100.6919   61.0396   57.4507 C   0  0  0  0  0  0  0  0  0  0  0  0
   99.6717   60.3192   57.2293 C   0  0  0  0  0  0  0  0  0  0  0  0
  1  2  1  0
  2  3  2  0
  2  6  1  0
  3  4  1  0
  4  5  2  0
  5  7  1  0
  6  7  2  0
  6  8  1  0
  7 10  1  0
  8  9  1  0
  9 10  2  0
 10 11  1  0
 12 11  1  6
 12 13  1  0
 12 16  1  0
 13 14  1  0
 14 15  1  1
 14 17  1  0
 16 17  1  0
 17 18  1  1
 18 19  1  0
 19 20  1  0
 20 21  1  0
 21 22  1  0
 22 23  1  0
 23 24  3  0
M  CHG  1  12   1
M  END
$$$$
