
     RDKit          3D

 24 26  0  0  0  0  0  0  0  0999 V2000
  105.7487   65.2060   46.4471 N   0  0  0  0  0  0  0  0  0  0  0  0
  105.5981   63.9210   47.0001 C   0  0  0  0  0  0  0  0  0  0  0  0
  104.7153   63.0136   46.2815 N   0  0  0  0  0  0  0  0  0  0  0  0
  104.7086   61.8062   46.9387 C   0  0  0  0  0  0  0  0  0  0  0  0
  105.2316   61.3553   47.9304 N   0  0  0  0  0  0  0  0  0  0  0  0
  106.1968   63.4492   48.1102 C   0  0  0  0  0  0  0  0  0  0  0  0
  106.1144   62.1818   48.7018 C   0  0  0  0  0  0  0  0  0  0  0  0
  106.9781   64.1080   48.9297 N   0  0  0  0  0  0  0  0  0  0  0  0
  107.4293   63.3913   50.0233 C   0  0  0  0  0  0  0  0  0  0  0  0
  106.8031   62.0735   49.8058 C   0  0  0  0  0  0  0  0  0  0  0  0
  107.1411   60.9932   50.7515 C   0  0  0  0  0  0  0  0  0  0  0  0
  106.0211   60.3410   51.3580 N   0  0  1  0  0  4  0  0  0  0  0  0
  106.5675   59.3670   52.3120 C   0  0  0  0  0  0  0  0  0  0  0  0
  105.9750   59.8159   53.6526 C   0  0  2  0  0  0  0  0  0  0  0  0
  106.0189   58.7970   54.5504 O   0  0  0  0  0  0  0  0  0  0  0  0
  105.0399   61.1287   52.0195 C   0  0  0  0  0  0  0  0  0  0  0  0
  104.6007   60.1755   53.1884 C   0  0  2  0  0  0  0  0  0  0  0  0
  103.6041   60.7623   54.0614 C   0  0  0  0  0  0  0  0  0  0  0  0
  104.1079   61.7933   55.3769 S   0  0  0  0  0  0  0  0  0  0  0  0
  102.8945   61.9664   56.6983 C   0  0  0  0  0  0  0  0  0  0  0  0
  101.7856   62.8656   56.2105 C   0  0  0  0  0  0  0  0  0  0  0  0
  100.4227   62.4127   56.6314 C   0  0  0  0  0  0  0  0  0  0  0  0
  100.5640   61.8348   57.9883 C   0  0  0  0  0  0  0  0  0  0  0  0
  100.7016   61.3542   59.1541 C   0  0  0  0  0  0  0  0  0  0  0  0
  1  2  1  0
  2  3  2  0
  2  6  1  0
  3  4  1  0
  4  5  2  0
  5  7  1  0
  6  7  2  0
  6  8  1  0
  7 10  1  0
  8  9  1  0
  9 10  2  0
 10 11  1  0
 12 11  1  1
 12 13  1  0
 12 16  1  0
 13 14  1  0
 14 15  1  1
 14 17  1  0
 16 17  1  0
 17 18  1  1
 18 19  1  0
 19 20  1  0
 20 21  1  0
 21 22  1  0
 22 23  1  0
 23 24  3  0
M  CHG  1  12   1
M  END
$$$$
