
     RDKit          3D

 24 26  0  0  0  0  0  0  0  0999 V2000
  104.4953   62.9629   45.3797 N   0  0  0  0  0  0  0  0  0  0  0  0
  105.4841   63.1396   46.3650 C   0  0  0  0  0  0  0  0  0  0  0  0
  106.5610   64.0614   46.0340 N   0  0  0  0  0  0  0  0  0  0  0  0
  107.4130   64.1351   47.1103 C   0  0  0  0  0  0  0  0  0  0  0  0
  107.4740   63.6269   48.2049 N   0  0  0  0  0  0  0  0  0  0  0  0
  105.5226   62.5557   47.5779 C   0  0  0  0  0  0  0  0  0  0  0  0
  106.4557   62.7027   48.6128 C   0  0  0  0  0  0  0  0  0  0  0  0
  104.6924   61.6609   48.0530 N   0  0  0  0  0  0  0  0  0  0  0  0
  104.9870   61.1927   49.3206 C   0  0  0  0  0  0  0  0  0  0  0  0
  106.2084   61.9510   49.6514 C   0  0  0  0  0  0  0  0  0  0  0  0
  106.7755   61.7759   51.0017 C   0  0  0  0  0  0  0  0  0  0  0  0
  106.1854   60.7302   51.7800 N   0  0  1  0  0  4  0  0  0  0  0  0
  107.0272   60.5673   52.9727 C   0  0  0  0  0  0  0  0  0  0  0  0
  106.0584   60.8420   54.1284 C   0  0  2  0  0  0  0  0  0  0  0  0
  106.5449   60.3185   55.2838 O   0  0  0  0  0  0  0  0  0  0  0  0
  104.8303   60.8568   52.1902 C   0  0  0  0  0  0  0  0  0  0  0  0
  104.8525   60.1429   53.5893 C   0  0  2  0  0  0  0  0  0  0  0  0
  103.5684   60.1593   54.2605 C   0  0  0  0  0  0  0  0  0  0  0  0
  103.5047   60.2886   56.0001 S   0  0  0  0  0  0  0  0  0  0  0  0
  102.6555   61.7565   56.6104 C   0  0  0  0  0  0  0  0  0  0  0  0
  101.2211   61.7035   56.1455 C   0  0  0  0  0  0  0  0  0  0  0  0
  100.2852   62.4888   57.0100 C   0  0  0  0  0  0  0  0  0  0  0  0
  100.0146   61.6616   58.2091 C   0  0  0  0  0  0  0  0  0  0  0  0
   99.7611   60.9576   59.2333 C   0  0  0  0  0  0  0  0  0  0  0  0
  1  2  1  0
  2  3  2  0
  2  6  1  0
  3  4  1  0
  4  5  2  0
  5  7  1  0
  6  7  2  0
  6  8  1  0
  7 10  1  0
  8  9  1  0
  9 10  2  0
 10 11  1  0
 12 11  1  1
 12 13  1  0
 12 16  1  0
 13 14  1  0
 14 15  1  1
 14 17  1  0
 16 17  1  0
 17 18  1  1
 18 19  1  0
 19 20  1  0
 20 21  1  0
 21 22  1  0
 22 23  1  0
 23 24  3  0
M  CHG  1  12   1
M  END
$$$$
