
     RDKit          3D

 24 26  0  0  0  0  0  0  0  0999 V2000
  104.2151   64.5216   47.8162 N   0  0  0  0  0  0  0  0  0  0  0  0
  105.3701   63.8118   48.3409 C   0  0  0  0  0  0  0  0  0  0  0  0
  106.5329   64.3805   48.3225 N   0  0  0  0  0  0  0  0  0  0  0  0
  107.6714   63.7426   48.8407 C   0  0  0  0  0  0  0  0  0  0  0  0
  107.4240   62.5470   49.3269 N   0  0  0  0  0  0  0  0  0  0  0  0
  105.1024   62.5699   48.8430 C   0  0  0  0  0  0  0  0  0  0  0  0
  106.2579   61.9060   49.3756 C   0  0  0  0  0  0  0  0  0  0  0  0
  104.0776   61.7628   48.9888 N   0  0  0  0  0  0  0  0  0  0  0  0
  104.4367   60.6021   49.5824 C   0  0  0  0  0  0  0  0  0  0  0  0
  105.7847   60.6729   49.8288 C   0  0  0  0  0  0  0  0  0  0  0  0
  106.7040   59.6924   50.4159 C   0  0  0  0  0  0  0  0  0  0  0  0
  106.8817   59.7471   51.8237 N   0  0  1  0  0  4  0  0  0  0  0  0
  107.8976   60.7318   52.1204 C   0  0  0  0  0  0  0  0  0  0  0  0
  107.2499   61.7533   53.0028 C   0  0  2  0  0  0  0  0  0  0  0  0
  108.1339   62.4309   53.8320 O   0  0  0  0  0  0  0  0  0  0  0  0
  105.6828   60.1349   52.5624 C   0  0  0  0  0  0  0  0  0  0  0  0
  106.2170   60.9365   53.7300 C   0  0  2  0  0  0  0  0  0  0  0  0
  105.1924   61.7185   54.4662 C   0  0  0  0  0  0  0  0  0  0  0  0
  103.8909   60.6302   55.0924 S   0  0  0  0  0  0  0  0  0  0  0  0
  102.2427   61.0507   54.5882 C   0  0  0  0  0  0  0  0  0  0  0  0
  101.5060   62.0388   55.4218 C   0  0  0  0  0  0  0  0  0  0  0  0
   99.9968   61.8606   55.2944 C   0  0  0  0  0  0  0  0  0  0  0  0
   99.7483   60.3923   55.5465 C   0  0  0  0  0  0  0  0  0  0  0  0
   99.5384   59.2630   55.7480 C   0  0  0  0  0  0  0  0  0  0  0  0
  1  2  1  0
  2  3  2  0
  2  6  1  0
  3  4  1  0
  4  5  2  0
  5  7  1  0
  6  7  2  0
  6  8  1  0
  7 10  1  0
  8  9  1  0
  9 10  2  0
 11 10  1  1
 12 11  1  6
 12 13  1  0
 12 16  1  0
 13 14  1  6
 14 15  1  1
 14 17  1  0
 16 17  1  6
 17 18  1  6
 18 19  1  6
 20 19  1  1
 21 20  1  1
 21 22  1  0
 22 23  1  6
 23 24  3  0
M  CHG  1  12   1
M  END
$$$$
