
     RDKit          3D

 24 26  0  0  0  0  0  0  0  0999 V2000
  106.3641   64.9858   46.5565 N   0  0  0  0  0  0  0  0  0  0  0  0
  105.8943   63.7612   47.0659 C   0  0  0  0  0  0  0  0  0  0  0  0
  104.7091   63.2123   46.4233 N   0  0  0  0  0  0  0  0  0  0  0  0
  104.4100   62.0113   47.0215 C   0  0  0  0  0  0  0  0  0  0  0  0
  104.8755   61.3494   47.9190 N   0  0  0  0  0  0  0  0  0  0  0  0
  106.4378   63.0478   48.0705 C   0  0  0  0  0  0  0  0  0  0  0  0
  106.0421   61.8169   48.6104 C   0  0  0  0  0  0  0  0  0  0  0  0
  107.4629   63.3814   48.8147 N   0  0  0  0  0  0  0  0  0  0  0  0
  107.7914   62.4791   49.8101 C   0  0  0  0  0  0  0  0  0  0  0  0
  106.7793   61.4240   49.6138 C   0  0  0  0  0  0  0  0  0  0  0  0
  106.8757   60.2201   50.4607 C   0  0  0  0  0  0  0  0  0  0  0  0
  106.0538   60.2310   51.6319 N   0  0  1  0  0  4  0  0  0  0  0  0
  106.5939   59.2056   52.5343 C   0  0  0  0  0  0  0  0  0  0  0  0
  106.9582   60.0004   53.7934 C   0  0  2  0  0  0  0  0  0  0  0  0
  107.0589   59.1673   54.8620 O   0  0  0  0  0  0  0  0  0  0  0  0
  105.9023   61.4445   52.3566 C   0  0  0  0  0  0  0  0  0  0  0  0
  105.7819   60.9215   53.8330 C   0  0  2  0  0  0  0  0  0  0  0  0
  105.6485   61.9852   54.8078 C   0  0  0  0  0  0  0  0  0  0  0  0
  104.0775   62.6798   55.1186 S   0  0  0  0  0  0  0  0  0  0  0  0
  102.7548   61.4738   55.3286 C   0  0  0  0  0  0  0  0  0  0  0  0
  101.7112   61.7235   54.2679 C   0  0  0  0  0  0  0  0  0  0  0  0
  100.3958   61.0729   54.5615 C   0  0  0  0  0  0  0  0  0  0  0  0
   99.9696   61.5531   55.8968 C   0  0  0  0  0  0  0  0  0  0  0  0
   99.6251   61.9595   57.0479 C   0  0  0  0  0  0  0  0  0  0  0  0
  1  2  1  0
  2  3  2  0
  2  6  1  0
  3  4  1  0
  4  5  2  0
  5  7  1  0
  6  7  2  0
  6  8  1  0
  7 10  1  0
  8  9  1  0
  9 10  2  0
 10 11  1  0
 12 11  1  6
 12 13  1  0
 12 16  1  0
 13 14  1  0
 14 15  1  1
 14 17  1  0
 16 17  1  0
 17 18  1  1
 18 19  1  0
 19 20  1  0
 20 21  1  0
 21 22  1  0
 22 23  1  0
 23 24  3  0
M  CHG  1  12   1
M  END
$$$$
