
     RDKit          3D

 24 26  0  0  0  0  0  0  0  0999 V2000
  104.5594   63.9594   46.1331 N   0  0  0  0  0  0  0  0  0  0  0  0
  105.4060   63.6070   47.2002 C   0  0  0  0  0  0  0  0  0  0  0  0
  106.3805   64.6105   47.6034 N   0  0  0  0  0  0  0  0  0  0  0  0
  107.0963   64.1150   48.6673 C   0  0  0  0  0  0  0  0  0  0  0  0
  107.1076   63.0866   49.3017 N   0  0  0  0  0  0  0  0  0  0  0  0
  105.3926   62.4489   47.8873 C   0  0  0  0  0  0  0  0  0  0  0  0
  106.1830   62.0413   48.9701 C   0  0  0  0  0  0  0  0  0  0  0  0
  104.6424   61.4000   47.6573 N   0  0  0  0  0  0  0  0  0  0  0  0
  104.8603   60.3203   48.4939 C   0  0  0  0  0  0  0  0  0  0  0  0
  105.9286   60.8267   49.3761 C   0  0  0  0  0  0  0  0  0  0  0  0
  106.3675   59.9576   50.4842 C   0  0  0  0  0  0  0  0  0  0  0  0
  105.5021   59.9383   51.6236 N   0  0  1  0  0  4  0  0  0  0  0  0
  106.3633   60.0549   52.8078 C   0  0  0  0  0  0  0  0  0  0  0  0
  105.8593   61.3340   53.4858 C   0  0  2  0  0  0  0  0  0  0  0  0
  106.2369   61.3541   54.7908 O   0  0  0  0  0  0  0  0  0  0  0  0
  104.4630   60.9038   51.7165 C   0  0  0  0  0  0  0  0  0  0  0  0
  104.3926   61.1484   53.2667 C   0  0  2  0  0  0  0  0  0  0  0  0
  103.4090   62.1429   53.6449 C   0  0  0  0  0  0  0  0  0  0  0  0
  103.5066   62.9010   55.2143 S   0  0  0  0  0  0  0  0  0  0  0  0
  102.7561   61.9530   56.5508 C   0  0  0  0  0  0  0  0  0  0  0  0
  101.6697   62.7922   57.1769 C   0  0  0  0  0  0  0  0  0  0  0  0
  100.2912   62.2671   56.9245 C   0  0  0  0  0  0  0  0  0  0  0  0
  100.3284   60.8134   57.2084 C   0  0  0  0  0  0  0  0  0  0  0  0
  100.3493   59.5725   57.4705 C   0  0  0  0  0  0  0  0  0  0  0  0
  1  2  1  0
  2  3  2  0
  2  6  1  0
  3  4  1  0
  4  5  2  0
  5  7  1  0
  6  7  2  0
  6  8  1  0
  7 10  1  0
  8  9  1  0
  9 10  2  0
 10 11  1  0
 12 11  1  6
 12 13  1  0
 12 16  1  0
 13 14  1  0
 14 15  1  1
 14 17  1  0
 16 17  1  0
 17 18  1  6
 18 19  1  0
 19 20  1  0
 20 21  1  0
 21 22  1  0
 22 23  1  0
 23 24  3  0
M  CHG  1  12   1
M  END
$$$$
