
     RDKit          3D

 24 26  0  0  0  0  0  0  0  0999 V2000
  125.7410   87.9967   47.2933 N   0  0  0  0  0  0  0  0  0  0  0  0
  124.7685   87.3451   48.1552 C   0  0  0  0  0  0  0  0  0  0  0  0
  124.9454   86.1099   48.4997 N   0  0  0  0  0  0  0  0  0  0  0  0
  124.0452   85.4478   49.3500 C   0  0  0  0  0  0  0  0  0  0  0  0
  123.0421   86.2029   49.7381 N   0  0  0  0  0  0  0  0  0  0  0  0
  123.7295   88.1382   48.5522 C   0  0  0  0  0  0  0  0  0  0  0  0
  122.8010   87.4736   49.4215 C   0  0  0  0  0  0  0  0  0  0  0  0
  123.2979   89.3647   48.3725 N   0  0  0  0  0  0  0  0  0  0  0  0
  122.1518   89.5954   49.0521 C   0  0  0  0  0  0  0  0  0  0  0  0
  121.8287   88.4341   49.7076 C   0  0  0  0  0  0  0  0  0  0  0  0
  120.6794   88.1008   50.5559 C   0  0  0  0  0  0  0  0  0  0  0  0
  120.4990   88.8874   51.7242 N   0  0  1  0  0  4  0  0  0  0  0  0
  120.6417   88.0318   52.8806 C   0  0  0  0  0  0  0  0  0  0  0  0
  121.7696   88.5968   53.6868 C   0  0  2  0  0  0  0  0  0  0  0  0
  121.7044   88.3002   55.0418 O   0  0  0  0  0  0  0  0  0  0  0  0
  121.4691   89.9693   51.8716 C   0  0  0  0  0  0  0  0  0  0  0  0
  121.6855   90.0642   53.3667 C   0  0  2  0  0  0  0  0  0  0  0  0
  122.8632   90.8712   53.7732 C   0  0  0  0  0  0  0  0  0  0  0  0
  124.0391   89.8571   54.7001 S   0  0  0  0  0  0  0  0  0  0  0  0
  124.1774   90.2423   56.4264 C   0  0  0  0  0  0  0  0  0  0  0  0
  125.1834   91.2663   56.8179 C   0  0  0  0  0  0  0  0  0  0  0  0
  126.1887   90.7061   57.8186 C   0  0  0  0  0  0  0  0  0  0  0  0
  126.5721   89.3490   57.2777 C   0  0  0  0  0  0  0  0  0  0  0  0
  126.8833   88.3006   56.8729 C   0  0  0  0  0  0  0  0  0  0  0  0
  1  2  1  0
  2  3  2  0
  2  6  1  0
  3  4  1  0
  4  5  2  0
  5  7  1  0
  6  7  2  0
  6  8  1  0
  7 10  1  0
  8  9  1  0
  9 10  2  0
 11 10  1  1
 12 11  1  6
 12 13  1  0
 12 16  1  0
 13 14  1  6
 14 15  1  1
 14 17  1  0
 16 17  1  6
 17 18  1  6
 18 19  1  6
 20 19  1  1
 21 20  1  1
 21 22  1  0
 22 23  1  6
 23 24  3  0
M  CHG  1  12   1
M  END
$$$$
