
     RDKit          3D

 24 26  0  0  0  0  0  0  0  0999 V2000
  125.6959   87.1167   46.9135 N   0  0  0  0  0  0  0  0  0  0  0  0
  124.5249   86.9380   47.7562 C   0  0  0  0  0  0  0  0  0  0  0  0
  124.2462   85.7632   48.2230 N   0  0  0  0  0  0  0  0  0  0  0  0
  123.1397   85.5486   49.0605 C   0  0  0  0  0  0  0  0  0  0  0  0
  122.4494   86.6401   49.3034 N   0  0  0  0  0  0  0  0  0  0  0  0
  123.8139   88.0783   48.0018 C   0  0  0  0  0  0  0  0  0  0  0  0
  122.6794   87.8731   48.8563 C   0  0  0  0  0  0  0  0  0  0  0  0
  123.8449   89.3506   47.6806 N   0  0  0  0  0  0  0  0  0  0  0  0
  122.8265   90.0342   48.2499 C   0  0  0  0  0  0  0  0  0  0  0  0
  122.0934   89.1344   48.9818 C   0  0  0  0  0  0  0  0  0  0  0  0
  120.8686   89.3117   49.7691 C   0  0  0  0  0  0  0  0  0  0  0  0
  121.0336   89.6161   51.1462 N   0  0  1  0  0  4  0  0  0  0  0  0
  120.4867   88.5284   51.9257 C   0  0  0  0  0  0  0  0  0  0  0  0
  121.6100   88.0050   52.7658 C   0  0  2  0  0  0  0  0  0  0  0  0
  121.2015   87.3866   53.9400 O   0  0  0  0  0  0  0  0  0  0  0  0
  122.4249   89.7796   51.5593 C   0  0  0  0  0  0  0  0  0  0  0  0
  122.4530   89.2339   52.9709 C   0  0  2  0  0  0  0  0  0  0  0  0
  123.8124   88.9877   53.5140 C   0  0  0  0  0  0  0  0  0  0  0  0
  124.2831   90.2988   54.6673 S   0  0  0  0  0  0  0  0  0  0  0  0
  123.2174   90.4918   56.0725 C   0  0  0  0  0  0  0  0  0  0  0  0
  123.8474   90.4310   57.4192 C   0  0  0  0  0  0  0  0  0  0  0  0
  125.3671   90.3517   57.3207 C   0  0  0  0  0  0  0  0  0  0  0  0
  125.8280   91.7794   57.1462 C   0  0  0  0  0  0  0  0  0  0  0  0
  126.1745   92.8867   57.0283 C   0  0  0  0  0  0  0  0  0  0  0  0
  1  2  1  0
  2  3  2  0
  2  6  1  0
  3  4  1  0
  4  5  2  0
  5  7  1  0
  6  7  2  0
  6  8  1  0
  7 10  1  0
  8  9  1  0
  9 10  2  0
 11 10  1  1
 12 11  1  6
 12 13  1  0
 12 16  1  0
 13 14  1  6
 14 15  1  1
 14 17  1  0
 16 17  1  6
 17 18  1  6
 18 19  1  6
 20 19  1  1
 21 20  1  1
 21 22  1  0
 22 23  1  6
 23 24  3  0
M  CHG  1  12   1
M  END
$$$$
