
     RDKit          3D

 24 26  0  0  0  0  0  0  0  0999 V2000
  104.2370   62.6504   45.5351 N   0  0  0  0  0  0  0  0  0  0  0  0
  105.2514   62.7349   46.5064 C   0  0  0  0  0  0  0  0  0  0  0  0
  106.5516   63.1912   46.0370 N   0  0  0  0  0  0  0  0  0  0  0  0
  107.4062   63.2417   47.1127 C   0  0  0  0  0  0  0  0  0  0  0  0
  107.3304   62.9952   48.2932 N   0  0  0  0  0  0  0  0  0  0  0  0
  105.1334   62.4514   47.8176 C   0  0  0  0  0  0  0  0  0  0  0  0
  106.0867   62.5361   48.8410 C   0  0  0  0  0  0  0  0  0  0  0  0
  104.0791   61.9777   48.4339 N   0  0  0  0  0  0  0  0  0  0  0  0
  104.2414   61.7364   49.7861 C   0  0  0  0  0  0  0  0  0  0  0  0
  105.6420   62.1445   50.0045 C   0  0  0  0  0  0  0  0  0  0  0  0
  106.1547   62.1111   51.3872 C   0  0  0  0  0  0  0  0  0  0  0  0
  106.3384   60.8034   51.9380 N   0  0  1  0  0  4  0  0  0  0  0  0
  107.3994   60.9173   52.9473 C   0  0  0  0  0  0  0  0  0  0  0  0
  106.7098   60.4584   54.2372 C   0  0  2  0  0  0  0  0  0  0  0  0
  107.6366   60.0906   55.1601 O   0  0  0  0  0  0  0  0  0  0  0  0
  105.2248   60.1368   52.5178 C   0  0  0  0  0  0  0  0  0  0  0  0
  105.9064   59.3283   53.6795 C   0  0  2  0  0  0  0  0  0  0  0  0
  104.9654   58.5652   54.4743 C   0  0  0  0  0  0  0  0  0  0  0  0
  103.7483   59.3984   55.4079 S   0  0  0  0  0  0  0  0  0  0  0  0
  102.7371   60.5504   54.4598 C   0  0  0  0  0  0  0  0  0  0  0  0
  101.3485   60.5606   55.0498 C   0  0  0  0  0  0  0  0  0  0  0  0
  101.1126   61.6936   55.9987 C   0  0  0  0  0  0  0  0  0  0  0  0
  101.1588   61.1236   57.3655 C   0  0  0  0  0  0  0  0  0  0  0  0
  101.2084   60.6174   58.5275 C   0  0  0  0  0  0  0  0  0  0  0  0
  1  2  1  0
  2  3  2  0
  2  6  1  0
  3  4  1  0
  4  5  2  0
  5  7  1  0
  6  7  2  0
  6  8  1  0
  7 10  1  0
  8  9  1  0
  9 10  2  0
 10 11  1  0
 12 11  1  1
 12 13  1  0
 12 16  1  0
 13 14  1  0
 14 15  1  1
 14 17  1  0
 16 17  1  0
 17 18  1  1
 18 19  1  0
 19 20  1  0
 20 21  1  0
 21 22  1  0
 22 23  1  0
 23 24  3  0
M  CHG  1  12   1
M  END
$$$$
