
     RDKit          3D

 24 26  0  0  0  0  0  0  0  0999 V2000
  104.2601   64.3279   47.3886 N   0  0  0  0  0  0  0  0  0  0  0  0
  105.2876   63.7649   48.1676 C   0  0  0  0  0  0  0  0  0  0  0  0
  106.4226   64.6305   48.4535 N   0  0  0  0  0  0  0  0  0  0  0  0
  107.3086   63.9354   49.2419 C   0  0  0  0  0  0  0  0  0  0  0  0
  107.3618   62.8252   49.7161 N   0  0  0  0  0  0  0  0  0  0  0  0
  105.3160   62.5204   48.6814 C   0  0  0  0  0  0  0  0  0  0  0  0
  106.2872   61.9044   49.4817 C   0  0  0  0  0  0  0  0  0  0  0  0
  104.4331   61.5694   48.5028 N   0  0  0  0  0  0  0  0  0  0  0  0
  104.7273   60.3647   49.1154 C   0  0  0  0  0  0  0  0  0  0  0  0
  106.0127   60.6621   49.7753 C   0  0  0  0  0  0  0  0  0  0  0  0
  106.6034   59.6101   50.6238 C   0  0  0  0  0  0  0  0  0  0  0  0
  106.2802   59.6956   52.0151 N   0  0  1  0  0  4  0  0  0  0  0  0
  107.4389   60.3069   52.6793 C   0  0  0  0  0  0  0  0  0  0  0  0
  106.8532   61.5722   53.3163 C   0  0  2  0  0  0  0  0  0  0  0  0
  107.6651   62.0162   54.3112 O   0  0  0  0  0  0  0  0  0  0  0  0
  105.1061   60.3940   52.4083 C   0  0  0  0  0  0  0  0  0  0  0  0
  105.5484   61.0126   53.7830 C   0  0  2  0  0  0  0  0  0  0  0  0
  104.5206   61.8251   54.4019 C   0  0  0  0  0  0  0  0  0  0  0  0
  103.4239   61.1022   55.5516 S   0  0  0  0  0  0  0  0  0  0  0  0
  101.7972   61.8751   55.6215 C   0  0  0  0  0  0  0  0  0  0  0  0
  101.0095   61.2251   56.7321 C   0  0  0  0  0  0  0  0  0  0  0  0
   99.6376   61.7981   56.9037 C   0  0  0  0  0  0  0  0  0  0  0  0
   99.4025   62.6982   55.7505 C   0  0  0  0  0  0  0  0  0  0  0  0
   99.2214   63.4632   54.7552 C   0  0  0  0  0  0  0  0  0  0  0  0
  1  2  1  0
  2  3  2  0
  2  6  1  0
  3  4  1  0
  4  5  2  0
  5  7  1  0
  6  7  2  0
  6  8  1  0
  7 10  1  0
  8  9  1  0
  9 10  2  0
 10 11  1  0
 12 11  1  6
 12 13  1  0
 12 16  1  0
 13 14  1  0
 14 15  1  1
 14 17  1  0
 16 17  1  0
 17 18  1  6
 18 19  1  0
 19 20  1  0
 20 21  1  0
 21 22  1  0
 22 23  1  0
 23 24  3  0
M  CHG  1  12   1
M  END
$$$$
