
     RDKit          3D

 24 26  0  0  0  0  0  0  0  0999 V2000
  124.9606   89.0414   47.4855 N   0  0  0  0  0  0  0  0  0  0  0  0
  124.4158   88.3238   48.5662 C   0  0  0  0  0  0  0  0  0  0  0  0
  125.3256   87.4261   49.2630 N   0  0  0  0  0  0  0  0  0  0  0  0
  124.6410   86.8350   50.2982 C   0  0  0  0  0  0  0  0  0  0  0  0
  123.5134   86.8800   50.7304 N   0  0  0  0  0  0  0  0  0  0  0  0
  123.1511   88.3971   49.0229 C   0  0  0  0  0  0  0  0  0  0  0  0
  122.5493   87.7361   50.1018 C   0  0  0  0  0  0  0  0  0  0  0  0
  122.1643   89.0924   48.5143 N   0  0  0  0  0  0  0  0  0  0  0  0
  120.9486   88.9559   49.1596 C   0  0  0  0  0  0  0  0  0  0  0  0
  121.2814   88.0133   50.2444 C   0  0  0  0  0  0  0  0  0  0  0  0
  120.2222   87.6948   51.2203 C   0  0  0  0  0  0  0  0  0  0  0  0
  120.2011   88.5206   52.3886 N   0  0  1  0  0  4  0  0  0  0  0  0
  119.6507   87.6988   53.4746 C   0  0  0  0  0  0  0  0  0  0  0  0
  120.7766   87.6894   54.5149 C   0  0  2  0  0  0  0  0  0  0  0  0
  120.2849   87.3534   55.7362 O   0  0  0  0  0  0  0  0  0  0  0  0
  121.4127   89.1159   52.8340 C   0  0  0  0  0  0  0  0  0  0  0  0
  121.2155   89.1128   54.3925 C   0  0  2  0  0  0  0  0  0  0  0  0
  122.3513   89.6502   55.1140 C   0  0  0  0  0  0  0  0  0  0  0  0
  123.0437   91.1754   54.6224 S   0  0  0  0  0  0  0  0  0  0  0  0
  124.8400   91.1684   54.4751 C   0  0  0  0  0  0  0  0  0  0  0  0
  125.2731   92.4852   53.8792 C   0  0  0  0  0  0  0  0  0  0  0  0
  125.1919   93.6295   54.8403 C   0  0  0  0  0  0  0  0  0  0  0  0
  125.5967   93.1047   56.1655 C   0  0  0  0  0  0  0  0  0  0  0  0
  125.9543   92.6744   57.3038 C   0  0  0  0  0  0  0  0  0  0  0  0
  1  2  1  0
  2  3  2  0
  2  6  1  0
  3  4  1  0
  4  5  2  0
  5  7  1  0
  6  7  2  0
  6  8  1  0
  7 10  1  0
  8  9  1  0
  9 10  2  0
 10 11  1  0
 12 11  1  6
 12 13  1  0
 12 16  1  0
 13 14  1  0
 14 15  1  1
 14 17  1  0
 16 17  1  0
 17 18  1  1
 18 19  1  0
 19 20  1  0
 20 21  1  0
 21 22  1  0
 22 23  1  0
 23 24  3  0
M  CHG  1  12   1
M  END
$$$$
