
     RDKit          3D

 24 26  0  0  0  0  0  0  0  0999 V2000
  124.8986   87.3295   46.0404 N   0  0  0  0  0  0  0  0  0  0  0  0
  123.9914   88.1073   46.7833 C   0  0  0  0  0  0  0  0  0  0  0  0
  123.8287   89.4883   46.3525 N   0  0  0  0  0  0  0  0  0  0  0  0
  122.8930   90.0864   47.1627 C   0  0  0  0  0  0  0  0  0  0  0  0
  122.2201   89.7478   48.1076 N   0  0  0  0  0  0  0  0  0  0  0  0
  123.2556   87.6981   47.8343 C   0  0  0  0  0  0  0  0  0  0  0  0
  122.3197   88.4047   48.6012 C   0  0  0  0  0  0  0  0  0  0  0  0
  123.2878   86.5242   48.4148 N   0  0  0  0  0  0  0  0  0  0  0  0
  122.4525   86.3802   49.5077 C   0  0  0  0  0  0  0  0  0  0  0  0
  121.8119   87.7070   49.5810 C   0  0  0  0  0  0  0  0  0  0  0  0
  120.7621   87.9025   50.5986 C   0  0  0  0  0  0  0  0  0  0  0  0
  121.0625   88.8732   51.6060 N   0  0  1  0  0  4  0  0  0  0  0  0
  119.9049   88.9143   52.5091 C   0  0  0  0  0  0  0  0  0  0  0  0
  120.5047   88.5375   53.8686 C   0  0  2  0  0  0  0  0  0  0  0  0
  119.6846   88.9439   54.8727 O   0  0  0  0  0  0  0  0  0  0  0  0
  122.2433   88.7185   52.3822 C   0  0  0  0  0  0  0  0  0  0  0  0
  121.7896   89.2946   53.7714 C   0  0  2  0  0  0  0  0  0  0  0  0
  122.8225   89.2240   54.7851 C   0  0  0  0  0  0  0  0  0  0  0  0
  123.0104   90.5372   55.9198 S   0  0  0  0  0  0  0  0  0  0  0  0
  124.5131   91.5073   55.6988 C   0  0  0  0  0  0  0  0  0  0  0  0
  124.8345   92.1901   57.0053 C   0  0  0  0  0  0  0  0  0  0  0  0
  126.1237   92.9496   56.9793 C   0  0  0  0  0  0  0  0  0  0  0  0
  125.8698   94.1979   56.2226 C   0  0  0  0  0  0  0  0  0  0  0  0
  125.6516   95.2546   55.5559 C   0  0  0  0  0  0  0  0  0  0  0  0
  1  2  1  0
  2  3  2  0
  2  6  1  0
  3  4  1  0
  4  5  2  0
  5  7  1  0
  6  7  2  0
  6  8  1  0
  7 10  1  0
  8  9  1  0
  9 10  2  0
 10 11  1  0
 12 11  1  6
 12 13  1  0
 12 16  1  0
 13 14  1  0
 14 15  1  1
 14 17  1  0
 16 17  1  0
 17 18  1  1
 18 19  1  0
 19 20  1  0
 20 21  1  0
 21 22  1  0
 22 23  1  0
 23 24  3  0
M  CHG  1  12   1
M  END
$$$$
