
     RDKit          3D

 25 28  0  0  0  0  0  0  0  0999 V2000
  -21.9402   19.9079  -11.8113 C   0  0  0  0  0  0  0  0  0  0  0  0
  -20.1367   18.4707  -12.6669 C   0  0  0  0  0  0  0  0  0  0  0  0
  -19.4816   17.3533  -13.0720 C   0  0  0  0  0  0  0  0  0  0  0  0
  -20.0144   16.0322  -13.2758 C   0  0  0  0  0  0  0  0  0  0  0  0
  -23.8582   18.0257  -12.1144 C   0  0  0  0  0  0  0  0  0  0  0  0
  -25.4028   19.7968  -11.2011 C   0  0  0  0  0  0  0  0  0  0  0  0
  -25.1237   21.0831  -10.8010 C   0  0  0  0  0  0  0  0  0  0  0  0
  -23.1409   22.5775  -10.6371 C   0  0  0  0  0  0  0  0  0  0  0  0
  -22.7691   22.6497   -9.1941 C   0  0  0  0  0  0  0  0  0  0  0  0
  -22.5586   23.8688   -8.6057 C   0  0  0  0  0  0  0  0  0  0  0  0
  -22.2148   23.9756   -7.2804 C   0  0  0  0  0  0  0  0  0  0  0  0
  -22.0857   22.8116   -6.5498 C   0  0  0  0  0  0  0  0  0  0  0  0
  -22.6276   21.5247   -8.4222 C   0  0  0  0  0  0  0  0  0  0  0  0
  -23.2245   20.2294  -11.4552 C   0  0  0  0  0  0  0  0  0  0  0  0
  -21.5395   18.6668  -12.3257 C   0  0  0  0  0  0  0  0  0  0  0  0
  -18.1259   17.6510  -13.2832 C   0  0  0  0  0  0  0  0  0  0  0  0
  -22.5335   17.7334  -12.4679 C   0  0  0  0  0  0  0  0  0  0  0  0
  -24.2044   19.2570  -11.6140 C   0  0  0  0  0  0  0  0  0  0  0  0
  -23.8159   21.3419  -10.9536 N   0  0  0  0  0  0  0  0  0  0  0  0
  -22.2918   21.6223   -7.1260 N   0  0  0  0  0  0  0  0  0  0  0  0
  -19.1906   19.4434  -12.6304 N   0  0  0  0  0  0  0  0  0  0  0  0
  -18.0229   18.9451  -12.9936 N   0  0  0  0  0  0  0  0  0  0  0  0
  -17.0996   16.7625  -13.7103 N   0  0  0  0  0  0  0  0  0  0  0  0
  -20.4182   15.0051  -13.4509 N   0  0  0  0  0  0  0  0  0  0  0  0
  -26.9826   19.0588  -11.1670 Cl  0  0  0  0  0  0  0  0  0  0  0  0
 14  1  2  0
  1 15  1  0
  2  3  2  0
 15  2  1  0
  2 21  1  0
  3  4  1  0
  3 16  1  0
  4 24  3  0
  5 17  1  0
 18  5  2  0
  6  7  2  0
 18  6  1  0
  6 25  1  0
  7 19  1  0
  8  9  1  0
 19  8  1  0
  9 10  2  0
  9 13  1  0
 10 11  1  0
 11 12  2  0
 20 12  1  0
 13 20  2  0
 14 18  1  0
 14 19  1  0
 15 17  2  0
 16 22  2  0
 16 23  1  0
 21 22  1  0
M  END
$$$$
