
     RDKit          3D

 25 28  0  0  0  0  0  0  0  0999 V2000
  -20.8570   19.1210  -11.2947 C   0  0  0  0  0  0  0  0  0  0  0  0
  -19.2444   17.6970  -12.3716 C   0  0  0  0  0  0  0  0  0  0  0  0
  -18.8700   17.1046  -13.5590 C   0  0  0  0  0  0  0  0  0  0  0  0
  -19.5183   16.5137  -14.5055 C   0  0  0  0  0  0  0  0  0  0  0  0
  -23.0403   17.7239  -11.9883 C   0  0  0  0  0  0  0  0  0  0  0  0
  -24.2609   19.7135  -10.9448 C   0  0  0  0  0  0  0  0  0  0  0  0
  -23.7950   20.9167  -10.3567 C   0  0  0  0  0  0  0  0  0  0  0  0
  -21.5290   21.8087   -9.8762 C   0  0  0  0  0  0  0  0  0  0  0  0
  -22.0104   22.6081   -8.7640 C   0  0  0  0  0  0  0  0  0  0  0  0
  -21.2180   22.8193   -7.6388 C   0  0  0  0  0  0  0  0  0  0  0  0
  -21.6153   23.5654   -6.5876 C   0  0  0  0  0  0  0  0  0  0  0  0
  -22.8924   24.1334   -6.6698 C   0  0  0  0  0  0  0  0  0  0  0  0
  -23.2585   23.2008   -8.7651 C   0  0  0  0  0  0  0  0  0  0  0  0
  -22.0970   19.6693  -10.9535 C   0  0  0  0  0  0  0  0  0  0  0  0
  -20.6497   17.9471  -11.9535 C   0  0  0  0  0  0  0  0  0  0  0  0
  -17.3964   17.1939  -13.5197 C   0  0  0  0  0  0  0  0  0  0  0  0
  -21.7511   17.2400  -12.2999 C   0  0  0  0  0  0  0  0  0  0  0  0
  -23.1815   18.9432  -11.3157 C   0  0  0  0  0  0  0  0  0  0  0  0
  -22.3928   20.7985  -10.4108 N   0  0  0  0  0  0  0  0  0  0  0  0
  -23.6840   23.9365   -7.7584 N   0  0  0  0  0  0  0  0  0  0  0  0
  -18.1543   18.0557  -11.7397 N   0  0  0  0  0  0  0  0  0  0  0  0
  -17.0633   17.7788  -12.3821 N   0  0  0  0  0  0  0  0  0  0  0  0
  -16.5581   16.7656  -14.5583 N   0  0  0  0  0  0  0  0  0  0  0  0
  -20.2385   15.8891  -15.5224 N   0  0  0  0  0  0  0  0  0  0  0  0
  -25.9640   19.3332  -11.1587 Cl  0  0  0  0  0  0  0  0  0  0  0  0
 14  1  2  0
  1 15  1  0
  2  3  2  0
 15  2  1  0
  2 21  1  0
  3  4  1  0
  3 16  1  0
  4 24  3  0
  5 17  1  0
 18  5  2  0
  6  7  2  0
 18  6  1  0
  6 25  1  0
  7 19  1  0
  8  9  1  0
  8 19  1  6
  9 10  2  0
  9 13  1  0
 10 11  1  0
 11 12  2  0
 20 12  1  0
 13 20  2  0
 14 18  1  0
 14 19  1  0
 15 17  2  0
 16 22  2  0
 16 23  1  0
 21 22  1  0
M  END
$$$$
