
     RDKit          3D

 25 28  0  0  0  0  0  0  0  0999 V2000
  -21.7865   18.7536  -11.5482 C   0  0  0  0  0  0  0  0  0  0  0  0
  -20.1201   17.2274  -12.3740 C   0  0  0  0  0  0  0  0  0  0  0  0
  -19.1615   18.2065  -12.5280 C   0  0  0  0  0  0  0  0  0  0  0  0
  -19.1795   19.4943  -12.4477 C   0  0  0  0  0  0  0  0  0  0  0  0
  -23.8408   17.0275  -11.5537 C   0  0  0  0  0  0  0  0  0  0  0  0
  -25.1905   19.1178  -10.9649 C   0  0  0  0  0  0  0  0  0  0  0  0
  -24.8203   20.4762  -10.7965 C   0  0  0  0  0  0  0  0  0  0  0  0
  -22.6431   21.6664  -10.8634 C   0  0  0  0  0  0  0  0  0  0  0  0
  -22.3205   22.1442   -9.5310 C   0  0  0  0  0  0  0  0  0  0  0  0
  -22.1402   21.2541   -8.4757 C   0  0  0  0  0  0  0  0  0  0  0  0
  -21.8258   21.6487   -7.2248 C   0  0  0  0  0  0  0  0  0  0  0  0
  -21.6868   23.0266   -7.0191 C   0  0  0  0  0  0  0  0  0  0  0  0
  -22.1686   23.4872   -9.2438 C   0  0  0  0  0  0  0  0  0  0  0  0
  -23.0467   19.2651  -11.2247 C   0  0  0  0  0  0  0  0  0  0  0  0
  -21.5011   17.4624  -11.8741 C   0  0  0  0  0  0  0  0  0  0  0  0
  -17.9706   17.4373  -12.9417 C   0  0  0  0  0  0  0  0  0  0  0  0
  -22.5368   16.5904  -11.8730 C   0  0  0  0  0  0  0  0  0  0  0  0
  -24.0650   18.3719  -11.2353 C   0  0  0  0  0  0  0  0  0  0  0  0
  -23.4249   20.4722  -10.9861 N   0  0  0  0  0  0  0  0  0  0  0  0
  -21.8622   23.9135   -8.0355 N   0  0  0  0  0  0  0  0  0  0  0  0
  -19.5701   16.0758  -12.6700 N   0  0  0  0  0  0  0  0  0  0  0  0
  -18.3205   16.1639  -13.0020 N   0  0  0  0  0  0  0  0  0  0  0  0
  -16.7091   18.0065  -13.1637 N   0  0  0  0  0  0  0  0  0  0  0  0
  -19.1769   20.8847  -12.3498 N   0  0  0  0  0  0  0  0  0  0  0  0
  -26.8480   18.5423  -10.8552 Cl  0  0  0  0  0  0  0  0  0  0  0  0
 14  1  2  0
  1 15  1  0
  2  3  2  0
 15  2  1  0
  2 21  1  0
  3  4  1  0
  3 16  1  0
  4 24  3  0
  5 17  1  0
 18  5  2  0
  6  7  2  0
 18  6  1  0
  6 25  1  0
  7 19  1  0
  8  9  1  0
  8 19  1  6
  9 10  2  0
  9 13  1  0
 10 11  1  0
 11 12  2  0
 20 12  1  0
 13 20  2  0
 14 18  1  0
 14 19  1  0
 15 17  2  0
 16 22  2  0
 16 23  1  0
 21 22  1  0
M  END
$$$$
