
     RDKit          3D

 25 28  0  0  0  0  0  0  0  0999 V2000
  -21.9338   19.6534  -11.6035 C   0  0  0  0  0  0  0  0  0  0  0  0
  -20.1365   18.4539  -12.6613 C   0  0  0  0  0  0  0  0  0  0  0  0
  -19.3574   17.3215  -12.7711 C   0  0  0  0  0  0  0  0  0  0  0  0
  -19.5030   16.0971  -12.3903 C   0  0  0  0  0  0  0  0  0  0  0  0
  -23.8343   17.7987  -11.9880 C   0  0  0  0  0  0  0  0  0  0  0  0
  -25.3617   19.6210  -11.0480 C   0  0  0  0  0  0  0  0  0  0  0  0
  -25.1096   20.9478  -10.6159 C   0  0  0  0  0  0  0  0  0  0  0  0
  -23.0406   22.3022  -10.4010 C   0  0  0  0  0  0  0  0  0  0  0  0
  -22.5838   22.4471   -9.0305 C   0  0  0  0  0  0  0  0  0  0  0  0
  -22.6235   21.3728   -8.1457 C   0  0  0  0  0  0  0  0  0  0  0  0
  -22.1976   21.4545   -6.8684 C   0  0  0  0  0  0  0  0  0  0  0  0
  -21.7030   22.6962   -6.4514 C   0  0  0  0  0  0  0  0  0  0  0  0
  -22.0845   23.6382   -8.5397 C   0  0  0  0  0  0  0  0  0  0  0  0
  -23.2358   19.9893  -11.2209 C   0  0  0  0  0  0  0  0  0  0  0  0
  -21.5370   18.4757  -12.1609 C   0  0  0  0  0  0  0  0  0  0  0  0
  -18.1249   17.8316  -13.4050 C   0  0  0  0  0  0  0  0  0  0  0  0
  -22.4951   17.5382  -12.3513 C   0  0  0  0  0  0  0  0  0  0  0  0
  -24.1746   19.0347  -11.4263 C   0  0  0  0  0  0  0  0  0  0  0  0
  -23.7171   21.0937  -10.7675 N   0  0  0  0  0  0  0  0  0  0  0  0
  -21.6588   23.7595   -7.2988 N   0  0  0  0  0  0  0  0  0  0  0  0
  -19.4513   19.4618  -13.1419 N   0  0  0  0  0  0  0  0  0  0  0  0
  -18.2785   19.1323  -13.5840 N   0  0  0  0  0  0  0  0  0  0  0  0
  -17.0422   17.0222  -13.7753 N   0  0  0  0  0  0  0  0  0  0  0  0
  -19.6595   14.7822  -11.9554 N   0  0  0  0  0  0  0  0  0  0  0  0
  -26.9655   18.9021  -11.0912 Cl  0  0  0  0  0  0  0  0  0  0  0  0
 14  1  2  0
  1 15  1  0
  2  3  2  0
 15  2  1  0
  2 21  1  0
  3  4  1  0
  3 16  1  0
  4 24  3  0
  5 17  1  0
 18  5  2  0
  6  7  2  0
 18  6  1  0
  6 25  1  0
  7 19  1  0
  8  9  1  0
  8 19  1  6
  9 10  2  0
  9 13  1  0
 10 11  1  0
 11 12  2  0
 20 12  1  0
 13 20  2  0
 14 18  1  0
 14 19  1  0
 15 17  2  0
 16 22  2  0
 16 23  1  0
 21 22  1  0
M  END
$$$$
