
     RDKit          3D

 25 28  0  0  0  0  0  0  0  0999 V2000
  -25.4458   24.3682  -12.0368 C   0  0  0  0  0  0  0  0  0  0  0  0
  -23.7233   23.5651  -10.4753 C   0  0  0  0  0  0  0  0  0  0  0  0
  -22.6382   22.8424  -10.0986 C   0  0  0  0  0  0  0  0  0  0  0  0
  -21.5401   22.3927  -10.9128 C   0  0  0  0  0  0  0  0  0  0  0  0
  -23.6908   24.8685  -14.0324 C   0  0  0  0  0  0  0  0  0  0  0  0
  -25.7289   25.6212  -15.3116 C   0  0  0  0  0  0  0  0  0  0  0  0
  -27.0472   25.6564  -14.9199 C   0  0  0  0  0  0  0  0  0  0  0  0
  -28.3919   25.0838  -12.9062 C   0  0  0  0  0  0  0  0  0  0  0  0
  -29.1634   23.8677  -13.2954 C   0  0  0  0  0  0  0  0  0  0  0  0
  -28.7000   23.0606  -14.3006 C   0  0  0  0  0  0  0  0  0  0  0  0
  -29.3822   21.9331  -14.6871 C   0  0  0  0  0  0  0  0  0  0  0  0
  -30.5580   21.6314  -14.0300 C   0  0  0  0  0  0  0  0  0  0  0  0
  -30.3370   23.5216  -12.6757 C   0  0  0  0  0  0  0  0  0  0  0  0
  -25.9326   24.8699  -13.2162 C   0  0  0  0  0  0  0  0  0  0  0  0
  -24.0953   24.0914  -11.7820 C   0  0  0  0  0  0  0  0  0  0  0  0
  -22.7128   22.5592   -8.7255 C   0  0  0  0  0  0  0  0  0  0  0  0
  -23.2299   24.3552  -12.8120 C   0  0  0  0  0  0  0  0  0  0  0  0
  -25.0245   25.1245  -14.2368 C   0  0  0  0  0  0  0  0  0  0  0  0
  -27.1687   25.2052  -13.6621 N   0  0  0  0  0  0  0  0  0  0  0  0
  -31.0088   22.4206  -13.0487 N   0  0  0  0  0  0  0  0  0  0  0  0
  -24.4554   23.7227   -9.3432 N   0  0  0  0  0  0  0  0  0  0  0  0
  -23.8488   23.1282   -8.3321 N   0  0  0  0  0  0  0  0  0  0  0  0
  -21.7794   21.8270   -7.9394 N   0  0  0  0  0  0  0  0  0  0  0  0
  -20.6926   22.0251  -11.5414 N   0  0  0  0  0  0  0  0  0  0  0  0
  -25.1353   26.1215  -16.8733 Cl  0  0  0  0  0  0  0  0  0  0  0  0
 14  1  2  0
  1 15  1  0
  2  3  2  0
 15  2  1  0
  2 21  1  0
  3  4  1  0
  3 16  1  0
  4 24  3  0
  5 17  1  0
 18  5  2  0
  6  7  2  0
 18  6  1  0
  6 25  1  0
  7 19  1  0
  8  9  1  0
 19  8  1  0
  9 10  2  0
  9 13  1  0
 10 11  1  0
 11 12  2  0
 20 12  1  0
 13 20  2  0
 14 18  1  0
 14 19  1  0
 15 17  2  0
 16 22  2  0
 16 23  1  0
 21 22  1  0
M  END
$$$$
