
     RDKit          3D

 25 28  0  0  0  0  0  0  0  0999 V2000
  -12.2331    8.3697  -26.7010 C   0  0  0  0  0  0  0  0  0  0  0  0
  -13.0022    9.3895  -24.5989 C   0  0  0  0  0  0  0  0  0  0  0  0
  -12.7909   10.3113  -23.6256 C   0  0  0  0  0  0  0  0  0  0  0  0
  -12.2828   11.6507  -23.7615 C   0  0  0  0  0  0  0  0  0  0  0  0
  -12.8408   10.5317  -28.2075 C   0  0  0  0  0  0  0  0  0  0  0  0
  -11.9677    9.1432  -30.1224 C   0  0  0  0  0  0  0  0  0  0  0  0
  -11.4600    7.8646  -30.1191 C   0  0  0  0  0  0  0  0  0  0  0  0
  -11.0094    6.0601  -28.4662 C   0  0  0  0  0  0  0  0  0  0  0  0
  -12.0938    5.0396  -28.5584 C   0  0  0  0  0  0  0  0  0  0  0  0
  -13.1683    5.1101  -27.7116 C   0  0  0  0  0  0  0  0  0  0  0  0
  -14.1857    4.1892  -27.7660 C   0  0  0  0  0  0  0  0  0  0  0  0
  -14.0966    3.1814  -28.7050 C   0  0  0  0  0  0  0  0  0  0  0  0
  -12.0553    4.0179  -29.4726 C   0  0  0  0  0  0  0  0  0  0  0  0
  -11.9822    8.3115  -28.0475 C   0  0  0  0  0  0  0  0  0  0  0  0
  -12.7858    9.4740  -26.0372 C   0  0  0  0  0  0  0  0  0  0  0  0
  -13.1469    9.7722  -22.3791 C   0  0  0  0  0  0  0  0  0  0  0  0
  -13.0833   10.5544  -26.8269 C   0  0  0  0  0  0  0  0  0  0  0  0
  -12.2974    9.4263  -28.8150 C   0  0  0  0  0  0  0  0  0  0  0  0
  -11.4689    7.3661  -28.8734 N   0  0  0  0  0  0  0  0  0  0  0  0
  -13.0467    3.1145  -29.5310 N   0  0  0  0  0  0  0  0  0  0  0  0
  -13.4831    8.2961  -23.9541 N   0  0  0  0  0  0  0  0  0  0  0  0
  -13.5604    8.5392  -22.6584 N   0  0  0  0  0  0  0  0  0  0  0  0
  -13.0775   10.4080  -21.1078 N   0  0  0  0  0  0  0  0  0  0  0  0
  -11.9032   12.6974  -23.8565 N   0  0  0  0  0  0  0  0  0  0  0  0
  -12.1338   10.1503  -31.5364 Cl  0  0  0  0  0  0  0  0  0  0  0  0
 14  1  2  0
  1 15  1  0
  2  3  2  0
 15  2  1  0
  2 21  1  0
  3  4  1  0
  3 16  1  0
  4 24  3  0
  5 17  1  0
 18  5  2  0
  6  7  2  0
 18  6  1  0
  6 25  1  0
  7 19  1  0
  8  9  1  0
 19  8  1  0
  9 10  2  0
  9 13  1  0
 10 11  1  0
 11 12  2  0
 20 12  1  0
 13 20  2  0
 14 18  1  0
 14 19  1  0
 15 17  2  0
 16 22  2  0
 16 23  1  0
 21 22  1  0
M  END
$$$$
