
     RDKit          3D

 25 28  0  0  0  0  0  0  0  0999 V2000
  -12.6999    9.4810  -27.5290 C   0  0  0  0  0  0  0  0  0  0  0  0
  -12.6459    9.8162  -25.1473 C   0  0  0  0  0  0  0  0  0  0  0  0
  -13.0455    9.5579  -23.8531 C   0  0  0  0  0  0  0  0  0  0  0  0
  -13.7844    8.6492  -23.3112 C   0  0  0  0  0  0  0  0  0  0  0  0
  -13.0809    6.8255  -27.4760 C   0  0  0  0  0  0  0  0  0  0  0  0
  -12.7502    7.0435  -30.0021 C   0  0  0  0  0  0  0  0  0  0  0  0
  -12.4696    8.1563  -30.8348 C   0  0  0  0  0  0  0  0  0  0  0  0
  -12.2225   10.5873  -30.3988 C   0  0  0  0  0  0  0  0  0  0  0  0
  -10.8608   11.0011  -30.6852 C   0  0  0  0  0  0  0  0  0  0  0  0
  -10.5949   12.2451  -31.2511 C   0  0  0  0  0  0  0  0  0  0  0  0
   -9.3471   12.6796  -31.5221 C   0  0  0  0  0  0  0  0  0  0  0  0
   -8.2981   11.8071  -31.2077 C   0  0  0  0  0  0  0  0  0  0  0  0
   -9.7705   10.1989  -30.4080 C   0  0  0  0  0  0  0  0  0  0  0  0
  -12.6864    8.8127  -28.7570 C   0  0  0  0  0  0  0  0  0  0  0  0
  -12.8807    8.9121  -26.3048 C   0  0  0  0  0  0  0  0  0  0  0  0
  -12.4826   10.6983  -23.1023 C   0  0  0  0  0  0  0  0  0  0  0  0
  -13.0770    7.5728  -26.2782 C   0  0  0  0  0  0  0  0  0  0  0  0
  -12.8811    7.4735  -28.7005 C   0  0  0  0  0  0  0  0  0  0  0  0
  -12.4440    9.2469  -29.9443 N   0  0  0  0  0  0  0  0  0  0  0  0
   -8.5362   10.5859  -30.6576 N   0  0  0  0  0  0  0  0  0  0  0  0
  -11.9725   10.9399  -25.1437 N   0  0  0  0  0  0  0  0  0  0  0  0
  -11.8581   11.4764  -23.9696 N   0  0  0  0  0  0  0  0  0  0  0  0
  -12.5808   10.8453  -21.7118 N   0  0  0  0  0  0  0  0  0  0  0  0
  -14.5783    7.6779  -22.7037 N   0  0  0  0  0  0  0  0  0  0  0  0
  -12.8769    5.3937  -30.5960 Cl  0  0  0  0  0  0  0  0  0  0  0  0
 14  1  2  0
  1 15  1  0
  2  3  2  0
 15  2  1  0
  2 21  1  0
  3  4  1  0
  3 16  1  0
  4 24  3  0
  5 17  1  0
 18  5  2  0
  6  7  2  0
 18  6  1  0
  6 25  1  0
  7 19  1  0
  8  9  1  0
  8 19  1  6
  9 10  2  0
  9 13  1  0
 10 11  1  0
 11 12  2  0
 20 12  1  0
 13 20  2  0
 14 18  1  0
 14 19  1  0
 15 17  2  0
 16 22  2  0
 16 23  1  0
 21 22  1  0
M  END
$$$$
