
     RDKit          3D

 25 28  0  0  0  0  0  0  0  0999 V2000
  -21.7314   19.9902  -11.5135 C   0  0  0  0  0  0  0  0  0  0  0  0
  -20.1829   18.4839  -12.5724 C   0  0  0  0  0  0  0  0  0  0  0  0
  -19.6463   17.2285  -12.7656 C   0  0  0  0  0  0  0  0  0  0  0  0
  -20.0332   16.0355  -12.4614 C   0  0  0  0  0  0  0  0  0  0  0  0
  -23.9247   18.4769  -11.8275 C   0  0  0  0  0  0  0  0  0  0  0  0
  -25.1043   20.5491  -10.9043 C   0  0  0  0  0  0  0  0  0  0  0  0
  -24.6235   21.8220  -10.5055 C   0  0  0  0  0  0  0  0  0  0  0  0
  -22.3518   22.8106  -10.3525 C   0  0  0  0  0  0  0  0  0  0  0  0
  -21.9617   22.9831   -8.9648 C   0  0  0  0  0  0  0  0  0  0  0  0
  -21.1998   24.0783   -8.5666 C   0  0  0  0  0  0  0  0  0  0  0  0
  -20.8252   24.2892   -7.2881 C   0  0  0  0  0  0  0  0  0  0  0  0
  -21.2395   23.3370   -6.3489 C   0  0  0  0  0  0  0  0  0  0  0  0
  -22.3270   22.0883   -7.9774 C   0  0  0  0  0  0  0  0  0  0  0  0
  -22.9505   20.5489  -11.1182 C   0  0  0  0  0  0  0  0  0  0  0  0
  -21.5498   18.7520  -12.0509 C   0  0  0  0  0  0  0  0  0  0  0  0
  -18.3378   17.5227  -13.3838 C   0  0  0  0  0  0  0  0  0  0  0  0
  -22.6559   17.9866  -12.2057 C   0  0  0  0  0  0  0  0  0  0  0  0
  -24.0407   19.7632  -11.2880 C   0  0  0  0  0  0  0  0  0  0  0  0
  -23.2296   21.7273  -10.6818 N   0  0  0  0  0  0  0  0  0  0  0  0
  -21.9813   22.2579   -6.7174 N   0  0  0  0  0  0  0  0  0  0  0  0
  -19.3107   19.3640  -12.9978 N   0  0  0  0  0  0  0  0  0  0  0  0
  -18.2283   18.8368  -13.4774 N   0  0  0  0  0  0  0  0  0  0  0  0
  -17.4395   16.5395  -13.8209 N   0  0  0  0  0  0  0  0  0  0  0  0
  -20.4342   14.7379  -12.1484 N   0  0  0  0  0  0  0  0  0  0  0  0
  -26.8070   20.1113  -10.9068 Cl  0  0  0  0  0  0  0  0  0  0  0  0
 14  1  2  0
  1 15  1  0
  2  3  2  0
 15  2  1  0
  2 21  1  0
  3  4  1  0
  3 16  1  0
  4 24  3  0
  5 17  1  0
 18  5  2  0
  6  7  2  0
 18  6  1  0
  6 25  1  0
  7 19  1  0
  8  9  1  0
  8 19  1  6
  9 10  2  0
  9 13  1  0
 10 11  1  0
 11 12  2  0
 20 12  1  0
 13 20  2  0
 14 18  1  0
 14 19  1  0
 15 17  2  0
 16 22  2  0
 16 23  1  0
 21 22  1  0
M  END
$$$$
