
     RDKit          3D

 25 28  0  0  0  0  0  0  0  0999 V2000
  -20.9970   19.9463  -10.6432 C   0  0  0  0  0  0  0  0  0  0  0  0
  -18.8801   18.9345  -11.3817 C   0  0  0  0  0  0  0  0  0  0  0  0
  -19.2115   17.8048  -12.0566 C   0  0  0  0  0  0  0  0  0  0  0  0
  -20.4314   17.0453  -11.9788 C   0  0  0  0  0  0  0  0  0  0  0  0
  -19.9584   20.9346   -8.3502 C   0  0  0  0  0  0  0  0  0  0  0  0
  -22.2909   21.8049   -7.9513 C   0  0  0  0  0  0  0  0  0  0  0  0
  -23.4179   21.6836   -8.7308 C   0  0  0  0  0  0  0  0  0  0  0  0
  -24.0578   20.6602  -10.9067 C   0  0  0  0  0  0  0  0  0  0  0  0
  -25.0660   19.6496  -10.4731 C   0  0  0  0  0  0  0  0  0  0  0  0
  -26.1068   19.3270  -11.3034 C   0  0  0  0  0  0  0  0  0  0  0  0
  -27.0543   18.4021  -10.9393 C   0  0  0  0  0  0  0  0  0  0  0  0
  -26.9295   17.8002   -9.7034 C   0  0  0  0  0  0  0  0  0  0  0  0
  -24.9894   19.0216   -9.2561 C   0  0  0  0  0  0  0  0  0  0  0  0
  -21.8268   20.6457   -9.8055 C   0  0  0  0  0  0  0  0  0  0  0  0
  -19.6380   19.7009  -10.4014 C   0  0  0  0  0  0  0  0  0  0  0  0
  -18.1529   17.4302  -12.8993 C   0  0  0  0  0  0  0  0  0  0  0  0
  -19.1404   20.2140   -9.2316 C   0  0  0  0  0  0  0  0  0  0  0  0
  -21.2858   21.1502   -8.6291 C   0  0  0  0  0  0  0  0  0  0  0  0
  -23.1386   20.9879   -9.8436 N   0  0  0  0  0  0  0  0  0  0  0  0
  -25.9126   18.1163   -8.8942 N   0  0  0  0  0  0  0  0  0  0  0  0
  -17.6300   19.2486  -11.8073 N   0  0  0  0  0  0  0  0  0  0  0  0
  -17.2226   18.3582  -12.6934 N   0  0  0  0  0  0  0  0  0  0  0  0
  -18.0958   16.3086  -13.7733 N   0  0  0  0  0  0  0  0  0  0  0  0
  -21.3844   16.4635  -11.9352 N   0  0  0  0  0  0  0  0  0  0  0  0
  -22.2182   22.6352   -6.4194 Cl  0  0  0  0  0  0  0  0  0  0  0  0
 14  1  2  0
  1 15  1  0
  2  3  2  0
 15  2  1  0
  2 21  1  0
  3  4  1  0
  3 16  1  0
  4 24  3  0
  5 17  1  0
 18  5  2  0
  6  7  2  0
 18  6  1  0
  6 25  1  0
  7 19  1  0
  8  9  1  0
 19  8  1  0
  9 10  2  0
  9 13  1  0
 10 11  1  0
 11 12  2  0
 20 12  1  0
 13 20  2  0
 14 18  1  0
 14 19  1  0
 15 17  2  0
 16 22  2  0
 16 23  1  0
 21 22  1  0
M  END
$$$$
