
     RDKit          3D

 25 28  0  0  0  0  0  0  0  0999 V2000
  -22.5406   18.8318  -11.3101 C   0  0  0  0  0  0  0  0  0  0  0  0
  -20.7408   17.6045  -12.3311 C   0  0  0  0  0  0  0  0  0  0  0  0
  -19.4074   17.6897  -12.6719 C   0  0  0  0  0  0  0  0  0  0  0  0
  -18.6816   18.6080  -13.2153 C   0  0  0  0  0  0  0  0  0  0  0  0
  -22.5766   20.8698  -13.0549 C   0  0  0  0  0  0  0  0  0  0  0  0
  -24.2678   21.8431  -11.4026 C   0  0  0  0  0  0  0  0  0  0  0  0
  -24.7810   21.3651  -10.1703 C   0  0  0  0  0  0  0  0  0  0  0  0
  -24.4516   19.2633   -8.8916 C   0  0  0  0  0  0  0  0  0  0  0  0
  -25.6543   18.4509   -8.9270 C   0  0  0  0  0  0  0  0  0  0  0  0
  -26.0811   17.7546   -7.7994 C   0  0  0  0  0  0  0  0  0  0  0  0
  -27.1982   16.9991   -7.7792 C   0  0  0  0  0  0  0  0  0  0  0  0
  -27.9329   16.9356   -8.9695 C   0  0  0  0  0  0  0  0  0  0  0  0
  -26.4337   18.3332  -10.0618 C   0  0  0  0  0  0  0  0  0  0  0  0
  -23.4086   19.8916  -11.0310 C   0  0  0  0  0  0  0  0  0  0  0  0
  -21.7039   18.7369  -12.3805 C   0  0  0  0  0  0  0  0  0  0  0  0
  -18.8993   16.3414  -12.3478 C   0  0  0  0  0  0  0  0  0  0  0  0
  -21.7248   19.7633  -13.2632 C   0  0  0  0  0  0  0  0  0  0  0  0
  -23.4061   20.9064  -11.9281 C   0  0  0  0  0  0  0  0  0  0  0  0
  -24.1682   20.1068  -10.0143 N   0  0  0  0  0  0  0  0  0  0  0  0
  -27.5317   17.6053  -10.0835 N   0  0  0  0  0  0  0  0  0  0  0  0
  -20.9678   16.3902  -11.8950 N   0  0  0  0  0  0  0  0  0  0  0  0
  -19.9167   15.6321  -11.8904 N   0  0  0  0  0  0  0  0  0  0  0  0
  -17.5566   15.9595  -12.4741 N   0  0  0  0  0  0  0  0  0  0  0  0
  -17.9161   19.6160  -13.7989 N   0  0  0  0  0  0  0  0  0  0  0  0
  -24.6879   23.4064  -12.0884 Cl  0  0  0  0  0  0  0  0  0  0  0  0
 14  1  2  0
  1 15  1  0
  2  3  2  0
 15  2  1  0
  2 21  1  0
  3  4  1  0
  3 16  1  0
  4 24  3  0
  5 17  1  0
 18  5  2  0
  6  7  2  0
 18  6  1  0
  6 25  1  0
  7 19  1  0
  8  9  1  0
  8 19  1  6
  9 10  2  0
  9 13  1  0
 10 11  1  0
 11 12  2  0
 20 12  1  0
 13 20  2  0
 14 18  1  0
 14 19  1  0
 15 17  2  0
 16 22  2  0
 16 23  1  0
 21 22  1  0
M  END
$$$$
