
     RDKit          3D

 25 28  0  0  0  0  0  0  0  0999 V2000
  -21.2799   18.4472  -11.5144 C   0  0  0  0  0  0  0  0  0  0  0  0
  -19.8021   16.8632  -12.5610 C   0  0  0  0  0  0  0  0  0  0  0  0
  -18.8372   17.7694  -12.9467 C   0  0  0  0  0  0  0  0  0  0  0  0
  -18.8409   19.0428  -13.1560 C   0  0  0  0  0  0  0  0  0  0  0  0
  -23.5688   17.1423  -12.0219 C   0  0  0  0  0  0  0  0  0  0  0  0
  -24.6248   19.2641  -11.0625 C   0  0  0  0  0  0  0  0  0  0  0  0
  -24.0645   20.4722  -10.5754 C   0  0  0  0  0  0  0  0  0  0  0  0
  -21.7316   21.2553  -10.2504 C   0  0  0  0  0  0  0  0  0  0  0  0
  -22.1883   22.2967   -9.3478 C   0  0  0  0  0  0  0  0  0  0  0  0
  -21.8559   22.2686   -7.9961 C   0  0  0  0  0  0  0  0  0  0  0  0
  -22.2443   23.2198   -7.1222 C   0  0  0  0  0  0  0  0  0  0  0  0
  -23.0196   24.2653   -7.6381 C   0  0  0  0  0  0  0  0  0  0  0  0
  -22.9587   23.3606   -9.7762 C   0  0  0  0  0  0  0  0  0  0  0  0
  -22.4696   19.0896  -11.1587 C   0  0  0  0  0  0  0  0  0  0  0  0
  -21.1703   17.2233  -12.1020 C   0  0  0  0  0  0  0  0  0  0  0  0
  -17.6626   16.9104  -13.1989 C   0  0  0  0  0  0  0  0  0  0  0  0
  -22.3250   16.5630  -12.3544 C   0  0  0  0  0  0  0  0  0  0  0  0
  -23.6092   18.4083  -11.4263 C   0  0  0  0  0  0  0  0  0  0  0  0
  -22.6753   20.2668  -10.6802 N   0  0  0  0  0  0  0  0  0  0  0  0
  -23.3586   24.3099   -8.9547 N   0  0  0  0  0  0  0  0  0  0  0  0
  -19.2697   15.6668  -12.6018 N   0  0  0  0  0  0  0  0  0  0  0  0
  -18.0263   15.6609  -12.9670 N   0  0  0  0  0  0  0  0  0  0  0  0
  -16.4004   17.3978  -13.5647 N   0  0  0  0  0  0  0  0  0  0  0  0
  -18.8633   20.4152  -13.3982 N   0  0  0  0  0  0  0  0  0  0  0  0
  -26.3548   18.9738  -11.1792 Cl  0  0  0  0  0  0  0  0  0  0  0  0
 14  1  2  0
  1 15  1  0
  2  3  2  0
 15  2  1  0
  2 21  1  0
  3  4  1  0
  3 16  1  0
  4 24  3  0
  5 17  1  0
 18  5  2  0
  6  7  2  0
 18  6  1  0
  6 25  1  0
  7 19  1  0
  8  9  1  0
  8 19  1  6
  9 10  2  0
  9 13  1  0
 10 11  1  0
 11 12  2  0
 20 12  1  0
 13 20  2  0
 14 18  1  0
 14 19  1  0
 15 17  2  0
 16 22  2  0
 16 23  1  0
 21 22  1  0
M  END
$$$$
