
     RDKit          3D

 25 28  0  0  0  0  0  0  0  0999 V2000
  -12.7528    9.6107  -27.5380 C   0  0  0  0  0  0  0  0  0  0  0  0
  -12.9530    9.8313  -25.0964 C   0  0  0  0  0  0  0  0  0  0  0  0
  -13.1066    9.4837  -23.7936 C   0  0  0  0  0  0  0  0  0  0  0  0
  -13.4427    8.1950  -23.2485 C   0  0  0  0  0  0  0  0  0  0  0  0
  -13.5656    7.0318  -27.5743 C   0  0  0  0  0  0  0  0  0  0  0  0
  -13.2224    7.2098  -30.0658 C   0  0  0  0  0  0  0  0  0  0  0  0
  -12.7964    8.2795  -30.8186 C   0  0  0  0  0  0  0  0  0  0  0  0
  -12.1008   10.6395  -30.4473 C   0  0  0  0  0  0  0  0  0  0  0  0
  -10.6123   10.7088  -30.5224 C   0  0  0  0  0  0  0  0  0  0  0  0
   -9.8757    9.5539  -30.5062 C   0  0  0  0  0  0  0  0  0  0  0  0
   -8.5042    9.5772  -30.5733 C   0  0  0  0  0  0  0  0  0  0  0  0
   -7.8815   10.8061  -30.6584 C   0  0  0  0  0  0  0  0  0  0  0  0
   -9.9432   11.9029  -30.6083 C   0  0  0  0  0  0  0  0  0  0  0  0
  -12.8186    8.9699  -28.7482 C   0  0  0  0  0  0  0  0  0  0  0  0
  -13.0774    9.0274  -26.3052 C   0  0  0  0  0  0  0  0  0  0  0  0
  -12.8875   10.6044  -22.9767 C   0  0  0  0  0  0  0  0  0  0  0  0
  -13.4858    7.7198  -26.3555 C   0  0  0  0  0  0  0  0  0  0  0  0
  -13.2369    7.6447  -28.7586 C   0  0  0  0  0  0  0  0  0  0  0  0
  -12.5543    9.3356  -30.0271 N   0  0  0  0  0  0  0  0  0  0  0  0
   -8.6025   11.9326  -30.6743 N   0  0  0  0  0  0  0  0  0  0  0  0
  -12.6428   11.1526  -25.0772 N   0  0  0  0  0  0  0  0  0  0  0  0
  -12.6093   11.5859  -23.8302 N   0  0  0  0  0  0  0  0  0  0  0  0
  -12.9511   10.6676  -21.5565 N   0  0  0  0  0  0  0  0  0  0  0  0
  -13.6971    7.1859  -22.8414 N   0  0  0  0  0  0  0  0  0  0  0  0
  -13.6434    5.6420  -30.7032 Cl  0  0  0  0  0  0  0  0  0  0  0  0
 14  1  2  0
  1 15  1  0
  2  3  2  0
 15  2  1  0
  2 21  1  0
  3  4  1  0
  3 16  1  0
  4 24  3  0
  5 17  1  0
 18  5  2  0
  6  7  2  0
 18  6  1  0
  6 25  1  0
  7 19  1  0
  8  9  1  0
 19  8  1  0
  9 10  2  0
  9 13  1  0
 10 11  1  0
 11 12  2  0
 20 12  1  0
 13 20  2  0
 14 18  1  0
 14 19  1  0
 15 17  2  0
 16 22  2  0
 16 23  1  0
 21 22  1  0
M  END
$$$$
