
     RDKit          3D

 25 28  0  0  0  0  0  0  0  0999 V2000
  -10.2252    6.5496  -29.2842 C   0  0  0  0  0  0  0  0  0  0  0  0
  -10.7504    4.5077  -28.0174 C   0  0  0  0  0  0  0  0  0  0  0  0
  -11.1800    3.8438  -26.9145 C   0  0  0  0  0  0  0  0  0  0  0  0
  -12.1783    4.2510  -25.9613 C   0  0  0  0  0  0  0  0  0  0  0  0
  -12.6954    7.6100  -28.9897 C   0  0  0  0  0  0  0  0  0  0  0  0
  -11.7712    9.5273  -30.3414 C   0  0  0  0  0  0  0  0  0  0  0  0
  -10.5146    9.7001  -30.8739 C   0  0  0  0  0  0  0  0  0  0  0  0
   -8.3565    8.4642  -30.9545 C   0  0  0  0  0  0  0  0  0  0  0  0
   -7.4951    9.5715  -30.4471 C   0  0  0  0  0  0  0  0  0  0  0  0
   -7.6510   10.8380  -30.9454 C   0  0  0  0  0  0  0  0  0  0  0  0
   -6.8770   11.8828  -30.5035 C   0  0  0  0  0  0  0  0  0  0  0  0
   -5.9289   11.6210  -29.5350 C   0  0  0  0  0  0  0  0  0  0  0  0
   -6.5382    9.3667  -29.4860 C   0  0  0  0  0  0  0  0  0  0  0  0
  -10.4761    7.7727  -29.8504 C   0  0  0  0  0  0  0  0  0  0  0  0
  -11.1588    5.7980  -28.5570 C   0  0  0  0  0  0  0  0  0  0  0  0
  -10.4895    2.6271  -26.7966 C   0  0  0  0  0  0  0  0  0  0  0  0
  -12.4017    6.3611  -28.4247 C   0  0  0  0  0  0  0  0  0  0  0  0
  -11.7479    8.3109  -29.6949 C   0  0  0  0  0  0  0  0  0  0  0  0
   -9.7377    8.6467  -30.5786 N   0  0  0  0  0  0  0  0  0  0  0  0
   -5.7782   10.3839  -29.0497 N   0  0  0  0  0  0  0  0  0  0  0  0
   -9.8056    3.7047  -28.5696 N   0  0  0  0  0  0  0  0  0  0  0  0
   -9.6675    2.6112  -27.8422 N   0  0  0  0  0  0  0  0  0  0  0  0
  -10.6405    1.6392  -25.7835 N   0  0  0  0  0  0  0  0  0  0  0  0
  -12.9396    4.5757  -25.2105 N   0  0  0  0  0  0  0  0  0  0  0  0
  -13.0870   10.6619  -30.4930 Cl  0  0  0  0  0  0  0  0  0  0  0  0
 14  1  2  0
  1 15  1  0
  2  3  2  0
 15  2  1  0
  2 21  1  0
  3  4  1  0
  3 16  1  0
  4 24  3  0
  5 17  1  0
 18  5  2  0
  6  7  2  0
 18  6  1  0
  6 25  1  0
  7 19  1  0
  8  9  1  0
 19  8  1  0
  9 10  2  0
  9 13  1  0
 10 11  1  0
 11 12  2  0
 20 12  1  0
 13 20  2  0
 14 18  1  0
 14 19  1  0
 15 17  2  0
 16 22  2  0
 16 23  1  0
 21 22  1  0
M  END
$$$$
