
     RDKit          3D

 25 28  0  0  0  0  0  0  0  0999 V2000
  -12.5846    9.9798  -26.9440 C   0  0  0  0  0  0  0  0  0  0  0  0
  -12.9314   10.3610  -24.5940 C   0  0  0  0  0  0  0  0  0  0  0  0
  -13.0288    9.8465  -23.3185 C   0  0  0  0  0  0  0  0  0  0  0  0
  -13.5359    8.7660  -22.8278 C   0  0  0  0  0  0  0  0  0  0  0  0
  -14.1869    7.8391  -27.1669 C   0  0  0  0  0  0  0  0  0  0  0  0
  -13.2167    7.7508  -29.5309 C   0  0  0  0  0  0  0  0  0  0  0  0
  -12.2546    8.5511  -30.1977 C   0  0  0  0  0  0  0  0  0  0  0  0
  -10.9864   10.5829  -29.5458 C   0  0  0  0  0  0  0  0  0  0  0  0
   -9.6062   10.2198  -29.8119 C   0  0  0  0  0  0  0  0  0  0  0  0
   -9.0559    9.0581  -29.2768 C   0  0  0  0  0  0  0  0  0  0  0  0
   -7.7843    8.6717  -29.5069 C   0  0  0  0  0  0  0  0  0  0  0  0
   -7.0139    9.5075  -30.3244 C   0  0  0  0  0  0  0  0  0  0  0  0
   -8.7787   10.9909  -30.6054 C   0  0  0  0  0  0  0  0  0  0  0  0
  -12.6072    9.3294  -28.1813 C   0  0  0  0  0  0  0  0  0  0  0  0
  -13.2932    9.6266  -25.8358 C   0  0  0  0  0  0  0  0  0  0  0  0
  -12.4566   10.9236  -22.4858 C   0  0  0  0  0  0  0  0  0  0  0  0
  -14.1049    8.5489  -25.9492 C   0  0  0  0  0  0  0  0  0  0  0  0
  -13.4243    8.2524  -28.2655 C   0  0  0  0  0  0  0  0  0  0  0  0
  -11.9191    9.5367  -29.2493 N   0  0  0  0  0  0  0  0  0  0  0  0
   -7.5310   10.6488  -30.8543 N   0  0  0  0  0  0  0  0  0  0  0  0
  -12.4013   11.5559  -24.5064 N   0  0  0  0  0  0  0  0  0  0  0  0
  -12.1121   11.9112  -23.2941 N   0  0  0  0  0  0  0  0  0  0  0  0
  -12.2867   10.8334  -21.0973 N   0  0  0  0  0  0  0  0  0  0  0  0
  -14.0774    7.5870  -22.3185 N   0  0  0  0  0  0  0  0  0  0  0  0
  -13.9735    6.3382  -30.2536 Cl  0  0  0  0  0  0  0  0  0  0  0  0
 14  1  2  0
  1 15  1  0
  2  3  2  0
 15  2  1  0
  2 21  1  0
  3  4  1  0
  3 16  1  0
  4 24  3  0
  5 17  1  0
 18  5  2  0
  6  7  2  0
 18  6  1  0
  6 25  1  0
  7 19  1  0
  8  9  1  0
  8 19  1  6
  9 10  2  0
  9 13  1  0
 10 11  1  0
 11 12  2  0
 20 12  1  0
 13 20  2  0
 14 18  1  0
 14 19  1  0
 15 17  2  0
 16 22  2  0
 16 23  1  0
 21 22  1  0
M  END
$$$$
