
     RDKit          3D

 25 28  0  0  0  0  0  0  0  0999 V2000
  -21.2737   18.3604  -12.0681 C   0  0  0  0  0  0  0  0  0  0  0  0
  -19.5367   16.8189  -12.8788 C   0  0  0  0  0  0  0  0  0  0  0  0
  -18.5432   17.6587  -13.2652 C   0  0  0  0  0  0  0  0  0  0  0  0
  -18.6090   19.0810  -13.4739 C   0  0  0  0  0  0  0  0  0  0  0  0
  -23.2866   16.5840  -12.3927 C   0  0  0  0  0  0  0  0  0  0  0  0
  -24.7477   18.4452  -11.5220 C   0  0  0  0  0  0  0  0  0  0  0  0
  -24.4054   19.7175  -11.1265 C   0  0  0  0  0  0  0  0  0  0  0  0
  -22.3467   21.1020  -10.9369 C   0  0  0  0  0  0  0  0  0  0  0  0
  -23.1301   22.0112  -10.0506 C   0  0  0  0  0  0  0  0  0  0  0  0
  -22.7267   22.2149   -8.7574 C   0  0  0  0  0  0  0  0  0  0  0  0
  -23.4217   23.0441   -7.9116 C   0  0  0  0  0  0  0  0  0  0  0  0
  -24.5479   23.6729   -8.4032 C   0  0  0  0  0  0  0  0  0  0  0  0
  -24.2561   22.6608  -10.4880 C   0  0  0  0  0  0  0  0  0  0  0  0
  -22.5445   18.7551  -11.7385 C   0  0  0  0  0  0  0  0  0  0  0  0
  -20.9326   17.0947  -12.5654 C   0  0  0  0  0  0  0  0  0  0  0  0
  -17.3574   16.9316  -13.4554 C   0  0  0  0  0  0  0  0  0  0  0  0
  -21.9738   16.2163  -12.7191 C   0  0  0  0  0  0  0  0  0  0  0  0
  -23.5736   17.8367  -11.9083 C   0  0  0  0  0  0  0  0  0  0  0  0
  -23.0829   19.9027  -11.2566 N   0  0  0  0  0  0  0  0  0  0  0  0
  -24.9401   23.4728   -9.6661 N   0  0  0  0  0  0  0  0  0  0  0  0
  -18.9643   15.5890  -12.8328 N   0  0  0  0  0  0  0  0  0  0  0  0
  -17.6912   15.6755  -13.1729 N   0  0  0  0  0  0  0  0  0  0  0  0
  -16.0884   17.4330  -13.8599 N   0  0  0  0  0  0  0  0  0  0  0  0
  -18.6423   20.1850  -13.6438 N   0  0  0  0  0  0  0  0  0  0  0  0
  -26.3662   17.7954  -11.5119 Cl  0  0  0  0  0  0  0  0  0  0  0  0
 14  1  2  0
  1 15  1  0
  2  3  2  0
 15  2  1  0
  2 21  1  0
  3  4  1  0
  3 16  1  0
  4 24  3  0
  5 17  1  0
 18  5  2  0
  6  7  2  0
 18  6  1  0
  6 25  1  0
  7 19  1  0
  8  9  1  0
 19  8  1  0
  9 10  2  0
  9 13  1  0
 10 11  1  0
 11 12  2  0
 20 12  1  0
 13 20  2  0
 14 18  1  0
 14 19  1  0
 15 17  2  0
 16 22  2  0
 16 23  1  0
 21 22  1  0
M  END
$$$$
