
     RDKit          3D

 25 28  0  0  0  0  0  0  0  0999 V2000
  -21.4836   19.4268  -11.5269 C   0  0  0  0  0  0  0  0  0  0  0  0
  -19.9171   17.7106  -12.3339 C   0  0  0  0  0  0  0  0  0  0  0  0
  -19.2541   17.6975  -13.5179 C   0  0  0  0  0  0  0  0  0  0  0  0
  -19.7325   18.1061  -14.8121 C   0  0  0  0  0  0  0  0  0  0  0  0
  -23.6713   17.8703  -11.8502 C   0  0  0  0  0  0  0  0  0  0  0  0
  -24.9301   19.8755  -10.9834 C   0  0  0  0  0  0  0  0  0  0  0  0
  -24.4567   21.1057  -10.5897 C   0  0  0  0  0  0  0  0  0  0  0  0
  -22.2644   22.2675  -10.4007 C   0  0  0  0  0  0  0  0  0  0  0  0
  -21.9734   22.3410   -8.9393 C   0  0  0  0  0  0  0  0  0  0  0  0
  -21.5847   23.5305   -8.3819 C   0  0  0  0  0  0  0  0  0  0  0  0
  -21.3080   23.6375   -7.0410 C   0  0  0  0  0  0  0  0  0  0  0  0
  -21.4329   22.5047   -6.2623 C   0  0  0  0  0  0  0  0  0  0  0  0
  -22.0817   21.2463   -8.1201 C   0  0  0  0  0  0  0  0  0  0  0  0
  -22.7064   19.9528  -11.1988 C   0  0  0  0  0  0  0  0  0  0  0  0
  -21.2767   18.1316  -12.0220 C   0  0  0  0  0  0  0  0  0  0  0  0
  -17.9545   17.2021  -13.3260 C   0  0  0  0  0  0  0  0  0  0  0  0
  -22.4040   17.3667  -12.1751 C   0  0  0  0  0  0  0  0  0  0  0  0
  -23.8258   19.1469  -11.3680 C   0  0  0  0  0  0  0  0  0  0  0  0
  -23.1219   21.1513  -10.7191 N   0  0  0  0  0  0  0  0  0  0  0  0
  -21.8126   21.3443   -6.8084 N   0  0  0  0  0  0  0  0  0  0  0  0
  -19.0316   17.2276  -11.4256 N   0  0  0  0  0  0  0  0  0  0  0  0
  -17.8912   16.9363  -12.0243 N   0  0  0  0  0  0  0  0  0  0  0  0
  -16.9399   17.0265  -14.3083 N   0  0  0  0  0  0  0  0  0  0  0  0
  -20.0919   18.4105  -15.8254 N   0  0  0  0  0  0  0  0  0  0  0  0
  -26.6076   19.3988  -10.9735 Cl  0  0  0  0  0  0  0  0  0  0  0  0
 14  1  2  0
  1 15  1  0
  2  3  2  0
 15  2  1  0
  2 21  1  0
  3  4  1  0
  3 16  1  0
  4 24  3  0
  5 17  1  0
 18  5  2  0
  6  7  2  0
 18  6  1  0
  6 25  1  0
  7 19  1  0
  8  9  1  0
 19  8  1  0
  9 10  2  0
  9 13  1  0
 10 11  1  0
 11 12  2  0
 20 12  1  0
 13 20  2  0
 14 18  1  0
 14 19  1  0
 15 17  2  0
 16 22  2  0
 16 23  1  0
 21 22  1  0
M  END
$$$$
