
     RDKit          3D

 25 28  0  0  0  0  0  0  0  0999 V2000
  -21.7090   19.1104  -10.9999 C   0  0  0  0  0  0  0  0  0  0  0  0
  -20.0574   17.7770  -12.2429 C   0  0  0  0  0  0  0  0  0  0  0  0
  -19.2295   17.9020  -13.3108 C   0  0  0  0  0  0  0  0  0  0  0  0
  -19.4954   18.5346  -14.5757 C   0  0  0  0  0  0  0  0  0  0  0  0
  -23.7814   18.3869  -12.5794 C   0  0  0  0  0  0  0  0  0  0  0  0
  -25.1423   19.8737  -11.0647 C   0  0  0  0  0  0  0  0  0  0  0  0
  -24.7456   20.6166   -9.9769 C   0  0  0  0  0  0  0  0  0  0  0  0
  -22.6484   21.0756   -8.7190 C   0  0  0  0  0  0  0  0  0  0  0  0
  -22.3129   22.4943   -9.0362 C   0  0  0  0  0  0  0  0  0  0  0  0
  -21.6947   22.7991  -10.2200 C   0  0  0  0  0  0  0  0  0  0  0  0
  -21.3699   24.0928  -10.5471 C   0  0  0  0  0  0  0  0  0  0  0  0
  -21.6858   25.0873   -9.6435 C   0  0  0  0  0  0  0  0  0  0  0  0
  -22.6043   23.5208   -8.1743 C   0  0  0  0  0  0  0  0  0  0  0  0
  -22.9490   19.6208  -10.7147 C   0  0  0  0  0  0  0  0  0  0  0  0
  -21.4285   18.2336  -12.0574 C   0  0  0  0  0  0  0  0  0  0  0  0
  -17.9946   17.2987  -13.0243 C   0  0  0  0  0  0  0  0  0  0  0  0
  -22.4986   17.8852  -12.8402 C   0  0  0  0  0  0  0  0  0  0  0  0
  -24.0088   19.2445  -11.5311 C   0  0  0  0  0  0  0  0  0  0  0  0
  -23.4291   20.4641   -9.7674 N   0  0  0  0  0  0  0  0  0  0  0  0
  -22.2895   24.7877   -8.4882 N   0  0  0  0  0  0  0  0  0  0  0  0
  -19.3360   17.1033  -11.3112 N   0  0  0  0  0  0  0  0  0  0  0  0
  -18.1339   16.8329  -11.7863 N   0  0  0  0  0  0  0  0  0  0  0  0
  -16.8557   17.2094  -13.8730 N   0  0  0  0  0  0  0  0  0  0  0  0
  -19.6895   19.0401  -15.5532 N   0  0  0  0  0  0  0  0  0  0  0  0
  -26.7724   19.7904  -11.6789 Cl  0  0  0  0  0  0  0  0  0  0  0  0
 14  1  2  0
  1 15  1  0
  2  3  2  0
 15  2  1  0
  2 21  1  0
  3  4  1  0
  3 16  1  0
  4 24  3  0
  5 17  1  0
 18  5  2  0
  6  7  2  0
 18  6  1  0
  6 25  1  0
  7 19  1  0
  8  9  1  0
 19  8  1  0
  9 10  2  0
  9 13  1  0
 10 11  1  0
 11 12  2  0
 20 12  1  0
 13 20  2  0
 14 18  1  0
 14 19  1  0
 15 17  2  0
 16 22  2  0
 16 23  1  0
 21 22  1  0
M  END
$$$$
