
     RDKit          3D

 25 28  0  0  0  0  0  0  0  0999 V2000
  -22.1833   19.7692  -11.8756 C   0  0  0  0  0  0  0  0  0  0  0  0
  -19.9294   19.0960  -12.3803 C   0  0  0  0  0  0  0  0  0  0  0  0
  -20.2380   17.7584  -12.5100 C   0  0  0  0  0  0  0  0  0  0  0  0
  -21.2553   17.0398  -12.1719 C   0  0  0  0  0  0  0  0  0  0  0  0
  -21.5764   22.1379  -10.7709 C   0  0  0  0  0  0  0  0  0  0  0  0
  -24.0736   22.1681  -10.2226 C   0  0  0  0  0  0  0  0  0  0  0  0
  -25.1135   21.2338  -10.4596 C   0  0  0  0  0  0  0  0  0  0  0  0
  -25.2008   19.0468  -11.6304 C   0  0  0  0  0  0  0  0  0  0  0  0
  -25.9529   18.2662  -10.6647 C   0  0  0  0  0  0  0  0  0  0  0  0
  -27.1501   18.7421  -10.1366 C   0  0  0  0  0  0  0  0  0  0  0  0
  -27.8909   18.0480   -9.2485 C   0  0  0  0  0  0  0  0  0  0  0  0
  -27.3960   16.7963   -8.8629 C   0  0  0  0  0  0  0  0  0  0  0  0
  -25.5326   17.0238  -10.2303 C   0  0  0  0  0  0  0  0  0  0  0  0
  -23.2369   20.4971  -11.3145 C   0  0  0  0  0  0  0  0  0  0  0  0
  -20.8742   20.1436  -11.9090 C   0  0  0  0  0  0  0  0  0  0  0  0
  -19.0080   17.1938  -13.1011 C   0  0  0  0  0  0  0  0  0  0  0  0
  -20.5683   21.3406  -11.3553 C   0  0  0  0  0  0  0  0  0  0  0  0
  -22.9019   21.6885  -10.7641 C   0  0  0  0  0  0  0  0  0  0  0  0
  -24.4784   20.1924  -11.1632 N   0  0  0  0  0  0  0  0  0  0  0  0
  -26.2268   16.3143   -9.3639 N   0  0  0  0  0  0  0  0  0  0  0  0
  -18.7054   19.2703  -12.8136 N   0  0  0  0  0  0  0  0  0  0  0  0
  -18.1433   18.1838  -13.2414 N   0  0  0  0  0  0  0  0  0  0  0  0
  -18.8639   15.8505  -13.4743 N   0  0  0  0  0  0  0  0  0  0  0  0
  -22.3610   16.2629  -11.8305 N   0  0  0  0  0  0  0  0  0  0  0  0
  -24.3034   23.6757   -9.3480 Cl  0  0  0  0  0  0  0  0  0  0  0  0
 14  1  2  0
  1 15  1  0
  2  3  2  0
 15  2  1  0
  2 21  1  0
  3  4  1  0
  3 16  1  0
  4 24  3  0
  5 17  1  0
 18  5  2  0
  6  7  2  0
 18  6  1  0
  6 25  1  0
  7 19  1  0
  8  9  1  0
  8 19  1  6
  9 10  2  0
  9 13  1  0
 10 11  1  0
 11 12  2  0
 20 12  1  0
 13 20  2  0
 14 18  1  0
 14 19  1  0
 15 17  2  0
 16 22  2  0
 16 23  1  0
 21 22  1  0
M  END
$$$$
