
     RDKit          3D

 25 28  0  0  0  0  0  0  0  0999 V2000
  -12.4075   10.4229  -27.0216 C   0  0  0  0  0  0  0  0  0  0  0  0
  -12.6837   10.3216  -24.5795 C   0  0  0  0  0  0  0  0  0  0  0  0
  -13.2094    9.9471  -23.3857 C   0  0  0  0  0  0  0  0  0  0  0  0
  -14.0131    8.7909  -23.0890 C   0  0  0  0  0  0  0  0  0  0  0  0
  -13.2180    7.8742  -27.4216 C   0  0  0  0  0  0  0  0  0  0  0  0
  -12.7973    8.3767  -29.8563 C   0  0  0  0  0  0  0  0  0  0  0  0
  -12.3485    9.5344  -30.4484 C   0  0  0  0  0  0  0  0  0  0  0  0
  -11.6656   11.8226  -29.7488 C   0  0  0  0  0  0  0  0  0  0  0  0
  -10.5490   11.8584  -30.7376 C   0  0  0  0  0  0  0  0  0  0  0  0
  -10.8226   12.0482  -32.0665 C   0  0  0  0  0  0  0  0  0  0  0  0
   -9.8219   12.0869  -33.0062 C   0  0  0  0  0  0  0  0  0  0  0  0
   -8.5210   11.9281  -32.5728 C   0  0  0  0  0  0  0  0  0  0  0  0
   -9.2389   11.7062  -30.3612 C   0  0  0  0  0  0  0  0  0  0  0  0
  -12.4354    9.9469  -28.3069 C   0  0  0  0  0  0  0  0  0  0  0  0
  -12.7701    9.6840  -25.8867 C   0  0  0  0  0  0  0  0  0  0  0  0
  -12.8583   10.8835  -22.4003 C   0  0  0  0  0  0  0  0  0  0  0  0
  -13.1764    8.3958  -26.1211 C   0  0  0  0  0  0  0  0  0  0  0  0
  -12.8527    8.6362  -28.5043 C   0  0  0  0  0  0  0  0  0  0  0  0
  -12.1316   10.4765  -29.5179 N   0  0  0  0  0  0  0  0  0  0  0  0
   -8.2559   11.7431  -31.2750 N   0  0  0  0  0  0  0  0  0  0  0  0
  -12.0170   11.4767  -24.3272 N   0  0  0  0  0  0  0  0  0  0  0  0
  -12.1307   11.7884  -23.0490 N   0  0  0  0  0  0  0  0  0  0  0  0
  -13.2070   10.8623  -21.0208 N   0  0  0  0  0  0  0  0  0  0  0  0
  -14.6239    7.8873  -22.8455 N   0  0  0  0  0  0  0  0  0  0  0  0
  -13.1978    6.9078  -30.7069 Cl  0  0  0  0  0  0  0  0  0  0  0  0
 14  1  2  0
  1 15  1  0
  2  3  2  0
 15  2  1  0
  2 21  1  0
  3  4  1  0
  3 16  1  0
  4 24  3  0
  5 17  1  0
 18  5  2  0
  6  7  2  0
 18  6  1  0
  6 25  1  0
  7 19  1  0
  8  9  1  0
 19  8  1  0
  9 10  2  0
  9 13  1  0
 10 11  1  0
 11 12  2  0
 20 12  1  0
 13 20  2  0
 14 18  1  0
 14 19  1  0
 15 17  2  0
 16 22  2  0
 16 23  1  0
 21 22  1  0
M  END
$$$$
