
     RDKit          3D

 25 28  0  0  0  0  0  0  0  0999 V2000
  -21.2368   17.9302  -11.8385 C   0  0  0  0  0  0  0  0  0  0  0  0
  -19.4465   16.5786  -12.7079 C   0  0  0  0  0  0  0  0  0  0  0  0
  -18.5916   17.5924  -13.0856 C   0  0  0  0  0  0  0  0  0  0  0  0
  -18.7636   18.8257  -13.4243 C   0  0  0  0  0  0  0  0  0  0  0  0
  -23.2560   16.3722  -12.6720 C   0  0  0  0  0  0  0  0  0  0  0  0
  -24.6885   18.3123  -11.8223 C   0  0  0  0  0  0  0  0  0  0  0  0
  -24.3541   19.5621  -11.2420 C   0  0  0  0  0  0  0  0  0  0  0  0
  -22.2018   20.6145  -10.5932 C   0  0  0  0  0  0  0  0  0  0  0  0
  -22.9267   21.6512   -9.8808 C   0  0  0  0  0  0  0  0  0  0  0  0
  -24.0234   22.2843  -10.4597 C   0  0  0  0  0  0  0  0  0  0  0  0
  -24.7367   23.2420   -9.8326 C   0  0  0  0  0  0  0  0  0  0  0  0
  -24.3198   23.5893   -8.5419 C   0  0  0  0  0  0  0  0  0  0  0  0
  -22.5784   22.0539   -8.6059 C   0  0  0  0  0  0  0  0  0  0  0  0
  -22.5345   18.4081  -11.6329 C   0  0  0  0  0  0  0  0  0  0  0  0
  -20.8974   16.7509  -12.4292 C   0  0  0  0  0  0  0  0  0  0  0  0
  -17.2794   16.9162  -13.1277 C   0  0  0  0  0  0  0  0  0  0  0  0
  -21.9161   15.9627  -12.8462 C   0  0  0  0  0  0  0  0  0  0  0  0
  -23.5339   17.6015  -12.0633 C   0  0  0  0  0  0  0  0  0  0  0  0
  -22.9484   19.5332  -11.1640 N   0  0  0  0  0  0  0  0  0  0  0  0
  -23.2489   22.9858   -7.9594 N   0  0  0  0  0  0  0  0  0  0  0  0
  -18.7381   15.4851  -12.5711 N   0  0  0  0  0  0  0  0  0  0  0  0
  -17.4742   15.6489  -12.8061 N   0  0  0  0  0  0  0  0  0  0  0  0
  -16.0715   17.5679  -13.4124 N   0  0  0  0  0  0  0  0  0  0  0  0
  -18.9721   20.1570  -13.7803 N   0  0  0  0  0  0  0  0  0  0  0  0
  -26.3376   17.8154  -12.1748 Cl  0  0  0  0  0  0  0  0  0  0  0  0
 14  1  2  0
  1 15  1  0
  2  3  2  0
 15  2  1  0
  2 21  1  0
  3  4  1  0
  3 16  1  0
  4 24  3  0
  5 17  1  0
 18  5  2  0
  6  7  2  0
 18  6  1  0
  6 25  1  0
  7 19  1  0
  8  9  1  0
  8 19  1  6
  9 10  2  0
  9 13  1  0
 10 11  1  0
 11 12  2  0
 20 12  1  0
 13 20  2  0
 14 18  1  0
 14 19  1  0
 15 17  2  0
 16 22  2  0
 16 23  1  0
 21 22  1  0
M  END
$$$$
