
     RDKit          3D

 25 28  0  0  0  0  0  0  0  0999 V2000
  -21.0991   19.8427  -10.5988 C   0  0  0  0  0  0  0  0  0  0  0  0
  -19.7965   18.2831  -11.8870 C   0  0  0  0  0  0  0  0  0  0  0  0
  -19.5788   17.0644  -12.4939 C   0  0  0  0  0  0  0  0  0  0  0  0
  -20.3275   16.0421  -12.7383 C   0  0  0  0  0  0  0  0  0  0  0  0
  -23.4896   19.2079  -11.6388 C   0  0  0  0  0  0  0  0  0  0  0  0
  -24.2728   21.2096  -10.2541 C   0  0  0  0  0  0  0  0  0  0  0  0
  -23.5795   22.1200   -9.4167 C   0  0  0  0  0  0  0  0  0  0  0  0
  -21.2139   22.2948   -8.6855 C   0  0  0  0  0  0  0  0  0  0  0  0
  -21.3471   23.7099   -8.3894 C   0  0  0  0  0  0  0  0  0  0  0  0
  -21.4168   24.6516   -9.4125 C   0  0  0  0  0  0  0  0  0  0  0  0
  -21.5548   25.9744   -9.1879 C   0  0  0  0  0  0  0  0  0  0  0  0
  -21.6240   26.3784   -7.8491 C   0  0  0  0  0  0  0  0  0  0  0  0
  -21.4196   24.1909   -7.0962 C   0  0  0  0  0  0  0  0  0  0  0  0
  -22.1923   20.6154  -10.1962 C   0  0  0  0  0  0  0  0  0  0  0  0
  -21.1288   18.8011  -11.4758 C   0  0  0  0  0  0  0  0  0  0  0  0
  -18.1297   17.0934  -12.7774 C   0  0  0  0  0  0  0  0  0  0  0  0
  -22.3356   18.4780  -11.9976 C   0  0  0  0  0  0  0  0  0  0  0  0
  -23.3862   20.2731  -10.7367 C   0  0  0  0  0  0  0  0  0  0  0  0
  -22.2491   21.6592   -9.4450 N   0  0  0  0  0  0  0  0  0  0  0  0
  -21.5542   25.4751   -6.8344 N   0  0  0  0  0  0  0  0  0  0  0  0
  -18.6475   18.9086  -11.8168 N   0  0  0  0  0  0  0  0  0  0  0  0
  -17.6592   18.2441  -12.3279 N   0  0  0  0  0  0  0  0  0  0  0  0
  -17.4436   16.0751  -13.4535 N   0  0  0  0  0  0  0  0  0  0  0  0
  -21.1551   14.9532  -13.0069 N   0  0  0  0  0  0  0  0  0  0  0  0
  -25.9925   21.3254  -10.6004 Cl  0  0  0  0  0  0  0  0  0  0  0  0
 14  1  2  0
  1 15  1  0
  2  3  2  0
 15  2  1  0
  2 21  1  0
  3  4  1  0
  3 16  1  0
  4 24  3  0
  5 17  1  0
 18  5  2  0
  6  7  2  0
 18  6  1  0
  6 25  1  0
  7 19  1  0
  8  9  1  0
  8 19  1  6
  9 10  2  0
  9 13  1  0
 10 11  1  0
 11 12  2  0
 20 12  1  0
 13 20  2  0
 14 18  1  0
 14 19  1  0
 15 17  2  0
 16 22  2  0
 16 23  1  0
 21 22  1  0
M  END
$$$$
