
     RDKit          3D

 25 28  0  0  0  0  0  0  0  0999 V2000
  -21.3247   19.7340  -11.3117 C   0  0  0  0  0  0  0  0  0  0  0  0
  -19.6361   18.1613  -12.1635 C   0  0  0  0  0  0  0  0  0  0  0  0
  -19.0896   17.5075  -13.2197 C   0  0  0  0  0  0  0  0  0  0  0  0
  -19.7582   16.9462  -14.3637 C   0  0  0  0  0  0  0  0  0  0  0  0
  -23.4067   18.0803  -11.8048 C   0  0  0  0  0  0  0  0  0  0  0  0
  -24.8070   19.9547  -10.8652 C   0  0  0  0  0  0  0  0  0  0  0  0
  -24.4187   21.1828  -10.3822 C   0  0  0  0  0  0  0  0  0  0  0  0
  -22.3048   22.4517  -10.0465 C   0  0  0  0  0  0  0  0  0  0  0  0
  -22.0275   22.4279   -8.5808 C   0  0  0  0  0  0  0  0  0  0  0  0
  -22.1117   21.2471   -7.8915 C   0  0  0  0  0  0  0  0  0  0  0  0
  -21.8640   21.1853   -6.5421 C   0  0  0  0  0  0  0  0  0  0  0  0
  -21.5247   22.3550   -5.8925 C   0  0  0  0  0  0  0  0  0  0  0  0
  -21.6864   23.5605   -7.8866 C   0  0  0  0  0  0  0  0  0  0  0  0
  -22.5858   20.1695  -10.9965 C   0  0  0  0  0  0  0  0  0  0  0  0
  -21.0271   18.4854  -11.8756 C   0  0  0  0  0  0  0  0  0  0  0  0
  -17.6969   17.4317  -13.0591 C   0  0  0  0  0  0  0  0  0  0  0  0
  -22.1025   17.6694  -12.1140 C   0  0  0  0  0  0  0  0  0  0  0  0
  -23.6505   19.3141  -11.2531 C   0  0  0  0  0  0  0  0  0  0  0  0
  -23.0854   21.3110  -10.4612 N   0  0  0  0  0  0  0  0  0  0  0  0
  -21.4429   23.5069   -6.5673 N   0  0  0  0  0  0  0  0  0  0  0  0
  -18.5876   18.4827  -11.3637 N   0  0  0  0  0  0  0  0  0  0  0  0
  -17.4637   18.0481  -11.9038 N   0  0  0  0  0  0  0  0  0  0  0  0
  -16.7543   16.8289  -13.9385 N   0  0  0  0  0  0  0  0  0  0  0  0
  -20.2822   16.5283  -15.2579 N   0  0  0  0  0  0  0  0  0  0  0  0
  -26.4535   19.3850  -10.9433 Cl  0  0  0  0  0  0  0  0  0  0  0  0
 14  1  2  0
  1 15  1  0
  2  3  2  0
 15  2  1  0
  2 21  1  0
  3  4  1  0
  3 16  1  0
  4 24  3  0
  5 17  1  0
 18  5  2  0
  6  7  2  0
 18  6  1  0
  6 25  1  0
  7 19  1  0
  8  9  1  0
 19  8  1  0
  9 10  2  0
  9 13  1  0
 10 11  1  0
 11 12  2  0
 20 12  1  0
 13 20  2  0
 14 18  1  0
 14 19  1  0
 15 17  2  0
 16 22  2  0
 16 23  1  0
 21 22  1  0
M  END
$$$$
