
     RDKit          3D

 25 28  0  0  0  0  0  0  0  0999 V2000
  -12.0117    8.9264  -27.2168 C   0  0  0  0  0  0  0  0  0  0  0  0
  -12.4437    9.7737  -24.9484 C   0  0  0  0  0  0  0  0  0  0  0  0
  -12.6628    9.5772  -23.6236 C   0  0  0  0  0  0  0  0  0  0  0  0
  -13.3789    8.5028  -22.9882 C   0  0  0  0  0  0  0  0  0  0  0  0
  -14.3125    7.5112  -27.3445 C   0  0  0  0  0  0  0  0  0  0  0  0
  -13.5024    6.8590  -29.6413 C   0  0  0  0  0  0  0  0  0  0  0  0
  -12.3472    7.2149  -30.2981 C   0  0  0  0  0  0  0  0  0  0  0  0
  -10.3367    8.6174  -29.8713 C   0  0  0  0  0  0  0  0  0  0  0  0
  -10.4924   10.0113  -30.3800 C   0  0  0  0  0  0  0  0  0  0  0  0
   -9.9663   11.0577  -29.6695 C   0  0  0  0  0  0  0  0  0  0  0  0
  -10.0894   12.3542  -30.1053 C   0  0  0  0  0  0  0  0  0  0  0  0
  -10.7633   12.5775  -31.2892 C   0  0  0  0  0  0  0  0  0  0  0  0
  -11.1524   10.2892  -31.5499 C   0  0  0  0  0  0  0  0  0  0  0  0
  -12.2713    8.2149  -28.3595 C   0  0  0  0  0  0  0  0  0  0  0  0
  -12.8546    8.9781  -26.0977 C   0  0  0  0  0  0  0  0  0  0  0  0
  -12.0719   10.6167  -22.8878 C   0  0  0  0  0  0  0  0  0  0  0  0
  -14.0129    8.2509  -26.1920 C   0  0  0  0  0  0  0  0  0  0  0  0
  -13.4555    7.4900  -28.4174 C   0  0  0  0  0  0  0  0  0  0  0  0
  -11.6088    8.0288  -29.5282 N   0  0  0  0  0  0  0  0  0  0  0  0
  -11.2761   11.5545  -31.9815 N   0  0  0  0  0  0  0  0  0  0  0  0
  -11.7253   10.9230  -25.0228 N   0  0  0  0  0  0  0  0  0  0  0  0
  -11.5183   11.4002  -23.8091 N   0  0  0  0  0  0  0  0  0  0  0  0
  -12.0707   10.7868  -21.4749 N   0  0  0  0  0  0  0  0  0  0  0  0
  -13.9180    7.6596  -22.4911 N   0  0  0  0  0  0  0  0  0  0  0  0
  -14.7388    5.8122  -30.2871 Cl  0  0  0  0  0  0  0  0  0  0  0  0
 14  1  2  0
  1 15  1  0
  2  3  2  0
 15  2  1  0
  2 21  1  0
  3  4  1  0
  3 16  1  0
  4 24  3  0
  5 17  1  0
 18  5  2  0
  6  7  2  0
 18  6  1  0
  6 25  1  0
  7 19  1  0
  8  9  1  0
 19  8  1  0
  9 10  2  0
  9 13  1  0
 10 11  1  0
 11 12  2  0
 20 12  1  0
 13 20  2  0
 14 18  1  0
 14 19  1  0
 15 17  2  0
 16 22  2  0
 16 23  1  0
 21 22  1  0
M  END
$$$$
