
     RDKit          3D

 25 28  0  0  0  0  0  0  0  0999 V2000
  -21.1504   19.7052  -11.0226 C   0  0  0  0  0  0  0  0  0  0  0  0
  -19.7170   18.0944  -12.0898 C   0  0  0  0  0  0  0  0  0  0  0  0
  -19.4208   16.9208  -12.7503 C   0  0  0  0  0  0  0  0  0  0  0  0
  -20.0818   15.8381  -12.9870 C   0  0  0  0  0  0  0  0  0  0  0  0
  -23.4590   18.3933  -11.4085 C   0  0  0  0  0  0  0  0  0  0  0  0
  -24.4739   20.5389  -10.4576 C   0  0  0  0  0  0  0  0  0  0  0  0
  -23.8935   21.7569  -10.0215 C   0  0  0  0  0  0  0  0  0  0  0  0
  -21.5487   22.5427   -9.8074 C   0  0  0  0  0  0  0  0  0  0  0  0
  -22.0319   23.7887   -9.2402 C   0  0  0  0  0  0  0  0  0  0  0  0
  -21.2313   24.9277   -9.2286 C   0  0  0  0  0  0  0  0  0  0  0  0
  -21.6406   26.1107   -8.7263 C   0  0  0  0  0  0  0  0  0  0  0  0
  -22.9367   26.1520   -8.1981 C   0  0  0  0  0  0  0  0  0  0  0  0
  -23.2964   23.9125   -8.6971 C   0  0  0  0  0  0  0  0  0  0  0  0
  -22.3244   20.3580  -10.6351 C   0  0  0  0  0  0  0  0  0  0  0  0
  -21.0655   18.4678  -11.5854 C   0  0  0  0  0  0  0  0  0  0  0  0
  -18.0008   17.0992  -13.1149 C   0  0  0  0  0  0  0  0  0  0  0  0
  -22.2300   17.8040  -11.7764 C   0  0  0  0  0  0  0  0  0  0  0  0
  -23.4745   19.6729  -10.8414 C   0  0  0  0  0  0  0  0  0  0  0  0
  -22.5097   21.5464  -10.1764 N   0  0  0  0  0  0  0  0  0  0  0  0
  -23.7339   25.0498   -8.1962 N   0  0  0  0  0  0  0  0  0  0  0  0
  -18.6309   18.8265  -12.0636 N   0  0  0  0  0  0  0  0  0  0  0  0
  -17.6162   18.2766  -12.6531 N   0  0  0  0  0  0  0  0  0  0  0  0
  -17.2626   16.1727  -13.8642 N   0  0  0  0  0  0  0  0  0  0  0  0
  -20.8069   14.6709  -13.2207 N   0  0  0  0  0  0  0  0  0  0  0  0
  -26.2075   20.2494  -10.4990 Cl  0  0  0  0  0  0  0  0  0  0  0  0
 14  1  2  0
  1 15  1  0
  2  3  2  0
 15  2  1  0
  2 21  1  0
  3  4  1  0
  3 16  1  0
  4 24  3  0
  5 17  1  0
 18  5  2  0
  6  7  2  0
 18  6  1  0
  6 25  1  0
  7 19  1  0
  8  9  1  0
  8 19  1  6
  9 10  2  0
  9 13  1  0
 10 11  1  0
 11 12  2  0
 20 12  1  0
 13 20  2  0
 14 18  1  0
 14 19  1  0
 15 17  2  0
 16 22  2  0
 16 23  1  0
 21 22  1  0
M  END
$$$$
