
     RDKit          3D

 25 28  0  0  0  0  0  0  0  0999 V2000
  -21.4099   18.6225  -11.4561 C   0  0  0  0  0  0  0  0  0  0  0  0
  -19.9194   16.9470  -12.3274 C   0  0  0  0  0  0  0  0  0  0  0  0
  -19.1353   17.5383  -13.2953 C   0  0  0  0  0  0  0  0  0  0  0  0
  -19.3561   18.4304  -14.2012 C   0  0  0  0  0  0  0  0  0  0  0  0
  -23.7023   17.3661  -12.0608 C   0  0  0  0  0  0  0  0  0  0  0  0
  -24.7481   19.5616  -11.2713 C   0  0  0  0  0  0  0  0  0  0  0  0
  -24.1814   20.7733  -10.8012 C   0  0  0  0  0  0  0  0  0  0  0  0
  -21.8506   21.4990  -10.3519 C   0  0  0  0  0  0  0  0  0  0  0  0
  -21.8268   21.8360   -8.9400 C   0  0  0  0  0  0  0  0  0  0  0  0
  -21.8020   20.8404   -7.9670 C   0  0  0  0  0  0  0  0  0  0  0  0
  -21.7651   21.1036   -6.6446 C   0  0  0  0  0  0  0  0  0  0  0  0
  -21.7560   22.4540   -6.2749 C   0  0  0  0  0  0  0  0  0  0  0  0
  -21.8189   23.1430   -8.4919 C   0  0  0  0  0  0  0  0  0  0  0  0
  -22.5984   19.3169  -11.2117 C   0  0  0  0  0  0  0  0  0  0  0  0
  -21.3024   17.3699  -11.9798 C   0  0  0  0  0  0  0  0  0  0  0  0
  -17.8516   16.8206  -13.1610 C   0  0  0  0  0  0  0  0  0  0  0  0
  -22.4591   16.7341  -12.2812 C   0  0  0  0  0  0  0  0  0  0  0  0
  -23.7399   18.6591  -11.5263 C   0  0  0  0  0  0  0  0  0  0  0  0
  -22.7960   20.5209  -10.8012 N   0  0  0  0  0  0  0  0  0  0  0  0
  -21.7834   23.4422   -7.2094 N   0  0  0  0  0  0  0  0  0  0  0  0
  -19.2030   16.0210  -11.7395 N   0  0  0  0  0  0  0  0  0  0  0  0
  -17.9955   15.9242  -12.2001 N   0  0  0  0  0  0  0  0  0  0  0  0
  -16.7056   17.1191  -13.9107 N   0  0  0  0  0  0  0  0  0  0  0  0
  -19.6076   19.4071  -15.1633 N   0  0  0  0  0  0  0  0  0  0  0  0
  -26.4752   19.3193  -11.4934 Cl  0  0  0  0  0  0  0  0  0  0  0  0
 14  1  2  0
  1 15  1  0
  2  3  2  0
 15  2  1  0
  2 21  1  0
  3  4  1  0
  3 16  1  0
  4 24  3  0
  5 17  1  0
 18  5  2  0
  6  7  2  0
 18  6  1  0
  6 25  1  0
  7 19  1  0
  8  9  1  0
  8 19  1  6
  9 10  2  0
  9 13  1  0
 10 11  1  0
 11 12  2  0
 20 12  1  0
 13 20  2  0
 14 18  1  0
 14 19  1  0
 15 17  2  0
 16 22  2  0
 16 23  1  0
 21 22  1  0
M  END
$$$$
