
     RDKit          3D

 25 28  0  0  0  0  0  0  0  0999 V2000
  -22.1062   18.9939  -10.7904 C   0  0  0  0  0  0  0  0  0  0  0  0
  -20.1888   17.9946  -11.9631 C   0  0  0  0  0  0  0  0  0  0  0  0
  -19.4752   17.3483  -12.9195 C   0  0  0  0  0  0  0  0  0  0  0  0
  -19.9146   16.9156  -14.2198 C   0  0  0  0  0  0  0  0  0  0  0  0
  -23.7591   18.8209  -12.9237 C   0  0  0  0  0  0  0  0  0  0  0  0
  -25.4571   19.8804  -11.3903 C   0  0  0  0  0  0  0  0  0  0  0  0
  -25.3293   20.2750  -10.0787 C   0  0  0  0  0  0  0  0  0  0  0  0
  -23.5746   20.2826   -8.3145 C   0  0  0  0  0  0  0  0  0  0  0  0
  -22.8851   21.6038   -8.2439 C   0  0  0  0  0  0  0  0  0  0  0  0
  -21.9542   21.8341   -7.2656 C   0  0  0  0  0  0  0  0  0  0  0  0
  -21.2989   23.0371   -7.1683 C   0  0  0  0  0  0  0  0  0  0  0  0
  -21.6056   24.0172   -8.0907 C   0  0  0  0  0  0  0  0  0  0  0  0
  -23.1518   22.6120   -9.1348 C   0  0  0  0  0  0  0  0  0  0  0  0
  -23.3905   19.4535  -10.6529 C   0  0  0  0  0  0  0  0  0  0  0  0
  -21.5774   18.4355  -11.9626 C   0  0  0  0  0  0  0  0  0  0  0  0
  -18.1649   17.1302  -12.4649 C   0  0  0  0  0  0  0  0  0  0  0  0
  -22.4388   18.3612  -13.0265 C   0  0  0  0  0  0  0  0  0  0  0  0
  -24.2337   19.3614  -11.7537 C   0  0  0  0  0  0  0  0  0  0  0  0
  -24.0886   20.0183   -9.6367 N   0  0  0  0  0  0  0  0  0  0  0  0
  -22.5147   23.7903   -9.0451 N   0  0  0  0  0  0  0  0  0  0  0  0
  -19.3232   18.1706  -10.9325 N   0  0  0  0  0  0  0  0  0  0  0  0
  -18.1464   17.6591  -11.2447 N   0  0  0  0  0  0  0  0  0  0  0  0
  -17.1022   16.4870  -13.1592 N   0  0  0  0  0  0  0  0  0  0  0  0
  -20.2732   16.5752  -15.2219 N   0  0  0  0  0  0  0  0  0  0  0  0
  -26.9082   20.0358  -12.3452 Cl  0  0  0  0  0  0  0  0  0  0  0  0
 14  1  2  0
  1 15  1  0
  2  3  2  0
 15  2  1  0
  2 21  1  0
  3  4  1  0
  3 16  1  0
  4 24  3  0
  5 17  1  0
 18  5  2  0
  6  7  2  0
 18  6  1  0
  6 25  1  0
  7 19  1  0
  8  9  1  0
 19  8  1  0
  9 10  2  0
  9 13  1  0
 10 11  1  0
 11 12  2  0
 20 12  1  0
 13 20  2  0
 14 18  1  0
 14 19  1  0
 15 17  2  0
 16 22  2  0
 16 23  1  0
 21 22  1  0
M  END
$$$$
