
     RDKit          3D

 25 28  0  0  0  0  0  0  0  0999 V2000
  -21.7874   19.8808  -11.5619 C   0  0  0  0  0  0  0  0  0  0  0  0
  -20.1470   18.3526  -12.4348 C   0  0  0  0  0  0  0  0  0  0  0  0
  -19.6751   17.1358  -12.8797 C   0  0  0  0  0  0  0  0  0  0  0  0
  -20.1645   15.9419  -12.9009 C   0  0  0  0  0  0  0  0  0  0  0  0
  -23.9041   18.2464  -11.7799 C   0  0  0  0  0  0  0  0  0  0  0  0
  -25.1967   20.3412  -11.0879 C   0  0  0  0  0  0  0  0  0  0  0  0
  -24.7823   21.6668  -10.8023 C   0  0  0  0  0  0  0  0  0  0  0  0
  -22.5602   22.7676  -10.6922 C   0  0  0  0  0  0  0  0  0  0  0  0
  -22.0086   22.9495   -9.3617 C   0  0  0  0  0  0  0  0  0  0  0  0
  -22.1978   21.9895   -8.3712 C   0  0  0  0  0  0  0  0  0  0  0  0
  -21.6934   22.1068   -7.1258 C   0  0  0  0  0  0  0  0  0  0  0  0
  -20.9538   23.2647   -6.8562 C   0  0  0  0  0  0  0  0  0  0  0  0
  -21.2697   24.0639   -9.0138 C   0  0  0  0  0  0  0  0  0  0  0  0
  -23.0398   20.4185  -11.2506 C   0  0  0  0  0  0  0  0  0  0  0  0
  -21.5380   18.6067  -11.9735 C   0  0  0  0  0  0  0  0  0  0  0  0
  -18.2971   17.4541  -13.3049 C   0  0  0  0  0  0  0  0  0  0  0  0
  -22.6055   17.7806  -12.0796 C   0  0  0  0  0  0  0  0  0  0  0  0
  -24.0901   19.5715  -11.3694 C   0  0  0  0  0  0  0  0  0  0  0  0
  -23.3812   21.6192  -10.9362 N   0  0  0  0  0  0  0  0  0  0  0  0
  -20.7601   24.2166   -7.8084 N   0  0  0  0  0  0  0  0  0  0  0  0
  -19.1838   19.2306  -12.5676 N   0  0  0  0  0  0  0  0  0  0  0  0
  -18.0959   18.7398  -13.0727 N   0  0  0  0  0  0  0  0  0  0  0  0
  -17.4251   16.5271  -13.8924 N   0  0  0  0  0  0  0  0  0  0  0  0
  -20.6753   14.6457  -12.9397 N   0  0  0  0  0  0  0  0  0  0  0  0
  -26.8782   19.8282  -11.0879 Cl  0  0  0  0  0  0  0  0  0  0  0  0
 14  1  2  0
  1 15  1  0
  2  3  2  0
 15  2  1  0
  2 21  1  0
  3  4  1  0
  3 16  1  0
  4 24  3  0
  5 17  1  0
 18  5  2  0
  6  7  2  0
 18  6  1  0
  6 25  1  0
  7 19  1  0
  8  9  1  0
  8 19  1  6
  9 10  2  0
  9 13  1  0
 10 11  1  0
 11 12  2  0
 20 12  1  0
 13 20  2  0
 14 18  1  0
 14 19  1  0
 15 17  2  0
 16 22  2  0
 16 23  1  0
 21 22  1  0
M  END
$$$$
