
     RDKit          3D

 25 28  0  0  0  0  0  0  0  0999 V2000
  -22.8809   18.9839  -11.6565 C   0  0  0  0  0  0  0  0  0  0  0  0
  -20.8096   17.8421  -12.3319 C   0  0  0  0  0  0  0  0  0  0  0  0
  -19.4963   17.6353  -12.6047 C   0  0  0  0  0  0  0  0  0  0  0  0
  -18.4117   18.5783  -12.5326 C   0  0  0  0  0  0  0  0  0  0  0  0
  -21.6731   21.3696  -11.2531 C   0  0  0  0  0  0  0  0  0  0  0  0
  -23.9813   22.1588  -10.6155 C   0  0  0  0  0  0  0  0  0  0  0  0
  -25.1672   21.4627  -10.5775 C   0  0  0  0  0  0  0  0  0  0  0  0
  -25.9703   19.1545  -11.0452 C   0  0  0  0  0  0  0  0  0  0  0  0
  -26.1882   18.4762   -9.7344 C   0  0  0  0  0  0  0  0  0  0  0  0
  -25.6027   18.9789   -8.6025 C   0  0  0  0  0  0  0  0  0  0  0  0
  -25.7797   18.3822   -7.3782 C   0  0  0  0  0  0  0  0  0  0  0  0
  -26.5703   17.2524   -7.3174 C   0  0  0  0  0  0  0  0  0  0  0  0
  -26.9641   17.3513   -9.6177 C   0  0  0  0  0  0  0  0  0  0  0  0
  -23.6521   20.0371  -11.2376 C   0  0  0  0  0  0  0  0  0  0  0  0
  -21.5007   19.0478  -11.8945 C   0  0  0  0  0  0  0  0  0  0  0  0
  -19.2995   16.3015  -12.9963 C   0  0  0  0  0  0  0  0  0  0  0  0
  -20.9169   20.2697  -11.6814 C   0  0  0  0  0  0  0  0  0  0  0  0
  -23.0242   21.2597  -11.0323 C   0  0  0  0  0  0  0  0  0  0  0  0
  -24.9689   20.1894  -10.9512 N   0  0  0  0  0  0  0  0  0  0  0  0
  -27.1411   16.7632   -8.4237 N   0  0  0  0  0  0  0  0  0  0  0  0
  -21.4111   16.6459  -12.5547 N   0  0  0  0  0  0  0  0  0  0  0  0
  -20.5127   15.7589  -12.9420 N   0  0  0  0  0  0  0  0  0  0  0  0
  -18.0749   15.6786  -13.3670 N   0  0  0  0  0  0  0  0  0  0  0  0
  -17.5808   19.3240  -12.4850 N   0  0  0  0  0  0  0  0  0  0  0  0
  -23.7960   23.8434  -10.2040 Cl  0  0  0  0  0  0  0  0  0  0  0  0
 14  1  2  0
  1 15  1  0
  2  3  2  0
 15  2  1  0
  2 21  1  0
  3  4  1  0
  3 16  1  0
  4 24  3  0
  5 17  1  0
 18  5  2  0
  6  7  2  0
 18  6  1  0
  6 25  1  0
  7 19  1  0
  8  9  1  0
 19  8  1  0
  9 10  2  0
  9 13  1  0
 10 11  1  0
 11 12  2  0
 20 12  1  0
 13 20  2  0
 14 18  1  0
 14 19  1  0
 15 17  2  0
 16 22  2  0
 16 23  1  0
 21 22  1  0
M  END
$$$$
