
     RDKit          3D

 25 28  0  0  0  0  0  0  0  0999 V2000
  -21.7877   19.7489  -11.4906 C   0  0  0  0  0  0  0  0  0  0  0  0
  -20.0266   18.4816  -12.5301 C   0  0  0  0  0  0  0  0  0  0  0  0
  -19.2999   17.3171  -12.6610 C   0  0  0  0  0  0  0  0  0  0  0  0
  -19.5067   16.0917  -12.3132 C   0  0  0  0  0  0  0  0  0  0  0  0
  -23.7527   17.9664  -11.8920 C   0  0  0  0  0  0  0  0  0  0  0  0
  -25.2196   19.8458  -10.9682 C   0  0  0  0  0  0  0  0  0  0  0  0
  -24.9220   21.1626  -10.5346 C   0  0  0  0  0  0  0  0  0  0  0  0
  -22.8058   22.4387  -10.3006 C   0  0  0  0  0  0  0  0  0  0  0  0
  -22.4200   22.6010   -8.9105 C   0  0  0  0  0  0  0  0  0  0  0  0
  -21.8480   23.7880   -8.4606 C   0  0  0  0  0  0  0  0  0  0  0  0
  -21.4865   23.9912   -7.1771 C   0  0  0  0  0  0  0  0  0  0  0  0
  -21.7107   22.9329   -6.2882 C   0  0  0  0  0  0  0  0  0  0  0  0
  -22.6047   21.6050   -7.9709 C   0  0  0  0  0  0  0  0  0  0  0  0
  -23.0798   20.1338  -11.1208 C   0  0  0  0  0  0  0  0  0  0  0  0
  -21.4300   18.5566  -12.0433 C   0  0  0  0  0  0  0  0  0  0  0  0
  -18.0380   17.7846  -13.2693 C   0  0  0  0  0  0  0  0  0  0  0  0
  -22.4207   17.6554  -12.2422 C   0  0  0  0  0  0  0  0  0  0  0  0
  -24.0517   19.2149  -11.3346 C   0  0  0  0  0  0  0  0  0  0  0  0
  -23.5237   21.2561  -10.6729 N   0  0  0  0  0  0  0  0  0  0  0  0
  -22.2650   21.7637   -6.7078 N   0  0  0  0  0  0  0  0  0  0  0  0
  -19.2898   19.4681  -12.9778 N   0  0  0  0  0  0  0  0  0  0  0  0
  -18.1288   19.0952  -13.4165 N   0  0  0  0  0  0  0  0  0  0  0  0
  -16.9901   16.9348  -13.6494 N   0  0  0  0  0  0  0  0  0  0  0  0
  -19.7469   14.7662  -11.9554 N   0  0  0  0  0  0  0  0  0  0  0  0
  -26.8487   19.1876  -11.0264 Cl  0  0  0  0  0  0  0  0  0  0  0  0
 14  1  2  0
  1 15  1  0
  2  3  2  0
 15  2  1  0
  2 21  1  0
  3  4  1  0
  3 16  1  0
  4 24  3  0
  5 17  1  0
 18  5  2  0
  6  7  2  0
 18  6  1  0
  6 25  1  0
  7 19  1  0
  8  9  1  0
  8 19  1  6
  9 10  2  0
  9 13  1  0
 10 11  1  0
 11 12  2  0
 20 12  1  0
 13 20  2  0
 14 18  1  0
 14 19  1  0
 15 17  2  0
 16 22  2  0
 16 23  1  0
 21 22  1  0
M  END
$$$$
