
     RDKit          3D

 25 28  0  0  0  0  0  0  0  0999 V2000
  -11.9778    9.1418  -26.5338 C   0  0  0  0  0  0  0  0  0  0  0  0
  -12.4392    9.8833  -24.2921 C   0  0  0  0  0  0  0  0  0  0  0  0
  -13.4617    9.9775  -23.3719 C   0  0  0  0  0  0  0  0  0  0  0  0
  -14.6928   10.3583  -23.4408 C   0  0  0  0  0  0  0  0  0  0  0  0
  -13.6002   10.8708  -27.7897 C   0  0  0  0  0  0  0  0  0  0  0  0
  -12.9648    9.4891  -29.8452 C   0  0  0  0  0  0  0  0  0  0  0  0
  -12.1398    8.3477  -30.0094 C   0  0  0  0  0  0  0  0  0  0  0  0
  -10.7218    7.0357  -28.4507 C   0  0  0  0  0  0  0  0  0  0  0  0
  -11.2582    5.7546  -28.0281 C   0  0  0  0  0  0  0  0  0  0  0  0
  -10.4130    4.7121  -27.6573 C   0  0  0  0  0  0  0  0  0  0  0  0
  -10.8637    3.5098  -27.2444 C   0  0  0  0  0  0  0  0  0  0  0  0
  -12.2531    3.3418  -27.2045 C   0  0  0  0  0  0  0  0  0  0  0  0
  -12.6159    5.5066  -27.9634 C   0  0  0  0  0  0  0  0  0  0  0  0
  -12.1138    8.9947  -27.9174 C   0  0  0  0  0  0  0  0  0  0  0  0
  -12.5964   10.0752  -25.7587 C   0  0  0  0  0  0  0  0  0  0  0  0
  -12.7994    9.6025  -22.1063 C   0  0  0  0  0  0  0  0  0  0  0  0
  -13.4120   10.9504  -26.3928 C   0  0  0  0  0  0  0  0  0  0  0  0
  -12.9387    9.8806  -28.5253 C   0  0  0  0  0  0  0  0  0  0  0  0
  -11.6403    8.1028  -28.7157 N   0  0  0  0  0  0  0  0  0  0  0  0
  -13.0965    4.3461  -27.5659 N   0  0  0  0  0  0  0  0  0  0  0  0
  -11.3534    9.5263  -23.6520 N   0  0  0  0  0  0  0  0  0  0  0  0
  -11.5304    9.3531  -22.3799 N   0  0  0  0  0  0  0  0  0  0  0  0
  -13.4637    9.4960  -20.8766 N   0  0  0  0  0  0  0  0  0  0  0  0
  -16.0230   10.7717  -23.4905 N   0  0  0  0  0  0  0  0  0  0  0  0
  -13.8714   10.2288  -31.1573 Cl  0  0  0  0  0  0  0  0  0  0  0  0
 14  1  2  0
  1 15  1  0
  2  3  2  0
 15  2  1  0
  2 21  1  0
  3  4  1  0
  3 16  1  0
  4 24  3  0
  5 17  1  0
 18  5  2  0
  6  7  2  0
 18  6  1  0
  6 25  1  0
  7 19  1  0
  8  9  1  0
  8 19  1  6
  9 10  2  0
  9 13  1  0
 10 11  1  0
 11 12  2  0
 20 12  1  0
 13 20  2  0
 14 18  1  0
 14 19  1  0
 15 17  2  0
 16 22  2  0
 16 23  1  0
 21 22  1  0
M  END
$$$$
