
     RDKit          3D

 25 28  0  0  0  0  0  0  0  0999 V2000
  -13.0468    8.6006  -26.8973 C   0  0  0  0  0  0  0  0  0  0  0  0
  -13.2351    9.2980  -24.5460 C   0  0  0  0  0  0  0  0  0  0  0  0
  -13.0588   10.0370  -23.4215 C   0  0  0  0  0  0  0  0  0  0  0  0
  -12.5158   11.3644  -23.3032 C   0  0  0  0  0  0  0  0  0  0  0  0
  -12.2989   11.0472  -27.7735 C   0  0  0  0  0  0  0  0  0  0  0  0
  -12.2345    9.9501  -30.0427 C   0  0  0  0  0  0  0  0  0  0  0  0
  -12.5095    8.6495  -30.3966 C   0  0  0  0  0  0  0  0  0  0  0  0
  -13.2004    6.5372  -29.2776 C   0  0  0  0  0  0  0  0  0  0  0  0
  -12.0004    5.6725  -29.0825 C   0  0  0  0  0  0  0  0  0  0  0  0
  -11.4087    5.5979  -27.8493 C   0  0  0  0  0  0  0  0  0  0  0  0
  -10.3029    4.8134  -27.6308 C   0  0  0  0  0  0  0  0  0  0  0  0
   -9.7986    4.0951  -28.6962 C   0  0  0  0  0  0  0  0  0  0  0  0
  -11.4587    4.9382  -30.1065 C   0  0  0  0  0  0  0  0  0  0  0  0
  -12.8031    8.7617  -28.2367 C   0  0  0  0  0  0  0  0  0  0  0  0
  -12.9375    9.6157  -25.9364 C   0  0  0  0  0  0  0  0  0  0  0  0
  -13.4946    9.3077  -22.3038 C   0  0  0  0  0  0  0  0  0  0  0  0
  -12.5568   10.8443  -26.4105 C   0  0  0  0  0  0  0  0  0  0  0  0
  -12.4194   10.0219  -28.6793 C   0  0  0  0  0  0  0  0  0  0  0  0
  -12.8505    7.9368  -29.3121 N   0  0  0  0  0  0  0  0  0  0  0  0
  -10.3778    4.1692  -29.8995 N   0  0  0  0  0  0  0  0  0  0  0  0
  -13.7739    8.1270  -24.1205 N   0  0  0  0  0  0  0  0  0  0  0  0
  -13.9177    8.1519  -22.8081 N   0  0  0  0  0  0  0  0  0  0  0  0
  -13.4824    9.7192  -20.9415 N   0  0  0  0  0  0  0  0  0  0  0  0
  -12.0768   12.3884  -23.2168 N   0  0  0  0  0  0  0  0  0  0  0  0
  -11.7535   11.2083  -31.1504 Cl  0  0  0  0  0  0  0  0  0  0  0  0
 14  1  2  0
  1 15  1  0
  2  3  2  0
 15  2  1  0
  2 21  1  0
  3  4  1  0
  3 16  1  0
  4 24  3  0
  5 17  1  0
 18  5  2  0
  6  7  2  0
 18  6  1  0
  6 25  1  0
  7 19  1  0
  8  9  1  0
 19  8  1  0
  9 10  2  0
  9 13  1  0
 10 11  1  0
 11 12  2  0
 20 12  1  0
 13 20  2  0
 14 18  1  0
 14 19  1  0
 15 17  2  0
 16 22  2  0
 16 23  1  0
 21 22  1  0
M  END
$$$$
