
     RDKit          3D

 25 28  0  0  0  0  0  0  0  0999 V2000
  -21.7882   18.7436  -11.2859 C   0  0  0  0  0  0  0  0  0  0  0  0
  -20.2046   17.2449  -12.4245 C   0  0  0  0  0  0  0  0  0  0  0  0
  -19.0989   18.0121  -12.5995 C   0  0  0  0  0  0  0  0  0  0  0  0
  -18.9853   19.4442  -12.5164 C   0  0  0  0  0  0  0  0  0  0  0  0
  -23.9805   17.4435  -12.1895 C   0  0  0  0  0  0  0  0  0  0  0  0
  -25.2552   19.1885  -10.8905 C   0  0  0  0  0  0  0  0  0  0  0  0
  -24.7849   20.2377  -10.1353 C   0  0  0  0  0  0  0  0  0  0  0  0
  -22.5869   21.1958   -9.4703 C   0  0  0  0  0  0  0  0  0  0  0  0
  -22.7590   22.5798  -10.0001 C   0  0  0  0  0  0  0  0  0  0  0  0
  -21.6755   23.2610  -10.4887 C   0  0  0  0  0  0  0  0  0  0  0  0
  -21.7942   24.5363  -10.9843 C   0  0  0  0  0  0  0  0  0  0  0  0
  -23.0455   25.1191  -10.9774 C   0  0  0  0  0  0  0  0  0  0  0  0
  -23.9793   23.2057  -10.0168 C   0  0  0  0  0  0  0  0  0  0  0  0
  -23.0201   19.2161  -10.9136 C   0  0  0  0  0  0  0  0  0  0  0  0
  -21.5741   17.6275  -12.1070 C   0  0  0  0  0  0  0  0  0  0  0  0
  -17.9976   17.1930  -12.8952 C   0  0  0  0  0  0  0  0  0  0  0  0
  -22.7039   16.9896  -12.5493 C   0  0  0  0  0  0  0  0  0  0  0  0
  -24.1419   18.5428  -11.3822 C   0  0  0  0  0  0  0  0  0  0  0  0
  -23.4433   20.2535  -10.1494 N   0  0  0  0  0  0  0  0  0  0  0  0
  -24.1021   24.4523  -10.5001 N   0  0  0  0  0  0  0  0  0  0  0  0
  -19.7839   15.9679  -12.6113 N   0  0  0  0  0  0  0  0  0  0  0  0
  -18.4922   15.9583  -12.8852 N   0  0  0  0  0  0  0  0  0  0  0  0
  -16.6576   17.6000  -13.1479 N   0  0  0  0  0  0  0  0  0  0  0  0
  -18.9071   20.5560  -12.4351 N   0  0  0  0  0  0  0  0  0  0  0  0
  -26.9395   18.8082  -11.1362 Cl  0  0  0  0  0  0  0  0  0  0  0  0
 14  1  2  0
  1 15  1  0
  2  3  2  0
 15  2  1  0
  2 21  1  0
  3  4  1  0
  3 16  1  0
  4 24  3  0
  5 17  1  0
 18  5  2  0
  6  7  2  0
 18  6  1  0
  6 25  1  0
  7 19  1  0
  8  9  1  0
 19  8  1  0
  9 10  2  0
  9 13  1  0
 10 11  1  0
 11 12  2  0
 20 12  1  0
 13 20  2  0
 14 18  1  0
 14 19  1  0
 15 17  2  0
 16 22  2  0
 16 23  1  0
 21 22  1  0
M  END
$$$$
