
     RDKit          3D

 80 82  0  0  0  0  0  0  0  0999 V2000
   56.1553  -36.6758   -9.7951 N   0  0  0  0  0  4  0  0  0  0  0  0
   56.1855  -38.0762   -9.4260 C   0  0  2  0  0  0  0  0  0  0  0  0
   54.9737  -38.4777   -8.6663 C   0  0  0  0  0  0  0  0  0  0  0  0
   55.1731  -39.2593   -7.6728 O   0  0  0  0  0  0  0  0  0  0  0  0
   57.4455  -38.3603   -8.6481 C   0  0  0  0  0  0  0  0  0  0  0  0
   57.5220  -37.5651   -7.3593 C   0  0  0  0  0  0  0  0  0  0  0  0
   58.9035  -37.5874   -6.7826 C   0  0  0  0  0  0  0  0  0  0  0  0
   59.1893  -36.3865   -5.9104 C   0  0  0  0  0  0  0  0  0  0  0  0
   59.0462  -36.7347   -4.5108 N   0  0  0  0  0  0  0  0  0  0  0  0
   53.6639  -38.0619   -8.9675 N   0  0  0  0  0  0  0  0  0  0  0  0
   53.0936  -38.0277  -10.3160 C   0  0  2  0  0  0  0  0  0  0  0  0
   51.8823  -37.1982  -10.3625 C   0  0  0  0  0  0  0  0  0  0  0  0
   52.0272  -36.0759   -9.7359 O   0  0  0  0  0  0  0  0  0  0  0  0
   53.0189  -39.4083  -10.8295 C   0  0  0  0  0  0  0  0  0  0  0  0
   53.7117  -40.4512   -9.9588 C   0  0  0  0  0  0  0  0  0  0  0  0
   54.5644  -39.8061   -8.9047 C   0  0  0  0  0  0  0  0  0  0  0  0
   55.7520  -39.1643   -9.4129 N   0  0  0  0  0  0  0  0  0  0  0  0
   56.7355  -38.6969   -8.4983 C   0  0  0  0  0  0  0  0  0  0  0  0
   58.1212  -38.8528   -8.7717 N   0  0  0  0  0  0  0  0  0  0  0  0
   56.4203  -38.1187   -7.3885 N   0  0  0  0  0  0  0  0  0  0  0  0
   50.6431  -37.4256  -10.9562 N   0  0  0  0  0  0  0  0  0  0  0  0
   50.3752  -37.6341  -12.4005 C   0  0  2  0  0  0  0  0  0  0  0  0
   50.0764  -36.3054  -13.0204 C   0  0  0  0  0  0  0  0  0  0  0  0
   51.1402  -35.7594  -13.5287 O   0  0  0  0  0  0  0  0  0  0  0  0
   49.2648  -38.6177  -12.4700 C   0  0  0  0  0  0  0  0  0  0  0  0
   49.4416  -39.9628  -11.9107 C   0  0  0  0  0  0  0  0  0  0  0  0
   49.7907  -41.1051  -12.7633 C   0  0  0  0  0  0  0  0  0  0  0  0
   50.3464  -40.7779  -14.0425 N   0  0  0  0  0  0  0  0  0  0  0  0
   51.7706  -40.6009  -14.2163 C   0  0  0  0  0  0  0  0  0  0  0  0
   52.5993  -40.8752  -13.1069 N   0  0  0  0  0  0  0  0  0  0  0  0
   52.1959  -40.2128  -15.3576 N   0  0  0  0  0  0  0  0  0  0  0  0
   48.8520  -35.6489  -13.0974 N   0  0  0  0  0  0  0  0  0  0  0  0
   48.0731  -35.0471  -12.0114 C   0  0  1  0  0  0  0  0  0  0  0  0
   47.9888  -33.5483  -12.3115 C   0  0  1  0  0  0  0  0  0  0  0  0
   47.8179  -32.7053  -11.0913 C   0  0  0  0  0  0  0  0  0  0  0  0
   49.1980  -33.1215  -13.1200 C   0  0  0  0  0  0  0  0  0  0  0  0
   46.7790  -33.2681  -13.2067 C   0  0  0  0  0  0  0  0  0  0  0  0
   46.6994  -35.5950  -11.9765 C   0  0  0  0  0  0  0  0  0  0  0  0
   46.3068  -36.1863  -13.0350 O   0  0  0  0  0  0  0  0  0  0  0  0
   45.8419  -35.4991  -10.8803 N   0  0  0  0  0  0  0  0  0  0  0  0
   46.0982  -35.9215   -9.5240 C   0  0  2  0  0  0  0  0  0  0  0  0
   45.1536  -37.0043   -9.1717 C   0  0  0  0  0  0  0  0  0  0  0  0
   43.9401  -36.8830   -9.4108 O   0  0  0  0  0  0  0  0  0  0  0  0
   45.8334  -34.7583   -8.5942 C   0  0  0  0  0  0  0  0  0  0  0  0
   46.9713  -34.5105   -7.6486 C   0  0  0  0  0  0  0  0  0  0  0  0
   46.3478  -34.0991   -6.3196 C   0  0  0  0  0  0  0  0  0  0  0  0
   47.3731  -33.5783   -5.3589 C   0  0  0  0  0  0  0  0  0  0  0  0
   46.9847  -32.2734   -4.8687 N   0  0  0  0  0  0  0  0  0  0  0  0
   45.6388  -38.1739   -8.5600 N   0  0  0  0  0  0  0  0  0  0  0  0
   44.9839  -39.4513   -8.5048 C   0  0  0  0  0  0  0  0  0  0  0  0
   44.6449  -39.8833   -7.1130 C   0  0  0  0  0  0  0  0  0  0  0  0
   43.5315  -40.6476   -6.8395 C   0  0  0  0  0  0  0  0  0  0  0  0
   43.1861  -41.0629   -5.5648 C   0  0  0  0  0  0  0  0  0  0  0  0
   43.9811  -40.7068   -4.4939 C   0  0  0  0  0  0  0  0  0  0  0  0
   43.6729  -41.1240   -3.1343 C   0  0  0  0  0  0  0  0  0  0  0  0
   44.4792  -40.7282   -2.0354 N   0  0  0  0  0  0  0  0  0  0  0  0
   42.6426  -41.8753   -2.8645 N   0  0  0  0  0  0  0  0  0  0  0  0
   45.1084  -39.9324   -4.7709 C   0  0  0  0  0  0  0  0  0  0  0  0
   45.4401  -39.5264   -6.0435 C   0  0  0  0  0  0  0  0  0  0  0  0
   47.7394  -31.5570   -3.9025 C   0  0  0  0  0  0  0  0  0  0  0  0
   48.4640  -32.2180   -2.7947 C   0  0  0  0  0  0  0  0  0  0  0  0
   49.0749  -31.2150   -1.8719 C   0  0  0  0  0  0  0  0  0  0  0  0
   50.4307  -31.6310   -1.3657 C   0  0  0  0  0  0  0  0  0  0  0  0
   51.5270  -30.9971   -2.1664 C   0  0  0  0  0  0  0  0  0  0  0  0
   47.7994  -30.3035   -3.9850 O   0  0  0  0  0  0  0  0  0  0  0  0
   51.5911  -29.7213   -2.1215 O   0  0  0  0  0  0  0  0  0  0  0  0
   52.4523  -31.7475   -2.9372 N   0  0  0  0  0  0  0  0  0  0  0  0
   56.0539  -34.2498   -4.4091 C   0  0  0  0  0  0  0  0  0  0  0  0
   54.6901  -33.9447   -4.0892 C   0  0  0  0  0  0  0  0  0  0  0  0
   54.3185  -33.3912   -2.8958 C   0  0  0  0  0  0  0  0  0  0  0  0
   55.3141  -33.1277   -1.9926 C   0  0  0  0  0  0  0  0  0  0  0  0
   56.6604  -33.4342   -2.3209 C   0  0  0  0  0  0  0  0  0  0  0  0
   58.4736  -34.3169   -3.8538 C   0  0  0  0  0  0  0  0  0  0  0  0
   58.8061  -35.7531   -3.5147 C   0  0  0  0  0  0  0  0  0  0  0  0
   58.8648  -36.0615   -2.3030 O   0  0  0  0  0  0  0  0  0  0  0  0
   57.0496  -33.9910   -3.5162 C   0  0  0  0  0  0  0  0  0  0  0  0
   52.8713  -33.0923   -2.6024 C   0  0  0  0  0  0  0  0  0  0  0  0
   57.0533  -38.0761   -6.5700 H   0  0  0  0  0  0  0  0  0  0  0  0
   51.5501  -39.8389  -16.0841 H   0  0  0  0  0  0  0  0  0  0  0  0
   42.0252  -42.2968   -3.5623 H   0  0  0  0  0  0  0  0  0  0  0  0
  2  1  1  1
  3  2  1  0
  2  5  1  0
  3  4  2  0
 10  3  1  0
  5  6  1  0
  6  7  1  0
  7  8  1  0
  8  9  1  0
  9 74  1  0
 11 10  1  0
 12 11  1  0
 11 14  1  1
 12 13  2  0
 21 12  1  0
 14 15  1  0
 15 16  1  0
 16 17  1  0
 17 18  1  0
 18 19  1  0
 18 20  2  0
 22 21  1  0
 23 22  1  0
 22 25  1  1
 23 24  2  0
 32 23  1  0
 25 26  1  0
 26 27  1  0
 27 28  1  0
 28 29  1  0
 29 30  1  0
 29 31  2  0
 33 32  1  6
 33 34  1  0
 38 33  1  0
 34 35  1  1
 34 36  1  0
 34 37  1  0
 38 39  2  0
 40 38  1  0
 41 40  1  0
 41 42  1  1
 44 41  1  0
 42 43  2  0
 42 49  1  0
 45 44  1  0
 46 45  1  0
 47 46  1  0
 48 47  1  0
 60 48  1  0
 49 50  1  0
 50 51  1  0
 51 52  2  0
 51 59  1  0
 52 53  1  0
 53 54  2  0
 54 55  1  0
 58 54  1  0
 55 56  1  0
 55 57  2  0
 59 58  2  0
 61 60  1  0
 60 65  2  0
 62 61  1  0
 63 62  1  0
 64 63  1  0
 64 66  2  0
 67 64  1  0
 77 67  1  0
 69 68  2  0
 68 76  1  0
 70 69  1  0
 70 71  2  0
 70 77  1  0
 71 72  1  0
 72 76  2  0
 74 73  1  0
 73 76  1  0
 74 75  2  0
 20 78  1  0
 31 79  1  0
 57 80  1  0
M  CHG  1   1   1
M  END
$$$$
