
     RDKit          3D

 80 82  0  0  0  0  0  0  0  0999 V2000
   51.1278  -35.8335   -1.4371 N   0  0  0  0  0  4  0  0  0  0  0  0
   50.6001  -34.5286   -1.0951 C   0  0  2  0  0  0  0  0  0  0  0  0
   50.3653  -33.6903   -2.2988 C   0  0  0  0  0  0  0  0  0  0  0  0
   50.6977  -32.4591   -2.1931 O   0  0  0  0  0  0  0  0  0  0  0  0
   51.5331  -33.8519   -0.1230 C   0  0  0  0  0  0  0  0  0  0  0  0
   52.9142  -33.6272   -0.7071 C   0  0  0  0  0  0  0  0  0  0  0  0
   53.9103  -33.2843    0.3569 C   0  0  0  0  0  0  0  0  0  0  0  0
   55.3253  -33.6452   -0.0328 C   0  0  0  0  0  0  0  0  0  0  0  0
   56.0357  -32.4700   -0.4964 N   0  0  0  0  0  0  0  0  0  0  0  0
   49.8161  -34.1574   -3.5068 N   0  0  0  0  0  0  0  0  0  0  0  0
   48.6483  -35.0361   -3.6026 C   0  0  2  0  0  0  0  0  0  0  0  0
   48.5549  -35.6572   -4.9304 C   0  0  0  0  0  0  0  0  0  0  0  0
   49.6928  -36.1123   -5.3445 O   0  0  0  0  0  0  0  0  0  0  0  0
   47.4729  -34.3135   -3.0816 C   0  0  0  0  0  0  0  0  0  0  0  0
   47.7533  -33.4264   -1.8732 C   0  0  0  0  0  0  0  0  0  0  0  0
   49.0276  -33.8239   -1.1856 C   0  0  0  0  0  0  0  0  0  0  0  0
   50.1529  -32.9719   -1.4827 N   0  0  0  0  0  0  0  0  0  0  0  0
   50.4052  -31.8403   -0.6594 C   0  0  0  0  0  0  0  0  0  0  0  0
   49.9745  -30.5430   -1.0476 N   0  0  0  0  0  0  0  0  0  0  0  0
   51.0324  -31.9359    0.4644 N   0  0  0  0  0  0  0  0  0  0  0  0
   47.4677  -35.8257   -5.7843 N   0  0  0  0  0  0  0  0  0  0  0  0
   46.2284  -36.5916   -5.5037 C   0  0  2  0  0  0  0  0  0  0  0  0
   46.4230  -37.9948   -5.9853 C   0  0  0  0  0  0  0  0  0  0  0  0
   46.8495  -38.7756   -5.0384 O   0  0  0  0  0  0  0  0  0  0  0  0
   45.1312  -35.8492   -6.1747 C   0  0  0  0  0  0  0  0  0  0  0  0
   43.9231  -35.4898   -5.4231 C   0  0  0  0  0  0  0  0  0  0  0  0
   43.7441  -35.8961   -4.0244 C   0  0  0  0  0  0  0  0  0  0  0  0
   43.2142  -37.2118   -3.8233 N   0  0  0  0  0  0  0  0  0  0  0  0
   43.9921  -38.3882   -4.1407 C   0  0  0  0  0  0  0  0  0  0  0  0
   43.3503  -39.6406   -4.0300 N   0  0  0  0  0  0  0  0  0  0  0  0
   45.2070  -38.2285   -4.5049 N   0  0  0  0  0  0  0  0  0  0  0  0
   46.2042  -38.5033   -7.2619 N   0  0  0  0  0  0  0  0  0  0  0  0
   46.9578  -38.2333   -8.4896 C   0  0  1  0  0  0  0  0  0  0  0  0
   47.5657  -39.5667   -8.9324 C   0  0  1  0  0  0  0  0  0  0  0  0
   48.1839  -39.5177  -10.2904 C   0  0  0  0  0  0  0  0  0  0  0  0
   48.5519  -40.0494   -7.8872 C   0  0  0  0  0  0  0  0  0  0  0  0
   46.4740  -40.6383   -8.9899 C   0  0  0  0  0  0  0  0  0  0  0  0
   46.0652  -37.7465   -9.5643 C   0  0  0  0  0  0  0  0  0  0  0  0
   44.8208  -37.9670   -9.3995 O   0  0  0  0  0  0  0  0  0  0  0  0
   46.5032  -37.0817  -10.7099 N   0  0  0  0  0  0  0  0  0  0  0  0
   47.3171  -35.8915  -10.7785 C   0  0  2  0  0  0  0  0  0  0  0  0
   46.5292  -34.8066  -11.4037 C   0  0  0  0  0  0  0  0  0  0  0  0
   46.0334  -33.9062  -10.7052 O   0  0  0  0  0  0  0  0  0  0  0  0
   48.5082  -36.1679  -11.6687 C   0  0  0  0  0  0  0  0  0  0  0  0
   49.8069  -35.7840  -11.0233 C   0  0  0  0  0  0  0  0  0  0  0  0
   50.6891  -35.2170  -12.1298 C   0  0  0  0  0  0  0  0  0  0  0  0
   52.1041  -35.0276  -11.6743 C   0  0  0  0  0  0  0  0  0  0  0  0
   53.0163  -35.6918  -12.5800 N   0  0  0  0  0  0  0  0  0  0  0  0
   46.3418  -34.8024  -12.7974 N   0  0  0  0  0  0  0  0  0  0  0  0
   47.3653  -34.8661  -13.8035 C   0  0  0  0  0  0  0  0  0  0  0  0
   47.7575  -36.2649  -14.1613 C   0  0  0  0  0  0  0  0  0  0  0  0
   49.0578  -36.7068  -14.0498 C   0  0  0  0  0  0  0  0  0  0  0  0
   49.4568  -37.9923  -14.3739 C   0  0  0  0  0  0  0  0  0  0  0  0
   48.5235  -38.8988  -14.8353 C   0  0  0  0  0  0  0  0  0  0  0  0
   48.8837  -40.2658  -15.1804 C   0  0  0  0  0  0  0  0  0  0  0  0
   50.1739  -40.7869  -14.9007 N   0  0  0  0  0  0  0  0  0  0  0  0
   48.0383  -41.0728  -15.7574 N   0  0  0  0  0  0  0  0  0  0  0  0
   47.2067  -38.4511  -14.9486 C   0  0  0  0  0  0  0  0  0  0  0  0
   46.8239  -37.1699  -14.6227 C   0  0  0  0  0  0  0  0  0  0  0  0
   54.4273  -35.6387  -12.4293 C   0  0  0  0  0  0  0  0  0  0  0  0
   55.1390  -34.4433  -11.9258 C   0  0  0  0  0  0  0  0  0  0  0  0
   56.6197  -34.6318  -11.9787 C   0  0  0  0  0  0  0  0  0  0  0  0
   57.3312  -34.0334  -10.7941 C   0  0  0  0  0  0  0  0  0  0  0  0
   57.6191  -35.0714   -9.7527 C   0  0  0  0  0  0  0  0  0  0  0  0
   55.1101  -36.6493  -12.7358 O   0  0  0  0  0  0  0  0  0  0  0  0
   58.4049  -36.0169  -10.1028 O   0  0  0  0  0  0  0  0  0  0  0  0
   57.0641  -35.0294   -8.4475 N   0  0  0  0  0  0  0  0  0  0  0  0
   56.2035  -34.1964   -3.9793 C   0  0  0  0  0  0  0  0  0  0  0  0
   55.9988  -34.1758   -5.3981 C   0  0  0  0  0  0  0  0  0  0  0  0
   56.9788  -33.8133   -6.2795 C   0  0  0  0  0  0  0  0  0  0  0  0
   58.1942  -33.4640   -5.7531 C   0  0  0  0  0  0  0  0  0  0  0  0
   58.3846  -33.4883   -4.3469 C   0  0  0  0  0  0  0  0  0  0  0  0
   57.6163  -33.8684   -1.9633 C   0  0  0  0  0  0  0  0  0  0  0  0
   57.1803  -32.5659   -1.3294 C   0  0  0  0  0  0  0  0  0  0  0  0
   57.8717  -31.5494   -1.5649 O   0  0  0  0  0  0  0  0  0  0  0  0
   57.4091  -33.8501   -3.4481 C   0  0  0  0  0  0  0  0  0  0  0  0
   56.7154  -33.8022   -7.7629 C   0  0  0  0  0  0  0  0  0  0  0  0
   51.9764  -32.3521    0.5549 H   0  0  0  0  0  0  0  0  0  0  0  0
   45.8529  -37.5925   -3.9921 H   0  0  0  0  0  0  0  0  0  0  0  0
   47.1355  -40.7946  -16.1490 H   0  0  0  0  0  0  0  0  0  0  0  0
  2  1  1  6
  3  2  1  0
  2  5  1  0
  3  4  2  0
 10  3  1  0
  5  6  1  0
  6  7  1  0
  7  8  1  0
  8  9  1  0
  9 74  1  0
 11 10  1  0
 12 11  1  0
 11 14  1  6
 12 13  2  0
 21 12  1  0
 14 15  1  0
 15 16  1  0
 16 17  1  0
 17 18  1  0
 18 19  1  0
 18 20  2  0
 22 21  1  0
 23 22  1  0
 22 25  1  6
 23 24  2  0
 32 23  1  0
 25 26  1  0
 26 27  1  0
 27 28  1  0
 28 29  1  0
 29 30  1  0
 29 31  2  0
 33 32  1  1
 33 34  1  0
 38 33  1  0
 34 35  1  6
 34 36  1  0
 34 37  1  0
 38 39  2  0
 40 38  1  0
 41 40  1  0
 41 42  1  6
 44 41  1  0
 42 43  2  0
 42 49  1  0
 45 44  1  0
 46 45  1  0
 47 46  1  0
 48 47  1  0
 60 48  1  0
 49 50  1  0
 50 51  1  0
 51 52  2  0
 51 59  1  0
 52 53  1  0
 53 54  2  0
 54 55  1  0
 58 54  1  0
 55 56  1  0
 55 57  2  0
 59 58  2  0
 61 60  1  0
 60 65  2  0
 62 61  1  0
 63 62  1  0
 64 63  1  0
 64 66  2  0
 67 64  1  0
 77 67  1  0
 69 68  2  0
 68 76  1  0
 70 69  1  0
 70 71  2  0
 70 77  1  0
 71 72  1  0
 72 76  2  0
 74 73  1  0
 73 76  1  0
 74 75  2  0
 20 78  1  0
 31 79  1  0
 57 80  1  0
M  CHG  1   1   1
M  END
$$$$
