
     RDKit          3D

 80 82  0  0  0  0  0  0  0  0999 V2000
   54.8617  -40.2871  -10.2846 N   0  0  0  0  0  4  0  0  0  0  0  0
   54.6677  -40.6764   -8.9030 C   0  0  2  0  0  0  0  0  0  0  0  0
   53.6356  -39.8461   -8.2305 C   0  0  0  0  0  0  0  0  0  0  0  0
   53.9026  -39.4900   -7.0308 O   0  0  0  0  0  0  0  0  0  0  0  0
   55.9876  -40.6137   -8.1767 C   0  0  0  0  0  0  0  0  0  0  0  0
   56.5736  -39.2154   -8.1604 C   0  0  0  0  0  0  0  0  0  0  0  0
   58.0149  -39.2296   -7.7552 C   0  0  0  0  0  0  0  0  0  0  0  0
   58.7816  -38.0424   -8.2909 C   0  0  0  0  0  0  0  0  0  0  0  0
   58.9307  -37.0328   -7.2619 N   0  0  0  0  0  0  0  0  0  0  0  0
   52.4222  -39.4437   -8.8179 N   0  0  0  0  0  0  0  0  0  0  0  0
   51.5454  -40.3217   -9.5959 C   0  0  2  0  0  0  0  0  0  0  0  0
   50.5844  -39.5471  -10.3921 C   0  0  0  0  0  0  0  0  0  0  0  0
   51.1375  -38.5481  -11.0000 O   0  0  0  0  0  0  0  0  0  0  0  0
   51.0290  -41.3781   -8.7056 C   0  0  0  0  0  0  0  0  0  0  0  0
   50.6613  -40.9068   -7.3025 C   0  0  0  0  0  0  0  0  0  0  0  0
   51.0355  -39.4679   -7.0923 C   0  0  0  0  0  0  0  0  0  0  0  0
   51.1824  -39.0891   -5.7083 N   0  0  0  0  0  0  0  0  0  0  0  0
   51.5603  -37.7561   -5.3883 C   0  0  0  0  0  0  0  0  0  0  0  0
   52.9272  -37.4016   -5.2299 N   0  0  0  0  0  0  0  0  0  0  0  0
   50.6904  -36.8169   -5.2254 N   0  0  0  0  0  0  0  0  0  0  0  0
   49.2157  -39.7155  -10.5870 N   0  0  0  0  0  0  0  0  0  0  0  0
   48.5429  -40.8908  -11.1930 C   0  0  2  0  0  0  0  0  0  0  0  0
   48.4035  -40.6473  -12.6627 C   0  0  0  0  0  0  0  0  0  0  0  0
   49.3946  -41.1546  -13.3325 O   0  0  0  0  0  0  0  0  0  0  0  0
   47.2591  -41.0454  -10.4627 C   0  0  0  0  0  0  0  0  0  0  0  0
   46.9991  -42.2644   -9.6882 C   0  0  0  0  0  0  0  0  0  0  0  0
   47.7721  -43.4915   -9.9121 C   0  0  0  0  0  0  0  0  0  0  0  0
   49.0527  -43.5439   -9.2721 N   0  0  0  0  0  0  0  0  0  0  0  0
   49.9440  -44.6642   -9.4728 C   0  0  0  0  0  0  0  0  0  0  0  0
   50.7809  -44.6328  -10.6092 N   0  0  0  0  0  0  0  0  0  0  0  0
   49.9268  -45.6109   -8.6140 N   0  0  0  0  0  0  0  0  0  0  0  0
   47.3831  -39.9765  -13.3297 N   0  0  0  0  0  0  0  0  0  0  0  0
   47.0697  -38.5449  -13.3072 C   0  0  1  0  0  0  0  0  0  0  0  0
   47.2531  -38.0340  -14.7385 C   0  0  1  0  0  0  0  0  0  0  0  0
   46.5898  -36.7207  -14.9917 C   0  0  0  0  0  0  0  0  0  0  0  0
   48.7297  -37.9883  -15.0783 C   0  0  0  0  0  0  0  0  0  0  0  0
   46.6374  -39.0295  -15.7252 C   0  0  0  0  0  0  0  0  0  0  0  0
   45.6646  -38.3153  -12.9051 C   0  0  0  0  0  0  0  0  0  0  0  0
   44.8877  -39.3220  -12.9899 O   0  0  0  0  0  0  0  0  0  0  0  0
   45.1651  -37.0933  -12.4540 N   0  0  0  0  0  0  0  0  0  0  0  0
   45.6611  -36.2901  -11.3620 C   0  0  2  0  0  0  0  0  0  0  0  0
   44.6196  -36.2086  -10.3144 C   0  0  0  0  0  0  0  0  0  0  0  0
   43.4172  -36.3022  -10.6140 O   0  0  0  0  0  0  0  0  0  0  0  0
   45.9173  -34.8877  -11.8672 C   0  0  0  0  0  0  0  0  0  0  0  0
   47.2867  -34.3911  -11.5087 C   0  0  0  0  0  0  0  0  0  0  0  0
   47.1387  -32.9082  -11.1871 C   0  0  0  0  0  0  0  0  0  0  0  0
   48.4683  -32.2292  -11.0580 C   0  0  0  0  0  0  0  0  0  0  0  0
   48.5268  -31.0711  -11.9235 N   0  0  0  0  0  0  0  0  0  0  0  0
   45.0002  -36.0210   -8.9736 N   0  0  0  0  0  0  0  0  0  0  0  0
   45.6906  -36.9615   -8.1354 C   0  0  0  0  0  0  0  0  0  0  0  0
   44.9572  -37.2765   -6.8699 C   0  0  0  0  0  0  0  0  0  0  0  0
   45.3344  -36.7405   -5.6579 C   0  0  0  0  0  0  0  0  0  0  0  0
   44.6812  -37.0116   -4.4677 C   0  0  0  0  0  0  0  0  0  0  0  0
   43.5921  -37.8599   -4.4668 C   0  0  0  0  0  0  0  0  0  0  0  0
   42.8607  -38.1719   -3.2482 C   0  0  0  0  0  0  0  0  0  0  0  0
   41.9123  -39.2267   -3.2009 N   0  0  0  0  0  0  0  0  0  0  0  0
   43.0459  -37.5007   -2.1464 N   0  0  0  0  0  0  0  0  0  0  0  0
   43.2104  -38.4030   -5.6942 C   0  0  0  0  0  0  0  0  0  0  0  0
   43.8691  -38.1248   -6.8702 C   0  0  0  0  0  0  0  0  0  0  0  0
   49.6482  -30.2013  -11.9724 C   0  0  0  0  0  0  0  0  0  0  0  0
   50.4653  -29.8728  -10.7835 C   0  0  0  0  0  0  0  0  0  0  0  0
   51.5055  -28.8507  -11.1062 C   0  0  0  0  0  0  0  0  0  0  0  0
   52.8149  -29.1036  -10.4070 C   0  0  0  0  0  0  0  0  0  0  0  0
   53.7808  -29.8153  -11.3044 C   0  0  0  0  0  0  0  0  0  0  0  0
   49.9677  -29.6823  -13.0726 O   0  0  0  0  0  0  0  0  0  0  0  0
   54.1422  -29.1841  -12.3555 O   0  0  0  0  0  0  0  0  0  0  0  0
   54.2795  -31.1141  -11.0256 N   0  0  0  0  0  0  0  0  0  0  0  0
   56.7118  -34.7338   -9.4824 C   0  0  0  0  0  0  0  0  0  0  0  0
   55.5835  -33.8653   -9.6496 C   0  0  0  0  0  0  0  0  0  0  0  0
   55.6692  -32.5086   -9.5056 C   0  0  0  0  0  0  0  0  0  0  0  0
   56.8976  -31.9905   -9.1911 C   0  0  0  0  0  0  0  0  0  0  0  0
   58.0070  -32.8604   -9.0281 C   0  0  0  0  0  0  0  0  0  0  0  0
   59.1120  -35.1395   -8.9905 C   0  0  0  0  0  0  0  0  0  0  0  0
   59.1860  -35.6730   -7.5768 C   0  0  0  0  0  0  0  0  0  0  0  0
   59.4847  -34.8642   -6.6695 O   0  0  0  0  0  0  0  0  0  0  0  0
   57.9365  -34.2262   -9.1694 C   0  0  0  0  0  0  0  0  0  0  0  0
   54.4543  -31.6362   -9.6865 C   0  0  0  0  0  0  0  0  0  0  0  0
   49.6900  -36.9196   -5.4727 H   0  0  0  0  0  0  0  0  0  0  0  0
   49.3254  -46.4520   -8.7387 H   0  0  0  0  0  0  0  0  0  0  0  0
   43.6857  -36.7098   -2.0418 H   0  0  0  0  0  0  0  0  0  0  0  0
  2  1  1  6
  3  2  1  0
  2  5  1  0
  3  4  2  0
 10  3  1  0
  5  6  1  0
  6  7  1  0
  7  8  1  0
  8  9  1  0
  9 74  1  0
 11 10  1  0
 12 11  1  0
 11 14  1  1
 12 13  2  0
 21 12  1  0
 14 15  1  0
 15 16  1  0
 16 17  1  0
 17 18  1  0
 18 19  1  0
 18 20  2  0
 22 21  1  0
 23 22  1  0
 22 25  1  1
 23 24  2  0
 32 23  1  0
 25 26  1  0
 26 27  1  0
 27 28  1  0
 28 29  1  0
 29 30  1  0
 29 31  2  0
 33 32  1  6
 33 34  1  0
 38 33  1  0
 34 35  1  1
 34 36  1  0
 34 37  1  0
 38 39  2  0
 40 38  1  0
 41 40  1  0
 41 42  1  1
 44 41  1  0
 42 43  2  0
 42 49  1  0
 45 44  1  0
 46 45  1  0
 47 46  1  0
 48 47  1  0
 60 48  1  0
 49 50  1  0
 50 51  1  0
 51 52  2  0
 51 59  1  0
 52 53  1  0
 53 54  2  0
 54 55  1  0
 58 54  1  0
 55 56  1  0
 55 57  2  0
 59 58  2  0
 61 60  1  0
 60 65  2  0
 62 61  1  0
 63 62  1  0
 64 63  1  0
 64 66  2  0
 67 64  1  0
 77 67  1  0
 69 68  2  0
 68 76  1  0
 70 69  1  0
 70 71  2  0
 70 77  1  0
 71 72  1  0
 72 76  2  0
 74 73  1  0
 73 76  1  0
 74 75  2  0
 20 78  1  0
 31 79  1  0
 57 80  1  0
M  CHG  1   1   1
M  END
$$$$
