
     RDKit          3D

 80 82  0  0  0  0  0  0  0  0999 V2000
   50.9354  -36.7705   -3.9920 N   0  0  0  0  0  4  0  0  0  0  0  0
   50.4105  -35.4329   -3.8090 C   0  0  2  0  0  0  0  0  0  0  0  0
   50.1227  -34.7659   -5.1047 C   0  0  0  0  0  0  0  0  0  0  0  0
   50.4489  -33.5307   -5.1795 O   0  0  0  0  0  0  0  0  0  0  0  0
   51.3747  -34.6282   -2.9746 C   0  0  0  0  0  0  0  0  0  0  0  0
   52.7305  -34.4806   -3.6374 C   0  0  0  0  0  0  0  0  0  0  0  0
   53.7638  -33.9940   -2.6695 C   0  0  0  0  0  0  0  0  0  0  0  0
   55.1657  -34.4002   -3.0620 C   0  0  0  0  0  0  0  0  0  0  0  0
   55.8482  -33.2966   -3.7076 N   0  0  0  0  0  0  0  0  0  0  0  0
   49.5313  -35.3938   -6.2162 N   0  0  0  0  0  0  0  0  0  0  0  0
   48.3680  -36.2807   -6.1465 C   0  0  2  0  0  0  0  0  0  0  0  0
   48.2286  -37.0760   -7.3734 C   0  0  0  0  0  0  0  0  0  0  0  0
   49.3534  -37.5797   -7.7666 O   0  0  0  0  0  0  0  0  0  0  0  0
   47.2076  -35.4976   -5.6822 C   0  0  0  0  0  0  0  0  0  0  0  0
   47.5604  -34.2066   -4.9510 C   0  0  0  0  0  0  0  0  0  0  0  0
   48.8501  -34.3406   -4.1939 C   0  0  0  0  0  0  0  0  0  0  0  0
   49.1935  -33.1878   -3.3978 N   0  0  0  0  0  0  0  0  0  0  0  0
   50.3272  -33.2467   -2.5413 C   0  0  0  0  0  0  0  0  0  0  0  0
   51.5735  -33.7421   -3.0109 N   0  0  0  0  0  0  0  0  0  0  0  0
   50.2778  -32.8608   -1.3108 N   0  0  0  0  0  0  0  0  0  0  0  0
   47.1107  -37.3617   -8.1535 N   0  0  0  0  0  0  0  0  0  0  0  0
   45.8894  -38.0861   -7.7235 C   0  0  2  0  0  0  0  0  0  0  0  0
   46.0768  -39.5410   -8.0183 C   0  0  0  0  0  0  0  0  0  0  0  0
   46.5458  -40.1853   -6.9921 O   0  0  0  0  0  0  0  0  0  0  0  0
   44.7612  -37.4445   -8.4451 C   0  0  0  0  0  0  0  0  0  0  0  0
   43.7102  -36.7502   -7.6923 C   0  0  0  0  0  0  0  0  0  0  0  0
   43.7173  -36.7151   -6.2252 C   0  0  0  0  0  0  0  0  0  0  0  0
   43.4638  -37.9652   -5.5732 N   0  0  0  0  0  0  0  0  0  0  0  0
   43.4315  -38.0638   -4.1313 C   0  0  0  0  0  0  0  0  0  0  0  0
   44.6277  -38.4317   -3.4785 N   0  0  0  0  0  0  0  0  0  0  0  0
   42.3304  -37.8101   -3.5334 N   0  0  0  0  0  0  0  0  0  0  0  0
   45.8132  -40.2183   -9.2050 N   0  0  0  0  0  0  0  0  0  0  0  0
   46.5168  -40.1147  -10.4865 C   0  0  1  0  0  0  0  0  0  0  0  0
   47.1181  -41.4940  -10.7686 C   0  0  1  0  0  0  0  0  0  0  0  0
   47.7121  -41.6171  -12.1327 C   0  0  0  0  0  0  0  0  0  0  0  0
   48.1231  -41.8425   -9.6885 C   0  0  0  0  0  0  0  0  0  0  0  0
   46.0265  -42.5630  -10.6714 C   0  0  0  0  0  0  0  0  0  0  0  0
   45.5795  -39.7804  -11.5813 C   0  0  0  0  0  0  0  0  0  0  0  0
   44.3442  -39.9802  -11.3395 O   0  0  0  0  0  0  0  0  0  0  0  0
   45.9677  -39.2755  -12.8225 N   0  0  0  0  0  0  0  0  0  0  0  0
   46.7686  -38.1032  -13.0832 C   0  0  2  0  0  0  0  0  0  0  0  0
   45.9484  -37.1151  -13.8178 C   0  0  0  0  0  0  0  0  0  0  0  0
   45.5906  -37.3391  -14.9867 O   0  0  0  0  0  0  0  0  0  0  0  0
   47.9269  -38.4941  -13.9739 C   0  0  0  0  0  0  0  0  0  0  0  0
   49.2462  -38.0226  -13.4377 C   0  0  0  0  0  0  0  0  0  0  0  0
   50.0805  -37.6081  -14.6444 C   0  0  0  0  0  0  0  0  0  0  0  0
   51.5104  -37.3547  -14.2746 C   0  0  0  0  0  0  0  0  0  0  0  0
   52.3924  -38.1328  -15.1173 N   0  0  0  0  0  0  0  0  0  0  0  0
   45.5777  -35.9158  -13.1840 N   0  0  0  0  0  0  0  0  0  0  0  0
   46.2403  -35.2883  -12.0745 C   0  0  0  0  0  0  0  0  0  0  0  0
   47.4361  -34.4840  -12.4770 C   0  0  0  0  0  0  0  0  0  0  0  0
   47.9849  -34.5775  -13.7373 C   0  0  0  0  0  0  0  0  0  0  0  0
   49.0914  -33.8509  -14.1430 C   0  0  0  0  0  0  0  0  0  0  0  0
   49.6958  -32.9802  -13.2585 C   0  0  0  0  0  0  0  0  0  0  0  0
   50.8541  -32.1832  -13.6335 C   0  0  0  0  0  0  0  0  0  0  0  0
   50.9600  -31.5850  -14.9162 N   0  0  0  0  0  0  0  0  0  0  0  0
   51.8428  -31.9801  -12.8089 N   0  0  0  0  0  0  0  0  0  0  0  0
   49.1401  -32.8859  -11.9820 C   0  0  0  0  0  0  0  0  0  0  0  0
   48.0394  -33.6143  -11.5919 C   0  0  0  0  0  0  0  0  0  0  0  0
   53.8077  -38.0556  -15.0306 C   0  0  0  0  0  0  0  0  0  0  0  0
   54.5285  -36.8010  -14.7216 C   0  0  0  0  0  0  0  0  0  0  0  0
   56.0076  -36.9907  -14.8065 C   0  0  0  0  0  0  0  0  0  0  0  0
   56.7592  -36.2355  -13.7425 C   0  0  0  0  0  0  0  0  0  0  0  0
   57.0954  -37.1222  -12.5825 C   0  0  0  0  0  0  0  0  0  0  0  0
   54.4865  -39.0965  -15.2243 O   0  0  0  0  0  0  0  0  0  0  0  0
   57.8749  -38.1040  -12.8322 O   0  0  0  0  0  0  0  0  0  0  0  0
   56.5908  -36.9055  -11.2742 N   0  0  0  0  0  0  0  0  0  0  0  0
   55.8960  -35.4779   -6.9292 C   0  0  0  0  0  0  0  0  0  0  0  0
   55.6366  -35.6501   -8.3286 C   0  0  0  0  0  0  0  0  0  0  0  0
   56.5790  -35.4075   -9.2887 C   0  0  0  0  0  0  0  0  0  0  0  0
   57.8108  -34.9865   -8.8624 C   0  0  0  0  0  0  0  0  0  0  0  0
   58.0554  -34.8199   -7.4744 C   0  0  0  0  0  0  0  0  0  0  0  0
   57.3825  -34.8760   -5.0330 C   0  0  0  0  0  0  0  0  0  0  0  0
   56.9606  -33.5010   -4.5643 C   0  0  0  0  0  0  0  0  0  0  0  0
   57.6342  -32.5238   -4.9619 O   0  0  0  0  0  0  0  0  0  0  0  0
   57.1182  -35.0595   -6.4974 C   0  0  0  0  0  0  0  0  0  0  0  0
   56.2586  -35.5980  -10.7485 C   0  0  0  0  0  0  0  0  0  0  0  0
   50.3662  -31.8702   -1.0218 H   0  0  0  0  0  0  0  0  0  0  0  0
   41.4094  -37.9613   -3.9953 H   0  0  0  0  0  0  0  0  0  0  0  0
   52.1067  -31.0709  -12.4221 H   0  0  0  0  0  0  0  0  0  0  0  0
  2  1  1  6
  3  2  1  0
  2  5  1  0
  3  4  2  0
 10  3  1  0
  5  6  1  0
  6  7  1  0
  7  8  1  0
  8  9  1  0
  9 74  1  0
 11 10  1  0
 12 11  1  0
 11 14  1  6
 12 13  2  0
 21 12  1  0
 14 15  1  0
 15 16  1  0
 16 17  1  0
 17 18  1  0
 18 19  1  0
 18 20  2  0
 22 21  1  0
 23 22  1  0
 22 25  1  6
 23 24  2  0
 32 23  1  0
 25 26  1  0
 26 27  1  0
 27 28  1  0
 28 29  1  0
 29 30  1  0
 29 31  2  0
 33 32  1  1
 33 34  1  0
 38 33  1  0
 34 35  1  6
 34 36  1  0
 34 37  1  0
 38 39  2  0
 40 38  1  0
 41 40  1  0
 41 42  1  6
 44 41  1  0
 42 43  2  0
 42 49  1  0
 45 44  1  0
 46 45  1  0
 47 46  1  0
 48 47  1  0
 60 48  1  0
 49 50  1  0
 50 51  1  0
 51 52  2  0
 51 59  1  0
 52 53  1  0
 53 54  2  0
 54 55  1  0
 58 54  1  0
 55 56  1  0
 55 57  2  0
 59 58  2  0
 61 60  1  0
 60 65  2  0
 62 61  1  0
 63 62  1  0
 64 63  1  0
 64 66  2  0
 67 64  1  0
 77 67  1  0
 69 68  2  0
 68 76  1  0
 70 69  1  0
 70 71  2  0
 70 77  1  0
 71 72  1  0
 72 76  2  0
 74 73  1  0
 73 76  1  0
 74 75  2  0
 20 78  1  0
 31 79  1  0
 57 80  1  0
M  CHG  1   1   1
M  END
$$$$
