
     RDKit          3D

 80 82  0  0  0  0  0  0  0  0999 V2000
   53.6845  -31.5829   -7.7404 N   0  0  0  0  0  4  0  0  0  0  0  0
   54.7841  -32.4445   -8.1233 C   0  0  2  0  0  0  0  0  0  0  0  0
   54.4861  -33.8763   -7.8626 C   0  0  0  0  0  0  0  0  0  0  0  0
   55.4489  -34.5660   -7.3777 O   0  0  0  0  0  0  0  0  0  0  0  0
   56.0369  -32.0015   -7.4107 C   0  0  0  0  0  0  0  0  0  0  0  0
   55.9096  -32.0966   -5.9028 C   0  0  0  0  0  0  0  0  0  0  0  0
   57.0020  -31.3411   -5.2117 C   0  0  0  0  0  0  0  0  0  0  0  0
   56.6097  -30.8908   -3.8233 C   0  0  0  0  0  0  0  0  0  0  0  0
   57.1641  -31.7862   -2.8276 N   0  0  0  0  0  0  0  0  0  0  0  0
   53.2477  -34.4959   -8.1108 N   0  0  0  0  0  0  0  0  0  0  0  0
   52.4566  -34.3107   -9.3293 C   0  0  2  0  0  0  0  0  0  0  0  0
   51.0697  -34.7551   -9.1382 C   0  0  0  0  0  0  0  0  0  0  0  0
   50.5678  -34.3421   -8.0198 O   0  0  0  0  0  0  0  0  0  0  0  0
   53.2169  -34.8545  -10.4701 C   0  0  0  0  0  0  0  0  0  0  0  0
   54.2754  -35.8872  -10.0972 C   0  0  0  0  0  0  0  0  0  0  0  0
   53.9760  -36.5244   -8.7710 C   0  0  0  0  0  0  0  0  0  0  0  0
   53.2630  -37.7751   -8.8611 N   0  0  0  0  0  0  0  0  0  0  0  0
   52.8120  -38.4060   -7.6691 C   0  0  0  0  0  0  0  0  0  0  0  0
   53.7344  -38.8615   -6.6889 N   0  0  0  0  0  0  0  0  0  0  0  0
   51.5590  -38.5956   -7.4253 N   0  0  0  0  0  0  0  0  0  0  0  0
   50.2394  -35.5271   -9.9471 N   0  0  0  0  0  0  0  0  0  0  0  0
   49.7880  -35.2025  -11.3227 C   0  0  2  0  0  0  0  0  0  0  0  0
   48.4886  -34.4666  -11.2303 C   0  0  0  0  0  0  0  0  0  0  0  0
   48.6619  -33.1789  -11.2270 O   0  0  0  0  0  0  0  0  0  0  0  0
   49.7201  -36.4986  -12.0445 C   0  0  0  0  0  0  0  0  0  0  0  0
   50.2392  -36.6031  -13.4131 C   0  0  0  0  0  0  0  0  0  0  0  0
   50.3563  -35.4235  -14.2781 C   0  0  0  0  0  0  0  0  0  0  0  0
   51.5815  -34.6898  -14.1648 N   0  0  0  0  0  0  0  0  0  0  0  0
   51.7680  -33.4339  -14.8560 C   0  0  0  0  0  0  0  0  0  0  0  0
   52.7592  -32.5602  -14.3593 N   0  0  0  0  0  0  0  0  0  0  0  0
   51.0328  -33.1893  -15.8728 N   0  0  0  0  0  0  0  0  0  0  0  0
   47.2043  -34.9967  -11.1539 N   0  0  0  0  0  0  0  0  0  0  0  0
   46.5894  -35.7337  -10.0462 C   0  0  1  0  0  0  0  0  0  0  0  0
   45.4058  -34.8913   -9.5634 C   0  0  1  0  0  0  0  0  0  0  0  0
   44.6938  -35.4810   -8.3912 C   0  0  0  0  0  0  0  0  0  0  0  0
   45.8692  -33.4758   -9.2808 C   0  0  0  0  0  0  0  0  0  0  0  0
   44.3699  -34.7661  -10.6837 C   0  0  0  0  0  0  0  0  0  0  0  0
   46.0758  -37.0444  -10.5009 C   0  0  0  0  0  0  0  0  0  0  0  0
   45.9203  -37.1776  -11.7588 O   0  0  0  0  0  0  0  0  0  0  0  0
   45.7633  -38.1050   -9.6501 N   0  0  0  0  0  0  0  0  0  0  0  0
   46.6196  -38.7254   -8.6675 C   0  0  2  0  0  0  0  0  0  0  0  0
   46.8521  -40.1343   -9.0545 C   0  0  0  0  0  0  0  0  0  0  0  0
   47.2302  -40.9644   -8.2105 O   0  0  0  0  0  0  0  0  0  0  0  0
   45.9077  -38.7255   -7.3330 C   0  0  0  0  0  0  0  0  0  0  0  0
   46.7594  -38.1710   -6.2296 C   0  0  0  0  0  0  0  0  0  0  0  0
   46.4496  -38.9977   -4.9868 C   0  0  0  0  0  0  0  0  0  0  0  0
   47.0420  -38.3919   -3.7508 C   0  0  0  0  0  0  0  0  0  0  0  0
   46.0226  -38.2183   -2.7386 N   0  0  0  0  0  0  0  0  0  0  0  0
   46.6446  -40.5287  -10.3883 N   0  0  0  0  0  0  0  0  0  0  0  0
   45.6428  -40.0278  -11.2879 C   0  0  0  0  0  0  0  0  0  0  0  0
   46.1932  -39.1162  -12.3389 C   0  0  0  0  0  0  0  0  0  0  0  0
   45.4317  -38.6933  -13.4065 C   0  0  0  0  0  0  0  0  0  0  0  0
   45.9084  -37.8528  -14.3979 C   0  0  0  0  0  0  0  0  0  0  0  0
   47.2111  -37.3999  -14.3381 C   0  0  0  0  0  0  0  0  0  0  0  0
   47.7621  -36.5064  -15.3458 C   0  0  0  0  0  0  0  0  0  0  0  0
   46.9286  -35.6647  -16.1276 N   0  0  0  0  0  0  0  0  0  0  0  0
   49.0436  -36.4360  -15.5729 N   0  0  0  0  0  0  0  0  0  0  0  0
   47.9825  -37.8285  -13.2572 C   0  0  0  0  0  0  0  0  0  0  0  0
   47.4955  -38.6645  -12.2783 C   0  0  0  0  0  0  0  0  0  0  0  0
   46.3028  -37.7134   -1.4413 C   0  0  0  0  0  0  0  0  0  0  0  0
   47.5607  -38.0035   -0.7183 C   0  0  0  0  0  0  0  0  0  0  0  0
   47.5344  -37.4377    0.6637 C   0  0  0  0  0  0  0  0  0  0  0  0
   48.8629  -36.8738    1.0933 C   0  0  0  0  0  0  0  0  0  0  0  0
   48.9116  -35.3893    0.8966 C   0  0  0  0  0  0  0  0  0  0  0  0
   45.4477  -36.9861   -0.8741 O   0  0  0  0  0  0  0  0  0  0  0  0
   48.0808  -34.7030    1.5841 O   0  0  0  0  0  0  0  0  0  0  0  0
   49.8177  -34.7584    0.0052 N   0  0  0  0  0  0  0  0  0  0  0  0
   53.4983  -32.7535   -1.9525 C   0  0  0  0  0  0  0  0  0  0  0  0
   52.4818  -33.7408   -1.7354 C   0  0  0  0  0  0  0  0  0  0  0  0
   52.1996  -34.2494   -0.4983 C   0  0  0  0  0  0  0  0  0  0  0  0
   52.9345  -33.7732    0.5551 C   0  0  0  0  0  0  0  0  0  0  0  0
   53.9381  -32.7958    0.3276 C   0  0  0  0  0  0  0  0  0  0  0  0
   55.2990  -31.2466   -1.1435 C   0  0  0  0  0  0  0  0  0  0  0  0
   56.6139  -31.8908   -1.5239 C   0  0  0  0  0  0  0  0  0  0  0  0
   57.2188  -32.5350   -0.6374 O   0  0  0  0  0  0  0  0  0  0  0  0
   54.2335  -32.2752   -0.9102 C   0  0  0  0  0  0  0  0  0  0  0  0
   51.1247  -35.2899   -0.3196 C   0  0  0  0  0  0  0  0  0  0  0  0
   50.8090  -38.3855   -8.1079 H   0  0  0  0  0  0  0  0  0  0  0  0
   50.4009  -33.9115  -16.2776 H   0  0  0  0  0  0  0  0  0  0  0  0
   49.7005  -35.8506  -15.0516 H   0  0  0  0  0  0  0  0  0  0  0  0
  2  1  1  1
  3  2  1  0
  2  5  1  0
  3  4  2  0
 10  3  1  0
  5  6  1  0
  6  7  1  0
  7  8  1  0
  8  9  1  0
  9 74  1  0
 11 10  1  0
 12 11  1  0
 11 14  1  6
 12 13  2  0
 21 12  1  0
 14 15  1  0
 15 16  1  0
 16 17  1  0
 17 18  1  0
 18 19  1  0
 18 20  2  0
 22 21  1  0
 23 22  1  0
 22 25  1  6
 23 24  2  0
 32 23  1  0
 25 26  1  0
 26 27  1  0
 27 28  1  0
 28 29  1  0
 29 30  1  0
 29 31  2  0
 33 32  1  6
 33 34  1  0
 38 33  1  0
 34 35  1  1
 34 36  1  0
 34 37  1  0
 38 39  2  0
 40 38  1  0
 41 40  1  0
 41 42  1  6
 44 41  1  0
 42 43  2  0
 42 49  1  0
 45 44  1  0
 46 45  1  0
 47 46  1  0
 48 47  1  0
 60 48  1  0
 49 50  1  0
 50 51  1  0
 51 52  2  0
 51 59  1  0
 52 53  1  0
 53 54  2  0
 54 55  1  0
 58 54  1  0
 55 56  1  0
 55 57  2  0
 59 58  2  0
 61 60  1  0
 60 65  2  0
 62 61  1  0
 63 62  1  0
 64 63  1  0
 64 66  2  0
 67 64  1  0
 77 67  1  0
 69 68  2  0
 68 76  1  0
 70 69  1  0
 70 71  2  0
 70 77  1  0
 71 72  1  0
 72 76  2  0
 74 73  1  0
 73 76  1  0
 74 75  2  0
 20 78  1  0
 31 79  1  0
 57 80  1  0
M  CHG  1   1   1
M  END
$$$$
