
     RDKit          3D

 80 82  0  0  0  0  0  0  0  0999 V2000
   54.5366  -37.4426   -4.9009 N   0  0  0  0  0  4  0  0  0  0  0  0
   53.9498  -36.5248   -3.9462 C   0  0  2  0  0  0  0  0  0  0  0  0
   53.0082  -35.5754   -4.5934 C   0  0  0  0  0  0  0  0  0  0  0  0
   53.0688  -34.3647   -4.1832 O   0  0  0  0  0  0  0  0  0  0  0  0
   55.0484  -35.7996   -3.2109 C   0  0  0  0  0  0  0  0  0  0  0  0
   55.9174  -34.9722   -4.1379 C   0  0  0  0  0  0  0  0  0  0  0  0
   57.1865  -34.5480   -3.4663 C   0  0  0  0  0  0  0  0  0  0  0  0
   58.3043  -34.2836   -4.4486 C   0  0  0  0  0  0  0  0  0  0  0  0
   58.4406  -32.8604   -4.6859 N   0  0  0  0  0  0  0  0  0  0  0  0
   52.0846  -35.9205   -5.5970 N   0  0  0  0  0  0  0  0  0  0  0  0
   51.2320  -37.1109   -5.5663 C   0  0  2  0  0  0  0  0  0  0  0  0
   50.6795  -37.4063   -6.8947 C   0  0  0  0  0  0  0  0  0  0  0  0
   51.5687  -37.3203   -7.8304 O   0  0  0  0  0  0  0  0  0  0  0  0
   50.3002  -36.9919   -4.4293 C   0  0  0  0  0  0  0  0  0  0  0  0
   50.7540  -36.0378   -3.3294 C   0  0  0  0  0  0  0  0  0  0  0  0
   51.1208  -34.6930   -3.8877 C   0  0  0  0  0  0  0  0  0  0  0  0
   52.1347  -33.9949   -3.1358 N   0  0  0  0  0  0  0  0  0  0  0  0
   52.2546  -32.5845   -3.2728 C   0  0  0  0  0  0  0  0  0  0  0  0
   53.4443  -31.9979   -3.7822 N   0  0  0  0  0  0  0  0  0  0  0  0
   51.3015  -31.7798   -2.9418 N   0  0  0  0  0  0  0  0  0  0  0  0
   49.3897  -37.7524   -7.2901 N   0  0  0  0  0  0  0  0  0  0  0  0
   48.6235  -38.9513   -6.8695 C   0  0  2  0  0  0  0  0  0  0  0  0
   48.8816  -40.0451   -7.8572 C   0  0  0  0  0  0  0  0  0  0  0  0
   49.8572  -40.8160   -7.4803 O   0  0  0  0  0  0  0  0  0  0  0  0
   47.2066  -38.5163   -6.7777 C   0  0  0  0  0  0  0  0  0  0  0  0
   46.7156  -37.8729   -5.5536 C   0  0  0  0  0  0  0  0  0  0  0  0
   47.2764  -38.2038   -4.2385 C   0  0  0  0  0  0  0  0  0  0  0  0
   46.5782  -37.6610   -3.1115 N   0  0  0  0  0  0  0  0  0  0  0  0
   46.9733  -37.9860   -1.7594 C   0  0  0  0  0  0  0  0  0  0  0  0
   47.6395  -39.2136   -1.5548 N   0  0  0  0  0  0  0  0  0  0  0  0
   46.7024  -37.1476   -0.8333 N   0  0  0  0  0  0  0  0  0  0  0  0
   48.2198  -40.2948   -9.0555 N   0  0  0  0  0  0  0  0  0  0  0  0
   48.2433  -39.5037  -10.2891 C   0  0  1  0  0  0  0  0  0  0  0  0
   48.8590  -40.3960  -11.3699 C   0  0  1  0  0  0  0  0  0  0  0  0
   48.5534  -39.9451  -12.7599 C   0  0  0  0  0  0  0  0  0  0  0  0
   50.3521  -40.5201  -11.1388 C   0  0  0  0  0  0  0  0  0  0  0  0
   48.3062  -41.8179  -11.2424 C   0  0  0  0  0  0  0  0  0  0  0  0
   46.8736  -39.1362  -10.7104 C   0  0  0  0  0  0  0  0  0  0  0  0
   45.9285  -39.8162  -10.1920 O   0  0  0  0  0  0  0  0  0  0  0  0
   46.5757  -38.1180  -11.6164 N   0  0  0  0  0  0  0  0  0  0  0  0
   46.9792  -36.7338  -11.5470 C   0  0  2  0  0  0  0  0  0  0  0  0
   45.7731  -35.8887  -11.4063 C   0  0  0  0  0  0  0  0  0  0  0  0
   44.7623  -36.1156  -12.0928 O   0  0  0  0  0  0  0  0  0  0  0  0
   47.6556  -36.3589  -12.8468 C   0  0  0  0  0  0  0  0  0  0  0  0
   48.9835  -35.6951  -12.6308 C   0  0  0  0  0  0  0  0  0  0  0  0
   49.1072  -34.6165  -13.7010 C   0  0  0  0  0  0  0  0  0  0  0  0
   50.4911  -34.0446  -13.7604 C   0  0  0  0  0  0  0  0  0  0  0  0
   51.0068  -34.1171  -15.1104 N   0  0  0  0  0  0  0  0  0  0  0  0
   45.7789  -34.8218  -10.4902 N   0  0  0  0  0  0  0  0  0  0  0  0
   45.9958  -34.9060   -9.0726 C   0  0  0  0  0  0  0  0  0  0  0  0
   44.8321  -35.4815   -8.3287 C   0  0  0  0  0  0  0  0  0  0  0  0
   44.0302  -34.7059   -7.5200 C   0  0  0  0  0  0  0  0  0  0  0  0
   42.9478  -35.2048   -6.8157 C   0  0  0  0  0  0  0  0  0  0  0  0
   42.6333  -36.5456   -6.9105 C   0  0  0  0  0  0  0  0  0  0  0  0
   41.5009  -37.1224   -6.2016 C   0  0  0  0  0  0  0  0  0  0  0  0
   41.4349  -38.5102   -5.9121 N   0  0  0  0  0  0  0  0  0  0  0  0
   40.4999  -36.3915   -5.7983 N   0  0  0  0  0  0  0  0  0  0  0  0
   43.4457  -37.3311   -7.7291 C   0  0  0  0  0  0  0  0  0  0  0  0
   44.5190  -36.8218   -8.4240 C   0  0  0  0  0  0  0  0  0  0  0  0
   52.2774  -33.6012  -15.4788 C   0  0  0  0  0  0  0  0  0  0  0  0
   52.8549  -32.3782  -14.8788 C   0  0  0  0  0  0  0  0  0  0  0  0
   54.1456  -32.0104  -15.5343 C   0  0  0  0  0  0  0  0  0  0  0  0
   55.1687  -31.4833  -14.5634 C   0  0  0  0  0  0  0  0  0  0  0  0
   56.1258  -32.5580  -14.1466 C   0  0  0  0  0  0  0  0  0  0  0  0
   52.9484  -34.2052  -16.3544 O   0  0  0  0  0  0  0  0  0  0  0  0
   56.8508  -33.0564  -15.0739 O   0  0  0  0  0  0  0  0  0  0  0  0
   56.2393  -33.0132  -12.8074 N   0  0  0  0  0  0  0  0  0  0  0  0
   57.3680  -33.5766   -8.3568 C   0  0  0  0  0  0  0  0  0  0  0  0
   56.5352  -33.3092   -9.4927 C   0  0  0  0  0  0  0  0  0  0  0  0
   56.8920  -32.4322  -10.4787 C   0  0  0  0  0  0  0  0  0  0  0  0
   58.1012  -31.8024  -10.3467 C   0  0  0  0  0  0  0  0  0  0  0  0
   58.9168  -32.0754   -9.2178 C   0  0  0  0  0  0  0  0  0  0  0  0
   59.4364  -33.2335   -7.0257 C   0  0  0  0  0  0  0  0  0  0  0  0
   59.0632  -32.3513   -5.8549 C   0  0  0  0  0  0  0  0  0  0  0  0
   59.3233  -31.1304   -5.9462 O   0  0  0  0  0  0  0  0  0  0  0  0
   58.5717  -32.9541   -8.2182 C   0  0  0  0  0  0  0  0  0  0  0  0
   55.9812  -32.1797  -11.6520 C   0  0  0  0  0  0  0  0  0  0  0  0
   50.3448  -32.0985   -2.7056 H   0  0  0  0  0  0  0  0  0  0  0  0
   47.3068  -37.0485    0.0091 H   0  0  0  0  0  0  0  0  0  0  0  0
   40.4898  -35.3690   -5.7805 H   0  0  0  0  0  0  0  0  0  0  0  0
  2  1  1  6
  3  2  1  0
  2  5  1  0
  3  4  2  0
 10  3  1  0
  5  6  1  0
  6  7  1  0
  7  8  1  0
  8  9  1  0
  9 74  1  0
 11 10  1  0
 12 11  1  0
 11 14  1  1
 12 13  2  0
 21 12  1  0
 14 15  1  0
 15 16  1  0
 16 17  1  0
 17 18  1  0
 18 19  1  0
 18 20  2  0
 22 21  1  0
 23 22  1  0
 22 25  1  6
 23 24  2  0
 32 23  1  0
 25 26  1  0
 26 27  1  0
 27 28  1  0
 28 29  1  0
 29 30  1  0
 29 31  2  0
 33 32  1  1
 33 34  1  0
 38 33  1  0
 34 35  1  6
 34 36  1  0
 34 37  1  0
 38 39  2  0
 40 38  1  0
 41 40  1  0
 41 42  1  6
 44 41  1  0
 42 43  2  0
 42 49  1  0
 45 44  1  0
 46 45  1  0
 47 46  1  0
 48 47  1  0
 60 48  1  0
 49 50  1  0
 50 51  1  0
 51 52  2  0
 51 59  1  0
 52 53  1  0
 53 54  2  0
 54 55  1  0
 58 54  1  0
 55 56  1  0
 55 57  2  0
 59 58  2  0
 61 60  1  0
 60 65  2  0
 62 61  1  0
 63 62  1  0
 64 63  1  0
 64 66  2  0
 67 64  1  0
 77 67  1  0
 69 68  2  0
 68 76  1  0
 70 69  1  0
 70 71  2  0
 70 77  1  0
 71 72  1  0
 72 76  2  0
 74 73  1  0
 73 76  1  0
 74 75  2  0
 20 78  1  0
 31 79  1  0
 57 80  1  0
M  CHG  1   1   1
M  END
$$$$
