
     RDKit          3D

 80 82  0  0  0  0  0  0  0  0999 V2000
   54.9276  -36.2542  -11.5662 N   0  0  0  0  0  4  0  0  0  0  0  0
   55.2487  -37.6250  -11.2258 C   0  0  2  0  0  0  0  0  0  0  0  0
   54.4600  -38.1093  -10.0638 C   0  0  0  0  0  0  0  0  0  0  0  0
   55.1008  -38.8181   -9.2127 O   0  0  0  0  0  0  0  0  0  0  0  0
   56.7310  -37.7433  -10.9762 C   0  0  0  0  0  0  0  0  0  0  0  0
   57.1932  -36.8834   -9.8160 C   0  0  0  0  0  0  0  0  0  0  0  0
   58.6833  -36.7388   -9.8003 C   0  0  0  0  0  0  0  0  0  0  0  0
   59.1380  -35.4747   -9.1076 C   0  0  0  0  0  0  0  0  0  0  0  0
   59.5664  -35.7677   -7.7544 N   0  0  0  0  0  0  0  0  0  0  0  0
   53.0947  -37.8423   -9.8539 N   0  0  0  0  0  0  0  0  0  0  0  0
   52.0631  -37.9305  -10.8896 C   0  0  2  0  0  0  0  0  0  0  0  0
   50.8375  -37.2302  -10.4835 C   0  0  0  0  0  0  0  0  0  0  0  0
   51.0796  -36.0701   -9.9649 O   0  0  0  0  0  0  0  0  0  0  0  0
   51.9566  -39.3347  -11.3280 C   0  0  0  0  0  0  0  0  0  0  0  0
   52.5623  -40.3512  -10.3659 C   0  0  0  0  0  0  0  0  0  0  0  0
   52.5641  -39.8369   -8.9552 C   0  0  0  0  0  0  0  0  0  0  0  0
   52.4750  -38.4013   -8.8468 N   0  0  0  0  0  0  0  0  0  0  0  0
   52.5893  -37.7920   -7.5670 C   0  0  0  0  0  0  0  0  0  0  0  0
   53.3760  -36.6234   -7.3811 N   0  0  0  0  0  0  0  0  0  0  0  0
   51.9938  -38.2674   -6.5254 N   0  0  0  0  0  0  0  0  0  0  0  0
   49.4999  -37.6093  -10.5666 N   0  0  0  0  0  0  0  0  0  0  0  0
   48.7382  -37.9129  -11.8031 C   0  0  2  0  0  0  0  0  0  0  0  0
   48.0842  -36.6525  -12.2745 C   0  0  0  0  0  0  0  0  0  0  0  0
   48.8142  -36.0273  -13.1489 O   0  0  0  0  0  0  0  0  0  0  0  0
   47.7987  -39.0054  -11.4436 C   0  0  0  0  0  0  0  0  0  0  0  0
   46.6857  -39.3392  -12.3399 C   0  0  0  0  0  0  0  0  0  0  0  0
   46.6831  -40.5780  -13.1265 C   0  0  0  0  0  0  0  0  0  0  0  0
   45.9864  -41.6840  -12.5403 N   0  0  0  0  0  0  0  0  0  0  0  0
   46.6508  -42.9460  -12.3036 C   0  0  0  0  0  0  0  0  0  0  0  0
   46.4871  -43.5377  -11.0325 N   0  0  0  0  0  0  0  0  0  0  0  0
   47.3406  -43.4526  -13.2532 N   0  0  0  0  0  0  0  0  0  0  0  0
   46.8544  -36.1268  -11.8905 N   0  0  0  0  0  0  0  0  0  0  0  0
   46.4745  -35.5548  -10.5956 C   0  0  1  0  0  0  0  0  0  0  0  0
   46.1183  -34.0883  -10.8524 C   0  0  1  0  0  0  0  0  0  0  0  0
   45.2109  -33.5061   -9.8196 C   0  0  0  0  0  0  0  0  0  0  0  0
   47.3881  -33.2740  -11.0027 C   0  0  0  0  0  0  0  0  0  0  0  0
   45.3900  -33.9607  -12.1929 C   0  0  0  0  0  0  0  0  0  0  0  0
   45.2828  -36.2357  -10.0435 C   0  0  0  0  0  0  0  0  0  0  0  0
   44.5925  -36.9138  -10.8730 O   0  0  0  0  0  0  0  0  0  0  0  0
   44.8905  -36.1739   -8.7061 N   0  0  0  0  0  0  0  0  0  0  0  0
   45.6790  -36.5026   -7.5426 C   0  0  2  0  0  0  0  0  0  0  0  0
   45.0604  -37.6566   -6.8539 C   0  0  0  0  0  0  0  0  0  0  0  0
   43.9771  -37.5273   -6.2587 O   0  0  0  0  0  0  0  0  0  0  0  0
   45.6520  -35.3285   -6.5895 C   0  0  0  0  0  0  0  0  0  0  0  0
   47.0252  -34.9223   -6.1422 C   0  0  0  0  0  0  0  0  0  0  0  0
   46.9000  -34.5123   -4.6792 C   0  0  0  0  0  0  0  0  0  0  0  0
   48.1447  -33.8453   -4.1776 C   0  0  0  0  0  0  0  0  0  0  0  0
   47.8243  -32.5641   -3.5864 N   0  0  0  0  0  0  0  0  0  0  0  0
   45.7096  -38.9039   -6.8745 N   0  0  0  0  0  0  0  0  0  0  0  0
   47.1243  -39.1363   -6.9654 C   0  0  0  0  0  0  0  0  0  0  0  0
   47.8981  -38.5266   -5.8393 C   0  0  0  0  0  0  0  0  0  0  0  0
   47.2840  -37.7915   -4.8489 C   0  0  0  0  0  0  0  0  0  0  0  0
   47.9681  -37.2114   -3.7943 C   0  0  0  0  0  0  0  0  0  0  0  0
   49.3376  -37.3617   -3.7063 C   0  0  0  0  0  0  0  0  0  0  0  0
   50.1066  -36.7838   -2.6145 C   0  0  0  0  0  0  0  0  0  0  0  0
   49.8549  -35.4687   -2.1437 N   0  0  0  0  0  0  0  0  0  0  0  0
   51.0568  -37.4475   -2.0185 N   0  0  0  0  0  0  0  0  0  0  0  0
   49.9595  -38.1059   -4.7096 C   0  0  0  0  0  0  0  0  0  0  0  0
   49.2668  -38.6773   -5.7526 C   0  0  0  0  0  0  0  0  0  0  0  0
   48.8000  -31.7298   -2.9793 C   0  0  0  0  0  0  0  0  0  0  0  0
   49.9538  -32.2604   -2.2203 C   0  0  0  0  0  0  0  0  0  0  0  0
   50.7489  -31.1578   -1.6015 C   0  0  0  0  0  0  0  0  0  0  0  0
   52.2328  -31.4107   -1.6387 C   0  0  0  0  0  0  0  0  0  0  0  0
   52.8740  -30.7090   -2.7969 C   0  0  0  0  0  0  0  0  0  0  0  0
   48.6850  -30.4820   -3.0870 O   0  0  0  0  0  0  0  0  0  0  0  0
   52.8079  -29.4325   -2.7881 O   0  0  0  0  0  0  0  0  0  0  0  0
   53.5228  -31.3988   -3.8537 N   0  0  0  0  0  0  0  0  0  0  0  0
   56.5710  -33.5942   -6.5533 C   0  0  0  0  0  0  0  0  0  0  0  0
   55.3998  -33.4128   -5.7467 C   0  0  0  0  0  0  0  0  0  0  0  0
   55.4404  -32.8426   -4.5049 C   0  0  0  0  0  0  0  0  0  0  0  0
   56.6649  -32.4373   -4.0437 C   0  0  0  0  0  0  0  0  0  0  0  0
   57.8171  -32.6223   -4.8515 C   0  0  0  0  0  0  0  0  0  0  0  0
   59.0146  -33.3909   -6.9471 C   0  0  0  0  0  0  0  0  0  0  0  0
   59.6071  -34.7685   -6.7478 C   0  0  0  0  0  0  0  0  0  0  0  0
   60.1469  -35.0107   -5.6448 O   0  0  0  0  0  0  0  0  0  0  0  0
   57.7922  -33.1940   -6.1016 C   0  0  0  0  0  0  0  0  0  0  0  0
   54.1832  -32.6770   -3.6915 C   0  0  0  0  0  0  0  0  0  0  0  0
   52.2201  -37.9746   -5.5582 H   0  0  0  0  0  0  0  0  0  0  0  0
   47.0118  -43.4292  -14.2411 H   0  0  0  0  0  0  0  0  0  0  0  0
   50.9939  -38.4248   -1.7238 H   0  0  0  0  0  0  0  0  0  0  0  0
  2  1  1  1
  3  2  1  0
  2  5  1  0
  3  4  2  0
 10  3  1  0
  5  6  1  0
  6  7  1  0
  7  8  1  0
  8  9  1  0
  9 74  1  0
 11 10  1  0
 12 11  1  0
 11 14  1  1
 12 13  2  0
 21 12  1  0
 14 15  1  0
 15 16  1  0
 16 17  1  0
 17 18  1  0
 18 19  1  0
 18 20  2  0
 22 21  1  0
 23 22  1  0
 22 25  1  1
 23 24  2  0
 32 23  1  0
 25 26  1  0
 26 27  1  0
 27 28  1  0
 28 29  1  0
 29 30  1  0
 29 31  2  0
 33 32  1  6
 33 34  1  0
 38 33  1  0
 34 35  1  1
 34 36  1  0
 34 37  1  0
 38 39  2  0
 40 38  1  0
 41 40  1  0
 41 42  1  1
 44 41  1  0
 42 43  2  0
 42 49  1  0
 45 44  1  0
 46 45  1  0
 47 46  1  0
 48 47  1  0
 60 48  1  0
 49 50  1  0
 50 51  1  0
 51 52  2  0
 51 59  1  0
 52 53  1  0
 53 54  2  0
 54 55  1  0
 58 54  1  0
 55 56  1  0
 55 57  2  0
 59 58  2  0
 61 60  1  0
 60 65  2  0
 62 61  1  0
 63 62  1  0
 64 63  1  0
 64 66  2  0
 67 64  1  0
 77 67  1  0
 69 68  2  0
 68 76  1  0
 70 69  1  0
 70 71  2  0
 70 77  1  0
 71 72  1  0
 72 76  2  0
 74 73  1  0
 73 76  1  0
 74 75  2  0
 20 78  1  0
 31 79  1  0
 57 80  1  0
M  CHG  1   1   1
M  END
$$$$
