
     RDKit          3D

 80 82  0  0  0  0  0  0  0  0999 V2000
   52.2625  -36.5981   -2.8861 N   0  0  0  0  0  4  0  0  0  0  0  0
   51.4431  -35.4856   -2.4514 C   0  0  2  0  0  0  0  0  0  0  0  0
   51.0260  -34.6242   -3.5875 C   0  0  0  0  0  0  0  0  0  0  0  0
   51.0615  -33.3633   -3.3724 O   0  0  0  0  0  0  0  0  0  0  0  0
   52.1872  -34.6971   -1.4035 C   0  0  0  0  0  0  0  0  0  0  0  0
   53.4811  -34.1089   -1.9317 C   0  0  0  0  0  0  0  0  0  0  0  0
   54.3637  -33.6372   -0.8181 C   0  0  0  0  0  0  0  0  0  0  0  0
   55.8260  -33.6253   -1.2000 C   0  0  0  0  0  0  0  0  0  0  0  0
   56.2454  -32.2820   -1.5470 N   0  0  0  0  0  0  0  0  0  0  0  0
   50.6077  -35.1003   -4.8436 N   0  0  0  0  0  0  0  0  0  0  0  0
   49.6776  -36.2142   -5.0411 C   0  0  2  0  0  0  0  0  0  0  0  0
   49.7390  -36.7235   -6.4174 C   0  0  0  0  0  0  0  0  0  0  0  0
   50.9539  -36.8649   -6.8385 O   0  0  0  0  0  0  0  0  0  0  0  0
   48.3631  -35.8314   -4.4924 C   0  0  0  0  0  0  0  0  0  0  0  0
   48.1973  -34.3411   -4.2144 C   0  0  0  0  0  0  0  0  0  0  0  0
   49.3799  -33.5571   -4.7057 C   0  0  0  0  0  0  0  0  0  0  0  0
   49.3171  -32.1452   -4.4174 N   0  0  0  0  0  0  0  0  0  0  0  0
   49.3876  -31.7074   -3.0663 C   0  0  0  0  0  0  0  0  0  0  0  0
   50.6066  -31.7728   -2.3391 N   0  0  0  0  0  0  0  0  0  0  0  0
   48.3596  -31.2385   -2.4428 N   0  0  0  0  0  0  0  0  0  0  0  0
   48.7258  -37.0654   -7.3098 N   0  0  0  0  0  0  0  0  0  0  0  0
   47.6977  -38.1190   -7.1248 C   0  0  2  0  0  0  0  0  0  0  0  0
   48.2169  -39.3921   -7.7151 C   0  0  0  0  0  0  0  0  0  0  0  0
   48.8084  -40.1312   -6.8253 O   0  0  0  0  0  0  0  0  0  0  0  0
   46.4614  -37.5964   -7.7601 C   0  0  0  0  0  0  0  0  0  0  0  0
   45.2346  -37.4534   -6.9676 C   0  0  0  0  0  0  0  0  0  0  0  0
   45.2795  -37.0663   -5.5528 C   0  0  0  0  0  0  0  0  0  0  0  0
   45.7155  -38.0845   -4.6443 N   0  0  0  0  0  0  0  0  0  0  0  0
   44.7714  -38.9832   -4.0190 C   0  0  0  0  0  0  0  0  0  0  0  0
   43.6773  -39.4197   -4.7968 N   0  0  0  0  0  0  0  0  0  0  0  0
   44.9817  -39.3322   -2.8073 N   0  0  0  0  0  0  0  0  0  0  0  0
   48.1298  -39.8258   -9.0344 N   0  0  0  0  0  0  0  0  0  0  0  0
   48.8065  -39.2838  -10.2162 C   0  0  1  0  0  0  0  0  0  0  0  0
   49.7111  -40.3967  -10.7516 C   0  0  1  0  0  0  0  0  0  0  0  0
   50.1864  -40.1585  -12.1467 C   0  0  0  0  0  0  0  0  0  0  0  0
   50.8684  -40.6164   -9.7974 C   0  0  0  0  0  0  0  0  0  0  0  0
   48.9429  -41.7208  -10.7739 C   0  0  0  0  0  0  0  0  0  0  0  0
   47.8310  -38.9267  -11.2695 C   0  0  0  0  0  0  0  0  0  0  0  0
   46.6714  -39.4431  -11.1551 O   0  0  0  0  0  0  0  0  0  0  0  0
   48.1083  -38.0825  -12.3449 N   0  0  0  0  0  0  0  0  0  0  0  0
   48.6226  -36.7346  -12.2946 C   0  0  2  0  0  0  0  0  0  0  0  0
   47.6069  -35.8123  -12.8482 C   0  0  0  0  0  0  0  0  0  0  0  0
   47.2893  -35.8730  -14.0482 O   0  0  0  0  0  0  0  0  0  0  0  0
   49.8503  -36.6496  -13.1740 C   0  0  0  0  0  0  0  0  0  0  0  0
   51.0199  -36.0320  -12.4662 C   0  0  0  0  0  0  0  0  0  0  0  0
   51.7517  -35.1829  -13.4995 C   0  0  0  0  0  0  0  0  0  0  0  0
   53.0810  -34.7104  -12.9940 C   0  0  0  0  0  0  0  0  0  0  0  0
   54.1280  -35.0647  -13.9279 N   0  0  0  0  0  0  0  0  0  0  0  0
   47.0034  -34.8615  -12.0058 N   0  0  0  0  0  0  0  0  0  0  0  0
   46.5289  -35.0761  -10.6670 C   0  0  0  0  0  0  0  0  0  0  0  0
   45.2105  -35.7814  -10.6119 C   0  0  0  0  0  0  0  0  0  0  0  0
   44.7332  -36.5153  -11.6758 C   0  0  0  0  0  0  0  0  0  0  0  0
   43.5179  -37.1783  -11.6609 C   0  0  0  0  0  0  0  0  0  0  0  0
   42.7231  -37.1174  -10.5338 C   0  0  0  0  0  0  0  0  0  0  0  0
   41.4419  -37.8032  -10.4577 C   0  0  0  0  0  0  0  0  0  0  0  0
   40.5604  -37.6104   -9.3623 N   0  0  0  0  0  0  0  0  0  0  0  0
   41.0453  -38.6209  -11.3920 N   0  0  0  0  0  0  0  0  0  0  0  0
   43.2064  -36.3738   -9.4565 C   0  0  0  0  0  0  0  0  0  0  0  0
   44.4169  -35.7195   -9.4850 C   0  0  0  0  0  0  0  0  0  0  0  0
   55.4868  -34.6989  -13.7374 C   0  0  0  0  0  0  0  0  0  0  0  0
   55.8974  -33.4189  -13.1193 C   0  0  0  0  0  0  0  0  0  0  0  0
   57.3815  -33.2537  -13.1498 C   0  0  0  0  0  0  0  0  0  0  0  0
   57.9271  -32.6108  -11.9022 C   0  0  0  0  0  0  0  0  0  0  0  0
   58.4433  -33.6394  -10.9429 C   0  0  0  0  0  0  0  0  0  0  0  0
   56.3882  -35.4935  -14.1087 O   0  0  0  0  0  0  0  0  0  0  0  0
   59.4299  -34.3431  -11.3494 O   0  0  0  0  0  0  0  0  0  0  0  0
   57.8866  -33.8396   -9.6531 N   0  0  0  0  0  0  0  0  0  0  0  0
   56.8306  -33.6163   -5.1549 C   0  0  0  0  0  0  0  0  0  0  0  0
   56.6346  -33.5218   -6.5719 C   0  0  0  0  0  0  0  0  0  0  0  0
   57.5079  -32.8675   -7.3953 C   0  0  0  0  0  0  0  0  0  0  0  0
   58.6054  -32.2925   -6.8111 C   0  0  0  0  0  0  0  0  0  0  0  0
   58.7884  -32.3929   -5.4073 C   0  0  0  0  0  0  0  0  0  0  0  0
   58.1166  -33.1443   -3.0834 C   0  0  0  0  0  0  0  0  0  0  0  0
   57.3854  -32.0378   -2.3557 C   0  0  0  0  0  0  0  0  0  0  0  0
   57.8220  -30.8724   -2.4891 O   0  0  0  0  0  0  0  0  0  0  0  0
   57.9192  -33.0469   -4.5664 C   0  0  0  0  0  0  0  0  0  0  0  0
   57.2575  -32.7903   -8.8789 C   0  0  0  0  0  0  0  0  0  0  0  0
   48.4267  -30.6994   -1.5611 H   0  0  0  0  0  0  0  0  0  0  0  0
   45.5668  -38.7571   -2.1659 H   0  0  0  0  0  0  0  0  0  0  0  0
   41.6382  -38.9899  -12.1391 H   0  0  0  0  0  0  0  0  0  0  0  0
  2  1  1  6
  3  2  1  0
  2  5  1  0
  3  4  2  0
 10  3  1  0
  5  6  1  0
  6  7  1  0
  7  8  1  0
  8  9  1  0
  9 74  1  0
 11 10  1  0
 12 11  1  0
 11 14  1  6
 12 13  2  0
 21 12  1  0
 14 15  1  0
 15 16  1  0
 16 17  1  0
 17 18  1  0
 18 19  1  0
 18 20  2  0
 22 21  1  0
 23 22  1  0
 22 25  1  6
 23 24  2  0
 32 23  1  0
 25 26  1  0
 26 27  1  0
 27 28  1  0
 28 29  1  0
 29 30  1  0
 29 31  2  0
 33 32  1  1
 33 34  1  0
 38 33  1  0
 34 35  1  6
 34 36  1  0
 34 37  1  0
 38 39  2  0
 40 38  1  0
 41 40  1  0
 41 42  1  6
 44 41  1  0
 42 43  2  0
 42 49  1  0
 45 44  1  0
 46 45  1  0
 47 46  1  0
 48 47  1  0
 60 48  1  0
 49 50  1  0
 50 51  1  0
 51 52  2  0
 51 59  1  0
 52 53  1  0
 53 54  2  0
 54 55  1  0
 58 54  1  0
 55 56  1  0
 55 57  2  0
 59 58  2  0
 61 60  1  0
 60 65  2  0
 62 61  1  0
 63 62  1  0
 64 63  1  0
 64 66  2  0
 67 64  1  0
 77 67  1  0
 69 68  2  0
 68 76  1  0
 70 69  1  0
 70 71  2  0
 70 77  1  0
 71 72  1  0
 72 76  2  0
 74 73  1  0
 73 76  1  0
 74 75  2  0
 20 78  1  0
 31 79  1  0
 57 80  1  0
M  CHG  1   1   1
M  END
$$$$
