
     RDKit          3D

 80 82  0  0  0  0  0  0  0  0999 V2000
   50.5462  -35.3592   -2.7549 N   0  0  0  0  0  4  0  0  0  0  0  0
   49.8302  -34.1058   -2.8752 C   0  0  2  0  0  0  0  0  0  0  0  0
   49.9113  -33.5482   -4.2497 C   0  0  0  0  0  0  0  0  0  0  0  0
   50.0894  -32.2834   -4.3277 O   0  0  0  0  0  0  0  0  0  0  0  0
   50.3544  -33.1312   -1.8510 C   0  0  0  0  0  0  0  0  0  0  0  0
   51.8245  -32.8175   -2.0496 C   0  0  0  0  0  0  0  0  0  0  0  0
   52.4079  -32.1410   -0.8481 C   0  0  0  0  0  0  0  0  0  0  0  0
   53.8991  -32.3555   -0.7264 C   0  0  0  0  0  0  0  0  0  0  0  0
   54.6167  -31.1947   -1.2146 N   0  0  0  0  0  0  0  0  0  0  0  0
   49.8062  -34.3062   -5.4302 N   0  0  0  0  0  0  0  0  0  0  0  0
   48.8045  -35.3496   -5.6601 C   0  0  2  0  0  0  0  0  0  0  0  0
   49.1811  -36.2122   -6.7876 C   0  0  0  0  0  0  0  0  0  0  0  0
   50.4254  -36.5634   -6.7474 O   0  0  0  0  0  0  0  0  0  0  0  0
   47.4688  -34.7241   -5.6704 C   0  0  0  0  0  0  0  0  0  0  0  0
   47.2494  -33.6702   -4.5901 C   0  0  0  0  0  0  0  0  0  0  0  0
   48.4405  -33.5596   -3.6826 C   0  0  0  0  0  0  0  0  0  0  0  0
   48.5713  -34.6437   -2.7403 N   0  0  0  0  0  0  0  0  0  0  0  0
   49.6190  -34.6076   -1.7795 C   0  0  0  0  0  0  0  0  0  0  0  0
   49.7293  -35.6114   -0.7798 N   0  0  0  0  0  0  0  0  0  0  0  0
   50.5069  -33.6711   -1.7678 N   0  0  0  0  0  0  0  0  0  0  0  0
   48.4314  -36.6938   -7.8580 N   0  0  0  0  0  0  0  0  0  0  0  0
   47.2354  -37.5686   -7.7823 C   0  0  2  0  0  0  0  0  0  0  0  0
   47.6876  -38.9924   -7.8658 C   0  0  0  0  0  0  0  0  0  0  0  0
   47.8630  -39.5134   -6.6885 O   0  0  0  0  0  0  0  0  0  0  0  0
   46.3426  -37.1327   -8.8860 C   0  0  0  0  0  0  0  0  0  0  0  0
   44.9687  -36.7084   -8.5928 C   0  0  0  0  0  0  0  0  0  0  0  0
   43.8654  -37.6745   -8.5397 C   0  0  0  0  0  0  0  0  0  0  0  0
   43.8946  -38.5902   -7.4384 N   0  0  0  0  0  0  0  0  0  0  0  0
   43.2680  -39.8898   -7.5293 C   0  0  0  0  0  0  0  0  0  0  0  0
   43.2104  -40.4953   -8.8031 N   0  0  0  0  0  0  0  0  0  0  0  0
   42.8086  -40.4148   -6.4581 N   0  0  0  0  0  0  0  0  0  0  0  0
   47.9201  -39.7547   -9.0065 N   0  0  0  0  0  0  0  0  0  0  0  0
   48.9923  -39.6083   -9.9949 C   0  0  1  0  0  0  0  0  0  0  0  0
   49.8179  -40.8962   -9.9393 C   0  0  1  0  0  0  0  0  0  0  0  0
   48.9863  -42.1348   -9.8832 C   0  0  0  0  0  0  0  0  0  0  0  0
   50.7904  -40.9290  -11.1018 C   0  0  0  0  0  0  0  0  0  0  0  0
   50.6871  -40.8985   -8.6791 C   0  0  0  0  0  0  0  0  0  0  0  0
   48.4402  -39.4653  -11.3599 C   0  0  0  0  0  0  0  0  0  0  0  0
   47.2295  -39.8322  -11.5140 O   0  0  0  0  0  0  0  0  0  0  0  0
   49.1549  -38.9665  -12.4493 N   0  0  0  0  0  0  0  0  0  0  0  0
   49.8464  -37.7029  -12.5429 C   0  0  2  0  0  0  0  0  0  0  0  0
   49.2033  -36.8802  -13.5909 C   0  0  0  0  0  0  0  0  0  0  0  0
   49.4878  -37.0518  -14.7884 O   0  0  0  0  0  0  0  0  0  0  0  0
   51.2741  -37.9606  -12.9708 C   0  0  0  0  0  0  0  0  0  0  0  0
   52.2706  -37.2771  -12.0818 C   0  0  0  0  0  0  0  0  0  0  0  0
   53.4019  -36.8009  -12.9859 C   0  0  0  0  0  0  0  0  0  0  0  0
   54.5840  -36.3243  -12.1978 C   0  0  0  0  0  0  0  0  0  0  0  0
   55.7851  -37.0029  -12.6344 N   0  0  0  0  0  0  0  0  0  0  0  0
   48.2673  -35.8977  -13.2218 N   0  0  0  0  0  0  0  0  0  0  0  0
   48.5501  -34.6158  -12.6383 C   0  0  0  0  0  0  0  0  0  0  0  0
   48.0372  -34.4757  -11.2397 C   0  0  0  0  0  0  0  0  0  0  0  0
   47.6579  -35.5685  -10.4912 C   0  0  0  0  0  0  0  0  0  0  0  0
   47.1770  -35.4761   -9.1962 C   0  0  0  0  0  0  0  0  0  0  0  0
   47.0611  -34.2365   -8.5999 C   0  0  0  0  0  0  0  0  0  0  0  0
   46.5725  -34.0802   -7.2382 C   0  0  0  0  0  0  0  0  0  0  0  0
   47.0018  -33.0076   -6.4138 N   0  0  0  0  0  0  0  0  0  0  0  0
   45.7175  -34.9142   -6.7165 N   0  0  0  0  0  0  0  0  0  0  0  0
   47.4448  -33.1297   -9.3582 C   0  0  0  0  0  0  0  0  0  0  0  0
   47.9215  -33.2361  -10.6450 C   0  0  0  0  0  0  0  0  0  0  0  0
   57.0696  -36.7157  -12.1015 C   0  0  0  0  0  0  0  0  0  0  0  0
   57.4862  -35.3563  -11.6920 C   0  0  0  0  0  0  0  0  0  0  0  0
   58.9204  -35.3313  -11.2756 C   0  0  0  0  0  0  0  0  0  0  0  0
   59.1753  -34.4263  -10.0995 C   0  0  0  0  0  0  0  0  0  0  0  0
   59.2117  -35.2000   -8.8170 C   0  0  0  0  0  0  0  0  0  0  0  0
   57.8965  -37.6539  -11.9686 O   0  0  0  0  0  0  0  0  0  0  0  0
   60.1442  -36.0677   -8.7097 O   0  0  0  0  0  0  0  0  0  0  0  0
   58.2772  -34.9997   -7.7683 N   0  0  0  0  0  0  0  0  0  0  0  0
   56.0036  -33.4912   -4.0327 C   0  0  0  0  0  0  0  0  0  0  0  0
   56.2489  -33.7635   -5.4187 C   0  0  0  0  0  0  0  0  0  0  0  0
   57.4201  -33.4299   -6.0399 C   0  0  0  0  0  0  0  0  0  0  0  0
   58.3777  -32.8143   -5.2781 C   0  0  0  0  0  0  0  0  0  0  0  0
   58.1230  -32.5500   -3.9071 C   0  0  0  0  0  0  0  0  0  0  0  0
   56.6869  -32.5919   -1.8209 C   0  0  0  0  0  0  0  0  0  0  0  0
   55.9673  -31.2733   -1.6423 C   0  0  0  0  0  0  0  0  0  0  0  0
   56.6094  -30.2274   -1.8882 O   0  0  0  0  0  0  0  0  0  0  0  0
   56.9507  -32.8790   -3.2686 C   0  0  0  0  0  0  0  0  0  0  0  0
   57.6308  -33.7321   -7.5008 C   0  0  0  0  0  0  0  0  0  0  0  0
   51.3321  -33.6780   -1.1422 H   0  0  0  0  0  0  0  0  0  0  0  0
   42.9578  -39.9755   -5.5257 H   0  0  0  0  0  0  0  0  0  0  0  0
   45.8128  -35.9324   -6.7226 H   0  0  0  0  0  0  0  0  0  0  0  0
  2  1  1  6
  3  2  1  0
  2  5  1  0
  3  4  2  0
 10  3  1  0
  5  6  1  0
  6  7  1  0
  7  8  1  0
  8  9  1  0
  9 74  1  0
 11 10  1  0
 12 11  1  0
 11 14  1  6
 12 13  2  0
 21 12  1  0
 14 15  1  0
 15 16  1  0
 16 17  1  0
 17 18  1  0
 18 19  1  0
 18 20  2  0
 22 21  1  0
 23 22  1  0
 22 25  1  6
 23 24  2  0
 32 23  1  0
 25 26  1  0
 26 27  1  0
 27 28  1  0
 28 29  1  0
 29 30  1  0
 29 31  2  0
 33 32  1  1
 33 34  1  0
 38 33  1  0
 34 35  1  1
 34 36  1  0
 34 37  1  0
 38 39  2  0
 40 38  1  0
 41 40  1  0
 41 42  1  6
 44 41  1  0
 42 43  2  0
 42 49  1  0
 45 44  1  0
 46 45  1  0
 47 46  1  0
 48 47  1  0
 60 48  1  0
 49 50  1  0
 50 51  1  0
 51 52  2  0
 51 59  1  0
 52 53  1  0
 53 54  2  0
 54 55  1  0
 58 54  1  0
 55 56  1  0
 55 57  2  0
 59 58  2  0
 61 60  1  0
 60 65  2  0
 62 61  1  0
 63 62  1  0
 64 63  1  0
 64 66  2  0
 67 64  1  0
 77 67  1  0
 69 68  2  0
 68 76  1  0
 70 69  1  0
 70 71  2  0
 70 77  1  0
 71 72  1  0
 72 76  2  0
 74 73  1  0
 73 76  1  0
 74 75  2  0
 20 78  1  0
 31 79  1  0
 57 80  1  0
M  CHG  1   1   1
M  END
$$$$
