
     RDKit          3D

 80 82  0  0  0  0  0  0  0  0999 V2000
   52.0974  -38.0234   -4.0196 N   0  0  0  0  0  4  0  0  0  0  0  0
   51.5148  -36.8792   -3.3492 C   0  0  2  0  0  0  0  0  0  0  0  0
   50.9986  -35.8731   -4.3126 C   0  0  0  0  0  0  0  0  0  0  0  0
   51.2260  -34.6495   -4.0149 O   0  0  0  0  0  0  0  0  0  0  0  0
   52.5323  -36.2776   -2.4131 C   0  0  0  0  0  0  0  0  0  0  0  0
   53.7652  -35.7787   -3.1413 C   0  0  0  0  0  0  0  0  0  0  0  0
   54.8919  -35.5114   -2.1922 C   0  0  0  0  0  0  0  0  0  0  0  0
   56.2468  -35.6146   -2.8538 C   0  0  0  0  0  0  0  0  0  0  0  0
   56.7525  -34.2950   -3.1753 N   0  0  0  0  0  0  0  0  0  0  0  0
   50.2972  -36.1791   -5.4931 N   0  0  0  0  0  0  0  0  0  0  0  0
   49.2190  -37.1659   -5.5856 C   0  0  2  0  0  0  0  0  0  0  0  0
   48.9585  -37.5430   -6.9811 C   0  0  0  0  0  0  0  0  0  0  0  0
   50.0465  -37.7685   -7.6436 O   0  0  0  0  0  0  0  0  0  0  0  0
   48.0872  -36.7035   -4.7607 C   0  0  0  0  0  0  0  0  0  0  0  0
   48.2500  -35.3018   -4.1822 C   0  0  0  0  0  0  0  0  0  0  0  0
   49.6904  -34.8782   -4.1696 C   0  0  0  0  0  0  0  0  0  0  0  0
   49.9084  -33.5048   -4.5528 N   0  0  0  0  0  0  0  0  0  0  0  0
   51.2266  -32.9726   -4.5137 C   0  0  0  0  0  0  0  0  0  0  0  0
   51.6149  -32.0550   -3.5006 N   0  0  0  0  0  0  0  0  0  0  0  0
   52.1211  -33.2913   -5.3876 N   0  0  0  0  0  0  0  0  0  0  0  0
   47.7619  -37.6897   -7.6784 N   0  0  0  0  0  0  0  0  0  0  0  0
   46.6673  -38.6437   -7.3732 C   0  0  2  0  0  0  0  0  0  0  0  0
   46.9086  -39.9005   -8.1482 C   0  0  0  0  0  0  0  0  0  0  0  0
   47.5633  -40.7799   -7.4509 O   0  0  0  0  0  0  0  0  0  0  0  0
   45.4059  -37.9362   -7.7104 C   0  0  0  0  0  0  0  0  0  0  0  0
   44.3876  -37.7210   -6.6760 C   0  0  0  0  0  0  0  0  0  0  0  0
   44.4572  -38.4070   -5.3806 C   0  0  0  0  0  0  0  0  0  0  0  0
   43.3058  -39.1821   -5.0260 N   0  0  0  0  0  0  0  0  0  0  0  0
   42.8342  -39.2394   -3.6606 C   0  0  0  0  0  0  0  0  0  0  0  0
   41.9937  -40.3175   -3.3086 N   0  0  0  0  0  0  0  0  0  0  0  0
   43.2057  -38.3196   -2.8544 N   0  0  0  0  0  0  0  0  0  0  0  0
   46.5233  -40.1929   -9.4530 N   0  0  0  0  0  0  0  0  0  0  0  0
   47.0261  -39.6123  -10.7012 C   0  0  1  0  0  0  0  0  0  0  0  0
   47.6728  -40.7560  -11.4869 C   0  0  1  0  0  0  0  0  0  0  0  0
   47.8983  -40.4361  -12.9276 C   0  0  0  0  0  0  0  0  0  0  0  0
   48.9562  -41.1830  -10.8023 C   0  0  0  0  0  0  0  0  0  0  0  0
   46.7622  -41.9862  -11.4518 C   0  0  0  0  0  0  0  0  0  0  0  0
   45.9204  -39.0553  -11.5110 C   0  0  0  0  0  0  0  0  0  0  0  0
   44.7493  -39.4570  -11.2085 O   0  0  0  0  0  0  0  0  0  0  0  0
   46.0904  -38.1443  -12.5537 N   0  0  0  0  0  0  0  0  0  0  0  0
   46.7639  -36.8684  -12.5053 C   0  0  2  0  0  0  0  0  0  0  0  0
   45.7812  -35.7962  -12.7763 C   0  0  0  0  0  0  0  0  0  0  0  0
   45.1539  -35.7742  -13.8489 O   0  0  0  0  0  0  0  0  0  0  0  0
   47.8055  -36.8267  -13.6012 C   0  0  0  0  0  0  0  0  0  0  0  0
   49.1532  -36.4055  -13.0946 C   0  0  0  0  0  0  0  0  0  0  0  0
   49.7748  -35.5410  -14.1857 C   0  0  0  0  0  0  0  0  0  0  0  0
   51.2225  -35.2605  -13.9192 C   0  0  0  0  0  0  0  0  0  0  0  0
   52.0247  -35.6294  -15.0656 N   0  0  0  0  0  0  0  0  0  0  0  0
   45.5631  -34.7975  -11.8106 N   0  0  0  0  0  0  0  0  0  0  0  0
   45.9991  -34.8139  -10.4419 C   0  0  0  0  0  0  0  0  0  0  0  0
   47.4147  -34.3625  -10.2660 C   0  0  0  0  0  0  0  0  0  0  0  0
   48.1820  -34.7741   -9.1981 C   0  0  0  0  0  0  0  0  0  0  0  0
   49.4931  -34.3750   -9.0025 C   0  0  0  0  0  0  0  0  0  0  0  0
   50.0872  -33.5203   -9.9093 C   0  0  0  0  0  0  0  0  0  0  0  0
   51.4650  -33.0768   -9.7602 C   0  0  0  0  0  0  0  0  0  0  0  0
   52.1791  -32.4961  -10.8406 N   0  0  0  0  0  0  0  0  0  0  0  0
   52.1030  -33.1891   -8.6292 N   0  0  0  0  0  0  0  0  0  0  0  0
   49.3099  -33.1032  -10.9906 C   0  0  0  0  0  0  0  0  0  0  0  0
   48.0071  -33.5081  -11.1729 C   0  0  0  0  0  0  0  0  0  0  0  0
   53.4291  -35.4271  -15.1208 C   0  0  0  0  0  0  0  0  0  0  0  0
   54.1001  -34.2627  -14.5020 C   0  0  0  0  0  0  0  0  0  0  0  0
   55.5609  -34.2504  -14.8130 C   0  0  0  0  0  0  0  0  0  0  0  0
   56.4050  -33.7917  -13.6535 C   0  0  0  0  0  0  0  0  0  0  0  0
   56.9643  -34.9565  -12.8950 C   0  0  0  0  0  0  0  0  0  0  0  0
   54.1420  -36.2714  -15.7215 O   0  0  0  0  0  0  0  0  0  0  0  0
   57.7645  -35.7162  -13.5403 O   0  0  0  0  0  0  0  0  0  0  0  0
   56.6400  -35.2218  -11.5394 N   0  0  0  0  0  0  0  0  0  0  0  0
   56.4835  -35.3269   -6.9172 C   0  0  0  0  0  0  0  0  0  0  0  0
   56.0374  -35.0756   -8.2563 C   0  0  0  0  0  0  0  0  0  0  0  0
   56.8128  -34.4390   -9.1849 C   0  0  0  0  0  0  0  0  0  0  0  0
   58.0618  -34.0405   -8.7879 C   0  0  0  0  0  0  0  0  0  0  0  0
   58.4921  -34.2949   -7.4596 C   0  0  0  0  0  0  0  0  0  0  0  0
   58.1835  -35.1941   -5.1117 C   0  0  0  0  0  0  0  0  0  0  0  0
   57.7412  -34.0933   -4.1729 C   0  0  0  0  0  0  0  0  0  0  0  0
   58.2824  -32.9722   -4.3023 O   0  0  0  0  0  0  0  0  0  0  0  0
   57.7240  -34.9334   -6.5148 C   0  0  0  0  0  0  0  0  0  0  0  0
   56.2991  -34.1928  -10.5796 C   0  0  0  0  0  0  0  0  0  0  0  0
   52.9697  -33.8389   -5.1586 H   0  0  0  0  0  0  0  0  0  0  0  0
   43.8856  -37.5839   -3.1393 H   0  0  0  0  0  0  0  0  0  0  0  0
   52.1460  -34.0388   -8.0618 H   0  0  0  0  0  0  0  0  0  0  0  0
  2  1  1  6
  3  2  1  0
  2  5  1  0
  3  4  2  0
 10  3  1  0
  5  6  1  0
  6  7  1  0
  7  8  1  0
  8  9  1  0
  9 74  1  0
 11 10  1  0
 12 11  1  0
 11 14  1  6
 12 13  2  0
 21 12  1  0
 14 15  1  0
 15 16  1  0
 16 17  1  0
 17 18  1  0
 18 19  1  0
 18 20  2  0
 22 21  1  0
 23 22  1  0
 22 25  1  6
 23 24  2  0
 32 23  1  0
 25 26  1  0
 26 27  1  0
 27 28  1  0
 28 29  1  0
 29 30  1  0
 29 31  2  0
 33 32  1  1
 33 34  1  0
 38 33  1  0
 34 35  1  6
 34 36  1  0
 34 37  1  0
 38 39  2  0
 40 38  1  0
 41 40  1  0
 41 42  1  6
 44 41  1  0
 42 43  2  0
 42 49  1  0
 45 44  1  0
 46 45  1  0
 47 46  1  0
 48 47  1  0
 60 48  1  0
 49 50  1  0
 50 51  1  0
 51 52  2  0
 51 59  1  0
 52 53  1  0
 53 54  2  0
 54 55  1  0
 58 54  1  0
 55 56  1  0
 55 57  2  0
 59 58  2  0
 61 60  1  0
 60 65  2  0
 62 61  1  0
 63 62  1  0
 64 63  1  0
 64 66  2  0
 67 64  1  0
 77 67  1  0
 69 68  2  0
 68 76  1  0
 70 69  1  0
 70 71  2  0
 70 77  1  0
 71 72  1  0
 72 76  2  0
 74 73  1  0
 73 76  1  0
 74 75  2  0
 20 78  1  0
 31 79  1  0
 57 80  1  0
M  CHG  1   1   1
M  END
$$$$
