
     RDKit          3D

 80 82  0  0  0  0  0  0  0  0999 V2000
   54.8069  -37.3909   -6.3089 N   0  0  0  0  0  4  0  0  0  0  0  0
   54.2684  -36.6566   -5.1824 C   0  0  2  0  0  0  0  0  0  0  0  0
   53.1205  -35.7991   -5.5745 C   0  0  0  0  0  0  0  0  0  0  0  0
   53.0900  -34.6340   -5.0462 O   0  0  0  0  0  0  0  0  0  0  0  0
   55.3685  -35.8491   -4.5411 C   0  0  0  0  0  0  0  0  0  0  0  0
   55.9629  -34.8253   -5.4886 C   0  0  0  0  0  0  0  0  0  0  0  0
   57.2584  -34.2841   -4.9685 C   0  0  0  0  0  0  0  0  0  0  0  0
   58.1597  -33.7743   -6.0694 C   0  0  0  0  0  0  0  0  0  0  0  0
   58.0716  -32.3308   -6.1649 N   0  0  0  0  0  0  0  0  0  0  0  0
   52.0995  -36.1828   -6.4631 N   0  0  0  0  0  0  0  0  0  0  0  0
   51.4234  -37.4817   -6.4392 C   0  0  2  0  0  0  0  0  0  0  0  0
   50.7067  -37.7338   -7.6963 C   0  0  0  0  0  0  0  0  0  0  0  0
   51.4149  -37.4369   -8.7373 O   0  0  0  0  0  0  0  0  0  0  0  0
   50.6795  -37.6007   -5.1712 C   0  0  0  0  0  0  0  0  0  0  0  0
   51.0284  -36.5468   -4.1255 C   0  0  0  0  0  0  0  0  0  0  0  0
   51.8776  -35.4552   -4.7099 C   0  0  0  0  0  0  0  0  0  0  0  0
   51.3063  -34.1354   -4.5995 N   0  0  0  0  0  0  0  0  0  0  0  0
   52.0401  -33.0171   -5.0825 C   0  0  0  0  0  0  0  0  0  0  0  0
   51.8834  -31.7317   -4.4975 N   0  0  0  0  0  0  0  0  0  0  0  0
   52.8707  -33.1146   -6.0654 N   0  0  0  0  0  0  0  0  0  0  0  0
   49.4254  -38.2257   -7.9332 N   0  0  0  0  0  0  0  0  0  0  0  0
   48.8978  -39.5554   -7.5398 C   0  0  2  0  0  0  0  0  0  0  0  0
   49.1320  -40.5078   -8.6698 C   0  0  0  0  0  0  0  0  0  0  0  0
   50.2466  -41.1603   -8.5284 O   0  0  0  0  0  0  0  0  0  0  0  0
   47.4702  -39.3396   -7.1925 C   0  0  0  0  0  0  0  0  0  0  0  0
   46.9920  -39.6406   -5.8382 C   0  0  0  0  0  0  0  0  0  0  0  0
   47.4437  -38.8637   -4.6781 C   0  0  0  0  0  0  0  0  0  0  0  0
   48.1492  -39.6019   -3.6732 N   0  0  0  0  0  0  0  0  0  0  0  0
   48.5480  -38.9806   -2.4303 C   0  0  0  0  0  0  0  0  0  0  0  0
   49.3635  -39.7350   -1.5595 N   0  0  0  0  0  0  0  0  0  0  0  0
   48.1456  -37.7905   -2.1939 N   0  0  0  0  0  0  0  0  0  0  0  0
   48.3234  -40.7421   -9.7777 N   0  0  0  0  0  0  0  0  0  0  0  0
   48.0457  -39.8488  -10.9059 C   0  0  1  0  0  0  0  0  0  0  0  0
   48.5889  -40.5425  -12.1577 C   0  0  1  0  0  0  0  0  0  0  0  0
   48.1497  -41.9633  -12.2893 C   0  0  0  0  0  0  0  0  0  0  0  0
   48.2296  -39.7311  -13.3868 C   0  0  0  0  0  0  0  0  0  0  0  0
   50.1191  -40.5625  -12.1143 C   0  0  0  0  0  0  0  0  0  0  0  0
   46.5903  -39.6468  -11.0775 C   0  0  0  0  0  0  0  0  0  0  0  0
   45.8366  -40.4997  -10.5041 O   0  0  0  0  0  0  0  0  0  0  0  0
   46.0217  -38.6054  -11.8112 N   0  0  0  0  0  0  0  0  0  0  0  0
   46.2495  -37.1892  -11.6491 C   0  0  2  0  0  0  0  0  0  0  0  0
   44.9832  -36.5431  -11.2395 C   0  0  0  0  0  0  0  0  0  0  0  0
   44.0067  -36.5290  -12.0081 O   0  0  0  0  0  0  0  0  0  0  0  0
   46.6535  -36.6058  -12.9848 C   0  0  0  0  0  0  0  0  0  0  0  0
   47.9022  -35.7792  -12.8945 C   0  0  0  0  0  0  0  0  0  0  0  0
   47.7119  -34.6026  -13.8450 C   0  0  0  0  0  0  0  0  0  0  0  0
   48.9828  -33.8339  -14.0439 C   0  0  0  0  0  0  0  0  0  0  0  0
   49.2791  -33.7102  -15.4548 N   0  0  0  0  0  0  0  0  0  0  0  0
   44.8923  -35.9404   -9.9721 N   0  0  0  0  0  0  0  0  0  0  0  0
   43.6983  -35.4698   -9.3267 C   0  0  0  0  0  0  0  0  0  0  0  0
   43.4624  -36.0961   -7.9885 C   0  0  0  0  0  0  0  0  0  0  0  0
   43.7155  -37.4302   -7.7550 C   0  0  0  0  0  0  0  0  0  0  0  0
   43.5068  -38.0433   -6.5314 C   0  0  0  0  0  0  0  0  0  0  0  0
   43.0202  -37.3025   -5.4730 C   0  0  0  0  0  0  0  0  0  0  0  0
   42.7921  -37.8913   -4.1620 C   0  0  0  0  0  0  0  0  0  0  0  0
   42.7591  -37.0965   -2.9866 N   0  0  0  0  0  0  0  0  0  0  0  0
   42.6044  -39.1719   -4.0087 N   0  0  0  0  0  0  0  0  0  0  0  0
   42.7635  -35.9514   -5.7096 C   0  0  0  0  0  0  0  0  0  0  0  0
   42.9757  -35.3547   -6.9316 C   0  0  0  0  0  0  0  0  0  0  0  0
   50.3966  -32.9852  -15.9469 C   0  0  0  0  0  0  0  0  0  0  0  0
   50.9010  -31.7503  -15.3068 C   0  0  0  0  0  0  0  0  0  0  0  0
   52.0109  -31.1429  -16.1004 C   0  0  0  0  0  0  0  0  0  0  0  0
   53.1007  -30.5625  -15.2384 C   0  0  0  0  0  0  0  0  0  0  0  0
   54.2427  -31.5207  -15.0889 C   0  0  0  0  0  0  0  0  0  0  0  0
   50.9898  -33.4052  -16.9733 O   0  0  0  0  0  0  0  0  0  0  0  0
   54.8668  -31.8242  -16.1624 O   0  0  0  0  0  0  0  0  0  0  0  0
   54.6282  -32.0727  -13.8399 N   0  0  0  0  0  0  0  0  0  0  0  0
   56.5226  -32.8631   -9.6942 C   0  0  0  0  0  0  0  0  0  0  0  0
   55.4901  -32.6182  -10.6583 C   0  0  0  0  0  0  0  0  0  0  0  0
   55.5674  -31.6142  -11.5829 C   0  0  0  0  0  0  0  0  0  0  0  0
   56.6908  -30.8308  -11.5615 C   0  0  0  0  0  0  0  0  0  0  0  0
   57.7060  -31.0831  -10.6023 C   0  0  0  0  0  0  0  0  0  0  0  0
   58.7168  -32.3454   -8.6527 C   0  0  0  0  0  0  0  0  0  0  0  0
   58.4268  -31.6346   -7.3492 C   0  0  0  0  0  0  0  0  0  0  0  0
   58.5094  -30.3857   -7.3419 O   0  0  0  0  0  0  0  0  0  0  0  0
   57.6426  -32.0883   -9.6664 C   0  0  0  0  0  0  0  0  0  0  0  0
   54.4546  -31.3919  -12.5739 C   0  0  0  0  0  0  0  0  0  0  0  0
   52.5980  -33.4401   -7.0099 H   0  0  0  0  0  0  0  0  0  0  0  0
   47.5452  -37.2717   -2.8684 H   0  0  0  0  0  0  0  0  0  0  0  0
   41.8935  -39.5926   -3.4058 H   0  0  0  0  0  0  0  0  0  0  0  0
  2  1  1  6
  3  2  1  0
  2  5  1  0
  3  4  2  0
 10  3  1  0
  5  6  1  0
  6  7  1  0
  7  8  1  0
  8  9  1  0
  9 74  1  0
 11 10  1  0
 12 11  1  0
 11 14  1  1
 12 13  2  0
 21 12  1  0
 14 15  1  0
 15 16  1  0
 16 17  1  0
 17 18  1  0
 18 19  1  0
 18 20  2  0
 22 21  1  0
 23 22  1  0
 22 25  1  6
 23 24  2  0
 32 23  1  0
 25 26  1  0
 26 27  1  0
 27 28  1  0
 28 29  1  0
 29 30  1  0
 29 31  2  0
 33 32  1  1
 33 34  1  0
 38 33  1  0
 34 35  1  6
 34 36  1  0
 34 37  1  0
 38 39  2  0
 40 38  1  0
 41 40  1  0
 41 42  1  6
 44 41  1  0
 42 43  2  0
 42 49  1  0
 45 44  1  0
 46 45  1  0
 47 46  1  0
 48 47  1  0
 60 48  1  0
 49 50  1  0
 50 51  1  0
 51 52  2  0
 51 59  1  0
 52 53  1  0
 53 54  2  0
 54 55  1  0
 58 54  1  0
 55 56  1  0
 55 57  2  0
 59 58  2  0
 61 60  1  0
 60 65  2  0
 62 61  1  0
 63 62  1  0
 64 63  1  0
 64 66  2  0
 67 64  1  0
 77 67  1  0
 69 68  2  0
 68 76  1  0
 70 69  1  0
 70 71  2  0
 70 77  1  0
 71 72  1  0
 72 76  2  0
 74 73  1  0
 73 76  1  0
 74 75  2  0
 20 78  1  0
 31 79  1  0
 57 80  1  0
M  CHG  1   1   1
M  END
$$$$
