
     RDKit          3D

 80 82  0  0  0  0  0  0  0  0999 V2000
   52.7093  -35.6984   -3.8892 N   0  0  0  0  0  4  0  0  0  0  0  0
   52.5976  -34.2689   -4.0945 C   0  0  2  0  0  0  0  0  0  0  0  0
   52.3460  -33.9292   -5.5186 C   0  0  0  0  0  0  0  0  0  0  0  0
   52.9862  -32.9177   -5.9711 O   0  0  0  0  0  0  0  0  0  0  0  0
   53.8407  -33.5914   -3.5754 C   0  0  0  0  0  0  0  0  0  0  0  0
   55.0925  -34.0425   -4.3025 C   0  0  0  0  0  0  0  0  0  0  0  0
   56.3308  -33.6398   -3.5636 C   0  0  0  0  0  0  0  0  0  0  0  0
   57.5083  -34.5368   -3.8691 C   0  0  0  0  0  0  0  0  0  0  0  0
   58.3818  -33.9085   -4.8401 N   0  0  0  0  0  0  0  0  0  0  0  0
   51.4729  -34.6322   -6.3687 N   0  0  0  0  0  0  0  0  0  0  0  0
   50.1289  -35.0771   -5.9937 C   0  0  2  0  0  0  0  0  0  0  0  0
   49.6269  -36.0996   -6.9209 C   0  0  0  0  0  0  0  0  0  0  0  0
   50.5133  -37.0033   -7.1876 O   0  0  0  0  0  0  0  0  0  0  0  0
   49.2939  -33.8879   -5.7412 C   0  0  0  0  0  0  0  0  0  0  0  0
   48.8581  -33.7105   -4.2905 C   0  0  0  0  0  0  0  0  0  0  0  0
   47.8051  -34.7105   -3.9086 C   0  0  0  0  0  0  0  0  0  0  0  0
   48.2521  -35.7162   -2.9763 N   0  0  0  0  0  0  0  0  0  0  0  0
   48.2683  -35.4177   -1.5860 C   0  0  0  0  0  0  0  0  0  0  0  0
   47.0849  -35.5090   -0.8047 N   0  0  0  0  0  0  0  0  0  0  0  0
   49.3446  -35.0509   -0.9757 N   0  0  0  0  0  0  0  0  0  0  0  0
   48.3862  -36.2419   -7.5375 N   0  0  0  0  0  0  0  0  0  0  0  0
   47.0758  -36.4221   -6.8652 C   0  0  2  0  0  0  0  0  0  0  0  0
   46.8198  -37.8890   -6.7189 C   0  0  0  0  0  0  0  0  0  0  0  0
   47.2172  -38.3360   -5.5654 O   0  0  0  0  0  0  0  0  0  0  0  0
   46.0864  -35.6975   -7.7027 C   0  0  0  0  0  0  0  0  0  0  0  0
   45.4540  -34.4741   -7.1960 C   0  0  0  0  0  0  0  0  0  0  0  0
   45.8833  -33.8575   -5.9354 C   0  0  0  0  0  0  0  0  0  0  0  0
   45.1713  -32.6764   -5.5480 N   0  0  0  0  0  0  0  0  0  0  0  0
   45.6616  -31.8202   -4.4914 C   0  0  0  0  0  0  0  0  0  0  0  0
   46.8429  -32.2178   -3.8288 N   0  0  0  0  0  0  0  0  0  0  0  0
   45.0045  -30.7573   -4.2217 N   0  0  0  0  0  0  0  0  0  0  0  0
   46.2365  -38.7555   -7.6382 N   0  0  0  0  0  0  0  0  0  0  0  0
   46.7778  -39.2224   -8.9177 C   0  0  1  0  0  0  0  0  0  0  0  0
   46.9389  -40.7400   -8.7973 C   0  0  1  0  0  0  0  0  0  0  0  0
   47.7486  -41.1612   -7.6159 C   0  0  0  0  0  0  0  0  0  0  0  0
   45.5739  -41.3995   -8.8022 C   0  0  0  0  0  0  0  0  0  0  0  0
   47.6594  -41.2827  -10.0342 C   0  0  0  0  0  0  0  0  0  0  0  0
   45.8404  -38.9381  -10.0263 C   0  0  0  0  0  0  0  0  0  0  0  0
   44.6373  -38.6862   -9.6897 O   0  0  0  0  0  0  0  0  0  0  0  0
   46.1959  -38.9331  -11.3753 N   0  0  0  0  0  0  0  0  0  0  0  0
   47.2487  -38.1717  -12.0042 C   0  0  2  0  0  0  0  0  0  0  0  0
   46.6464  -37.2256  -12.9691 C   0  0  0  0  0  0  0  0  0  0  0  0
   45.4186  -37.0337  -12.9791 O   0  0  0  0  0  0  0  0  0  0  0  0
   48.1366  -39.1187  -12.7803 C   0  0  0  0  0  0  0  0  0  0  0  0
   49.5902  -38.9336  -12.4593 C   0  0  0  0  0  0  0  0  0  0  0  0
   50.3507  -39.1347  -13.7652 C   0  0  0  0  0  0  0  0  0  0  0  0
   51.8296  -39.2276  -13.5419 C   0  0  0  0  0  0  0  0  0  0  0  0
   52.3539  -40.4332  -14.1463 N   0  0  0  0  0  0  0  0  0  0  0  0
   47.4745  -36.5452  -13.8796 N   0  0  0  0  0  0  0  0  0  0  0  0
   48.8951  -36.3584  -13.7771 C   0  0  0  0  0  0  0  0  0  0  0  0
   49.2939  -35.4532  -12.6545 C   0  0  0  0  0  0  0  0  0  0  0  0
   50.4120  -35.6957  -11.8867 C   0  0  0  0  0  0  0  0  0  0  0  0
   50.8093  -34.8817  -10.8397 C   0  0  0  0  0  0  0  0  0  0  0  0
   50.0644  -33.7623  -10.5271 C   0  0  0  0  0  0  0  0  0  0  0  0
   50.4404  -32.8652   -9.4448 C   0  0  0  0  0  0  0  0  0  0  0  0
   51.1774  -33.3242   -8.3221 N   0  0  0  0  0  0  0  0  0  0  0  0
   50.1212  -31.6016   -9.4593 N   0  0  0  0  0  0  0  0  0  0  0  0
   48.9318  -33.5170  -11.3045 C   0  0  0  0  0  0  0  0  0  0  0  0
   48.5484  -34.3349  -12.3429 C   0  0  0  0  0  0  0  0  0  0  0  0
   53.7356  -40.7607  -14.1398 C   0  0  0  0  0  0  0  0  0  0  0  0
   54.8049  -39.7437  -14.2468 C   0  0  0  0  0  0  0  0  0  0  0  0
   56.1532  -40.3812  -14.3268 C   0  0  0  0  0  0  0  0  0  0  0  0
   57.2082  -39.6226  -13.5659 C   0  0  0  0  0  0  0  0  0  0  0  0
   57.4291  -40.2148  -12.2075 C   0  0  0  0  0  0  0  0  0  0  0  0
   54.0741  -41.9677  -14.0391 O   0  0  0  0  0  0  0  0  0  0  0  0
   57.8728  -41.4133  -12.1815 O   0  0  0  0  0  0  0  0  0  0  0  0
   57.1684  -39.5071  -11.0056 N   0  0  0  0  0  0  0  0  0  0  0  0
   57.4326  -36.8017   -7.2625 C   0  0  0  0  0  0  0  0  0  0  0  0
   56.9655  -37.2661   -8.5358 C   0  0  0  0  0  0  0  0  0  0  0  0
   57.8124  -37.5888   -9.5593 C   0  0  0  0  0  0  0  0  0  0  0  0
   59.1552  -37.4540   -9.3247 C   0  0  0  0  0  0  0  0  0  0  0  0
   59.6054  -36.9934   -8.0600 C   0  0  0  0  0  0  0  0  0  0  0  0
   59.2493  -36.1737   -5.6898 C   0  0  0  0  0  0  0  0  0  0  0  0
   59.2813  -34.6622   -5.6378 C   0  0  0  0  0  0  0  0  0  0  0  0
   60.1423  -34.0787   -6.3341 O   0  0  0  0  0  0  0  0  0  0  0  0
   58.7663  -36.6648   -7.0216 C   0  0  0  0  0  0  0  0  0  0  0  0
   57.2746  -38.0683  -10.8824 C   0  0  0  0  0  0  0  0  0  0  0  0
   49.9992  -35.7169   -0.5281 H   0  0  0  0  0  0  0  0  0  0  0  0
   44.2204  -30.4309   -4.8244 H   0  0  0  0  0  0  0  0  0  0  0  0
   49.4030  -31.1848  -10.0562 H   0  0  0  0  0  0  0  0  0  0  0  0
  2  1  1  6
  3  2  1  0
  2  5  1  0
  3  4  2  0
 10  3  1  0
  5  6  1  0
  6  7  1  0
  7  8  1  0
  8  9  1  0
  9 74  1  0
 11 10  1  0
 12 11  1  0
 11 14  1  6
 12 13  2  0
 21 12  1  0
 14 15  1  0
 15 16  1  0
 16 17  1  0
 17 18  1  0
 18 19  1  0
 18 20  2  0
 22 21  1  0
 23 22  1  0
 22 25  1  6
 23 24  2  0
 32 23  1  0
 25 26  1  0
 26 27  1  0
 27 28  1  0
 28 29  1  0
 29 30  1  0
 29 31  2  0
 33 32  1  1
 33 34  1  0
 38 33  1  0
 34 35  1  1
 34 36  1  0
 34 37  1  0
 38 39  2  0
 40 38  1  0
 41 40  1  0
 41 42  1  6
 44 41  1  0
 42 43  2  0
 42 49  1  0
 45 44  1  0
 46 45  1  0
 47 46  1  0
 48 47  1  0
 60 48  1  0
 49 50  1  0
 50 51  1  0
 51 52  2  0
 51 59  1  0
 52 53  1  0
 53 54  2  0
 54 55  1  0
 58 54  1  0
 55 56  1  0
 55 57  2  0
 59 58  2  0
 61 60  1  0
 60 65  2  0
 62 61  1  0
 63 62  1  0
 64 63  1  0
 64 66  2  0
 67 64  1  0
 77 67  1  0
 69 68  2  0
 68 76  1  0
 70 69  1  0
 70 71  2  0
 70 77  1  0
 71 72  1  0
 72 76  2  0
 74 73  1  0
 73 76  1  0
 74 75  2  0
 20 78  1  0
 31 79  1  0
 57 80  1  0
M  CHG  1   1   1
M  END
$$$$
