
     RDKit          3D

 80 82  0  0  0  0  0  0  0  0999 V2000
   51.9613  -36.4866   -2.9453 N   0  0  0  0  0  4  0  0  0  0  0  0
   51.3824  -35.2210   -2.5439 C   0  0  2  0  0  0  0  0  0  0  0  0
   51.1798  -34.3101   -3.6998 C   0  0  0  0  0  0  0  0  0  0  0  0
   51.4727  -33.0809   -3.4978 O   0  0  0  0  0  0  0  0  0  0  0  0
   52.2508  -34.5880   -1.4862 C   0  0  0  0  0  0  0  0  0  0  0  0
   53.6504  -34.2907   -1.9879 C   0  0  0  0  0  0  0  0  0  0  0  0
   54.5867  -33.9952   -0.8576 C   0  0  0  0  0  0  0  0  0  0  0  0
   56.0276  -34.2942   -1.2023 C   0  0  0  0  0  0  0  0  0  0  0  0
   56.7256  -33.0735   -1.5534 N   0  0  0  0  0  0  0  0  0  0  0  0
   50.6998  -34.7089   -4.9607 N   0  0  0  0  0  0  0  0  0  0  0  0
   49.5625  -35.6077   -5.1694 C   0  0  2  0  0  0  0  0  0  0  0  0
   49.5474  -36.1408   -6.5379 C   0  0  0  0  0  0  0  0  0  0  0  0
   50.7152  -36.5389   -6.9265 O   0  0  0  0  0  0  0  0  0  0  0  0
   48.3448  -34.9508   -4.6585 C   0  0  0  0  0  0  0  0  0  0  0  0
   48.5959  -33.8507   -3.6325 C   0  0  0  0  0  0  0  0  0  0  0  0
   49.2789  -34.3888   -2.4084 C   0  0  0  0  0  0  0  0  0  0  0  0
   48.6445  -34.0229   -1.1657 N   0  0  0  0  0  0  0  0  0  0  0  0
   48.9800  -32.7849   -0.5516 C   0  0  0  0  0  0  0  0  0  0  0  0
   50.2106  -32.6215    0.1398 N   0  0  0  0  0  0  0  0  0  0  0  0
   48.1911  -31.7644   -0.5896 N   0  0  0  0  0  0  0  0  0  0  0  0
   48.5055  -36.2786   -7.4519 N   0  0  0  0  0  0  0  0  0  0  0  0
   47.2764  -37.0919   -7.2814 C   0  0  2  0  0  0  0  0  0  0  0  0
   47.5318  -38.4545   -7.8442 C   0  0  0  0  0  0  0  0  0  0  0  0
   47.9359  -39.2862   -6.9314 O   0  0  0  0  0  0  0  0  0  0  0  0
   46.1909  -36.3336   -7.9537 C   0  0  0  0  0  0  0  0  0  0  0  0
   45.2856  -35.4927   -7.1619 C   0  0  0  0  0  0  0  0  0  0  0  0
   45.2496  -35.5770   -5.6973 C   0  0  0  0  0  0  0  0  0  0  0  0
   44.4482  -36.6338   -5.1558 N   0  0  0  0  0  0  0  0  0  0  0  0
   44.5373  -37.0004   -3.7603 C   0  0  0  0  0  0  0  0  0  0  0  0
   43.4003  -37.5941   -3.1709 N   0  0  0  0  0  0  0  0  0  0  0  0
   45.6340  -36.7713   -3.1447 N   0  0  0  0  0  0  0  0  0  0  0  0
   47.3859  -38.8818   -9.1604 N   0  0  0  0  0  0  0  0  0  0  0  0
   48.1872  -38.5118  -10.3305 C   0  0  1  0  0  0  0  0  0  0  0  0
   48.8516  -39.7972  -10.8304 C   0  0  1  0  0  0  0  0  0  0  0  0
   49.8157  -40.3875   -9.8553 C   0  0  0  0  0  0  0  0  0  0  0  0
   47.7868  -40.7966  -11.2372 C   0  0  0  0  0  0  0  0  0  0  0  0
   49.6467  -39.5053  -12.1057 C   0  0  0  0  0  0  0  0  0  0  0  0
   47.3316  -37.9765  -11.4122 C   0  0  0  0  0  0  0  0  0  0  0  0
   46.0876  -38.2381  -11.3216 O   0  0  0  0  0  0  0  0  0  0  0  0
   47.8030  -37.2260  -12.4895 N   0  0  0  0  0  0  0  0  0  0  0  0
   48.5859  -36.0141  -12.4411 C   0  0  2  0  0  0  0  0  0  0  0  0
   47.7976  -34.9096  -13.0305 C   0  0  0  0  0  0  0  0  0  0  0  0
   48.3575  -33.8614  -13.3942 O   0  0  0  0  0  0  0  0  0  0  0  0
   49.8238  -36.2008  -13.2899 C   0  0  0  0  0  0  0  0  0  0  0  0
   51.0803  -35.8290  -12.5596 C   0  0  0  0  0  0  0  0  0  0  0  0
   51.9962  -35.1677  -13.5832 C   0  0  0  0  0  0  0  0  0  0  0  0
   53.3830  -34.9743  -13.0495 C   0  0  0  0  0  0  0  0  0  0  0  0
   54.3539  -35.5538  -13.9525 N   0  0  0  0  0  0  0  0  0  0  0  0
   46.4061  -35.0527  -13.1743 N   0  0  0  0  0  0  0  0  0  0  0  0
   45.5008  -35.6514  -12.2331 C   0  0  0  0  0  0  0  0  0  0  0  0
   44.8540  -36.8996  -12.7454 C   0  0  0  0  0  0  0  0  0  0  0  0
   43.8798  -37.5605  -12.0295 C   0  0  0  0  0  0  0  0  0  0  0  0
   43.2621  -38.7181  -12.4712 C   0  0  0  0  0  0  0  0  0  0  0  0
   43.6221  -39.2598  -13.6888 C   0  0  0  0  0  0  0  0  0  0  0  0
   42.9989  -40.4680  -14.2080 C   0  0  0  0  0  0  0  0  0  0  0  0
   43.4789  -41.1055  -15.3817 N   0  0  0  0  0  0  0  0  0  0  0  0
   41.9764  -41.0202  -13.6178 N   0  0  0  0  0  0  0  0  0  0  0  0
   44.6090  -38.5906  -14.4136 C   0  0  0  0  0  0  0  0  0  0  0  0
   45.2149  -37.4402  -13.9624 C   0  0  0  0  0  0  0  0  0  0  0  0
   55.7545  -35.4760  -13.7316 C   0  0  0  0  0  0  0  0  0  0  0  0
   56.4089  -34.2998  -13.1174 C   0  0  0  0  0  0  0  0  0  0  0  0
   57.8952  -34.4477  -13.1121 C   0  0  0  0  0  0  0  0  0  0  0  0
   58.5347  -33.9125  -11.8583 C   0  0  0  0  0  0  0  0  0  0  0  0
   58.8032  -35.0104  -10.8748 C   0  0  0  0  0  0  0  0  0  0  0  0
   56.4784  -36.4468  -14.0710 O   0  0  0  0  0  0  0  0  0  0  0  0
   59.6302  -35.9106  -11.2483 O   0  0  0  0  0  0  0  0  0  0  0  0
   58.1881  -35.0695   -9.5975 N   0  0  0  0  0  0  0  0  0  0  0  0
   57.1008  -34.5585   -5.1302 C   0  0  0  0  0  0  0  0  0  0  0  0
   56.9608  -34.4481   -6.5527 C   0  0  0  0  0  0  0  0  0  0  0  0
   57.9697  -34.0035   -7.3609 C   0  0  0  0  0  0  0  0  0  0  0  0
   59.1495  -33.6602   -6.7554 C   0  0  0  0  0  0  0  0  0  0  0  0
   59.2759  -33.7738   -5.3464 C   0  0  0  0  0  0  0  0  0  0  0  0
   58.4100  -34.3312   -3.0321 C   0  0  0  0  0  0  0  0  0  0  0  0
   57.9094  -33.0852   -2.3356 C   0  0  0  0  0  0  0  0  0  0  0  0
   58.5824  -32.0385   -2.4707 O   0  0  0  0  0  0  0  0  0  0  0  0
   58.2707  -34.2188   -4.5207 C   0  0  0  0  0  0  0  0  0  0  0  0
   57.7744  -33.8998   -8.8512 C   0  0  0  0  0  0  0  0  0  0  0  0
   47.4775  -31.6248   -1.3270 H   0  0  0  0  0  0  0  0  0  0  0  0
   46.2973  -37.5376   -2.9049 H   0  0  0  0  0  0  0  0  0  0  0  0
   41.2990  -41.6366  -14.0727 H   0  0  0  0  0  0  0  0  0  0  0  0
  2  1  1  6
  3  2  1  0
  2  5  1  0
  3  4  2  0
 10  3  1  0
  5  6  1  0
  6  7  1  0
  7  8  1  0
  8  9  1  0
  9 74  1  0
 11 10  1  0
 12 11  1  0
 11 14  1  6
 12 13  2  0
 21 12  1  0
 14 15  1  0
 15 16  1  0
 16 17  1  0
 17 18  1  0
 18 19  1  0
 18 20  2  0
 22 21  1  0
 23 22  1  0
 22 25  1  6
 23 24  2  0
 32 23  1  0
 25 26  1  0
 26 27  1  0
 27 28  1  0
 28 29  1  0
 29 30  1  0
 29 31  2  0
 33 32  1  1
 33 34  1  0
 38 33  1  0
 34 35  1  1
 34 36  1  0
 34 37  1  0
 38 39  2  0
 40 38  1  0
 41 40  1  0
 41 42  1  6
 44 41  1  0
 42 43  2  0
 42 49  1  0
 45 44  1  0
 46 45  1  0
 47 46  1  0
 48 47  1  0
 60 48  1  0
 49 50  1  0
 50 51  1  0
 51 52  2  0
 51 59  1  0
 52 53  1  0
 53 54  2  0
 54 55  1  0
 58 54  1  0
 55 56  1  0
 55 57  2  0
 59 58  2  0
 61 60  1  0
 60 65  2  0
 62 61  1  0
 63 62  1  0
 64 63  1  0
 64 66  2  0
 67 64  1  0
 77 67  1  0
 69 68  2  0
 68 76  1  0
 70 69  1  0
 70 71  2  0
 70 77  1  0
 71 72  1  0
 72 76  2  0
 74 73  1  0
 73 76  1  0
 74 75  2  0
 20 78  1  0
 31 79  1  0
 57 80  1  0
M  CHG  1   1   1
M  END
$$$$
