
     RDKit          3D

 80 82  0  0  0  0  0  0  0  0999 V2000
   52.3656  -38.3845   -4.8783 N   0  0  0  0  0  4  0  0  0  0  0  0
   51.9833  -37.1476   -4.2285 C   0  0  2  0  0  0  0  0  0  0  0  0
   51.4527  -36.1521   -5.1950 C   0  0  0  0  0  0  0  0  0  0  0  0
   51.8324  -34.9435   -5.0142 O   0  0  0  0  0  0  0  0  0  0  0  0
   53.1615  -36.6014   -3.4624 C   0  0  0  0  0  0  0  0  0  0  0  0
   54.3381  -36.2786   -4.3627 C   0  0  0  0  0  0  0  0  0  0  0  0
   55.5934  -36.0748   -3.5724 C   0  0  0  0  0  0  0  0  0  0  0  0
   56.8404  -36.3586   -4.3777 C   0  0  0  0  0  0  0  0  0  0  0  0
   57.4283  -35.1207   -4.8495 N   0  0  0  0  0  0  0  0  0  0  0  0
   50.5853  -36.4526   -6.2612 N   0  0  0  0  0  0  0  0  0  0  0  0
   49.4134  -37.3247   -6.1570 C   0  0  2  0  0  0  0  0  0  0  0  0
   48.9483  -37.7548   -7.4821 C   0  0  0  0  0  0  0  0  0  0  0  0
   49.9197  -38.1321   -8.2487 O   0  0  0  0  0  0  0  0  0  0  0  0
   48.4416  -36.6981   -5.2414 C   0  0  0  0  0  0  0  0  0  0  0  0
   48.9247  -35.4106   -4.5819 C   0  0  0  0  0  0  0  0  0  0  0  0
   48.2619  -34.2049   -5.1831 C   0  0  0  0  0  0  0  0  0  0  0  0
   47.8480  -33.2135   -4.2206 N   0  0  0  0  0  0  0  0  0  0  0  0
   47.2024  -32.0305   -4.6743 C   0  0  0  0  0  0  0  0  0  0  0  0
   45.8628  -31.7392   -4.3005 N   0  0  0  0  0  0  0  0  0  0  0  0
   47.7941  -31.1771   -5.4405 N   0  0  0  0  0  0  0  0  0  0  0  0
   47.6666  -37.8165   -8.0235 N   0  0  0  0  0  0  0  0  0  0  0  0
   46.5305  -38.6307   -7.5257 C   0  0  2  0  0  0  0  0  0  0  0  0
   46.5519  -39.9498   -8.2316 C   0  0  0  0  0  0  0  0  0  0  0  0
   47.1989  -40.8499   -7.5538 O   0  0  0  0  0  0  0  0  0  0  0  0
   45.3118  -37.8163   -7.7640 C   0  0  0  0  0  0  0  0  0  0  0  0
   44.6344  -37.1645   -6.6372 C   0  0  0  0  0  0  0  0  0  0  0  0
   45.1062  -37.3371   -5.2584 C   0  0  0  0  0  0  0  0  0  0  0  0
   44.4602  -38.3711   -4.5062 N   0  0  0  0  0  0  0  0  0  0  0  0
   44.7794  -38.5940   -3.1140 C   0  0  0  0  0  0  0  0  0  0  0  0
   44.9600  -39.9298   -2.6949 N   0  0  0  0  0  0  0  0  0  0  0  0
   44.8831  -37.5760   -2.3478 N   0  0  0  0  0  0  0  0  0  0  0  0
   45.9829  -40.2773   -9.4584 N   0  0  0  0  0  0  0  0  0  0  0  0
   46.3825  -39.8279  -10.7950 C   0  0  1  0  0  0  0  0  0  0  0  0
   46.8139  -41.0777  -11.5664 C   0  0  1  0  0  0  0  0  0  0  0  0
   47.1702  -40.8053  -12.9904 C   0  0  0  0  0  0  0  0  0  0  0  0
   47.9458  -41.7662  -10.8296 C   0  0  0  0  0  0  0  0  0  0  0  0
   45.6665  -42.0909  -11.5914 C   0  0  0  0  0  0  0  0  0  0  0  0
   45.2449  -39.2072  -11.5086 C   0  0  0  0  0  0  0  0  0  0  0  0
   44.0864  -39.4653  -11.0443 O   0  0  0  0  0  0  0  0  0  0  0  0
   45.3731  -38.3826  -12.6266 N   0  0  0  0  0  0  0  0  0  0  0  0
   46.1679  -37.1838  -12.7482 C   0  0  2  0  0  0  0  0  0  0  0  0
   45.2679  -36.0326  -12.9794 C   0  0  0  0  0  0  0  0  0  0  0  0
   44.4338  -36.0610  -13.9002 O   0  0  0  0  0  0  0  0  0  0  0  0
   47.0661  -37.3167  -13.9578 C   0  0  0  0  0  0  0  0  0  0  0  0
   48.5003  -37.0096  -13.6426 C   0  0  0  0  0  0  0  0  0  0  0  0
   49.0640  -36.2814  -14.8575 C   0  0  0  0  0  0  0  0  0  0  0  0
   50.5539  -36.1388  -14.7817 C   0  0  0  0  0  0  0  0  0  0  0  0
   51.1696  -36.6573  -15.9841 N   0  0  0  0  0  0  0  0  0  0  0  0
   45.3646  -34.9012  -12.1497 N   0  0  0  0  0  0  0  0  0  0  0  0
   45.8562  -34.8632  -10.8004 C   0  0  0  0  0  0  0  0  0  0  0  0
   47.3364  -34.6625  -10.7148 C   0  0  0  0  0  0  0  0  0  0  0  0
   48.2163  -35.4083  -11.4685 C   0  0  0  0  0  0  0  0  0  0  0  0
   49.5907  -35.2516  -11.4132 C   0  0  0  0  0  0  0  0  0  0  0  0
   50.1346  -34.3059  -10.5673 C   0  0  0  0  0  0  0  0  0  0  0  0
   51.5707  -34.0899  -10.4761 C   0  0  0  0  0  0  0  0  0  0  0  0
   52.1264  -33.1756   -9.5436 N   0  0  0  0  0  0  0  0  0  0  0  0
   52.4101  -34.7278  -11.2425 N   0  0  0  0  0  0  0  0  0  0  0  0
   49.2434  -33.5508   -9.8037 C   0  0  0  0  0  0  0  0  0  0  0  0
   47.8788  -33.7172   -9.8687 C   0  0  0  0  0  0  0  0  0  0  0  0
   52.5696  -36.6069  -16.2164 C   0  0  0  0  0  0  0  0  0  0  0  0
   53.4212  -35.4844  -15.7646 C   0  0  0  0  0  0  0  0  0  0  0  0
   54.8270  -35.6438  -16.2432 C   0  0  0  0  0  0  0  0  0  0  0  0
   55.8475  -35.2079  -15.2254 C   0  0  0  0  0  0  0  0  0  0  0  0
   56.3802  -36.3777  -14.4555 C   0  0  0  0  0  0  0  0  0  0  0  0
   53.1182  -37.5554  -16.8338 O   0  0  0  0  0  0  0  0  0  0  0  0
   57.0177  -37.2541  -15.1333 O   0  0  0  0  0  0  0  0  0  0  0  0
   56.2006  -36.5265  -13.0559 N   0  0  0  0  0  0  0  0  0  0  0  0
   56.6032  -36.3395   -8.4513 C   0  0  0  0  0  0  0  0  0  0  0  0
   56.0226  -36.1229   -9.7441 C   0  0  0  0  0  0  0  0  0  0  0  0
   56.7362  -35.6274  -10.7995 C   0  0  0  0  0  0  0  0  0  0  0  0
   58.0571  -35.3391  -10.5798 C   0  0  0  0  0  0  0  0  0  0  0  0
   58.6205  -35.5577   -9.2957 C   0  0  0  0  0  0  0  0  0  0  0  0
   58.5168  -36.2783   -6.8695 C   0  0  0  0  0  0  0  0  0  0  0  0
   58.3019  -35.0835   -5.9670 C   0  0  0  0  0  0  0  0  0  0  0  0
   58.9292  -34.0349   -6.2383 O   0  0  0  0  0  0  0  0  0  0  0  0
   57.9160  -36.0549   -8.2248 C   0  0  0  0  0  0  0  0  0  0  0  0
   56.0814  -35.4121  -12.1392 C   0  0  0  0  0  0  0  0  0  0  0  0
   47.2857  -30.4865   -6.0212 H   0  0  0  0  0  0  0  0  0  0  0  0
   45.4021  -37.6203   -1.4460 H   0  0  0  0  0  0  0  0  0  0  0  0
   52.1723  -35.5255  -11.8366 H   0  0  0  0  0  0  0  0  0  0  0  0
  2  1  1  6
  3  2  1  0
  2  5  1  0
  3  4  2  0
 10  3  1  0
  5  6  1  0
  6  7  1  0
  7  8  1  0
  8  9  1  0
  9 74  1  0
 11 10  1  0
 12 11  1  0
 11 14  1  6
 12 13  2  0
 21 12  1  0
 14 15  1  0
 15 16  1  0
 16 17  1  0
 17 18  1  0
 18 19  1  0
 18 20  2  0
 22 21  1  0
 23 22  1  0
 22 25  1  6
 23 24  2  0
 32 23  1  0
 25 26  1  0
 26 27  1  0
 27 28  1  0
 28 29  1  0
 29 30  1  0
 29 31  2  0
 33 32  1  1
 33 34  1  0
 38 33  1  0
 34 35  1  6
 34 36  1  0
 34 37  1  0
 38 39  2  0
 40 38  1  0
 41 40  1  0
 41 42  1  6
 44 41  1  0
 42 43  2  0
 42 49  1  0
 45 44  1  0
 46 45  1  0
 47 46  1  0
 48 47  1  0
 60 48  1  0
 49 50  1  0
 50 51  1  0
 51 52  2  0
 51 59  1  0
 52 53  1  0
 53 54  2  0
 54 55  1  0
 58 54  1  0
 55 56  1  0
 55 57  2  0
 59 58  2  0
 61 60  1  0
 60 65  2  0
 62 61  1  0
 63 62  1  0
 64 63  1  0
 64 66  2  0
 67 64  1  0
 77 67  1  0
 69 68  2  0
 68 76  1  0
 70 69  1  0
 70 71  2  0
 70 77  1  0
 71 72  1  0
 72 76  2  0
 74 73  1  0
 73 76  1  0
 74 75  2  0
 20 78  1  0
 31 79  1  0
 57 80  1  0
M  CHG  1   1   1
M  END
$$$$
