
     RDKit          3D

 34 37  0  0  0  0  0  0  0  0999 V2000
  -19.5638    5.6777   -0.7210 C   0  0  0  0  0  0  0  0  0  0  0  0
  -13.8640    8.6215   -2.1824 C   0  0  0  0  0  0  0  0  0  0  0  0
  -10.3801    8.6723   -0.8091 C   0  0  0  0  0  0  0  0  0  0  0  0
  -26.1750    9.7324   -2.4145 C   0  0  0  0  0  0  0  0  0  0  0  0
  -24.7561    9.9619   -2.1297 C   0  0  0  0  0  0  0  0  0  0  0  0
  -23.9802   10.8430   -2.8535 C   0  0  0  0  0  0  0  0  0  0  0  0
  -22.6576   11.0456   -2.5744 C   0  0  0  0  0  0  0  0  0  0  0  0
  -22.0809   10.3487   -1.5385 C   0  0  0  0  0  0  0  0  0  0  0  0
  -19.4668    9.1045   -1.7223 C   0  0  1  0  0  0  0  0  0  0  0  0
  -19.2196    6.9088   -1.4738 C   0  0  2  0  0  0  0  0  0  0  0  0
  -17.8073    6.8841   -2.0088 C   0  0  1  0  0  0  0  0  0  0  0  0
  -17.4333    8.1680   -2.6944 C   0  0  1  0  0  0  0  0  0  0  0  0
  -15.1824    8.7025   -1.7645 C   0  0  0  0  0  0  0  0  0  0  0  0
  -12.6978    9.0108   -1.4249 C   0  0  0  0  0  0  0  0  0  0  0  0
  -11.5144    8.3138   -1.5303 C   0  0  0  0  0  0  0  0  0  0  0  0
  -10.4355    9.7601    0.0408 C   0  0  0  0  0  0  0  0  0  0  0  0
  -11.6086   10.4677    0.1585 C   0  0  0  0  0  0  0  0  0  0  0  0
  -12.7200   10.0957   -0.5646 C   0  0  0  0  0  0  0  0  0  0  0  0
  -18.0261    9.3836   -2.0249 C   0  0  1  0  0  0  0  0  0  0  0  0
  -22.8142    9.4568   -0.7857 C   0  0  0  0  0  0  0  0  0  0  0  0
  -24.1444    9.2858   -1.1045 C   0  0  0  0  0  0  0  0  0  0  0  0
  -11.4415    7.2471   -2.3566 F   0  0  0  0  0  0  0  0  0  0  0  0
   -9.2433    7.9611   -0.9438 F   0  0  0  0  0  0  0  0  0  0  0  0
  -11.6466   11.5447    1.0063 F   0  0  0  0  0  0  0  0  0  0  0  0
  -13.8586   10.8053   -0.4321 F   0  0  0  0  0  0  0  0  0  0  0  0
  -15.9822    8.2493   -2.7384 N   0  0  0  0  0  0  0  0  0  0  0  0
  -13.9141    8.1147   -3.4120 N   0  0  0  0  0  0  0  0  0  0  0  0
  -15.1747    7.8968   -3.7341 N   0  0  0  0  0  0  0  0  0  0  0  0
  -19.4943    8.0812   -0.7733 O   0  0  0  0  0  0  0  0  0  0  0  0
  -19.5272    5.8051    0.6417 O   0  0  0  0  0  0  0  0  0  0  0  0
  -16.9176    6.5298   -0.9964 O   0  0  0  0  0  0  0  0  0  0  0  0
   -9.3010   10.1056    0.7517 O   0  0  0  0  0  0  0  0  0  0  0  0
  -17.9636   10.4702   -2.8969 O   0  0  0  0  0  0  0  0  0  0  0  0
  -20.3474   10.5553   -1.1037 S   0  0  0  0  0  0  0  0  0  0  0  0
 10  1  1  1
  1 30  1  0
  2 13  2  0
 14  2  1  0
  2 27  1  0
 15  3  2  0
  3 16  1  0
  3 23  1  0
  5  4  1  0
  6  5  2  0
  5 21  1  0
  7  6  1  0
  8  7  2  0
  8 20  1  0
 34  8  1  0
 19  9  1  0
  9 29  1  0
  9 34  1  1
 11 10  1  0
 10 29  1  0
 12 11  1  0
 11 31  1  1
 12 19  1  0
 12 26  1  1
 13 26  1  0
 14 15  1  0
 14 18  2  0
 15 22  1  0
 16 17  2  0
 16 32  1  0
 17 18  1  0
 17 24  1  0
 18 25  1  0
 19 33  1  6
 20 21  2  0
 26 28  1  0
 27 28  2  0
M  END
$$$$
