
     RDKit          3D

 34 37  0  0  0  0  0  0  0  0999 V2000
  -19.4367   10.9787   -4.1560 C   0  0  0  0  0  0  0  0  0  0  0  0
  -13.5197    8.7763   -1.4507 C   0  0  0  0  0  0  0  0  0  0  0  0
  -10.6688   10.0946    0.5892 C   0  0  0  0  0  0  0  0  0  0  0  0
  -25.9599    8.5638   -0.2364 C   0  0  0  0  0  0  0  0  0  0  0  0
  -24.6108    8.1573   -0.6386 C   0  0  0  0  0  0  0  0  0  0  0  0
  -23.8387    8.8895   -1.5161 C   0  0  0  0  0  0  0  0  0  0  0  0
  -22.5816    8.4962   -1.8808 C   0  0  0  0  0  0  0  0  0  0  0  0
  -22.0691    7.3327   -1.3565 C   0  0  0  0  0  0  0  0  0  0  0  0
  -19.3572    8.1936   -1.9217 C   0  0  1  0  0  0  0  0  0  0  0  0
  -19.0306   10.0856   -3.0432 C   0  0  2  0  0  0  0  0  0  0  0  0
  -17.5438   10.1274   -2.7808 C   0  0  1  0  0  0  0  0  0  0  0  0
  -17.1243    9.1569   -1.7129 C   0  0  1  0  0  0  0  0  0  0  0  0
  -14.7554    9.1323   -0.9355 C   0  0  0  0  0  0  0  0  0  0  0  0
  -12.2489    8.8609   -0.7698 C   0  0  0  0  0  0  0  0  0  0  0  0
  -11.8880    9.9930   -0.0729 C   0  0  0  0  0  0  0  0  0  0  0  0
   -9.7882    9.0308    0.5506 C   0  0  0  0  0  0  0  0  0  0  0  0
  -10.1318    7.8927   -0.1403 C   0  0  0  0  0  0  0  0  0  0  0  0
  -11.3440    7.8129   -0.7890 C   0  0  0  0  0  0  0  0  0  0  0  0
  -17.9046    7.8659   -1.7558 C   0  0  1  0  0  0  0  0  0  0  0  0
  -22.8015    6.5660   -0.4758 C   0  0  0  0  0  0  0  0  0  0  0  0
  -24.0644    7.0029   -0.1374 C   0  0  0  0  0  0  0  0  0  0  0  0
  -12.7366   11.0434   -0.0241 F   0  0  0  0  0  0  0  0  0  0  0  0
  -10.3577   11.2219    1.2590 F   0  0  0  0  0  0  0  0  0  0  0  0
   -9.2464    6.8461   -0.1686 F   0  0  0  0  0  0  0  0  0  0  0  0
  -11.6582    6.6865   -1.4597 F   0  0  0  0  0  0  0  0  0  0  0  0
  -15.6986    8.9128   -1.8606 N   0  0  0  0  0  0  0  0  0  0  0  0
  -13.7629    8.3480   -2.6871 N   0  0  0  0  0  0  0  0  0  0  0  0
  -15.0583    8.4324   -2.9221 N   0  0  0  0  0  0  0  0  0  0  0  0
  -19.5024    8.7818   -3.1793 O   0  0  0  0  0  0  0  0  0  0  0  0
  -20.7852   11.0396   -4.3847 O   0  0  0  0  0  0  0  0  0  0  0  0
  -16.8420    9.9600   -3.9730 O   0  0  0  0  0  0  0  0  0  0  0  0
   -8.5798    9.1449    1.2129 O   0  0  0  0  0  0  0  0  0  0  0  0
  -17.7435    7.1862   -0.5487 O   0  0  0  0  0  0  0  0  0  0  0  0
  -20.4239    6.7425   -1.7829 S   0  0  0  0  0  0  0  0  0  0  0  0
 10  1  1  6
  1 30  1  0
  2 13  2  0
 14  2  1  0
  2 27  1  0
 15  3  2  0
  3 16  1  0
  3 23  1  0
  5  4  1  0
  6  5  2  0
  5 21  1  0
  7  6  1  0
  8  7  2  0
  8 20  1  0
 34  8  1  0
 19  9  1  0
  9 29  1  0
  9 34  1  6
 11 10  1  0
 10 29  1  0
 12 11  1  0
 11 31  1  6
 12 19  1  0
 12 26  1  6
 13 26  1  0
 14 15  1  0
 14 18  2  0
 15 22  1  0
 16 17  2  0
 16 32  1  0
 17 18  1  0
 17 24  1  0
 18 25  1  0
 19 33  1  1
 20 21  2  0
 26 28  1  0
 27 28  2  0
M  END
$$$$
