
     RDKit          3D

 34 37  0  0  0  0  0  0  0  0999 V2000
  -19.6754    6.3157   -3.5609 C   0  0  0  0  0  0  0  0  0  0  0  0
  -14.0725    9.6500   -1.5317 C   0  0  0  0  0  0  0  0  0  0  0  0
  -11.3785    9.7056    1.0407 C   0  0  0  0  0  0  0  0  0  0  0  0
  -26.2280   11.5186   -1.0703 C   0  0  0  0  0  0  0  0  0  0  0  0
  -24.8853   10.9372   -0.7344 C   0  0  0  0  0  0  0  0  0  0  0  0
  -24.2267   11.3439    0.4065 C   0  0  0  0  0  0  0  0  0  0  0  0
  -22.9765   10.8118    0.7319 C   0  0  0  0  0  0  0  0  0  0  0  0
  -22.3675    9.8712   -0.0710 C   0  0  0  0  0  0  0  0  0  0  0  0
  -19.7334    8.8720   -1.0173 C   0  0  1  0  0  0  0  0  0  0  0  0
  -19.3264    7.5672   -2.7869 C   0  0  2  0  0  0  0  0  0  0  0  0
  -17.8170    7.7252   -2.6627 C   0  0  1  0  0  0  0  0  0  0  0  0
  -17.5631    9.0716   -2.0632 C   0  0  1  0  0  0  0  0  0  0  0  0
  -15.2470    9.0101   -1.1847 C   0  0  0  0  0  0  0  0  0  0  0  0
  -12.7724    9.4962   -0.8995 C   0  0  0  0  0  0  0  0  0  0  0  0
  -12.6058    9.8469    0.4278 C   0  0  0  0  0  0  0  0  0  0  0  0
  -10.2752    9.2184    0.3803 C   0  0  0  0  0  0  0  0  0  0  0  0
  -10.4373    8.8659   -0.9493 C   0  0  0  0  0  0  0  0  0  0  0  0
  -11.6599    9.0042   -1.5679 C   0  0  0  0  0  0  0  0  0  0  0  0
  -18.2514    9.1240   -0.7162 C   0  0  1  0  0  0  0  0  0  0  0  0
  -23.0393    9.4750   -1.2084 C   0  0  0  0  0  0  0  0  0  0  0  0
  -24.2833    9.9985   -1.5406 C   0  0  0  0  0  0  0  0  0  0  0  0
  -13.6238   10.3377    1.1766 F   0  0  0  0  0  0  0  0  0  0  0  0
  -11.2550   10.0590    2.3352 F   0  0  0  0  0  0  0  0  0  0  0  0
   -9.3443    8.3864   -1.5905 F   0  0  0  0  0  0  0  0  0  0  0  0
  -11.7455    8.6399   -2.8703 F   0  0  0  0  0  0  0  0  0  0  0  0
  -16.1814    9.4411   -2.0180 N   0  0  0  0  0  0  0  0  0  0  0  0
  -14.3535   10.4620   -2.5873 N   0  0  0  0  0  0  0  0  0  0  0  0
  -15.6232   10.3123   -2.8517 N   0  0  0  0  0  0  0  0  0  0  0  0
  -19.9381    7.5987   -1.5337 O   0  0  0  0  0  0  0  0  0  0  0  0
  -21.0280    6.1681   -3.7517 O   0  0  0  0  0  0  0  0  0  0  0  0
  -17.3570    6.6659   -1.9263 O   0  0  0  0  0  0  0  0  0  0  0  0
   -9.0853    9.1064    1.0593 O   0  0  0  0  0  0  0  0  0  0  0  0
  -18.1620   10.3892   -0.1390 O   0  0  0  0  0  0  0  0  0  0  0  0
  -20.7696    9.2319    0.4031 S   0  0  0  0  0  0  0  0  0  0  0  0
 10  1  1  0
  1 30  1  6
  2 13  2  0
 14  2  1  0
  2 27  1  0
 15  3  2  0
  3 16  1  0
  3 23  1  0
  4  5  1  6
  6  5  2  0
  5 21  1  0
  7  6  1  0
  8  7  2  0
  8 20  1  0
 34  8  1  0
 19  9  1  0
  9 29  1  0
  9 34  1  1
 11 10  1  0
 10 29  1  1
 12 11  1  0
 11 31  1  1
 12 19  1  0
 12 26  1  1
 13 26  1  0
 14 15  1  0
 14 18  2  0
 15 22  1  0
 16 17  2  0
 16 32  1  0
 17 18  1  0
 17 24  1  0
 18 25  1  0
 19 33  1  6
 20 21  2  0
 26 28  1  0
 27 28  2  0
M  END
$$$$
