
     RDKit          3D

 34 37  0  0  0  0  0  0  0  0999 V2000
  -19.5518    6.1015   -0.3564 C   0  0  0  0  0  0  0  0  0  0  0  0
  -13.6765    8.7989   -1.7767 C   0  0  0  0  0  0  0  0  0  0  0  0
  -10.3676   10.3820   -1.0209 C   0  0  0  0  0  0  0  0  0  0  0  0
  -25.9478    9.8458   -2.6501 C   0  0  0  0  0  0  0  0  0  0  0  0
  -24.5535   10.1296   -2.3002 C   0  0  0  0  0  0  0  0  0  0  0  0
  -24.1956   10.8754   -1.1966 C   0  0  0  0  0  0  0  0  0  0  0  0
  -22.8898   11.1308   -0.8841 C   0  0  0  0  0  0  0  0  0  0  0  0
  -21.8999   10.6282   -1.6958 C   0  0  0  0  0  0  0  0  0  0  0  0
  -19.2799    9.3836   -1.7380 C   0  0  1  0  0  0  0  0  0  0  0  0
  -19.1182    7.2274   -1.2196 C   0  0  2  0  0  0  0  0  0  0  0  0
  -17.6734    7.1085   -1.6436 C   0  0  1  0  0  0  0  0  0  0  0  0
  -17.2131    8.2941   -2.4441 C   0  0  1  0  0  0  0  0  0  0  0  0
  -15.0181    9.0031   -1.4975 C   0  0  0  0  0  0  0  0  0  0  0  0
  -12.5553    9.3432   -1.0473 C   0  0  0  0  0  0  0  0  0  0  0  0
  -11.4577    9.8536   -1.7048 C   0  0  0  0  0  0  0  0  0  0  0  0
  -10.3799   10.3985    0.3605 C   0  0  0  0  0  0  0  0  0  0  0  0
  -11.4673    9.8932    1.0336 C   0  0  0  0  0  0  0  0  0  0  0  0
  -12.5362    9.3746    0.3370 C   0  0  0  0  0  0  0  0  0  0  0  0
  -17.8137    9.5929   -1.9649 C   0  0  1  0  0  0  0  0  0  0  0  0
  -22.2065    9.8772   -2.8102 C   0  0  0  0  0  0  0  0  0  0  0  0
  -23.5374    9.6459   -3.0849 C   0  0  0  0  0  0  0  0  0  0  0  0
  -11.4281    9.8459   -3.0557 F   0  0  0  0  0  0  0  0  0  0  0  0
   -9.3149   10.8707   -1.7059 F   0  0  0  0  0  0  0  0  0  0  0  0
  -11.4635    9.9172    2.4045 F   0  0  0  0  0  0  0  0  0  0  0  0
  -13.5908    8.8851    1.0193 F   0  0  0  0  0  0  0  0  0  0  0  0
  -15.7607    8.3371   -2.3912 N   0  0  0  0  0  0  0  0  0  0  0  0
  -13.6552    8.0052   -2.8447 N   0  0  0  0  0  0  0  0  0  0  0  0
  -14.8961    7.7360   -3.2028 N   0  0  0  0  0  0  0  0  0  0  0  0
  -19.4050    8.4800   -0.6815 O   0  0  0  0  0  0  0  0  0  0  0  0
  -20.9074    5.9672   -0.2204 O   0  0  0  0  0  0  0  0  0  0  0  0
  -16.8679    6.8560   -0.5348 O   0  0  0  0  0  0  0  0  0  0  0  0
   -9.2901   10.9264    1.0279 O   0  0  0  0  0  0  0  0  0  0  0  0
  -17.6570   10.5677   -2.9500 O   0  0  0  0  0  0  0  0  0  0  0  0
  -20.1565   10.9164   -1.3575 S   0  0  0  0  0  0  0  0  0  0  0  0
 10  1  1  1
  1 30  1  0
  2 13  2  0
 14  2  1  0
  2 27  1  0
 15  3  2  0
  3 16  1  0
  3 23  1  0
  5  4  1  0
  6  5  2  0
  5 21  1  0
  7  6  1  0
  8  7  2  0
  8 20  1  0
 34  8  1  0
 19  9  1  0
  9 29  1  0
  9 34  1  1
 11 10  1  0
 10 29  1  0
 12 11  1  0
 11 31  1  1
 12 19  1  0
 12 26  1  1
 13 26  1  0
 14 15  1  0
 14 18  2  0
 15 22  1  0
 16 17  2  0
 16 32  1  0
 17 18  1  0
 17 24  1  0
 18 25  1  0
 19 33  1  6
 20 21  2  0
 26 28  1  0
 27 28  2  0
M  END
$$$$
