
     RDKit          3D

 34 37  0  0  0  0  0  0  0  0999 V2000
  -19.5250   10.1639   -4.8579 C   0  0  0  0  0  0  0  0  0  0  0  0
  -14.2052    9.0713   -0.8969 C   0  0  0  0  0  0  0  0  0  0  0  0
  -10.7910   10.5807   -1.1997 C   0  0  0  0  0  0  0  0  0  0  0  0
  -26.3094   11.1598   -0.1769 C   0  0  0  0  0  0  0  0  0  0  0  0
  -25.1020   10.3429   -0.3256 C   0  0  0  0  0  0  0  0  0  0  0  0
  -24.1446   10.2354    0.6613 C   0  0  0  0  0  0  0  0  0  0  0  0
  -23.0239    9.4685    0.5065 C   0  0  0  0  0  0  0  0  0  0  0  0
  -22.8442    8.7815   -0.6713 C   0  0  0  0  0  0  0  0  0  0  0  0
  -20.0952    8.8246   -1.5966 C   0  0  1  0  0  0  0  0  0  0  0  0
  -19.3657    9.8854   -3.4095 C   0  0  2  0  0  0  0  0  0  0  0  0
  -17.9190    9.8873   -2.9755 C   0  0  1  0  0  0  0  0  0  0  0  0
  -17.7561    9.5183   -1.5279 C   0  0  1  0  0  0  0  0  0  0  0  0
  -15.3431    9.8550   -0.9981 C   0  0  0  0  0  0  0  0  0  0  0  0
  -12.8762    9.5266   -0.5621 C   0  0  0  0  0  0  0  0  0  0  0  0
  -12.0739   10.1355   -1.5018 C   0  0  0  0  0  0  0  0  0  0  0  0
  -10.3004   10.4099    0.0805 C   0  0  0  0  0  0  0  0  0  0  0  0
  -11.0874    9.8041    1.0314 C   0  0  0  0  0  0  0  0  0  0  0  0
  -12.3548    9.3706    0.7112 C   0  0  0  0  0  0  0  0  0  0  0  0
  -18.7366    8.4627   -1.0787 C   0  0  1  0  0  0  0  0  0  0  0  0
  -23.7722    8.8566   -1.6875 C   0  0  0  0  0  0  0  0  0  0  0  0
  -24.8866    9.6425   -1.4856 C   0  0  0  0  0  0  0  0  0  0  0  0
  -12.5369   10.3111   -2.7590 F   0  0  0  0  0  0  0  0  0  0  0  0
  -10.0412   11.1713   -2.1512 F   0  0  0  0  0  0  0  0  0  0  0  0
  -10.5854    9.6424    2.2971 F   0  0  0  0  0  0  0  0  0  0  0  0
  -13.1072    8.7795    1.6608 F   0  0  0  0  0  0  0  0  0  0  0  0
  -16.3846    9.0796   -1.3262 N   0  0  0  0  0  0  0  0  0  0  0  0
  -14.6047    7.8318   -1.1713 N   0  0  0  0  0  0  0  0  0  0  0  0
  -15.8993    7.8458   -1.4249 N   0  0  0  0  0  0  0  0  0  0  0  0
  -20.0377    8.7399   -2.9888 O   0  0  0  0  0  0  0  0  0  0  0  0
  -20.2888    9.2552   -5.5400 O   0  0  0  0  0  0  0  0  0  0  0  0
  -17.1619    9.0867   -3.8286 O   0  0  0  0  0  0  0  0  0  0  0  0
   -9.0238   10.8569    0.3674 O   0  0  0  0  0  0  0  0  0  0  0  0
  -18.7896    8.4418    0.3148 O   0  0  0  0  0  0  0  0  0  0  0  0
  -21.3985    7.7495   -0.9578 S   0  0  0  0  0  0  0  0  0  0  0  0
 10  1  1  6
  1 30  1  0
  2 13  2  0
 14  2  1  0
  2 27  1  0
 15  3  2  0
  3 16  1  0
  3 23  1  0
  5  4  1  0
  6  5  2  0
  5 21  1  0
  7  6  1  0
  8  7  2  0
  8 20  1  0
 34  8  1  0
 19  9  1  0
  9 29  1  0
  9 34  1  1
 11 10  1  0
 10 29  1  0
 12 11  1  0
 11 31  1  6
 12 19  1  0
 12 26  1  6
 13 26  1  0
 14 15  1  0
 14 18  2  0
 15 22  1  0
 16 17  2  0
 16 32  1  0
 17 18  1  0
 17 24  1  0
 18 25  1  0
 19 33  1  1
 20 21  2  0
 26 28  1  0
 27 28  2  0
M  END
$$$$
