
     RDKit          3D

 34 37  0  0  0  0  0  0  0  0999 V2000
  -19.4779    6.1644    0.0372 C   0  0  0  0  0  0  0  0  0  0  0  0
  -13.5926    8.5481   -1.8109 C   0  0  0  0  0  0  0  0  0  0  0  0
  -11.2122    9.7883    0.8011 C   0  0  0  0  0  0  0  0  0  0  0  0
  -25.7597    9.6570   -3.7503 C   0  0  0  0  0  0  0  0  0  0  0  0
  -24.3672    9.8800   -3.3524 C   0  0  0  0  0  0  0  0  0  0  0  0
  -23.2952    9.4783   -4.1217 C   0  0  0  0  0  0  0  0  0  0  0  0
  -22.0020    9.6944   -3.7359 C   0  0  0  0  0  0  0  0  0  0  0  0
  -21.7607   10.3332   -2.5421 C   0  0  0  0  0  0  0  0  0  0  0  0
  -19.1986    9.0871   -1.9962 C   0  0  1  0  0  0  0  0  0  0  0  0
  -19.0349    7.0886   -1.0354 C   0  0  2  0  0  0  0  0  0  0  0  0
  -17.5822    6.8963   -1.4015 C   0  0  1  0  0  0  0  0  0  0  0  0
  -17.1139    7.8922   -2.4248 C   0  0  1  0  0  0  0  0  0  0  0  0
  -14.9399    8.7893   -1.5968 C   0  0  0  0  0  0  0  0  0  0  0  0
  -12.4873    9.2321   -1.1814 C   0  0  0  0  0  0  0  0  0  0  0  0
  -12.2705    9.1371    0.1756 C   0  0  0  0  0  0  0  0  0  0  0  0
  -10.3483   10.5555    0.0437 C   0  0  0  0  0  0  0  0  0  0  0  0
  -10.5494   10.6616   -1.3124 C   0  0  0  0  0  0  0  0  0  0  0  0
  -11.6036   10.0086   -1.9118 C   0  0  0  0  0  0  0  0  0  0  0  0
  -17.7297    9.2572   -2.2380 C   0  0  1  0  0  0  0  0  0  0  0  0
  -22.7981   10.7538   -1.7379 C   0  0  0  0  0  0  0  0  0  0  0  0
  -24.0854   10.5137   -2.1687 C   0  0  0  0  0  0  0  0  0  0  0  0
  -13.1052    8.3913    0.9324 F   0  0  0  0  0  0  0  0  0  0  0  0
  -11.0385    9.6669    2.1320 F   0  0  0  0  0  0  0  0  0  0  0  0
   -9.6828   11.4268   -2.0495 F   0  0  0  0  0  0  0  0  0  0  0  0
  -11.7799   10.1281   -3.2429 F   0  0  0  0  0  0  0  0  0  0  0  0
  -15.6630    7.9582   -2.3584 N   0  0  0  0  0  0  0  0  0  0  0  0
  -13.5480    7.5656   -2.7075 N   0  0  0  0  0  0  0  0  0  0  0  0
  -14.7809    7.2215   -3.0269 N   0  0  0  0  0  0  0  0  0  0  0  0
  -19.3378    8.4235   -0.7761 O   0  0  0  0  0  0  0  0  0  0  0  0
  -20.6245    5.4686   -0.2374 O   0  0  0  0  0  0  0  0  0  0  0  0
  -16.7953    6.8885   -0.2514 O   0  0  0  0  0  0  0  0  0  0  0  0
   -9.3006   11.1974    0.6779 O   0  0  0  0  0  0  0  0  0  0  0  0
  -17.5607   10.0057   -3.4025 O   0  0  0  0  0  0  0  0  0  0  0  0
  -20.0898   10.6578   -1.9593 S   0  0  0  0  0  0  0  0  0  0  0  0
 10  1  1  1
  1 30  1  0
  2 13  2  0
 14  2  1  0
  2 27  1  0
 15  3  2  0
  3 16  1  0
  3 23  1  0
  5  4  1  0
  6  5  2  0
  5 21  1  0
  7  6  1  0
  8  7  2  0
  8 20  1  0
 34  8  1  0
 19  9  1  0
  9 29  1  0
  9 34  1  1
 11 10  1  0
 10 29  1  0
 12 11  1  0
 11 31  1  1
 12 19  1  0
 12 26  1  1
 13 26  1  0
 14 15  1  0
 14 18  2  0
 15 22  1  0
 16 17  2  0
 16 32  1  0
 17 18  1  0
 17 24  1  0
 18 25  1  0
 19 33  1  6
 20 21  2  0
 26 28  1  0
 27 28  2  0
M  END
$$$$
