
     RDKit          3D

 34 37  0  0  0  0  0  0  0  0999 V2000
  -17.8037    5.6859   -1.7772 C   0  0  0  0  0  0  0  0  0  0  0  0
  -22.5993   10.2693   -0.7629 C   0  0  0  0  0  0  0  0  0  0  0  0
  -25.2924   11.3253    1.6158 C   0  0  0  0  0  0  0  0  0  0  0  0
  -10.6525    9.0370    1.4102 C   0  0  0  0  0  0  0  0  0  0  0  0
  -11.8291    9.2987    0.5769 C   0  0  0  0  0  0  0  0  0  0  0  0
  -12.8890   10.0730    1.0003 C   0  0  0  0  0  0  0  0  0  0  0  0
  -13.9792   10.3076    0.2101 C   0  0  0  0  0  0  0  0  0  0  0  0
  -14.0216    9.7541   -1.0481 C   0  0  0  0  0  0  0  0  0  0  0  0
  -16.8183    9.1043   -1.4622 C   0  0  1  0  0  0  0  0  0  0  0  0
  -17.7850    7.1052   -1.3458 C   0  0  2  0  0  0  0  0  0  0  0  0
  -19.1708    7.6543   -1.1022 C   0  0  1  0  0  0  0  0  0  0  0  0
  -19.1532    9.1154   -0.7513 C   0  0  1  0  0  0  0  0  0  0  0  0
  -21.5094    9.6697   -0.1531 C   0  0  0  0  0  0  0  0  0  0  0  0
  -23.9030   10.4782   -0.1779 C   0  0  0  0  0  0  0  0  0  0  0  0
  -24.0459   11.1147    1.0353 C   0  0  0  0  0  0  0  0  0  0  0  0
  -26.4261   10.8848    0.9606 C   0  0  0  0  0  0  0  0  0  0  0  0
  -26.3025   10.2474   -0.2515 C   0  0  0  0  0  0  0  0  0  0  0  0
  -25.0587   10.0491   -0.8086 C   0  0  0  0  0  0  0  0  0  0  0  0
  -18.0961    9.8857   -1.5039 C   0  0  1  0  0  0  0  0  0  0  0  0
  -12.9873    8.9729   -1.5170 C   0  0  0  0  0  0  0  0  0  0  0  0
  -11.9088    8.7643   -0.6842 C   0  0  0  0  0  0  0  0  0  0  0  0
  -22.9482   11.5524    1.6906 F   0  0  0  0  0  0  0  0  0  0  0  0
  -25.3846   11.9531    2.8048 F   0  0  0  0  0  0  0  0  0  0  0  0
  -27.4376    9.8165   -0.8886 F   0  0  0  0  0  0  0  0  0  0  0  0
  -24.9633    9.4215   -1.9979 F   0  0  0  0  0  0  0  0  0  0  0  0
  -20.4782    9.6565   -1.0076 N   0  0  0  0  0  0  0  0  0  0  0  0
  -22.1824   10.6023   -1.9822 N   0  0  0  0  0  0  0  0  0  0  0  0
  -20.9228   10.2351   -2.1190 N   0  0  0  0  0  0  0  0  0  0  0  0
  -17.0347    7.9284   -2.1827 O   0  0  0  0  0  0  0  0  0  0  0  0
  -17.7564    4.7723   -0.7586 O   0  0  0  0  0  0  0  0  0  0  0  0
  -19.9977    7.3661   -2.1862 O   0  0  0  0  0  0  0  0  0  0  0  0
  -27.6588   11.1004    1.5486 O   0  0  0  0  0  0  0  0  0  0  0  0
  -17.8807   11.1123   -0.8761 O   0  0  0  0  0  0  0  0  0  0  0  0
  -15.4180   10.0124   -2.1529 S   0  0  0  0  0  0  0  0  0  0  0  0
 10  1  1  6
  1 30  1  0
  2 13  2  0
 14  2  1  0
  2 27  1  0
 15  3  2  0
  3 16  1  0
  3 23  1  0
  5  4  1  0
  6  5  2  0
  5 21  1  0
  7  6  1  0
  8  7  2  0
  8 20  1  0
 34  8  1  0
 19  9  1  0
  9 29  1  0
  9 34  1  6
 11 10  1  0
 10 29  1  0
 12 11  1  0
 11 31  1  6
 12 19  1  0
 12 26  1  6
 13 26  1  0
 14 15  1  0
 14 18  2  0
 15 22  1  0
 16 17  2  0
 16 32  1  0
 17 18  1  0
 17 24  1  0
 18 25  1  0
 19 33  1  1
 20 21  2  0
 26 28  1  0
 27 28  2  0
M  END
$$$$
