
     RDKit          3D

 34 37  0  0  0  0  0  0  0  0999 V2000
  -20.5674    6.2832   -1.1262 C   0  0  0  0  0  0  0  0  0  0  0  0
  -13.9780    8.6978   -1.4983 C   0  0  0  0  0  0  0  0  0  0  0  0
  -10.6209   10.1156   -2.2715 C   0  0  0  0  0  0  0  0  0  0  0  0
  -26.2428   11.3953   -2.4269 C   0  0  0  0  0  0  0  0  0  0  0  0
  -24.7802   11.4033   -2.0886 C   0  0  0  0  0  0  0  0  0  0  0  0
  -24.2504   10.3984   -1.3073 C   0  0  0  0  0  0  0  0  0  0  0  0
  -22.8911   10.3928   -0.9842 C   0  0  0  0  0  0  0  0  0  0  0  0
  -22.0442   11.3836   -1.4329 C   0  0  0  0  0  0  0  0  0  0  0  0
  -19.5695    9.7384   -1.3972 C   0  0  1  0  0  0  0  0  0  0  0  0
  -19.7582    7.5119   -1.4766 C   0  0  2  0  0  0  0  0  0  0  0  0
  -18.2811    7.2914   -1.1801 C   0  0  1  0  0  0  0  0  0  0  0  0
  -17.5408    8.4674   -1.7330 C   0  0  1  0  0  0  0  0  0  0  0  0
  -15.2211    9.3010   -1.4803 C   0  0  0  0  0  0  0  0  0  0  0  0
  -12.6880    9.3465   -1.3296 C   0  0  0  0  0  0  0  0  0  0  0  0
  -11.8472    9.5014   -2.4166 C   0  0  0  0  0  0  0  0  0  0  0  0
  -10.1752   10.5980   -1.0634 C   0  0  0  0  0  0  0  0  0  0  0  0
  -11.0139   10.4450    0.0282 C   0  0  0  0  0  0  0  0  0  0  0  0
  -12.2399    9.8328   -0.1093 C   0  0  0  0  0  0  0  0  0  0  0  0
  -18.0734    9.7157   -1.0630 C   0  0  1  0  0  0  0  0  0  0  0  0
  -22.5897   12.3813   -2.2133 C   0  0  0  0  0  0  0  0  0  0  0  0
  -23.9405   12.3956   -2.5401 C   0  0  0  0  0  0  0  0  0  0  0  0
  -12.1830    9.0645   -3.6552 F   0  0  0  0  0  0  0  0  0  0  0  0
   -9.8289   10.2473   -3.3537 F   0  0  0  0  0  0  0  0  0  0  0  0
  -10.5656   10.9244    1.2134 F   0  0  0  0  0  0  0  0  0  0  0  0
  -13.0080    9.7172    1.0011 F   0  0  0  0  0  0  0  0  0  0  0  0
  -16.1164    8.3444   -1.6711 N   0  0  0  0  0  0  0  0  0  0  0  0
  -14.1794    7.3675   -1.7047 N   0  0  0  0  0  0  0  0  0  0  0  0
  -15.4693    7.1916   -1.8035 N   0  0  0  0  0  0  0  0  0  0  0  0
  -20.2329    8.6554   -0.8342 O   0  0  0  0  0  0  0  0  0  0  0  0
  -19.8648    5.1156   -1.3020 O   0  0  0  0  0  0  0  0  0  0  0  0
  -18.1604    7.1133    0.1725 O   0  0  0  0  0  0  0  0  0  0  0  0
   -8.9405   11.1985   -0.9981 O   0  0  0  0  0  0  0  0  0  0  0  0
  -17.5166   10.8718   -1.6066 O   0  0  0  0  0  0  0  0  0  0  0  0
  -20.3179   11.3163   -0.9836 S   0  0  0  0  0  0  0  0  0  0  0  0
 10  1  1  0
  1 30  1  6
  2 13  2  0
 14  2  1  0
  2 27  1  0
 15  3  2  0
  3 16  1  0
  3 23  1  0
  4  5  1  6
  6  5  2  0
  5 21  1  0
  7  6  1  0
  8  7  2  0
  8 20  1  0
 34  8  1  0
 19  9  1  0
  9 29  1  0
  9 34  1  1
 11 10  1  0
 10 29  1  1
 12 11  1  0
 11 31  1  1
 12 19  1  0
 12 26  1  1
 13 26  1  0
 14 15  1  0
 14 18  2  0
 15 22  1  0
 16 17  2  0
 16 32  1  0
 17 18  1  0
 17 24  1  0
 18 25  1  0
 19 33  1  6
 20 21  2  0
 26 28  1  0
 27 28  2  0
M  END
$$$$
