
     RDKit          3D

 34 37  0  0  0  0  0  0  0  0999 V2000
  -19.6850    5.8318   -0.7617 C   0  0  0  0  0  0  0  0  0  0  0  0
  -13.7158    8.7969   -1.9287 C   0  0  0  0  0  0  0  0  0  0  0  0
  -10.0511    8.5423   -1.3097 C   0  0  0  0  0  0  0  0  0  0  0  0
  -26.2987    9.7618   -2.6327 C   0  0  0  0  0  0  0  0  0  0  0  0
  -24.8661   10.0408   -2.2810 C   0  0  0  0  0  0  0  0  0  0  0  0
  -23.8690    9.2156   -2.7560 C   0  0  0  0  0  0  0  0  0  0  0  0
  -22.5314    9.4627   -2.4368 C   0  0  0  0  0  0  0  0  0  0  0  0
  -22.1699   10.5305   -1.6435 C   0  0  0  0  0  0  0  0  0  0  0  0
  -19.4512    9.3305   -1.6054 C   0  0  1  0  0  0  0  0  0  0  0  0
  -19.1943    7.1206   -1.3823 C   0  0  2  0  0  0  0  0  0  0  0  0
  -17.6772    7.2202   -1.2980 C   0  0  1  0  0  0  0  0  0  0  0  0
  -17.2692    8.4150   -2.0997 C   0  0  1  0  0  0  0  0  0  0  0  0
  -14.9392    8.6755   -1.2978 C   0  0  0  0  0  0  0  0  0  0  0  0
  -12.4154    8.9438   -1.2955 C   0  0  0  0  0  0  0  0  0  0  0  0
  -11.2912    8.4099   -1.8985 C   0  0  0  0  0  0  0  0  0  0  0  0
   -9.8672    9.1986   -0.1155 C   0  0  0  0  0  0  0  0  0  0  0  0
  -10.9904    9.7349    0.4921 C   0  0  0  0  0  0  0  0  0  0  0  0
  -12.2319    9.6067   -0.0900 C   0  0  0  0  0  0  0  0  0  0  0  0
  -17.9509    9.6314   -1.5111 C   0  0  1  0  0  0  0  0  0  0  0  0
  -23.1791   11.3463   -1.1765 C   0  0  0  0  0  0  0  0  0  0  0  0
  -24.5125   11.1087   -1.4885 C   0  0  0  0  0  0  0  0  0  0  0  0
  -11.3539    7.7427   -3.0770 F   0  0  0  0  0  0  0  0  0  0  0  0
   -8.9792    8.0077   -1.9271 F   0  0  0  0  0  0  0  0  0  0  0  0
  -10.7980   10.3801    1.6679 F   0  0  0  0  0  0  0  0  0  0  0  0
  -13.2862   10.1558    0.5604 F   0  0  0  0  0  0  0  0  0  0  0  0
  -15.8539    8.5644   -2.2488 N   0  0  0  0  0  0  0  0  0  0  0  0
  -13.9484    8.7531   -3.2691 N   0  0  0  0  0  0  0  0  0  0  0  0
  -15.2372    8.6136   -3.4246 N   0  0  0  0  0  0  0  0  0  0  0  0
  -19.8021    8.2417   -0.8171 O   0  0  0  0  0  0  0  0  0  0  0  0
  -20.6815    5.2340   -1.4948 O   0  0  0  0  0  0  0  0  0  0  0  0
  -17.3468    7.2723    0.0302 O   0  0  0  0  0  0  0  0  0  0  0  0
   -8.5998    9.2896    0.4087 O   0  0  0  0  0  0  0  0  0  0  0  0
  -17.7157   10.7747   -2.2725 O   0  0  0  0  0  0  0  0  0  0  0  0
  -20.4427   10.7894   -1.2743 S   0  0  0  0  0  0  0  0  0  0  0  0
 10  1  1  0
  1 30  1  6
  2 13  2  0
 14  2  1  0
  2 27  1  0
 15  3  2  0
  3 16  1  0
  3 23  1  0
  4  5  1  6
  6  5  2  0
  5 21  1  0
  7  6  1  0
  8  7  2  0
  8 20  1  0
 34  8  1  0
 19  9  1  0
  9 29  1  0
  9 34  1  1
 11 10  1  0
 10 29  1  1
 12 11  1  0
 11 31  1  1
 12 19  1  0
 12 26  1  1
 13 26  1  0
 14 15  1  0
 14 18  2  0
 15 22  1  0
 16 17  2  0
 16 32  1  0
 17 18  1  0
 17 24  1  0
 18 25  1  0
 19 33  1  6
 20 21  2  0
 26 28  1  0
 27 28  2  0
M  END
$$$$
