
     RDKit          3D

 34 37  0  0  0  0  0  0  0  0999 V2000
  -20.0705    8.1007   -4.5279 C   0  0  0  0  0  0  0  0  0  0  0  0
  -14.3897    8.9271   -0.8871 C   0  0  0  0  0  0  0  0  0  0  0  0
  -10.7766    9.0545    0.0905 C   0  0  0  0  0  0  0  0  0  0  0  0
  -26.3324   12.2088   -1.7286 C   0  0  0  0  0  0  0  0  0  0  0  0
  -25.1998   11.3845   -1.2986 C   0  0  0  0  0  0  0  0  0  0  0  0
  -25.1423   10.0227   -1.5094 C   0  0  0  0  0  0  0  0  0  0  0  0
  -24.0779    9.2683   -1.1021 C   0  0  0  0  0  0  0  0  0  0  0  0
  -23.0297    9.8861   -0.4611 C   0  0  0  0  0  0  0  0  0  0  0  0
  -20.2958    9.1867   -1.1331 C   0  0  1  0  0  0  0  0  0  0  0  0
  -19.7345    8.7591   -3.2417 C   0  0  2  0  0  0  0  0  0  0  0  0
  -18.2471    8.7951   -2.9812 C   0  0  1  0  0  0  0  0  0  0  0  0
  -17.9160    9.3829   -1.6384 C   0  0  1  0  0  0  0  0  0  0  0  0
  -15.4646    9.6941   -1.3062 C   0  0  0  0  0  0  0  0  0  0  0  0
  -13.0163    9.3602   -0.7788 C   0  0  0  0  0  0  0  0  0  0  0  0
  -12.1036    8.6539   -0.0268 C   0  0  0  0  0  0  0  0  0  0  0  0
  -10.3545   10.1950   -0.5649 C   0  0  0  0  0  0  0  0  0  0  0  0
  -11.2519   10.9127   -1.3202 C   0  0  0  0  0  0  0  0  0  0  0  0
  -12.5614   10.4985   -1.4230 C   0  0  0  0  0  0  0  0  0  0  0  0
  -18.9174    9.0098   -0.5729 C   0  0  1  0  0  0  0  0  0  0  0  0
  -23.0401   11.2444   -0.2269 C   0  0  0  0  0  0  0  0  0  0  0  0
  -24.1350   11.9638   -0.6559 C   0  0  0  0  0  0  0  0  0  0  0  0
  -12.4983    7.5358    0.6212 F   0  0  0  0  0  0  0  0  0  0  0  0
   -9.9182    8.3321    0.8373 F   0  0  0  0  0  0  0  0  0  0  0  0
  -10.8167   12.0422   -1.9643 F   0  0  0  0  0  0  0  0  0  0  0  0
  -13.4223   11.2189   -2.1694 F   0  0  0  0  0  0  0  0  0  0  0  0
  -16.5770    8.9489   -1.2742 N   0  0  0  0  0  0  0  0  0  0  0  0
  -14.8976    7.7280   -0.6125 N   0  0  0  0  0  0  0  0  0  0  0  0
  -16.1959    7.7496   -0.8450 N   0  0  0  0  0  0  0  0  0  0  0  0
  -20.4443    8.2493   -2.1567 O   0  0  0  0  0  0  0  0  0  0  0  0
  -21.0659    8.7085   -5.2449 O   0  0  0  0  0  0  0  0  0  0  0  0
  -17.6968    7.5289   -3.1705 O   0  0  0  0  0  0  0  0  0  0  0  0
   -9.0330   10.5821   -0.4399 O   0  0  0  0  0  0  0  0  0  0  0  0
  -18.7743    9.8662    0.5185 O   0  0  0  0  0  0  0  0  0  0  0  0
  -21.5904    8.9686    0.1076 S   0  0  0  0  0  0  0  0  0  0  0  0
 10  1  1  6
  1 30  1  0
  2 13  2  0
 14  2  1  0
  2 27  1  0
 15  3  2  0
  3 16  1  0
  3 23  1  0
  5  4  1  0
  6  5  2  0
  5 21  1  0
  7  6  1  0
  8  7  2  0
  8 20  1  0
 34  8  1  0
 19  9  1  0
  9 29  1  0
  9 34  1  1
 11 10  1  0
 10 29  1  0
 12 11  1  0
 11 31  1  1
 12 19  1  0
 12 26  1  1
 13 26  1  0
 14 15  1  0
 14 18  2  0
 15 22  1  0
 16 17  2  0
 16 32  1  0
 17 18  1  0
 17 24  1  0
 18 25  1  0
 19 33  1  1
 20 21  2  0
 26 28  1  0
 27 28  2  0
M  END
$$$$
