
     RDKit          3D

 34 37  0  0  0  0  0  0  0  0999 V2000
  -19.4384    9.1049   -4.8311 C   0  0  0  0  0  0  0  0  0  0  0  0
  -13.9014    8.6870   -0.8446 C   0  0  0  0  0  0  0  0  0  0  0  0
  -10.2351    9.4470   -0.9276 C   0  0  0  0  0  0  0  0  0  0  0  0
  -25.8589   11.9323   -0.6409 C   0  0  0  0  0  0  0  0  0  0  0  0
  -24.6777   11.0721   -0.5312 C   0  0  0  0  0  0  0  0  0  0  0  0
  -23.4429   11.5427   -0.1360 C   0  0  0  0  0  0  0  0  0  0  0  0
  -22.3510   10.7266   -0.0387 C   0  0  0  0  0  0  0  0  0  0  0  0
  -22.4868    9.3926   -0.3445 C   0  0  0  0  0  0  0  0  0  0  0  0
  -19.7830    8.9164   -1.2813 C   0  0  1  0  0  0  0  0  0  0  0  0
  -19.1554    9.2725   -3.3845 C   0  0  2  0  0  0  0  0  0  0  0  0
  -17.6769    9.2428   -3.0769 C   0  0  1  0  0  0  0  0  0  0  0  0
  -17.3981    9.3243   -1.6025 C   0  0  1  0  0  0  0  0  0  0  0  0
  -15.0011    9.5236   -0.9457 C   0  0  0  0  0  0  0  0  0  0  0  0
  -12.5725    9.0630   -0.4227 C   0  0  0  0  0  0  0  0  0  0  0  0
  -11.5224    9.0881   -1.3139 C   0  0  0  0  0  0  0  0  0  0  0  0
   -9.9956    9.7901    0.3890 C   0  0  0  0  0  0  0  0  0  0  0  0
  -11.0320    9.7707    1.2925 C   0  0  0  0  0  0  0  0  0  0  0  0
  -12.2991    9.4123    0.8890 C   0  0  0  0  0  0  0  0  0  0  0  0
  -18.4146    8.5796   -0.7723 C   0  0  1  0  0  0  0  0  0  0  0  0
  -23.6998    8.8743   -0.7442 C   0  0  0  0  0  0  0  0  0  0  0  0
  -24.7726    9.7359   -0.8276 C   0  0  0  0  0  0  0  0  0  0  0  0
  -11.7378    8.7556   -2.6058 F   0  0  0  0  0  0  0  0  0  0  0  0
   -9.2379    9.4575   -1.8341 F   0  0  0  0  0  0  0  0  0  0  0  0
  -10.7773   10.1141    2.5954 F   0  0  0  0  0  0  0  0  0  0  0  0
  -13.2987    9.4009    1.7935 F   0  0  0  0  0  0  0  0  0  0  0  0
  -16.0563    8.8155   -1.3688 N   0  0  0  0  0  0  0  0  0  0  0  0
  -14.3370    7.4853   -1.2155 N   0  0  0  0  0  0  0  0  0  0  0  0
  -15.6165    7.5706   -1.5248 N   0  0  0  0  0  0  0  0  0  0  0  0
  -19.8769    8.3986   -2.5742 O   0  0  0  0  0  0  0  0  0  0  0  0
  -20.4319    9.9089   -5.3219 O   0  0  0  0  0  0  0  0  0  0  0  0
  -17.0839    8.1361   -3.6814 O   0  0  0  0  0  0  0  0  0  0  0  0
   -8.7117   10.1448    0.7597 O   0  0  0  0  0  0  0  0  0  0  0  0
  -18.3253    8.9976    0.5552 O   0  0  0  0  0  0  0  0  0  0  0  0
  -21.1016    8.2490   -0.2428 S   0  0  0  0  0  0  0  0  0  0  0  0
 10  1  1  6
  1 30  1  0
  2 13  2  0
 14  2  1  0
  2 27  1  0
 15  3  2  0
  3 16  1  0
  3 23  1  0
  5  4  1  0
  6  5  2  0
  5 21  1  0
  7  6  1  0
  8  7  2  0
  8 20  1  0
 34  8  1  0
 19  9  1  0
  9 29  1  0
  9 34  1  1
 11 10  1  0
 10 29  1  0
 12 11  1  0
 11 31  1  1
 12 19  1  0
 12 26  1  6
 13 26  1  0
 14 15  1  0
 14 18  2  0
 15 22  1  0
 16 17  2  0
 16 32  1  0
 17 18  1  0
 17 24  1  0
 18 25  1  0
 19 33  1  1
 20 21  2  0
 26 28  1  0
 27 28  2  0
M  END
$$$$
