
     RDKit          3D

 34 37  0  0  0  0  0  0  0  0999 V2000
  -20.2104    6.5820   -0.2606 C   0  0  0  0  0  0  0  0  0  0  0  0
  -14.4734    9.6139   -2.0785 C   0  0  0  0  0  0  0  0  0  0  0  0
  -11.2020    7.8824   -1.6569 C   0  0  0  0  0  0  0  0  0  0  0  0
  -27.2001    8.7196   -3.3286 C   0  0  0  0  0  0  0  0  0  0  0  0
  -25.8202    9.2464   -3.0597 C   0  0  0  0  0  0  0  0  0  0  0  0
  -25.4368   10.4646   -3.5790 C   0  0  0  0  0  0  0  0  0  0  0  0
  -24.1559   10.9675   -3.3372 C   0  0  0  0  0  0  0  0  0  0  0  0
  -23.2430   10.2671   -2.5781 C   0  0  0  0  0  0  0  0  0  0  0  0
  -20.3716    9.7057   -2.0563 C   0  0  1  0  0  0  0  0  0  0  0  0
  -19.8191    7.7332   -1.1600 C   0  0  2  0  0  0  0  0  0  0  0  0
  -18.3796    8.1577   -0.9027 C   0  0  1  0  0  0  0  0  0  0  0  0
  -18.0198    9.1556   -1.9570 C   0  0  1  0  0  0  0  0  0  0  0  0
  -15.5812    8.7992   -2.2143 C   0  0  0  0  0  0  0  0  0  0  0  0
  -13.0822    9.2385   -2.2710 C   0  0  0  0  0  0  0  0  0  0  0  0
  -12.5202    8.2493   -1.4847 C   0  0  0  0  0  0  0  0  0  0  0  0
  -10.3899    8.4673   -2.5999 C   0  0  0  0  0  0  0  0  0  0  0  0
  -10.9485    9.4586   -3.3897 C   0  0  0  0  0  0  0  0  0  0  0  0
  -12.2641    9.8301   -3.2236 C   0  0  0  0  0  0  0  0  0  0  0  0
  -18.9817   10.3192   -1.8511 C   0  0  1  0  0  0  0  0  0  0  0  0
  -23.6421    9.0503   -2.0659 C   0  0  0  0  0  0  0  0  0  0  0  0
  -24.9140    8.5417   -2.3009 C   0  0  0  0  0  0  0  0  0  0  0  0
  -13.2266    7.6044   -0.5241 F   0  0  0  0  0  0  0  0  0  0  0  0
  -10.6897    6.9151   -0.8709 F   0  0  0  0  0  0  0  0  0  0  0  0
  -10.1401   10.0277   -4.3161 F   0  0  0  0  0  0  0  0  0  0  0  0
  -12.7438   10.8069   -4.0310 F   0  0  0  0  0  0  0  0  0  0  0  0
  -16.6428    9.5448   -1.9489 N   0  0  0  0  0  0  0  0  0  0  0  0
  -14.9234   10.8496   -1.7275 N   0  0  0  0  0  0  0  0  0  0  0  0
  -16.2249   10.7723   -1.6590 N   0  0  0  0  0  0  0  0  0  0  0  0
  -20.6901    8.8158   -1.0381 O   0  0  0  0  0  0  0  0  0  0  0  0
  -19.9570    5.3555   -0.8258 O   0  0  0  0  0  0  0  0  0  0  0  0
  -18.3176    8.6245    0.3835 O   0  0  0  0  0  0  0  0  0  0  0  0
   -9.0859    8.0474   -2.7118 O   0  0  0  0  0  0  0  0  0  0  0  0
  -18.7890   11.2441   -2.8755 O   0  0  0  0  0  0  0  0  0  0  0  0
  -21.6233   10.9670   -2.3075 S   0  0  0  0  0  0  0  0  0  0  0  0
 10  1  1  0
  1 30  1  6
  2 13  2  0
 14  2  1  0
  2 27  1  0
 15  3  2  0
  3 16  1  0
  3 23  1  0
  4  5  1  6
  6  5  2  0
  5 21  1  0
  7  6  1  0
  8  7  2  0
  8 20  1  0
 34  8  1  0
 19  9  1  0
  9 29  1  0
  9 34  1  1
 11 10  1  0
 10 29  1  1
 12 11  1  0
 11 31  1  1
 12 19  1  0
 12 26  1  1
 13 26  1  0
 14 15  1  0
 14 18  2  0
 15 22  1  0
 16 17  2  0
 16 32  1  0
 17 18  1  0
 17 24  1  0
 18 25  1  0
 19 33  1  6
 20 21  2  0
 26 28  1  0
 27 28  2  0
M  END
$$$$
