
     RDKit          3D

 34 37  0  0  0  0  0  0  0  0999 V2000
  -20.1494    5.9890   -1.3352 C   0  0  0  0  0  0  0  0  0  0  0  0
  -14.0650    9.3263   -1.7139 C   0  0  0  0  0  0  0  0  0  0  0  0
  -11.2118   11.7515   -1.6502 C   0  0  0  0  0  0  0  0  0  0  0  0
  -26.4472   10.6782   -2.5026 C   0  0  0  0  0  0  0  0  0  0  0  0
  -25.0690   10.6859   -2.0049 C   0  0  0  0  0  0  0  0  0  0  0  0
  -24.0021   10.2257   -2.7479 C   0  0  0  0  0  0  0  0  0  0  0  0
  -22.7223   10.2402   -2.2687 C   0  0  0  0  0  0  0  0  0  0  0  0
  -22.4897   10.7293   -1.0045 C   0  0  0  0  0  0  0  0  0  0  0  0
  -19.8469    9.5432   -1.1579 C   0  0  1  0  0  0  0  0  0  0  0  0
  -19.6565    7.3675   -1.5754 C   0  0  2  0  0  0  0  0  0  0  0  0
  -18.1640    7.4172   -1.8017 C   0  0  1  0  0  0  0  0  0  0  0  0
  -17.6559    8.8230   -1.9568 C   0  0  1  0  0  0  0  0  0  0  0  0
  -15.3162    9.6443   -2.2167 C   0  0  0  0  0  0  0  0  0  0  0  0
  -12.8186    9.9809   -2.0358 C   0  0  0  0  0  0  0  0  0  0  0  0
  -12.4083   11.1061   -1.3553 C   0  0  0  0  0  0  0  0  0  0  0  0
  -10.4054   11.2537   -2.6555 C   0  0  0  0  0  0  0  0  0  0  0  0
  -10.7991   10.1313   -3.3454 C   0  0  0  0  0  0  0  0  0  0  0  0
  -11.9878    9.5076   -3.0374 C   0  0  0  0  0  0  0  0  0  0  0  0
  -18.3747    9.8069   -1.0667 C   0  0  1  0  0  0  0  0  0  0  0  0
  -23.5225   11.2006   -0.2228 C   0  0  0  0  0  0  0  0  0  0  0  0
  -24.7963   11.1659   -0.7489 C   0  0  0  0  0  0  0  0  0  0  0  0
  -13.1840   11.6072   -0.3689 F   0  0  0  0  0  0  0  0  0  0  0  0
  -10.8502   12.8498   -0.9579 F   0  0  0  0  0  0  0  0  0  0  0  0
   -9.9872    9.6503   -4.3401 F   0  0  0  0  0  0  0  0  0  0  0  0
  -12.3521    8.4087   -3.7280 F   0  0  0  0  0  0  0  0  0  0  0  0
  -16.2273    8.8182   -1.6866 N   0  0  0  0  0  0  0  0  0  0  0  0
  -14.2669    8.3044   -0.8856 N   0  0  0  0  0  0  0  0  0  0  0  0
  -15.5526    8.0093   -0.8753 N   0  0  0  0  0  0  0  0  0  0  0  0
  -20.0705    8.2800   -0.6075 O   0  0  0  0  0  0  0  0  0  0  0  0
  -21.4735    5.8997   -0.9990 O   0  0  0  0  0  0  0  0  0  0  0  0
  -17.5036    6.7085   -0.8000 O   0  0  0  0  0  0  0  0  0  0  0  0
   -9.2189   11.9047   -2.9385 O   0  0  0  0  0  0  0  0  0  0  0  0
  -18.1328   11.1039   -1.5186 O   0  0  0  0  0  0  0  0  0  0  0  0
  -20.8365   10.7849   -0.2969 S   0  0  0  0  0  0  0  0  0  0  0  0
 10  1  1  1
  1 30  1  0
  2 13  2  0
 14  2  1  0
  2 27  1  0
 15  3  2  0
  3 16  1  0
  3 23  1  0
  5  4  1  0
  6  5  2  0
  5 21  1  0
  7  6  1  0
  8  7  2  0
  8 20  1  0
 34  8  1  0
 19  9  1  0
  9 29  1  0
  9 34  1  1
 11 10  1  0
 10 29  1  0
 12 11  1  0
 11 31  1  1
 12 19  1  0
 12 26  1  1
 13 26  1  0
 14 15  1  0
 14 18  2  0
 15 22  1  0
 16 17  2  0
 16 32  1  0
 17 18  1  0
 17 24  1  0
 18 25  1  0
 19 33  1  6
 20 21  2  0
 26 28  1  0
 27 28  2  0
M  END
$$$$
