
     RDKit          3D

 34 37  0  0  0  0  0  0  0  0999 V2000
  -20.5047    5.9862   -2.1145 C   0  0  0  0  0  0  0  0  0  0  0  0
  -14.3832    9.2953   -1.8883 C   0  0  0  0  0  0  0  0  0  0  0  0
  -11.3187   11.4018   -2.1102 C   0  0  0  0  0  0  0  0  0  0  0  0
  -26.6197   11.5289   -2.4268 C   0  0  0  0  0  0  0  0  0  0  0  0
  -25.2496   11.2896   -1.8617 C   0  0  0  0  0  0  0  0  0  0  0  0
  -25.1058   10.9275   -0.5392 C   0  0  0  0  0  0  0  0  0  0  0  0
  -23.8371   10.7016    0.0007 C   0  0  0  0  0  0  0  0  0  0  0  0
  -22.6989   10.8326   -0.7658 C   0  0  0  0  0  0  0  0  0  0  0  0
  -20.1120    9.3843   -0.9714 C   0  0  1  0  0  0  0  0  0  0  0  0
  -19.9223    7.3683   -1.9196 C   0  0  2  0  0  0  0  0  0  0  0  0
  -18.4237    7.2939   -1.6606 C   0  0  1  0  0  0  0  0  0  0  0  0
  -17.9042    8.6963   -1.6758 C   0  0  1  0  0  0  0  0  0  0  0  0
  -15.6684    9.5373   -2.3344 C   0  0  0  0  0  0  0  0  0  0  0  0
  -13.1553    9.8861   -2.3949 C   0  0  0  0  0  0  0  0  0  0  0  0
  -12.4850   10.8334   -1.6426 C   0  0  0  0  0  0  0  0  0  0  0  0
  -10.7687   11.0655   -3.3248 C   0  0  0  0  0  0  0  0  0  0  0  0
  -11.4366   10.1172   -4.0817 C   0  0  0  0  0  0  0  0  0  0  0  0
  -12.6017    9.5453   -3.6212 C   0  0  0  0  0  0  0  0  0  0  0  0
  -18.6275    9.4774   -0.5999 C   0  0  1  0  0  0  0  0  0  0  0  0
  -22.8599   11.1953   -2.0867 C   0  0  0  0  0  0  0  0  0  0  0  0
  -24.1177   11.4221   -2.6328 C   0  0  0  0  0  0  0  0  0  0  0  0
  -12.9349   11.2411   -0.4305 F   0  0  0  0  0  0  0  0  0  0  0  0
  -10.6946   12.3221   -1.3490 F   0  0  0  0  0  0  0  0  0  0  0  0
  -10.8860    9.7925   -5.2763 F   0  0  0  0  0  0  0  0  0  0  0  0
  -13.2016    8.6250   -4.4145 F   0  0  0  0  0  0  0  0  0  0  0  0
  -16.4787    8.7934   -1.5973 N   0  0  0  0  0  0  0  0  0  0  0  0
  -14.4728    8.3918   -0.8742 N   0  0  0  0  0  0  0  0  0  0  0  0
  -15.7399    8.1136   -0.7270 N   0  0  0  0  0  0  0  0  0  0  0  0
  -20.5712    8.0747   -0.9070 O   0  0  0  0  0  0  0  0  0  0  0  0
  -21.8320    6.0133   -2.4683 O   0  0  0  0  0  0  0  0  0  0  0  0
  -18.2483    6.6229   -0.4795 O   0  0  0  0  0  0  0  0  0  0  0  0
   -9.6030   11.6756   -3.7224 O   0  0  0  0  0  0  0  0  0  0  0  0
  -18.2852   10.8281   -0.6233 O   0  0  0  0  0  0  0  0  0  0  0  0
  -21.1087   10.5290   -0.0138 S   0  0  0  0  0  0  0  0  0  0  0  0
 10  1  1  0
  1 30  1  6
  2 13  2  0
 14  2  1  0
  2 27  1  0
 15  3  2  0
  3 16  1  0
  3 23  1  0
  4  5  1  6
  6  5  2  0
  5 21  1  0
  7  6  1  0
  8  7  2  0
  8 20  1  0
 34  8  1  0
 19  9  1  0
  9 29  1  0
  9 34  1  1
 11 10  1  0
 10 29  1  1
 12 11  1  0
 11 31  1  1
 12 19  1  0
 12 26  1  1
 13 26  1  0
 14 15  1  0
 14 18  2  0
 15 22  1  0
 16 17  2  0
 16 32  1  0
 17 18  1  0
 17 24  1  0
 18 25  1  0
 19 33  1  6
 20 21  2  0
 26 28  1  0
 27 28  2  0
M  END
$$$$
