
     RDKit          3D

 34 37  0  0  0  0  0  0  0  0999 V2000
  -19.3410    8.5078   -5.0277 C   0  0  0  0  0  0  0  0  0  0  0  0
  -13.7025    8.6982   -1.0741 C   0  0  0  0  0  0  0  0  0  0  0  0
  -10.6905    9.8648    0.7818 C   0  0  0  0  0  0  0  0  0  0  0  0
  -25.8291   11.8164   -1.0677 C   0  0  0  0  0  0  0  0  0  0  0  0
  -24.5797   11.0061   -0.8776 C   0  0  0  0  0  0  0  0  0  0  0  0
  -24.5760    9.9460    0.0039 C   0  0  0  0  0  0  0  0  0  0  0  0
  -23.4206    9.1831    0.1913 C   0  0  0  0  0  0  0  0  0  0  0  0
  -22.2579    9.4641   -0.4938 C   0  0  0  0  0  0  0  0  0  0  0  0
  -19.5361    8.7280   -1.4331 C   0  0  1  0  0  0  0  0  0  0  0  0
  -18.9540    8.7801   -3.5913 C   0  0  2  0  0  0  0  0  0  0  0  0
  -17.5393    8.2928   -3.3089 C   0  0  1  0  0  0  0  0  0  0  0  0
  -17.1731    8.7735   -1.9408 C   0  0  1  0  0  0  0  0  0  0  0  0
  -14.8342    9.4090   -1.4255 C   0  0  0  0  0  0  0  0  0  0  0  0
  -12.3806    9.2373   -0.7997 C   0  0  0  0  0  0  0  0  0  0  0  0
  -11.9424    9.3559    0.5067 C   0  0  0  0  0  0  0  0  0  0  0  0
   -9.8263   10.2741   -0.2064 C   0  0  0  0  0  0  0  0  0  0  0  0
  -10.2610   10.1572   -1.5163 C   0  0  0  0  0  0  0  0  0  0  0  0
  -11.5098    9.6498   -1.7986 C   0  0  0  0  0  0  0  0  0  0  0  0
  -18.1750    8.2055   -0.9589 C   0  0  1  0  0  0  0  0  0  0  0  0
  -22.2782   10.5275   -1.3718 C   0  0  0  0  0  0  0  0  0  0  0  0
  -23.4224   11.2923   -1.5650 C   0  0  0  0  0  0  0  0  0  0  0  0
  -12.7095    8.9837    1.5606 F   0  0  0  0  0  0  0  0  0  0  0  0
  -10.2992    9.9659    2.0673 F   0  0  0  0  0  0  0  0  0  0  0  0
   -9.4017   10.5625   -2.4822 F   0  0  0  0  0  0  0  0  0  0  0  0
  -11.8689    9.5645   -3.1024 F   0  0  0  0  0  0  0  0  0  0  0  0
  -15.8104    8.5278   -1.5793 N   0  0  0  0  0  0  0  0  0  0  0  0
  -14.0512    7.3832   -1.0292 N   0  0  0  0  0  0  0  0  0  0  0  0
  -15.3184    7.3177   -1.3367 N   0  0  0  0  0  0  0  0  0  0  0  0
  -19.8631    8.2296   -2.6879 O   0  0  0  0  0  0  0  0  0  0  0  0
  -20.6931    8.6195   -5.2446 O   0  0  0  0  0  0  0  0  0  0  0  0
  -17.5396    6.9321   -3.4651 O   0  0  0  0  0  0  0  0  0  0  0  0
   -8.5942   10.7706    0.1468 O   0  0  0  0  0  0  0  0  0  0  0  0
  -17.9744    8.6999    0.3285 O   0  0  0  0  0  0  0  0  0  0  0  0
  -20.8174    8.4493   -0.2078 S   0  0  0  0  0  0  0  0  0  0  0  0
 10  1  1  0
  1 30  1  6
  2 13  2  0
 14  2  1  0
  2 27  1  0
 15  3  2  0
  3 16  1  0
  3 23  1  0
  4  5  1  6
  6  5  2  0
  5 21  1  0
  7  6  1  0
  8  7  2  0
  8 20  1  0
 34  8  1  0
 19  9  1  0
  9 29  1  0
  9 34  1  1
 11 10  1  0
 10 29  1  1
 12 11  1  0
 11 31  1  1
 12 19  1  0
 12 26  1  1
 13 26  1  0
 14 15  1  0
 14 18  2  0
 15 22  1  0
 16 17  2  0
 16 32  1  0
 17 18  1  0
 17 24  1  0
 18 25  1  0
 19 33  1  1
 20 21  2  0
 26 28  1  0
 27 28  2  0
M  END
$$$$
