
     RDKit          3D

 34 37  0  0  0  0  0  0  0  0999 V2000
  -19.3996    6.7059    0.3073 C   0  0  0  0  0  0  0  0  0  0  0  0
  -13.7049    9.2944   -1.5349 C   0  0  0  0  0  0  0  0  0  0  0  0
  -10.6725    8.6935    0.5793 C   0  0  0  0  0  0  0  0  0  0  0  0
  -26.0130    6.9696   -2.5342 C   0  0  0  0  0  0  0  0  0  0  0  0
  -24.7811    7.7561   -2.6381 C   0  0  0  0  0  0  0  0  0  0  0  0
  -24.6921    9.0670   -2.2187 C   0  0  0  0  0  0  0  0  0  0  0  0
  -23.5348    9.7866   -2.3225 C   0  0  0  0  0  0  0  0  0  0  0  0
  -22.4223    9.1849   -2.8627 C   0  0  0  0  0  0  0  0  0  0  0  0
  -19.5579    8.9388   -2.4755 C   0  0  1  0  0  0  0  0  0  0  0  0
  -19.0255    7.4280   -0.9335 C   0  0  2  0  0  0  0  0  0  0  0  0
  -17.5377    7.6668   -1.0378 C   0  0  1  0  0  0  0  0  0  0  0  0
  -17.1722    8.4748   -2.2511 C   0  0  1  0  0  0  0  0  0  0  0  0
  -14.7569    8.3988   -1.6369 C   0  0  0  0  0  0  0  0  0  0  0  0
  -12.3495    8.9858   -1.1434 C   0  0  0  0  0  0  0  0  0  0  0  0
  -11.9727    8.9876    0.1816 C   0  0  0  0  0  0  0  0  0  0  0  0
   -9.7251    8.3893   -0.3791 C   0  0  0  0  0  0  0  0  0  0  0  0
  -10.0834    8.3827   -1.7066 C   0  0  0  0  0  0  0  0  0  0  0  0
  -11.3763    8.6769   -2.0788 C   0  0  0  0  0  0  0  0  0  0  0  0
  -18.1897    9.5419   -2.5722 C   0  0  1  0  0  0  0  0  0  0  0  0
  -22.4606    7.8771   -3.2963 C   0  0  0  0  0  0  0  0  0  0  0  0
  -23.6500    7.1915   -3.1712 C   0  0  0  0  0  0  0  0  0  0  0  0
  -12.8858    9.2827    1.1328 F   0  0  0  0  0  0  0  0  0  0  0  0
  -10.3487    8.7071    1.8875 F   0  0  0  0  0  0  0  0  0  0  0  0
   -9.1310    8.0786   -2.6450 F   0  0  0  0  0  0  0  0  0  0  0  0
  -11.7033    8.6639   -3.3866 F   0  0  0  0  0  0  0  0  0  0  0  0
  -15.8576    9.0543   -2.0273 N   0  0  0  0  0  0  0  0  0  0  0  0
  -14.2141   10.4769   -1.8720 N   0  0  0  0  0  0  0  0  0  0  0  0
  -15.4920   10.3254   -2.1627 N   0  0  0  0  0  0  0  0  0  0  0  0
  -19.7592    8.5945   -1.1379 O   0  0  0  0  0  0  0  0  0  0  0  0
  -20.3234    5.7096    0.1392 O   0  0  0  0  0  0  0  0  0  0  0  0
  -17.0569    8.2193    0.1477 O   0  0  0  0  0  0  0  0  0  0  0  0
   -8.4365    8.0989    0.0298 O   0  0  0  0  0  0  0  0  0  0  0  0
  -17.9980    9.9872   -3.8799 O   0  0  0  0  0  0  0  0  0  0  0  0
  -20.8594   10.0591   -3.0358 S   0  0  0  0  0  0  0  0  0  0  0  0
 10  1  1  1
  1 30  1  0
  2 13  2  0
 14  2  1  0
  2 27  1  0
 15  3  2  0
  3 16  1  0
  3 23  1  0
  5  4  1  0
  6  5  2  0
  5 21  1  0
  7  6  1  0
  8  7  2  0
  8 20  1  0
 34  8  1  0
 19  9  1  0
  9 29  1  0
  9 34  1  1
 11 10  1  0
 10 29  1  0
 12 11  1  0
 11 31  1  1
 12 19  1  0
 12 26  1  1
 13 26  1  0
 14 15  1  0
 14 18  2  0
 15 22  1  0
 16 17  2  0
 16 32  1  0
 17 18  1  0
 17 24  1  0
 18 25  1  0
 19 33  1  6
 20 21  2  0
 26 28  1  0
 27 28  2  0
M  END
$$$$
