
     RDKit          3D

 34 37  0  0  0  0  0  0  0  0999 V2000
  -19.5226    5.9462   -0.2744 C   0  0  0  0  0  0  0  0  0  0  0  0
  -13.8870    9.1994   -1.6631 C   0  0  0  0  0  0  0  0  0  0  0  0
  -10.2504    8.4813   -1.2929 C   0  0  0  0  0  0  0  0  0  0  0  0
  -26.5359    8.4759   -3.4687 C   0  0  0  0  0  0  0  0  0  0  0  0
  -25.1558    8.9402   -3.1032 C   0  0  0  0  0  0  0  0  0  0  0  0
  -24.9772   10.1841   -2.5363 C   0  0  0  0  0  0  0  0  0  0  0  0
  -23.6987   10.6296   -2.1912 C   0  0  0  0  0  0  0  0  0  0  0  0
  -22.5851    9.8457   -2.4049 C   0  0  0  0  0  0  0  0  0  0  0  0
  -19.7412    9.1801   -1.8560 C   0  0  1  0  0  0  0  0  0  0  0  0
  -19.1698    7.1457   -1.1251 C   0  0  2  0  0  0  0  0  0  0  0  0
  -17.7077    7.5293   -0.9423 C   0  0  1  0  0  0  0  0  0  0  0  0
  -17.4000    8.5863   -1.9547 C   0  0  1  0  0  0  0  0  0  0  0  0
  -15.0423    8.6049   -1.1926 C   0  0  0  0  0  0  0  0  0  0  0  0
  -12.5566    9.1056   -1.0848 C   0  0  0  0  0  0  0  0  0  0  0  0
  -11.5179    8.5757   -1.8283 C   0  0  0  0  0  0  0  0  0  0  0  0
   -9.9550    8.9000   -0.0168 C   0  0  0  0  0  0  0  0  0  0  0  0
  -10.9922    9.4314    0.7316 C   0  0  0  0  0  0  0  0  0  0  0  0
  -12.2604    9.5288    0.2035 C   0  0  0  0  0  0  0  0  0  0  0  0
  -18.3281    9.7565   -1.7098 C   0  0  1  0  0  0  0  0  0  0  0  0
  -22.7809    8.6041   -2.9727 C   0  0  0  0  0  0  0  0  0  0  0  0
  -24.0486    8.1521   -3.3194 C   0  0  0  0  0  0  0  0  0  0  0  0
  -11.6934    8.1317   -3.0971 F   0  0  0  0  0  0  0  0  0  0  0  0
   -9.2643    7.9583   -2.0478 F   0  0  0  0  0  0  0  0  0  0  0  0
  -10.6902    9.8415    1.9871 F   0  0  0  0  0  0  0  0  0  0  0  0
  -13.2262   10.0586    0.9925 F   0  0  0  0  0  0  0  0  0  0  0  0
  -16.0179    8.9516   -2.0180 N   0  0  0  0  0  0  0  0  0  0  0  0
  -14.2214    9.8987   -2.7820 N   0  0  0  0  0  0  0  0  0  0  0  0
  -15.5029    9.7286   -2.9649 N   0  0  0  0  0  0  0  0  0  0  0  0
  -20.0079    8.2325   -0.8757 O   0  0  0  0  0  0  0  0  0  0  0  0
  -18.9156    4.7914   -0.7053 O   0  0  0  0  0  0  0  0  0  0  0  0
  -17.5483    7.9122    0.3630 O   0  0  0  0  0  0  0  0  0  0  0  0
   -8.6671    8.7735    0.4466 O   0  0  0  0  0  0  0  0  0  0  0  0
  -18.1866   10.7415   -2.6855 O   0  0  0  0  0  0  0  0  0  0  0  0
  -20.9807   10.4753   -1.9404 S   0  0  0  0  0  0  0  0  0  0  0  0
 10  1  1  0
  1 30  1  6
  2 13  2  0
 14  2  1  0
  2 27  1  0
 15  3  2  0
  3 16  1  0
  3 23  1  0
  4  5  1  6
  6  5  2  0
  5 21  1  0
  7  6  1  0
  8  7  2  0
  8 20  1  0
 34  8  1  0
 19  9  1  0
  9 29  1  0
  9 34  1  1
 11 10  1  0
 10 29  1  1
 12 11  1  0
 11 31  1  1
 12 19  1  0
 12 26  1  1
 13 26  1  0
 14 15  1  0
 14 18  2  0
 15 22  1  0
 16 17  2  0
 16 32  1  0
 17 18  1  0
 17 24  1  0
 18 25  1  0
 19 33  1  6
 20 21  2  0
 26 28  1  0
 27 28  2  0
M  END
$$$$
