
     RDKit          3D

 34 37  0  0  0  0  0  0  0  0999 V2000
  -19.5198    6.2854   -0.1821 C   0  0  0  0  0  0  0  0  0  0  0  0
  -13.7807    9.7549   -0.8114 C   0  0  0  0  0  0  0  0  0  0  0  0
  -10.4205    9.7512   -2.4653 C   0  0  0  0  0  0  0  0  0  0  0  0
  -25.3178    8.1552   -5.1076 C   0  0  0  0  0  0  0  0  0  0  0  0
  -24.2855    8.8114   -4.3008 C   0  0  0  0  0  0  0  0  0  0  0  0
  -24.5343    9.9291   -3.5318 C   0  0  0  0  0  0  0  0  0  0  0  0
  -23.5599   10.5290   -2.7845 C   0  0  0  0  0  0  0  0  0  0  0  0
  -22.2897   10.0020   -2.7992 C   0  0  0  0  0  0  0  0  0  0  0  0
  -19.6344    9.4935   -1.7474 C   0  0  1  0  0  0  0  0  0  0  0  0
  -19.1173    7.4745   -0.9726 C   0  0  2  0  0  0  0  0  0  0  0  0
  -17.6357    7.7543   -0.8834 C   0  0  1  0  0  0  0  0  0  0  0  0
  -17.2460    9.0091   -1.6129 C   0  0  1  0  0  0  0  0  0  0  0  0
  -14.7563    9.1387   -1.5781 C   0  0  0  0  0  0  0  0  0  0  0  0
  -12.3526    9.6677   -1.0073 C   0  0  0  0  0  0  0  0  0  0  0  0
  -11.7933    9.8317   -2.2555 C   0  0  0  0  0  0  0  0  0  0  0  0
   -9.5866    9.4993   -1.3931 C   0  0  0  0  0  0  0  0  0  0  0  0
  -10.1274    9.3329   -0.1398 C   0  0  0  0  0  0  0  0  0  0  0  0
  -11.4894    9.4165    0.0460 C   0  0  0  0  0  0  0  0  0  0  0  0
  -18.2853   10.0975   -1.5020 C   0  0  1  0  0  0  0  0  0  0  0  0
  -21.9909    8.8864   -3.5516 C   0  0  0  0  0  0  0  0  0  0  0  0
  -23.0063    8.3158   -4.2890 C   0  0  0  0  0  0  0  0  0  0  0  0
  -12.5934   10.0789   -3.3160 F   0  0  0  0  0  0  0  0  0  0  0  0
   -9.9173    9.9185   -3.7043 F   0  0  0  0  0  0  0  0  0  0  0  0
   -9.2858    9.0835    0.9136 F   0  0  0  0  0  0  0  0  0  0  0  0
  -11.9958    9.2497    1.2842 F   0  0  0  0  0  0  0  0  0  0  0  0
  -15.9637    9.4537   -1.0914 N   0  0  0  0  0  0  0  0  0  0  0  0
  -14.4423   10.4303    0.1253 N   0  0  0  0  0  0  0  0  0  0  0  0
  -15.7370   10.2461   -0.0482 N   0  0  0  0  0  0  0  0  0  0  0  0
  -19.8818    8.6064   -0.6984 O   0  0  0  0  0  0  0  0  0  0  0  0
  -20.8612    6.1898    0.0745 O   0  0  0  0  0  0  0  0  0  0  0  0
  -17.2269    7.7514    0.4488 O   0  0  0  0  0  0  0  0  0  0  0  0
   -8.2241    9.4217   -1.6155 O   0  0  0  0  0  0  0  0  0  0  0  0
  -18.0523   11.0629   -2.4813 O   0  0  0  0  0  0  0  0  0  0  0  0
  -20.9486   10.7288   -1.8451 S   0  0  0  0  0  0  0  0  0  0  0  0
 10  1  1  1
  1 30  1  0
  2 13  2  0
 14  2  1  0
  2 27  1  0
 15  3  2  0
  3 16  1  0
  3 23  1  0
  5  4  1  0
  6  5  2  0
  5 21  1  0
  7  6  1  0
  8  7  2  0
  8 20  1  0
 34  8  1  0
 19  9  1  0
  9 29  1  0
  9 34  1  1
 11 10  1  0
 10 29  1  0
 12 11  1  0
 11 31  1  1
 12 19  1  0
 12 26  1  1
 13 26  1  0
 14 15  1  0
 14 18  2  0
 15 22  1  0
 16 17  2  0
 16 32  1  0
 17 18  1  0
 17 24  1  0
 18 25  1  0
 19 33  1  6
 20 21  2  0
 26 28  1  0
 27 28  2  0
M  END
$$$$
