
     RDKit          3D

 34 37  0  0  0  0  0  0  0  0999 V2000
  -19.7478    5.9089   -0.5805 C   0  0  0  0  0  0  0  0  0  0  0  0
  -13.8235    9.1803   -0.8912 C   0  0  0  0  0  0  0  0  0  0  0  0
  -10.1949   10.1070   -0.9181 C   0  0  0  0  0  0  0  0  0  0  0  0
  -25.6688    8.7942   -5.0775 C   0  0  0  0  0  0  0  0  0  0  0  0
  -24.4913    9.1880   -4.2992 C   0  0  0  0  0  0  0  0  0  0  0  0
  -23.3215    8.4574   -4.2897 C   0  0  0  0  0  0  0  0  0  0  0  0
  -22.2320    8.8390   -3.5581 C   0  0  0  0  0  0  0  0  0  0  0  0
  -22.3034    9.9886   -2.8068 C   0  0  0  0  0  0  0  0  0  0  0  0
  -19.6723    9.2534   -1.8310 C   0  0  1  0  0  0  0  0  0  0  0  0
  -19.2735    7.1441   -1.2515 C   0  0  2  0  0  0  0  0  0  0  0  0
  -17.7797    7.3318   -1.1294 C   0  0  1  0  0  0  0  0  0  0  0  0
  -17.3152    8.6271   -1.7333 C   0  0  1  0  0  0  0  0  0  0  0  0
  -14.8247    8.7437   -1.7436 C   0  0  0  0  0  0  0  0  0  0  0  0
  -12.4021    9.1356   -1.1425 C   0  0  0  0  0  0  0  0  0  0  0  0
  -11.5664   10.1312   -0.6864 C   0  0  0  0  0  0  0  0  0  0  0  0
   -9.6477    9.0548   -1.6268 C   0  0  0  0  0  0  0  0  0  0  0  0
  -10.4669    8.0521   -2.0897 C   0  0  0  0  0  0  0  0  0  0  0  0
  -11.8223    8.0955   -1.8492 C   0  0  0  0  0  0  0  0  0  0  0  0
  -18.2947    9.7557   -1.5230 C   0  0  1  0  0  0  0  0  0  0  0  0
  -23.4500   10.7531   -2.7831 C   0  0  0  0  0  0  0  0  0  0  0  0
  -24.5231   10.3283   -3.5370 C   0  0  0  0  0  0  0  0  0  0  0  0
  -12.0837   11.1681    0.0086 F   0  0  0  0  0  0  0  0  0  0  0  0
   -9.4153   11.1029   -0.4528 F   0  0  0  0  0  0  0  0  0  0  0  0
   -9.9079    7.0151   -2.7912 F   0  0  0  0  0  0  0  0  0  0  0  0
  -12.6048    7.1007   -2.3133 F   0  0  0  0  0  0  0  0  0  0  0  0
  -16.0156    8.9484   -1.1661 N   0  0  0  0  0  0  0  0  0  0  0  0
  -14.4537    9.6401    0.1871 N   0  0  0  0  0  0  0  0  0  0  0  0
  -15.7541    9.4987    0.0156 N   0  0  0  0  0  0  0  0  0  0  0  0
  -19.9778    8.2850   -0.8732 O   0  0  0  0  0  0  0  0  0  0  0  0
  -20.8680    5.3465   -1.1312 O   0  0  0  0  0  0  0  0  0  0  0  0
  -17.3846    7.1789    0.1981 O   0  0  0  0  0  0  0  0  0  0  0  0
   -8.2832    9.0430   -1.8501 O   0  0  0  0  0  0  0  0  0  0  0  0
  -18.0000   10.7959   -2.4040 O   0  0  0  0  0  0  0  0  0  0  0  0
  -20.9162   10.5630   -1.8154 S   0  0  0  0  0  0  0  0  0  0  0  0
 10  1  1  1
  1 30  1  0
  2 13  2  0
 14  2  1  0
  2 27  1  0
 15  3  2  0
  3 16  1  0
  3 23  1  0
  5  4  1  0
  6  5  2  0
  5 21  1  0
  7  6  1  0
  8  7  2  0
  8 20  1  0
 34  8  1  0
 19  9  1  0
  9 29  1  0
  9 34  1  1
 11 10  1  0
 10 29  1  0
 12 11  1  0
 11 31  1  1
 12 19  1  0
 12 26  1  1
 13 26  1  0
 14 15  1  0
 14 18  2  0
 15 22  1  0
 16 17  2  0
 16 32  1  0
 17 18  1  0
 17 24  1  0
 18 25  1  0
 19 33  1  6
 20 21  2  0
 26 28  1  0
 27 28  2  0
M  END
$$$$
