
     RDKit          3D

 34 37  0  0  0  0  0  0  0  0999 V2000
  -18.0749    5.7246   -1.1390 C   0  0  0  0  0  0  0  0  0  0  0  0
  -22.5770   10.6228   -0.5740 C   0  0  0  0  0  0  0  0  0  0  0  0
  -25.1499   12.1951    1.6473 C   0  0  0  0  0  0  0  0  0  0  0  0
  -10.6630    9.5007    1.0081 C   0  0  0  0  0  0  0  0  0  0  0  0
  -11.8521    9.6099    0.1589 C   0  0  0  0  0  0  0  0  0  0  0  0
  -12.4431   10.8173   -0.1500 C   0  0  0  0  0  0  0  0  0  0  0  0
  -13.5522   10.9016   -0.9441 C   0  0  0  0  0  0  0  0  0  0  0  0
  -14.0974    9.7458   -1.4522 C   0  0  0  0  0  0  0  0  0  0  0  0
  -16.9195    9.0800   -1.5404 C   0  0  1  0  0  0  0  0  0  0  0  0
  -17.9541    7.1943   -0.9770 C   0  0  2  0  0  0  0  0  0  0  0  0
  -19.2852    7.8590   -0.7164 C   0  0  1  0  0  0  0  0  0  0  0  0
  -19.1715    9.3556   -0.6406 C   0  0  1  0  0  0  0  0  0  0  0  0
  -21.4755   10.0356    0.0271 C   0  0  0  0  0  0  0  0  0  0  0  0
  -23.8415   10.9215    0.0561 C   0  0  0  0  0  0  0  0  0  0  0  0
  -23.9415   11.8926    1.0279 C   0  0  0  0  0  0  0  0  0  0  0  0
  -26.2886   11.5039    1.2810 C   0  0  0  0  0  0  0  0  0  0  0  0
  -26.2075   10.5311    0.3126 C   0  0  0  0  0  0  0  0  0  0  0  0
  -25.0011   10.2473   -0.2880 C   0  0  0  0  0  0  0  0  0  0  0  0
  -18.1609    9.9160   -1.6111 C   0  0  1  0  0  0  0  0  0  0  0  0
  -13.5435    8.5150   -1.1725 C   0  0  0  0  0  0  0  0  0  0  0  0
  -12.4253    8.4798   -0.3670 C   0  0  0  0  0  0  0  0  0  0  0  0
  -22.8383   12.5789    1.3990 F   0  0  0  0  0  0  0  0  0  0  0  0
  -25.2007   13.1536    2.5934 F   0  0  0  0  0  0  0  0  0  0  0  0
  -27.3471    9.8546   -0.0393 F   0  0  0  0  0  0  0  0  0  0  0  0
  -24.9471    9.2892   -1.2348 F   0  0  0  0  0  0  0  0  0  0  0  0
  -20.4910    9.9201   -0.8735 N   0  0  0  0  0  0  0  0  0  0  0  0
  -22.2142   10.8446   -1.8352 N   0  0  0  0  0  0  0  0  0  0  0  0
  -20.9751   10.4247   -2.0043 N   0  0  0  0  0  0  0  0  0  0  0  0
  -17.2547    7.8099   -2.0126 O   0  0  0  0  0  0  0  0  0  0  0  0
  -17.9684    5.2752   -2.4279 O   0  0  0  0  0  0  0  0  0  0  0  0
  -20.2251    7.4324   -1.6526 O   0  0  0  0  0  0  0  0  0  0  0  0
  -27.4831   11.8144    1.9044 O   0  0  0  0  0  0  0  0  0  0  0  0
  -17.8337   11.2196   -1.2389 O   0  0  0  0  0  0  0  0  0  0  0  0
  -15.5558    9.7666   -2.5056 S   0  0  0  0  0  0  0  0  0  0  0  0
 10  1  1  6
  1 30  1  0
  2 13  2  0
 14  2  1  0
  2 27  1  0
 15  3  2  0
  3 16  1  0
  3 23  1  0
  5  4  1  0
  6  5  2  0
  5 21  1  0
  7  6  1  0
  8  7  2  0
  8 20  1  0
 34  8  1  0
 19  9  1  0
  9 29  1  0
  9 34  1  6
 11 10  1  0
 10 29  1  0
 12 11  1  0
 11 31  1  6
 12 19  1  0
 12 26  1  6
 13 26  1  0
 14 15  1  0
 14 18  2  0
 15 22  1  0
 16 17  2  0
 16 32  1  0
 17 18  1  0
 17 24  1  0
 18 25  1  0
 19 33  1  1
 20 21  2  0
 26 28  1  0
 27 28  2  0
M  END
$$$$
