
     RDKit          3D

 34 37  0  0  0  0  0  0  0  0999 V2000
  -19.0198    6.5564    0.3624 C   0  0  0  0  0  0  0  0  0  0  0  0
  -13.7682    9.6306   -1.6387 C   0  0  0  0  0  0  0  0  0  0  0  0
  -10.2076    8.4693   -1.6287 C   0  0  0  0  0  0  0  0  0  0  0  0
  -25.9899    7.6304   -3.4971 C   0  0  0  0  0  0  0  0  0  0  0  0
  -24.7864    8.3284   -3.0373 C   0  0  0  0  0  0  0  0  0  0  0  0
  -24.3728    8.3201   -1.7216 C   0  0  0  0  0  0  0  0  0  0  0  0
  -23.2471    8.9765   -1.3093 C   0  0  0  0  0  0  0  0  0  0  0  0
  -22.5020    9.6679   -2.2356 C   0  0  0  0  0  0  0  0  0  0  0  0
  -19.6574    9.3584   -1.7583 C   0  0  1  0  0  0  0  0  0  0  0  0
  -18.8776    7.5453   -0.7343 C   0  0  2  0  0  0  0  0  0  0  0  0
  -17.4336    7.8216   -1.0807 C   0  0  1  0  0  0  0  0  0  0  0  0
  -17.2915    8.8878   -2.1302 C   0  0  1  0  0  0  0  0  0  0  0  0
  -14.8740    8.8036   -1.5260 C   0  0  0  0  0  0  0  0  0  0  0  0
  -12.4267    9.3359   -1.1925 C   0  0  0  0  0  0  0  0  0  0  0  0
  -11.5043    8.7614   -2.0390 C   0  0  0  0  0  0  0  0  0  0  0  0
   -9.8267    8.7620   -0.3333 C   0  0  0  0  0  0  0  0  0  0  0  0
  -10.7343    9.3357    0.5256 C   0  0  0  0  0  0  0  0  0  0  0  0
  -12.0133    9.6166    0.0989 C   0  0  0  0  0  0  0  0  0  0  0  0
  -18.3171    9.9861   -1.9916 C   0  0  1  0  0  0  0  0  0  0  0  0
  -22.8738    9.7063   -3.5623 C   0  0  0  0  0  0  0  0  0  0  0  0
  -24.0166    9.0292   -3.9309 C   0  0  0  0  0  0  0  0  0  0  0  0
  -11.8590    8.4681   -3.3095 F   0  0  0  0  0  0  0  0  0  0  0  0
   -9.3383    7.9071   -2.4915 F   0  0  0  0  0  0  0  0  0  0  0  0
  -10.3401    9.6199    1.8078 F   0  0  0  0  0  0  0  0  0  0  0  0
  -12.8850   10.1792    0.9597 F   0  0  0  0  0  0  0  0  0  0  0  0
  -15.9405    9.4194   -2.0525 N   0  0  0  0  0  0  0  0  0  0  0  0
  -14.2116   10.7330   -2.2380 N   0  0  0  0  0  0  0  0  0  0  0  0
  -15.5015   10.5993   -2.4800 N   0  0  0  0  0  0  0  0  0  0  0  0
  -19.5986    8.7178   -0.5194 O   0  0  0  0  0  0  0  0  0  0  0  0
  -20.2249    5.9079    0.4024 O   0  0  0  0  0  0  0  0  0  0  0  0
  -16.7078    8.0981    0.0763 O   0  0  0  0  0  0  0  0  0  0  0  0
   -8.5350    8.4666    0.0617 O   0  0  0  0  0  0  0  0  0  0  0  0
  -18.3760   10.7181   -3.1773 O   0  0  0  0  0  0  0  0  0  0  0  0
  -21.0071   10.5587   -1.7785 S   0  0  0  0  0  0  0  0  0  0  0  0
 10  1  1  1
  1 30  1  0
  2 13  2  0
 14  2  1  0
  2 27  1  0
 15  3  2  0
  3 16  1  0
  3 23  1  0
  5  4  1  0
  6  5  2  0
  5 21  1  0
  7  6  1  0
  8  7  2  0
  8 20  1  0
 34  8  1  0
 19  9  1  0
  9 29  1  0
  9 34  1  1
 11 10  1  0
 10 29  1  0
 12 11  1  0
 11 31  1  1
 12 19  1  0
 12 26  1  1
 13 26  1  0
 14 15  1  0
 14 18  2  0
 15 22  1  0
 16 17  2  0
 16 32  1  0
 17 18  1  0
 17 24  1  0
 18 25  1  0
 19 33  1  6
 20 21  2  0
 26 28  1  0
 27 28  2  0
M  END
$$$$
