
     RDKit          3D

 34 37  0  0  0  0  0  0  0  0999 V2000
  -19.3357    6.3781    0.4985 C   0  0  0  0  0  0  0  0  0  0  0  0
  -14.0942    9.6299   -1.7429 C   0  0  0  0  0  0  0  0  0  0  0  0
  -10.6758    8.4462   -0.7735 C   0  0  0  0  0  0  0  0  0  0  0  0
  -26.1981    7.5175   -4.0135 C   0  0  0  0  0  0  0  0  0  0  0  0
  -25.0101    8.1648   -3.4507 C   0  0  0  0  0  0  0  0  0  0  0  0
  -23.7657    7.5699   -3.4441 C   0  0  0  0  0  0  0  0  0  0  0  0
  -22.6674    8.1877   -2.9151 C   0  0  0  0  0  0  0  0  0  0  0  0
  -22.8064    9.4433   -2.3716 C   0  0  0  0  0  0  0  0  0  0  0  0
  -20.0199    9.1788   -1.6093 C   0  0  1  0  0  0  0  0  0  0  0  0
  -19.2007    7.3844   -0.5831 C   0  0  2  0  0  0  0  0  0  0  0  0
  -17.7591    7.7189   -0.8857 C   0  0  1  0  0  0  0  0  0  0  0  0
  -17.6284    8.8019   -1.9192 C   0  0  1  0  0  0  0  0  0  0  0  0
  -15.1360    8.7355   -1.9277 C   0  0  0  0  0  0  0  0  0  0  0  0
  -12.6832    9.3283   -1.8021 C   0  0  0  0  0  0  0  0  0  0  0  0
  -12.0341    8.7442   -0.7367 C   0  0  0  0  0  0  0  0  0  0  0  0
   -9.9495    8.7425   -1.9108 C   0  0  0  0  0  0  0  0  0  0  0  0
  -10.5810    9.3257   -2.9840 C   0  0  0  0  0  0  0  0  0  0  0  0
  -11.9268    9.6125   -2.9267 C   0  0  0  0  0  0  0  0  0  0  0  0
  -18.6984    9.8592   -1.7980 C   0  0  1  0  0  0  0  0  0  0  0  0
  -24.0288   10.0798   -2.3542 C   0  0  0  0  0  0  0  0  0  0  0  0
  -25.1079    9.4173   -2.8993 C   0  0  0  0  0  0  0  0  0  0  0  0
  -12.7283    8.4473    0.3839 F   0  0  0  0  0  0  0  0  0  0  0  0
  -10.0823    7.8744    0.2928 F   0  0  0  0  0  0  0  0  0  0  0  0
   -9.8457    9.6132   -4.1051 F   0  0  0  0  0  0  0  0  0  0  0  0
  -12.5234   10.1844   -3.9918 F   0  0  0  0  0  0  0  0  0  0  0  0
  -16.3012    9.3830   -1.7977 N   0  0  0  0  0  0  0  0  0  0  0  0
  -14.6748   10.8034   -1.5043 N   0  0  0  0  0  0  0  0  0  0  0  0
  -15.9843   10.6479   -1.5386 N   0  0  0  0  0  0  0  0  0  0  0  0
  -19.9714    8.5264   -0.3762 O   0  0  0  0  0  0  0  0  0  0  0  0
  -20.5003    5.6586    0.4755 O   0  0  0  0  0  0  0  0  0  0  0  0
  -17.0768    8.0089    0.2943 O   0  0  0  0  0  0  0  0  0  0  0  0
   -8.6003    8.4411   -1.9342 O   0  0  0  0  0  0  0  0  0  0  0  0
  -18.7519   10.6022   -2.9770 O   0  0  0  0  0  0  0  0  0  0  0  0
  -21.4131   10.3276   -1.6549 S   0  0  0  0  0  0  0  0  0  0  0  0
 10  1  1  1
  1 30  1  0
  2 13  2  0
 14  2  1  0
  2 27  1  0
 15  3  2  0
  3 16  1  0
  3 23  1  0
  5  4  1  0
  6  5  2  0
  5 21  1  0
  7  6  1  0
  8  7  2  0
  8 20  1  0
 34  8  1  0
 19  9  1  0
  9 29  1  0
  9 34  1  1
 11 10  1  0
 10 29  1  0
 12 11  1  0
 11 31  1  1
 12 19  1  0
 12 26  1  1
 13 26  1  0
 14 15  1  0
 14 18  2  0
 15 22  1  0
 16 17  2  0
 16 32  1  0
 17 18  1  0
 17 24  1  0
 18 25  1  0
 19 33  1  6
 20 21  2  0
 26 28  1  0
 27 28  2  0
M  END
$$$$
