
     RDKit          3D

 34 37  0  0  0  0  0  0  0  0999 V2000
  -19.4167    5.9312   -0.0975 C   0  0  0  0  0  0  0  0  0  0  0  0
  -14.2138    9.1496   -2.4153 C   0  0  0  0  0  0  0  0  0  0  0  0
  -11.4683   11.2453   -0.9672 C   0  0  0  0  0  0  0  0  0  0  0  0
  -26.5107    9.7370   -1.0529 C   0  0  0  0  0  0  0  0  0  0  0  0
  -25.0705    9.9833   -0.9424 C   0  0  0  0  0  0  0  0  0  0  0  0
  -24.2662   10.2252   -2.0364 C   0  0  0  0  0  0  0  0  0  0  0  0
  -22.9241   10.4534   -1.9158 C   0  0  0  0  0  0  0  0  0  0  0  0
  -22.3562   10.4417   -0.6633 C   0  0  0  0  0  0  0  0  0  0  0  0
  -19.7187    9.3329   -1.1427 C   0  0  1  0  0  0  0  0  0  0  0  0
  -19.2794    7.1659   -0.9085 C   0  0  2  0  0  0  0  0  0  0  0  0
  -17.9657    7.2271   -1.6514 C   0  0  1  0  0  0  0  0  0  0  0  0
  -17.7927    8.5180   -2.4010 C   0  0  1  0  0  0  0  0  0  0  0  0
  -15.4473    9.0999   -1.7866 C   0  0  0  0  0  0  0  0  0  0  0  0
  -12.9585    9.5340   -1.8138 C   0  0  0  0  0  0  0  0  0  0  0  0
  -12.6716   10.8543   -1.5458 C   0  0  0  0  0  0  0  0  0  0  0  0
  -10.5278   10.2846   -0.6492 C   0  0  0  0  0  0  0  0  0  0  0  0
  -10.7972    8.9616   -0.9097 C   0  0  0  0  0  0  0  0  0  0  0  0
  -11.9949    8.5961   -1.4831 C   0  0  0  0  0  0  0  0  0  0  0  0
  -18.3639    9.7043   -1.6638 C   0  0  1  0  0  0  0  0  0  0  0  0
  -23.1175   10.2047    0.4609 C   0  0  0  0  0  0  0  0  0  0  0  0
  -24.4668    9.9798    0.2896 C   0  0  0  0  0  0  0  0  0  0  0  0
  -13.5795   11.8078   -1.8499 F   0  0  0  0  0  0  0  0  0  0  0  0
  -11.2305   12.5491   -0.7227 F   0  0  0  0  0  0  0  0  0  0  0  0
   -9.8531    8.0208   -0.5879 F   0  0  0  0  0  0  0  0  0  0  0  0
  -12.2358    7.2927   -1.7288 F   0  0  0  0  0  0  0  0  0  0  0  0
  -16.3745    8.6987   -2.6659 N   0  0  0  0  0  0  0  0  0  0  0  0
  -14.4422    8.7713   -3.6707 N   0  0  0  0  0  0  0  0  0  0  0  0
  -15.7267    8.5056   -3.8107 N   0  0  0  0  0  0  0  0  0  0  0  0
  -19.5292    8.3320   -0.1883 O   0  0  0  0  0  0  0  0  0  0  0  0
  -20.6513    5.3417   -0.1480 O   0  0  0  0  0  0  0  0  0  0  0  0
  -16.9106    6.9584   -0.7817 O   0  0  0  0  0  0  0  0  0  0  0  0
   -9.3361   10.6866   -0.0747 O   0  0  0  0  0  0  0  0  0  0  0  0
  -18.5119   10.7726   -2.5480 O   0  0  0  0  0  0  0  0  0  0  0  0
  -20.5982   10.7328   -0.4148 S   0  0  0  0  0  0  0  0  0  0  0  0
 10  1  1  1
  1 30  1  0
  2 13  2  0
 14  2  1  0
  2 27  1  0
 15  3  2  0
  3 16  1  0
  3 23  1  0
  5  4  1  0
  6  5  2  0
  5 21  1  0
  7  6  1  0
  8  7  2  0
  8 20  1  0
 34  8  1  0
 19  9  1  0
  9 29  1  0
  9 34  1  1
 11 10  1  0
 10 29  1  0
 12 11  1  0
 11 31  1  1
 12 19  1  0
 12 26  1  1
 13 26  1  0
 14 15  1  0
 14 18  2  0
 15 22  1  0
 16 17  2  0
 16 32  1  0
 17 18  1  0
 17 24  1  0
 18 25  1  0
 19 33  1  6
 20 21  2  0
 26 28  1  0
 27 28  2  0
M  END
$$$$
