
     RDKit          3D

 34 37  0  0  0  0  0  0  0  0999 V2000
  -19.7520    5.6773   -0.4872 C   0  0  0  0  0  0  0  0  0  0  0  0
  -13.7871    8.9399   -1.6934 C   0  0  0  0  0  0  0  0  0  0  0  0
  -10.7696   11.1198   -1.5499 C   0  0  0  0  0  0  0  0  0  0  0  0
  -26.2943    9.8655   -2.3711 C   0  0  0  0  0  0  0  0  0  0  0  0
  -24.8625   10.0699   -1.9689 C   0  0  0  0  0  0  0  0  0  0  0  0
  -23.8526    9.8217   -2.8741 C   0  0  0  0  0  0  0  0  0  0  0  0
  -22.5155   10.0072   -2.5139 C   0  0  0  0  0  0  0  0  0  0  0  0
  -22.1671   10.4408   -1.2526 C   0  0  0  0  0  0  0  0  0  0  0  0
  -19.4690    9.1951   -1.2308 C   0  0  1  0  0  0  0  0  0  0  0  0
  -19.2431    6.9763   -1.0710 C   0  0  2  0  0  0  0  0  0  0  0  0
  -17.7248    7.0521   -0.9844 C   0  0  1  0  0  0  0  0  0  0  0  0
  -17.3000    8.2634   -1.7519 C   0  0  1  0  0  0  0  0  0  0  0  0
  -15.0541    9.1395   -1.1792 C   0  0  0  0  0  0  0  0  0  0  0  0
  -12.5491    9.5444   -1.2293 C   0  0  0  0  0  0  0  0  0  0  0  0
  -11.9438   10.5369   -1.9783 C   0  0  0  0  0  0  0  0  0  0  0  0
  -10.1482   10.7543   -0.3789 C   0  0  0  0  0  0  0  0  0  0  0  0
  -10.7509    9.7606    0.3745 C   0  0  0  0  0  0  0  0  0  0  0  0
  -11.9235    9.1741   -0.0469 C   0  0  0  0  0  0  0  0  0  0  0  0
  -17.9645    9.4720   -1.1286 C   0  0  1  0  0  0  0  0  0  0  0  0
  -23.1890   10.6847   -0.3591 C   0  0  0  0  0  0  0  0  0  0  0  0
  -24.5220   10.5031   -0.7079 C   0  0  0  0  0  0  0  0  0  0  0  0
  -12.4672   10.9765   -3.1491 F   0  0  0  0  0  0  0  0  0  0  0  0
  -10.2091   12.0830   -2.3075 F   0  0  0  0  0  0  0  0  0  0  0  0
  -10.1310    9.4086    1.5267 F   0  0  0  0  0  0  0  0  0  0  0  0
  -12.4567    8.2085    0.7401 F   0  0  0  0  0  0  0  0  0  0  0  0
  -15.8827    8.3971   -1.8971 N   0  0  0  0  0  0  0  0  0  0  0  0
  -13.9062    8.0626   -2.7273 N   0  0  0  0  0  0  0  0  0  0  0  0
  -15.1725    7.7590   -2.8212 N   0  0  0  0  0  0  0  0  0  0  0  0
  -19.8351    8.0892   -0.4738 O   0  0  0  0  0  0  0  0  0  0  0  0
  -20.3159    4.8543   -1.4319 O   0  0  0  0  0  0  0  0  0  0  0  0
  -17.3937    7.0616    0.3446 O   0  0  0  0  0  0  0  0  0  0  0  0
   -8.9796   11.3818   -0.0185 O   0  0  0  0  0  0  0  0  0  0  0  0
  -17.7132   10.6332   -1.8571 O   0  0  0  0  0  0  0  0  0  0  0  0
  -20.4397   10.6577   -0.8578 S   0  0  0  0  0  0  0  0  0  0  0  0
 10  1  1  0
  1 30  1  6
  2 13  2  0
 14  2  1  0
  2 27  1  0
 15  3  2  0
  3 16  1  0
  3 23  1  0
  4  5  1  6
  6  5  2  0
  5 21  1  0
  7  6  1  0
  8  7  2  0
  8 20  1  0
 34  8  1  0
 19  9  1  0
  9 29  1  0
  9 34  1  1
 11 10  1  0
 10 29  1  1
 12 11  1  0
 11 31  1  1
 12 19  1  0
 12 26  1  1
 13 26  1  0
 14 15  1  0
 14 18  2  0
 15 22  1  0
 16 17  2  0
 16 32  1  0
 17 18  1  0
 17 24  1  0
 18 25  1  0
 19 33  1  6
 20 21  2  0
 26 28  1  0
 27 28  2  0
M  END
$$$$
