
     RDKit          3D

 34 37  0  0  0  0  0  0  0  0999 V2000
  -19.4811    6.1169   -0.5716 C   0  0  0  0  0  0  0  0  0  0  0  0
  -13.8245    9.5711   -1.9924 C   0  0  0  0  0  0  0  0  0  0  0  0
  -10.7119   11.4018   -1.0772 C   0  0  0  0  0  0  0  0  0  0  0  0
  -26.4055    9.7987   -2.6262 C   0  0  0  0  0  0  0  0  0  0  0  0
  -24.9968   10.0986   -2.2026 C   0  0  0  0  0  0  0  0  0  0  0  0
  -23.9829   10.0935   -3.1368 C   0  0  0  0  0  0  0  0  0  0  0  0
  -22.6671   10.3706   -2.7573 C   0  0  0  0  0  0  0  0  0  0  0  0
  -22.3443   10.6554   -1.4477 C   0  0  0  0  0  0  0  0  0  0  0  0
  -19.5575    9.6237   -1.4111 C   0  0  1  0  0  0  0  0  0  0  0  0
  -19.1200    7.4403   -1.2084 C   0  0  2  0  0  0  0  0  0  0  0  0
  -17.6130    7.6575   -1.1912 C   0  0  1  0  0  0  0  0  0  0  0  0
  -17.3352    8.8808   -2.0055 C   0  0  1  0  0  0  0  0  0  0  0  0
  -15.0114    9.3856   -1.3094 C   0  0  0  0  0  0  0  0  0  0  0  0
  -12.5216    9.8658   -1.4187 C   0  0  0  0  0  0  0  0  0  0  0  0
  -11.9469   11.1081   -1.6160 C   0  0  0  0  0  0  0  0  0  0  0  0
   -9.9980   10.4951   -0.3295 C   0  0  0  0  0  0  0  0  0  0  0  0
  -10.5697    9.2495   -0.1292 C   0  0  0  0  0  0  0  0  0  0  0  0
  -11.8027    8.9491   -0.6642 C   0  0  0  0  0  0  0  0  0  0  0  0
  -18.0823   10.0402   -1.3825 C   0  0  1  0  0  0  0  0  0  0  0  0
  -23.3700   10.6565   -0.5257 C   0  0  0  0  0  0  0  0  0  0  0  0
  -24.6819   10.3822   -0.8934 C   0  0  0  0  0  0  0  0  0  0  0  0
  -12.5600   12.0794   -2.3361 F   0  0  0  0  0  0  0  0  0  0  0  0
  -10.1839   12.6229   -1.2920 F   0  0  0  0  0  0  0  0  0  0  0  0
   -9.8585    8.3639    0.6094 F   0  0  0  0  0  0  0  0  0  0  0  0
  -12.3008    7.7112   -0.4283 F   0  0  0  0  0  0  0  0  0  0  0  0
  -15.9438    9.1398   -2.2168 N   0  0  0  0  0  0  0  0  0  0  0  0
  -14.0965    9.4260   -3.3182 N   0  0  0  0  0  0  0  0  0  0  0  0
  -15.3727    9.1689   -3.4161 N   0  0  0  0  0  0  0  0  0  0  0  0
  -19.7872    8.5104   -0.6123 O   0  0  0  0  0  0  0  0  0  0  0  0
  -19.9381    5.1954   -1.4825 O   0  0  0  0  0  0  0  0  0  0  0  0
  -17.2287    7.7344    0.1212 O   0  0  0  0  0  0  0  0  0  0  0  0
   -8.7730   10.8619    0.1748 O   0  0  0  0  0  0  0  0  0  0  0  0
  -17.9708   11.1987   -2.1490 O   0  0  0  0  0  0  0  0  0  0  0  0
  -20.6434   11.0009   -1.0305 S   0  0  0  0  0  0  0  0  0  0  0  0
 10  1  1  0
  1 30  1  6
  2 13  2  0
 14  2  1  0
  2 27  1  0
 15  3  2  0
  3 16  1  0
  3 23  1  0
  4  5  1  6
  6  5  2  0
  5 21  1  0
  7  6  1  0
  8  7  2  0
  8 20  1  0
 34  8  1  0
 19  9  1  0
  9 29  1  0
  9 34  1  1
 11 10  1  0
 10 29  1  1
 12 11  1  0
 11 31  1  1
 12 19  1  0
 12 26  1  1
 13 26  1  0
 14 15  1  0
 14 18  2  0
 15 22  1  0
 16 17  2  0
 16 32  1  0
 17 18  1  0
 17 24  1  0
 18 25  1  0
 19 33  1  6
 20 21  2  0
 26 28  1  0
 27 28  2  0
M  END
$$$$
