
     RDKit          3D

 34 37  0  0  0  0  0  0  0  0999 V2000
  -19.6386    6.3281   -0.0447 C   0  0  0  0  0  0  0  0  0  0  0  0
  -14.1370    9.5313   -2.2183 C   0  0  0  0  0  0  0  0  0  0  0  0
  -11.1395    7.9577   -3.8200 C   0  0  0  0  0  0  0  0  0  0  0  0
  -26.2510    9.0054   -4.0433 C   0  0  0  0  0  0  0  0  0  0  0  0
  -25.0462    9.4983   -3.3706 C   0  0  0  0  0  0  0  0  0  0  0  0
  -24.6767   10.8271   -3.3755 C   0  0  0  0  0  0  0  0  0  0  0  0
  -23.5494   11.2705   -2.7425 C   0  0  0  0  0  0  0  0  0  0  0  0
  -22.7572   10.3631   -2.0790 C   0  0  0  0  0  0  0  0  0  0  0  0
  -20.0287    9.5667   -1.4988 C   0  0  1  0  0  0  0  0  0  0  0  0
  -19.4148    7.5124   -0.9097 C   0  0  2  0  0  0  0  0  0  0  0  0
  -17.9551    7.7236   -1.2354 C   0  0  1  0  0  0  0  0  0  0  0  0
  -17.7235    8.9730   -2.0378 C   0  0  1  0  0  0  0  0  0  0  0  0
  -15.3141    8.9643   -2.6791 C   0  0  0  0  0  0  0  0  0  0  0  0
  -12.8217    9.3633   -2.7904 C   0  0  0  0  0  0  0  0  0  0  0  0
  -12.4023    8.1404   -3.2658 C   0  0  0  0  0  0  0  0  0  0  0  0
  -10.2744    9.0319   -3.8990 C   0  0  0  0  0  0  0  0  0  0  0  0
  -10.6761   10.2602   -3.4294 C   0  0  0  0  0  0  0  0  0  0  0  0
  -11.9308   10.4193   -2.8843 C   0  0  0  0  0  0  0  0  0  0  0  0
  -18.6371   10.1048   -1.6359 C   0  0  1  0  0  0  0  0  0  0  0  0
  -23.0837    9.0244   -2.0453 C   0  0  0  0  0  0  0  0  0  0  0  0
  -24.2301    8.6243   -2.6980 C   0  0  0  0  0  0  0  0  0  0  0  0
  -13.2349    7.0784   -3.1968 F   0  0  0  0  0  0  0  0  0  0  0  0
  -10.7717    6.7427   -4.2727 F   0  0  0  0  0  0  0  0  0  0  0  0
   -9.8054   11.3159   -3.5154 F   0  0  0  0  0  0  0  0  0  0  0  0
  -12.3017   11.6334   -2.4307 F   0  0  0  0  0  0  0  0  0  0  0  0
  -16.3268    9.3497   -1.8920 N   0  0  0  0  0  0  0  0  0  0  0  0
  -14.4847   10.2498   -1.1534 N   0  0  0  0  0  0  0  0  0  0  0  0
  -15.7857   10.1365   -0.9669 N   0  0  0  0  0  0  0  0  0  0  0  0
  -20.0173    8.6722   -0.4273 O   0  0  0  0  0  0  0  0  0  0  0  0
  -20.4164    5.3472   -0.5988 O   0  0  0  0  0  0  0  0  0  0  0  0
  -17.1927    7.6775   -0.0699 O   0  0  0  0  0  0  0  0  0  0  0  0
   -9.0222    8.8366   -4.4520 O   0  0  0  0  0  0  0  0  0  0  0  0
  -18.6392   11.0767   -2.6361 O   0  0  0  0  0  0  0  0  0  0  0  0
  -21.2570   10.8614   -1.2199 S   0  0  0  0  0  0  0  0  0  0  0  0
 10  1  1  1
  1 30  1  0
  2 13  2  0
 14  2  1  0
  2 27  1  0
 15  3  2  0
  3 16  1  0
  3 23  1  0
  5  4  1  0
  6  5  2  0
  5 21  1  0
  7  6  1  0
  8  7  2  0
  8 20  1  0
 34  8  1  0
 19  9  1  0
  9 29  1  0
  9 34  1  1
 11 10  1  0
 10 29  1  0
 12 11  1  0
 11 31  1  1
 12 19  1  0
 12 26  1  1
 13 26  1  0
 14 15  1  0
 14 18  2  0
 15 22  1  0
 16 17  2  0
 16 32  1  0
 17 18  1  0
 17 24  1  0
 18 25  1  0
 19 33  1  6
 20 21  2  0
 26 28  1  0
 27 28  2  0
M  END
$$$$
