
     RDKit          3D

 34 37  0  0  0  0  0  0  0  0999 V2000
  -19.5001    8.4239   -4.7303 C   0  0  0  0  0  0  0  0  0  0  0  0
  -13.6020    9.1096   -1.1017 C   0  0  0  0  0  0  0  0  0  0  0  0
  -10.4357   11.0681   -1.2277 C   0  0  0  0  0  0  0  0  0  0  0  0
  -25.7751   11.8405   -0.5552 C   0  0  0  0  0  0  0  0  0  0  0  0
  -24.4821   11.0937   -0.3998 C   0  0  0  0  0  0  0  0  0  0  0  0
  -24.3090   10.2338    0.6638 C   0  0  0  0  0  0  0  0  0  0  0  0
  -23.1111    9.5322    0.8214 C   0  0  0  0  0  0  0  0  0  0  0  0
  -22.0734    9.6766   -0.0744 C   0  0  0  0  0  0  0  0  0  0  0  0
  -19.4045    8.9543   -1.1641 C   0  0  1  0  0  0  0  0  0  0  0  0
  -19.0051    8.8319   -3.3607 C   0  0  2  0  0  0  0  0  0  0  0  0
  -17.5561    8.4095   -3.1596 C   0  0  1  0  0  0  0  0  0  0  0  0
  -17.0945    9.0183   -1.8738 C   0  0  1  0  0  0  0  0  0  0  0  0
  -14.8179    9.7538   -1.2290 C   0  0  0  0  0  0  0  0  0  0  0  0
  -12.3354    9.7016   -0.7035 C   0  0  0  0  0  0  0  0  0  0  0  0
  -11.6380   10.4993   -1.5922 C   0  0  0  0  0  0  0  0  0  0  0  0
   -9.8750   10.8779    0.0134 C   0  0  0  0  0  0  0  0  0  0  0  0
  -10.5700   10.0796    0.9068 C   0  0  0  0  0  0  0  0  0  0  0  0
  -11.7712    9.5084    0.5498 C   0  0  0  0  0  0  0  0  0  0  0  0
  -17.9918    8.5122   -0.7650 C   0  0  1  0  0  0  0  0  0  0  0  0
  -22.2624   10.5404   -1.1328 C   0  0  0  0  0  0  0  0  0  0  0  0
  -23.4503   11.2427   -1.2981 C   0  0  0  0  0  0  0  0  0  0  0  0
  -12.0956   10.7557   -2.8423 F   0  0  0  0  0  0  0  0  0  0  0  0
   -9.7849   11.8386   -2.1214 F   0  0  0  0  0  0  0  0  0  0  0  0
  -10.0092    9.8992    2.1269 F   0  0  0  0  0  0  0  0  0  0  0  0
  -12.3957    8.7390    1.4740 F   0  0  0  0  0  0  0  0  0  0  0  0
  -15.6991    8.8421   -1.6104 N   0  0  0  0  0  0  0  0  0  0  0  0
  -13.8046    7.8017   -1.4199 N   0  0  0  0  0  0  0  0  0  0  0  0
  -15.0693    7.6771   -1.7191 N   0  0  0  0  0  0  0  0  0  0  0  0
  -19.8170    8.3388   -2.3393 O   0  0  0  0  0  0  0  0  0  0  0  0
  -20.7869    8.8382   -4.9760 O   0  0  0  0  0  0  0  0  0  0  0  0
  -17.5228    7.0408   -3.1984 O   0  0  0  0  0  0  0  0  0  0  0  0
   -8.6731   11.4786    0.3029 O   0  0  0  0  0  0  0  0  0  0  0  0
  -17.7024    9.1232    0.4536 O   0  0  0  0  0  0  0  0  0  0  0  0
  -20.5697    8.7503    0.1854 S   0  0  0  0  0  0  0  0  0  0  0  0
 10  1  1  0
  1 30  1  6
  2 13  2  0
 14  2  1  0
  2 27  1  0
 15  3  2  0
  3 16  1  0
  3 23  1  0
  4  5  1  6
  6  5  2  0
  5 21  1  0
  7  6  1  0
  8  7  2  0
  8 20  1  0
 34  8  1  0
 19  9  1  0
  9 29  1  0
  9 34  1  1
 11 10  1  0
 10 29  1  1
 12 11  1  0
 11 31  1  1
 12 19  1  0
 12 26  1  1
 13 26  1  0
 14 15  1  0
 14 18  2  0
 15 22  1  0
 16 17  2  0
 16 32  1  0
 17 18  1  0
 17 24  1  0
 18 25  1  0
 19 33  1  1
 20 21  2  0
 26 28  1  0
 27 28  2  0
M  END
$$$$
