
     RDKit          3D

 34 37  0  0  0  0  0  0  0  0999 V2000
  -19.5076    5.9971   -0.4826 C   0  0  0  0  0  0  0  0  0  0  0  0
  -13.6275    8.6362   -2.0081 C   0  0  0  0  0  0  0  0  0  0  0  0
  -10.4437   10.4866   -1.3254 C   0  0  0  0  0  0  0  0  0  0  0  0
  -25.8045    9.7412   -3.3670 C   0  0  0  0  0  0  0  0  0  0  0  0
  -24.4296   10.0341   -2.9536 C   0  0  0  0  0  0  0  0  0  0  0  0
  -23.9989   11.3044   -2.6322 C   0  0  0  0  0  0  0  0  0  0  0  0
  -22.7125   11.5604   -2.2480 C   0  0  0  0  0  0  0  0  0  0  0  0
  -21.8177   10.5183   -2.1794 C   0  0  0  0  0  0  0  0  0  0  0  0
  -19.2303    9.2191   -1.9982 C   0  0  1  0  0  0  0  0  0  0  0  0
  -19.0714    7.0861   -1.3908 C   0  0  2  0  0  0  0  0  0  0  0  0
  -17.6259    6.9486   -1.8068 C   0  0  1  0  0  0  0  0  0  0  0  0
  -17.1632    8.0997   -2.6547 C   0  0  1  0  0  0  0  0  0  0  0  0
  -14.9693    8.8573   -1.7438 C   0  0  0  0  0  0  0  0  0  0  0  0
  -12.5071    9.2187   -1.3074 C   0  0  0  0  0  0  0  0  0  0  0  0
  -11.5307    9.9184   -1.9816 C   0  0  0  0  0  0  0  0  0  0  0  0
  -10.3340   10.3486    0.0448 C   0  0  0  0  0  0  0  0  0  0  0  0
  -11.2994    9.6534    0.7343 C   0  0  0  0  0  0  0  0  0  0  0  0
  -12.3676    9.0986    0.0651 C   0  0  0  0  0  0  0  0  0  0  0  0
  -17.7636    9.4177   -2.2308 C   0  0  1  0  0  0  0  0  0  0  0  0
  -22.1995    9.2310   -2.4906 C   0  0  0  0  0  0  0  0  0  0  0  0
  -23.5073    9.0215   -2.8729 C   0  0  0  0  0  0  0  0  0  0  0  0
  -11.6214   10.0636   -3.3220 F   0  0  0  0  0  0  0  0  0  0  0  0
   -9.5120   11.1629   -2.0260 F   0  0  0  0  0  0  0  0  0  0  0  0
  -11.1755    9.5258    2.0939 F   0  0  0  0  0  0  0  0  0  0  0  0
  -13.3012    8.4216    0.7632 F   0  0  0  0  0  0  0  0  0  0  0  0
  -15.7109    8.1438   -2.6010 N   0  0  0  0  0  0  0  0  0  0  0  0
  -13.6049    7.7846   -3.0306 N   0  0  0  0  0  0  0  0  0  0  0  0
  -14.8452    7.4977   -3.3761 N   0  0  0  0  0  0  0  0  0  0  0  0
  -19.3582    8.3601   -0.9054 O   0  0  0  0  0  0  0  0  0  0  0  0
  -20.8637    5.8401   -0.3792 O   0  0  0  0  0  0  0  0  0  0  0  0
  -16.8228    6.7415   -0.6870 O   0  0  0  0  0  0  0  0  0  0  0  0
   -9.2486   10.9182    0.6847 O   0  0  0  0  0  0  0  0  0  0  0  0
  -17.6043   10.3508   -3.2550 O   0  0  0  0  0  0  0  0  0  0  0  0
  -20.1064   10.7670   -1.6830 S   0  0  0  0  0  0  0  0  0  0  0  0
 10  1  1  1
  1 30  1  0
  2 13  2  0
 14  2  1  0
  2 27  1  0
 15  3  2  0
  3 16  1  0
  3 23  1  0
  5  4  1  0
  6  5  2  0
  5 21  1  0
  7  6  1  0
  8  7  2  0
  8 20  1  0
 34  8  1  0
 19  9  1  0
  9 29  1  0
  9 34  1  1
 11 10  1  0
 10 29  1  0
 12 11  1  0
 11 31  1  1
 12 19  1  0
 12 26  1  1
 13 26  1  0
 14 15  1  0
 14 18  2  0
 15 22  1  0
 16 17  2  0
 16 32  1  0
 17 18  1  0
 17 24  1  0
 18 25  1  0
 19 33  1  6
 20 21  2  0
 26 28  1  0
 27 28  2  0
M  END
$$$$
