
     RDKit          3D

 34 37  0  0  0  0  0  0  0  0999 V2000
  -19.3990    9.6399   -4.8452 C   0  0  0  0  0  0  0  0  0  0  0  0
  -14.1273    9.0726   -0.7155 C   0  0  0  0  0  0  0  0  0  0  0  0
  -10.8242    9.6512    0.9523 C   0  0  0  0  0  0  0  0  0  0  0  0
  -25.9382   12.2736    0.0151 C   0  0  0  0  0  0  0  0  0  0  0  0
  -24.8107   11.3489   -0.1298 C   0  0  0  0  0  0  0  0  0  0  0  0
  -23.6003   11.7239   -0.6743 C   0  0  0  0  0  0  0  0  0  0  0  0
  -22.5583   10.8487   -0.8020 C   0  0  0  0  0  0  0  0  0  0  0  0
  -22.7211    9.5519   -0.3740 C   0  0  0  0  0  0  0  0  0  0  0  0
  -20.0279    9.1313   -1.3666 C   0  0  1  0  0  0  0  0  0  0  0  0
  -19.2428    9.6889   -3.3708 C   0  0  2  0  0  0  0  0  0  0  0  0
  -17.7947    9.6775   -2.9416 C   0  0  1  0  0  0  0  0  0  0  0  0
  -17.6418    9.6383   -1.4471 C   0  0  1  0  0  0  0  0  0  0  0  0
  -15.2025    9.8982   -1.0009 C   0  0  0  0  0  0  0  0  0  0  0  0
  -12.7623    9.4873   -0.4907 C   0  0  0  0  0  0  0  0  0  0  0  0
  -12.1379    9.2593    0.7157 C   0  0  0  0  0  0  0  0  0  0  0  0
  -10.1185   10.2892   -0.0494 C   0  0  0  0  0  0  0  0  0  0  0  0
  -10.7259   10.5251   -1.2603 C   0  0  0  0  0  0  0  0  0  0  0  0
  -12.0275   10.1288   -1.4736 C   0  0  0  0  0  0  0  0  0  0  0  0
  -18.6945    8.7932   -0.7728 C   0  0  1  0  0  0  0  0  0  0  0  0
  -23.9115    9.1287    0.1770 C   0  0  0  0  0  0  0  0  0  0  0  0
  -24.9338   10.0471    0.2853 C   0  0  0  0  0  0  0  0  0  0  0  0
  -12.8125    8.6366    1.7071 F   0  0  0  0  0  0  0  0  0  0  0  0
  -10.2534    9.4072    2.1485 F   0  0  0  0  0  0  0  0  0  0  0  0
  -10.0114   11.1593   -2.2438 F   0  0  0  0  0  0  0  0  0  0  0  0
  -12.6012   10.3713   -2.6692 F   0  0  0  0  0  0  0  0  0  0  0  0
  -16.3056    9.1521   -1.1435 N   0  0  0  0  0  0  0  0  0  0  0  0
  -14.6255    7.8387   -0.6952 N   0  0  0  0  0  0  0  0  0  0  0  0
  -15.9186    7.8950   -0.9502 N   0  0  0  0  0  0  0  0  0  0  0  0
  -19.9953    8.7260   -2.7019 O   0  0  0  0  0  0  0  0  0  0  0  0
  -20.6459    9.9689   -5.3050 O   0  0  0  0  0  0  0  0  0  0  0  0
  -17.1125    8.6465   -3.5846 O   0  0  0  0  0  0  0  0  0  0  0  0
   -8.8137   10.6734    0.1989 O   0  0  0  0  0  0  0  0  0  0  0  0
  -18.7309    9.0960    0.5881 O   0  0  0  0  0  0  0  0  0  0  0  0
  -21.4016    8.3358   -0.5047 S   0  0  0  0  0  0  0  0  0  0  0  0
 10  1  1  6
  1 30  1  0
  2 13  2  0
 14  2  1  0
  2 27  1  0
 15  3  2  0
  3 16  1  0
  3 23  1  0
  5  4  1  0
  6  5  2  0
  5 21  1  0
  7  6  1  0
  8  7  2  0
  8 20  1  0
 34  8  1  0
 19  9  1  0
  9 29  1  0
  9 34  1  1
 11 10  1  0
 10 29  1  0
 12 11  1  0
 11 31  1  6
 12 19  1  0
 12 26  1  6
 13 26  1  0
 14 15  1  0
 14 18  2  0
 15 22  1  0
 16 17  2  0
 16 32  1  0
 17 18  1  0
 17 24  1  0
 18 25  1  0
 19 33  1  1
 20 21  2  0
 26 28  1  0
 27 28  2  0
M  END
$$$$
