
     RDKit          3D

 34 37  0  0  0  0  0  0  0  0999 V2000
  -20.3438    6.2093   -1.5143 C   0  0  0  0  0  0  0  0  0  0  0  0
  -14.1400    9.1595   -1.0261 C   0  0  0  0  0  0  0  0  0  0  0  0
  -10.9361    9.5409   -2.9276 C   0  0  0  0  0  0  0  0  0  0  0  0
  -26.1546   11.2786   -2.9373 C   0  0  0  0  0  0  0  0  0  0  0  0
  -24.9272   11.1870   -2.1421 C   0  0  0  0  0  0  0  0  0  0  0  0
  -24.8180   11.7106   -0.8709 C   0  0  0  0  0  0  0  0  0  0  0  0
  -23.6654   11.6162   -0.1423 C   0  0  0  0  0  0  0  0  0  0  0  0
  -22.5789   10.9786   -0.6939 C   0  0  0  0  0  0  0  0  0  0  0  0
  -19.9851    9.6812   -0.7578 C   0  0  1  0  0  0  0  0  0  0  0  0
  -19.8022    7.5902   -1.4917 C   0  0  2  0  0  0  0  0  0  0  0  0
  -18.2944    7.6220   -1.5747 C   0  0  1  0  0  0  0  0  0  0  0  0
  -17.7450    9.0162   -1.4629 C   0  0  1  0  0  0  0  0  0  0  0  0
  -15.3065    9.4781   -1.7021 C   0  0  0  0  0  0  0  0  0  0  0  0
  -12.8017    9.5678   -1.3835 C   0  0  0  0  0  0  0  0  0  0  0  0
  -12.2237    9.1590   -2.5651 C   0  0  0  0  0  0  0  0  0  0  0  0
  -10.2091   10.3552   -2.0808 C   0  0  0  0  0  0  0  0  0  0  0  0
  -10.7702   10.7730   -0.8970 C   0  0  0  0  0  0  0  0  0  0  0  0
  -12.0467   10.3832   -0.5573 C   0  0  0  0  0  0  0  0  0  0  0  0
  -18.5226    9.8762   -0.4970 C   0  0  1  0  0  0  0  0  0  0  0  0
  -22.6382   10.4389   -1.9607 C   0  0  0  0  0  0  0  0  0  0  0  0
  -23.8217   10.5586   -2.6573 C   0  0  0  0  0  0  0  0  0  0  0  0
  -12.9197    8.3624   -3.4058 F   0  0  0  0  0  0  0  0  0  0  0  0
  -10.4107    9.1169   -4.0940 F   0  0  0  0  0  0  0  0  0  0  0  0
  -10.0353   11.5810   -0.0680 F   0  0  0  0  0  0  0  0  0  0  0  0
  -12.5750   10.8059    0.6087 F   0  0  0  0  0  0  0  0  0  0  0  0
  -16.3480    8.9200   -1.0716 N   0  0  0  0  0  0  0  0  0  0  0  0
  -14.5230    8.4091    0.0043 N   0  0  0  0  0  0  0  0  0  0  0  0
  -15.8346    8.2720   -0.0303 N   0  0  0  0  0  0  0  0  0  0  0  0
  -20.2850    8.3571   -0.4335 O   0  0  0  0  0  0  0  0  0  0  0  0
  -21.5264    6.0639   -2.1886 O   0  0  0  0  0  0  0  0  0  0  0  0
  -17.7446    6.7450   -0.6416 O   0  0  0  0  0  0  0  0  0  0  0  0
   -8.9305   10.7274   -2.4530 O   0  0  0  0  0  0  0  0  0  0  0  0
  -18.2128   11.2180   -0.7175 O   0  0  0  0  0  0  0  0  0  0  0  0
  -21.0242   10.8097    0.1958 S   0  0  0  0  0  0  0  0  0  0  0  0
 10  1  1  1
  1 30  1  0
  2 13  2  0
 14  2  1  0
  2 27  1  0
 15  3  2  0
  3 16  1  0
  3 23  1  0
  5  4  1  0
  6  5  2  0
  5 21  1  0
  7  6  1  0
  8  7  2  0
  8 20  1  0
 34  8  1  0
 19  9  1  0
  9 29  1  0
  9 34  1  1
 11 10  1  0
 10 29  1  0
 12 11  1  0
 11 31  1  1
 12 19  1  0
 12 26  1  1
 13 26  1  0
 14 15  1  0
 14 18  2  0
 15 22  1  0
 16 17  2  0
 16 32  1  0
 17 18  1  0
 17 24  1  0
 18 25  1  0
 19 33  1  6
 20 21  2  0
 26 28  1  0
 27 28  2  0
M  END
$$$$
