
     RDKit          3D

 34 37  0  0  0  0  0  0  0  0999 V2000
  -19.3888    6.5113    0.2775 C   0  0  0  0  0  0  0  0  0  0  0  0
  -13.8533    9.6709   -1.5068 C   0  0  0  0  0  0  0  0  0  0  0  0
  -10.3466    9.2622   -2.7570 C   0  0  0  0  0  0  0  0  0  0  0  0
  -26.0840    7.3206   -3.6662 C   0  0  0  0  0  0  0  0  0  0  0  0
  -24.8553    8.0483   -3.3376 C   0  0  0  0  0  0  0  0  0  0  0  0
  -23.6204    7.6988   -3.8426 C   0  0  0  0  0  0  0  0  0  0  0  0
  -22.4838    8.3886   -3.5261 C   0  0  0  0  0  0  0  0  0  0  0  0
  -22.5733    9.4663   -2.6764 C   0  0  0  0  0  0  0  0  0  0  0  0
  -19.7681    9.2647   -1.9652 C   0  0  1  0  0  0  0  0  0  0  0  0
  -19.1076    7.4875   -0.8036 C   0  0  2  0  0  0  0  0  0  0  0  0
  -17.6350    7.7960   -0.9361 C   0  0  1  0  0  0  0  0  0  0  0  0
  -17.3628    8.8502   -1.9719 C   0  0  1  0  0  0  0  0  0  0  0  0
  -14.8721    8.8048   -1.8690 C   0  0  0  0  0  0  0  0  0  0  0  0
  -12.4367    9.3919   -1.5403 C   0  0  0  0  0  0  0  0  0  0  0  0
  -11.7114    9.5263   -2.7036 C   0  0  0  0  0  0  0  0  0  0  0  0
   -9.6924    8.8521   -1.6114 C   0  0  0  0  0  0  0  0  0  0  0  0
  -10.4005    8.7125   -0.4410 C   0  0  0  0  0  0  0  0  0  0  0  0
  -11.7513    8.9792   -0.4101 C   0  0  0  0  0  0  0  0  0  0  0  0
  -18.4231    9.9235   -2.0077 C   0  0  1  0  0  0  0  0  0  0  0  0
  -23.7844    9.8550   -2.1455 C   0  0  0  0  0  0  0  0  0  0  0  0
  -24.9032    9.1289   -2.4936 C   0  0  0  0  0  0  0  0  0  0  0  0
  -12.3344    9.9264   -3.8339 F   0  0  0  0  0  0  0  0  0  0  0  0
   -9.6771    9.4074   -3.9176 F   0  0  0  0  0  0  0  0  0  0  0  0
   -9.7361    8.3047    0.6869 F   0  0  0  0  0  0  0  0  0  0  0  0
  -12.4238    8.8350    0.7494 F   0  0  0  0  0  0  0  0  0  0  0  0
  -16.0514    9.4177   -1.7036 N   0  0  0  0  0  0  0  0  0  0  0  0
  -14.4614   10.7931   -1.1298 N   0  0  0  0  0  0  0  0  0  0  0  0
  -15.7655   10.6342   -1.2497 N   0  0  0  0  0  0  0  0  0  0  0  0
  -19.8800    8.6440   -0.7199 O   0  0  0  0  0  0  0  0  0  0  0  0
  -20.3862    5.6152    0.0012 O   0  0  0  0  0  0  0  0  0  0  0  0
  -17.0968    8.1081    0.3108 O   0  0  0  0  0  0  0  0  0  0  0  0
   -8.3359    8.5929   -1.6782 O   0  0  0  0  0  0  0  0  0  0  0  0
  -18.3214   10.6363   -3.2021 O   0  0  0  0  0  0  0  0  0  0  0  0
  -21.1274   10.4292   -2.2081 S   0  0  0  0  0  0  0  0  0  0  0  0
 10  1  1  1
  1 30  1  0
  2 13  2  0
 14  2  1  0
  2 27  1  0
 15  3  2  0
  3 16  1  0
  3 23  1  0
  5  4  1  0
  6  5  2  0
  5 21  1  0
  7  6  1  0
  8  7  2  0
  8 20  1  0
 34  8  1  0
 19  9  1  0
  9 29  1  0
  9 34  1  1
 11 10  1  0
 10 29  1  0
 12 11  1  0
 11 31  1  1
 12 19  1  0
 12 26  1  1
 13 26  1  0
 14 15  1  0
 14 18  2  0
 15 22  1  0
 16 17  2  0
 16 32  1  0
 17 18  1  0
 17 24  1  0
 18 25  1  0
 19 33  1  6
 20 21  2  0
 26 28  1  0
 27 28  2  0
M  END
$$$$
