
     RDKit          3D

 34 37  0  0  0  0  0  0  0  0999 V2000
  -19.4868    5.9759   -0.4480 C   0  0  0  0  0  0  0  0  0  0  0  0
  -13.6634    9.1463   -1.6995 C   0  0  0  0  0  0  0  0  0  0  0  0
  -11.0752    9.8299    0.8912 C   0  0  0  0  0  0  0  0  0  0  0  0
  -26.0565    9.9410   -3.5459 C   0  0  0  0  0  0  0  0  0  0  0  0
  -24.7018   10.1629   -2.9381 C   0  0  0  0  0  0  0  0  0  0  0  0
  -23.6131   10.3931   -3.7521 C   0  0  0  0  0  0  0  0  0  0  0  0
  -22.3463   10.6012   -3.2007 C   0  0  0  0  0  0  0  0  0  0  0  0
  -22.1471   10.5830   -1.8369 C   0  0  0  0  0  0  0  0  0  0  0  0
  -19.4310    9.4395   -1.4521 C   0  0  1  0  0  0  0  0  0  0  0  0
  -19.0588    7.2594   -1.1238 C   0  0  2  0  0  0  0  0  0  0  0  0
  -17.5503    7.4444   -1.0310 C   0  0  1  0  0  0  0  0  0  0  0  0
  -17.1978    8.6212   -1.8840 C   0  0  1  0  0  0  0  0  0  0  0  0
  -14.8776    8.9373   -1.0738 C   0  0  0  0  0  0  0  0  0  0  0  0
  -12.3677    9.3139   -1.0619 C   0  0  0  0  0  0  0  0  0  0  0  0
  -12.2974    9.6681    0.2731 C   0  0  0  0  0  0  0  0  0  0  0  0
   -9.8835    9.6518    0.2287 C   0  0  0  0  0  0  0  0  0  0  0  0
   -9.9490    9.2970   -1.1085 C   0  0  0  0  0  0  0  0  0  0  0  0
  -11.1659    9.1337   -1.7324 C   0  0  0  0  0  0  0  0  0  0  0  0
  -17.9501    9.8249   -1.3589 C   0  0  1  0  0  0  0  0  0  0  0  0
  -23.2462   10.3515   -1.0365 C   0  0  0  0  0  0  0  0  0  0  0  0
  -24.5103   10.1435   -1.5755 C   0  0  0  0  0  0  0  0  0  0  0  0
  -13.4076    9.8695    1.0245 F   0  0  0  0  0  0  0  0  0  0  0  0
  -11.0472   10.1765    2.1931 F   0  0  0  0  0  0  0  0  0  0  0  0
   -8.7692    9.1233   -1.7516 F   0  0  0  0  0  0  0  0  0  0  0  0
  -11.1544    8.7864   -3.0421 F   0  0  0  0  0  0  0  0  0  0  0  0
  -15.7908    8.8397   -2.0275 N   0  0  0  0  0  0  0  0  0  0  0  0
  -13.8999    9.1669   -3.0398 N   0  0  0  0  0  0  0  0  0  0  0  0
  -15.1821    8.9807   -3.2001 N   0  0  0  0  0  0  0  0  0  0  0  0
  -19.7320    8.3708   -0.6170 O   0  0  0  0  0  0  0  0  0  0  0  0
  -20.6835    5.4975   -0.9242 O   0  0  0  0  0  0  0  0  0  0  0  0
  -17.2380    7.5755    0.2962 O   0  0  0  0  0  0  0  0  0  0  0  0
   -8.7051    9.8310    0.9133 O   0  0  0  0  0  0  0  0  0  0  0  0
  -17.7678   10.9429   -2.1706 O   0  0  0  0  0  0  0  0  0  0  0  0
  -20.5027   10.8565   -1.1981 S   0  0  0  0  0  0  0  0  0  0  0  0
 10  1  1  0
  1 30  1  6
  2 13  2  0
 14  2  1  0
  2 27  1  0
 15  3  2  0
  3 16  1  0
  3 23  1  0
  4  5  1  6
  6  5  2  0
  5 21  1  0
  7  6  1  0
  8  7  2  0
  8 20  1  0
 34  8  1  0
 19  9  1  0
  9 29  1  0
  9 34  1  1
 11 10  1  0
 10 29  1  1
 12 11  1  0
 11 31  1  1
 12 19  1  0
 12 26  1  1
 13 26  1  0
 14 15  1  0
 14 18  2  0
 15 22  1  0
 16 17  2  0
 16 32  1  0
 17 18  1  0
 17 24  1  0
 18 25  1  0
 19 33  1  6
 20 21  2  0
 26 28  1  0
 27 28  2  0
M  END
$$$$
