
     RDKit          3D

 17 17  0  0  0  0  0  0  0  0999 V2000
   11.8449   37.8178   43.9430 O   0  0  0  0  0  0  0  0  0  0  0  0
   10.7341   37.2764   44.1880 C   0  0  0  0  0  0  0  0  0  0  0  0
    9.6027   37.8476   44.6600 N   0  0  0  0  0  0  0  0  0  0  0  0
    8.7766   38.6307   43.7441 C   0  0  0  0  0  0  0  0  0  0  0  0
    9.0263   37.7801   45.9595 C   0  0  2  0  0  0  0  0  0  0  0  0
    9.9813   37.6160   47.0014 C   0  0  0  0  0  0  0  0  0  0  0  0
    9.9175   38.2934   48.0863 O   0  0  0  0  0  0  0  0  0  0  0  0
   11.0647   36.7133   46.9254 N   0  0  0  0  0  0  0  0  0  0  0  0
    7.8401   36.8448   45.9063 C   0  0  0  0  0  0  0  0  0  0  0  0
    7.0918   36.9490   44.6141 C   0  0  0  0  0  0  0  0  0  0  0  0
    7.4082   38.0969   43.7244 C   0  0  1  0  0  0  0  0  0  0  0  0
    6.4707   39.2007   43.9136 N   0  0  0  0  0  4  0  0  0  0  0  0
    6.0824   39.7455   42.7517 O   0  0  0  0  0  0  0  0  0  0  0  0
    7.0365   41.0353   42.2789 S   0  0  1  0  0  6  0  0  0  0  0  0
    6.5759   41.6709   41.0157 O   0  0  0  0  0  0  0  0  0  0  0  0
    7.0655   42.0663   43.3664 O   0  0  0  0  0  0  0  0  0  0  0  0
    8.6026   40.4577   42.0482 O   0  0  0  0  0  0  0  0  0  0  0  0
  1  2  2  0
  2  3  1  0
  3  4  1  0
  3  5  1  0
  4 11  1  0
  5  6  1  1
  5  9  1  0
  6  7  2  0
  6  8  1  0
  9 10  1  0
 10 11  1  0
 11 12  1  1
 12 13  1  0
 13 14  1  0
 14 15  2  0
 14 16  2  0
 14 17  1  6
M  CHG  1  12   1
M  END
$$$$
