
     RDKit          3D

 17 17  0  0  0  0  0  0  0  0999 V2000
   11.3815   37.2803   43.0225 O   0  0  0  0  0  0  0  0  0  0  0  0
   10.6971   36.9552   44.0289 C   0  0  0  0  0  0  0  0  0  0  0  0
    9.6914   37.6379   44.6219 N   0  0  0  0  0  0  0  0  0  0  0  0
    9.0902   38.7625   43.9089 C   0  0  0  0  0  0  0  0  0  0  0  0
    9.0565   37.4112   45.8753 C   0  0  2  0  0  0  0  0  0  0  0  0
    9.9084   36.8200   46.8497 C   0  0  0  0  0  0  0  0  0  0  0  0
   10.8801   36.0541   46.5190 O   0  0  0  0  0  0  0  0  0  0  0  0
    9.7529   37.0192   48.2391 N   0  0  0  0  0  0  0  0  0  0  0  0
    7.7037   36.7882   45.6181 C   0  0  0  0  0  0  0  0  0  0  0  0
    7.0522   37.3332   44.3854 C   0  0  0  0  0  0  0  0  0  0  0  0
    7.6423   38.5533   43.7753 C   0  0  1  0  0  0  0  0  0  0  0  0
    6.9508   39.7634   44.2117 N   0  0  0  0  0  4  0  0  0  0  0  0
    6.0295   40.1719   43.3274 O   0  0  0  0  0  0  0  0  0  0  0  0
    6.6656   41.1227   42.1072 S   0  0  1  0  0  6  0  0  0  0  0  0
    5.6233   41.7489   41.2508 O   0  0  0  0  0  0  0  0  0  0  0  0
    7.5252   42.1971   42.7013 O   0  0  0  0  0  0  0  0  0  0  0  0
    7.6328   40.1378   41.1406 O   0  0  0  0  0  0  0  0  0  0  0  0
  1  2  2  0
  2  3  1  0
  3  4  1  0
  3  5  1  0
  4 11  1  0
  5  6  1  1
  5  9  1  0
  6  7  2  0
  6  8  1  0
  9 10  1  0
 10 11  1  0
 11 12  1  1
 12 13  1  0
 13 14  1  0
 14 15  2  0
 14 16  2  0
 14 17  1  6
M  CHG  1  12   1
M  END
$$$$
