
     RDKit          3D

 17 17  0  0  0  0  0  0  0  0999 V2000
   10.6305   38.1791   44.7685 O   0  0  0  0  0  0  0  0  0  0  0  0
    9.5492   38.4904   44.1584 C   0  0  0  0  0  0  0  0  0  0  0  0
    8.3194   38.5177   44.8352 N   0  0  0  0  0  0  0  0  0  0  0  0
    8.3004   38.9194   46.2297 C   0  0  0  0  0  0  0  0  0  0  0  0
    7.0661   38.1916   44.2420 C   0  0  2  0  0  0  0  0  0  0  0  0
    7.0473   37.2779   43.1225 C   0  0  0  0  0  0  0  0  0  0  0  0
    6.6196   36.1106   43.3145 O   0  0  0  0  0  0  0  0  0  0  0  0
    7.4796   37.6059   41.8226 N   0  0  0  0  0  0  0  0  0  0  0  0
    6.3569   39.5209   43.9981 C   0  0  0  0  0  0  0  0  0  0  0  0
    6.7947   40.5495   45.0214 C   0  0  0  0  0  0  0  0  0  0  0  0
    7.1962   39.9478   46.3432 C   0  0  1  0  0  0  0  0  0  0  0  0
    6.0307   39.4757   47.0160 N   0  0  0  0  0  4  0  0  0  0  0  0
    5.9225   39.9176   48.2876 O   0  0  0  0  0  0  0  0  0  0  0  0
    6.6185   38.7307   49.2664 S   0  0  1  0  0  6  0  0  0  0  0  0
    7.8847   39.2615   49.9255 O   0  0  0  0  0  0  0  0  0  0  0  0
    5.7016   38.3369   50.3775 O   0  0  0  0  0  0  0  0  0  0  0  0
    7.0643   37.4234   48.3197 O   0  0  0  0  0  0  0  0  0  0  0  0
  1  2  2  0
  2  3  1  0
  4  3  1  1
  3  5  1  0
  4 11  1  0
  5  6  1  6
  9  5  1  1
  6  7  2  0
  6  8  1  0
 10  9  1  1
 10 11  1  0
 11 12  1  6
 12 13  1  6
 13 14  1  0
 14 15  2  0
 14 16  2  0
 14 17  1  6
M  CHG  1  12   1
M  END
$$$$
