
     RDKit          3D

 17 17  0  0  0  0  0  0  0  0999 V2000
   11.4809   36.9440   44.2078 O   0  0  0  0  0  0  0  0  0  0  0  0
   10.3554   36.5755   44.6934 C   0  0  0  0  0  0  0  0  0  0  0  0
    9.2820   37.4750   44.7937 N   0  0  0  0  0  0  0  0  0  0  0  0
    8.8275   38.1536   43.5941 C   0  0  0  0  0  0  0  0  0  0  0  0
    8.5833   37.7639   46.0009 C   0  0  2  0  0  0  0  0  0  0  0  0
    9.2806   37.6115   47.2574 C   0  0  0  0  0  0  0  0  0  0  0  0
   10.1370   38.4779   47.5713 O   0  0  0  0  0  0  0  0  0  0  0  0
    9.0675   36.5517   48.1604 N   0  0  0  0  0  0  0  0  0  0  0  0
    7.2558   37.0165   45.9083 C   0  0  0  0  0  0  0  0  0  0  0  0
    6.8298   36.8721   44.4611 C   0  0  0  0  0  0  0  0  0  0  0  0
    7.3235   37.9873   43.5762 C   0  0  1  0  0  0  0  0  0  0  0  0
    6.6043   39.1805   43.8812 N   0  0  0  0  0  4  0  0  0  0  0  0
    6.0575   39.7755   42.7991 O   0  0  0  0  0  0  0  0  0  0  0  0
    6.7294   41.3224   42.7144 S   0  0  1  0  0  6  0  0  0  0  0  0
    5.7388   42.3601   43.2255 O   0  0  0  0  0  0  0  0  0  0  0  0
    7.9402   41.4365   43.5813 O   0  0  0  0  0  0  0  0  0  0  0  0
    7.0576   41.6970   41.1157 O   0  0  0  0  0  0  0  0  0  0  0  0
  1  2  2  0
  2  3  1  0
  4  3  1  1
  3  5  1  0
  4 11  1  0
  5  6  1  1
  9  5  1  1
  6  7  2  0
  6  8  1  0
 10  9  1  1
 10 11  1  0
 11 12  1  1
 12 13  1  6
 13 14  1  0
 14 15  2  0
 14 16  2  0
 14 17  1  6
M  CHG  1  12   1
M  END
$$$$
