
     RDKit          3D

 17 17  0  0  0  0  0  0  0  0999 V2000
   11.3392   36.7271   43.3730 O   0  0  0  0  0  0  0  0  0  0  0  0
   10.4685   36.4991   44.2543 C   0  0  0  0  0  0  0  0  0  0  0  0
    9.5590   37.3497   44.7822 N   0  0  0  0  0  0  0  0  0  0  0  0
    8.8050   38.2189   43.8819 C   0  0  0  0  0  0  0  0  0  0  0  0
    9.1605   37.5251   46.1372 C   0  0  2  0  0  0  0  0  0  0  0  0
   10.1887   37.2381   47.0779 C   0  0  0  0  0  0  0  0  0  0  0  0
   11.4044   37.0642   46.7148 O   0  0  0  0  0  0  0  0  0  0  0  0
    9.9581   37.1164   48.4659 N   0  0  0  0  0  0  0  0  0  0  0  0
    7.8053   36.8818   46.3220 C   0  0  0  0  0  0  0  0  0  0  0  0
    6.9309   37.0426   45.1178 C   0  0  0  0  0  0  0  0  0  0  0  0
    7.3640   38.0092   44.0750 C   0  0  1  0  0  0  0  0  0  0  0  0
    6.7186   39.3087   44.2421 N   0  0  0  0  0  4  0  0  0  0  0  0
    7.4969   40.3213   43.8342 O   0  0  0  0  0  0  0  0  0  0  0  0
    6.8457   41.1759   42.5524 S   0  0  1  0  0  6  0  0  0  0  0  0
    6.8890   40.4267   41.2684 O   0  0  0  0  0  0  0  0  0  0  0  0
    5.4256   41.5428   42.8605 O   0  0  0  0  0  0  0  0  0  0  0  0
    7.7378   42.5945   42.3754 O   0  0  0  0  0  0  0  0  0  0  0  0
  1  2  2  0
  2  3  1  0
  3  4  1  0
  3  5  1  0
  4 11  1  0
  5  6  1  1
  5  9  1  0
  6  7  2  0
  6  8  1  0
  9 10  1  0
 10 11  1  0
 11 12  1  1
 12 13  1  0
 13 14  1  0
 14 15  2  0
 14 16  2  0
 14 17  1  6
M  CHG  1  12   1
M  END
$$$$
