
     RDKit          3D

 17 17  0  0  0  0  0  0  0  0999 V2000
    6.3495   39.1582   48.8578 O   0  0  0  0  0  0  0  0  0  0  0  0
    5.7638   38.7231   47.8308 C   0  0  0  0  0  0  0  0  0  0  0  0
    6.2175   38.6741   46.5576 N   0  0  0  0  0  0  0  0  0  0  0  0
    7.6397   38.4310   46.3278 C   0  0  0  0  0  0  0  0  0  0  0  0
    5.4997   38.7860   45.3338 C   0  0  2  0  0  0  0  0  0  0  0  0
    4.3378   39.6023   45.4244 C   0  0  0  0  0  0  0  0  0  0  0  0
    3.7995   40.1253   44.3867 O   0  0  0  0  0  0  0  0  0  0  0  0
    3.6956   39.9047   46.6453 N   0  0  0  0  0  0  0  0  0  0  0  0
    5.3743   37.4072   44.7274 C   0  0  0  0  0  0  0  0  0  0  0  0
    6.5933   36.5706   44.9613 C   0  0  0  0  0  0  0  0  0  0  0  0
    7.8129   37.2544   45.4656 C   0  0  1  0  0  0  0  0  0  0  0  0
    8.7268   37.5985   44.3796 N   0  0  0  0  0  4  0  0  0  0  0  0
    8.8499   38.9235   44.2165 O   0  0  0  0  0  0  0  0  0  0  0  0
    9.0807   39.3710   42.6215 S   0  0  1  0  0  6  0  0  0  0  0  0
    8.9519   40.8362   42.4011 O   0  0  0  0  0  0  0  0  0  0  0  0
   10.4347   38.9214   42.1625 O   0  0  0  0  0  0  0  0  0  0  0  0
    7.9138   38.5850   41.6941 O   0  0  0  0  0  0  0  0  0  0  0  0
  1  2  2  0
  2  3  1  0
  3  4  1  0
  3  5  1  0
  4 11  1  0
  5  6  1  1
  5  9  1  0
  6  7  2  0
  6  8  1  0
  9 10  1  0
 10 11  1  0
 11 12  1  6
 12 13  1  0
 13 14  1  0
 14 15  2  0
 14 16  2  0
 14 17  1  6
M  CHG  1  12   1
M  END
$$$$
