
     RDKit          3D

 17 17  0  0  0  0  0  0  0  0999 V2000
    9.6759   38.0446   42.3783 O   0  0  0  0  0  0  0  0  0  0  0  0
    8.8022   37.7206   43.2557 C   0  0  0  0  0  0  0  0  0  0  0  0
    7.9293   38.6790   43.7950 N   0  0  0  0  0  0  0  0  0  0  0  0
    7.3207   39.6477   42.9020 C   0  0  0  0  0  0  0  0  0  0  0  0
    7.5773   38.7632   45.1727 C   0  0  2  0  0  0  0  0  0  0  0  0
    8.5122   38.2682   46.1572 C   0  0  0  0  0  0  0  0  0  0  0  0
    9.6517   38.7978   46.2146 O   0  0  0  0  0  0  0  0  0  0  0  0
    8.2342   37.2251   47.0621 N   0  0  0  0  0  0  0  0  0  0  0  0
    6.1663   38.1919   45.2825 C   0  0  0  0  0  0  0  0  0  0  0  0
    5.4037   38.4140   43.9917 C   0  0  0  0  0  0  0  0  0  0  0  0
    5.8452   39.6415   43.2376 C   0  0  1  0  0  0  0  0  0  0  0  0
    5.4042   40.8040   43.9361 N   0  0  0  0  0  4  0  0  0  0  0  0
    4.7095   41.6686   43.1655 O   0  0  0  0  0  0  0  0  0  0  0  0
    5.7626   42.9382   42.8039 S   0  0  1  0  0  6  0  0  0  0  0  0
    6.1725   43.6667   44.0770 O   0  0  0  0  0  0  0  0  0  0  0  0
    7.0250   42.4364   42.1835 O   0  0  0  0  0  0  0  0  0  0  0  0
    4.9761   44.0496   41.8293 O   0  0  0  0  0  0  0  0  0  0  0  0
  1  2  2  0
  2  3  1  0
  4  3  1  1
  3  5  1  0
  4 11  1  0
  5  6  1  1
  9  5  1  1
  6  7  2  0
  6  8  1  0
 10  9  1  1
 10 11  1  0
 11 12  1  1
 12 13  1  6
 13 14  1  0
 14 15  2  0
 14 16  2  0
 14 17  1  6
M  CHG  1  12   1
M  END
$$$$
