
     RDKit          3D

 17 17  0  0  0  0  0  0  0  0999 V2000
   11.6984   37.6129   43.3089 O   0  0  0  0  0  0  0  0  0  0  0  0
   10.5817   37.0480   43.5775 C   0  0  0  0  0  0  0  0  0  0  0  0
    9.5001   37.7877   44.0818 N   0  0  0  0  0  0  0  0  0  0  0  0
    8.9978   38.9056   43.3042 C   0  0  0  0  0  0  0  0  0  0  0  0
    8.8370   37.5090   45.3112 C   0  0  2  0  0  0  0  0  0  0  0  0
    9.5767   36.8475   46.3618 C   0  0  0  0  0  0  0  0  0  0  0  0
   10.6237   37.3982   46.7896 O   0  0  0  0  0  0  0  0  0  0  0  0
    9.2047   35.6194   46.9427 N   0  0  0  0  0  0  0  0  0  0  0  0
    7.5174   36.8403   44.9358 C   0  0  0  0  0  0  0  0  0  0  0  0
    7.0467   37.3236   43.5788 C   0  0  0  0  0  0  0  0  0  0  0  0
    7.4965   38.7240   43.2514 C   0  0  1  0  0  0  0  0  0  0  0  0
    6.7714   39.6494   44.0589 N   0  0  0  0  0  4  0  0  0  0  0  0
    7.2654   40.9058   44.0200 O   0  0  0  0  0  0  0  0  0  0  0  0
    6.7164   41.5901   42.5772 S   0  0  1  0  0  6  0  0  0  0  0  0
    7.8084   41.5403   41.5168 O   0  0  0  0  0  0  0  0  0  0  0  0
    5.5579   40.8288   42.0216 O   0  0  0  0  0  0  0  0  0  0  0  0
    6.3494   43.2036   42.8340 O   0  0  0  0  0  0  0  0  0  0  0  0
  1  2  2  0
  2  3  1  0
  4  3  1  1
  3  5  1  0
  4 11  1  0
  5  6  1  1
  9  5  1  1
  6  7  2  0
  6  8  1  0
 10  9  1  1
 10 11  1  0
 11 12  1  1
 12 13  1  6
 13 14  1  0
 14 15  2  0
 14 16  2  0
 14 17  1  1
M  CHG  1  12   1
M  END
$$$$
