
     RDKit          3D

 17 17  0  0  0  0  0  0  0  0999 V2000
   11.6469   37.6936   43.5642 O   0  0  0  0  0  0  0  0  0  0  0  0
   10.7292   37.1463   44.2315 C   0  0  0  0  0  0  0  0  0  0  0  0
    9.6495   37.7196   44.8102 N   0  0  0  0  0  0  0  0  0  0  0  0
    8.9793   38.8159   44.1148 C   0  0  0  0  0  0  0  0  0  0  0  0
    8.9940   37.3934   46.0306 C   0  0  2  0  0  0  0  0  0  0  0  0
    9.8594   36.8395   47.0148 C   0  0  0  0  0  0  0  0  0  0  0  0
   10.6669   35.8840   46.7406 O   0  0  0  0  0  0  0  0  0  0  0  0
    9.8955   37.2841   48.3547 N   0  0  0  0  0  0  0  0  0  0  0  0
    7.7085   36.6694   45.7020 C   0  0  0  0  0  0  0  0  0  0  0  0
    7.0553   37.2040   44.4657 C   0  0  0  0  0  0  0  0  0  0  0  0
    7.5599   38.4913   43.9205 C   0  0  1  0  0  0  0  0  0  0  0  0
    6.7535   39.6220   44.3726 N   0  0  0  0  0  4  0  0  0  0  0  0
    7.2723   40.8006   43.9993 O   0  0  0  0  0  0  0  0  0  0  0  0
    6.7356   41.3095   42.4991 S   0  0  1  0  0  6  0  0  0  0  0  0
    7.1128   42.7143   42.1891 O   0  0  0  0  0  0  0  0  0  0  0  0
    7.2826   40.4068   41.4350 O   0  0  0  0  0  0  0  0  0  0  0  0
    5.0547   41.1911   42.4882 O   0  0  0  0  0  0  0  0  0  0  0  0
  1  2  2  0
  2  3  1  0
  3  4  1  0
  3  5  1  0
  4 11  1  0
  5  6  1  1
  5  9  1  0
  6  7  2  0
  6  8  1  0
  9 10  1  0
 10 11  1  0
 11 12  1  1
 12 13  1  0
 13 14  1  0
 14 15  2  0
 14 16  2  0
 14 17  1  1
M  CHG  1  12   1
M  END
$$$$
