
     RDKit          3D

 17 17  0  0  0  0  0  0  0  0999 V2000
    9.8009   37.1424   42.0132 O   0  0  0  0  0  0  0  0  0  0  0  0
    9.2661   36.9106   43.1301 C   0  0  0  0  0  0  0  0  0  0  0  0
    8.8064   37.7940   44.0453 N   0  0  0  0  0  0  0  0  0  0  0  0
    7.8713   38.8301   43.6132 C   0  0  0  0  0  0  0  0  0  0  0  0
    9.0615   37.8671   45.4435 C   0  0  2  0  0  0  0  0  0  0  0  0
   10.3419   37.3725   45.8183 C   0  0  0  0  0  0  0  0  0  0  0  0
   10.8689   36.3597   45.2381 O   0  0  0  0  0  0  0  0  0  0  0  0
   11.1226   37.9423   46.8480 N   0  0  0  0  0  0  0  0  0  0  0  0
    7.8419   37.3583   46.1773 C   0  0  0  0  0  0  0  0  0  0  0  0
    6.5666   37.7395   45.4925 C   0  0  0  0  0  0  0  0  0  0  0  0
    6.6412   38.7584   44.4129 C   0  0  1  0  0  0  0  0  0  0  0  0
    6.3254   40.0951   44.9095 N   0  0  0  0  0  4  0  0  0  0  0  0
    5.7600   40.8679   43.9712 O   0  0  0  0  0  0  0  0  0  0  0  0
    6.8714   41.5501   42.9239 S   0  0  1  0  0  6  0  0  0  0  0  0
    7.9709   42.2663   43.6240 O   0  0  0  0  0  0  0  0  0  0  0  0
    7.4576   40.4852   42.0471 O   0  0  0  0  0  0  0  0  0  0  0  0
    6.0492   42.6519   41.9496 O   0  0  0  0  0  0  0  0  0  0  0  0
  1  2  2  0
  2  3  1  0
  3  4  1  0
  3  5  1  0
  4 11  1  0
  5  6  1  6
  5  9  1  0
  6  7  2  0
  6  8  1  0
  9 10  1  0
 10 11  1  0
 11 12  1  1
 12 13  1  0
 13 14  1  0
 14 15  2  0
 14 16  2  0
 14 17  1  6
M  CHG  1  12   1
M  END
$$$$
