
     RDKit          3D

 17 17  0  0  0  0  0  0  0  0999 V2000
   17.7930   61.9205   50.1577 O   0  0  0  0  0  0  0  0  0  0  0  0
   17.0229   61.6750   51.1501 C   0  0  0  0  0  0  0  0  0  0  0  0
   17.4860   61.7906   52.4705 N   0  0  0  0  0  0  0  0  0  0  0  0
   18.0521   63.0554   52.9020 C   0  0  0  0  0  0  0  0  0  0  0  0
   17.4260   60.7481   53.4393 C   0  0  2  0  0  0  0  0  0  0  0  0
   17.4320   59.3773   52.9819 C   0  0  0  0  0  0  0  0  0  0  0  0
   17.1371   58.4739   53.8062 O   0  0  0  0  0  0  0  0  0  0  0  0
   17.7492   58.9799   51.6684 N   0  0  0  0  0  0  0  0  0  0  0  0
   16.2749   61.1081   54.3746 C   0  0  0  0  0  0  0  0  0  0  0  0
   16.0991   62.6119   54.4427 C   0  0  0  0  0  0  0  0  0  0  0  0
   17.3781   63.3762   54.2182 C   0  0  1  0  0  0  0  0  0  0  0  0
   18.2233   63.2191   55.3562 N   0  0  0  0  0  4  0  0  0  0  0  0
   19.2964   64.0392   55.3518 O   0  0  0  0  0  0  0  0  0  0  0  0
   19.2756   64.8606   56.8271 S   0  0  1  0  0  6  0  0  0  0  0  0
   19.9552   66.2165   56.6893 O   0  0  0  0  0  0  0  0  0  0  0  0
   17.8779   65.1362   57.2753 O   0  0  0  0  0  0  0  0  0  0  0  0
   20.1432   63.9853   57.9606 O   0  0  0  0  0  0  0  0  0  0  0  0
  1  2  2  0
  2  3  1  0
  4  3  1  1
  3  5  1  0
  4 11  1  0
  5  6  1  6
  9  5  1  1
  6  7  2  0
  6  8  1  0
 10  9  1  1
 10 11  1  0
 11 12  1  1
 12 13  1  6
 13 14  1  0
 14 15  2  0
 14 16  2  0
 14 17  1  1
M  CHG  1  12   1
M  END
$$$$
