
     RDKit          3D

 17 17  0  0  0  0  0  0  0  0999 V2000
    8.5368   39.5069   41.7558 O   0  0  0  0  0  0  0  0  0  0  0  0
    8.0103   39.8104   42.8822 C   0  0  0  0  0  0  0  0  0  0  0  0
    7.9301   38.8683   43.9201 N   0  0  0  0  0  0  0  0  0  0  0  0
    9.1325   38.1529   44.3059 C   0  0  0  0  0  0  0  0  0  0  0  0
    6.7418   38.5687   44.6461 C   0  0  2  0  0  0  0  0  0  0  0  0
    5.4658   38.7695   43.9979 C   0  0  0  0  0  0  0  0  0  0  0  0
    4.9378   37.7917   43.4084 O   0  0  0  0  0  0  0  0  0  0  0  0
    4.7686   39.9932   43.9790 N   0  0  0  0  0  0  0  0  0  0  0  0
    6.8901   39.2583   45.9996 C   0  0  0  0  0  0  0  0  0  0  0  0
    8.3526   39.3624   46.3828 C   0  0  0  0  0  0  0  0  0  0  0  0
    9.2022   38.2555   45.8140 C   0  0  1  0  0  0  0  0  0  0  0  0
    8.9009   37.0381   46.4930 N   0  0  0  0  0  4  0  0  0  0  0  0
    9.9051   36.1355   46.4588 O   0  0  0  0  0  0  0  0  0  0  0  0
   11.3412   37.0214   46.3942 S   0  0  1  0  0  6  0  0  0  0  0  0
   12.5332   36.0886   46.2258 O   0  0  0  0  0  0  0  0  0  0  0  0
   11.3594   37.9410   45.2176 O   0  0  0  0  0  0  0  0  0  0  0  0
   11.5532   37.8389   47.8402 O   0  0  0  0  0  0  0  0  0  0  0  0
  1  2  2  0
  2  3  1  0
  4  3  1  1
  3  5  1  0
  4 11  1  0
  5  6  1  6
  9  5  1  1
  6  7  2  0
  6  8  1  0
 10  9  1  1
 10 11  1  0
 11 12  1  1
 12 13  1  6
 13 14  1  0
 14 15  2  0
 14 16  2  0
 14 17  1  1
M  CHG  1  12   1
M  END
$$$$
