
     RDKit          3D

 17 17  0  0  0  0  0  0  0  0999 V2000
   11.6116   36.9679   43.5254 O   0  0  0  0  0  0  0  0  0  0  0  0
   10.4474   36.5197   43.8119 C   0  0  0  0  0  0  0  0  0  0  0  0
    9.4121   37.3881   44.1931 N   0  0  0  0  0  0  0  0  0  0  0  0
    8.9546   38.3859   43.2436 C   0  0  0  0  0  0  0  0  0  0  0  0
    8.7546   37.3522   45.4562 C   0  0  2  0  0  0  0  0  0  0  0  0
    9.4761   36.8368   46.5974 C   0  0  0  0  0  0  0  0  0  0  0  0
   10.2724   37.6060   47.1946 O   0  0  0  0  0  0  0  0  0  0  0  0
    9.3498   35.5230   47.0894 N   0  0  0  0  0  0  0  0  0  0  0  0
    7.3976   36.7000   45.2062 C   0  0  0  0  0  0  0  0  0  0  0  0
    6.9311   36.9751   43.7908 C   0  0  0  0  0  0  0  0  0  0  0  0
    7.4455   38.2764   43.2318 C   0  0  1  0  0  0  0  0  0  0  0  0
    6.7801   39.3594   43.8786 N   0  0  0  0  0  4  0  0  0  0  0  0
    7.4158   40.5435   43.7451 O   0  0  0  0  0  0  0  0  0  0  0  0
    6.5905   41.3956   42.5434 S   0  0  1  0  0  6  0  0  0  0  0  0
    7.5074   42.4266   41.8988 O   0  0  0  0  0  0  0  0  0  0  0  0
    6.1426   40.4884   41.4449 O   0  0  0  0  0  0  0  0  0  0  0  0
    5.3145   42.2315   43.2342 O   0  0  0  0  0  0  0  0  0  0  0  0
  1  2  2  0
  2  3  1  0
  4  3  1  1
  3  5  1  0
  4 11  1  0
  5  6  1  1
  9  5  1  1
  6  7  2  0
  6  8  1  0
 10  9  1  1
 10 11  1  0
 11 12  1  1
 12 13  1  6
 13 14  1  0
 14 15  2  0
 14 16  2  0
 14 17  1  1
M  CHG  1  12   1
M  END
$$$$
