
     RDKit          3D

 17 17  0  0  0  0  0  0  0  0999 V2000
    7.3907   42.4465   42.8838 O   0  0  0  0  0  0  0  0  0  0  0  0
    6.5955   42.0053   43.7555 C   0  0  0  0  0  0  0  0  0  0  0  0
    6.4410   40.7341   44.1909 N   0  0  0  0  0  0  0  0  0  0  0  0
    7.3871   39.7170   43.7380 C   0  0  0  0  0  0  0  0  0  0  0  0
    5.4844   40.1952   45.0963 C   0  0  2  0  0  0  0  0  0  0  0  0
    4.2372   40.8801   45.0858 C   0  0  0  0  0  0  0  0  0  0  0  0
    4.1651   42.1501   45.2334 O   0  0  0  0  0  0  0  0  0  0  0  0
    2.9955   40.2278   44.9215 N   0  0  0  0  0  0  0  0  0  0  0  0
    6.1684   39.9502   46.4217 C   0  0  0  0  0  0  0  0  0  0  0  0
    7.5824   39.4880   46.2545 C   0  0  0  0  0  0  0  0  0  0  0  0
    8.0143   39.0666   44.8962 C   0  0  1  0  0  0  0  0  0  0  0  0
    7.9256   37.6187   44.7267 N   0  0  0  0  0  4  0  0  0  0  0  0
    8.3568   37.2184   43.5220 O   0  0  0  0  0  0  0  0  0  0  0  0
    9.9480   37.6369   43.2208 S   0  0  1  0  0  6  0  0  0  0  0  0
   10.4728   37.0644   41.9524 O   0  0  0  0  0  0  0  0  0  0  0  0
   10.0773   39.1294   43.1777 O   0  0  0  0  0  0  0  0  0  0  0  0
   10.8818   37.0561   44.4977 O   0  0  0  0  0  0  0  0  0  0  0  0
  1  2  2  0
  2  3  1  0
  3  4  1  0
  3  5  1  0
  4 11  1  0
  5  6  1  1
  5  9  1  0
  6  7  2  0
  6  8  1  0
  9 10  1  0
 10 11  1  0
 11 12  1  6
 12 13  1  0
 13 14  1  0
 14 15  2  0
 14 16  2  0
 14 17  1  1
M  CHG  1  12   1
M  END
$$$$
