
     RDKit          3D

 17 17  0  0  0  0  0  0  0  0999 V2000
   11.3243   37.8079   43.1163 O   0  0  0  0  0  0  0  0  0  0  0  0
   10.6332   37.2577   44.0144 C   0  0  0  0  0  0  0  0  0  0  0  0
    9.4824   37.6906   44.5779 N   0  0  0  0  0  0  0  0  0  0  0  0
    8.7382   38.7621   43.9202 C   0  0  0  0  0  0  0  0  0  0  0  0
    8.8146   37.2284   45.7466 C   0  0  2  0  0  0  0  0  0  0  0  0
    9.6904   36.6956   46.7333 C   0  0  0  0  0  0  0  0  0  0  0  0
   10.4077   35.6589   46.5080 O   0  0  0  0  0  0  0  0  0  0  0  0
    9.8349   37.2512   48.0236 N   0  0  0  0  0  0  0  0  0  0  0  0
    7.6173   36.4108   45.3190 C   0  0  0  0  0  0  0  0  0  0  0  0
    6.9642   36.9599   44.0891 C   0  0  0  0  0  0  0  0  0  0  0  0
    7.3646   38.3205   43.6444 C   0  0  1  0  0  0  0  0  0  0  0  0
    6.4375   39.3407   44.1270 N   0  0  0  0  0  4  0  0  0  0  0  0
    6.9020   40.5838   43.9364 O   0  0  0  0  0  0  0  0  0  0  0  0
    6.5958   41.1718   42.4008 S   0  0  1  0  0  6  0  0  0  0  0  0
    7.7896   41.1410   41.5143 O   0  0  0  0  0  0  0  0  0  0  0  0
    5.4924   40.3790   41.7681 O   0  0  0  0  0  0  0  0  0  0  0  0
    6.0845   42.7699   42.5558 O   0  0  0  0  0  0  0  0  0  0  0  0
  1  2  2  0
  2  3  1  0
  3  4  1  0
  3  5  1  0
  4 11  1  0
  5  6  1  6
  5  9  1  0
  6  7  2  0
  6  8  1  0
  9 10  1  0
 10 11  1  0
 11 12  1  1
 12 13  1  0
 13 14  1  0
 14 15  2  0
 14 16  2  0
 14 17  1  1
M  CHG  1  12   1
M  END
$$$$
