
     RDKit          3D

 17 17  0  0  0  0  0  0  0  0999 V2000
    7.7569   35.1728   46.4488 O   0  0  0  0  0  0  0  0  0  0  0  0
    8.7563   35.5772   45.7589 C   0  0  0  0  0  0  0  0  0  0  0  0
    9.6012   36.5918   46.2363 N   0  0  0  0  0  0  0  0  0  0  0  0
   10.2603   36.4049   47.5158 C   0  0  0  0  0  0  0  0  0  0  0  0
    9.8780   37.8035   45.5405 C   0  0  2  0  0  0  0  0  0  0  0  0
    8.8895   38.3124   44.6173 C   0  0  0  0  0  0  0  0  0  0  0  0
    7.6758   38.2207   44.9351 O   0  0  0  0  0  0  0  0  0  0  0  0
    9.1932   38.9067   43.3769 N   0  0  0  0  0  0  0  0  0  0  0  0
   11.2793   37.6435   44.9573 C   0  0  0  0  0  0  0  0  0  0  0  0
   12.1116   36.7215   45.8256 C   0  0  0  0  0  0  0  0  0  0  0  0
   11.7153   36.7464   47.2791 C   0  0  1  0  0  0  0  0  0  0  0  0
   12.1209   37.9870   47.8538 N   0  0  0  0  0  4  0  0  0  0  0  0
   11.9790   38.0348   49.1961 O   0  0  0  0  0  0  0  0  0  0  0  0
   13.4764   37.6083   49.8499 S   0  0  1  0  0  6  0  0  0  0  0  0
   13.8744   36.2098   49.3972 O   0  0  0  0  0  0  0  0  0  0  0  0
   14.5563   38.5250   49.3766 O   0  0  0  0  0  0  0  0  0  0  0  0
   13.3618   37.5738   51.5201 O   0  0  0  0  0  0  0  0  0  0  0  0
  1  2  2  0
  2  3  1  0
  4  3  1  1
  3  5  1  0
  4 11  1  0
  5  6  1  6
  9  5  1  1
  6  7  2  0
  6  8  1  0
 10  9  1  1
 10 11  1  0
 11 12  1  6
 12 13  1  6
 13 14  1  0
 14 15  2  0
 14 16  2  0
 14 17  1  1
M  CHG  1  12   1
M  END
$$$$
