
     RDKit          3D

 17 17  0  0  0  0  0  0  0  0999 V2000
   11.0757   43.4450   23.5731 O   0  0  0  0  0  0  0  0  0  0  0  0
   10.9909   42.5794   22.6617 C   0  0  0  0  0  0  0  0  0  0  0  0
   10.4881   42.7147   21.4134 N   0  0  0  0  0  0  0  0  0  0  0  0
   11.4091   42.9773   20.3101 C   0  0  0  0  0  0  0  0  0  0  0  0
    9.1442   42.5997   20.9593 C   0  0  2  0  0  0  0  0  0  0  0  0
    8.1767   42.9676   21.9356 C   0  0  0  0  0  0  0  0  0  0  0  0
    8.2384   42.5374   23.1403 O   0  0  0  0  0  0  0  0  0  0  0  0
    7.0826   43.8175   21.6617 N   0  0  0  0  0  0  0  0  0  0  0  0
    8.9932   41.2739   20.2493 C   0  0  0  0  0  0  0  0  0  0  0  0
   10.2199   40.8998   19.4773 C   0  0  0  0  0  0  0  0  0  0  0  0
   11.2529   41.9488   19.2729 C   0  0  1  0  0  0  0  0  0  0  0  0
   11.1048   42.6070   17.9776 N   0  0  0  0  0  4  0  0  0  0  0  0
   12.1617   43.3724   17.6701 O   0  0  0  0  0  0  0  0  0  0  0  0
   13.3077   42.5724   16.7513 S   0  0  1  0  0  6  0  0  0  0  0  0
   14.0462   41.5316   17.5149 O   0  0  0  0  0  0  0  0  0  0  0  0
   12.6488   41.9374   15.5644 O   0  0  0  0  0  0  0  0  0  0  0  0
   14.4136   43.7178   16.1993 O   0  0  0  0  0  0  0  0  0  0  0  0
  1  2  2  0
  2  3  1  0
  3  4  1  0
  3  5  1  0
  4 11  1  0
  5  6  1  1
  5  9  1  0
  6  7  2  0
  6  8  1  0
  9 10  1  0
 10 11  1  0
 11 12  1  6
 12 13  1  0
 13 14  1  0
 14 15  2  0
 14 16  2  0
 14 17  1  6
M  CHG  1  12   1
M  END
$$$$
