
     RDKit          3D

 17 17  0  0  0  0  0  0  0  0999 V2000
    9.2379   37.4327   41.4679 O   0  0  0  0  0  0  0  0  0  0  0  0
    9.1070   37.2529   42.7283 C   0  0  0  0  0  0  0  0  0  0  0  0
    8.8170   38.3264   43.5856 N   0  0  0  0  0  0  0  0  0  0  0  0
    8.0490   39.4436   43.0676 C   0  0  0  0  0  0  0  0  0  0  0  0
    9.2121   38.3952   44.9523 C   0  0  2  0  0  0  0  0  0  0  0  0
   10.3939   37.6749   45.3681 C   0  0  0  0  0  0  0  0  0  0  0  0
   11.5107   38.0691   44.9440 O   0  0  0  0  0  0  0  0  0  0  0  0
   10.3815   36.5531   46.2199 N   0  0  0  0  0  0  0  0  0  0  0  0
    7.9576   38.0969   45.7689 C   0  0  0  0  0  0  0  0  0  0  0  0
    6.7186   38.5348   45.0140 C   0  0  0  0  0  0  0  0  0  0  0  0
    6.9603   39.6981   44.0873 C   0  0  1  0  0  0  0  0  0  0  0  0
    7.1549   40.8803   44.8609 N   0  0  0  0  0  4  0  0  0  0  0  0
    6.9825   42.0215   44.1595 O   0  0  0  0  0  0  0  0  0  0  0  0
    6.5756   41.5588   42.5873 S   0  0  1  0  0  6  0  0  0  0  0  0
    7.8043   41.0408   41.8516 O   0  0  0  0  0  0  0  0  0  0  0  0
    5.5862   40.4401   42.5897 O   0  0  0  0  0  0  0  0  0  0  0  0
    6.0198   42.8939   41.7433 O   0  0  0  0  0  0  0  0  0  0  0  0
  1  2  2  0
  2  3  1  0
  4  3  1  1
  3  5  1  0
  4 11  1  0
  5  6  1  6
  9  5  1  1
  6  7  2  0
  6  8  1  0
 10  9  1  1
 10 11  1  0
 11 12  1  1
 12 13  1  6
 13 14  1  0
 14 15  2  0
 14 16  2  0
 14 17  1  6
M  CHG  1  12   1
M  END
$$$$
