
     RDKit          3D

 17 17  0  0  0  0  0  0  0  0999 V2000
   11.7399   37.6888   43.5535 O   0  0  0  0  0  0  0  0  0  0  0  0
   10.7722   37.1481   44.1520 C   0  0  0  0  0  0  0  0  0  0  0  0
    9.6309   37.7195   44.5994 N   0  0  0  0  0  0  0  0  0  0  0  0
    8.8624   38.5618   43.6859 C   0  0  0  0  0  0  0  0  0  0  0  0
    8.9941   37.6026   45.8668 C   0  0  2  0  0  0  0  0  0  0  0  0
    9.8970   37.3700   46.9417 C   0  0  0  0  0  0  0  0  0  0  0  0
   10.4626   36.2337   47.1121 O   0  0  0  0  0  0  0  0  0  0  0  0
   10.2341   38.3529   47.8979 N   0  0  0  0  0  0  0  0  0  0  0  0
    7.7946   36.6954   45.7152 C   0  0  0  0  0  0  0  0  0  0  0  0
    7.1087   36.8759   44.3970 C   0  0  0  0  0  0  0  0  0  0  0  0
    7.4868   38.0577   43.5788 C   0  0  1  0  0  0  0  0  0  0  0  0
    6.5621   39.1705   43.7783 N   0  0  0  0  0  4  0  0  0  0  0  0
    6.3440   39.8615   42.6502 O   0  0  0  0  0  0  0  0  0  0  0  0
    7.0191   41.3916   42.6757 S   0  0  1  0  0  6  0  0  0  0  0  0
    6.0476   42.4647   42.3343 O   0  0  0  0  0  0  0  0  0  0  0  0
    7.5981   41.6648   44.0308 O   0  0  0  0  0  0  0  0  0  0  0  0
    8.2683   41.4202   41.5452 O   0  0  0  0  0  0  0  0  0  0  0  0
  1  2  2  0
  2  3  1  0
  3  4  1  0
  3  5  1  0
  4 11  1  0
  5  6  1  1
  5  9  1  0
  6  7  2  0
  6  8  1  0
  9 10  1  0
 10 11  1  0
 11 12  1  1
 12 13  1  0
 13 14  1  0
 14 15  2  0
 14 16  2  0
 14 17  1  6
M  CHG  1  12   1
M  END
$$$$
