
     RDKit          3D

 17 17  0  0  0  0  0  0  0  0999 V2000
   11.7335   37.7121   43.3964 O   0  0  0  0  0  0  0  0  0  0  0  0
   10.7801   37.0960   43.9426 C   0  0  0  0  0  0  0  0  0  0  0  0
    9.6790   37.6047   44.5411 N   0  0  0  0  0  0  0  0  0  0  0  0
    8.9350   38.6620   43.8606 C   0  0  0  0  0  0  0  0  0  0  0  0
    9.0644   37.2387   45.7714 C   0  0  2  0  0  0  0  0  0  0  0  0
    9.9770   36.7336   46.7392 C   0  0  0  0  0  0  0  0  0  0  0  0
   10.7399   35.7358   46.4891 O   0  0  0  0  0  0  0  0  0  0  0  0
   10.1112   37.2759   48.0362 N   0  0  0  0  0  0  0  0  0  0  0  0
    7.8174   36.4424   45.4624 C   0  0  0  0  0  0  0  0  0  0  0  0
    7.1135   36.9409   44.2389 C   0  0  0  0  0  0  0  0  0  0  0  0
    7.5336   38.2564   43.6893 C   0  0  1  0  0  0  0  0  0  0  0  0
    6.6711   39.3377   44.1584 N   0  0  0  0  0  4  0  0  0  0  0  0
    7.1875   40.5488   43.9055 O   0  0  0  0  0  0  0  0  0  0  0  0
    6.7278   41.1621   42.4189 S   0  0  1  0  0  6  0  0  0  0  0  0
    5.8882   42.3851   42.5255 O   0  0  0  0  0  0  0  0  0  0  0  0
    7.9460   41.4711   41.6023 O   0  0  0  0  0  0  0  0  0  0  0  0
    5.8401   39.9703   41.6244 O   0  0  0  0  0  0  0  0  0  0  0  0
  1  2  2  0
  2  3  1  0
  3  4  1  0
  3  5  1  0
  4 11  1  0
  5  6  1  1
  5  9  1  0
  6  7  2  0
  6  8  1  0
  9 10  1  0
 10 11  1  0
 11 12  1  1
 12 13  1  0
 13 14  1  0
 14 15  2  0
 14 16  2  0
 14 17  1  6
M  CHG  1  12   1
M  END
$$$$
