
     RDKit          3D

 17 17  0  0  0  0  0  0  0  0999 V2000
   17.6016   29.0692   49.7435 O   0  0  0  0  0  0  0  0  0  0  0  0
   18.1564   29.6927   50.7139 C   0  0  0  0  0  0  0  0  0  0  0  0
   18.0874   29.1967   52.0256 N   0  0  0  0  0  0  0  0  0  0  0  0
   17.9740   27.7634   52.2233 C   0  0  0  0  0  0  0  0  0  0  0  0
   18.1378   30.0062   53.1966 C   0  0  2  0  0  0  0  0  0  0  0  0
   17.6833   31.3753   53.1113 C   0  0  0  0  0  0  0  0  0  0  0  0
   16.4751   31.5846   52.8306 O   0  0  0  0  0  0  0  0  0  0  0  0
   18.5058   32.4995   53.3206 N   0  0  0  0  0  0  0  0  0  0  0  0
   19.5410   29.8298   53.7704 C   0  0  0  0  0  0  0  0  0  0  0  0
   20.0874   28.4603   53.4202 C   0  0  0  0  0  0  0  0  0  0  0  0
   19.0182   27.4106   53.2601 C   0  0  1  0  0  0  0  0  0  0  0  0
   18.4791   27.0923   54.5415 N   0  0  0  0  0  4  0  0  0  0  0  0
   17.8264   25.9104   54.5766 O   0  0  0  0  0  0  0  0  0  0  0  0
   19.0135   24.7096   54.5870 S   0  0  1  0  0  6  0  0  0  0  0  0
   20.0577   25.0047   55.6556 O   0  0  0  0  0  0  0  0  0  0  0  0
   18.4334   23.3757   54.9254 O   0  0  0  0  0  0  0  0  0  0  0  0
   19.8048   24.7001   53.1113 O   0  0  0  0  0  0  0  0  0  0  0  0
  1  2  2  0
  2  3  1  0
  4  3  1  1
  3  5  1  0
  4 11  1  0
  5  6  1  6
  9  5  1  1
  6  7  2  0
  6  8  1  0
 10  9  1  1
 10 11  1  0
 11 12  1  1
 12 13  1  6
 13 14  1  0
 14 15  2  0
 14 16  2  0
 14 17  1  6
M  CHG  1  12   1
M  END
$$$$
