
     RDKit          3D

 17 17  0  0  0  0  0  0  0  0999 V2000
    8.1838   38.0696   41.5548 O   0  0  0  0  0  0  0  0  0  0  0  0
    7.6288   38.1221   42.6844 C   0  0  0  0  0  0  0  0  0  0  0  0
    7.3523   39.2099   43.4392 N   0  0  0  0  0  0  0  0  0  0  0  0
    6.9056   40.4313   42.7735 C   0  0  0  0  0  0  0  0  0  0  0  0
    7.3864   39.3652   44.8535 C   0  0  2  0  0  0  0  0  0  0  0  0
    8.3455   38.5346   45.4975 C   0  0  0  0  0  0  0  0  0  0  0  0
    9.5889   38.5814   45.1942 O   0  0  0  0  0  0  0  0  0  0  0  0
    8.0121   37.6004   46.5027 N   0  0  0  0  0  0  0  0  0  0  0  0
    5.9647   39.3674   45.3667 C   0  0  0  0  0  0  0  0  0  0  0  0
    5.0224   40.0525   44.4268 C   0  0  0  0  0  0  0  0  0  0  0  0
    5.6111   40.8554   43.3232 C   0  0  1  0  0  0  0  0  0  0  0  0
    5.6892   42.2723   43.6689 N   0  0  0  0  0  4  0  0  0  0  0  0
    6.4078   42.9753   42.7818 O   0  0  0  0  0  0  0  0  0  0  0  0
    5.4904   43.5693   41.5158 S   0  0  1  0  0  6  0  0  0  0  0  0
    4.0531   43.7319   41.8615 O   0  0  0  0  0  0  0  0  0  0  0  0
    6.0417   44.8897   41.0697 O   0  0  0  0  0  0  0  0  0  0  0  0
    5.6139   42.4791   40.2368 O   0  0  0  0  0  0  0  0  0  0  0  0
  1  2  2  0
  2  3  1  0
  3  4  1  0
  3  5  1  0
  4 11  1  0
  5  6  1  1
  5  9  1  0
  6  7  2  0
  6  8  1  0
  9 10  1  0
 10 11  1  0
 11 12  1  1
 12 13  1  0
 13 14  1  0
 14 15  2  0
 14 16  2  0
 14 17  1  6
M  CHG  1  12   1
M  END
$$$$
