
     RDKit          3D

 17 17  0  0  0  0  0  0  0  0999 V2000
   11.2739   37.4152   43.6428 O   0  0  0  0  0  0  0  0  0  0  0  0
   10.3526   36.9895   44.3891 C   0  0  0  0  0  0  0  0  0  0  0  0
    9.2444   37.6373   44.8152 N   0  0  0  0  0  0  0  0  0  0  0  0
    8.4407   38.3701   43.8396 C   0  0  0  0  0  0  0  0  0  0  0  0
    8.6734   37.6982   46.1174 C   0  0  2  0  0  0  0  0  0  0  0  0
    9.6282   37.5879   47.1666 C   0  0  0  0  0  0  0  0  0  0  0  0
   10.8303   38.0078   47.0302 O   0  0  0  0  0  0  0  0  0  0  0  0
    9.3376   37.0102   48.4221 N   0  0  0  0  0  0  0  0  0  0  0  0
    7.4552   36.8039   46.1456 C   0  0  0  0  0  0  0  0  0  0  0  0
    6.7036   36.8266   44.8513 C   0  0  0  0  0  0  0  0  0  0  0  0
    7.0545   37.8848   43.8683 C   0  0  1  0  0  0  0  0  0  0  0  0
    6.1571   39.0328   43.9676 N   0  0  0  0  0  4  0  0  0  0  0  0
    6.0493   39.6982   42.8087 O   0  0  0  0  0  0  0  0  0  0  0  0
    6.7801   41.2023   42.8438 S   0  0  1  0  0  6  0  0  0  0  0  0
    8.2390   41.1368   43.1255 O   0  0  0  0  0  0  0  0  0  0  0  0
    6.5623   41.8994   41.5351 O   0  0  0  0  0  0  0  0  0  0  0  0
    6.0396   42.1042   44.0595 O   0  0  0  0  0  0  0  0  0  0  0  0
  1  2  2  0
  2  3  1  0
  3  4  1  0
  3  5  1  0
  4 11  1  0
  5  6  1  1
  5  9  1  0
  6  7  2  0
  6  8  1  0
  9 10  1  0
 10 11  1  0
 11 12  1  1
 12 13  1  0
 13 14  1  0
 14 15  2  0
 14 16  2  0
 14 17  1  1
M  CHG  1  12   1
M  END
$$$$
