
     RDKit          3D

 17 17  0  0  0  0  0  0  0  0999 V2000
   10.6769   38.8510   43.1642 O   0  0  0  0  0  0  0  0  0  0  0  0
    9.6492   38.0963   43.0519 C   0  0  0  0  0  0  0  0  0  0  0  0
    8.5490   38.2403   43.9121 N   0  0  0  0  0  0  0  0  0  0  0  0
    7.8858   39.5292   43.9850 C   0  0  0  0  0  0  0  0  0  0  0  0
    8.0154   37.1951   44.7195 C   0  0  2  0  0  0  0  0  0  0  0  0
    8.8946   36.1280   45.1398 C   0  0  0  0  0  0  0  0  0  0  0  0
    9.6391   35.5959   44.2767 O   0  0  0  0  0  0  0  0  0  0  0  0
    8.9748   35.6380   46.4580 N   0  0  0  0  0  0  0  0  0  0  0  0
    6.7362   36.7371   44.0242 C   0  0  0  0  0  0  0  0  0  0  0  0
    6.1155   37.8827   43.2503 C   0  0  0  0  0  0  0  0  0  0  0  0
    6.4079   39.2363   43.8444 C   0  0  1  0  0  0  0  0  0  0  0  0
    5.6691   39.3856   45.0551 N   0  0  0  0  0  4  0  0  0  0  0  0
    5.8206   40.5950   45.6369 O   0  0  0  0  0  0  0  0  0  0  0  0
    4.5384   41.5501   45.0935 S   0  0  1  0  0  6  0  0  0  0  0  0
    4.3929   42.7897   45.9661 O   0  0  0  0  0  0  0  0  0  0  0  0
    4.7787   42.0419   43.7040 O   0  0  0  0  0  0  0  0  0  0  0  0
    3.1104   40.6849   45.2210 O   0  0  0  0  0  0  0  0  0  0  0  0
  1  2  2  0
  2  3  1  0
  4  3  1  1
  3  5  1  0
  4 11  1  0
  5  6  1  6
  9  5  1  1
  6  7  2  0
  6  8  1  0
 10  9  1  1
 10 11  1  0
 11 12  1  1
 12 13  1  6
 13 14  1  0
 14 15  2  0
 14 16  2  0
 14 17  1  6
M  CHG  1  12   1
M  END
$$$$
