
     RDKit          3D

 17 17  0  0  0  0  0  0  0  0999 V2000
   21.6537   42.5017   49.3436 O   0  0  0  0  0  0  0  0  0  0  0  0
   21.4987   42.4359   50.6125 C   0  0  0  0  0  0  0  0  0  0  0  0
   22.2204   43.2779   51.4736 N   0  0  0  0  0  0  0  0  0  0  0  0
   22.2261   44.7050   51.2092 C   0  0  0  0  0  0  0  0  0  0  0  0
   22.9455   42.8318   52.6155 C   0  0  2  0  0  0  0  0  0  0  0  0
   23.4580   41.4806   52.6252 C   0  0  0  0  0  0  0  0  0  0  0  0
   24.2536   41.1396   51.7124 O   0  0  0  0  0  0  0  0  0  0  0  0
   23.1246   40.5118   53.5918 N   0  0  0  0  0  0  0  0  0  0  0  0
   22.0950   43.2048   53.8267 C   0  0  0  0  0  0  0  0  0  0  0  0
   21.2639   44.4369   53.5302 C   0  0  0  0  0  0  0  0  0  0  0  0
   21.9038   45.3662   52.5315 C   0  0  1  0  0  0  0  0  0  0  0  0
   23.0173   46.0150   53.1424 N   0  0  0  0  0  4  0  0  0  0  0  0
   23.5698   46.9801   52.3759 O   0  0  0  0  0  0  0  0  0  0  0  0
   22.5516   48.3223   52.4907 S   0  0  1  0  0  6  0  0  0  0  0  0
   23.2591   49.5704   51.9799 O   0  0  0  0  0  0  0  0  0  0  0  0
   21.3341   48.1542   51.6423 O   0  0  0  0  0  0  0  0  0  0  0  0
   22.1706   48.5926   54.0987 O   0  0  0  0  0  0  0  0  0  0  0  0
  1  2  2  0
  2  3  1  0
  4  3  1  1
  3  5  1  0
  4 11  1  0
  5  6  1  6
  9  5  1  1
  6  7  2  0
  6  8  1  0
 10  9  1  1
 10 11  1  0
 11 12  1  1
 12 13  1  6
 13 14  1  0
 14 15  2  0
 14 16  2  0
 14 17  1  1
M  CHG  1  12   1
M  END
$$$$
