
     RDKit          3D

 17 17  0  0  0  0  0  0  0  0999 V2000
   11.4941   37.5198   43.2326 O   0  0  0  0  0  0  0  0  0  0  0  0
   10.5703   37.0574   43.9534 C   0  0  0  0  0  0  0  0  0  0  0  0
    9.4879   37.6973   44.4517 N   0  0  0  0  0  0  0  0  0  0  0  0
    8.6593   38.4869   43.5436 C   0  0  0  0  0  0  0  0  0  0  0  0
    8.9663   37.7015   45.7759 C   0  0  2  0  0  0  0  0  0  0  0  0
    9.9575   37.5280   46.7819 C   0  0  0  0  0  0  0  0  0  0  0  0
   11.1657   37.2190   46.4908 O   0  0  0  0  0  0  0  0  0  0  0  0
    9.6954   37.6728   48.1620 N   0  0  0  0  0  0  0  0  0  0  0  0
    7.7373   36.8221   45.8064 C   0  0  0  0  0  0  0  0  0  0  0  0
    6.9389   36.9176   44.5439 C   0  0  0  0  0  0  0  0  0  0  0  0
    7.2684   38.0181   43.6008 C   0  0  1  0  0  0  0  0  0  0  0  0
    6.3917   39.1710   43.7892 N   0  0  0  0  0  4  0  0  0  0  0  0
    6.1832   39.8454   42.6494 O   0  0  0  0  0  0  0  0  0  0  0  0
    6.9528   41.3300   42.6139 S   0  0  1  0  0  6  0  0  0  0  0  0
    6.9453   41.9601   41.2667 O   0  0  0  0  0  0  0  0  0  0  0  0
    6.3033   42.2583   43.5950 O   0  0  0  0  0  0  0  0  0  0  0  0
    8.5530   41.0898   43.0842 O   0  0  0  0  0  0  0  0  0  0  0  0
  1  2  2  0
  2  3  1  0
  3  4  1  0
  3  5  1  0
  4 11  1  0
  5  6  1  1
  5  9  1  0
  6  7  2  0
  6  8  1  0
  9 10  1  0
 10 11  1  0
 11 12  1  1
 12 13  1  0
 13 14  1  0
 14 15  2  0
 14 16  2  0
 14 17  1  1
M  CHG  1  12   1
M  END
$$$$
