
     RDKit          3D

 17 17  0  0  0  0  0  0  0  0999 V2000
   53.0300   78.3365   35.4145 O   0  0  0  0  0  0  0  0  0  0  0  0
   51.9878   79.0267   35.5706 C   0  0  0  0  0  0  0  0  0  0  0  0
   50.8246   78.9662   34.8832 N   0  0  0  0  0  0  0  0  0  0  0  0
   50.2676   77.6549   34.5596 C   0  0  0  0  0  0  0  0  0  0  0  0
   49.9829   80.0205   34.4297 C   0  0  2  0  0  0  0  0  0  0  0  0
   50.6820   81.2239   34.1337 C   0  0  0  0  0  0  0  0  0  0  0  0
   51.6121   81.2636   33.2543 O   0  0  0  0  0  0  0  0  0  0  0  0
   50.4185   82.4526   34.7781 N   0  0  0  0  0  0  0  0  0  0  0  0
   48.7728   80.0858   35.3330 C   0  0  0  0  0  0  0  0  0  0  0  0
   48.3241   78.7297   35.7806 C   0  0  0  0  0  0  0  0  0  0  0  0
   48.9007   77.5484   35.0868 C   0  0  1  0  0  0  0  0  0  0  0  0
   48.0235   77.0658   34.0234 N   0  0  0  0  0  4  0  0  0  0  0  0
   48.1226   75.7411   33.8418 O   0  0  0  0  0  0  0  0  0  0  0  0
   46.7070   74.9219   34.1914 S   0  0  1  0  0  6  0  0  0  0  0  0
   46.0890   75.3448   35.4764 O   0  0  0  0  0  0  0  0  0  0  0  0
   45.7205   75.1232   33.0812 O   0  0  0  0  0  0  0  0  0  0  0  0
   47.0747   73.2802   34.2883 O   0  0  0  0  0  0  0  0  0  0  0  0
  1  2  2  0
  2  3  1  0
  3  4  1  0
  3  5  1  0
  4 11  1  0
  5  6  1  1
  5  9  1  0
  6  7  2  0
  6  8  1  0
  9 10  1  0
 10 11  1  0
 11 12  1  6
 12 13  1  0
 13 14  1  0
 14 15  2  0
 14 16  2  0
 14 17  1  1
M  CHG  1  12   1
M  END
$$$$
