
     RDKit          3D

 17 17  0  0  0  0  0  0  0  0999 V2000
   32.3409   54.9458   48.1656 O   0  0  0  0  0  0  0  0  0  0  0  0
   32.6771   54.4658   49.3035 C   0  0  0  0  0  0  0  0  0  0  0  0
   34.0007   54.0746   49.5607 N   0  0  0  0  0  0  0  0  0  0  0  0
   34.8645   53.7589   48.4379 C   0  0  0  0  0  0  0  0  0  0  0  0
   34.5742   53.9787   50.8611 C   0  0  2  0  0  0  0  0  0  0  0  0
   33.7035   53.7121   51.9832 C   0  0  0  0  0  0  0  0  0  0  0  0
   33.3671   52.5205   52.2052 O   0  0  0  0  0  0  0  0  0  0  0  0
   33.2006   54.7015   52.8506 N   0  0  0  0  0  0  0  0  0  0  0  0
   35.4678   55.2060   51.0188 C   0  0  0  0  0  0  0  0  0  0  0  0
   35.9988   55.6505   49.6708 C   0  0  0  0  0  0  0  0  0  0  0  0
   36.1478   54.5225   48.6830 C   0  0  1  0  0  0  0  0  0  0  0  0
   37.2464   53.7008   49.0727 N   0  0  0  0  0  4  0  0  0  0  0  0
   38.0022   53.2788   48.0361 O   0  0  0  0  0  0  0  0  0  0  0  0
   38.3023   54.6378   47.0798 S   0  0  1  0  0  6  0  0  0  0  0  0
   37.0442   55.0428   46.3232 O   0  0  0  0  0  0  0  0  0  0  0  0
   38.6862   55.8151   47.9147 O   0  0  0  0  0  0  0  0  0  0  0  0
   39.4682   54.2646   45.9372 O   0  0  0  0  0  0  0  0  0  0  0  0
  1  2  2  0
  2  3  1  0
  4  3  1  1
  3  5  1  0
  4 11  1  0
  5  6  1  1
  9  5  1  1
  6  7  2  0
  6  8  1  0
 10  9  1  1
 10 11  1  0
 11 12  1  1
 12 13  1  6
 13 14  1  0
 14 15  2  0
 14 16  2  0
 14 17  1  6
M  CHG  1  12   1
M  END
$$$$
