
     RDKit          3D

 17 17  0  0  0  0  0  0  0  0999 V2000
   11.9253   37.5507   43.5394 O   0  0  0  0  0  0  0  0  0  0  0  0
   11.0187   37.0590   44.2629 C   0  0  0  0  0  0  0  0  0  0  0  0
    9.9136   37.6618   44.7574 N   0  0  0  0  0  0  0  0  0  0  0  0
    9.2139   38.6374   43.9248 C   0  0  0  0  0  0  0  0  0  0  0  0
    9.2563   37.4689   46.0049 C   0  0  2  0  0  0  0  0  0  0  0  0
   10.1294   37.0743   47.0568 C   0  0  0  0  0  0  0  0  0  0  0  0
   11.2930   37.5909   47.1958 O   0  0  0  0  0  0  0  0  0  0  0  0
    9.7951   36.0924   48.0152 N   0  0  0  0  0  0  0  0  0  0  0  0
    8.0002   36.6641   45.7618 C   0  0  0  0  0  0  0  0  0  0  0  0
    7.3427   37.0152   44.4637 C   0  0  0  0  0  0  0  0  0  0  0  0
    7.8087   38.2408   43.7638 C   0  0  1  0  0  0  0  0  0  0  0  0
    6.9590   39.3900   44.0642 N   0  0  0  0  0  4  0  0  0  0  0  0
    6.2615   39.8023   42.9960 O   0  0  0  0  0  0  0  0  0  0  0  0
    7.0181   41.0319   42.1515 S   0  0  1  0  0  6  0  0  0  0  0  0
    8.0145   41.7748   42.9683 O   0  0  0  0  0  0  0  0  0  0  0  0
    7.6970   40.4680   40.9401 O   0  0  0  0  0  0  0  0  0  0  0  0
    5.8291   42.1125   41.6433 O   0  0  0  0  0  0  0  0  0  0  0  0
  1  2  2  0
  2  3  1  0
  3  4  1  0
  3  5  1  0
  4 11  1  0
  5  6  1  1
  5  9  1  0
  6  7  2  0
  6  8  1  0
  9 10  1  0
 10 11  1  0
 11 12  1  1
 12 13  1  0
 13 14  1  0
 14 15  2  0
 14 16  2  0
 14 17  1  6
M  CHG  1  12   1
M  END
$$$$
