
     RDKit          3D

 17 17  0  0  0  0  0  0  0  0999 V2000
    3.7904   37.2673   43.7732 O   0  0  0  0  0  0  0  0  0  0  0  0
    4.9905   37.0182   44.0644 C   0  0  0  0  0  0  0  0  0  0  0  0
    6.0596   37.8453   44.0172 N   0  0  0  0  0  0  0  0  0  0  0  0
    5.8500   39.2434   43.6486 C   0  0  0  0  0  0  0  0  0  0  0  0
    7.4249   37.5812   44.3201 C   0  0  2  0  0  0  0  0  0  0  0  0
    7.8163   36.2359   44.0723 C   0  0  0  0  0  0  0  0  0  0  0  0
    6.9747   35.2715   44.1120 O   0  0  0  0  0  0  0  0  0  0  0  0
    9.1435   35.8567   43.7737 N   0  0  0  0  0  0  0  0  0  0  0  0
    7.7417   38.1950   45.6645 C   0  0  0  0  0  0  0  0  0  0  0  0
    7.0253   39.4915   45.8803 C   0  0  0  0  0  0  0  0  0  0  0  0
    6.3711   40.1222   44.7041 C   0  0  1  0  0  0  0  0  0  0  0  0
    7.2245   41.1369   44.0915 N   0  0  0  0  0  4  0  0  0  0  0  0
    6.5166   42.1077   43.4965 O   0  0  0  0  0  0  0  0  0  0  0  0
    6.7214   42.1478   41.8370 S   0  0  1  0  0  6  0  0  0  0  0  0
    5.8010   41.2316   41.1123 O   0  0  0  0  0  0  0  0  0  0  0  0
    6.5179   43.5462   41.3375 O   0  0  0  0  0  0  0  0  0  0  0  0
    8.3078   41.6871   41.5044 O   0  0  0  0  0  0  0  0  0  0  0  0
  1  2  2  0
  2  3  1  0
  3  4  1  0
  3  5  1  0
  4 11  1  0
  5  6  1  1
  5  9  1  0
  6  7  2  0
  6  8  1  0
  9 10  1  0
 10 11  1  0
 11 12  1  6
 12 13  1  0
 13 14  1  0
 14 15  2  0
 14 16  2  0
 14 17  1  1
M  CHG  1  12   1
M  END
$$$$
