
     RDKit          3D

 25 27  0  0  0  0  0  0  0  0999 V2000
    0.7508    7.4474   23.2505 C   0  0  0  0  0  0  0  0  0  0  0  0
    1.0474    7.2224   24.6409 C   0  0  0  0  0  0  0  0  0  0  0  0
    0.7280    8.1280   25.5369 C   0  0  0  0  0  0  0  0  0  0  0  0
    0.0728    9.3724   25.1617 C   0  0  0  0  0  0  0  0  0  0  0  0
   -0.2112    9.6054   23.8938 C   0  0  0  0  0  0  0  0  0  0  0  0
    0.0900    8.6782   22.7848 C   0  0  0  0  0  0  0  0  0  0  0  0
    0.1306    9.8138   20.7686 C   0  0  0  0  0  0  0  0  0  0  0  0
   -0.2485   10.3236   26.2082 C   0  0  0  0  0  0  0  0  0  0  0  0
   -0.1283   12.5659   28.1948 C   0  0  0  0  0  0  0  0  0  0  0  0
    1.1460    7.7769   27.3742 Br  0  0  0  0  0  0  0  0  0  0  0  0
    0.8718    9.3735   21.8638 O   0  0  0  0  0  0  0  0  0  0  0  0
    1.0666    6.5679   22.4216 O   0  0  0  0  0  0  0  0  0  0  0  0
   -0.1075   11.5745   25.9645 N   0  0  0  0  0  0  0  0  0  0  0  0
   -0.3792   12.5879   26.8764 N   0  0  0  0  0  0  0  0  0  0  0  0
   -0.9404   13.7655   26.5966 C   0  0  0  0  0  0  0  0  0  0  0  0
   -1.0248   14.4504   27.7548 N   0  0  0  0  0  0  0  0  0  0  0  0
   -0.5346   13.7239   28.7138 N   0  0  0  0  0  0  0  0  0  0  0  0
    0.6251   11.2064   29.0940 S   0  0  0  0  0  0  0  0  0  0  0  0
    1.9648   11.8527   30.1312 C   0  0  0  0  0  0  0  0  0  0  0  0
   -1.4043   14.2992   25.3253 C   0  0  0  0  0  0  0  0  0  0  0  0
   -1.5570   13.5148   24.1970 C   0  0  0  0  0  0  0  0  0  0  0  0
   -2.0005   14.0444   22.9958 C   0  0  0  0  0  0  0  0  0  0  0  0
   -2.2932   15.3777   22.9307 C   0  0  0  0  0  0  0  0  0  0  0  0
   -2.1548   16.1874   24.0262 C   0  0  0  0  0  0  0  0  0  0  0  0
   -1.7086   15.6331   25.2188 C   0  0  0  0  0  0  0  0  0  0  0  0
  2  1  1  0
  6  1  1  0
  1 12  2  0
  3  2  2  0
  4  3  1  0
  3 10  1  0
  4  5  2  0
  8  4  1  0
  5  6  1  0
  6 11  1  0
  7 11  1  6
 13  8  2  0
 14  9  1  0
  9 17  2  0
  9 18  1  0
 13 14  1  0
 14 15  1  0
 15 16  2  0
 15 20  1  0
 16 17  1  0
 19 18  1  6
 20 21  2  0
 20 25  1  0
 21 22  1  0
 22 23  2  0
 23 24  1  0
 24 25  2  0
M  END
$$$$
