
     RDKit          3D

 25 27  0  0  0  0  0  0  0  0999 V2000
    0.0325    7.1925   22.9645 C   0  0  0  0  0  0  0  0  0  0  0  0
   -0.6366    7.2674   24.2366 C   0  0  0  0  0  0  0  0  0  0  0  0
   -0.9504    8.4359   24.7475 C   0  0  0  0  0  0  0  0  0  0  0  0
   -0.6375    9.6779   24.0561 C   0  0  0  0  0  0  0  0  0  0  0  0
   -0.0242    9.6394   22.8878 C   0  0  0  0  0  0  0  0  0  0  0  0
    0.3858    8.3996   22.1986 C   0  0  0  0  0  0  0  0  0  0  0  0
    2.1857    7.5958   20.9859 C   0  0  0  0  0  0  0  0  0  0  0  0
   -1.0159   10.9293   24.6841 C   0  0  0  0  0  0  0  0  0  0  0  0
   -1.6064   14.1721   23.6955 C   0  0  0  0  0  0  0  0  0  0  0  0
   -1.8406    8.4775   26.4444 Br  0  0  0  0  0  0  0  0  0  0  0  0
    1.7576    8.4879   21.9676 O   0  0  0  0  0  0  0  0  0  0  0  0
    0.3181    6.0670   22.5042 O   0  0  0  0  0  0  0  0  0  0  0  0
   -0.5613   12.0235   24.1941 N   0  0  0  0  0  0  0  0  0  0  0  0
   -1.0324   13.2884   24.5267 N   0  0  0  0  0  0  0  0  0  0  0  0
   -0.9949   13.8460   25.7381 C   0  0  0  0  0  0  0  0  0  0  0  0
   -1.5498   15.0699   25.6293 N   0  0  0  0  0  0  0  0  0  0  0  0
   -1.9163   15.2613   24.3977 N   0  0  0  0  0  0  0  0  0  0  0  0
   -1.9012   13.9207   21.9422 S   0  0  0  0  0  0  0  0  0  0  0  0
   -2.7309   15.3843   21.2653 C   0  0  0  0  0  0  0  0  0  0  0  0
   -0.4782   13.3194   26.9919 C   0  0  0  0  0  0  0  0  0  0  0  0
   -0.9307   13.7493   28.2257 C   0  0  0  0  0  0  0  0  0  0  0  0
   -0.4241   13.2336   29.4079 C   0  0  0  0  0  0  0  0  0  0  0  0
    0.5480   12.2752   29.3465 C   0  0  0  0  0  0  0  0  0  0  0  0
    1.0222   11.8234   28.1439 C   0  0  0  0  0  0  0  0  0  0  0  0
    0.4987   12.3558   26.9729 C   0  0  0  0  0  0  0  0  0  0  0  0
  2  1  1  0
  6  1  1  0
  1 12  2  0
  3  2  2  0
  4  3  1  0
  3 10  1  0
  4  5  2  0
  8  4  1  0
  5  6  1  0
  6 11  1  0
  7 11  1  6
 13  8  2  0
 14  9  1  0
  9 17  2  0
  9 18  1  0
 13 14  1  0
 14 15  1  0
 15 16  2  0
 15 20  1  0
 16 17  1  0
 19 18  1  6
 20 21  2  0
 20 25  1  0
 21 22  1  0
 22 23  2  0
 23 24  1  0
 24 25  2  0
M  END
$$$$
